
     RDKit          3D

 63 65  0  0  0  0  0  0  0  0999 V2000
  136.8530   69.1750  222.7890 C   0  0  0  0  0  0  0  0  0  0  0  0
  136.6870   70.3610  223.7100 C   0  0  0  0  0  0  0  0  0  0  0  0
  137.4940   71.5360  223.3080 C   0  0  0  0  0  0  0  0  0  0  0  0
  136.8730   72.6170  223.0990 O   0  0  0  0  0  0  0  0  0  0  0  0
  138.9150   71.4290  223.1660 N   0  0  0  0  0  0  0  0  0  0  0  0
  139.6750   70.9510  224.2710 C   0  0  0  0  0  0  0  0  0  0  0  0
  140.4040   71.8710  225.0060 C   0  0  0  0  0  0  0  0  0  0  0  0
  141.1600   71.4670  226.0860 C   0  0  0  0  0  0  0  0  0  0  0  0
  141.1480   70.1090  226.3900 C   0  0  0  0  0  0  0  0  0  0  0  0
  140.4300   69.1910  225.6680 C   0  0  0  0  0  0  0  0  0  0  0  0
  139.6730   69.5950  224.5860 C   0  0  0  0  0  0  0  0  0  0  0  0
  139.5320   71.8220  221.9010 C   0  0  0  0  0  0  0  0  0  0  0  0
  139.1880   73.2340  221.5420 C   0  0  0  0  0  0  0  0  0  0  0  0
  140.0060   73.5530  220.2990 C   0  0  0  0  0  0  0  0  0  0  0  0
  141.4000   73.5960  220.6330 N   0  0  0  0  0  0  0  0  0  0  0  0
  142.3080   74.6460  220.4110 C   0  0  0  0  0  0  0  0  0  0  0  0
  143.5250   74.4410  220.8230 O   0  0  0  0  0  0  0  0  0  0  0  0
  142.1060   75.9520  219.7860 C   0  0  2  0  0  0  0  0  0  0  0  0
  143.2800   76.7940  219.7540 N   0  0  0  0  0  0  0  0  0  0  0  0
  140.9850   76.7870  220.3440 C   0  0  0  0  0  0  0  0  0  0  0  0
  140.9010   76.9840  221.7970 C   0  0  2  0  0  0  0  0  0  0  0  0
  139.5460   76.8240  222.3720 C   0  0  0  0  0  0  0  0  0  0  0  0
  141.4510   78.3400  222.1980 C   0  0  0  0  0  0  0  0  0  0  0  0
  141.7380   78.5950  223.5440 C   0  0  0  0  0  0  0  0  0  0  0  0
  142.2370   79.8180  223.9600 C   0  0  0  0  0  0  0  0  0  0  0  0
  142.4520   80.8070  223.0010 C   0  0  0  0  0  0  0  0  0  0  0  0
  142.1730   80.5720  221.6680 C   0  0  0  0  0  0  0  0  0  0  0  0
  141.6720   79.3330  221.2730 C   0  0  0  0  0  0  0  0  0  0  0  0
  141.9290   72.3940  221.2720 C   0  0  0  0  0  0  0  0  0  0  0  0
  140.9780   71.5270  221.9640 C   0  0  0  0  0  0  0  0  0  0  0  0
  136.9809   68.2610  223.3876 H   0  0  0  0  0  0  0  0  0  0  0  0
  135.9600   69.0757  222.1544 H   0  0  0  0  0  0  0  0  0  0  0  0
  137.7389   69.3247  222.1544 H   0  0  0  0  0  0  0  0  0  0  0  0
  135.6262   70.6521  223.7157 H   0  0  0  0  0  0  0  0  0  0  0  0
  137.0387   70.0509  224.7051 H   0  0  0  0  0  0  0  0  0  0  0  0
  140.3797   72.9343  224.7254 H   0  0  0  0  0  0  0  0  0  0  0  0
  141.7453   72.1846  226.6796 H   0  0  0  0  0  0  0  0  0  0  0  0
  141.7406   69.7567  227.2472 H   0  0  0  0  0  0  0  0  0  0  0  0
  140.4570   68.1286  225.9517 H   0  0  0  0  0  0  0  0  0  0  0  0
  139.0905   68.8727  223.9954 H   0  0  0  0  0  0  0  0  0  0  0  0
  139.1246   71.2305  221.0678 H   0  0  0  0  0  0  0  0  0  0  0  0
  138.1129   73.3243  221.3274 H   0  0  0  0  0  0  0  0  0  0  0  0
  139.4119   73.9286  222.3651 H   0  0  0  0  0  0  0  0  0  0  0  0
  139.8360   72.7749  219.5403 H   0  0  0  0  0  0  0  0  0  0  0  0
  139.6972   74.5313  219.9020 H   0  0  0  0  0  0  0  0  0  0  0  0
  141.8363   75.6321  218.7687 H   0  0  0  0  0  0  0  0  0  0  0  0
  143.0510   77.8080  219.8250 H   0  0  0  0  0  0  0  0  0  0  0  0
  143.9470   76.5490  220.5000 H   0  0  0  0  0  0  0  0  0  0  0  0
  141.0674   77.7844  219.8874 H   0  0  0  0  0  0  0  0  0  0  0  0
  140.0800   76.2102  220.1025 H   0  0  0  0  0  0  0  0  0  0  0  0
  141.5168   76.1742  222.2154 H   0  0  0  0  0  0  0  0  0  0  0  0
  139.6104   76.8316  223.4701 H   0  0  0  0  0  0  0  0  0  0  0  0
  138.9051   77.6527  222.0365 H   0  0  0  0  0  0  0  0  0  0  0  0
  139.1158   75.8688  222.0365 H   0  0  0  0  0  0  0  0  0  0  0  0
  141.5630   77.8050  224.2892 H   0  0  0  0  0  0  0  0  0  0  0  0
  142.4584   80.0047  225.0212 H   0  0  0  0  0  0  0  0  0  0  0  0
  142.8483   81.7858  223.3090 H   0  0  0  0  0  0  0  0  0  0  0  0
  142.3459   81.3607  220.9209 H   0  0  0  0  0  0  0  0  0  0  0  0
  141.4513   79.1478  220.2114 H   0  0  0  0  0  0  0  0  0  0  0  0
  142.4163   71.7922  220.4908 H   0  0  0  0  0  0  0  0  0  0  0  0
  142.5974   72.7662  222.0624 H   0  0  0  0  0  0  0  0  0  0  0  0
  141.1143   70.5150  221.5549 H   0  0  0  0  0  0  0  0  0  0  0  0
  141.2221   71.6787  223.0258 H   0  0  0  0  0  0  0  0  0  0  0  0
  1  2  1  0
  2  3  1  0
  3  4  2  0
  3  5  1  0
  5  6  1  0
  6  7  2  0
  7  8  1  0
  8  9  2  0
  9 10  1  0
 10 11  2  0
  5 12  1  0
 12 13  1  0
 13 14  1  0
 14 15  1  0
 15 16  1  0
 16 17  2  0
 16 18  1  0
 18 19  1  0
 18 20  1  0
 20 21  1  0
 21 22  1  0
 21 23  1  0
 23 24  2  0
 24 25  1  0
 25 26  2  0
 26 27  1  0
 27 28  2  0
 15 29  1  0
 29 30  1  0
 11  6  1  0
 30 12  1  0
 28 23  1  0
  1 31  1  0
  1 32  1  0
  1 33  1  0
  2 34  1  0
  2 35  1  0
  7 36  1  0
  8 37  1  0
  9 38  1  0
 10 39  1  0
 11 40  1  0
 12 41  1  0
 13 42  1  0
 13 43  1  0
 14 44  1  0
 14 45  1  0
 18 46  1  6
 19 47  1  0
 19 48  1  0
 20 49  1  0
 20 50  1  0
 21 51  1  1
 22 52  1  0
 22 53  1  0
 22 54  1  0
 24 55  1  0
 25 56  1  0
 26 57  1  0
 27 58  1  0
 28 59  1  0
 29 60  1  0
 29 61  1  0
 30 62  1  0
 30 63  1  0
M  END
>  <smiles>  (1) 
CCC(=O)N(c1ccccc1)C1CCN(C(=O)[C@H](N)CC(C)c2ccccc2)CC1

>  <score_type>  (1) 
oracle

>  <origin>  (1) 
autodockgpu

>  <m_score__min__energy>  (1) 
-8.8699999999999992

>  <m_primary>  (1) 
energy

>  <rmsd>  (1) 
6.3414526241673626

>  <m_score__min__rmsd>  (1) 
6.3414526241673626

>  <meeko>  (1) 
{"free_energy": -7.25, "intermolecular_energy": -9.93, "internal_energy": -2.66, "cluster_size": 10, "cluster_id": 5, "rank_in_cluster": 7}

>  <energy>  (1) 
-8.87

>  <cluster_rmsd>  (1) 
0.0

>  <cluster>  (1) 
1

$$$$

     RDKit          3D

 63 65  0  0  0  0  0  0  0  0999 V2000
  138.0190   80.4920  223.8740 C   0  0  0  0  0  0  0  0  0  0  0  0
  137.7970   79.6750  222.6220 C   0  0  0  0  0  0  0  0  0  0  0  0
  138.4570   78.3500  222.6600 C   0  0  0  0  0  0  0  0  0  0  0  0
  137.7700   77.3770  223.0830 O   0  0  0  0  0  0  0  0  0  0  0  0
  139.8150   78.2000  222.2310 N   0  0  0  0  0  0  0  0  0  0  0  0
  140.7570   79.2050  222.5900 C   0  0  0  0  0  0  0  0  0  0  0  0
  140.9530   80.2560  221.7080 C   0  0  0  0  0  0  0  0  0  0  0  0
  141.8540   81.2580  222.0010 C   0  0  0  0  0  0  0  0  0  0  0  0
  142.5390   81.1580  223.2070 C   0  0  0  0  0  0  0  0  0  0  0  0
  142.3510   80.1220  224.0850 C   0  0  0  0  0  0  0  0  0  0  0  0
  141.4500   79.1170  223.7940 C   0  0  0  0  0  0  0  0  0  0  0  0
  140.1810   77.0280  221.4380 C   0  0  0  0  0  0  0  0  0  0  0  0
  140.9890   76.0580  222.2410 C   0  0  0  0  0  0  0  0  0  0  0  0
  141.1710   74.8380  221.3500 C   0  0  0  0  0  0  0  0  0  0  0  0
  139.9080   74.1830  221.1600 N   0  0  0  0  0  0  0  0  0  0  0  0
  139.5860   72.8400  221.4170 C   0  0  0  0  0  0  0  0  0  0  0  0
  138.3550   72.4940  221.1720 O   0  0  0  0  0  0  0  0  0  0  0  0
  140.4180   71.7500  221.9250 C   0  0  2  0  0  0  0  0  0  0  0  0
  140.0000   70.4290  221.5120 N   0  0  0  0  0  0  0  0  0  0  0  0
  140.6080   71.7020  223.4160 C   0  0  0  0  0  0  0  0  0  0  0  0
  139.8130   70.7500  224.2040 C   0  0  2  0  0  0  0  0  0  0  0  0
  138.3480   70.9510  224.1320 C   0  0  0  0  0  0  0  0  0  0  0  0
  140.2410   70.7520  225.6590 C   0  0  0  0  0  0  0  0  0  0  0  0
  140.1360   69.5750  226.4080 C   0  0  0  0  0  0  0  0  0  0  0  0
  140.5090   69.5270  227.7410 C   0  0  0  0  0  0  0  0  0  0  0  0
  141.0000   70.6890  228.3340 C   0  0  0  0  0  0  0  0  0  0  0  0
  141.1100   71.8610  227.6090 C   0  0  0  0  0  0  0  0  0  0  0  0
  140.7280   71.8850  226.2680 C   0  0  0  0  0  0  0  0  0  0  0  0
  138.8390   75.0250  220.6270 C   0  0  0  0  0  0  0  0  0  0  0  0
  138.9590   76.4680  220.8240 C   0  0  0  0  0  0  0  0  0  0  0  0
  137.8476   79.8612  224.7587 H   0  0  0  0  0  0  0  0  0  0  0  0
  139.0522   80.8692  223.8873 H   0  0  0  0  0  0  0  0  0  0  0  0
  137.3188   81.3402  223.8873 H   0  0  0  0  0  0  0  0  0  0  0  0
  136.7154   79.5222  222.4925 H   0  0  0  0  0  0  0  0  0  0  0  0
  138.2407   80.2351  221.7857 H   0  0  0  0  0  0  0  0  0  0  0  0
  140.3852   80.2911  220.7665 H   0  0  0  0  0  0  0  0  0  0  0  0
  142.0232   82.0985  221.3118 H   0  0  0  0  0  0  0  0  0  0  0  0
  143.2630   81.9440  223.4678 H   0  0  0  0  0  0  0  0  0  0  0  0
  142.9205   80.0913  225.0256 H   0  0  0  0  0  0  0  0  0  0  0  0
  141.2861   78.2788  224.4872 H   0  0  0  0  0  0  0  0  0  0  0  0
  140.8502   77.3088  220.6113 H   0  0  0  0  0  0  0  0  0  0  0  0
  141.9655   76.4935  222.4993 H   0  0  0  0  0  0  0  0  0  0  0  0
  140.4908   75.7995  223.1870 H   0  0  0  0  0  0  0  0  0  0  0  0
  141.5690   75.1541  220.3745 H   0  0  0  0  0  0  0  0  0  0  0  0
  141.8742   74.1402  221.8282 H   0  0  0  0  0  0  0  0  0  0  0  0
  141.3773   72.0125  221.4551 H   0  0  0  0  0  0  0  0  0  0  0  0
  140.1760   69.7050  222.2410 H   0  0  0  0  0  0  0  0  0  0  0  0
  139.0040   70.4070  221.2520 H   0  0  0  0  0  0  0  0  0  0  0  0
  141.6669   71.4670  223.5989 H   0  0  0  0  0  0  0  0  0  0  0  0
  140.2575   72.6866  223.7590 H   0  0  0  0  0  0  0  0  0  0  0  0
  140.0196   69.7749  223.7388 H   0  0  0  0  0  0  0  0  0  0  0  0
  137.9352   71.0076  225.1500 H   0  0  0  0  0  0  0  0  0  0  0  0
  138.1322   71.8872  223.5962 H   0  0  0  0  0  0  0  0  0  0  0  0
  137.8881   70.1075  223.5962 H   0  0  0  0  0  0  0  0  0  0  0  0
  139.7477   68.6654  225.9264 H   0  0  0  0  0  0  0  0  0  0  0  0
  140.4199   68.5945  228.3177 H   0  0  0  0  0  0  0  0  0  0  0  0
  141.3035   70.6733  229.3912 H   0  0  0  0  0  0  0  0  0  0  0  0
  141.4977   72.7719  228.0885 H   0  0  0  0  0  0  0  0  0  0  0  0
  140.8169   72.8181  225.6923 H   0  0  0  0  0  0  0  0  0  0  0  0
  138.7847   74.8432  219.5435 H   0  0  0  0  0  0  0  0  0  0  0  0
  137.9430   74.7366  221.1962 H   0  0  0  0  0  0  0  0  0  0  0  0
  138.8589   76.9339  219.8326 H   0  0  0  0  0  0  0  0  0  0  0  0
  138.1775   76.6891  221.5659 H   0  0  0  0  0  0  0  0  0  0  0  0
  1  2  1  0
  2  3  1  0
  3  4  2  0
  3  5  1  0
  5  6  1  0
  6  7  2  0
  7  8  1  0
  8  9  2  0
  9 10  1  0
 10 11  2  0
  5 12  1  0
 12 13  1  0
 13 14  1  0
 14 15  1  0
 15 16  1  0
 16 17  2  0
 16 18  1  0
 18 19  1  0
 18 20  1  0
 20 21  1  0
 21 22  1  0
 21 23  1  0
 23 24  2  0
 24 25  1  0
 25 26  2  0
 26 27  1  0
 27 28  2  0
 15 29  1  0
 29 30  1  0
 11  6  1  0
 30 12  1  0
 28 23  1  0
  1 31  1  0
  1 32  1  0
  1 33  1  0
  2 34  1  0
  2 35  1  0
  7 36  1  0
  8 37  1  0
  9 38  1  0
 10 39  1  0
 11 40  1  0
 12 41  1  0
 13 42  1  0
 13 43  1  0
 14 44  1  0
 14 45  1  0
 18 46  1  6
 19 47  1  0
 19 48  1  0
 20 49  1  0
 20 50  1  0
 21 51  1  6
 22 52  1  0
 22 53  1  0
 22 54  1  0
 24 55  1  0
 25 56  1  0
 26 57  1  0
 27 58  1  0
 28 59  1  0
 29 60  1  0
 29 61  1  0
 30 62  1  0
 30 63  1  0
M  END
>  <smiles>  (2) 
CCC(=O)N(c1ccccc1)C1CCN(C(=O)[C@H](N)CC(C)c2ccccc2)CC1

>  <score_type>  (2) 
oracle

>  <origin>  (2) 
autodockgpu

>  <m_score__min__energy>  (2) 
-8.8699999999999992

>  <m_primary>  (2) 
energy

>  <rmsd>  (2) 
6.609144968000965

>  <m_score__min__rmsd>  (2) 
6.609144968000965

>  <meeko>  (2) 
{"free_energy": -7.46, "intermolecular_energy": -10.15, "internal_energy": -2.24, "cluster_size": 4, "cluster_id": 6, "rank_in_cluster": 3}

>  <energy>  (2) 
-8.57

>  <cluster_rmsd>  (2) 
0.48

>  <cluster>  (2) 
1

$$$$

     RDKit          3D

 63 65  0  0  0  0  0  0  0  0999 V2000
  140.3180   71.5950  223.2680 C   0  0  0  0  0  0  0  0  0  0  0  0
  141.0710   71.8850  221.9900 C   0  0  0  0  0  0  0  0  0  0  0  0
  141.0700   73.3190  221.6200 C   0  0  0  0  0  0  0  0  0  0  0  0
  140.3400   74.0900  222.3060 O   0  0  0  0  0  0  0  0  0  0  0  0
  141.8680   73.7900  220.5280 N   0  0  0  0  0  0  0  0  0  0  0  0
  143.2240   73.3680  220.4450 C   0  0  0  0  0  0  0  0  0  0  0  0
  143.4800   72.0950  219.9610 C   0  0  0  0  0  0  0  0  0  0  0  0
  144.7750   71.6310  219.8590 C   0  0  0  0  0  0  0  0  0  0  0  0
  145.7880   72.4950  220.2590 C   0  0  0  0  0  0  0  0  0  0  0  0
  145.5440   73.7560  220.7390 C   0  0  0  0  0  0  0  0  0  0  0  0
  144.2490   74.2230  220.8430 C   0  0  0  0  0  0  0  0  0  0  0  0
  141.2640   74.6900  219.5470 C   0  0  0  0  0  0  0  0  0  0  0  0
  141.1380   76.0800  220.0890 C   0  0  0  0  0  0  0  0  0  0  0  0
  140.6410   76.9300  218.9280 C   0  0  0  0  0  0  0  0  0  0  0  0
  141.6620   77.0270  217.9250 N   0  0  0  0  0  0  0  0  0  0  0  0
  142.2220   78.1920  217.3740 C   0  0  0  0  0  0  0  0  0  0  0  0
  143.1520   78.0080  216.4820 O   0  0  0  0  0  0  0  0  0  0  0  0
  141.9280   79.5990  217.6440 C   0  0  2  0  0  0  0  0  0  0  0  0
  142.5690   80.5320  216.7450 N   0  0  0  0  0  0  0  0  0  0  0  0
  142.2080   80.0780  219.0420 C   0  0  0  0  0  0  0  0  0  0  0  0
  141.0770   80.3220  219.9490 C   0  0  2  0  0  0  0  0  0  0  0  0
  140.5600   81.7100  219.9410 C   0  0  0  0  0  0  0  0  0  0  0  0
  141.4230   79.9320  221.3730 C   0  0  0  0  0  0  0  0  0  0  0  0
  142.1750   80.8100  222.1630 C   0  0  0  0  0  0  0  0  0  0  0  0
  142.5210   80.4970  223.4670 C   0  0  0  0  0  0  0  0  0  0  0  0
  142.1000   79.2740  223.9890 C   0  0  0  0  0  0  0  0  0  0  0  0
  141.3570   78.3960  223.2230 C   0  0  0  0  0  0  0  0  0  0  0  0
  141.0210   78.7330  221.9120 C   0  0  0  0  0  0  0  0  0  0  0  0
  142.1670   75.7520  217.4190 C   0  0  0  0  0  0  0  0  0  0  0  0
  142.0110   74.5800  218.2770 C   0  0  0  0  0  0  0  0  0  0  0  0
  140.9537   71.8398  224.1317 H   0  0  0  0  0  0  0  0  0  0  0  0
  139.4034   72.2052  223.3012 H   0  0  0  0  0  0  0  0  0  0  0  0
  140.0489   70.5289  223.3012 H   0  0  0  0  0  0  0  0  0  0  0  0
  142.1136   71.5584  222.1177 H   0  0  0  0  0  0  0  0  0  0  0  0
  140.5611   71.3404  221.1816 H   0  0  0  0  0  0  0  0  0  0  0  0
  142.6436   71.4492  219.6556 H   0  0  0  0  0  0  0  0  0  0  0  0
  144.9962   70.6229  219.4784 H   0  0  0  0  0  0  0  0  0  0  0  0
  146.8307   72.1521  220.1873 H   0  0  0  0  0  0  0  0  0  0  0  0
  146.3838   74.3984  221.0425 H   0  0  0  0  0  0  0  0  0  0  0  0
  144.0348   75.2318  221.2256 H   0  0  0  0  0  0  0  0  0  0  0  0
  140.2268   74.3939  219.3314 H   0  0  0  0  0  0  0  0  0  0  0  0
  140.4164   76.1043  220.9189 H   0  0  0  0  0  0  0  0  0  0  0  0
  142.0955   76.4508  220.4836 H   0  0  0  0  0  0  0  0  0  0  0  0
  139.7443   76.4650  218.4925 H   0  0  0  0  0  0  0  0  0  0  0  0
  140.3950   77.9375  219.2946 H   0  0  0  0  0  0  0  0  0  0  0  0
  140.8399   79.5965  217.4829 H   0  0  0  0  0  0  0  0  0  0  0  0
  143.4140   80.9770  217.1620 H   0  0  0  0  0  0  0  0  0  0  0  0
  142.8300   80.0860  215.8540 H   0  0  0  0  0  0  0  0  0  0  0  0
  142.8481   79.3220  219.5202 H   0  0  0  0  0  0  0  0  0  0  0  0
  142.6512   81.0743  218.8970 H   0  0  0  0  0  0  0  0  0  0  0  0
  140.2719   79.6839  219.5558 H   0  0  0  0  0  0  0  0  0  0  0  0
  140.4301   82.0589  220.9761 H   0  0  0  0  0  0  0  0  0  0  0  0
  141.2746   82.3645  219.4205 H   0  0  0  0  0  0  0  0  0  0  0  0
  139.5913   81.7375  219.4205 H   0  0  0  0  0  0  0  0  0  0  0  0
  142.4987   81.7714  221.7377 H   0  0  0  0  0  0  0  0  0  0  0  0
  143.1133   81.1958  224.0761 H   0  0  0  0  0  0  0  0  0  0  0  0
  142.3626   79.0051  225.0228 H   0  0  0  0  0  0  0  0  0  0  0  0
  141.0315   77.4342  223.6460 H   0  0  0  0  0  0  0  0  0  0  0  0
  140.4290   78.0331  221.3039 H   0  0  0  0  0  0  0  0  0  0  0  0
  141.6444   75.5414  216.4743 H   0  0  0  0  0  0  0  0  0  0  0  0
  143.2542   75.8944  217.3315 H   0  0  0  0  0  0  0  0  0  0  0  0
  141.5040   73.8111  217.6756 H   0  0  0  0  0  0  0  0  0  0  0  0
  143.0392   74.3675  218.6052 H   0  0  0  0  0  0  0  0  0  0  0  0
  1  2  1  0
  2  3  1  0
  3  4  2  0
  3  5  1  0
  5  6  1  0
  6  7  2  0
  7  8  1  0
  8  9  2  0
  9 10  1  0
 10 11  2  0
  5 12  1  0
 12 13  1  0
 13 14  1  0
 14 15  1  0
 15 16  1  0
 16 17  2  0
 16 18  1  0
 18 19  1  0
 18 20  1  0
 20 21  1  0
 21 22  1  0
 21 23  1  0
 23 24  2  0
 24 25  1  0
 25 26  2  0
 26 27  1  0
 27 28  2  0
 15 29  1  0
 29 30  1  0
 11  6  1  0
 30 12  1  0
 28 23  1  0
  1 31  1  0
  1 32  1  0
  1 33  1  0
  2 34  1  0
  2 35  1  0
  7 36  1  0
  8 37  1  0
  9 38  1  0
 10 39  1  0
 11 40  1  0
 12 41  1  0
 13 42  1  0
 13 43  1  0
 14 44  1  0
 14 45  1  0
 18 46  1  6
 19 47  1  0
 19 48  1  0
 20 49  1  0
 20 50  1  0
 21 51  1  6
 22 52  1  0
 22 53  1  0
 22 54  1  0
 24 55  1  0
 25 56  1  0
 26 57  1  0
 27 58  1  0
 28 59  1  0
 29 60  1  0
 29 61  1  0
 30 62  1  0
 30 63  1  0
M  END
>  <smiles>  (3) 
CCC(=O)N(c1ccccc1)C1CCN(C(=O)[C@H](N)CC(C)c2ccccc2)CC1

>  <score_type>  (3) 
oracle

>  <origin>  (3) 
autodockgpu

>  <m_score__min__energy>  (3) 
-8.8699999999999992

>  <m_primary>  (3) 
energy

>  <rmsd>  (3) 
5.974765329635256

>  <m_score__min__rmsd>  (3) 
5.974765329635256

>  <meeko>  (3) 
{"free_energy": -7.12, "intermolecular_energy": -9.81, "internal_energy": -2.83, "cluster_size": 6, "cluster_id": 9, "rank_in_cluster": 1}

>  <energy>  (3) 
-8.53

>  <cluster_rmsd>  (3) 
0.38

>  <cluster>  (3) 
1

$$$$

     RDKit          3D

 63 65  0  0  0  0  0  0  0  0999 V2000
  146.3600   73.1360  221.7860 C   0  0  0  0  0  0  0  0  0  0  0  0
  145.9180   74.0940  220.7050 C   0  0  0  0  0  0  0  0  0  0  0  0
  145.2720   73.4230  219.5530 C   0  0  0  0  0  0  0  0  0  0  0  0
  145.9820   72.6220  218.8820 O   0  0  0  0  0  0  0  0  0  0  0  0
  143.9010   73.6860  219.2330 N   0  0  0  0  0  0  0  0  0  0  0  0
  143.5450   74.9880  218.7810 C   0  0  0  0  0  0  0  0  0  0  0  0
  143.5860   75.2370  217.4190 C   0  0  0  0  0  0  0  0  0  0  0  0
  143.2530   76.4800  216.9230 C   0  0  0  0  0  0  0  0  0  0  0  0
  142.8790   77.4490  217.8480 C   0  0  0  0  0  0  0  0  0  0  0  0
  142.8350   77.2110  219.1980 C   0  0  0  0  0  0  0  0  0  0  0  0
  143.1690   75.9670  219.6960 C   0  0  0  0  0  0  0  0  0  0  0  0
  142.9200   72.6130  219.3870 C   0  0  0  0  0  0  0  0  0  0  0  0
  142.6740   72.3040  220.8310 C   0  0  0  0  0  0  0  0  0  0  0  0
  141.5400   71.2890  220.8460 C   0  0  0  0  0  0  0  0  0  0  0  0
  140.3260   71.9110  220.3990 N   0  0  0  0  0  0  0  0  0  0  0  0
  139.0910   71.9690  221.0660 C   0  0  0  0  0  0  0  0  0  0  0  0
  138.1410   72.6100  220.4480 O   0  0  0  0  0  0  0  0  0  0  0  0
  138.6910   71.4220  222.3620 C   0  0  2  0  0  0  0  0  0  0  0  0
  137.4480   71.9450  222.8800 N   0  0  0  0  0  0  0  0  0  0  0  0
  139.7060   71.5290  223.4670 C   0  0  0  0  0  0  0  0  0  0  0  0
  139.9670   70.3520  224.3080 C   0  0  2  0  0  0  0  0  0  0  0  0
  138.8570   69.3740  224.3760 C   0  0  0  0  0  0  0  0  0  0  0  0
  140.3510   70.7610  225.7170 C   0  0  0  0  0  0  0  0  0  0  0  0
  139.9310   69.9790  226.7990 C   0  0  0  0  0  0  0  0  0  0  0  0
  140.2520   70.3140  228.1040 C   0  0  0  0  0  0  0  0  0  0  0  0
  141.0150   71.4590  228.3260 C   0  0  0  0  0  0  0  0  0  0  0  0
  141.4380   72.2430  227.2690 C   0  0  0  0  0  0  0  0  0  0  0  0
  141.1020   71.8860  225.9640 C   0  0  0  0  0  0  0  0  0  0  0  0
  140.3950   72.5500  219.0860 C   0  0  0  0  0  0  0  0  0  0  0  0
  141.7140   72.9550  218.6050 C   0  0  0  0  0  0  0  0  0  0  0  0
  146.1564   73.5774  222.7728 H   0  0  0  0  0  0  0  0  0  0  0  0
  145.8072   72.1902  221.6862 H   0  0  0  0  0  0  0  0  0  0  0  0
  147.4383   72.9428  221.6862 H   0  0  0  0  0  0  0  0  0  0  0  0
  145.2012   74.8053  221.1411 H   0  0  0  0  0  0  0  0  0  0  0  0
  146.8210   74.5943  220.3251 H   0  0  0  0  0  0  0  0  0  0  0  0
  143.8867   74.4365  216.7271 H   0  0  0  0  0  0  0  0  0  0  0  0
  143.2819   76.6953  215.8447 H   0  0  0  0  0  0  0  0  0  0  0  0
  142.6067   78.4496  217.4809 H   0  0  0  0  0  0  0  0  0  0  0  0
  142.5326   78.0138  219.8865 H   0  0  0  0  0  0  0  0  0  0  0  0
  143.1390   75.7577  220.7755 H   0  0  0  0  0  0  0  0  0  0  0  0
  143.3054   71.6681  218.9762 H   0  0  0  0  0  0  0  0  0  0  0  0
  143.5772   71.8772  221.2914 H   0  0  0  0  0  0  0  0  0  0  0  0
  142.4178   73.2084  221.4024 H   0  0  0  0  0  0  0  0  0  0  0  0
  141.7897   70.4523  220.1769 H   0  0  0  0  0  0  0  0  0  0  0  0
  141.4007   70.9145  221.8709 H   0  0  0  0  0  0  0  0  0  0  0  0
  138.5757   70.3623  222.0903 H   0  0  0  0  0  0  0  0  0  0  0  0
  137.5910   72.7270  223.5560 H   0  0  0  0  0  0  0  0  0  0  0  0
  136.8230   72.2640  222.1260 H   0  0  0  0  0  0  0  0  0  0  0  0
  140.6617   71.8114  223.0013 H   0  0  0  0  0  0  0  0  0  0  0  0
  139.2651   72.2588  224.1620 H   0  0  0  0  0  0  0  0  0  0  0  0
  140.8039   69.8428  223.8077 H   0  0  0  0  0  0  0  0  0  0  0  0
  138.6179   69.1633  225.4288 H   0  0  0  0  0  0  0  0  0  0  0  0
  137.9706   69.7900  223.8748 H   0  0  0  0  0  0  0  0  0  0  0  0
  139.1581   68.4422  223.8748 H   0  0  0  0  0  0  0  0  0  0  0  0
  139.3315   69.0766  226.6084 H   0  0  0  0  0  0  0  0  0  0  0  0
  139.9129   69.6913  228.9450 H   0  0  0  0  0  0  0  0  0  0  0  0
  141.2837   71.7421  229.3544 H   0  0  0  0  0  0  0  0  0  0  0  0
  142.0378   73.1457  227.4570 H   0  0  0  0  0  0  0  0  0  0  0  0
  141.4409   72.5102  225.1240 H   0  0  0  0  0  0  0  0  0  0  0  0
  139.9787   71.8436  218.3527 H   0  0  0  0  0  0  0  0  0  0  0  0
  139.8358   73.4903  219.2004 H   0  0  0  0  0  0  0  0  0  0  0  0
  141.8418   72.5042  217.6098 H   0  0  0  0  0  0  0  0  0  0  0  0
  141.6784   74.0530  218.6603 H   0  0  0  0  0  0  0  0  0  0  0  0
  1  2  1  0
  2  3  1  0
  3  4  2  0
  3  5  1  0
  5  6  1  0
  6  7  2  0
  7  8  1  0
  8  9  2  0
  9 10  1  0
 10 11  2  0
  5 12  1  0
 12 13  1  0
 13 14  1  0
 14 15  1  0
 15 16  1  0
 16 17  2  0
 16 18  1  0
 18 19  1  0
 18 20  1  0
 20 21  1  0
 21 22  1  0
 21 23  1  0
 23 24  2  0
 24 25  1  0
 25 26  2  0
 26 27  1  0
 27 28  2  0
 15 29  1  0
 29 30  1  0
 11  6  1  0
 30 12  1  0
 28 23  1  0
  1 31  1  0
  1 32  1  0
  1 33  1  0
  2 34  1  0
  2 35  1  0
  7 36  1  0
  8 37  1  0
  9 38  1  0
 10 39  1  0
 11 40  1  0
 12 41  1  0
 13 42  1  0
 13 43  1  0
 14 44  1  0
 14 45  1  0
 18 46  1  6
 19 47  1  0
 19 48  1  0
 20 49  1  0
 20 50  1  0
 21 51  1  6
 22 52  1  0
 22 53  1  0
 22 54  1  0
 24 55  1  0
 25 56  1  0
 26 57  1  0
 27 58  1  0
 28 59  1  0
 29 60  1  0
 29 61  1  0
 30 62  1  0
 30 63  1  0
M  END
>  <smiles>  (4) 
CCC(=O)N(c1ccccc1)C1CCN(C(=O)[C@H](N)CC(C)c2ccccc2)CC1

>  <score_type>  (4) 
oracle

>  <origin>  (4) 
autodockgpu

>  <m_score__min__energy>  (4) 
-8.8699999999999992

>  <m_primary>  (4) 
energy

>  <rmsd>  (4) 
8.373627371352908

>  <m_score__min__rmsd>  (4) 
8.373627371352908

>  <meeko>  (4) 
{"free_energy": -7.94, "intermolecular_energy": -10.62, "internal_energy": -2.45, "cluster_size": 1, "cluster_id": 3, "rank_in_cluster": 1}

>  <energy>  (4) 
-8.46

>  <cluster_rmsd>  (4) 
0.6

>  <cluster>  (4) 
1

$$$$

     RDKit          3D

 63 65  0  0  0  0  0  0  0  0999 V2000
  140.7320   82.8040  220.3020 C   0  0  0  0  0  0  0  0  0  0  0  0
  139.9550   82.9690  221.5870 C   0  0  0  0  0  0  0  0  0  0  0  0
  138.4980   82.7550  221.4240 C   0  0  0  0  0  0  0  0  0  0  0  0
  137.8890   83.5280  220.6310 O   0  0  0  0  0  0  0  0  0  0  0  0
  137.8300   81.7130  222.1440 N   0  0  0  0  0  0  0  0  0  0  0  0
  137.3970   81.9740  223.4740 C   0  0  0  0  0  0  0  0  0  0  0  0
  136.4250   82.9440  223.6620 C   0  0  0  0  0  0  0  0  0  0  0  0
  135.9660   83.2410  224.9280 C   0  0  0  0  0  0  0  0  0  0  0  0
  136.5220   82.5270  225.9840 C   0  0  0  0  0  0  0  0  0  0  0  0
  137.4840   81.5660  225.8070 C   0  0  0  0  0  0  0  0  0  0  0  0
  137.9450   81.2670  224.5400 C   0  0  0  0  0  0  0  0  0  0  0  0
  137.6250   80.4210  221.4910 C   0  0  0  0  0  0  0  0  0  0  0  0
  138.9290   79.7880  221.1160 C   0  0  0  0  0  0  0  0  0  0  0  0
  138.5760   78.4040  220.5900 C   0  0  0  0  0  0  0  0  0  0  0  0
  138.0760   77.5900  221.6610 N   0  0  0  0  0  0  0  0  0  0  0  0
  138.5450   76.3340  222.0810 C   0  0  0  0  0  0  0  0  0  0  0  0
  137.9230   75.8060  223.0950 O   0  0  0  0  0  0  0  0  0  0  0  0
  139.6360   75.5110  221.5600 C   0  0  2  0  0  0  0  0  0  0  0  0
  139.6740   74.1620  222.0770 N   0  0  0  0  0  0  0  0  0  0  0  0
  141.0220   76.0760  221.7120 C   0  0  0  0  0  0  0  0  0  0  0  0
  141.3750   77.2990  220.9760 C   0  0  2  0  0  0  0  0  0  0  0  0
  142.4990   77.1520  220.0240 C   0  0  0  0  0  0  0  0  0  0  0  0
  141.6790   78.4410  221.9270 C   0  0  0  0  0  0  0  0  0  0  0  0
  141.4360   78.2790  223.2950 C   0  0  0  0  0  0  0  0  0  0  0  0
  141.6920   79.2940  224.2020 C   0  0  0  0  0  0  0  0  0  0  0  0
  142.2050   80.4980  223.7230 C   0  0  0  0  0  0  0  0  0  0  0  0
  142.4510   80.6750  222.3740 C   0  0  0  0  0  0  0  0  0  0  0  0
  142.1850   79.6390  221.4800 C   0  0  0  0  0  0  0  0  0  0  0  0
  136.9360   78.1430  222.3880 C   0  0  0  0  0  0  0  0  0  0  0  0
  136.7480   79.5920  222.3430 C   0  0  0  0  0  0  0  0  0  0  0  0
  141.7835   82.5807  220.5354 H   0  0  0  0  0  0  0  0  0  0  0  0
  140.3026   81.9770  219.7175 H   0  0  0  0  0  0  0  0  0  0  0  0
  140.6757   83.7341  219.7175 H   0  0  0  0  0  0  0  0  0  0  0  0
  140.3346   82.2420  222.3200 H   0  0  0  0  0  0  0  0  0  0  0  0
  140.0958   84.0075  221.9211 H   0  0  0  0  0  0  0  0  0  0  0  0
  136.0162   83.4816  222.7938 H   0  0  0  0  0  0  0  0  0  0  0  0
  135.1952   84.0078  225.0950 H   0  0  0  0  0  0  0  0  0  0  0  0
  136.1751   82.7425  227.0054 H   0  0  0  0  0  0  0  0  0  0  0  0
  137.8903   81.0309  226.6780 H   0  0  0  0  0  0  0  0  0  0  0  0
  138.7161   80.4991  224.3795 H   0  0  0  0  0  0  0  0  0  0  0  0
  137.1056   80.5458  220.5294 H   0  0  0  0  0  0  0  0  0  0  0  0
  139.4321   80.3784  220.3360 H   0  0  0  0  0  0  0  0  0  0  0  0
  139.6167   79.7345  221.9728 H   0  0  0  0  0  0  0  0  0  0  0  0
  137.8055   78.4952  219.8102 H   0  0  0  0  0  0  0  0  0  0  0  0
  139.4770   77.9352  220.1676 H   0  0  0  0  0  0  0  0  0  0  0  0
  139.3719   75.5047  220.4922 H   0  0  0  0  0  0  0  0  0  0  0  0
  139.1970   74.0710  222.9990 H   0  0  0  0  0  0  0  0  0  0  0  0
  139.2600   73.4880  221.4170 H   0  0  0  0  0  0  0  0  0  0  0  0
  141.1684   76.2890  222.7812 H   0  0  0  0  0  0  0  0  0  0  0  0
  141.6722   75.3052  221.2726 H   0  0  0  0  0  0  0  0  0  0  0  0
  140.4811   77.5204  220.3743 H   0  0  0  0  0  0  0  0  0  0  0  0
  143.4387   77.0291  220.5824 H   0  0  0  0  0  0  0  0  0  0  0  0
  142.3303   76.2683  219.3911 H   0  0  0  0  0  0  0  0  0  0  0  0
  142.5632   78.0494  219.3911 H   0  0  0  0  0  0  0  0  0  0  0  0
  141.0320   77.3228  223.6591 H   0  0  0  0  0  0  0  0  0  0  0  0
  141.4951   79.1531  225.2750 H   0  0  0  0  0  0  0  0  0  0  0  0
  142.4166   81.3169  224.4263 H   0  0  0  0  0  0  0  0  0  0  0  0
  142.8553   81.6301  222.0074 H   0  0  0  0  0  0  0  0  0  0  0  0
  142.3817   79.7811  220.4071 H   0  0  0  0  0  0  0  0  0  0  0  0
  136.0267   77.6794  221.9777 H   0  0  0  0  0  0  0  0  0  0  0  0
  137.1410   77.9187  223.4452 H   0  0  0  0  0  0  0  0  0  0  0  0
  135.7163   79.7688  222.0049 H   0  0  0  0  0  0  0  0  0  0  0  0
  137.0057   79.9139  223.3628 H   0  0  0  0  0  0  0  0  0  0  0  0
  1  2  1  0
  2  3  1  0
  3  4  2  0
  3  5  1  0
  5  6  1  0
  6  7  2  0
  7  8  1  0
  8  9  2  0
  9 10  1  0
 10 11  2  0
  5 12  1  0
 12 13  1  0
 13 14  1  0
 14 15  1  0
 15 16  1  0
 16 17  2  0
 16 18  1  0
 18 19  1  0
 18 20  1  0
 20 21  1  0
 21 22  1  0
 21 23  1  0
 23 24  2  0
 24 25  1  0
 25 26  2  0
 26 27  1  0
 27 28  2  0
 15 29  1  0
 29 30  1  0
 11  6  1  0
 30 12  1  0
 28 23  1  0
  1 31  1  0
  1 32  1  0
  1 33  1  0
  2 34  1  0
  2 35  1  0
  7 36  1  0
  8 37  1  0
  9 38  1  0
 10 39  1  0
 11 40  1  0
 12 41  1  0
 13 42  1  0
 13 43  1  0
 14 44  1  0
 14 45  1  0
 18 46  1  6
 19 47  1  0
 19 48  1  0
 20 49  1  0
 20 50  1  0
 21 51  1  6
 22 52  1  0
 22 53  1  0
 22 54  1  0
 24 55  1  0
 25 56  1  0
 26 57  1  0
 27 58  1  0
 28 59  1  0
 29 60  1  0
 29 61  1  0
 30 62  1  0
 30 63  1  0
M  END
>  <smiles>  (5) 
CCC(=O)N(c1ccccc1)C1CCN(C(=O)[C@H](N)CC(C)c2ccccc2)CC1

>  <score_type>  (5) 
oracle

>  <origin>  (5) 
autodockgpu

>  <m_score__min__energy>  (5) 
-8.8699999999999992

>  <m_primary>  (5) 
energy

>  <rmsd>  (5) 
3.9276750668904024

>  <m_score__min__rmsd>  (5) 
3.9276750668904024

>  <meeko>  (5) 
{"free_energy": -5.99, "intermolecular_energy": -8.67, "internal_energy": -3.54, "cluster_size": 7, "cluster_id": 11, "rank_in_cluster": 3}

>  <energy>  (5) 
-8.46

>  <cluster_rmsd>  (5) 
0.56

>  <cluster>  (5) 
1

$$$$

     RDKit          3D

 63 65  0  0  0  0  0  0  0  0999 V2000
  141.0640   82.0230  219.4830 C   0  0  0  0  0  0  0  0  0  0  0  0
  140.0870   82.5650  220.4990 C   0  0  0  0  0  0  0  0  0  0  0  0
  139.2690   81.5140  221.1470 C   0  0  0  0  0  0  0  0  0  0  0  0
  138.0340   81.7460  221.2800 O   0  0  0  0  0  0  0  0  0  0  0  0
  139.8720   80.2950  221.5970 N   0  0  0  0  0  0  0  0  0  0  0  0
  141.0740   80.3700  222.3550 C   0  0  0  0  0  0  0  0  0  0  0  0
  141.1020   81.2220  223.4470 C   0  0  0  0  0  0  0  0  0  0  0  0
  142.2390   81.3370  224.2180 C   0  0  0  0  0  0  0  0  0  0  0  0
  143.3340   80.5640  223.8470 C   0  0  0  0  0  0  0  0  0  0  0  0
  143.3150   79.7170  222.7690 C   0  0  0  0  0  0  0  0  0  0  0  0
  142.1770   79.6010  221.9950 C   0  0  0  0  0  0  0  0  0  0  0  0
  139.2370   79.0240  221.2550 C   0  0  0  0  0  0  0  0  0  0  0  0
  139.9520   78.3440  220.1290 C   0  0  0  0  0  0  0  0  0  0  0  0
  139.2850   76.9840  219.9810 C   0  0  0  0  0  0  0  0  0  0  0  0
  139.5710   76.1740  221.1300 N   0  0  0  0  0  0  0  0  0  0  0  0
  140.1490   74.8940  221.1600 C   0  0  0  0  0  0  0  0  0  0  0  0
  140.3180   74.3740  222.3410 O   0  0  0  0  0  0  0  0  0  0  0  0
  140.6000   74.0350  220.0650 C   0  0  2  0  0  0  0  0  0  0  0  0
  140.8790   72.6690  220.4450 N   0  0  0  0  0  0  0  0  0  0  0  0
  141.7910   74.5250  219.2870 C   0  0  0  0  0  0  0  0  0  0  0  0
  142.9070   75.1470  220.0130 C   0  0  2  0  0  0  0  0  0  0  0  0
  143.3900   76.4240  219.4410 C   0  0  0  0  0  0  0  0  0  0  0  0
  144.0760   74.1890  220.1430 C   0  0  0  0  0  0  0  0  0  0  0  0
  143.9890   72.9170  219.5680 C   0  0  0  0  0  0  0  0  0  0  0  0
  145.0280   72.0060  219.6630 C   0  0  0  0  0  0  0  0  0  0  0  0
  146.1800   72.3830  220.3500 C   0  0  0  0  0  0  0  0  0  0  0  0
  146.2830   73.6360  220.9250 C   0  0  0  0  0  0  0  0  0  0  0  0
  145.2240   74.5370  220.8160 C   0  0  0  0  0  0  0  0  0  0  0  0
  139.2070   76.7610  222.4170 C   0  0  0  0  0  0  0  0  0  0  0  0
  139.0950   78.2170  222.4850 C   0  0  0  0  0  0  0  0  0  0  0  0
  141.9113   81.5529  220.0036 H   0  0  0  0  0  0  0  0  0  0  0  0
  140.5604   81.2753  218.8527 H   0  0  0  0  0  0  0  0  0  0  0  0
  141.4318   82.8460  218.8527 H   0  0  0  0  0  0  0  0  0  0  0  0
  140.6531   83.0963  221.2783 H   0  0  0  0  0  0  0  0  0  0  0  0
  139.3950   83.2300  219.9616 H   0  0  0  0  0  0  0  0  0  0  0  0
  140.2091   81.8120  223.7011 H   0  0  0  0  0  0  0  0  0  0  0  0
  142.2784   82.0098  225.0874 H   0  0  0  0  0  0  0  0  0  0  0  0
  144.2550   80.6352  224.4442 H   0  0  0  0  0  0  0  0  0  0  0  0
  144.2096   79.1275  222.5196 H   0  0  0  0  0  0  0  0  0  0  0  0
  142.1436   78.9264  221.1268 H   0  0  0  0  0  0  0  0  0  0  0  0
  138.2217   79.1864  220.8641 H   0  0  0  0  0  0  0  0  0  0  0  0
  139.8476   78.9256  219.2012 H   0  0  0  0  0  0  0  0  0  0  0  0
  141.0293   78.2488  220.3300 H   0  0  0  0  0  0  0  0  0  0  0  0
  138.1970   77.1189  219.8911 H   0  0  0  0  0  0  0  0  0  0  0  0
  139.6728   76.4858  219.0802 H   0  0  0  0  0  0  0  0  0  0  0  0
  139.7126   74.0776  219.4164 H   0  0  0  0  0  0  0  0  0  0  0  0
  141.0980   72.5700  221.4590 H   0  0  0  0  0  0  0  0  0  0  0  0
  140.1000   72.0390  220.2070 H   0  0  0  0  0  0  0  0  0  0  0  0
  142.2007   73.6598  218.7452 H   0  0  0  0  0  0  0  0  0  0  0  0
  141.3871   75.3425  218.6717 H   0  0  0  0  0  0  0  0  0  0  0  0
  142.4873   75.3859  221.0013 H   0  0  0  0  0  0  0  0  0  0  0  0
  143.6514   77.1152  220.2558 H   0  0  0  0  0  0  0  0  0  0  0  0
  144.2788   76.2352  218.8210 H   0  0  0  0  0  0  0  0  0  0  0  0
  142.5987   76.8706  218.8210 H   0  0  0  0  0  0  0  0  0  0  0  0
  143.0738   72.6334  219.0276 H   0  0  0  0  0  0  0  0  0  0  0  0
  144.9456   71.0084  219.2068 H   0  0  0  0  0  0  0  0  0  0  0  0
  147.0176   71.6752  220.4359 H   0  0  0  0  0  0  0  0  0  0  0  0
  147.1970   73.9213  221.4666 H   0  0  0  0  0  0  0  0  0  0  0  0
  145.3076   75.5345  221.2721 H   0  0  0  0  0  0  0  0  0  0  0  0
  138.2325   76.3413  222.7073 H   0  0  0  0  0  0  0  0  0  0  0  0
  140.0435   76.5118  223.0864 H   0  0  0  0  0  0  0  0  0  0  0  0
  138.1009   78.4407  222.8994 H   0  0  0  0  0  0  0  0  0  0  0  0
  139.9686   78.5117  223.0849 H   0  0  0  0  0  0  0  0  0  0  0  0
  1  2  1  0
  2  3  1  0
  3  4  2  0
  3  5  1  0
  5  6  1  0
  6  7  2  0
  7  8  1  0
  8  9  2  0
  9 10  1  0
 10 11  2  0
  5 12  1  0
 12 13  1  0
 13 14  1  0
 14 15  1  0
 15 16  1  0
 16 17  2  0
 16 18  1  0
 18 19  1  0
 18 20  1  0
 20 21  1  0
 21 22  1  0
 21 23  1  0
 23 24  2  0
 24 25  1  0
 25 26  2  0
 26 27  1  0
 27 28  2  0
 15 29  1  0
 29 30  1  0
 11  6  1  0
 30 12  1  0
 28 23  1  0
  1 31  1  0
  1 32  1  0
  1 33  1  0
  2 34  1  0
  2 35  1  0
  7 36  1  0
  8 37  1  0
  9 38  1  0
 10 39  1  0
 11 40  1  0
 12 41  1  0
 13 42  1  0
 13 43  1  0
 14 44  1  0
 14 45  1  0
 18 46  1  6
 19 47  1  0
 19 48  1  0
 20 49  1  0
 20 50  1  0
 21 51  1  1
 22 52  1  0
 22 53  1  0
 22 54  1  0
 24 55  1  0
 25 56  1  0
 26 57  1  0
 27 58  1  0
 28 59  1  0
 29 60  1  0
 29 61  1  0
 30 62  1  0
 30 63  1  0
M  END
>  <smiles>  (6) 
CCC(=O)N(c1ccccc1)C1CCN(C(=O)[C@H](N)CC(C)c2ccccc2)CC1

>  <score_type>  (6) 
oracle

>  <origin>  (6) 
autodockgpu

>  <m_score__min__energy>  (6) 
-8.8699999999999992

>  <m_primary>  (6) 
energy

>  <rmsd>  (6) 
3.9167198452802343

>  <m_score__min__rmsd>  (6) 
3.9167198452802343

>  <meeko>  (6) 
{"free_energy": -6.48, "intermolecular_energy": -9.16, "internal_energy": -2.96, "cluster_size": 3, "cluster_id": 10, "rank_in_cluster": 2}

>  <energy>  (6) 
-8.35

>  <cluster_rmsd>  (6) 
0.52

>  <cluster>  (6) 
1

$$$$

     RDKit          3D

 63 65  0  0  0  0  0  0  0  0999 V2000
  138.4320   66.7870  221.9930 C   0  0  0  0  0  0  0  0  0  0  0  0
  138.0480   68.1350  222.5580 C   0  0  0  0  0  0  0  0  0  0  0  0
  138.8900   68.5530  223.7030 C   0  0  0  0  0  0  0  0  0  0  0  0
  139.1680   67.6710  224.5650 O   0  0  0  0  0  0  0  0  0  0  0  0
  139.3560   69.9030  223.8090 N   0  0  0  0  0  0  0  0  0  0  0  0
  139.9330   70.3290  225.0390 C   0  0  0  0  0  0  0  0  0  0  0  0
  139.3480   69.8920  226.2170 C   0  0  0  0  0  0  0  0  0  0  0  0
  139.8610   70.2730  227.4380 C   0  0  0  0  0  0  0  0  0  0  0  0
  140.9780   71.1020  227.4220 C   0  0  0  0  0  0  0  0  0  0  0  0
  141.5640   71.5380  226.2620 C   0  0  0  0  0  0  0  0  0  0  0  0
  141.0500   71.1590  225.0380 C   0  0  0  0  0  0  0  0  0  0  0  0
  139.2170   70.7930  222.6580 C   0  0  0  0  0  0  0  0  0  0  0  0
  139.0650   72.2190  223.0880 C   0  0  0  0  0  0  0  0  0  0  0  0
  139.0810   73.0380  221.8050 C   0  0  0  0  0  0  0  0  0  0  0  0
  140.3840   72.9790  221.2070 N   0  0  0  0  0  0  0  0  0  0  0  0
  141.2170   74.0520  220.8490 C   0  0  0  0  0  0  0  0  0  0  0  0
  142.3670   73.7310  220.3310 O   0  0  0  0  0  0  0  0  0  0  0  0
  141.0020   75.4940  220.9650 C   0  0  2  0  0  0  0  0  0  0  0  0
  142.1520   76.3040  220.6340 N   0  0  0  0  0  0  0  0  0  0  0  0
  140.4910   75.9830  222.2930 C   0  0  0  0  0  0  0  0  0  0  0  0
  139.7860   77.2710  222.3530 C   0  0  2  0  0  0  0  0  0  0  0  0
  138.8640   77.5310  221.2240 C   0  0  0  0  0  0  0  0  0  0  0  0
  140.7630   78.4250  222.4700 C   0  0  0  0  0  0  0  0  0  0  0  0
  141.3950   78.6690  223.6940 C   0  0  0  0  0  0  0  0  0  0  0  0
  142.2910   79.7130  223.8520 C   0  0  0  0  0  0  0  0  0  0  0  0
  142.5590   80.5290  222.7550 C   0  0  0  0  0  0  0  0  0  0  0  0
  141.9430   80.3020  221.5380 C   0  0  0  0  0  0  0  0  0  0  0  0
  141.0440   79.2450  221.4030 C   0  0  0  0  0  0  0  0  0  0  0  0
  140.8890   71.6360  220.9370 C   0  0  0  0  0  0  0  0  0  0  0  0
  140.3300   70.5370  221.7210 C   0  0  0  0  0  0  0  0  0  0  0  0
  138.6314   66.0870  222.8178 H   0  0  0  0  0  0  0  0  0  0  0  0
  137.6083   66.4003  221.3750 H   0  0  0  0  0  0  0  0  0  0  0  0
  139.3358   66.8925  221.3750 H   0  0  0  0  0  0  0  0  0  0  0  0
  138.1439   68.8874  221.7613 H   0  0  0  0  0  0  0  0  0  0  0  0
  137.0153   68.0508  222.9272 H   0  0  0  0  0  0  0  0  0  0  0  0
  138.4665   69.2353  226.1770 H   0  0  0  0  0  0  0  0  0  0  0  0
  139.4078   69.9369  228.3823 H   0  0  0  0  0  0  0  0  0  0  0  0
  141.4098   71.4215  228.3819 H   0  0  0  0  0  0  0  0  0  0  0  0
  142.4471   72.1923  226.3066 H   0  0  0  0  0  0  0  0  0  0  0  0
  141.5064   71.5003  224.0971 H   0  0  0  0  0  0  0  0  0  0  0  0
  138.2872   70.5811  222.1098 H   0  0  0  0  0  0  0  0  0  0  0  0
  138.1133   72.3597  223.6214 H   0  0  0  0  0  0  0  0  0  0  0  0
  139.8676   72.5243  223.7755 H   0  0  0  0  0  0  0  0  0  0  0  0
  138.3382   72.6314  221.1029 H   0  0  0  0  0  0  0  0  0  0  0  0
  138.8358   74.0845  222.0390 H   0  0  0  0  0  0  0  0  0  0  0  0
  140.2110   75.6257  220.2120 H   0  0  0  0  0  0  0  0  0  0  0  0
  142.2430   77.1440  221.2450 H   0  0  0  0  0  0  0  0  0  0  0  0
  143.0270   75.7620  220.6770 H   0  0  0  0  0  0  0  0  0  0  0  0
  139.7983   75.2180  222.6737 H   0  0  0  0  0  0  0  0  0  0  0  0
  141.4046   76.1539  222.8813 H   0  0  0  0  0  0  0  0  0  0  0  0
  139.1625   77.1963  223.2562 H   0  0  0  0  0  0  0  0  0  0  0  0
  137.8746   77.8100  221.6154 H   0  0  0  0  0  0  0  0  0  0  0  0
  139.2600   78.3525  220.6089 H   0  0  0  0  0  0  0  0  0  0  0  0
  138.7725   76.6236  220.6089 H   0  0  0  0  0  0  0  0  0  0  0  0
  141.1750   78.0160  224.5514 H   0  0  0  0  0  0  0  0  0  0  0  0
  142.7796   79.8938  224.8208 H   0  0  0  0  0  0  0  0  0  0  0  0
  143.2686   81.3632  222.8582 H   0  0  0  0  0  0  0  0  0  0  0  0
  142.1616   80.9534  220.6790 H   0  0  0  0  0  0  0  0  0  0  0  0
  140.5552   79.0655  220.4341 H   0  0  0  0  0  0  0  0  0  0  0  0
  140.6942   71.4173  219.8767 H   0  0  0  0  0  0  0  0  0  0  0  0
  141.9510   71.6725  221.2213 H   0  0  0  0  0  0  0  0  0  0  0  0
  139.9746   69.7829  221.0033 H   0  0  0  0  0  0  0  0  0  0  0  0
  141.1595   70.2502  222.3841 H   0  0  0  0  0  0  0  0  0  0  0  0
  1  2  1  0
  2  3  1  0
  3  4  2  0
  3  5  1  0
  5  6  1  0
  6  7  2  0
  7  8  1  0
  8  9  2  0
  9 10  1  0
 10 11  2  0
  5 12  1  0
 12 13  1  0
 13 14  1  0
 14 15  1  0
 15 16  1  0
 16 17  2  0
 16 18  1  0
 18 19  1  0
 18 20  1  0
 20 21  1  0
 21 22  1  0
 21 23  1  0
 23 24  2  0
 24 25  1  0
 25 26  2  0
 26 27  1  0
 27 28  2  0
 15 29  1  0
 29 30  1  0
 11  6  1  0
 30 12  1  0
 28 23  1  0
  1 31  1  0
  1 32  1  0
  1 33  1  0
  2 34  1  0
  2 35  1  0
  7 36  1  0
  8 37  1  0
  9 38  1  0
 10 39  1  0
 11 40  1  0
 12 41  1  0
 13 42  1  0
 13 43  1  0
 14 44  1  0
 14 45  1  0
 18 46  1  6
 19 47  1  0
 19 48  1  0
 20 49  1  0
 20 50  1  0
 21 51  1  1
 22 52  1  0
 22 53  1  0
 22 54  1  0
 24 55  1  0
 25 56  1  0
 26 57  1  0
 27 58  1  0
 28 59  1  0
 29 60  1  0
 29 61  1  0
 30 62  1  0
 30 63  1  0
M  END
>  <smiles>  (7) 
CCC(=O)N(c1ccccc1)C1CCN(C(=O)[C@H](N)CC(C)c2ccccc2)CC1

>  <score_type>  (7) 
oracle

>  <origin>  (7) 
autodockgpu

>  <m_score__min__energy>  (7) 
-8.8699999999999992

>  <m_primary>  (7) 
energy

>  <rmsd>  (7) 
7.023523958019175

>  <m_score__min__rmsd>  (7) 
7.023523958019175

>  <meeko>  (7) 
{"free_energy": -7.76, "intermolecular_energy": -10.45, "internal_energy": -2.26, "cluster_size": 10, "cluster_id": 5, "rank_in_cluster": 1}

>  <energy>  (7) 
-8.35

>  <cluster_rmsd>  (7) 
0.81

>  <cluster>  (7) 
1

$$$$

     RDKit          3D

 63 65  0  0  0  0  0  0  0  0999 V2000
  146.5400   73.4250  221.6200 C   0  0  0  0  0  0  0  0  0  0  0  0
  145.2990   72.7540  221.0800 C   0  0  0  0  0  0  0  0  0  0  0  0
  145.4110   72.3730  219.6530 C   0  0  0  0  0  0  0  0  0  0  0  0
  146.2770   72.9800  218.9620 O   0  0  0  0  0  0  0  0  0  0  0  0
  144.5640   71.3590  219.1010 N   0  0  0  0  0  0  0  0  0  0  0  0
  145.1690   70.2030  218.5300 C   0  0  0  0  0  0  0  0  0  0  0  0
  145.3960   69.1140  219.3560 C   0  0  0  0  0  0  0  0  0  0  0  0
  145.9790   67.9670  218.8590 C   0  0  0  0  0  0  0  0  0  0  0  0
  146.3190   67.9660  217.5110 C   0  0  0  0  0  0  0  0  0  0  0  0
  146.0970   69.0390  216.6860 C   0  0  0  0  0  0  0  0  0  0  0  0
  145.5140   70.1880  217.1820 C   0  0  0  0  0  0  0  0  0  0  0  0
  143.1150   71.5490  219.1370 C   0  0  0  0  0  0  0  0  0  0  0  0
  142.4640   70.5960  220.0910 C   0  0  0  0  0  0  0  0  0  0  0  0
  140.9980   71.0000  220.1390 C   0  0  0  0  0  0  0  0  0  0  0  0
  140.8680   72.2830  220.7690 N   0  0  0  0  0  0  0  0  0  0  0  0
  140.0770   72.6220  221.8790 C   0  0  0  0  0  0  0  0  0  0  0  0
  140.1470   73.8620  222.2690 O   0  0  0  0  0  0  0  0  0  0  0  0
  139.1740   71.7980  222.6820 C   0  0  2  0  0  0  0  0  0  0  0  0
  137.8830   72.3930  222.9400 N   0  0  0  0  0  0  0  0  0  0  0  0
  139.7110   71.3270  224.0070 C   0  0  0  0  0  0  0  0  0  0  0  0
  139.5000   69.9270  224.4010 C   0  0  2  0  0  0  0  0  0  0  0  0
  138.0960   69.4640  224.3300 C   0  0  0  0  0  0  0  0  0  0  0  0
  140.0370   69.6650  225.7950 C   0  0  0  0  0  0  0  0  0  0  0  0
  140.3240   70.7460  226.6360 C   0  0  0  0  0  0  0  0  0  0  0  0
  140.8210   70.5580  227.9150 C   0  0  0  0  0  0  0  0  0  0  0  0
  141.0330   69.2540  228.3600 C   0  0  0  0  0  0  0  0  0  0  0  0
  140.7550   68.1750  227.5420 C   0  0  0  0  0  0  0  0  0  0  0  0
  140.2550   68.3890  226.2580 C   0  0  0  0  0  0  0  0  0  0  0  0
  141.6540   73.3580  220.1680 C   0  0  0  0  0  0  0  0  0  0  0  0
  142.8290   72.9770  219.3870 C   0  0  0  0  0  0  0  0  0  0  0  0
  146.5151   73.4115  222.7196 H   0  0  0  0  0  0  0  0  0  0  0  0
  147.4315   72.8860  221.2668 H   0  0  0  0  0  0  0  0  0  0  0  0
  146.5771   74.4661  221.2668 H   0  0  0  0  0  0  0  0  0  0  0  0
  145.1091   71.8452  221.6699 H   0  0  0  0  0  0  0  0  0  0  0  0
  144.4763   73.4799  221.1591 H   0  0  0  0  0  0  0  0  0  0  0  0
  145.1089   69.1646  220.4167 H   0  0  0  0  0  0  0  0  0  0  0  0
  146.1664   67.0929  219.5000 H   0  0  0  0  0  0  0  0  0  0  0  0
  146.7867   67.0650  217.0874 H   0  0  0  0  0  0  0  0  0  0  0  0
  146.3844   68.9839  215.6256 H   0  0  0  0  0  0  0  0  0  0  0  0
  145.3292   71.0589  216.5359 H   0  0  0  0  0  0  0  0  0  0  0  0
  142.6638   71.3004  218.1651 H   0  0  0  0  0  0  0  0  0  0  0  0
  142.5654   69.5620  219.7296 H   0  0  0  0  0  0  0  0  0  0  0  0
  142.9295   70.6365  221.0868 H   0  0  0  0  0  0  0  0  0  0  0  0
  140.6003   71.0540  219.1148 H   0  0  0  0  0  0  0  0  0  0  0  0
  140.4339   70.2528  220.7165 H   0  0  0  0  0  0  0  0  0  0  0  0
  139.0685   70.9303  222.0142 H   0  0  0  0  0  0  0  0  0  0  0  0
  137.5540   72.2330  223.9160 H   0  0  0  0  0  0  0  0  0  0  0  0
  137.8830   73.4050  222.7490 H   0  0  0  0  0  0  0  0  0  0  0  0
  140.7974   71.4988  223.9946 H   0  0  0  0  0  0  0  0  0  0  0  0
  139.1329   71.9006  224.7465 H   0  0  0  0  0  0  0  0  0  0  0  0
  140.0598   69.3472  223.6524 H   0  0  0  0  0  0  0  0  0  0  0  0
  137.7009   69.3337  225.3483 H   0  0  0  0  0  0  0  0  0  0  0  0
  137.4905   70.2100  223.7945 H   0  0  0  0  0  0  0  0  0  0  0  0
  138.0531   68.5041  223.7945 H   0  0  0  0  0  0  0  0  0  0  0  0
  140.1507   71.7697  226.2725 H   0  0  0  0  0  0  0  0  0  0  0  0
  141.0432   71.4175  228.5645 H   0  0  0  0  0  0  0  0  0  0  0  0
  141.4257   69.0819  229.3730 H   0  0  0  0  0  0  0  0  0  0  0  0
  140.9277   67.1504  227.9029 H   0  0  0  0  0  0  0  0  0  0  0  0
  140.0329   67.5287  225.6094 H   0  0  0  0  0  0  0  0  0  0  0  0
  140.9850   73.9235  219.5028 H   0  0  0  0  0  0  0  0  0  0  0  0
  142.0554   73.9238  221.0217 H   0  0  0  0  0  0  0  0  0  0  0  0
  142.7267   73.4580  218.4030 H   0  0  0  0  0  0  0  0  0  0  0  0
  143.6698   73.2978  220.0196 H   0  0  0  0  0  0  0  0  0  0  0  0
  1  2  1  0
  2  3  1  0
  3  4  2  0
  3  5  1  0
  5  6  1  0
  6  7  2  0
  7  8  1  0
  8  9  2  0
  9 10  1  0
 10 11  2  0
  5 12  1  0
 12 13  1  0
 13 14  1  0
 14 15  1  0
 15 16  1  0
 16 17  2  0
 16 18  1  0
 18 19  1  0
 18 20  1  0
 20 21  1  0
 21 22  1  0
 21 23  1  0
 23 24  2  0
 24 25  1  0
 25 26  2  0
 26 27  1  0
 27 28  2  0
 15 29  1  0
 29 30  1  0
 11  6  1  0
 30 12  1  0
 28 23  1  0
  1 31  1  0
  1 32  1  0
  1 33  1  0
  2 34  1  0
  2 35  1  0
  7 36  1  0
  8 37  1  0
  9 38  1  0
 10 39  1  0
 11 40  1  0
 12 41  1  0
 13 42  1  0
 13 43  1  0
 14 44  1  0
 14 45  1  0
 18 46  1  6
 19 47  1  0
 19 48  1  0
 20 49  1  0
 20 50  1  0
 21 51  1  6
 22 52  1  0
 22 53  1  0
 22 54  1  0
 24 55  1  0
 25 56  1  0
 26 57  1  0
 27 58  1  0
 28 59  1  0
 29 60  1  0
 29 61  1  0
 30 62  1  0
 30 63  1  0
M  END
>  <smiles>  (8) 
CCC(=O)N(c1ccccc1)C1CCN(C(=O)[C@H](N)CC(C)c2ccccc2)CC1

>  <score_type>  (8) 
oracle

>  <origin>  (8) 
autodockgpu

>  <m_score__min__energy>  (8) 
-8.8699999999999992

>  <m_primary>  (8) 
energy

>  <rmsd>  (8) 
8.559626086891202

>  <m_score__min__rmsd>  (8) 
8.559626086891202

>  <meeko>  (8) 
{"free_energy": -8.87, "intermolecular_energy": -11.55, "internal_energy": -2.0, "cluster_size": 10, "cluster_id": 1, "rank_in_cluster": 1}

>  <energy>  (8) 
-8.33

>  <cluster_rmsd>  (8) 
0.85

>  <cluster>  (8) 
1

$$$$

     RDKit          3D

 63 65  0  0  0  0  0  0  0  0999 V2000
  146.7770   73.3970  222.1930 C   0  0  0  0  0  0  0  0  0  0  0  0
  145.4720   73.2930  221.4400 C   0  0  0  0  0  0  0  0  0  0  0  0
  145.6460   72.9810  220.0020 C   0  0  0  0  0  0  0  0  0  0  0  0
  146.7150   73.3730  219.4540 O   0  0  0  0  0  0  0  0  0  0  0  0
  144.6340   72.2650  219.2850 N   0  0  0  0  0  0  0  0  0  0  0  0
  144.6570   70.8430  219.3130 C   0  0  0  0  0  0  0  0  0  0  0  0
  145.8470   70.2050  219.0010 C   0  0  0  0  0  0  0  0  0  0  0  0
  145.9290   68.8290  219.0110 C   0  0  0  0  0  0  0  0  0  0  0  0
  144.7730   68.1310  219.3450 C   0  0  0  0  0  0  0  0  0  0  0  0
  143.5910   68.7530  219.6560 C   0  0  0  0  0  0  0  0  0  0  0  0
  143.5070   70.1310  219.6460 C   0  0  0  0  0  0  0  0  0  0  0  0
  143.6230   73.0200  218.5460 C   0  0  0  0  0  0  0  0  0  0  0  0
  143.1320   74.1920  219.3370 C   0  0  0  0  0  0  0  0  0  0  0  0
  142.2090   74.9610  218.4020 C   0  0  0  0  0  0  0  0  0  0  0  0
  142.9730   75.5410  217.3350 N   0  0  0  0  0  0  0  0  0  0  0  0
  143.0250   76.8910  216.9480 C   0  0  0  0  0  0  0  0  0  0  0  0
  143.8120   77.1650  215.9480 O   0  0  0  0  0  0  0  0  0  0  0  0
  142.3300   78.0570  217.4920 C   0  0  2  0  0  0  0  0  0  0  0  0
  142.5760   79.2920  216.7830 N   0  0  0  0  0  0  0  0  0  0  0  0
  142.5550   78.3400  218.9530 C   0  0  0  0  0  0  0  0  0  0  0  0
  141.5100   77.9680  219.9170 C   0  0  2  0  0  0  0  0  0  0  0  0
  140.1220   78.1450  219.4330 C   0  0  0  0  0  0  0  0  0  0  0  0
  141.6780   78.7220  221.2230 C   0  0  0  0  0  0  0  0  0  0  0  0
  141.3370   78.0960  222.4270 C   0  0  0  0  0  0  0  0  0  0  0  0
  141.4680   78.7440  223.6440 C   0  0  0  0  0  0  0  0  0  0  0  0
  141.9520   80.0510  223.6500 C   0  0  0  0  0  0  0  0  0  0  0  0
  142.2930   80.6850  222.4700 C   0  0  0  0  0  0  0  0  0  0  0  0
  142.1530   80.0120  221.2570 C   0  0  0  0  0  0  0  0  0  0  0  0
  143.7830   74.6040  216.5620 C   0  0  0  0  0  0  0  0  0  0  0  0
  144.1570   73.3470  217.2080 C   0  0  0  0  0  0  0  0  0  0  0  0
  146.5784   73.3812  223.2748 H   0  0  0  0  0  0  0  0  0  0  0  0
  147.4229   72.5475  221.9263 H   0  0  0  0  0  0  0  0  0  0  0  0
  147.2802   74.3381  221.9263 H   0  0  0  0  0  0  0  0  0  0  0  0
  144.8671   72.4970  221.8988 H   0  0  0  0  0  0  0  0  0  0  0  0
  144.9818   74.2758  221.5022 H   0  0  0  0  0  0  0  0  0  0  0  0
  146.7342   70.8020  218.7431 H   0  0  0  0  0  0  0  0  0  0  0  0
  146.8657   68.3068  218.7661 H   0  0  0  0  0  0  0  0  0  0  0  0
  144.8085   67.0317  219.3603 H   0  0  0  0  0  0  0  0  0  0  0  0
  142.7067   68.1519  219.9143 H   0  0  0  0  0  0  0  0  0  0  0  0
  142.5673   70.6473  219.8917 H   0  0  0  0  0  0  0  0  0  0  0  0
  142.7202   72.4121  218.3864 H   0  0  0  0  0  0  0  0  0  0  0  0
  142.5807   73.8512  220.2258 H   0  0  0  0  0  0  0  0  0  0  0  0
  143.9629   74.8184  219.6938 H   0  0  0  0  0  0  0  0  0  0  0  0
  141.4589   74.2743  217.9828 H   0  0  0  0  0  0  0  0  0  0  0  0
  141.7053   75.7606  218.9649 H   0  0  0  0  0  0  0  0  0  0  0  0
  141.2877   77.7354  217.3503 H   0  0  0  0  0  0  0  0  0  0  0  0
  143.2500   79.9130  217.2790 H   0  0  0  0  0  0  0  0  0  0  0  0
  142.9190   79.1220  215.8260 H   0  0  0  0  0  0  0  0  0  0  0  0
  143.4709   77.8070  219.2479 H   0  0  0  0  0  0  0  0  0  0  0  0
  142.5881   79.4381  219.0084 H   0  0  0  0  0  0  0  0  0  0  0  0
  141.6536   76.8880  220.0687 H   0  0  0  0  0  0  0  0  0  0  0  0
  139.4420   78.2317  220.2932 H   0  0  0  0  0  0  0  0  0  0  0  0
  140.0600   79.0583  218.8231 H   0  0  0  0  0  0  0  0  0  0  0  0
  139.8328   77.2765  218.8231 H   0  0  0  0  0  0  0  0  0  0  0  0
  140.9557   77.0644  222.4065 H   0  0  0  0  0  0  0  0  0  0  0  0
  141.1967   78.2394  224.5830 H   0  0  0  0  0  0  0  0  0  0  0  0
  142.0640   80.5845  224.6054 H   0  0  0  0  0  0  0  0  0  0  0  0
  142.6735   81.7169  222.4879 H   0  0  0  0  0  0  0  0  0  0  0  0
  142.4250   80.5175  220.3187 H   0  0  0  0  0  0  0  0  0  0  0  0
  143.2184   74.3523  215.6521 H   0  0  0  0  0  0  0  0  0  0  0  0
  144.7353   75.1279  216.3930 H   0  0  0  0  0  0  0  0  0  0  0  0
  143.8430   72.5369  216.5334 H   0  0  0  0  0  0  0  0  0  0  0  0
  145.2361   73.4642  217.3866 H   0  0  0  0  0  0  0  0  0  0  0  0
  1  2  1  0
  2  3  1  0
  3  4  2  0
  3  5  1  0
  5  6  1  0
  6  7  2  0
  7  8  1  0
  8  9  2  0
  9 10  1  0
 10 11  2  0
  5 12  1  0
 12 13  1  0
 13 14  1  0
 14 15  1  0
 15 16  1  0
 16 17  2  0
 16 18  1  0
 18 19  1  0
 18 20  1  0
 20 21  1  0
 21 22  1  0
 21 23  1  0
 23 24  2  0
 24 25  1  0
 25 26  2  0
 26 27  1  0
 27 28  2  0
 15 29  1  0
 29 30  1  0
 11  6  1  0
 30 12  1  0
 28 23  1  0
  1 31  1  0
  1 32  1  0
  1 33  1  0
  2 34  1  0
  2 35  1  0
  7 36  1  0
  8 37  1  0
  9 38  1  0
 10 39  1  0
 11 40  1  0
 12 41  1  0
 13 42  1  0
 13 43  1  0
 14 44  1  0
 14 45  1  0
 18 46  1  1
 19 47  1  0
 19 48  1  0
 20 49  1  0
 20 50  1  0
 21 51  1  1
 22 52  1  0
 22 53  1  0
 22 54  1  0
 24 55  1  0
 25 56  1  0
 26 57  1  0
 27 58  1  0
 28 59  1  0
 29 60  1  0
 29 61  1  0
 30 62  1  0
 30 63  1  0
M  END
>  <smiles>  (9) 
CCC(=O)N(c1ccccc1)C1CCN(C(=O)[C@H](N)CC(C)c2ccccc2)CC1

>  <score_type>  (9) 
oracle

>  <origin>  (9) 
autodockgpu

>  <m_score__min__energy>  (9) 
-8.8699999999999992

>  <m_primary>  (9) 
energy

>  <rmsd>  (9) 
6.295505169230576

>  <m_score__min__rmsd>  (9) 
6.295505169230576

>  <meeko>  (9) 
{"free_energy": -7.18, "intermolecular_energy": -9.86, "internal_energy": -2.54, "cluster_size": 1, "cluster_id": 8, "rank_in_cluster": 1}

>  <energy>  (9) 
-8.32

>  <cluster_rmsd>  (9) 
0.86

>  <cluster>  (9) 
1

$$$$

     RDKit          3D

 63 65  0  0  0  0  0  0  0  0999 V2000
  139.0410   66.3500  222.4000 C   0  0  0  0  0  0  0  0  0  0  0  0
  138.4430   67.6520  222.8800 C   0  0  0  0  0  0  0  0  0  0  0  0
  139.0950   68.1850  224.0980 C   0  0  0  0  0  0  0  0  0  0  0  0
  139.4540   67.3450  224.9720 O   0  0  0  0  0  0  0  0  0  0  0  0
  139.3010   69.5920  224.2590 N   0  0  0  0  0  0  0  0  0  0  0  0
  139.7490   70.0760  225.5200 C   0  0  0  0  0  0  0  0  0  0  0  0
  139.2360   69.4840  226.6630 C   0  0  0  0  0  0  0  0  0  0  0  0
  139.6320   69.9110  227.9120 C   0  0  0  0  0  0  0  0  0  0  0  0
  140.5590   70.9470  227.9600 C   0  0  0  0  0  0  0  0  0  0  0  0
  141.0730   71.5380  226.8350 C   0  0  0  0  0  0  0  0  0  0  0  0
  140.6770   71.1120  225.5830 C   0  0  0  0  0  0  0  0  0  0  0  0
  139.0360   70.4800  223.1280 C   0  0  0  0  0  0  0  0  0  0  0  0
  138.0560   71.5510  223.4940 C   0  0  0  0  0  0  0  0  0  0  0  0
  137.9890   72.4760  222.2870 C   0  0  0  0  0  0  0  0  0  0  0  0
  139.2370   73.1670  222.1340 N   0  0  0  0  0  0  0  0  0  0  0  0
  139.4530   74.5530  222.0650 C   0  0  0  0  0  0  0  0  0  0  0  0
  140.6920   74.9310  221.9390 O   0  0  0  0  0  0  0  0  0  0  0  0
  138.4980   75.6610  222.1140 C   0  0  2  0  0  0  0  0  0  0  0  0
  137.1860   75.3060  222.6040 N   0  0  0  0  0  0  0  0  0  0  0  0
  138.2960   76.4180  220.8300 C   0  0  0  0  0  0  0  0  0  0  0  0
  139.2910   77.4240  220.4340 C   0  0  2  0  0  0  0  0  0  0  0  0
  140.4040   76.9090  219.6040 C   0  0  0  0  0  0  0  0  0  0  0  0
  139.8660   78.1320  221.6460 C   0  0  0  0  0  0  0  0  0  0  0  0
  141.2290   78.0070  221.9330 C   0  0  0  0  0  0  0  0  0  0  0  0
  141.8000   78.6300  223.0310 C   0  0  0  0  0  0  0  0  0  0  0  0
  140.9810   79.3970  223.8570 C   0  0  0  0  0  0  0  0  0  0  0  0
  139.6310   79.5320  223.5880 C   0  0  0  0  0  0  0  0  0  0  0  0
  139.0800   78.8950  222.4770 C   0  0  0  0  0  0  0  0  0  0  0  0
  140.4180   72.3120  222.0320 C   0  0  0  0  0  0  0  0  0  0  0  0
  140.3240   70.9660  222.5920 C   0  0  0  0  0  0  0  0  0  0  0  0
  139.3236   65.7347  223.2669 H   0  0  0  0  0  0  0  0  0  0  0  0
  138.3012   65.8089  221.7918 H   0  0  0  0  0  0  0  0  0  0  0  0
  139.9335   66.5586  221.7918 H   0  0  0  0  0  0  0  0  0  0  0  0
  138.5411   68.3977  222.0773 H   0  0  0  0  0  0  0  0  0  0  0  0
  137.3919   67.4519  223.1355 H   0  0  0  0  0  0  0  0  0  0  0  0
  138.5062   68.6660  226.5726 H   0  0  0  0  0  0  0  0  0  0  0  0
  139.2332   69.4534  228.8293 H   0  0  0  0  0  0  0  0  0  0  0  0
  140.8942   71.3077  228.9436 H   0  0  0  0  0  0  0  0  0  0  0  0
  141.8037   72.3547  226.9302 H   0  0  0  0  0  0  0  0  0  0  0  0
  141.0796   71.5738  224.6694 H   0  0  0  0  0  0  0  0  0  0  0  0
  138.5393   69.9353  222.3115 H   0  0  0  0  0  0  0  0  0  0  0  0
  137.0675   71.1134  223.6975 H   0  0  0  0  0  0  0  0  0  0  0  0
  138.3630   72.0898  224.4026 H   0  0  0  0  0  0  0  0  0  0  0  0
  137.7870   71.8827  221.3831 H   0  0  0  0  0  0  0  0  0  0  0  0
  137.1835   73.2101  222.4364 H   0  0  0  0  0  0  0  0  0  0  0  0
  139.0099   76.3169  222.8335 H   0  0  0  0  0  0  0  0  0  0  0  0
  137.2050   74.4860  223.2480 H   0  0  0  0  0  0  0  0  0  0  0  0
  136.7290   76.0960  223.0810 H   0  0  0  0  0  0  0  0  0  0  0  0
  138.2494   75.6743  220.0209 H   0  0  0  0  0  0  0  0  0  0  0  0
  137.3833   77.0051  221.0097 H   0  0  0  0  0  0  0  0  0  0  0  0
  138.7275   78.1269  219.8028 H   0  0  0  0  0  0  0  0  0  0  0  0
  141.2071   76.5374  220.2574 H   0  0  0  0  0  0  0  0  0  0  0  0
  140.0387   76.0884  218.9691 H   0  0  0  0  0  0  0  0  0  0  0  0
  140.7930   77.7186  218.9691 H   0  0  0  0  0  0  0  0  0  0  0  0
  141.8632   77.3993  221.2709 H   0  0  0  0  0  0  0  0  0  0  0  0
  142.8735   78.5217  223.2453 H   0  0  0  0  0  0  0  0  0  0  0  0
  141.4133   79.9014  224.7338 H   0  0  0  0  0  0  0  0  0  0  0  0
  138.9945   80.1396  224.2481 H   0  0  0  0  0  0  0  0  0  0  0  0
  138.0065   79.0038  222.2633 H   0  0  0  0  0  0  0  0  0  0  0  0
  140.6593   72.2088  220.9638 H   0  0  0  0  0  0  0  0  0  0  0  0
  141.1838   72.8165  222.6395 H   0  0  0  0  0  0  0  0  0  0  0  0
  140.6203   70.2684  221.7948 H   0  0  0  0  0  0  0  0  0  0  0  0
  140.9673   71.0160  223.4829 H   0  0  0  0  0  0  0  0  0  0  0  0
  1  2  1  0
  2  3  1  0
  3  4  2  0
  3  5  1  0
  5  6  1  0
  6  7  2  0
  7  8  1  0
  8  9  2  0
  9 10  1  0
 10 11  2  0
  5 12  1  0
 12 13  1  0
 13 14  1  0
 14 15  1  0
 15 16  1  0
 16 17  2  0
 16 18  1  0
 18 19  1  0
 18 20  1  0
 20 21  1  0
 21 22  1  0
 21 23  1  0
 23 24  2  0
 24 25  1  0
 25 26  2  0
 26 27  1  0
 27 28  2  0
 15 29  1  0
 29 30  1  0
 11  6  1  0
 30 12  1  0
 28 23  1  0
  1 31  1  0
  1 32  1  0
  1 33  1  0
  2 34  1  0
  2 35  1  0
  7 36  1  0
  8 37  1  0
  9 38  1  0
 10 39  1  0
 11 40  1  0
 12 41  1  0
 13 42  1  0
 13 43  1  0
 14 44  1  0
 14 45  1  0
 18 46  1  1
 19 47  1  0
 19 48  1  0
 20 49  1  0
 20 50  1  0
 21 51  1  6
 22 52  1  0
 22 53  1  0
 22 54  1  0
 24 55  1  0
 25 56  1  0
 26 57  1  0
 27 58  1  0
 28 59  1  0
 29 60  1  0
 29 61  1  0
 30 62  1  0
 30 63  1  0
M  END
>  <smiles>  (10) 
CCC(=O)N(c1ccccc1)C1CCN(C(=O)[C@H](N)CC(C)c2ccccc2)CC1

>  <score_type>  (10) 
oracle

>  <origin>  (10) 
autodockgpu

>  <m_score__min__energy>  (10) 
-8.8699999999999992

>  <m_primary>  (10) 
energy

>  <rmsd>  (10) 
6.917404431846455

>  <m_score__min__rmsd>  (10) 
6.917404431846455

>  <meeko>  (10) 
{"free_energy": -7.84, "intermolecular_energy": -10.53, "internal_energy": -1.73, "cluster_size": 1, "cluster_id": 4, "rank_in_cluster": 1}

>  <energy>  (10) 
-7.23

>  <cluster_rmsd>  (10) 
1.16

>  <cluster>  (10) 
1

$$$$

     RDKit          3D

 63 65  0  0  0  0  0  0  0  0999 V2000
  138.7800   67.0740  222.6430 C   0  0  0  0  0  0  0  0  0  0  0  0
  137.7810   68.1630  222.3270 C   0  0  0  0  0  0  0  0  0  0  0  0
  137.7410   69.2370  223.3450 C   0  0  0  0  0  0  0  0  0  0  0  0
  136.7770   69.2180  224.1630 O   0  0  0  0  0  0  0  0  0  0  0  0
  138.7590   70.2430  223.3840 N   0  0  0  0  0  0  0  0  0  0  0  0
  139.5380   70.3780  224.5680 C   0  0  0  0  0  0  0  0  0  0  0  0
  139.4770   69.3600  225.5050 C   0  0  0  0  0  0  0  0  0  0  0  0
  140.2080   69.4360  226.6720 C   0  0  0  0  0  0  0  0  0  0  0  0
  140.9950   70.5690  226.8500 C   0  0  0  0  0  0  0  0  0  0  0  0
  141.0620   71.5810  225.9280 C   0  0  0  0  0  0  0  0  0  0  0  0
  140.3300   71.5070  224.7600 C   0  0  0  0  0  0  0  0  0  0  0  0
  138.9560   71.0960  222.2140 C   0  0  0  0  0  0  0  0  0  0  0  0
  138.6260   72.5240  222.5200 C   0  0  0  0  0  0  0  0  0  0  0  0
  139.0140   73.3110  221.2750 C   0  0  0  0  0  0  0  0  0  0  0  0
  140.4400   73.2970  221.1160 N   0  0  0  0  0  0  0  0  0  0  0  0
  141.3050   74.3970  220.9950 C   0  0  0  0  0  0  0  0  0  0  0  0
  142.5700   74.1150  220.8750 O   0  0  0  0  0  0  0  0  0  0  0  0
  141.0130   75.8310  220.9830 C   0  0  2  0  0  0  0  0  0  0  0  0
  142.1100   76.6660  220.5510 N   0  0  0  0  0  0  0  0  0  0  0  0
  140.5020   76.4130  222.2730 C   0  0  0  0  0  0  0  0  0  0  0  0
  139.6610   77.6170  222.2240 C   0  0  2  0  0  0  0  0  0  0  0  0
  139.0450   77.8960  220.9070 C   0  0  0  0  0  0  0  0  0  0  0  0
  140.4340   78.8420  222.6780 C   0  0  0  0  0  0  0  0  0  0  0  0
  141.7490   78.6950  223.1320 C   0  0  0  0  0  0  0  0  0  0  0  0
  142.4930   79.7820  223.5610 C   0  0  0  0  0  0  0  0  0  0  0  0
  141.9020   81.0440  223.5310 C   0  0  0  0  0  0  0  0  0  0  0  0
  140.6040   81.2060  223.0850 C   0  0  0  0  0  0  0  0  0  0  0  0
  139.8740   80.0980  222.6590 C   0  0  0  0  0  0  0  0  0  0  0  0
  141.0520   71.9710  221.0690 C   0  0  0  0  0  0  0  0  0  0  0  0
  140.3150   70.8680  221.6810 C   0  0  0  0  0  0  0  0  0  0  0  0
  138.8758   66.9696  223.7338 H   0  0  0  0  0  0  0  0  0  0  0  0
  138.4338   66.1227  222.2126 H   0  0  0  0  0  0  0  0  0  0  0  0
  139.7575   67.3370  222.2126 H   0  0  0  0  0  0  0  0  0  0  0  0
  138.0477   68.6105  221.3582 H   0  0  0  0  0  0  0  0  0  0  0  0
  136.7855   67.6954  222.3088 H   0  0  0  0  0  0  0  0  0  0  0  0
  138.8400   68.4832  225.3168 H   0  0  0  0  0  0  0  0  0  0  0  0
  140.1704   68.6373  227.4274 H   0  0  0  0  0  0  0  0  0  0  0  0
  141.5897   70.6567  227.7712 H   0  0  0  0  0  0  0  0  0  0  0  0
  141.7014   72.4553  226.1195 H   0  0  0  0  0  0  0  0  0  0  0  0
  140.3709   72.3098  224.0091 H   0  0  0  0  0  0  0  0  0  0  0  0
  138.2530   70.8274  221.4117 H   0  0  0  0  0  0  0  0  0  0  0  0
  137.5507   72.6342  222.7241 H   0  0  0  0  0  0  0  0  0  0  0  0
  139.1615   72.8831  223.4113 H   0  0  0  0  0  0  0  0  0  0  0  0
  138.5436   72.8532  220.3923 H   0  0  0  0  0  0  0  0  0  0  0  0
  138.6705   74.3506  221.3807 H   0  0  0  0  0  0  0  0  0  0  0  0
  140.2016   75.8508  220.2406 H   0  0  0  0  0  0  0  0  0  0  0  0
  142.2720   77.4780  221.1840 H   0  0  0  0  0  0  0  0  0  0  0  0
  142.9860   76.1310  220.4620 H   0  0  0  0  0  0  0  0  0  0  0  0
  139.9137   75.6281  222.7708 H   0  0  0  0  0  0  0  0  0  0  0  0
  141.4124   76.7463  222.7927 H   0  0  0  0  0  0  0  0  0  0  0  0
  138.8344   77.3983  222.9160 H   0  0  0  0  0  0  0  0  0  0  0  0
  138.0520   78.3457  221.0545 H   0  0  0  0  0  0  0  0  0  0  0  0
  139.6832   78.5929  220.3440 H   0  0  0  0  0  0  0  0  0  0  0  0
  138.9421   76.9566  220.3440 H   0  0  0  0  0  0  0  0  0  0  0  0
  142.2028   77.6931  223.1488 H   0  0  0  0  0  0  0  0  0  0  0  0
  143.5257   79.6522  223.9169 H   0  0  0  0  0  0  0  0  0  0  0  0
  142.4752   81.9210  223.8661 H   0  0  0  0  0  0  0  0  0  0  0  0
  140.1483   82.2070  223.0663 H   0  0  0  0  0  0  0  0  0  0  0  0
  138.8410   80.2291  222.3045 H   0  0  0  0  0  0  0  0  0  0  0  0
  141.2073   71.7167  220.0101 H   0  0  0  0  0  0  0  0  0  0  0  0
  141.9694   72.0633  221.6690 H   0  0  0  0  0  0  0  0  0  0  0  0
  140.2292   70.0806  220.9177 H   0  0  0  0  0  0  0  0  0  0  0  0
  140.9048   70.6366  222.5802 H   0  0  0  0  0  0  0  0  0  0  0  0
  1  2  1  0
  2  3  1  0
  3  4  2  0
  3  5  1  0
  5  6  1  0
  6  7  2  0
  7  8  1  0
  8  9  2  0
  9 10  1  0
 10 11  2  0
  5 12  1  0
 12 13  1  0
 13 14  1  0
 14 15  1  0
 15 16  1  0
 16 17  2  0
 16 18  1  0
 18 19  1  0
 18 20  1  0
 20 21  1  0
 21 22  1  0
 21 23  1  0
 23 24  2  0
 24 25  1  0
 25 26  2  0
 26 27  1  0
 27 28  2  0
 15 29  1  0
 29 30  1  0
 11  6  1  0
 30 12  1  0
 28 23  1  0
  1 31  1  0
  1 32  1  0
  1 33  1  0
  2 34  1  0
  2 35  1  0
  7 36  1  0
  8 37  1  0
  9 38  1  0
 10 39  1  0
 11 40  1  0
 12 41  1  0
 13 42  1  0
 13 43  1  0
 14 44  1  0
 14 45  1  0
 18 46  1  6
 19 47  1  0
 19 48  1  0
 20 49  1  0
 20 50  1  0
 21 51  1  1
 22 52  1  0
 22 53  1  0
 22 54  1  0
 24 55  1  0
 25 56  1  0
 26 57  1  0
 27 58  1  0
 28 59  1  0
 29 60  1  0
 29 61  1  0
 30 62  1  0
 30 63  1  0
M  END
>  <smiles>  (11) 
CCC(=O)N(c1ccccc1)C1CCN(C(=O)[C@H](N)CC(C)c2ccccc2)CC1

>  <score_type>  (11) 
oracle

>  <origin>  (11) 
autodockgpu

>  <m_score__min__energy>  (11) 
-8.8699999999999992

>  <m_primary>  (11) 
energy

>  <rmsd>  (11) 
6.82717151254814

>  <m_score__min__rmsd>  (11) 
6.82717151254814

>  <meeko>  (11) 
{"free_energy": -7.29, "intermolecular_energy": -9.97, "internal_energy": -2.38, "cluster_size": 10, "cluster_id": 5, "rank_in_cluster": 5}

>  <energy>  (11) 
-8.26

>  <cluster_rmsd>  (11) 
0.0

>  <cluster>  (11) 
2

$$$$

     RDKit          3D

 63 65  0  0  0  0  0  0  0  0999 V2000
  145.5570   73.9850  220.8630 C   0  0  0  0  0  0  0  0  0  0  0  0
  145.9490   72.5760  220.4830 C   0  0  0  0  0  0  0  0  0  0  0  0
  145.5130   72.1920  219.1210 C   0  0  0  0  0  0  0  0  0  0  0  0
  145.9550   72.8830  218.1590 O   0  0  0  0  0  0  0  0  0  0  0  0
  144.6280   71.0830  218.9240 N   0  0  0  0  0  0  0  0  0  0  0  0
  145.1910   69.7970  218.6870 C   0  0  0  0  0  0  0  0  0  0  0  0
  145.1200   68.8600  219.7040 C   0  0  0  0  0  0  0  0  0  0  0  0
  145.6490   67.5980  219.5330 C   0  0  0  0  0  0  0  0  0  0  0  0
  146.2430   67.3240  218.3060 C   0  0  0  0  0  0  0  0  0  0  0  0
  146.3170   68.2460  217.2930 C   0  0  0  0  0  0  0  0  0  0  0  0
  145.7890   69.5100  217.4630 C   0  0  0  0  0  0  0  0  0  0  0  0
  143.1850   71.3130  218.9670 C   0  0  0  0  0  0  0  0  0  0  0  0
  142.5180   70.4000  219.9480 C   0  0  0  0  0  0  0  0  0  0  0  0
  141.0630   70.8450  219.9970 C   0  0  0  0  0  0  0  0  0  0  0  0
  140.9720   72.1450  220.5960 N   0  0  0  0  0  0  0  0  0  0  0  0
  140.1990   72.5330  221.7030 C   0  0  0  0  0  0  0  0  0  0  0  0
  140.3040   73.7790  222.0620 O   0  0  0  0  0  0  0  0  0  0  0  0
  139.2820   71.7530  222.5340 C   0  0  2  0  0  0  0  0  0  0  0  0
  137.9900   72.3650  222.7470 N   0  0  0  0  0  0  0  0  0  0  0  0
  139.7990   71.3430  223.8860 C   0  0  0  0  0  0  0  0  0  0  0  0
  139.6070   69.9560  224.3300 C   0  0  2  0  0  0  0  0  0  0  0  0
  138.2180   69.4530  224.2250 C   0  0  0  0  0  0  0  0  0  0  0  0
  140.0950   69.7640  225.7540 C   0  0  0  0  0  0  0  0  0  0  0  0
  140.4100   70.8850  226.5290 C   0  0  0  0  0  0  0  0  0  0  0  0
  140.8650   70.7620  227.8320 C   0  0  0  0  0  0  0  0  0  0  0  0
  141.0040   69.4820  228.3670 C   0  0  0  0  0  0  0  0  0  0  0  0
  140.6970   68.3640  227.6150 C   0  0  0  0  0  0  0  0  0  0  0  0
  140.2410   68.5130  226.3060 C   0  0  0  0  0  0  0  0  0  0  0  0
  141.7800   73.1850  219.9630 C   0  0  0  0  0  0  0  0  0  0  0  0
  142.9380   72.7530  219.1830 C   0  0  0  0  0  0  0  0  0  0  0  0
  145.5318   74.0756  221.9590 H   0  0  0  0  0  0  0  0  0  0  0  0
  146.2922   74.6933  220.4533 H   0  0  0  0  0  0  0  0  0  0  0  0
  144.5617   74.2118  220.4533 H   0  0  0  0  0  0  0  0  0  0  0  0
  147.0446   72.4927  220.5350 H   0  0  0  0  0  0  0  0  0  0  0  0
  145.4469   71.8975  221.1884 H   0  0  0  0  0  0  0  0  0  0  0  0
  144.6375   69.1245  220.6565 H   0  0  0  0  0  0  0  0  0  0  0  0
  145.6031   66.8424  220.3311 H   0  0  0  0  0  0  0  0  0  0  0  0
  146.6721   66.3248  218.1405 H   0  0  0  0  0  0  0  0  0  0  0  0
  146.7990   67.9770  216.3415 H   0  0  0  0  0  0  0  0  0  0  0  0
  145.8389   70.2620  216.6617 H   0  0  0  0  0  0  0  0  0  0  0  0
  142.7187   71.0542  218.0049 H   0  0  0  0  0  0  0  0  0  0  0  0
  142.5890   69.3556  219.6102 H   0  0  0  0  0  0  0  0  0  0  0  0
  142.9928   70.4504  220.9390 H   0  0  0  0  0  0  0  0  0  0  0  0
  140.6588   70.8849  218.9747 H   0  0  0  0  0  0  0  0  0  0  0  0
  140.4840   70.1275  220.5970 H   0  0  0  0  0  0  0  0  0  0  0  0
  139.1814   70.8551  221.9066 H   0  0  0  0  0  0  0  0  0  0  0  0
  138.0380   73.4060  222.7760 H   0  0  0  0  0  0  0  0  0  0  0  0
  137.3090   72.0810  222.0280 H   0  0  0  0  0  0  0  0  0  0  0  0
  140.8820   71.5358  223.8893 H   0  0  0  0  0  0  0  0  0  0  0  0
  139.1935   71.9323  224.5904 H   0  0  0  0  0  0  0  0  0  0  0  0
  140.2103   69.3620  223.6277 H   0  0  0  0  0  0  0  0  0  0  0  0
  137.8050   69.3034  225.2335 H   0  0  0  0  0  0  0  0  0  0  0  0
  137.6029   70.1855  223.6818 H   0  0  0  0  0  0  0  0  0  0  0  0
  138.2145   68.4965  223.6818 H   0  0  0  0  0  0  0  0  0  0  0  0
  140.2937   71.8884  226.0936 H   0  0  0  0  0  0  0  0  0  0  0  0
  141.1105   71.6523  228.4296 H   0  0  0  0  0  0  0  0  0  0  0  0
  141.3623   69.3606  229.3999 H   0  0  0  0  0  0  0  0  0  0  0  0
  140.8121   67.3594  228.0480 H   0  0  0  0  0  0  0  0  0  0  0  0
  139.9958   67.6219  225.7094 H   0  0  0  0  0  0  0  0  0  0  0  0
  141.1204   73.7513  219.2890 H   0  0  0  0  0  0  0  0  0  0  0  0
  142.2022   73.7622  220.7988 H   0  0  0  0  0  0  0  0  0  0  0  0
  142.8401   73.2116  218.1879 H   0  0  0  0  0  0  0  0  0  0  0  0
  143.7919   73.0669  219.8014 H   0  0  0  0  0  0  0  0  0  0  0  0
  1  2  1  0
  2  3  1  0
  3  4  2  0
  3  5  1  0
  5  6  1  0
  6  7  2  0
  7  8  1  0
  8  9  2  0
  9 10  1  0
 10 11  2  0
  5 12  1  0
 12 13  1  0
 13 14  1  0
 14 15  1  0
 15 16  1  0
 16 17  2  0
 16 18  1  0
 18 19  1  0
 18 20  1  0
 20 21  1  0
 21 22  1  0
 21 23  1  0
 23 24  2  0
 24 25  1  0
 25 26  2  0
 26 27  1  0
 27 28  2  0
 15 29  1  0
 29 30  1  0
 11  6  1  0
 30 12  1  0
 28 23  1  0
  1 31  1  0
  1 32  1  0
  1 33  1  0
  2 34  1  0
  2 35  1  0
  7 36  1  0
  8 37  1  0
  9 38  1  0
 10 39  1  0
 11 40  1  0
 12 41  1  0
 13 42  1  0
 13 43  1  0
 14 44  1  0
 14 45  1  0
 18 46  1  6
 19 47  1  0
 19 48  1  0
 20 49  1  0
 20 50  1  0
 21 51  1  6
 22 52  1  0
 22 53  1  0
 22 54  1  0
 24 55  1  0
 25 56  1  0
 26 57  1  0
 27 58  1  0
 28 59  1  0
 29 60  1  0
 29 61  1  0
 30 62  1  0
 30 63  1  0
M  END
>  <smiles>  (12) 
CCC(=O)N(c1ccccc1)C1CCN(C(=O)[C@H](N)CC(C)c2ccccc2)CC1

>  <score_type>  (12) 
oracle

>  <origin>  (12) 
autodockgpu

>  <m_score__min__energy>  (12) 
-8.8699999999999992

>  <m_primary>  (12) 
energy

>  <rmsd>  (12) 
8.619748046109159

>  <m_score__min__rmsd>  (12) 
8.619748046109159

>  <meeko>  (12) 
{"free_energy": -8.46, "intermolecular_energy": -11.14, "internal_energy": -1.98, "cluster_size": 10, "cluster_id": 1, "rank_in_cluster": 5}

>  <energy>  (12) 
-8.25

>  <cluster_rmsd>  (12) 
0.45

>  <cluster>  (12) 
2

$$$$

     RDKit          3D

 63 65  0  0  0  0  0  0  0  0999 V2000
  140.3860   82.7460  220.2020 C   0  0  0  0  0  0  0  0  0  0  0  0
  139.8780   82.8660  221.6200 C   0  0  0  0  0  0  0  0  0  0  0  0
  138.4000   82.9220  221.7110 C   0  0  0  0  0  0  0  0  0  0  0  0
  137.8230   83.8770  221.1180 O   0  0  0  0  0  0  0  0  0  0  0  0
  137.6780   81.9270  222.4450 N   0  0  0  0  0  0  0  0  0  0  0  0
  137.2660   82.2260  223.7740 C   0  0  0  0  0  0  0  0  0  0  0  0
  136.3760   83.2720  223.9590 C   0  0  0  0  0  0  0  0  0  0  0  0
  135.9430   83.6090  225.2240 C   0  0  0  0  0  0  0  0  0  0  0  0
  136.4390   82.8550  226.2820 C   0  0  0  0  0  0  0  0  0  0  0  0
  137.3190   81.8190  226.1090 C   0  0  0  0  0  0  0  0  0  0  0  0
  137.7550   81.4800  224.8430 C   0  0  0  0  0  0  0  0  0  0  0  0
  137.3960   80.6420  221.8070 C   0  0  0  0  0  0  0  0  0  0  0  0
  138.6590   79.9500  221.3970 C   0  0  0  0  0  0  0  0  0  0  0  0
  138.2300   78.5800  220.8910 C   0  0  0  0  0  0  0  0  0  0  0  0
  137.7270   77.7950  221.9820 N   0  0  0  0  0  0  0  0  0  0  0  0
  138.1530   76.5220  222.3960 C   0  0  0  0  0  0  0  0  0  0  0  0
  137.5400   76.0260  223.4310 O   0  0  0  0  0  0  0  0  0  0  0  0
  139.1910   75.6480  221.8470 C   0  0  2  0  0  0  0  0  0  0  0  0
  139.1660   74.2930  222.3480 N   0  0  0  0  0  0  0  0  0  0  0  0
  140.6070   76.1380  221.9810 C   0  0  0  0  0  0  0  0  0  0  0  0
  141.0420   77.2840  221.1710 C   0  0  2  0  0  0  0  0  0  0  0  0
  142.1190   76.9890  220.1990 C   0  0  0  0  0  0  0  0  0  0  0  0
  141.4730   78.4430  222.0500 C   0  0  0  0  0  0  0  0  0  0  0  0
  141.9520   79.6160  221.4550 C   0  0  0  0  0  0  0  0  0  0  0  0
  142.3620   80.6990  222.2140 C   0  0  0  0  0  0  0  0  0  0  0  0
  142.2890   80.6010  223.6020 C   0  0  0  0  0  0  0  0  0  0  0  0
  141.8190   79.4500  224.2070 C   0  0  0  0  0  0  0  0  0  0  0  0
  141.4120   78.3730  223.4210 C   0  0  0  0  0  0  0  0  0  0  0  0
  136.6350   78.4010  222.7400 C   0  0  0  0  0  0  0  0  0  0  0  0
  136.5100   79.8560  222.6910 C   0  0  0  0  0  0  0  0  0  0  0  0
  141.4565   82.4931  220.2162 H   0  0  0  0  0  0  0  0  0  0  0  0
  139.8292   81.9547  219.6788 H   0  0  0  0  0  0  0  0  0  0  0  0
  140.2422   83.7028  219.6788 H   0  0  0  0  0  0  0  0  0  0  0  0
  140.2301   81.9948  222.1918 H   0  0  0  0  0  0  0  0  0  0  0  0
  140.2652   83.8124  222.0255 H   0  0  0  0  0  0  0  0  0  0  0  0
  136.0118   83.8383  223.0892 H   0  0  0  0  0  0  0  0  0  0  0  0
  135.2373   84.4366  225.3888 H   0  0  0  0  0  0  0  0  0  0  0  0
  136.1105   83.1011  227.3026 H   0  0  0  0  0  0  0  0  0  0  0  0
  137.6796   81.2550  226.9819 H   0  0  0  0  0  0  0  0  0  0  0  0
  138.4618   80.6520  224.6853 H   0  0  0  0  0  0  0  0  0  0  0  0
  136.8528   80.7851  220.8612 H   0  0  0  0  0  0  0  0  0  0  0  0
  139.1636   80.5135  220.5983 H   0  0  0  0  0  0  0  0  0  0  0  0
  139.3693   79.8707  222.2332 H   0  0  0  0  0  0  0  0  0  0  0  0
  137.4413   78.7008  220.1338 H   0  0  0  0  0  0  0  0  0  0  0  0
  139.0964   78.0696  220.4452 H   0  0  0  0  0  0  0  0  0  0  0  0
  138.9093   75.6677  220.7839 H   0  0  0  0  0  0  0  0  0  0  0  0
  139.9050   74.1140  223.0610 H   0  0  0  0  0  0  0  0  0  0  0  0
  138.2490   74.0500  222.7490 H   0  0  0  0  0  0  0  0  0  0  0  0
  140.7546   76.4137  223.0356 H   0  0  0  0  0  0  0  0  0  0  0  0
  141.2133   75.3016  221.6032 H   0  0  0  0  0  0  0  0  0  0  0  0
  140.1526   77.5516  220.5816 H   0  0  0  0  0  0  0  0  0  0  0  0
  143.0425   76.7361  220.7405 H   0  0  0  0  0  0  0  0  0  0  0  0
  141.8201   76.1396  219.5671 H   0  0  0  0  0  0  0  0  0  0  0  0
  142.2947   77.8721  219.5671 H   0  0  0  0  0  0  0  0  0  0  0  0
  142.0039   79.6789  220.3580 H   0  0  0  0  0  0  0  0  0  0  0  0
  142.7363   81.6146  221.7329 H   0  0  0  0  0  0  0  0  0  0  0  0
  142.6092   81.4498  224.2241 H   0  0  0  0  0  0  0  0  0  0  0  0
  141.7665   79.3844  225.3038 H   0  0  0  0  0  0  0  0  0  0  0  0
  141.0382   77.4577  223.9032 H   0  0  0  0  0  0  0  0  0  0  0  0
  135.6941   77.9759  222.3606 H   0  0  0  0  0  0  0  0  0  0  0  0
  136.8618   78.1730  223.7919 H   0  0  0  0  0  0  0  0  0  0  0  0
  135.4771   80.0763  222.3834 H   0  0  0  0  0  0  0  0  0  0  0  0
  136.8136   80.1712  223.7002 H   0  0  0  0  0  0  0  0  0  0  0  0
  1  2  1  0
  2  3  1  0
  3  4  2  0
  3  5  1  0
  5  6  1  0
  6  7  2  0
  7  8  1  0
  8  9  2  0
  9 10  1  0
 10 11  2  0
  5 12  1  0
 12 13  1  0
 13 14  1  0
 14 15  1  0
 15 16  1  0
 16 17  2  0
 16 18  1  0
 18 19  1  0
 18 20  1  0
 20 21  1  0
 21 22  1  0
 21 23  1  0
 23 24  2  0
 24 25  1  0
 25 26  2  0
 26 27  1  0
 27 28  2  0
 15 29  1  0
 29 30  1  0
 11  6  1  0
 30 12  1  0
 28 23  1  0
  1 31  1  0
  1 32  1  0
  1 33  1  0
  2 34  1  0
  2 35  1  0
  7 36  1  0
  8 37  1  0
  9 38  1  0
 10 39  1  0
 11 40  1  0
 12 41  1  0
 13 42  1  0
 13 43  1  0
 14 44  1  0
 14 45  1  0
 18 46  1  6
 19 47  1  0
 19 48  1  0
 20 49  1  0
 20 50  1  0
 21 51  1  6
 22 52  1  0
 22 53  1  0
 22 54  1  0
 24 55  1  0
 25 56  1  0
 26 57  1  0
 27 58  1  0
 28 59  1  0
 29 60  1  0
 29 61  1  0
 30 62  1  0
 30 63  1  0
M  END
>  <smiles>  (13) 
CCC(=O)N(c1ccccc1)C1CCN(C(=O)[C@H](N)CC(C)c2ccccc2)CC1

>  <score_type>  (13) 
oracle

>  <origin>  (13) 
autodockgpu

>  <m_score__min__energy>  (13) 
-8.8699999999999992

>  <m_primary>  (13) 
energy

>  <rmsd>  (13) 
4.046462393329434

>  <m_score__min__rmsd>  (13) 
4.046462393329434

>  <meeko>  (13) 
{"free_energy": -6.33, "intermolecular_energy": -9.02, "internal_energy": -3.39, "cluster_size": 7, "cluster_id": 11, "rank_in_cluster": 1}

>  <energy>  (13) 
-7.98

>  <cluster_rmsd>  (13) 
0.66

>  <cluster>  (13) 
2

$$$$

     RDKit          3D

 63 65  0  0  0  0  0  0  0  0999 V2000
  138.6880   67.3230  222.3660 C   0  0  0  0  0  0  0  0  0  0  0  0
  137.4660   68.2110  222.3950 C   0  0  0  0  0  0  0  0  0  0  0  0
  137.5430   69.2820  223.4150 C   0  0  0  0  0  0  0  0  0  0  0  0
  136.5920   69.3570  224.2440 O   0  0  0  0  0  0  0  0  0  0  0  0
  138.6550   70.1830  223.4420 N   0  0  0  0  0  0  0  0  0  0  0  0
  139.4710   70.2240  224.6080 C   0  0  0  0  0  0  0  0  0  0  0  0
  140.0510   71.4330  224.9540 C   0  0  0  0  0  0  0  0  0  0  0  0
  140.8520   71.5330  226.0720 C   0  0  0  0  0  0  0  0  0  0  0  0
  141.0390   70.3750  226.8190 C   0  0  0  0  0  0  0  0  0  0  0  0
  140.4680   69.1740  226.4850 C   0  0  0  0  0  0  0  0  0  0  0  0
  139.6660   69.0720  225.3650 C   0  0  0  0  0  0  0  0  0  0  0  0
  138.9080   71.0320  222.2790 C   0  0  0  0  0  0  0  0  0  0  0  0
  138.4880   72.4460  222.5350 C   0  0  0  0  0  0  0  0  0  0  0  0
  138.9390   73.2350  221.3140 C   0  0  0  0  0  0  0  0  0  0  0  0
  140.3720   73.2880  221.2730 N   0  0  0  0  0  0  0  0  0  0  0  0
  141.1920   74.4270  221.2050 C   0  0  0  0  0  0  0  0  0  0  0  0
  142.4740   74.2050  221.1930 O   0  0  0  0  0  0  0  0  0  0  0  0
  140.8360   75.8450  221.1470 C   0  0  2  0  0  0  0  0  0  0  0  0
  141.9240   76.7270  220.7940 N   0  0  0  0  0  0  0  0  0  0  0  0
  140.1930   76.4160  222.3820 C   0  0  0  0  0  0  0  0  0  0  0  0
  139.5340   77.7270  222.2980 C   0  0  2  0  0  0  0  0  0  0  0  0
  138.9240   78.0360  220.9840 C   0  0  0  0  0  0  0  0  0  0  0  0
  140.4880   78.8440  222.6750 C   0  0  0  0  0  0  0  0  0  0  0  0
  140.2870   80.1260  222.1510 C   0  0  0  0  0  0  0  0  0  0  0  0
  141.1330   81.1780  222.4620 C   0  0  0  0  0  0  0  0  0  0  0  0
  142.2060   80.9350  223.3180 C   0  0  0  0  0  0  0  0  0  0  0  0
  142.4200   79.6740  223.8440 C   0  0  0  0  0  0  0  0  0  0  0  0
  141.5540   78.6320  223.5170 C   0  0  0  0  0  0  0  0  0  0  0  0
  141.0480   71.9930  221.2960 C   0  0  0  0  0  0  0  0  0  0  0  0
  140.3150   70.8620  221.8620 C   0  0  0  0  0  0  0  0  0  0  0  0
  139.0007   67.0958  223.3959 H   0  0  0  0  0  0  0  0  0  0  0  0
  138.4485   66.3868  221.8405 H   0  0  0  0  0  0  0  0  0  0  0  0
  139.5045   67.8399  221.8405 H   0  0  0  0  0  0  0  0  0  0  0  0
  137.3509   68.6786  221.4060 H   0  0  0  0  0  0  0  0  0  0  0  0
  136.6075   67.5746  222.6556 H   0  0  0  0  0  0  0  0  0  0  0  0
  139.8711   72.3217  224.3313 H   0  0  0  0  0  0  0  0  0  0  0  0
  141.3216   72.4852  226.3598 H   0  0  0  0  0  0  0  0  0  0  0  0
  141.6725   70.4247  227.7169 H   0  0  0  0  0  0  0  0  0  0  0  0
  140.6493   68.2882  227.1115 H   0  0  0  0  0  0  0  0  0  0  0  0
  139.1992   68.1170  225.0820 H   0  0  0  0  0  0  0  0  0  0  0  0
  138.2863   70.7220  221.4262 H   0  0  0  0  0  0  0  0  0  0  0  0
  137.3957   72.5072  222.6497 H   0  0  0  0  0  0  0  0  0  0  0  0
  138.9315   72.8408  223.4610 H   0  0  0  0  0  0  0  0  0  0  0  0
  138.5653   72.7441  220.4033 H   0  0  0  0  0  0  0  0  0  0  0  0
  138.5388   74.2579  221.3739 H   0  0  0  0  0  0  0  0  0  0  0  0
  140.0896   75.8176  220.3395 H   0  0  0  0  0  0  0  0  0  0  0  0
  142.1300   77.4290  221.5360 H   0  0  0  0  0  0  0  0  0  0  0  0
  142.7850   76.2040  220.5790 H   0  0  0  0  0  0  0  0  0  0  0  0
  139.4330   75.6933  222.7139 H   0  0  0  0  0  0  0  0  0  0  0  0
  141.0377   76.5873  223.0655 H   0  0  0  0  0  0  0  0  0  0  0  0
  138.7070   77.6610  223.0203 H   0  0  0  0  0  0  0  0  0  0  0  0
  137.9523   78.5282  221.1375 H   0  0  0  0  0  0  0  0  0  0  0  0
  139.5892   78.7058  220.4194 H   0  0  0  0  0  0  0  0  0  0  0  0
  138.7775   77.1034  220.4194 H   0  0  0  0  0  0  0  0  0  0  0  0
  139.4367   80.3026  221.4759 H   0  0  0  0  0  0  0  0  0  0  0  0
  140.9621   82.1809  222.0436 H   0  0  0  0  0  0  0  0  0  0  0  0
  142.8905   81.7558  223.5781 H   0  0  0  0  0  0  0  0  0  0  0  0
  143.2705   79.4940  224.5179 H   0  0  0  0  0  0  0  0  0  0  0  0
  141.7252   77.6298  223.9369 H   0  0  0  0  0  0  0  0  0  0  0  0
  141.3023   71.7350  220.2574 H   0  0  0  0  0  0  0  0  0  0  0  0
  141.9074   72.1359  221.9676 H   0  0  0  0  0  0  0  0  0  0  0  0
  140.3285   70.0634  221.1056 H   0  0  0  0  0  0  0  0  0  0  0  0
  140.8393   70.6674  222.8092 H   0  0  0  0  0  0  0  0  0  0  0  0
  1  2  1  0
  2  3  1  0
  3  4  2  0
  3  5  1  0
  5  6  1  0
  6  7  2  0
  7  8  1  0
  8  9  2  0
  9 10  1  0
 10 11  2  0
  5 12  1  0
 12 13  1  0
 13 14  1  0
 14 15  1  0
 15 16  1  0
 16 17  2  0
 16 18  1  0
 18 19  1  0
 18 20  1  0
 20 21  1  0
 21 22  1  0
 21 23  1  0
 23 24  2  0
 24 25  1  0
 25 26  2  0
 26 27  1  0
 27 28  2  0
 15 29  1  0
 29 30  1  0
 11  6  1  0
 30 12  1  0
 28 23  1  0
  1 31  1  0
  1 32  1  0
  1 33  1  0
  2 34  1  0
  2 35  1  0
  7 36  1  0
  8 37  1  0
  9 38  1  0
 10 39  1  0
 11 40  1  0
 12 41  1  0
 13 42  1  0
 13 43  1  0
 14 44  1  0
 14 45  1  0
 18 46  1  6
 19 47  1  0
 19 48  1  0
 20 49  1  0
 20 50  1  0
 21 51  1  1
 22 52  1  0
 22 53  1  0
 22 54  1  0
 24 55  1  0
 25 56  1  0
 26 57  1  0
 27 58  1  0
 28 59  1  0
 29 60  1  0
 29 61  1  0
 30 62  1  0
 30 63  1  0
M  END
>  <smiles>  (14) 
CCC(=O)N(c1ccccc1)C1CCN(C(=O)[C@H](N)CC(C)c2ccccc2)CC1

>  <score_type>  (14) 
oracle

>  <origin>  (14) 
autodockgpu

>  <m_score__min__energy>  (14) 
-8.8699999999999992

>  <m_primary>  (14) 
energy

>  <rmsd>  (14) 
6.887017686829118

>  <m_score__min__rmsd>  (14) 
6.887017686829118

>  <meeko>  (14) 
{"free_energy": -7.19, "intermolecular_energy": -9.88, "internal_energy": -2.47, "cluster_size": 10, "cluster_id": 5, "rank_in_cluster": 8}

>  <energy>  (14) 
-7.94

>  <cluster_rmsd>  (14) 
0.49

>  <cluster>  (14) 
2

$$$$

     RDKit          3D

 63 65  0  0  0  0  0  0  0  0999 V2000
  141.9230   80.2470  219.7370 C   0  0  0  0  0  0  0  0  0  0  0  0
  141.7420   79.0090  218.8900 C   0  0  0  0  0  0  0  0  0  0  0  0
  142.1100   77.7580  219.5930 C   0  0  0  0  0  0  0  0  0  0  0  0
  143.2380   77.2560  219.3220 O   0  0  0  0  0  0  0  0  0  0  0  0
  141.2120   77.1590  220.5340 N   0  0  0  0  0  0  0  0  0  0  0  0
  140.8130   77.9170  221.6710 C   0  0  0  0  0  0  0  0  0  0  0  0
  141.8060   78.4410  222.4830 C   0  0  0  0  0  0  0  0  0  0  0  0
  141.4810   79.1820  223.5990 C   0  0  0  0  0  0  0  0  0  0  0  0
  140.1270   79.3710  223.8590 C   0  0  0  0  0  0  0  0  0  0  0  0
  139.1380   78.8570  223.0600 C   0  0  0  0  0  0  0  0  0  0  0  0
  139.4620   78.1140  221.9430 C   0  0  0  0  0  0  0  0  0  0  0  0
  140.7440   75.7950  220.2970 C   0  0  0  0  0  0  0  0  0  0  0  0
  141.0870   74.8950  221.4430 C   0  0  0  0  0  0  0  0  0  0  0  0
  140.4190   73.5630  221.1330 C   0  0  0  0  0  0  0  0  0  0  0  0
  138.9940   73.7060  221.2030 N   0  0  0  0  0  0  0  0  0  0  0  0
  138.0890   72.9640  221.9800 C   0  0  0  0  0  0  0  0  0  0  0  0
  136.8370   73.3020  221.8740 O   0  0  0  0  0  0  0  0  0  0  0  0
  138.3270   71.8570  222.9060 C   0  0  2  0  0  0  0  0  0  0  0  0
  137.4270   71.8110  224.0360 N   0  0  0  0  0  0  0  0  0  0  0  0
  139.7230   71.7410  223.4550 C   0  0  0  0  0  0  0  0  0  0  0  0
  140.1050   70.5180  224.1760 C   0  0  2  0  0  0  0  0  0  0  0  0
  139.1600   69.3880  224.0300 C   0  0  0  0  0  0  0  0  0  0  0  0
  140.3180   70.7970  225.6510 C   0  0  0  0  0  0  0  0  0  0  0  0
  141.1020   71.8900  226.0370 C   0  0  0  0  0  0  0  0  0  0  0  0
  141.3310   72.1830  227.3720 C   0  0  0  0  0  0  0  0  0  0  0  0
  140.7570   71.3590  228.3390 C   0  0  0  0  0  0  0  0  0  0  0  0
  139.9800   70.2750  227.9750 C   0  0  0  0  0  0  0  0  0  0  0  0
  139.7640   70.0010  226.6250 C   0  0  0  0  0  0  0  0  0  0  0  0
  138.4260   74.7490  220.3510 C   0  0  0  0  0  0  0  0  0  0  0  0
  139.3100   75.8380  219.9420 C   0  0  0  0  0  0  0  0  0  0  0  0
  141.8828   79.9722  220.8014 H   0  0  0  0  0  0  0  0  0  0  0  0
  142.8977   80.7051  219.5131 H   0  0  0  0  0  0  0  0  0  0  0  0
  141.1203   80.9650  219.5131 H   0  0  0  0  0  0  0  0  0  0  0  0
  140.6858   78.9429  218.5898 H   0  0  0  0  0  0  0  0  0  0  0  0
  142.4141   79.1057  218.0246 H   0  0  0  0  0  0  0  0  0  0  0  0
  142.8630   78.2641  222.2349 H   0  0  0  0  0  0  0  0  0  0  0  0
  142.2568   79.6048  224.2543 H   0  0  0  0  0  0  0  0  0  0  0  0
  139.8376   79.9578  224.7433 H   0  0  0  0  0  0  0  0  0  0  0  0
  138.0822   79.0376  223.3104 H   0  0  0  0  0  0  0  0  0  0  0  0
  138.6817   77.6931  221.2918 H   0  0  0  0  0  0  0  0  0  0  0  0
  141.2681   75.3452  219.4409 H   0  0  0  0  0  0  0  0  0  0  0  0
  142.1771   74.7691  221.5192 H   0  0  0  0  0  0  0  0  0  0  0  0
  140.7427   75.3090  222.4022 H   0  0  0  0  0  0  0  0  0  0  0  0
  140.7041   73.2382  220.1214 H   0  0  0  0  0  0  0  0  0  0  0  0
  140.7452   72.8133  221.8689 H   0  0  0  0  0  0  0  0  0  0  0  0
  138.1402   71.0075  222.2326 H   0  0  0  0  0  0  0  0  0  0  0  0
  137.9250   71.8650  224.9500 H   0  0  0  0  0  0  0  0  0  0  0  0
  136.7210   72.5600  223.9940 H   0  0  0  0  0  0  0  0  0  0  0  0
  140.4135   71.8432  222.6048 H   0  0  0  0  0  0  0  0  0  0  0  0
  139.7709   72.5266  224.2234 H   0  0  0  0  0  0  0  0  0  0  0  0
  141.0456   70.2045  223.6996 H   0  0  0  0  0  0  0  0  0  0  0  0
  138.8603   69.0296  225.0259 H   0  0  0  0  0  0  0  0  0  0  0  0
  138.2698   69.7235  223.4778 H   0  0  0  0  0  0  0  0  0  0  0  0
  139.6477   68.5712  223.4778 H   0  0  0  0  0  0  0  0  0  0  0  0
  141.5471   72.5318  225.2624 H   0  0  0  0  0  0  0  0  0  0  0  0
  141.9505   73.0446  227.6616 H   0  0  0  0  0  0  0  0  0  0  0  0
  140.9244   71.5740  229.4047 H   0  0  0  0  0  0  0  0  0  0  0  0
  139.5339   69.6312  228.7474 H   0  0  0  0  0  0  0  0  0  0  0  0
  139.1441   69.1393  226.3366 H   0  0  0  0  0  0  0  0  0  0  0  0
  138.0562   74.2628  219.4362 H   0  0  0  0  0  0  0  0  0  0  0  0
  137.6550   75.2300  220.9709 H   0  0  0  0  0  0  0  0  0  0  0  0
  139.2555   75.8970  218.8449 H   0  0  0  0  0  0  0  0  0  0  0  0
  138.9327   76.6995  220.5124 H   0  0  0  0  0  0  0  0  0  0  0  0
  1  2  1  0
  2  3  1  0
  3  4  2  0
  3  5  1  0
  5  6  1  0
  6  7  2  0
  7  8  1  0
  8  9  2  0
  9 10  1  0
 10 11  2  0
  5 12  1  0
 12 13  1  0
 13 14  1  0
 14 15  1  0
 15 16  1  0
 16 17  2  0
 16 18  1  0
 18 19  1  0
 18 20  1  0
 20 21  1  0
 21 22  1  0
 21 23  1  0
 23 24  2  0
 24 25  1  0
 25 26  2  0
 26 27  1  0
 27 28  2  0
 15 29  1  0
 29 30  1  0
 11  6  1  0
 30 12  1  0
 28 23  1  0
  1 31  1  0
  1 32  1  0
  1 33  1  0
  2 34  1  0
  2 35  1  0
  7 36  1  0
  8 37  1  0
  9 38  1  0
 10 39  1  0
 11 40  1  0
 12 41  1  0
 13 42  1  0
 13 43  1  0
 14 44  1  0
 14 45  1  0
 18 46  1  6
 19 47  1  0
 19 48  1  0
 20 49  1  0
 20 50  1  0
 21 51  1  6
 22 52  1  0
 22 53  1  0
 22 54  1  0
 24 55  1  0
 25 56  1  0
 26 57  1  0
 27 58  1  0
 28 59  1  0
 29 60  1  0
 29 61  1  0
 30 62  1  0
 30 63  1  0
M  END
>  <smiles>  (15) 
CCC(=O)N(c1ccccc1)C1CCN(C(=O)[C@H](N)CC(C)c2ccccc2)CC1

>  <score_type>  (15) 
oracle

>  <origin>  (15) 
autodockgpu

>  <m_score__min__energy>  (15) 
-8.8699999999999992

>  <m_primary>  (15) 
energy

>  <rmsd>  (15) 
7.202026211536006

>  <m_score__min__rmsd>  (15) 
7.202026211536006

>  <meeko>  (15) 
{"free_energy": -7.26, "intermolecular_energy": -9.95, "internal_energy": -2.21, "cluster_size": 2, "cluster_id": 7, "rank_in_cluster": 2}

>  <energy>  (15) 
-7.94

>  <cluster_rmsd>  (15) 
0.0

>  <cluster>  (15) 
3

$$$$

     RDKit          3D

 63 65  0  0  0  0  0  0  0  0999 V2000
  146.6820   73.3460  221.9090 C   0  0  0  0  0  0  0  0  0  0  0  0
  145.5760   73.8530  221.0130 C   0  0  0  0  0  0  0  0  0  0  0  0
  145.4150   73.0600  219.7720 C   0  0  0  0  0  0  0  0  0  0  0  0
  146.3280   73.1600  218.9030 O   0  0  0  0  0  0  0  0  0  0  0  0
  144.2690   72.2230  219.5850 N   0  0  0  0  0  0  0  0  0  0  0  0
  144.4610   70.8170  219.4860 C   0  0  0  0  0  0  0  0  0  0  0  0
  143.3470   69.9990  219.5910 C   0  0  0  0  0  0  0  0  0  0  0  0
  143.4720   68.6290  219.5040 C   0  0  0  0  0  0  0  0  0  0  0  0
  144.7530   68.1230  219.3060 C   0  0  0  0  0  0  0  0  0  0  0  0
  145.8600   68.9250  219.2000 C   0  0  0  0  0  0  0  0  0  0  0  0
  145.7370   70.2970  219.2880 C   0  0  0  0  0  0  0  0  0  0  0  0
  142.9480   72.8430  219.4970 C   0  0  0  0  0  0  0  0  0  0  0  0
  142.2880   72.9120  220.8390 C   0  0  0  0  0  0  0  0  0  0  0  0
  141.0050   73.7020  220.6250 C   0  0  0  0  0  0  0  0  0  0  0  0
  141.3210   75.0660  220.3090 N   0  0  0  0  0  0  0  0  0  0  0  0
  140.8740   76.2280  220.9600 C   0  0  0  0  0  0  0  0  0  0  0  0
  141.3210   77.3540  220.4840 O   0  0  0  0  0  0  0  0  0  0  0  0
  139.9780   76.3830  222.1050 C   0  0  2  0  0  0  0  0  0  0  0  0
  139.1460   75.2340  222.3810 N   0  0  0  0  0  0  0  0  0  0  0  0
  139.0710   77.5830  222.0770 C   0  0  0  0  0  0  0  0  0  0  0  0
  139.2080   78.6020  223.1270 C   0  0  2  0  0  0  0  0  0  0  0  0
  138.0770   79.5530  223.2270 C   0  0  0  0  0  0  0  0  0  0  0  0
  140.4980   79.3840  222.9660 C   0  0  0  0  0  0  0  0  0  0  0  0
  141.7190   78.7600  223.2450 C   0  0  0  0  0  0  0  0  0  0  0  0
  142.9230   79.4330  223.1180 C   0  0  0  0  0  0  0  0  0  0  0  0
  142.8980   80.7630  222.6990 C   0  0  0  0  0  0  0  0  0  0  0  0
  141.7000   81.3940  222.4190 C   0  0  0  0  0  0  0  0  0  0  0  0
  140.5010   80.6960  222.5550 C   0  0  0  0  0  0  0  0  0  0  0  0
  142.2090   75.2540  219.1640 C   0  0  0  0  0  0  0  0  0  0  0  0
  143.0740   74.1360  218.7940 C   0  0  0  0  0  0  0  0  0  0  0  0
  146.3914   73.4792  222.9615 H   0  0  0  0  0  0  0  0  0  0  0  0
  146.8557   72.2784  221.7089 H   0  0  0  0  0  0  0  0  0  0  0  0
  147.6042   73.9113  221.7089 H   0  0  0  0  0  0  0  0  0  0  0  0
  144.6301   73.8196  221.5735 H   0  0  0  0  0  0  0  0  0  0  0  0
  145.8447   74.8764  220.7122 H   0  0  0  0  0  0  0  0  0  0  0  0
  142.3543   70.4471  219.7451 H   0  0  0  0  0  0  0  0  0  0  0  0
  142.5985   67.9657  219.5873 H   0  0  0  0  0  0  0  0  0  0  0  0
  144.8831   67.0333  219.2314 H   0  0  0  0  0  0  0  0  0  0  0  0
  146.8507   68.4730  219.0441 H   0  0  0  0  0  0  0  0  0  0  0  0
  146.6146   70.9550  219.2048 H   0  0  0  0  0  0  0  0  0  0  0  0
  142.2648   72.2231  218.8978 H   0  0  0  0  0  0  0  0  0  0  0  0
  142.0593   71.9008  221.2067 H   0  0  0  0  0  0  0  0  0  0  0  0
  142.9383   73.3876  221.5880 H   0  0  0  0  0  0  0  0  0  0  0  0
  140.4364   73.2572  219.7951 H   0  0  0  0  0  0  0  0  0  0  0  0
  140.4025   73.6724  221.5449 H   0  0  0  0  0  0  0  0  0  0  0  0
  140.7198   76.5186  222.9058 H   0  0  0  0  0  0  0  0  0  0  0  0
  138.9590   74.6600  221.5320 H   0  0  0  0  0  0  0  0  0  0  0  0
  139.5540   74.6320  223.1100 H   0  0  0  0  0  0  0  0  0  0  0  0
  139.2340   78.0883  221.1136 H   0  0  0  0  0  0  0  0  0  0  0  0
  138.0691   77.1615  222.2463 H   0  0  0  0  0  0  0  0  0  0  0  0
  139.2161   78.0249  224.0634 H   0  0  0  0  0  0  0  0  0  0  0  0
  137.8506   79.7434  224.2865 H   0  0  0  0  0  0  0  0  0  0  0  0
  138.3482   80.4984  222.7344 H   0  0  0  0  0  0  0  0  0  0  0  0
  137.1922   79.1236  222.7344 H   0  0  0  0  0  0  0  0  0  0  0  0
  141.7228   77.7100  223.5730 H   0  0  0  0  0  0  0  0  0  0  0  0
  143.8756   78.9307  223.3421 H   0  0  0  0  0  0  0  0  0  0  0  0
  143.8424   81.3164  222.5900 H   0  0  0  0  0  0  0  0  0  0  0  0
  141.6930   82.4436  222.0899 H   0  0  0  0  0  0  0  0  0  0  0  0
  139.5488   81.1994  222.3315 H   0  0  0  0  0  0  0  0  0  0  0  0
  141.5793   75.4865  218.2926 H   0  0  0  0  0  0  0  0  0  0  0  0
  142.8987   76.0541  219.4709 H   0  0  0  0  0  0  0  0  0  0  0  0
  142.8966   73.9363  217.7269 H   0  0  0  0  0  0  0  0  0  0  0  0
  144.0767   74.4848  219.0821 H   0  0  0  0  0  0  0  0  0  0  0  0
  1  2  1  0
  2  3  1  0
  3  4  2  0
  3  5  1  0
  5  6  1  0
  6  7  2  0
  7  8  1  0
  8  9  2  0
  9 10  1  0
 10 11  2  0
  5 12  1  0
 12 13  1  0
 13 14  1  0
 14 15  1  0
 15 16  1  0
 16 17  2  0
 16 18  1  0
 18 19  1  0
 18 20  1  0
 20 21  1  0
 21 22  1  0
 21 23  1  0
 23 24  2  0
 24 25  1  0
 25 26  2  0
 26 27  1  0
 27 28  2  0
 15 29  1  0
 29 30  1  0
 11  6  1  0
 30 12  1  0
 28 23  1  0
  1 31  1  0
  1 32  1  0
  1 33  1  0
  2 34  1  0
  2 35  1  0
  7 36  1  0
  8 37  1  0
  9 38  1  0
 10 39  1  0
 11 40  1  0
 12 41  1  0
 13 42  1  0
 13 43  1  0
 14 44  1  0
 14 45  1  0
 18 46  1  1
 19 47  1  0
 19 48  1  0
 20 49  1  0
 20 50  1  0
 21 51  1  1
 22 52  1  0
 22 53  1  0
 22 54  1  0
 24 55  1  0
 25 56  1  0
 26 57  1  0
 27 58  1  0
 28 59  1  0
 29 60  1  0
 29 61  1  0
 30 62  1  0
 30 63  1  0
M  END
>  <smiles>  (16) 
CCC(=O)N(c1ccccc1)C1CCN(C(=O)[C@H](N)CC(C)c2ccccc2)CC1

>  <score_type>  (16) 
oracle

>  <origin>  (16) 
autodockgpu

>  <m_score__min__energy>  (16) 
-8.8699999999999992

>  <m_primary>  (16) 
energy

>  <rmsd>  (16) 
6.571264333250363

>  <m_score__min__rmsd>  (16) 
6.571264333250363

>  <meeko>  (16) 
{"free_energy": -7.94, "intermolecular_energy": -10.62, "internal_energy": -1.83, "cluster_size": 4, "cluster_id": 2, "rank_in_cluster": 4}

>  <energy>  (16) 
-7.84

>  <cluster_rmsd>  (16) 
0.0

>  <cluster>  (16) 
4

$$$$

     RDKit          3D

 63 65  0  0  0  0  0  0  0  0999 V2000
  138.0120   80.5050  224.0640 C   0  0  0  0  0  0  0  0  0  0  0  0
  137.8160   79.7750  222.7560 C   0  0  0  0  0  0  0  0  0  0  0  0
  138.4620   78.4430  222.7230 C   0  0  0  0  0  0  0  0  0  0  0  0
  137.7630   77.4560  223.0890 O   0  0  0  0  0  0  0  0  0  0  0  0
  139.8200   78.3020  222.2930 N   0  0  0  0  0  0  0  0  0  0  0  0
  140.7540   79.3180  222.6420 C   0  0  0  0  0  0  0  0  0  0  0  0
  141.4930   79.1510  223.8010 C   0  0  0  0  0  0  0  0  0  0  0  0
  142.4120   80.1020  224.1910 C   0  0  0  0  0  0  0  0  0  0  0  0
  142.5520   81.2170  223.3700 C   0  0  0  0  0  0  0  0  0  0  0  0
  141.8250   81.3900  222.2210 C   0  0  0  0  0  0  0  0  0  0  0  0
  140.9040   80.4390  221.8300 C   0  0  0  0  0  0  0  0  0  0  0  0
  140.1950   77.1280  221.5070 C   0  0  0  0  0  0  0  0  0  0  0  0
  140.9620   76.1430  222.3330 C   0  0  0  0  0  0  0  0  0  0  0  0
  141.1550   74.9230  221.4430 C   0  0  0  0  0  0  0  0  0  0  0  0
  139.8900   74.2880  221.2090 N   0  0  0  0  0  0  0  0  0  0  0  0
  139.5400   72.9490  221.4490 C   0  0  0  0  0  0  0  0  0  0  0  0
  138.3130   72.6220  221.1620 O   0  0  0  0  0  0  0  0  0  0  0  0
  140.3380   71.8450  221.9800 C   0  0  2  0  0  0  0  0  0  0  0  0
  139.9000   70.5310  221.5680 N   0  0  0  0  0  0  0  0  0  0  0  0
  140.5000   71.8030  223.4750 C   0  0  0  0  0  0  0  0  0  0  0  0
  139.8330   70.7350  224.2330 C   0  0  2  0  0  0  0  0  0  0  0  0
  138.3530   70.7630  224.1800 C   0  0  0  0  0  0  0  0  0  0  0  0
  140.2760   70.7340  225.6830 C   0  0  0  0  0  0  0  0  0  0  0  0
  140.2010   69.5500  226.4240 C   0  0  0  0  0  0  0  0  0  0  0  0
  140.5890   69.4990  227.7530 C   0  0  0  0  0  0  0  0  0  0  0  0
  141.0630   70.6660  228.3500 C   0  0  0  0  0  0  0  0  0  0  0  0
  141.1430   71.8460  227.6330 C   0  0  0  0  0  0  0  0  0  0  0  0
  140.7470   71.8720  226.2960 C   0  0  0  0  0  0  0  0  0  0  0  0
  138.8520   75.1480  220.6440 C   0  0  0  0  0  0  0  0  0  0  0  0
  138.9870   76.5880  220.8510 C   0  0  0  0  0  0  0  0  0  0  0  0
  137.8267   79.8149  224.9004 H   0  0  0  0  0  0  0  0  0  0  0  0
  139.0434   80.8829  224.1220 H   0  0  0  0  0  0  0  0  0  0  0  0
  137.3086   81.3487  224.1220 H   0  0  0  0  0  0  0  0  0  0  0  0
  136.7368   79.6433  222.5886 H   0  0  0  0  0  0  0  0  0  0  0  0
  138.2875   80.3840  221.9706 H   0  0  0  0  0  0  0  0  0  0  0  0
  141.3455   78.2512  224.4163 H   0  0  0  0  0  0  0  0  0  0  0  0
  143.0071   79.9848  225.1087 H   0  0  0  0  0  0  0  0  0  0  0  0
  143.2775   81.9930  223.6555 H   0  0  0  0  0  0  0  0  0  0  0  0
  141.9761   82.2906  221.6078 H   0  0  0  0  0  0  0  0  0  0  0  0
  140.3111   80.5622  220.9117 H   0  0  0  0  0  0  0  0  0  0  0  0
  140.8946   77.4025  220.7038 H   0  0  0  0  0  0  0  0  0  0  0  0
  141.9359   76.5629  222.6250 H   0  0  0  0  0  0  0  0  0  0  0  0
  140.4294   75.8889  223.2613 H   0  0  0  0  0  0  0  0  0  0  0  0
  141.5895   75.2367  220.4824 H   0  0  0  0  0  0  0  0  0  0  0  0
  141.8315   74.2130  221.9412 H   0  0  0  0  0  0  0  0  0  0  0  0
  141.3112   72.0841  221.5264 H   0  0  0  0  0  0  0  0  0  0  0  0
  138.9170   70.5240  221.2230 H   0  0  0  0  0  0  0  0  0  0  0  0
  140.5130   70.1330  220.8430 H   0  0  0  0  0  0  0  0  0  0  0  0
  141.5774   71.7199  223.6805 H   0  0  0  0  0  0  0  0  0  0  0  0
  140.0039   72.7220  223.8206 H   0  0  0  0  0  0  0  0  0  0  0  0
  140.1477   69.8089  223.7297 H   0  0  0  0  0  0  0  0  0  0  0  0
  137.9495   70.7706  225.2033 H   0  0  0  0  0  0  0  0  0  0  0  0
  138.0222   71.6676  223.6487 H   0  0  0  0  0  0  0  0  0  0  0  0
  137.9882   69.8716  223.6487 H   0  0  0  0  0  0  0  0  0  0  0  0
  139.8247   68.6369  225.9396 H   0  0  0  0  0  0  0  0  0  0  0  0
  140.5246   68.5605  228.3232 H   0  0  0  0  0  0  0  0  0  0  0  0
  141.3772   70.6482  229.4040 H   0  0  0  0  0  0  0  0  0  0  0  0
  141.5177   72.7608  228.1156 H   0  0  0  0  0  0  0  0  0  0  0  0
  140.8118   72.8109  225.7265 H   0  0  0  0  0  0  0  0  0  0  0  0
  138.8313   74.9710  219.5585 H   0  0  0  0  0  0  0  0  0  0  0  0
  137.9332   74.8710  221.1816 H   0  0  0  0  0  0  0  0  0  0  0  0
  138.9267   77.0588  219.8587 H   0  0  0  0  0  0  0  0  0  0  0  0
  138.1849   76.8175  221.5680 H   0  0  0  0  0  0  0  0  0  0  0  0
  1  2  1  0
  2  3  1  0
  3  4  2  0
  3  5  1  0
  5  6  1  0
  6  7  2  0
  7  8  1  0
  8  9  2  0
  9 10  1  0
 10 11  2  0
  5 12  1  0
 12 13  1  0
 13 14  1  0
 14 15  1  0
 15 16  1  0
 16 17  2  0
 16 18  1  0
 18 19  1  0
 18 20  1  0
 20 21  1  0
 21 22  1  0
 21 23  1  0
 23 24  2  0
 24 25  1  0
 25 26  2  0
 26 27  1  0
 27 28  2  0
 15 29  1  0
 29 30  1  0
 11  6  1  0
 30 12  1  0
 28 23  1  0
  1 31  1  0
  1 32  1  0
  1 33  1  0
  2 34  1  0
  2 35  1  0
  7 36  1  0
  8 37  1  0
  9 38  1  0
 10 39  1  0
 11 40  1  0
 12 41  1  0
 13 42  1  0
 13 43  1  0
 14 44  1  0
 14 45  1  0
 18 46  1  6
 19 47  1  0
 19 48  1  0
 20 49  1  0
 20 50  1  0
 21 51  1  6
 22 52  1  0
 22 53  1  0
 22 54  1  0
 24 55  1  0
 25 56  1  0
 26 57  1  0
 27 58  1  0
 28 59  1  0
 29 60  1  0
 29 61  1  0
 30 62  1  0
 30 63  1  0
M  END
>  <smiles>  (17) 
CCC(=O)N(c1ccccc1)C1CCN(C(=O)[C@H](N)CC(C)c2ccccc2)CC1

>  <score_type>  (17) 
oracle

>  <origin>  (17) 
autodockgpu

>  <m_score__min__energy>  (17) 
-8.8699999999999992

>  <m_primary>  (17) 
energy

>  <rmsd>  (17) 
6.587009284116329

>  <m_score__min__rmsd>  (17) 
6.587009284116329

>  <meeko>  (17) 
{"free_energy": -7.52, "intermolecular_energy": -10.21, "internal_energy": -2.24, "cluster_size": 4, "cluster_id": 6, "rank_in_cluster": 2}

>  <energy>  (17) 
-7.76

>  <cluster_rmsd>  (17) 
0.0

>  <cluster>  (17) 
5

$$$$

     RDKit          3D

 63 65  0  0  0  0  0  0  0  0999 V2000
  138.2250   66.9660  221.9700 C   0  0  0  0  0  0  0  0  0  0  0  0
  137.8210   68.2030  222.7380 C   0  0  0  0  0  0  0  0  0  0  0  0
  138.7930   68.5850  223.7880 C   0  0  0  0  0  0  0  0  0  0  0  0
  139.1580   67.6800  224.5910 O   0  0  0  0  0  0  0  0  0  0  0  0
  139.2830   69.9280  223.8730 N   0  0  0  0  0  0  0  0  0  0  0  0
  139.8410   70.3720  225.1050 C   0  0  0  0  0  0  0  0  0  0  0  0
  140.8980   71.2660  225.0550 C   0  0  0  0  0  0  0  0  0  0  0  0
  141.4800   71.7310  226.2150 C   0  0  0  0  0  0  0  0  0  0  0  0
  140.9550   71.2620  227.4150 C   0  0  0  0  0  0  0  0  0  0  0  0
  139.9090   70.3780  227.4750 C   0  0  0  0  0  0  0  0  0  0  0  0
  139.3260   69.9110  226.3140 C   0  0  0  0  0  0  0  0  0  0  0  0
  139.1860   70.7920  222.6990 C   0  0  0  0  0  0  0  0  0  0  0  0
  138.9630   72.2200  223.0910 C   0  0  0  0  0  0  0  0  0  0  0  0
  139.0310   73.0170  221.7950 C   0  0  0  0  0  0  0  0  0  0  0  0
  140.3690   72.9900  221.2790 N   0  0  0  0  0  0  0  0  0  0  0  0
  141.1880   74.0840  220.9500 C   0  0  0  0  0  0  0  0  0  0  0  0
  142.3770   73.7910  220.5100 O   0  0  0  0  0  0  0  0  0  0  0  0
  140.9210   75.5200  221.0250 C   0  0  2  0  0  0  0  0  0  0  0  0
  142.0430   76.3610  220.6780 N   0  0  0  0  0  0  0  0  0  0  0  0
  140.3840   76.0260  222.3370 C   0  0  0  0  0  0  0  0  0  0  0  0
  139.7250   77.3390  222.3750 C   0  0  2  0  0  0  0  0  0  0  0  0
  138.8600   77.6370  221.2120 C   0  0  0  0  0  0  0  0  0  0  0  0
  140.7380   78.4560  222.5370 C   0  0  0  0  0  0  0  0  0  0  0  0
  141.0110   79.2990  221.4540 C   0  0  0  0  0  0  0  0  0  0  0  0
  141.9310   80.3290  221.5510 C   0  0  0  0  0  0  0  0  0  0  0  0
  142.5920   80.5160  222.7640 C   0  0  0  0  0  0  0  0  0  0  0  0
  142.3350   79.6920  223.8440 C   0  0  0  0  0  0  0  0  0  0  0  0
  141.4040   78.6620  223.7230 C   0  0  0  0  0  0  0  0  0  0  0  0
  140.9330   71.6600  221.0660 C   0  0  0  0  0  0  0  0  0  0  0  0
  140.3620   70.5570  221.8360 C   0  0  0  0  0  0  0  0  0  0  0  0
  138.4867   66.1648  222.6768 H   0  0  0  0  0  0  0  0  0  0  0  0
  137.3875   66.6375  221.3371 H   0  0  0  0  0  0  0  0  0  0  0  0
  139.0950   67.1952  221.3371 H   0  0  0  0  0  0  0  0  0  0  0  0
  137.7267   69.0387  222.0290 H   0  0  0  0  0  0  0  0  0  0  0  0
  136.8696   67.9770  223.2419 H   0  0  0  0  0  0  0  0  0  0  0  0
  141.2765   71.6081  224.0805 H   0  0  0  0  0  0  0  0  0  0  0  0
  142.3206   72.4401  226.1928 H   0  0  0  0  0  0  0  0  0  0  0  0
  141.3988   71.6161  228.3571 H   0  0  0  0  0  0  0  0  0  0  0  0
  139.5328   70.0395  228.4517 H   0  0  0  0  0  0  0  0  0  0  0  0
  138.4861   69.2013  226.3428 H   0  0  0  0  0  0  0  0  0  0  0  0
  138.2985   70.5393  222.1003 H   0  0  0  0  0  0  0  0  0  0  0  0
  137.9767   72.3388  223.5633 H   0  0  0  0  0  0  0  0  0  0  0  0
  139.7124   72.5635  223.8194 H   0  0  0  0  0  0  0  0  0  0  0  0
  138.3459   72.5740  221.0572 H   0  0  0  0  0  0  0  0  0  0  0  0
  138.7385   74.0588  221.9929 H   0  0  0  0  0  0  0  0  0  0  0  0
  140.1309   75.6032  220.2642 H   0  0  0  0  0  0  0  0  0  0  0  0
  142.2010   77.1270  221.3680 H   0  0  0  0  0  0  0  0  0  0  0  0
  142.9120   75.8180  220.5760 H   0  0  0  0  0  0  0  0  0  0  0  0
  139.6515   75.2866  222.6929 H   0  0  0  0  0  0  0  0  0  0  0  0
  141.2827   76.1623  222.9565 H   0  0  0  0  0  0  0  0  0  0  0  0
  139.0634   77.2837  223.2521 H   0  0  0  0  0  0  0  0  0  0  0  0
  137.8750   77.9763  221.5650 H   0  0  0  0  0  0  0  0  0  0  0  0
  139.3235   78.4273  220.6032 H   0  0  0  0  0  0  0  0  0  0  0  0
  138.7384   76.7289  220.6032 H   0  0  0  0  0  0  0  0  0  0  0  0
  140.4820   79.1395  220.5028 H   0  0  0  0  0  0  0  0  0  0  0  0
  142.1355   80.9842  220.6914 H   0  0  0  0  0  0  0  0  0  0  0  0
  143.3267   81.3287  222.8631 H   0  0  0  0  0  0  0  0  0  0  0  0
  142.8637   79.8489  224.7958 H   0  0  0  0  0  0  0  0  0  0  0  0
  141.1999   78.0079  224.5835 H   0  0  0  0  0  0  0  0  0  0  0  0
  140.8110   71.4165  220.0002 H   0  0  0  0  0  0  0  0  0  0  0  0
  141.9740   71.7366  221.4131 H   0  0  0  0  0  0  0  0  0  0  0  0
  140.0753   69.7793  221.1128 H   0  0  0  0  0  0  0  0  0  0  0  0
  141.1581   70.3097  222.5537 H   0  0  0  0  0  0  0  0  0  0  0  0
  1  2  1  0
  2  3  1  0
  3  4  2  0
  3  5  1  0
  5  6  1  0
  6  7  2  0
  7  8  1  0
  8  9  2  0
  9 10  1  0
 10 11  2  0
  5 12  1  0
 12 13  1  0
 13 14  1  0
 14 15  1  0
 15 16  1  0
 16 17  2  0
 16 18  1  0
 18 19  1  0
 18 20  1  0
 20 21  1  0
 21 22  1  0
 21 23  1  0
 23 24  2  0
 24 25  1  0
 25 26  2  0
 26 27  1  0
 27 28  2  0
 15 29  1  0
 29 30  1  0
 11  6  1  0
 30 12  1  0
 28 23  1  0
  1 31  1  0
  1 32  1  0
  1 33  1  0
  2 34  1  0
  2 35  1  0
  7 36  1  0
  8 37  1  0
  9 38  1  0
 10 39  1  0
 11 40  1  0
 12 41  1  0
 13 42  1  0
 13 43  1  0
 14 44  1  0
 14 45  1  0
 18 46  1  6
 19 47  1  0
 19 48  1  0
 20 49  1  0
 20 50  1  0
 21 51  1  1
 22 52  1  0
 22 53  1  0
 22 54  1  0
 24 55  1  0
 25 56  1  0
 26 57  1  0
 27 58  1  0
 28 59  1  0
 29 60  1  0
 29 61  1  0
 30 62  1  0
 30 63  1  0
M  END
>  <smiles>  (18) 
CCC(=O)N(c1ccccc1)C1CCN(C(=O)[C@H](N)CC(C)c2ccccc2)CC1

>  <score_type>  (18) 
oracle

>  <origin>  (18) 
autodockgpu

>  <m_score__min__energy>  (18) 
-8.8699999999999992

>  <m_primary>  (18) 
energy

>  <rmsd>  (18) 
7.036646630358675

>  <m_score__min__rmsd>  (18) 
7.036646630358675

>  <meeko>  (18) 
{"free_energy": -7.71, "intermolecular_energy": -10.4, "internal_energy": -2.25, "cluster_size": 10, "cluster_id": 5, "rank_in_cluster": 2}

>  <energy>  (18) 
-7.71

>  <cluster_rmsd>  (18) 
0.13

>  <cluster>  (18) 
5

$$$$

     RDKit          3D

 63 65  0  0  0  0  0  0  0  0999 V2000
  146.6920   73.3900  221.6020 C   0  0  0  0  0  0  0  0  0  0  0  0
  145.4010   72.7460  221.1560 C   0  0  0  0  0  0  0  0  0  0  0  0
  145.4060   72.3460  219.7300 C   0  0  0  0  0  0  0  0  0  0  0  0
  146.2160   72.9450  218.9670 O   0  0  0  0  0  0  0  0  0  0  0  0
  144.5220   71.3230  219.2570 N   0  0  0  0  0  0  0  0  0  0  0  0
  145.0780   70.0780  218.8500 C   0  0  0  0  0  0  0  0  0  0  0  0
  144.8730   68.9770  219.6660 C   0  0  0  0  0  0  0  0  0  0  0  0
  145.3890   67.7450  219.3240 C   0  0  0  0  0  0  0  0  0  0  0  0
  146.1100   67.6700  218.1380 C   0  0  0  0  0  0  0  0  0  0  0  0
  146.3180   68.7540  217.3240 C   0  0  0  0  0  0  0  0  0  0  0  0
  145.8030   69.9890  217.6650 C   0  0  0  0  0  0  0  0  0  0  0  0
  143.0870   71.5970  219.2030 C   0  0  0  0  0  0  0  0  0  0  0  0
  142.3030   70.5350  219.9090 C   0  0  0  0  0  0  0  0  0  0  0  0
  140.8600   71.0180  219.9040 C   0  0  0  0  0  0  0  0  0  0  0  0
  140.7320   72.1770  220.7410 N   0  0  0  0  0  0  0  0  0  0  0  0
  139.8550   72.3670  221.8220 C   0  0  0  0  0  0  0  0  0  0  0  0
  139.9470   73.5130  222.4330 O   0  0  0  0  0  0  0  0  0  0  0  0
  138.8420   71.4750  222.3840 C   0  0  2  0  0  0  0  0  0  0  0  0
  137.4800   71.8140  222.0380 N   0  0  0  0  0  0  0  0  0  0  0  0
  138.8790   71.2880  223.8760 C   0  0  0  0  0  0  0  0  0  0  0  0
  139.7780   70.2720  224.4420 C   0  0  2  0  0  0  0  0  0  0  0  0
  139.1960   68.9150  224.5530 C   0  0  0  0  0  0  0  0  0  0  0  0
  140.3000   70.6990  225.8010 C   0  0  0  0  0  0  0  0  0  0  0  0
  140.0650   69.8840  226.9140 C   0  0  0  0  0  0  0  0  0  0  0  0
  140.5160   70.2330  228.1760 C   0  0  0  0  0  0  0  0  0  0  0  0
  141.2200   71.4270  228.3220 C   0  0  0  0  0  0  0  0  0  0  0  0
  141.4610   72.2440  227.2330 C   0  0  0  0  0  0  0  0  0  0  0  0
  140.9970   71.8720  225.9720 C   0  0  0  0  0  0  0  0  0  0  0  0
  141.6220   73.2880  220.4130 C   0  0  0  0  0  0  0  0  0  0  0  0
  142.8470   72.9750  219.6800 C   0  0  0  0  0  0  0  0  0  0  0  0
  146.7314   73.4096  222.7011 H   0  0  0  0  0  0  0  0  0  0  0  0
  147.5434   72.8110  221.2149 H   0  0  0  0  0  0  0  0  0  0  0  0
  146.7416   74.4184  221.2149 H   0  0  0  0  0  0  0  0  0  0  0  0
  145.2285   71.8492  221.7692 H   0  0  0  0  0  0  0  0  0  0  0  0
  144.6044   73.4942  221.2809 H   0  0  0  0  0  0  0  0  0  0  0  0
  144.2936   69.0868  220.5946 H   0  0  0  0  0  0  0  0  0  0  0  0
  145.2369   66.8612  219.9611 H   0  0  0  0  0  0  0  0  0  0  0  0
  146.5321   66.6991  217.8393 H   0  0  0  0  0  0  0  0  0  0  0  0
  146.8973   68.6392  216.3960 H   0  0  0  0  0  0  0  0  0  0  0  0
  145.9597   70.8693  217.0243 H   0  0  0  0  0  0  0  0  0  0  0  0
  142.7189   71.5527  218.1674 H   0  0  0  0  0  0  0  0  0  0  0  0
  142.3887   69.5766  219.3760 H   0  0  0  0  0  0  0  0  0  0  0  0
  142.6725   70.3692  220.9317 H   0  0  0  0  0  0  0  0  0  0  0  0
  140.5647   71.2755  218.8761 H   0  0  0  0  0  0  0  0  0  0  0  0
  140.2084   70.2192  220.2879 H   0  0  0  0  0  0  0  0  0  0  0  0
  139.1364   70.5313  221.9016 H   0  0  0  0  0  0  0  0  0  0  0  0
  137.2610   72.8190  222.2040 H   0  0  0  0  0  0  0  0  0  0  0  0
  137.2660   71.5820  221.0570 H   0  0  0  0  0  0  0  0  0  0  0  0
  139.1665   72.2545  224.3156 H   0  0  0  0  0  0  0  0  0  0  0  0
  137.8726   70.9182  224.1219 H   0  0  0  0  0  0  0  0  0  0  0  0
  140.5994   70.2022  223.7137 H   0  0  0  0  0  0  0  0  0  0  0  0
  139.0825   68.6504  225.6147 H   0  0  0  0  0  0  0  0  0  0  0  0
  138.2111   68.8973  224.0634 H   0  0  0  0  0  0  0  0  0  0  0  0
  139.8620   68.1892  224.0634 H   0  0  0  0  0  0  0  0  0  0  0  0
  139.5089   68.9439  226.7834 H   0  0  0  0  0  0  0  0  0  0  0  0
  140.3232   69.5834  229.0425 H   0  0  0  0  0  0  0  0  0  0  0  0
  141.5882   71.7228  229.3154 H   0  0  0  0  0  0  0  0  0  0  0  0
  142.0170   73.1845  227.3611 H   0  0  0  0  0  0  0  0  0  0  0  0
  141.1901   72.5225  225.1063 H   0  0  0  0  0  0  0  0  0  0  0  0
  141.0474   74.0026  219.8054 H   0  0  0  0  0  0  0  0  0  0  0  0
  141.9661   73.6692  221.3858 H   0  0  0  0  0  0  0  0  0  0  0  0
  142.8625   73.6259  218.7934 H   0  0  0  0  0  0  0  0  0  0  0  0
  143.6378   73.1262  220.4295 H   0  0  0  0  0  0  0  0  0  0  0  0
  1  2  1  0
  2  3  1  0
  3  4  2  0
  3  5  1  0
  5  6  1  0
  6  7  2  0
  7  8  1  0
  8  9  2  0
  9 10  1  0
 10 11  2  0
  5 12  1  0
 12 13  1  0
 13 14  1  0
 14 15  1  0
 15 16  1  0
 16 17  2  0
 16 18  1  0
 18 19  1  0
 18 20  1  0
 20 21  1  0
 21 22  1  0
 21 23  1  0
 23 24  2  0
 24 25  1  0
 25 26  2  0
 26 27  1  0
 27 28  2  0
 15 29  1  0
 29 30  1  0
 11  6  1  0
 30 12  1  0
 28 23  1  0
  1 31  1  0
  1 32  1  0
  1 33  1  0
  2 34  1  0
  2 35  1  0
  7 36  1  0
  8 37  1  0
  9 38  1  0
 10 39  1  0
 11 40  1  0
 12 41  1  0
 13 42  1  0
 13 43  1  0
 14 44  1  0
 14 45  1  0
 18 46  1  6
 19 47  1  0
 19 48  1  0
 20 49  1  0
 20 50  1  0
 21 51  1  6
 22 52  1  0
 22 53  1  0
 22 54  1  0
 24 55  1  0
 25 56  1  0
 26 57  1  0
 27 58  1  0
 28 59  1  0
 29 60  1  0
 29 61  1  0
 30 62  1  0
 30 63  1  0
M  END
>  <smiles>  (19) 
CCC(=O)N(c1ccccc1)C1CCN(C(=O)[C@H](N)CC(C)c2ccccc2)CC1

>  <score_type>  (19) 
oracle

>  <origin>  (19) 
autodockgpu

>  <m_score__min__energy>  (19) 
-8.8699999999999992

>  <m_primary>  (19) 
energy

>  <rmsd>  (19) 
8.607516294759087

>  <m_score__min__rmsd>  (19) 
8.607516294759087

>  <meeko>  (19) 
{"free_energy": -8.33, "intermolecular_energy": -11.02, "internal_energy": -1.65, "cluster_size": 10, "cluster_id": 1, "rank_in_cluster": 8}

>  <energy>  (19) 
-7.59

>  <cluster_rmsd>  (19) 
0.45

>  <cluster>  (19) 
5

$$$$

     RDKit          3D

 63 65  0  0  0  0  0  0  0  0999 V2000
  140.4220   71.2090  219.7230 C   0  0  0  0  0  0  0  0  0  0  0  0
  140.8120   71.5820  221.1340 C   0  0  0  0  0  0  0  0  0  0  0  0
  141.0730   73.0290  221.3090 C   0  0  0  0  0  0  0  0  0  0  0  0
  140.5620   73.5880  222.3200 O   0  0  0  0  0  0  0  0  0  0  0  0
  141.8730   73.7450  220.3610 N   0  0  0  0  0  0  0  0  0  0  0  0
  143.2750   73.5020  220.3320 C   0  0  0  0  0  0  0  0  0  0  0  0
  143.7070   72.2200  220.0320 C   0  0  0  0  0  0  0  0  0  0  0  0
  145.0530   71.9240  219.9910 C   0  0  0  0  0  0  0  0  0  0  0  0
  145.9350   72.9650  220.2600 C   0  0  0  0  0  0  0  0  0  0  0  0
  145.5180   74.2370  220.5580 C   0  0  0  0  0  0  0  0  0  0  0  0
  144.1700   74.5340  220.6000 C   0  0  0  0  0  0  0  0  0  0  0  0
  141.2240   74.7000  219.4650 C   0  0  0  0  0  0  0  0  0  0  0  0
  141.1060   76.0500  220.1020 C   0  0  0  0  0  0  0  0  0  0  0  0
  140.5570   76.9680  219.0200 C   0  0  0  0  0  0  0  0  0  0  0  0
  141.5370   77.1420  217.9870 N   0  0  0  0  0  0  0  0  0  0  0  0
  142.0650   78.3470  217.4930 C   0  0  0  0  0  0  0  0  0  0  0  0
  142.9610   78.2340  216.5560 O   0  0  0  0  0  0  0  0  0  0  0  0
  141.7690   79.7310  217.8660 C   0  0  2  0  0  0  0  0  0  0  0  0
  142.2500   80.7230  216.9320 N   0  0  0  0  0  0  0  0  0  0  0  0
  142.2270   80.1600  219.2330 C   0  0  0  0  0  0  0  0  0  0  0  0
  141.2340   80.6780  220.1850 C   0  0  2  0  0  0  0  0  0  0  0  0
  141.1670   82.1540  220.2750 C   0  0  0  0  0  0  0  0  0  0  0  0
  141.4570   80.1070  221.5730 C   0  0  0  0  0  0  0  0  0  0  0  0
  141.0020   78.8170  221.8670 C   0  0  0  0  0  0  0  0  0  0  0  0
  141.1770   78.2540  223.1200 C   0  0  0  0  0  0  0  0  0  0  0  0
  141.8250   79.0050  224.1000 C   0  0  0  0  0  0  0  0  0  0  0  0
  142.2800   80.2810  223.8260 C   0  0  0  0  0  0  0  0  0  0  0  0
  142.0930   80.8270  222.5570 C   0  0  0  0  0  0  0  0  0  0  0  0
  142.0330   75.9100  217.3790 C   0  0  0  0  0  0  0  0  0  0  0  0
  141.9210   74.6820  218.1630 C   0  0  0  0  0  0  0  0  0  0  0  0
  139.6273   70.4489  219.7510 H   0  0  0  0  0  0  0  0  0  0  0  0
  140.0566   72.1023  219.1953 H   0  0  0  0  0  0  0  0  0  0  0  0
  141.2981   70.8042  219.1953 H   0  0  0  0  0  0  0  0  0  0  0  0
  139.9947   71.2909  221.8102 H   0  0  0  0  0  0  0  0  0  0  0  0
  141.7490   71.0531  221.3625 H   0  0  0  0  0  0  0  0  0  0  0  0
  142.9691   71.4310  219.8246 H   0  0  0  0  0  0  0  0  0  0  0  0
  145.4126   70.9113  219.7564 H   0  0  0  0  0  0  0  0  0  0  0  0
  147.0152   72.7590  220.2325 H   0  0  0  0  0  0  0  0  0  0  0  0
  146.2594   75.0230  220.7642 H   0  0  0  0  0  0  0  0  0  0  0  0
  143.8166   75.5485  220.8365 H   0  0  0  0  0  0  0  0  0  0  0  0
  140.1821   74.4063  219.2697 H   0  0  0  0  0  0  0  0  0  0  0  0
  140.4168   76.0113  220.9584 H   0  0  0  0  0  0  0  0  0  0  0  0
  142.0745   76.4054  220.4836 H   0  0  0  0  0  0  0  0  0  0  0  0
  139.6480   76.5224  218.5897 H   0  0  0  0  0  0  0  0  0  0  0  0
  140.3169   77.9465  219.4614 H   0  0  0  0  0  0  0  0  0  0  0  0
  140.6696   79.6967  217.8561 H   0  0  0  0  0  0  0  0  0  0  0  0
  142.5560   81.6020  217.4010 H   0  0  0  0  0  0  0  0  0  0  0  0
  143.0240   80.3630  216.3560 H   0  0  0  0  0  0  0  0  0  0  0  0
  142.7003   79.2858  219.7039 H   0  0  0  0  0  0  0  0  0  0  0  0
  142.8794   81.0232  219.0349 H   0  0  0  0  0  0  0  0  0  0  0  0
  140.2682   80.3445  219.7776 H   0  0  0  0  0  0  0  0  0  0  0  0
  141.1533   82.4566  221.3325 H   0  0  0  0  0  0  0  0  0  0  0  0
  142.0462   82.5918  219.7797 H   0  0  0  0  0  0  0  0  0  0  0  0
  140.2518   82.5104  219.7797 H   0  0  0  0  0  0  0  0  0  0  0  0
  140.4929   78.2360  221.0839 H   0  0  0  0  0  0  0  0  0  0  0  0
  140.8136   77.2387  223.3370 H   0  0  0  0  0  0  0  0  0  0  0  0
  141.9757   78.5772  225.1022 H   0  0  0  0  0  0  0  0  0  0  0  0
  142.7886   80.8645  224.6076 H   0  0  0  0  0  0  0  0  0  0  0  0
  142.4572   81.8422  222.3410 H   0  0  0  0  0  0  0  0  0  0  0  0
  141.4759   75.7562  216.4431 H   0  0  0  0  0  0  0  0  0  0  0  0
  143.1147   76.0704  217.2595 H   0  0  0  0  0  0  0  0  0  0  0  0
  141.3972   73.9487  217.5321 H   0  0  0  0  0  0  0  0  0  0  0  0
  142.9631   74.4596  218.4362 H   0  0  0  0  0  0  0  0  0  0  0  0
  1  2  1  0
  2  3  1  0
  3  4  2  0
  3  5  1  0
  5  6  1  0
  6  7  2  0
  7  8  1  0
  8  9  2  0
  9 10  1  0
 10 11  2  0
  5 12  1  0
 12 13  1  0
 13 14  1  0
 14 15  1  0
 15 16  1  0
 16 17  2  0
 16 18  1  0
 18 19  1  0
 18 20  1  0
 20 21  1  0
 21 22  1  0
 21 23  1  0
 23 24  2  0
 24 25  1  0
 25 26  2  0
 26 27  1  0
 27 28  2  0
 15 29  1  0
 29 30  1  0
 11  6  1  0
 30 12  1  0
 28 23  1  0
  1 31  1  0
  1 32  1  0
  1 33  1  0
  2 34  1  0
  2 35  1  0
  7 36  1  0
  8 37  1  0
  9 38  1  0
 10 39  1  0
 11 40  1  0
 12 41  1  0
 13 42  1  0
 13 43  1  0
 14 44  1  0
 14 45  1  0
 18 46  1  1
 19 47  1  0
 19 48  1  0
 20 49  1  0
 20 50  1  0
 21 51  1  6
 22 52  1  0
 22 53  1  0
 22 54  1  0
 24 55  1  0
 25 56  1  0
 26 57  1  0
 27 58  1  0
 28 59  1  0
 29 60  1  0
 29 61  1  0
 30 62  1  0
 30 63  1  0
M  END
>  <smiles>  (20) 
CCC(=O)N(c1ccccc1)C1CCN(C(=O)[C@H](N)CC(C)c2ccccc2)CC1

>  <score_type>  (20) 
oracle

>  <origin>  (20) 
autodockgpu

>  <m_score__min__energy>  (20) 
-8.8699999999999992

>  <m_primary>  (20) 
energy

>  <rmsd>  (20) 
6.10321394594866

>  <m_score__min__rmsd>  (20) 
6.10321394594866

>  <meeko>  (20) 
{"free_energy": -6.61, "intermolecular_energy": -9.29, "internal_energy": -2.86, "cluster_size": 6, "cluster_id": 9, "rank_in_cluster": 6}

>  <energy>  (20) 
-7.51

>  <cluster_rmsd>  (20) 
0.74

>  <cluster>  (20) 
5

$$$$

     RDKit          3D

 63 65  0  0  0  0  0  0  0  0999 V2000
  137.5700   68.7700  222.5800 C   0  0  0  0  0  0  0  0  0  0  0  0
  136.6150   69.8450  223.0420 C   0  0  0  0  0  0  0  0  0  0  0  0
  137.2960   71.0340  223.6040 C   0  0  0  0  0  0  0  0  0  0  0  0
  136.5760   71.8720  224.2190 O   0  0  0  0  0  0  0  0  0  0  0  0
  138.7080   71.2070  223.4460 N   0  0  0  0  0  0  0  0  0  0  0  0
  139.5610   70.8790  224.5380 C   0  0  0  0  0  0  0  0  0  0  0  0
  139.5740   69.5660  224.9800 C   0  0  0  0  0  0  0  0  0  0  0  0
  140.3790   69.1880  226.0340 C   0  0  0  0  0  0  0  0  0  0  0  0
  141.1620   70.1800  226.6160 C   0  0  0  0  0  0  0  0  0  0  0  0
  141.1550   71.4820  226.1850 C   0  0  0  0  0  0  0  0  0  0  0  0
  140.3500   71.8610  225.1300 C   0  0  0  0  0  0  0  0  0  0  0  0
  139.2210   71.7210  222.1770 C   0  0  0  0  0  0  0  0  0  0  0  0
  138.8070   73.1430  221.9580 C   0  0  0  0  0  0  0  0  0  0  0  0
  139.5240   73.5880  220.6920 C   0  0  0  0  0  0  0  0  0  0  0  0
  140.9370   73.6570  220.9320 N   0  0  0  0  0  0  0  0  0  0  0  0
  141.7920   74.7540  220.7350 C   0  0  0  0  0  0  0  0  0  0  0  0
  143.0420   74.5640  221.0450 O   0  0  0  0  0  0  0  0  0  0  0  0
  141.5050   76.0980  220.2320 C   0  0  2  0  0  0  0  0  0  0  0  0
  142.5880   77.0420  220.3810 N   0  0  0  0  0  0  0  0  0  0  0  0
  140.2700   76.7590  220.7800 C   0  0  0  0  0  0  0  0  0  0  0  0
  140.0830   76.8190  222.2360 C   0  0  2  0  0  0  0  0  0  0  0  0
  138.7060   76.5360  222.7010 C   0  0  0  0  0  0  0  0  0  0  0  0
  140.5250   78.1610  222.7900 C   0  0  0  0  0  0  0  0  0  0  0  0
  139.6450   79.2480  222.7410 C   0  0  0  0  0  0  0  0  0  0  0  0
  140.0040   80.4940  223.2280 C   0  0  0  0  0  0  0  0  0  0  0  0
  141.2750   80.6490  223.7780 C   0  0  0  0  0  0  0  0  0  0  0  0
  142.1570   79.5860  223.8340 C   0  0  0  0  0  0  0  0  0  0  0  0
  141.7730   78.3410  223.3370 C   0  0  0  0  0  0  0  0  0  0  0  0
  141.5480   72.4290  221.4350 C   0  0  0  0  0  0  0  0  0  0  0  0
  140.6770   71.4760  222.1180 C   0  0  0  0  0  0  0  0  0  0  0  0
  138.0125   68.2718  223.4552 H   0  0  0  0  0  0  0  0  0  0  0  0
  137.0251   68.0311  221.9742 H   0  0  0  0  0  0  0  0  0  0  0  0
  138.3680   69.2241  221.9742 H   0  0  0  0  0  0  0  0  0  0  0  0
  136.0075   70.1647  222.1825 H   0  0  0  0  0  0  0  0  0  0  0  0
  136.0019   69.4115  223.8458 H   0  0  0  0  0  0  0  0  0  0  0  0
  138.9364   68.8182  224.4857 H   0  0  0  0  0  0  0  0  0  0  0  0
  140.4010   68.1501  226.3978 H   0  0  0  0  0  0  0  0  0  0  0  0
  141.8150   69.9082  227.4584 H   0  0  0  0  0  0  0  0  0  0  0  0
  141.7935   72.2271  226.6821 H   0  0  0  0  0  0  0  0  0  0  0  0
  140.3326   72.9004  224.7704 H   0  0  0  0  0  0  0  0  0  0  0  0
  138.7751   71.1823  221.3279 H   0  0  0  0  0  0  0  0  0  0  0  0
  137.7170   73.2094  221.8254 H   0  0  0  0  0  0  0  0  0  0  0  0
  139.0661   73.7791  222.8172 H   0  0  0  0  0  0  0  0  0  0  0  0
  139.3253   72.8655  219.8867 H   0  0  0  0  0  0  0  0  0  0  0  0
  139.1569   74.5821  220.3972 H   0  0  0  0  0  0  0  0  0  0  0  0
  141.3413   75.8690  219.1686 H   0  0  0  0  0  0  0  0  0  0  0  0
  142.4810   77.6480  221.2220 H   0  0  0  0  0  0  0  0  0  0  0  0
  143.5040   76.5710  220.4210 H   0  0  0  0  0  0  0  0  0  0  0  0
  140.2681   77.7954  220.4114 H   0  0  0  0  0  0  0  0  0  0  0  0
  139.4489   76.1140  220.4340 H   0  0  0  0  0  0  0  0  0  0  0  0
  140.7182   76.0088  222.6234 H   0  0  0  0  0  0  0  0  0  0  0  0
  138.6840   76.5315  223.8008 H   0  0  0  0  0  0  0  0  0  0  0  0
  138.0247   77.3129  222.3238 H   0  0  0  0  0  0  0  0  0  0  0  0
  138.3863   75.5534  222.3238 H   0  0  0  0  0  0  0  0  0  0  0  0
  138.6445   79.1096  222.3054 H   0  0  0  0  0  0  0  0  0  0  0  0
  139.3030   81.3404  223.1817 H   0  0  0  0  0  0  0  0  0  0  0  0
  141.5802   81.6294  224.1725 H   0  0  0  0  0  0  0  0  0  0  0  0
  143.1581   79.7218  224.2690 H   0  0  0  0  0  0  0  0  0  0  0  0
  142.4751   77.4955  223.3831 H   0  0  0  0  0  0  0  0  0  0  0  0
  141.9977   71.9085  220.5766 H   0  0  0  0  0  0  0  0  0  0  0  0
  142.2583   72.7633  222.2055 H   0  0  0  0  0  0  0  0  0  0  0  0
  140.8163   70.5047  221.6208 H   0  0  0  0  0  0  0  0  0  0  0  0
  140.9906   71.5533  223.1695 H   0  0  0  0  0  0  0  0  0  0  0  0
  1  2  1  0
  2  3  1  0
  3  4  2  0
  3  5  1  0
  5  6  1  0
  6  7  2  0
  7  8  1  0
  8  9  2  0
  9 10  1  0
 10 11  2  0
  5 12  1  0
 12 13  1  0
 13 14  1  0
 14 15  1  0
 15 16  1  0
 16 17  2  0
 16 18  1  0
 18 19  1  0
 18 20  1  0
 20 21  1  0
 21 22  1  0
 21 23  1  0
 23 24  2  0
 24 25  1  0
 25 26  2  0
 26 27  1  0
 27 28  2  0
 15 29  1  0
 29 30  1  0
 11  6  1  0
 30 12  1  0
 28 23  1  0
  1 31  1  0
  1 32  1  0
  1 33  1  0
  2 34  1  0
  2 35  1  0
  7 36  1  0
  8 37  1  0
  9 38  1  0
 10 39  1  0
 11 40  1  0
 12 41  1  0
 13 42  1  0
 13 43  1  0
 14 44  1  0
 14 45  1  0
 18 46  1  6
 19 47  1  0
 19 48  1  0
 20 49  1  0
 20 50  1  0
 21 51  1  1
 22 52  1  0
 22 53  1  0
 22 54  1  0
 24 55  1  0
 25 56  1  0
 26 57  1  0
 27 58  1  0
 28 59  1  0
 29 60  1  0
 29 61  1  0
 30 62  1  0
 30 63  1  0
M  END
>  <smiles>  (21) 
CCC(=O)N(c1ccccc1)C1CCN(C(=O)[C@H](N)CC(C)c2ccccc2)CC1

>  <score_type>  (21) 
oracle

>  <origin>  (21) 
autodockgpu

>  <m_score__min__energy>  (21) 
-8.8699999999999992

>  <m_primary>  (21) 
energy

>  <rmsd>  (21) 
6.421100427171947

>  <m_score__min__rmsd>  (21) 
6.421100427171947

>  <meeko>  (21) 
{"free_energy": -6.9, "intermolecular_energy": -9.59, "internal_energy": -2.76, "cluster_size": 10, "cluster_id": 5, "rank_in_cluster": 10}

>  <energy>  (21) 
-7.29

>  <cluster_rmsd>  (21) 
0.96

>  <cluster>  (21) 
5

$$$$

     RDKit          3D

 63 65  0  0  0  0  0  0  0  0999 V2000
  146.6680   73.3910  221.6850 C   0  0  0  0  0  0  0  0  0  0  0  0
  145.3520   72.8440  221.1840 C   0  0  0  0  0  0  0  0  0  0  0  0
  145.3990   72.4040  219.7700 C   0  0  0  0  0  0  0  0  0  0  0  0
  146.2420   72.9720  219.0190 O   0  0  0  0  0  0  0  0  0  0  0  0
  144.5190   71.3790  219.2970 N   0  0  0  0  0  0  0  0  0  0  0  0
  145.0820   70.1460  218.8620 C   0  0  0  0  0  0  0  0  0  0  0  0
  145.7610   70.1310  217.6550 C   0  0  0  0  0  0  0  0  0  0  0  0
  146.3270   68.9650  217.1830 C   0  0  0  0  0  0  0  0  0  0  0  0
  146.1800   67.8290  217.9710 C   0  0  0  0  0  0  0  0  0  0  0  0
  145.5090   67.8340  219.1670 C   0  0  0  0  0  0  0  0  0  0  0  0
  144.9420   69.0000  219.6410 C   0  0  0  0  0  0  0  0  0  0  0  0
  143.0810   71.6380  219.2690 C   0  0  0  0  0  0  0  0  0  0  0  0
  142.3390   70.6810  220.1500 C   0  0  0  0  0  0  0  0  0  0  0  0
  140.8920   71.1540  220.1430 C   0  0  0  0  0  0  0  0  0  0  0  0
  140.7900   72.4160  220.8170 N   0  0  0  0  0  0  0  0  0  0  0  0
  139.9600   72.7510  221.8990 C   0  0  0  0  0  0  0  0  0  0  0  0
  140.0670   73.9710  222.3420 O   0  0  0  0  0  0  0  0  0  0  0  0
  138.9800   71.9420  222.6240 C   0  0  2  0  0  0  0  0  0  0  0  0
  137.6640   72.5310  222.7210 N   0  0  0  0  0  0  0  0  0  0  0  0
  139.3720   71.5150  224.0120 C   0  0  0  0  0  0  0  0  0  0  0  0
  139.9330   70.1710  224.2110 C   0  0  2  0  0  0  0  0  0  0  0  0
  139.0630   69.0590  223.7650 C   0  0  0  0  0  0  0  0  0  0  0  0
  140.3170   69.9480  225.6610 C   0  0  0  0  0  0  0  0  0  0  0  0
  140.6910   71.0420  226.4500 C   0  0  0  0  0  0  0  0  0  0  0  0
  141.0550   70.8880  227.7770 C   0  0  0  0  0  0  0  0  0  0  0  0
  141.0420   69.6060  228.3240 C   0  0  0  0  0  0  0  0  0  0  0  0
  140.6760   68.5140  227.5590 C   0  0  0  0  0  0  0  0  0  0  0  0
  140.3140   68.6940  226.2250 C   0  0  0  0  0  0  0  0  0  0  0  0
  141.6540   73.4750  220.2990 C   0  0  0  0  0  0  0  0  0  0  0  0
  142.8480   73.0670  219.5620 C   0  0  0  0  0  0  0  0  0  0  0  0
  146.6698   73.3918  222.7850 H   0  0  0  0  0  0  0  0  0  0  0  0
  147.4909   72.7604  221.3174 H   0  0  0  0  0  0  0  0  0  0  0  0
  146.8015   74.4191  221.3174 H   0  0  0  0  0  0  0  0  0  0  0  0
  145.0718   71.9827  221.8083 H   0  0  0  0  0  0  0  0  0  0  0  0
  144.6160   73.6591  221.2467 H   0  0  0  0  0  0  0  0  0  0  0  0
  145.8497   71.0569  217.0677 H   0  0  0  0  0  0  0  0  0  0  0  0
  146.8699   68.9353  216.2268 H   0  0  0  0  0  0  0  0  0  0  0  0
  146.6213   66.8847  217.6196 H   0  0  0  0  0  0  0  0  0  0  0  0
  145.4223   66.9057  219.7507 H   0  0  0  0  0  0  0  0  0  0  0  0
  144.4000   69.0231  220.5979 H   0  0  0  0  0  0  0  0  0  0  0  0
  142.6694   71.4500  218.2664 H   0  0  0  0  0  0  0  0  0  0  0  0
  142.4104   69.6582  219.7514 H   0  0  0  0  0  0  0  0  0  0  0  0
  142.7548   70.6597  221.1681 H   0  0  0  0  0  0  0  0  0  0  0  0
  140.5496   71.2663  219.1037 H   0  0  0  0  0  0  0  0  0  0  0  0
  140.2654   70.4136  220.6618 H   0  0  0  0  0  0  0  0  0  0  0  0
  138.9541   71.0540  221.9753 H   0  0  0  0  0  0  0  0  0  0  0  0
  137.6940   73.5520  222.9250 H   0  0  0  0  0  0  0  0  0  0  0  0
  137.1110   72.3750  221.8660 H   0  0  0  0  0  0  0  0  0  0  0  0
  140.1228   72.2344  224.3709 H   0  0  0  0  0  0  0  0  0  0  0  0
  138.4182   71.4871  224.5593 H   0  0  0  0  0  0  0  0  0  0  0  0
  140.8231   70.1508  223.5651 H   0  0  0  0  0  0  0  0  0  0  0  0
  138.6551   68.5376  224.6435 H   0  0  0  0  0  0  0  0  0  0  0  0
  138.2364   69.4601  223.1601 H   0  0  0  0  0  0  0  0  0  0  0  0
  139.6512   68.3532  223.1601 H   0  0  0  0  0  0  0  0  0  0  0  0
  140.6958   72.0481  226.0052 H   0  0  0  0  0  0  0  0  0  0  0  0
  141.3475   71.7567  228.3851 H   0  0  0  0  0  0  0  0  0  0  0  0
  141.3263   69.4614  229.3767 H   0  0  0  0  0  0  0  0  0  0  0  0
  140.6705   67.5069  228.0015 H   0  0  0  0  0  0  0  0  0  0  0  0
  140.0231   67.8243  225.6175 H   0  0  0  0  0  0  0  0  0  0  0  0
  141.0464   74.0968  219.6250 H   0  0  0  0  0  0  0  0  0  0  0  0
  142.0366   73.9891  221.1930 H   0  0  0  0  0  0  0  0  0  0  0  0
  142.8181   73.5891  218.5943 H   0  0  0  0  0  0  0  0  0  0  0  0
  143.6690   73.3223  220.2481 H   0  0  0  0  0  0  0  0  0  0  0  0
  1  2  1  0
  2  3  1  0
  3  4  2  0
  3  5  1  0
  5  6  1  0
  6  7  2  0
  7  8  1  0
  8  9  2  0
  9 10  1  0
 10 11  2  0
  5 12  1  0
 12 13  1  0
 13 14  1  0
 14 15  1  0
 15 16  1  0
 16 17  2  0
 16 18  1  0
 18 19  1  0
 18 20  1  0
 20 21  1  0
 21 22  1  0
 21 23  1  0
 23 24  2  0
 24 25  1  0
 25 26  2  0
 26 27  1  0
 27 28  2  0
 15 29  1  0
 29 30  1  0
 11  6  1  0
 30 12  1  0
 28 23  1  0
  1 31  1  0
  1 32  1  0
  1 33  1  0
  2 34  1  0
  2 35  1  0
  7 36  1  0
  8 37  1  0
  9 38  1  0
 10 39  1  0
 11 40  1  0
 12 41  1  0
 13 42  1  0
 13 43  1  0
 14 44  1  0
 14 45  1  0
 18 46  1  6
 19 47  1  0
 19 48  1  0
 20 49  1  0
 20 50  1  0
 21 51  1  6
 22 52  1  0
 22 53  1  0
 22 54  1  0
 24 55  1  0
 25 56  1  0
 26 57  1  0
 27 58  1  0
 28 59  1  0
 29 60  1  0
 29 61  1  0
 30 62  1  0
 30 63  1  0
M  END
>  <smiles>  (22) 
CCC(=O)N(c1ccccc1)C1CCN(C(=O)[C@H](N)CC(C)c2ccccc2)CC1

>  <score_type>  (22) 
oracle

>  <origin>  (22) 
autodockgpu

>  <m_score__min__energy>  (22) 
-8.8699999999999992

>  <m_primary>  (22) 
energy

>  <rmsd>  (22) 
8.415378972990503

>  <m_score__min__rmsd>  (22) 
8.415378972990503

>  <meeko>  (22) 
{"free_energy": -8.57, "intermolecular_energy": -11.26, "internal_energy": -1.91, "cluster_size": 10, "cluster_id": 1, "rank_in_cluster": 2}

>  <energy>  (22) 
-7.28

>  <cluster_rmsd>  (22) 
0.95

>  <cluster>  (22) 
5

$$$$

     RDKit          3D

 63 65  0  0  0  0  0  0  0  0999 V2000
  142.7610   77.6140  217.1690 C   0  0  0  0  0  0  0  0  0  0  0  0
  142.9680   77.2120  218.6100 C   0  0  0  0  0  0  0  0  0  0  0  0
  142.1310   77.9800  219.5610 C   0  0  0  0  0  0  0  0  0  0  0  0
  142.1640   79.2400  219.4670 O   0  0  0  0  0  0  0  0  0  0  0  0
  141.3280   77.3050  220.5350 N   0  0  0  0  0  0  0  0  0  0  0  0
  140.9170   78.0230  221.6930 C   0  0  0  0  0  0  0  0  0  0  0  0
  139.5650   78.0500  221.9940 C   0  0  0  0  0  0  0  0  0  0  0  0
  139.1060   78.7300  223.1030 C   0  0  0  0  0  0  0  0  0  0  0  0
  140.0580   79.3730  223.8860 C   0  0  0  0  0  0  0  0  0  0  0  0
  141.3980   79.3510  223.5970 C   0  0  0  0  0  0  0  0  0  0  0  0
  141.8590   78.6710  222.4870 C   0  0  0  0  0  0  0  0  0  0  0  0
  140.9680   75.9060  220.3100 C   0  0  0  0  0  0  0  0  0  0  0  0
  141.2510   75.0700  221.5180 C   0  0  0  0  0  0  0  0  0  0  0  0
  140.6980   73.6880  221.2000 C   0  0  0  0  0  0  0  0  0  0  0  0
  139.2660   73.7430  221.1280 N   0  0  0  0  0  0  0  0  0  0  0  0
  138.3360   72.9720  221.8450 C   0  0  0  0  0  0  0  0  0  0  0  0
  137.0820   73.2260  221.6070 O   0  0  0  0  0  0  0  0  0  0  0  0
  138.5490   71.9140  222.8330 C   0  0  2  0  0  0  0  0  0  0  0  0
  137.5760   71.8820  223.9010 N   0  0  0  0  0  0  0  0  0  0  0  0
  139.9070   71.8740  223.4780 C   0  0  0  0  0  0  0  0  0  0  0  0
  140.3210   70.6560  224.1890 C   0  0  2  0  0  0  0  0  0  0  0  0
  139.4080   69.5010  224.0310 C   0  0  0  0  0  0  0  0  0  0  0  0
  140.5220   70.9280  225.6680 C   0  0  0  0  0  0  0  0  0  0  0  0
  139.9150   70.0890  226.6090 C   0  0  0  0  0  0  0  0  0  0  0  0
  140.0650   70.2990  227.9700 C   0  0  0  0  0  0  0  0  0  0  0  0
  140.8430   71.3750  228.3940 C   0  0  0  0  0  0  0  0  0  0  0  0
  141.4490   72.2140  227.4770 C   0  0  0  0  0  0  0  0  0  0  0  0
  141.2840   71.9830  226.1120 C   0  0  0  0  0  0  0  0  0  0  0  0
  138.7230   74.7180  220.1850 C   0  0  0  0  0  0  0  0  0  0  0  0
  139.5760   75.8460  219.8190 C   0  0  0  0  0  0  0  0  0  0  0  0
  142.2577   78.5913  217.1297 H   0  0  0  0  0  0  0  0  0  0  0  0
  143.7357   77.6829  216.6639 H   0  0  0  0  0  0  0  0  0  0  0  0
  142.1387   76.8606  216.6639 H   0  0  0  0  0  0  0  0  0  0  0  0
  142.7228   76.1446  218.7129 H   0  0  0  0  0  0  0  0  0  0  0  0
  144.0186   77.4230  218.8583 H   0  0  0  0  0  0  0  0  0  0  0  0
  138.8510   77.5245  221.3428 H   0  0  0  0  0  0  0  0  0  0  0  0
  138.0360   78.7620  223.3561 H   0  0  0  0  0  0  0  0  0  0  0  0
  139.7212   79.9237  224.7767 H   0  0  0  0  0  0  0  0  0  0  0  0
  142.1085   79.8769  224.2517 H   0  0  0  0  0  0  0  0  0  0  0  0
  142.9304   78.6425  222.2395 H   0  0  0  0  0  0  0  0  0  0  0  0
  141.5992   75.4608  219.5268 H   0  0  0  0  0  0  0  0  0  0  0  0
  142.3341   75.0167  221.7026 H   0  0  0  0  0  0  0  0  0  0  0  0
  140.7903   75.4938  222.4225 H   0  0  0  0  0  0  0  0  0  0  0  0
  141.0995   73.3472  220.2343 H   0  0  0  0  0  0  0  0  0  0  0  0
  140.9954   72.9862  221.9931 H   0  0  0  0  0  0  0  0  0  0  0  0
  138.4388   71.0303  222.1873 H   0  0  0  0  0  0  0  0  0  0  0  0
  138.0150   71.8950  224.8460 H   0  0  0  0  0  0  0  0  0  0  0  0
  136.9060   72.6620  223.8320 H   0  0  0  0  0  0  0  0  0  0  0  0
  140.6469   72.0511  222.6835 H   0  0  0  0  0  0  0  0  0  0  0  0
  139.8461   72.6348  224.2701 H   0  0  0  0  0  0  0  0  0  0  0  0
  141.2710   70.3732  223.7121 H   0  0  0  0  0  0  0  0  0  0  0  0
  139.1133   69.1282  225.0231 H   0  0  0  0  0  0  0  0  0  0  0  0
  138.5116   69.8154  223.4763 H   0  0  0  0  0  0  0  0  0  0  0  0
  139.9208   68.7014  223.4763 H   0  0  0  0  0  0  0  0  0  0  0  0
  139.3046   69.2431  226.2599 H   0  0  0  0  0  0  0  0  0  0  0  0
  139.5814   69.6322  228.6991 H   0  0  0  0  0  0  0  0  0  0  0  0
  140.9764   71.5588  229.4703 H   0  0  0  0  0  0  0  0  0  0  0  0
  142.0594   73.0610  227.8234 H   0  0  0  0  0  0  0  0  0  0  0  0
  141.7677   72.6506  225.3838 H   0  0  0  0  0  0  0  0  0  0  0  0
  138.4741   74.1785  219.2593 H   0  0  0  0  0  0  0  0  0  0  0  0
  137.8679   75.1701  220.7088 H   0  0  0  0  0  0  0  0  0  0  0  0
  139.6252   75.8642  218.7203 H   0  0  0  0  0  0  0  0  0  0  0  0
  139.0941   76.7007  220.3162 H   0  0  0  0  0  0  0  0  0  0  0  0
  1  2  1  0
  2  3  1  0
  3  4  2  0
  3  5  1  0
  5  6  1  0
  6  7  2  0
  7  8  1  0
  8  9  2  0
  9 10  1  0
 10 11  2  0
  5 12  1  0
 12 13  1  0
 13 14  1  0
 14 15  1  0
 15 16  1  0
 16 17  2  0
 16 18  1  0
 18 19  1  0
 18 20  1  0
 20 21  1  0
 21 22  1  0
 21 23  1  0
 23 24  2  0
 24 25  1  0
 25 26  2  0
 26 27  1  0
 27 28  2  0
 15 29  1  0
 29 30  1  0
 11  6  1  0
 30 12  1  0
 28 23  1  0
  1 31  1  0
  1 32  1  0
  1 33  1  0
  2 34  1  0
  2 35  1  0
  7 36  1  0
  8 37  1  0
  9 38  1  0
 10 39  1  0
 11 40  1  0
 12 41  1  0
 13 42  1  0
 13 43  1  0
 14 44  1  0
 14 45  1  0
 18 46  1  6
 19 47  1  0
 19 48  1  0
 20 49  1  0
 20 50  1  0
 21 51  1  6
 22 52  1  0
 22 53  1  0
 22 54  1  0
 24 55  1  0
 25 56  1  0
 26 57  1  0
 27 58  1  0
 28 59  1  0
 29 60  1  0
 29 61  1  0
 30 62  1  0
 30 63  1  0
M  END
>  <smiles>  (23) 
CCC(=O)N(c1ccccc1)C1CCN(C(=O)[C@H](N)CC(C)c2ccccc2)CC1

>  <score_type>  (23) 
oracle

>  <origin>  (23) 
autodockgpu

>  <m_score__min__energy>  (23) 
-8.8699999999999992

>  <m_primary>  (23) 
energy

>  <rmsd>  (23) 
7.108510844418646

>  <m_score__min__rmsd>  (23) 
7.108510844418646

>  <meeko>  (23) 
{"free_energy": -7.44, "intermolecular_energy": -10.12, "internal_energy": -2.16, "cluster_size": 2, "cluster_id": 7, "rank_in_cluster": 1}

>  <energy>  (23) 
-7.25

>  <cluster_rmsd>  (23) 
1.6

>  <cluster>  (23) 
5

$$$$

     RDKit          3D

 63 65  0  0  0  0  0  0  0  0999 V2000
  140.3230   71.4700  223.2710 C   0  0  0  0  0  0  0  0  0  0  0  0
  141.0640   71.8770  222.0190 C   0  0  0  0  0  0  0  0  0  0  0  0
  140.8890   73.3050  221.6690 C   0  0  0  0  0  0  0  0  0  0  0  0
  140.0430   73.9620  222.3410 O   0  0  0  0  0  0  0  0  0  0  0  0
  141.6540   73.8960  220.6130 N   0  0  0  0  0  0  0  0  0  0  0  0
  143.0200   73.5230  220.4710 C   0  0  0  0  0  0  0  0  0  0  0  0
  143.3000   72.2550  219.9870 C   0  0  0  0  0  0  0  0  0  0  0  0
  144.6050   71.8370  219.8290 C   0  0  0  0  0  0  0  0  0  0  0  0
  145.6030   72.7420  220.1740 C   0  0  0  0  0  0  0  0  0  0  0  0
  145.3350   73.9980  220.6530 C   0  0  0  0  0  0  0  0  0  0  0  0
  144.0300   74.4180  220.8130 C   0  0  0  0  0  0  0  0  0  0  0  0
  141.0090   74.8640  219.7280 C   0  0  0  0  0  0  0  0  0  0  0  0
  141.0760   76.2480  220.2930 C   0  0  0  0  0  0  0  0  0  0  0  0
  140.5080   77.1600  219.2140 C   0  0  0  0  0  0  0  0  0  0  0  0
  141.3940   77.1890  218.0860 N   0  0  0  0  0  0  0  0  0  0  0  0
  141.9770   78.3120  217.4760 C   0  0  0  0  0  0  0  0  0  0  0  0
  142.7630   78.0680  216.4680 O   0  0  0  0  0  0  0  0  0  0  0  0
  141.8450   79.7340  217.7930 C   0  0  2  0  0  0  0  0  0  0  0  0
  142.5580   80.6200  216.9020 N   0  0  0  0  0  0  0  0  0  0  0  0
  142.2120   80.1360  219.1960 C   0  0  0  0  0  0  0  0  0  0  0  0
  141.1480   80.5680  220.1120 C   0  0  2  0  0  0  0  0  0  0  0  0
  140.7950   82.0030  220.0280 C   0  0  0  0  0  0  0  0  0  0  0  0
  141.4930   80.2280  221.5500 C   0  0  0  0  0  0  0  0  0  0  0  0
  141.8940   81.2470  222.4200 C   0  0  0  0  0  0  0  0  0  0  0  0
  142.2240   80.9860  223.7400 C   0  0  0  0  0  0  0  0  0  0  0  0
  142.1480   79.6710  224.1950 C   0  0  0  0  0  0  0  0  0  0  0  0
  141.7530   78.6510  223.3480 C   0  0  0  0  0  0  0  0  0  0  0  0
  141.4260   78.9390  222.0240 C   0  0  0  0  0  0  0  0  0  0  0  0
  141.7150   75.8860  217.5080 C   0  0  0  0  0  0  0  0  0  0  0  0
  141.5710   74.7140  218.3690 C   0  0  0  0  0  0  0  0  0  0  0  0
  140.8965   71.7850  224.1552 H   0  0  0  0  0  0  0  0  0  0  0  0
  139.3341   71.9515  223.2847 H   0  0  0  0  0  0  0  0  0  0  0  0
  140.1989   70.3771  223.2847 H   0  0  0  0  0  0  0  0  0  0  0  0
  142.1363   71.6842  222.1705 H   0  0  0  0  0  0  0  0  0  0  0  0
  140.6479   71.2864  221.1895 H   0  0  0  0  0  0  0  0  0  0  0  0
  142.4746   71.5761  219.7266 H   0  0  0  0  0  0  0  0  0  0  0  0
  144.8453   70.8336  219.4475 H   0  0  0  0  0  0  0  0  0  0  0  0
  146.6533   72.4365  220.0574 H   0  0  0  0  0  0  0  0  0  0  0  0
  146.1635   74.6741  220.9110 H   0  0  0  0  0  0  0  0  0  0  0  0
  143.7967   75.4223  221.1964 H   0  0  0  0  0  0  0  0  0  0  0  0
  139.9304   74.6634  219.6486 H   0  0  0  0  0  0  0  0  0  0  0  0
  140.4733   76.3175  221.2106 H   0  0  0  0  0  0  0  0  0  0  0  0
  142.1053   76.5281  220.5616 H   0  0  0  0  0  0  0  0  0  0  0  0
  139.5250   76.7819  218.8966 H   0  0  0  0  0  0  0  0  0  0  0  0
  140.4010   78.1775  219.6180 H   0  0  0  0  0  0  0  0  0  0  0  0
  140.7593   79.8543  217.6633 H   0  0  0  0  0  0  0  0  0  0  0  0
  143.4740   80.9320  217.2910 H   0  0  0  0  0  0  0  0  0  0  0  0
  142.7160   80.1890  215.9790 H   0  0  0  0  0  0  0  0  0  0  0  0
  142.7065   79.2704  219.6609 H   0  0  0  0  0  0  0  0  0  0  0  0
  142.8274   81.0377  219.0608 H   0  0  0  0  0  0  0  0  0  0  0  0
  140.2619   80.0073  219.7798 H   0  0  0  0  0  0  0  0  0  0  0  0
  140.6935   82.4156  221.0426 H   0  0  0  0  0  0  0  0  0  0  0  0
  141.5867   82.5444  219.4895 H   0  0  0  0  0  0  0  0  0  0  0  0
  139.8424   82.1154  219.4895 H   0  0  0  0  0  0  0  0  0  0  0  0
  141.9487   82.2805  222.0473 H   0  0  0  0  0  0  0  0  0  0  0  0
  142.5385   81.7974  224.4129 H   0  0  0  0  0  0  0  0  0  0  0  0
  142.4050   79.4414  225.2396 H   0  0  0  0  0  0  0  0  0  0  0  0
  141.6972   77.6166  223.7180 H   0  0  0  0  0  0  0  0  0  0  0  0
  141.1113   78.1272  221.3518 H   0  0  0  0  0  0  0  0  0  0  0  0
  141.0570   75.7396  216.6388 H   0  0  0  0  0  0  0  0  0  0  0  0
  142.7899   75.9368  217.2798 H   0  0  0  0  0  0  0  0  0  0  0  0
  140.9241   74.0034  217.8337 H   0  0  0  0  0  0  0  0  0  0  0  0
  142.6104   74.4063  218.5560 H   0  0  0  0  0  0  0  0  0  0  0  0
  1  2  1  0
  2  3  1  0
  3  4  2  0
  3  5  1  0
  5  6  1  0
  6  7  2  0
  7  8  1  0
  8  9  2  0
  9 10  1  0
 10 11  2  0
  5 12  1  0
 12 13  1  0
 13 14  1  0
 14 15  1  0
 15 16  1  0
 16 17  2  0
 16 18  1  0
 18 19  1  0
 18 20  1  0
 20 21  1  0
 21 22  1  0
 21 23  1  0
 23 24  2  0
 24 25  1  0
 25 26  2  0
 26 27  1  0
 27 28  2  0
 15 29  1  0
 29 30  1  0
 11  6  1  0
 30 12  1  0
 28 23  1  0
  1 31  1  0
  1 32  1  0
  1 33  1  0
  2 34  1  0
  2 35  1  0
  7 36  1  0
  8 37  1  0
  9 38  1  0
 10 39  1  0
 11 40  1  0
 12 41  1  0
 13 42  1  0
 13 43  1  0
 14 44  1  0
 14 45  1  0
 18 46  1  1
 19 47  1  0
 19 48  1  0
 20 49  1  0
 20 50  1  0
 21 51  1  6
 22 52  1  0
 22 53  1  0
 22 54  1  0
 24 55  1  0
 25 56  1  0
 26 57  1  0
 27 58  1  0
 28 59  1  0
 29 60  1  0
 29 61  1  0
 30 62  1  0
 30 63  1  0
M  END
>  <smiles>  (24) 
CCC(=O)N(c1ccccc1)C1CCN(C(=O)[C@H](N)CC(C)c2ccccc2)CC1

>  <score_type>  (24) 
oracle

>  <origin>  (24) 
autodockgpu

>  <m_score__min__energy>  (24) 
-8.8699999999999992

>  <m_primary>  (24) 
energy

>  <rmsd>  (24) 
5.973712004992764

>  <m_score__min__rmsd>  (24) 
5.973712004992764

>  <meeko>  (24) 
{"free_energy": -7.11, "intermolecular_energy": -9.8, "internal_energy": -2.73, "cluster_size": 6, "cluster_id": 9, "rank_in_cluster": 3}

>  <energy>  (24) 
-7.19

>  <cluster_rmsd>  (24) 
0.96

>  <cluster>  (24) 
5

$$$$

     RDKit          3D

 63 65  0  0  0  0  0  0  0  0999 V2000
  146.3430   73.7660  221.1630 C   0  0  0  0  0  0  0  0  0  0  0  0
  145.3000   72.6930  220.9540 C   0  0  0  0  0  0  0  0  0  0  0  0
  145.2220   72.2140  219.5540 C   0  0  0  0  0  0  0  0  0  0  0  0
  145.9330   72.8160  218.7000 O   0  0  0  0  0  0  0  0  0  0  0  0
  144.3730   71.1160  219.2060 N   0  0  0  0  0  0  0  0  0  0  0  0
  144.9750   69.8890  218.8090 C   0  0  0  0  0  0  0  0  0  0  0  0
  144.9640   68.8370  219.7110 C   0  0  0  0  0  0  0  0  0  0  0  0
  145.5330   67.6250  219.3830 C   0  0  0  0  0  0  0  0  0  0  0  0
  146.1050   67.5190  218.1200 C   0  0  0  0  0  0  0  0  0  0  0  0
  146.1200   68.5530  217.2200 C   0  0  0  0  0  0  0  0  0  0  0  0
  145.5510   69.7680  217.5480 C   0  0  0  0  0  0  0  0  0  0  0  0
  142.9230   71.2960  219.2650 C   0  0  0  0  0  0  0  0  0  0  0  0
  142.2710   70.2050  220.0560 C   0  0  0  0  0  0  0  0  0  0  0  0
  140.8030   70.5940  220.1590 C   0  0  0  0  0  0  0  0  0  0  0  0
  140.6670   71.7630  220.9790 N   0  0  0  0  0  0  0  0  0  0  0  0
  139.8700   71.9250  222.1250 C   0  0  0  0  0  0  0  0  0  0  0  0
  139.9350   73.0900  222.7030 O   0  0  0  0  0  0  0  0  0  0  0  0
  138.9660   70.9850  222.7870 C   0  0  2  0  0  0  0  0  0  0  0  0
  138.2020   71.5480  223.8760 N   0  0  0  0  0  0  0  0  0  0  0  0
  139.5910   69.7160  223.3010 C   0  0  0  0  0  0  0  0  0  0  0  0
  139.2570   69.2590  224.6570 C   0  0  2  0  0  0  0  0  0  0  0  0
  137.8080   69.1570  224.9430 C   0  0  0  0  0  0  0  0  0  0  0  0
  139.9070   70.1400  225.7070 C   0  0  0  0  0  0  0  0  0  0  0  0
  139.5790   69.9580  227.0550 C   0  0  0  0  0  0  0  0  0  0  0  0
  140.1420   70.7400  228.0500 C   0  0  0  0  0  0  0  0  0  0  0  0
  141.0560   71.7260  227.6820 C   0  0  0  0  0  0  0  0  0  0  0  0
  141.3910   71.9190  226.3540 C   0  0  0  0  0  0  0  0  0  0  0  0
  140.8120   71.1190  225.3700 C   0  0  0  0  0  0  0  0  0  0  0  0
  141.4530   72.9210  220.5570 C   0  0  0  0  0  0  0  0  0  0  0  0
  142.6320   72.6670  219.7320 C   0  0  0  0  0  0  0  0  0  0  0  0
  146.4961   73.9235  222.2408 H   0  0  0  0  0  0  0  0  0  0  0  0
  147.2901   73.4518  220.7002 H   0  0  0  0  0  0  0  0  0  0  0  0
  146.0021   74.7038  220.7002 H   0  0  0  0  0  0  0  0  0  0  0  0
  145.5441   71.8383  221.6020 H   0  0  0  0  0  0  0  0  0  0  0  0
  144.3239   73.1360  221.2009 H   0  0  0  0  0  0  0  0  0  0  0  0
  144.4969   68.9703  220.6979 H   0  0  0  0  0  0  0  0  0  0  0  0
  145.5345   66.7806  220.0879 H   0  0  0  0  0  0  0  0  0  0  0  0
  146.5658   66.5632  217.8302 H   0  0  0  0  0  0  0  0  0  0  0  0
  146.5867   68.4146  216.2336 H   0  0  0  0  0  0  0  0  0  0  0  0
  145.5530   70.6088  216.8388 H   0  0  0  0  0  0  0  0  0  0  0  0
  142.4762   71.2012  218.2643 H   0  0  0  0  0  0  0  0  0  0  0  0
  142.3770   69.2400  219.5387 H   0  0  0  0  0  0  0  0  0  0  0  0
  142.7320   70.0909  221.0482 H   0  0  0  0  0  0  0  0  0  0  0  0
  140.4097   70.8052  219.1537 H   0  0  0  0  0  0  0  0  0  0  0  0
  140.2383   69.7653  220.6111 H   0  0  0  0  0  0  0  0  0  0  0  0
  138.3044   70.7367  221.9440 H   0  0  0  0  0  0  0  0  0  0  0  0
  138.1670   72.5890  223.8480 H   0  0  0  0  0  0  0  0  0  0  0  0
  137.2390   71.1810  223.8980 H   0  0  0  0  0  0  0  0  0  0  0  0
  139.3032   68.9109  222.6089 H   0  0  0  0  0  0  0  0  0  0  0  0
  140.6637   69.9529  223.3578 H   0  0  0  0  0  0  0  0  0  0  0  0
  139.6585   68.2360  224.7036 H   0  0  0  0  0  0  0  0  0  0  0  0
  137.6490   69.1458  226.0314 H   0  0  0  0  0  0  0  0  0  0  0  0
  137.2861   70.0206  224.5050 H   0  0  0  0  0  0  0  0  0  0  0  0
  137.4123   68.2288  224.5050 H   0  0  0  0  0  0  0  0  0  0  0  0
  138.8570   69.1754  227.3311 H   0  0  0  0  0  0  0  0  0  0  0  0
  139.8741   70.5865  229.1058 H   0  0  0  0  0  0  0  0  0  0  0  0
  141.5159   72.3576  228.4563 H   0  0  0  0  0  0  0  0  0  0  0  0
  142.1122   72.7014  226.0751 H   0  0  0  0  0  0  0  0  0  0  0  0
  141.0815   71.2723  224.3146 H   0  0  0  0  0  0  0  0  0  0  0  0
  140.7857   73.5823  219.9848 H   0  0  0  0  0  0  0  0  0  0  0  0
  141.8485   73.3486  221.4901 H   0  0  0  0  0  0  0  0  0  0  0  0
  142.5328   73.2944  218.8340 H   0  0  0  0  0  0  0  0  0  0  0  0
  143.4690   72.8868  220.4110 H   0  0  0  0  0  0  0  0  0  0  0  0
  1  2  1  0
  2  3  1  0
  3  4  2  0
  3  5  1  0
  5  6  1  0
  6  7  2  0
  7  8  1  0
  8  9  2  0
  9 10  1  0
 10 11  2  0
  5 12  1  0
 12 13  1  0
 13 14  1  0
 14 15  1  0
 15 16  1  0
 16 17  2  0
 16 18  1  0
 18 19  1  0
 18 20  1  0
 20 21  1  0
 21 22  1  0
 21 23  1  0
 23 24  2  0
 24 25  1  0
 25 26  2  0
 26 27  1  0
 27 28  2  0
 15 29  1  0
 29 30  1  0
 11  6  1  0
 30 12  1  0
 28 23  1  0
  1 31  1  0
  1 32  1  0
  1 33  1  0
  2 34  1  0
  2 35  1  0
  7 36  1  0
  8 37  1  0
  9 38  1  0
 10 39  1  0
 11 40  1  0
 12 41  1  0
 13 42  1  0
 13 43  1  0
 14 44  1  0
 14 45  1  0
 18 46  1  6
 19 47  1  0
 19 48  1  0
 20 49  1  0
 20 50  1  0
 21 51  1  6
 22 52  1  0
 22 53  1  0
 22 54  1  0
 24 55  1  0
 25 56  1  0
 26 57  1  0
 27 58  1  0
 28 59  1  0
 29 60  1  0
 29 61  1  0
 30 62  1  0
 30 63  1  0
M  END
>  <smiles>  (25) 
CCC(=O)N(c1ccccc1)C1CCN(C(=O)[C@H](N)CC(C)c2ccccc2)CC1

>  <score_type>  (25) 
oracle

>  <origin>  (25) 
autodockgpu

>  <m_score__min__energy>  (25) 
-8.8699999999999992

>  <m_primary>  (25) 
energy

>  <rmsd>  (25) 
9.055831159161668

>  <m_score__min__rmsd>  (25) 
9.055831159161668

>  <meeko>  (25) 
{"free_energy": -8.35, "intermolecular_energy": -11.03, "internal_energy": -1.8, "cluster_size": 10, "cluster_id": 1, "rank_in_cluster": 7}

>  <energy>  (25) 
-6.94

>  <cluster_rmsd>  (25) 
1.69

>  <cluster>  (25) 
5

$$$$

     RDKit          3D

 63 65  0  0  0  0  0  0  0  0999 V2000
  134.8500   76.0320  224.5460 C   0  0  0  0  0  0  0  0  0  0  0  0
  134.2080   77.3630  224.2290 C   0  0  0  0  0  0  0  0  0  0  0  0
  134.6980   77.9650  222.9680 C   0  0  0  0  0  0  0  0  0  0  0  0
  133.8310   78.2550  222.0950 O   0  0  0  0  0  0  0  0  0  0  0  0
  136.0960   78.2000  222.7670 N   0  0  0  0  0  0  0  0  0  0  0  0
  136.7090   79.2870  223.4520 C   0  0  0  0  0  0  0  0  0  0  0  0
  135.8840   80.2180  224.0630 C   0  0  0  0  0  0  0  0  0  0  0  0
  136.4210   81.2930  224.7400 C   0  0  0  0  0  0  0  0  0  0  0  0
  137.8080   81.3870  224.7750 C   0  0  0  0  0  0  0  0  0  0  0  0
  138.6320   80.4710  224.1730 C   0  0  0  0  0  0  0  0  0  0  0  0
  138.0960   79.3940  223.4940 C   0  0  0  0  0  0  0  0  0  0  0  0
  136.8380   77.3230  221.8630 C   0  0  0  0  0  0  0  0  0  0  0  0
  137.7190   78.1100  220.9430 C   0  0  0  0  0  0  0  0  0  0  0  0
  138.5320   77.0790  220.1730 C   0  0  0  0  0  0  0  0  0  0  0  0
  139.4420   76.4150  221.0610 N   0  0  0  0  0  0  0  0  0  0  0  0
  140.8360   76.2970  220.9370 C   0  0  0  0  0  0  0  0  0  0  0  0
  141.4390   75.6520  221.8940 O   0  0  0  0  0  0  0  0  0  0  0  0
  141.7370   76.7880  219.8940 C   0  0  2  0  0  0  0  0  0  0  0  0
  143.1070   76.3500  220.0250 N   0  0  0  0  0  0  0  0  0  0  0  0
  141.7720   78.2800  219.6990 C   0  0  0  0  0  0  0  0  0  0  0  0
  140.7770   79.1100  220.3920 C   0  0  2  0  0  0  0  0  0  0  0  0
  140.2800   80.2680  219.6150 C   0  0  0  0  0  0  0  0  0  0  0  0
  141.3080   79.6010  221.7260 C   0  0  0  0  0  0  0  0  0  0  0  0
  141.3750   78.7150  222.8060 C   0  0  0  0  0  0  0  0  0  0  0  0
  141.8480   79.1170  224.0450 C   0  0  0  0  0  0  0  0  0  0  0  0
  142.2620   80.4390  224.2000 C   0  0  0  0  0  0  0  0  0  0  0  0
  142.2010   81.3280  223.1430 C   0  0  0  0  0  0  0  0  0  0  0  0
  141.7220   80.9000  221.9050 C   0  0  0  0  0  0  0  0  0  0  0  0
  138.8300   75.7840  222.2280 C   0  0  0  0  0  0  0  0  0  0  0  0
  137.5310   76.2920  222.6630 C   0  0  0  0  0  0  0  0  0  0  0  0
  134.9113   75.9050  225.6369 H   0  0  0  0  0  0  0  0  0  0  0  0
  134.2441   75.2209  224.1159 H   0  0  0  0  0  0  0  0  0  0  0  0
  135.8620   76.0013  224.1159 H   0  0  0  0  0  0  0  0  0  0  0  0
  133.1211   77.2152  224.1459 H   0  0  0  0  0  0  0  0  0  0  0  0
  134.4718   78.0537  225.0434 H   0  0  0  0  0  0  0  0  0  0  0  0
  134.7919   80.0986  224.0076 H   0  0  0  0  0  0  0  0  0  0  0  0
  135.7813   82.0418  225.2299 H   0  0  0  0  0  0  0  0  0  0  0  0
  138.2643   82.2335  225.3091 H   0  0  0  0  0  0  0  0  0  0  0  0
  139.7235   80.5942  224.2310 H   0  0  0  0  0  0  0  0  0  0  0  0
  138.7410   78.6491  223.0050 H   0  0  0  0  0  0  0  0  0  0  0  0
  136.1544   76.7911  221.1849 H   0  0  0  0  0  0  0  0  0  0  0  0
  137.1114   78.7134  220.2525 H   0  0  0  0  0  0  0  0  0  0  0  0
  138.3653   78.8073  221.4962 H   0  0  0  0  0  0  0  0  0  0  0  0
  137.8527   76.3384  219.7257 H   0  0  0  0  0  0  0  0  0  0  0  0
  139.1027   77.5852  219.3805 H   0  0  0  0  0  0  0  0  0  0  0  0
  141.2707   76.3264  219.0112 H   0  0  0  0  0  0  0  0  0  0  0  0
  143.7850   77.1420  220.0270 H   0  0  0  0  0  0  0  0  0  0  0  0
  143.2490   75.7850  220.8740 H   0  0  0  0  0  0  0  0  0  0  0  0
  142.7641   78.6251  220.0255 H   0  0  0  0  0  0  0  0  0  0  0  0
  141.5329   78.4137  218.6337 H   0  0  0  0  0  0  0  0  0  0  0  0
  139.9183   78.4382  220.5377 H   0  0  0  0  0  0  0  0  0  0  0  0
  139.9422   81.0550  220.3053 H   0  0  0  0  0  0  0  0  0  0  0  0
  141.0896   80.6589  218.9812 H   0  0  0  0  0  0  0  0  0  0  0  0
  139.4389   79.9505  218.9812 H   0  0  0  0  0  0  0  0  0  0  0  0
  141.0446   77.6748  222.6688 H   0  0  0  0  0  0  0  0  0  0  0  0
  141.8956   78.4097  224.8861 H   0  0  0  0  0  0  0  0  0  0  0  0
  142.6417   80.7789  225.1748 H   0  0  0  0  0  0  0  0  0  0  0  0
  142.5291   82.3692  223.2779 H   0  0  0  0  0  0  0  0  0  0  0  0
  141.6750   81.6079  221.0643 H   0  0  0  0  0  0  0  0  0  0  0  0
  138.7064   74.7153  221.9984 H   0  0  0  0  0  0  0  0  0  0  0  0
  139.5132   76.0090  223.0602 H   0  0  0  0  0  0  0  0  0  0  0  0
  136.8544   75.4267  222.7213 H   0  0  0  0  0  0  0  0  0  0  0  0
  137.7642   76.8139  223.6028 H   0  0  0  0  0  0  0  0  0  0  0  0
  1  2  1  0
  2  3  1  0
  3  4  2  0
  3  5  1  0
  5  6  1  0
  6  7  2  0
  7  8  1  0
  8  9  2  0
  9 10  1  0
 10 11  2  0
  5 12  1  0
 12 13  1  0
 13 14  1  0
 14 15  1  0
 15 16  1  0
 16 17  2  0
 16 18  1  0
 18 19  1  0
 18 20  1  0
 20 21  1  0
 21 22  1  0
 21 23  1  0
 23 24  2  0
 24 25  1  0
 25 26  2  0
 26 27  1  0
 27 28  2  0
 15 29  1  0
 29 30  1  0
 11  6  1  0
 30 12  1  0
 28 23  1  0
  1 31  1  0
  1 32  1  0
  1 33  1  0
  2 34  1  0
  2 35  1  0
  7 36  1  0
  8 37  1  0
  9 38  1  0
 10 39  1  0
 11 40  1  0
 12 41  1  0
 13 42  1  0
 13 43  1  0
 14 44  1  0
 14 45  1  0
 18 46  1  6
 19 47  1  0
 19 48  1  0
 20 49  1  0
 20 50  1  0
 21 51  1  1
 22 52  1  0
 22 53  1  0
 22 54  1  0
 24 55  1  0
 25 56  1  0
 26 57  1  0
 27 58  1  0
 28 59  1  0
 29 60  1  0
 29 61  1  0
 30 62  1  0
 30 63  1  0
M  END
>  <smiles>  (26) 
CCC(=O)N(c1ccccc1)C1CCN(C(=O)[C@H](N)CC(C)c2ccccc2)CC1

>  <score_type>  (26) 
oracle

>  <origin>  (26) 
autodockgpu

>  <m_score__min__energy>  (26) 
-8.8699999999999992

>  <m_primary>  (26) 
energy

>  <rmsd>  (26) 
4.635182295494989

>  <m_score__min__rmsd>  (26) 
4.635182295494989

>  <meeko>  (26) 
{"free_energy": -5.9, "intermolecular_energy": -8.58, "internal_energy": -3.43, "cluster_size": 1, "cluster_id": 12, "rank_in_cluster": 1}

>  <energy>  (26) 
-6.9

>  <cluster_rmsd>  (26) 
1.47

>  <cluster>  (26) 
5

$$$$

     RDKit          3D

 63 65  0  0  0  0  0  0  0  0999 V2000
  146.7130   73.3200  221.9970 C   0  0  0  0  0  0  0  0  0  0  0  0
  145.5640   73.8060  221.1460 C   0  0  0  0  0  0  0  0  0  0  0  0
  145.3810   73.0230  219.9020 C   0  0  0  0  0  0  0  0  0  0  0  0
  146.3280   73.0450  219.0650 O   0  0  0  0  0  0  0  0  0  0  0  0
  144.1780   72.2820  219.6770 N   0  0  0  0  0  0  0  0  0  0  0  0
  144.2600   70.8640  219.5760 C   0  0  0  0  0  0  0  0  0  0  0  0
  143.0930   70.1330  219.7300 C   0  0  0  0  0  0  0  0  0  0  0  0
  143.1110   68.7570  219.6440 C   0  0  0  0  0  0  0  0  0  0  0  0
  144.3410   68.1570  219.3960 C   0  0  0  0  0  0  0  0  0  0  0  0
  145.5000   68.8720  219.2410 C   0  0  0  0  0  0  0  0  0  0  0  0
  145.4840   70.2500  219.3280 C   0  0  0  0  0  0  0  0  0  0  0  0
  142.9130   73.0050  219.5530 C   0  0  0  0  0  0  0  0  0  0  0  0
  142.1200   72.9360  220.8210 C   0  0  0  0  0  0  0  0  0  0  0  0
  140.9170   73.8430  220.6030 C   0  0  0  0  0  0  0  0  0  0  0  0
  141.3470   75.2090  220.5210 N   0  0  0  0  0  0  0  0  0  0  0  0
  140.9060   76.2990  221.2900 C   0  0  0  0  0  0  0  0  0  0  0  0
  141.4680   77.4440  221.0290 O   0  0  0  0  0  0  0  0  0  0  0  0
  139.9030   76.3610  222.3530 C   0  0  2  0  0  0  0  0  0  0  0  0
  139.1800   75.1290  222.5730 N   0  0  0  0  0  0  0  0  0  0  0  0
  138.8780   77.4550  222.2340 C   0  0  0  0  0  0  0  0  0  0  0  0
  138.9540   78.6030  223.1490 C   0  0  2  0  0  0  0  0  0  0  0  0
  137.8320   79.5630  223.0400 C   0  0  0  0  0  0  0  0  0  0  0  0
  140.2630   79.3500  222.9820 C   0  0  0  0  0  0  0  0  0  0  0  0
  141.3240   79.0800  223.8530 C   0  0  0  0  0  0  0  0  0  0  0  0
  142.5370   79.7400  223.7440 C   0  0  0  0  0  0  0  0  0  0  0  0
  142.6860   80.6920  222.7370 C   0  0  0  0  0  0  0  0  0  0  0  0
  141.6480   80.9710  221.8680 C   0  0  0  0  0  0  0  0  0  0  0  0
  140.4360   80.2940  221.9970 C   0  0  0  0  0  0  0  0  0  0  0  0
  142.3620   75.4880  219.5070 C   0  0  0  0  0  0  0  0  0  0  0  0
  143.1920   74.3710  219.0630 C   0  0  0  0  0  0  0  0  0  0  0  0
  146.4537   73.4297  223.0604 H   0  0  0  0  0  0  0  0  0  0  0  0
  146.9112   72.2610  221.7752 H   0  0  0  0  0  0  0  0  0  0  0  0
  147.6110   73.9154  221.7752 H   0  0  0  0  0  0  0  0  0  0  0  0
  144.6394   73.7407  221.7383 H   0  0  0  0  0  0  0  0  0  0  0  0
  145.7949   74.8395  220.8482 H   0  0  0  0  0  0  0  0  0  0  0  0
  142.1440   70.6549  219.9225 H   0  0  0  0  0  0  0  0  0  0  0  0
  142.1945   68.1611  219.7659 H   0  0  0  0  0  0  0  0  0  0  0  0
  144.3856   67.0605  219.3210 H   0  0  0  0  0  0  0  0  0  0  0  0
  146.4464   68.3462  219.0466 H   0  0  0  0  0  0  0  0  0  0  0  0
  146.4042   70.8402  219.2059 H   0  0  0  0  0  0  0  0  0  0  0  0
  142.2611   72.5276  218.8066 H   0  0  0  0  0  0  0  0  0  0  0  0
  141.7924   71.9036  221.0130 H   0  0  0  0  0  0  0  0  0  0  0  0
  142.7152   73.2522  221.6904 H   0  0  0  0  0  0  0  0  0  0  0  0
  140.4127   73.5620  219.6666 H   0  0  0  0  0  0  0  0  0  0  0  0
  140.2204   73.7315  221.4470 H   0  0  0  0  0  0  0  0  0  0  0  0
  140.5547   76.5808  223.2115 H   0  0  0  0  0  0  0  0  0  0  0  0
  139.7480   74.4120  223.0720 H   0  0  0  0  0  0  0  0  0  0  0  0
  138.3060   75.2870  223.0950 H   0  0  0  0  0  0  0  0  0  0  0  0
  138.9478   77.8527  221.2108 H   0  0  0  0  0  0  0  0  0  0  0  0
  137.9326   76.9625  222.5053 H   0  0  0  0  0  0  0  0  0  0  0  0
  138.8871   78.1553  224.1515 H   0  0  0  0  0  0  0  0  0  0  0  0
  137.4961   79.8504  224.0473 H   0  0  0  0  0  0  0  0  0  0  0  0
  138.1671   80.4584  222.4959 H   0  0  0  0  0  0  0  0  0  0  0  0
  136.9993   79.0935  222.4959 H   0  0  0  0  0  0  0  0  0  0  0  0
  141.1919   78.3259  224.6429 H   0  0  0  0  0  0  0  0  0  0  0  0
  143.3630   79.5180  224.4357 H   0  0  0  0  0  0  0  0  0  0  0  0
  143.6411   81.2277  222.6326 H   0  0  0  0  0  0  0  0  0  0  0  0
  141.7777   81.7246  221.0773 H   0  0  0  0  0  0  0  0  0  0  0  0
  139.6108   80.5169  221.3047 H   0  0  0  0  0  0  0  0  0  0  0  0
  141.8440   75.8865  218.6222 H   0  0  0  0  0  0  0  0  0  0  0  0
  143.0621   76.1835  219.9930 H   0  0  0  0  0  0  0  0  0  0  0  0
  143.1183   74.3365  217.9660 H   0  0  0  0  0  0  0  0  0  0  0  0
  144.1773   74.5994  219.4955 H   0  0  0  0  0  0  0  0  0  0  0  0
  1  2  1  0
  2  3  1  0
  3  4  2  0
  3  5  1  0
  5  6  1  0
  6  7  2  0
  7  8  1  0
  8  9  2  0
  9 10  1  0
 10 11  2  0
  5 12  1  0
 12 13  1  0
 13 14  1  0
 14 15  1  0
 15 16  1  0
 16 17  2  0
 16 18  1  0
 18 19  1  0
 18 20  1  0
 20 21  1  0
 21 22  1  0
 21 23  1  0
 23 24  2  0
 24 25  1  0
 25 26  2  0
 26 27  1  0
 27 28  2  0
 15 29  1  0
 29 30  1  0
 11  6  1  0
 30 12  1  0
 28 23  1  0
  1 31  1  0
  1 32  1  0
  1 33  1  0
  2 34  1  0
  2 35  1  0
  7 36  1  0
  8 37  1  0
  9 38  1  0
 10 39  1  0
 11 40  1  0
 12 41  1  0
 13 42  1  0
 13 43  1  0
 14 44  1  0
 14 45  1  0
 18 46  1  1
 19 47  1  0
 19 48  1  0
 20 49  1  0
 20 50  1  0
 21 51  1  1
 22 52  1  0
 22 53  1  0
 22 54  1  0
 24 55  1  0
 25 56  1  0
 26 57  1  0
 27 58  1  0
 28 59  1  0
 29 60  1  0
 29 61  1  0
 30 62  1  0
 30 63  1  0
M  END
>  <smiles>  (27) 
CCC(=O)N(c1ccccc1)C1CCN(C(=O)[C@H](N)CC(C)c2ccccc2)CC1

>  <score_type>  (27) 
oracle

>  <origin>  (27) 
autodockgpu

>  <m_score__min__energy>  (27) 
-8.8699999999999992

>  <m_primary>  (27) 
energy

>  <rmsd>  (27) 
6.516691442125201

>  <m_score__min__rmsd>  (27) 
6.516691442125201

>  <meeko>  (27) 
{"free_energy": -8.26, "intermolecular_energy": -10.94, "internal_energy": -1.8, "cluster_size": 4, "cluster_id": 2, "rank_in_cluster": 1}

>  <energy>  (27) 
-7.57

>  <cluster_rmsd>  (27) 
0.0

>  <cluster>  (27) 
6

$$$$

     RDKit          3D

 63 65  0  0  0  0  0  0  0  0999 V2000
  138.8200   67.2140  222.6290 C   0  0  0  0  0  0  0  0  0  0  0  0
  137.7020   68.2160  222.4620 C   0  0  0  0  0  0  0  0  0  0  0  0
  137.7230   69.2940  223.4780 C   0  0  0  0  0  0  0  0  0  0  0  0
  136.7760   69.3130  224.3150 O   0  0  0  0  0  0  0  0  0  0  0  0
  138.7790   70.2610  223.4930 N   0  0  0  0  0  0  0  0  0  0  0  0
  139.5760   70.3810  224.6660 C   0  0  0  0  0  0  0  0  0  0  0  0
  139.5940   69.3150  225.5510 C   0  0  0  0  0  0  0  0  0  0  0  0
  140.3460   69.3740  226.7050 C   0  0  0  0  0  0  0  0  0  0  0  0
  141.0730   70.5390  226.9250 C   0  0  0  0  0  0  0  0  0  0  0  0
  141.0610   71.5990  226.0550 C   0  0  0  0  0  0  0  0  0  0  0  0
  140.3070   71.5420  224.9000 C   0  0  0  0  0  0  0  0  0  0  0  0
  138.9940   71.0920  222.3100 C   0  0  0  0  0  0  0  0  0  0  0  0
  138.6240   72.5190  222.5730 C   0  0  0  0  0  0  0  0  0  0  0  0
  139.0330   73.2860  221.3230 C   0  0  0  0  0  0  0  0  0  0  0  0
  140.4630   73.3010  221.2090 N   0  0  0  0  0  0  0  0  0  0  0  0
  141.3070   74.4170  221.0900 C   0  0  0  0  0  0  0  0  0  0  0  0
  142.5820   74.1620  221.0160 O   0  0  0  0  0  0  0  0  0  0  0  0
  140.9850   75.8430  221.0360 C   0  0  2  0  0  0  0  0  0  0  0  0
  142.0630   76.6880  220.5750 N   0  0  0  0  0  0  0  0  0  0  0  0
  140.4650   76.4530  222.3090 C   0  0  0  0  0  0  0  0  0  0  0  0
  139.6790   77.6920  222.2340 C   0  0  2  0  0  0  0  0  0  0  0  0
  139.0750   77.9690  220.9110 C   0  0  0  0  0  0  0  0  0  0  0  0
  140.5040   78.8910  222.6610 C   0  0  0  0  0  0  0  0  0  0  0  0
  141.7900   78.6910  223.1760 C   0  0  0  0  0  0  0  0  0  0  0  0
  142.5810   79.7530  223.5840 C   0  0  0  0  0  0  0  0  0  0  0  0
  142.0670   81.0440  223.4720 C   0  0  0  0  0  0  0  0  0  0  0  0
  140.7980   81.2590  222.9660 C   0  0  0  0  0  0  0  0  0  0  0  0
  140.0210   80.1740  222.5610 C   0  0  0  0  0  0  0  0  0  0  0  0
  141.1060   71.9880  221.2120 C   0  0  0  0  0  0  0  0  0  0  0  0
  140.3740   70.8830  221.8260 C   0  0  0  0  0  0  0  0  0  0  0  0
  139.0060   67.0473  223.7003 H   0  0  0  0  0  0  0  0  0  0  0  0
  138.5346   66.2637  222.1542 H   0  0  0  0  0  0  0  0  0  0  0  0
  139.7335   67.6014  222.1542 H   0  0  0  0  0  0  0  0  0  0  0  0
  137.7897   68.6738  221.4657 H   0  0  0  0  0  0  0  0  0  0  0  0
  136.7550   67.6704  222.5862 H   0  0  0  0  0  0  0  0  0  0  0  0
  139.0031   68.4137  225.3309 H   0  0  0  0  0  0  0  0  0  0  0  0
  140.3699   68.5377  227.4192 H   0  0  0  0  0  0  0  0  0  0  0  0
  141.6842   70.6134  227.8365 H   0  0  0  0  0  0  0  0  0  0  0  0
  141.6543   72.4979  226.2783 H   0  0  0  0  0  0  0  0  0  0  0  0
  140.2848   72.3828  224.1911 H   0  0  0  0  0  0  0  0  0  0  0  0
  138.3226   70.7900  221.4926 H   0  0  0  0  0  0  0  0  0  0  0  0
  137.5408   72.6098  222.7418 H   0  0  0  0  0  0  0  0  0  0  0  0
  139.1238   72.9097  223.4716 H   0  0  0  0  0  0  0  0  0  0  0  0
  138.6010   72.7977  220.4370 H   0  0  0  0  0  0  0  0  0  0  0  0
  138.6631   74.3196  221.3934 H   0  0  0  0  0  0  0  0  0  0  0  0
  140.1713   75.8228  220.2960 H   0  0  0  0  0  0  0  0  0  0  0  0
  142.2730   77.4680  221.2340 H   0  0  0  0  0  0  0  0  0  0  0  0
  142.9250   76.1510  220.4060 H   0  0  0  0  0  0  0  0  0  0  0  0
  139.8298   75.6967  222.7932 H   0  0  0  0  0  0  0  0  0  0  0  0
  141.3749   76.7493  222.8514 H   0  0  0  0  0  0  0  0  0  0  0  0
  138.8449   77.5251  222.9315 H   0  0  0  0  0  0  0  0  0  0  0  0
  138.0830   78.4239  221.0488 H   0  0  0  0  0  0  0  0  0  0  0  0
  139.7210   78.6608  220.3506 H   0  0  0  0  0  0  0  0  0  0  0  0
  138.9722   77.0281  220.3506 H   0  0  0  0  0  0  0  0  0  0  0  0
  142.1820   77.6666  223.2588 H   0  0  0  0  0  0  0  0  0  0  0  0
  143.5902   79.5815  223.9866 H   0  0  0  0  0  0  0  0  0  0  0  0
  142.6780   81.9017  223.7898 H   0  0  0  0  0  0  0  0  0  0  0  0
  140.4029   82.2823  222.8833 H   0  0  0  0  0  0  0  0  0  0  0  0
  139.0122   80.3466  222.1578 H   0  0  0  0  0  0  0  0  0  0  0  0
  141.3007   71.7134  220.1648 H   0  0  0  0  0  0  0  0  0  0  0  0
  142.0017   72.1146  221.8378 H   0  0  0  0  0  0  0  0  0  0  0  0
  140.3302   70.0767  221.0791 H   0  0  0  0  0  0  0  0  0  0  0  0
  140.9393   70.6858  222.7488 H   0  0  0  0  0  0  0  0  0  0  0  0
  1  2  1  0
  2  3  1  0
  3  4  2  0
  3  5  1  0
  5  6  1  0
  6  7  2  0
  7  8  1  0
  8  9  2  0
  9 10  1  0
 10 11  2  0
  5 12  1  0
 12 13  1  0
 13 14  1  0
 14 15  1  0
 15 16  1  0
 16 17  2  0
 16 18  1  0
 18 19  1  0
 18 20  1  0
 20 21  1  0
 21 22  1  0
 21 23  1  0
 23 24  2  0
 24 25  1  0
 25 26  2  0
 26 27  1  0
 27 28  2  0
 15 29  1  0
 29 30  1  0
 11  6  1  0
 30 12  1  0
 28 23  1  0
  1 31  1  0
  1 32  1  0
  1 33  1  0
  2 34  1  0
  2 35  1  0
  7 36  1  0
  8 37  1  0
  9 38  1  0
 10 39  1  0
 11 40  1  0
 12 41  1  0
 13 42  1  0
 13 43  1  0
 14 44  1  0
 14 45  1  0
 18 46  1  6
 19 47  1  0
 19 48  1  0
 20 49  1  0
 20 50  1  0
 21 51  1  1
 22 52  1  0
 22 53  1  0
 22 54  1  0
 24 55  1  0
 25 56  1  0
 26 57  1  0
 27 58  1  0
 28 59  1  0
 29 60  1  0
 29 61  1  0
 30 62  1  0
 30 63  1  0
M  END
>  <smiles>  (28) 
CCC(=O)N(c1ccccc1)C1CCN(C(=O)[C@H](N)CC(C)c2ccccc2)CC1

>  <score_type>  (28) 
oracle

>  <origin>  (28) 
autodockgpu

>  <m_score__min__energy>  (28) 
-8.8699999999999992

>  <m_primary>  (28) 
energy

>  <rmsd>  (28) 
6.838483450797253

>  <m_score__min__rmsd>  (28) 
6.838483450797253

>  <meeko>  (28) 
{"free_energy": -7.28, "intermolecular_energy": -9.96, "internal_energy": -2.42, "cluster_size": 10, "cluster_id": 5, "rank_in_cluster": 6}

>  <energy>  (28) 
-7.52

>  <cluster_rmsd>  (28) 
1.83

>  <cluster>  (28) 
6

$$$$

     RDKit          3D

 63 65  0  0  0  0  0  0  0  0999 V2000
  136.1720   69.1530  223.3750 C   0  0  0  0  0  0  0  0  0  0  0  0
  137.3700   68.3960  222.8520 C   0  0  0  0  0  0  0  0  0  0  0  0
  138.5990   68.6160  223.6490 C   0  0  0  0  0  0  0  0  0  0  0  0
  139.0850   67.6130  224.2450 O   0  0  0  0  0  0  0  0  0  0  0  0
  139.1930   69.9160  223.7280 N   0  0  0  0  0  0  0  0  0  0  0  0
  139.8100   70.3100  224.9490 C   0  0  0  0  0  0  0  0  0  0  0  0
  139.2940   69.8040  226.1310 C   0  0  0  0  0  0  0  0  0  0  0  0
  139.8500   70.1500  227.3440 C   0  0  0  0  0  0  0  0  0  0  0  0
  140.9370   71.0170  227.3150 C   0  0  0  0  0  0  0  0  0  0  0  0
  141.4550   71.5220  226.1510 C   0  0  0  0  0  0  0  0  0  0  0  0
  140.8990   71.1770  224.9350 C   0  0  0  0  0  0  0  0  0  0  0  0
  139.1370   70.7930  222.5590 C   0  0  0  0  0  0  0  0  0  0  0  0
  138.9260   72.2200  222.9590 C   0  0  0  0  0  0  0  0  0  0  0  0
  139.0360   73.0260  221.6730 C   0  0  0  0  0  0  0  0  0  0  0  0
  140.3860   72.9850  221.1880 N   0  0  0  0  0  0  0  0  0  0  0  0
  141.2290   74.0680  220.8890 C   0  0  0  0  0  0  0  0  0  0  0  0
  142.4240   73.7620  220.4750 O   0  0  0  0  0  0  0  0  0  0  0  0
  140.9810   75.5080  220.9700 C   0  0  2  0  0  0  0  0  0  0  0  0
  142.1070   76.3360  220.6040 N   0  0  0  0  0  0  0  0  0  0  0  0
  140.4740   76.0190  222.2920 C   0  0  0  0  0  0  0  0  0  0  0  0
  139.7780   77.3120  222.3340 C   0  0  2  0  0  0  0  0  0  0  0  0
  138.9180   77.5960  221.1630 C   0  0  0  0  0  0  0  0  0  0  0  0
  140.7590   78.4550  222.5160 C   0  0  0  0  0  0  0  0  0  0  0  0
  141.0370   79.3000  221.4350 C   0  0  0  0  0  0  0  0  0  0  0  0
  141.9280   80.3540  221.5500 C   0  0  0  0  0  0  0  0  0  0  0  0
  142.5530   80.5640  222.7780 C   0  0  0  0  0  0  0  0  0  0  0  0
  142.2900   79.7380  223.8560 C   0  0  0  0  0  0  0  0  0  0  0  0
  141.3890   78.6840  223.7160 C   0  0  0  0  0  0  0  0  0  0  0  0
  140.9350   71.6470  220.9760 C   0  0  0  0  0  0  0  0  0  0  0  0
  140.3300   70.5470  221.7230 C   0  0  0  0  0  0  0  0  0  0  0  0
  136.1847   69.1449  224.4749 H   0  0  0  0  0  0  0  0  0  0  0  0
  136.2092   70.1919  223.0155 H   0  0  0  0  0  0  0  0  0  0  0  0
  135.2497   68.6734  223.0155 H   0  0  0  0  0  0  0  0  0  0  0  0
  137.1352   67.3214  222.8627 H   0  0  0  0  0  0  0  0  0  0  0  0
  137.5708   68.7678  221.8364 H   0  0  0  0  0  0  0  0  0  0  0  0
  138.4330   69.1201  226.1013 H   0  0  0  0  0  0  0  0  0  0  0  0
  139.4520   69.7582  228.2917 H   0  0  0  0  0  0  0  0  0  0  0  0
  141.4013   71.3103  228.2681 H   0  0  0  0  0  0  0  0  0  0  0  0
  142.3168   72.2047  226.1855 H   0  0  0  0  0  0  0  0  0  0  0  0
  141.3015   71.5724  223.9907 H   0  0  0  0  0  0  0  0  0  0  0  0
  138.2605   70.5603  221.9364 H   0  0  0  0  0  0  0  0  0  0  0  0
  137.9308   72.3494  223.4093 H   0  0  0  0  0  0  0  0  0  0  0  0
  139.6628   72.5460  223.7079 H   0  0  0  0  0  0  0  0  0  0  0  0
  138.3626   72.5987  220.9154 H   0  0  0  0  0  0  0  0  0  0  0  0
  138.7534   74.0701  221.8732 H   0  0  0  0  0  0  0  0  0  0  0  0
  140.1787   75.6016  220.2233 H   0  0  0  0  0  0  0  0  0  0  0  0
  142.2140   77.1670  221.2240 H   0  0  0  0  0  0  0  0  0  0  0  0
  142.9890   75.8030  220.6020 H   0  0  0  0  0  0  0  0  0  0  0  0
  139.7764   75.2641  222.6838 H   0  0  0  0  0  0  0  0  0  0  0  0
  141.3890   76.1917  222.8776 H   0  0  0  0  0  0  0  0  0  0  0  0
  139.1082   77.2313  223.2028 H   0  0  0  0  0  0  0  0  0  0  0  0
  137.9260   77.9236  221.5074 H   0  0  0  0  0  0  0  0  0  0  0  0
  139.3761   78.3906  220.5557 H   0  0  0  0  0  0  0  0  0  0  0  0
  138.8128   76.6849  220.5557 H   0  0  0  0  0  0  0  0  0  0  0  0
  140.5361   79.1227  220.4719 H   0  0  0  0  0  0  0  0  0  0  0  0
  142.1375   81.0101  220.6923 H   0  0  0  0  0  0  0  0  0  0  0  0
  143.2635   81.3961  222.8912 H   0  0  0  0  0  0  0  0  0  0  0  0
  142.7901   79.9124  224.8201 H   0  0  0  0  0  0  0  0  0  0  0  0
  141.1799   78.0288  224.5745 H   0  0  0  0  0  0  0  0  0  0  0  0
  140.8336   71.4143  219.9057 H   0  0  0  0  0  0  0  0  0  0  0  0
  141.9689   71.7046  221.3472 H   0  0  0  0  0  0  0  0  0  0  0  0
  140.0498   69.7790  220.9871 H   0  0  0  0  0  0  0  0  0  0  0  0
  141.1048   70.2825  222.4577 H   0  0  0  0  0  0  0  0  0  0  0  0
  1  2  1  0
  2  3  1  0
  3  4  2  0
  3  5  1  0
  5  6  1  0
  6  7  2  0
  7  8  1  0
  8  9  2  0
  9 10  1  0
 10 11  2  0
  5 12  1  0
 12 13  1  0
 13 14  1  0
 14 15  1  0
 15 16  1  0
 16 17  2  0
 16 18  1  0
 18 19  1  0
 18 20  1  0
 20 21  1  0
 21 22  1  0
 21 23  1  0
 23 24  2  0
 24 25  1  0
 25 26  2  0
 26 27  1  0
 27 28  2  0
 15 29  1  0
 29 30  1  0
 11  6  1  0
 30 12  1  0
 28 23  1  0
  1 31  1  0
  1 32  1  0
  1 33  1  0
  2 34  1  0
  2 35  1  0
  7 36  1  0
  8 37  1  0
  9 38  1  0
 10 39  1  0
 11 40  1  0
 12 41  1  0
 13 42  1  0
 13 43  1  0
 14 44  1  0
 14 45  1  0
 18 46  1  6
 19 47  1  0
 19 48  1  0
 20 49  1  0
 20 50  1  0
 21 51  1  1
 22 52  1  0
 22 53  1  0
 22 54  1  0
 24 55  1  0
 25 56  1  0
 26 57  1  0
 27 58  1  0
 28 59  1  0
 29 60  1  0
 29 61  1  0
 30 62  1  0
 30 63  1  0
M  END
>  <smiles>  (29) 
CCC(=O)N(c1ccccc1)C1CCN(C(=O)[C@H](N)CC(C)c2ccccc2)CC1

>  <score_type>  (29) 
oracle

>  <origin>  (29) 
autodockgpu

>  <m_score__min__energy>  (29) 
-8.8699999999999992

>  <m_primary>  (29) 
energy

>  <rmsd>  (29) 
7.016207885228208

>  <m_score__min__rmsd>  (29) 
7.016207885228208

>  <meeko>  (29) 
{"free_energy": -7.59, "intermolecular_energy": -10.27, "internal_energy": -2.39, "cluster_size": 10, "cluster_id": 5, "rank_in_cluster": 3}

>  <energy>  (29) 
-7.46

>  <cluster_rmsd>  (29) 
1.8

>  <cluster>  (29) 
6

$$$$

     RDKit          3D

 63 65  0  0  0  0  0  0  0  0999 V2000
  140.4620   82.8010  221.2540 C   0  0  0  0  0  0  0  0  0  0  0  0
  139.2110   83.5770  221.5970 C   0  0  0  0  0  0  0  0  0  0  0  0
  137.9620   82.8580  221.2570 C   0  0  0  0  0  0  0  0  0  0  0  0
  137.3330   83.2510  220.2330 O   0  0  0  0  0  0  0  0  0  0  0  0
  137.5050   81.7680  222.0650 N   0  0  0  0  0  0  0  0  0  0  0  0
  137.2660   82.0000  223.4490 C   0  0  0  0  0  0  0  0  0  0  0  0
  137.9090   81.1850  224.3660 C   0  0  0  0  0  0  0  0  0  0  0  0
  137.7160   81.3620  225.7190 C   0  0  0  0  0  0  0  0  0  0  0  0
  136.8550   82.3850  226.1050 C   0  0  0  0  0  0  0  0  0  0  0  0
  136.2140   83.1970  225.2040 C   0  0  0  0  0  0  0  0  0  0  0  0
  136.4070   83.0210  223.8490 C   0  0  0  0  0  0  0  0  0  0  0  0
  137.3100   80.4590  221.4440 C   0  0  0  0  0  0  0  0  0  0  0  0
  138.6190   79.7900  221.1600 C   0  0  0  0  0  0  0  0  0  0  0  0
  138.2670   78.3960  220.6610 C   0  0  0  0  0  0  0  0  0  0  0  0
  137.6950   77.6280  221.7280 N   0  0  0  0  0  0  0  0  0  0  0  0
  138.1160   76.3780  222.2130 C   0  0  0  0  0  0  0  0  0  0  0  0
  137.4300   75.8940  223.2080 O   0  0  0  0  0  0  0  0  0  0  0  0
  139.2160   75.5180  221.7790 C   0  0  2  0  0  0  0  0  0  0  0  0
  139.2010   74.1880  222.3410 N   0  0  0  0  0  0  0  0  0  0  0  0
  140.6030   76.0640  221.9840 C   0  0  0  0  0  0  0  0  0  0  0  0
  141.0340   77.2250  221.1930 C   0  0  2  0  0  0  0  0  0  0  0  0
  142.1460   76.9620  220.2520 C   0  0  0  0  0  0  0  0  0  0  0  0
  141.4110   78.3890  222.0900 C   0  0  0  0  0  0  0  0  0  0  0  0
  142.1900   79.4310  221.5740 C   0  0  0  0  0  0  0  0  0  0  0  0
  142.5640   80.5120  222.3540 C   0  0  0  0  0  0  0  0  0  0  0  0
  142.1440   80.5480  223.6830 C   0  0  0  0  0  0  0  0  0  0  0  0
  141.3740   79.5270  224.2090 C   0  0  0  0  0  0  0  0  0  0  0  0
  141.0100   78.4490  223.4040 C   0  0  0  0  0  0  0  0  0  0  0  0
  136.5290   78.2250  222.3750 C   0  0  0  0  0  0  0  0  0  0  0  0
  136.3720   79.6740  222.2730 C   0  0  0  0  0  0  0  0  0  0  0  0
  140.9654   82.4887  222.1808 H   0  0  0  0  0  0  0  0  0  0  0  0
  140.1920   81.9116  220.6658 H   0  0  0  0  0  0  0  0  0  0  0  0
  141.1389   83.4380  220.6658 H   0  0  0  0  0  0  0  0  0  0  0  0
  139.2127   83.7814  222.6779 H   0  0  0  0  0  0  0  0  0  0  0  0
  139.2273   84.5005  220.9996 H   0  0  0  0  0  0  0  0  0  0  0  0
  138.5800   80.3890  224.0109 H   0  0  0  0  0  0  0  0  0  0  0  0
  138.2195   80.7238  226.4601 H   0  0  0  0  0  0  0  0  0  0  0  0
  136.6810   82.5496  227.1786 H   0  0  0  0  0  0  0  0  0  0  0  0
  135.5435   83.9916  225.5631 H   0  0  0  0  0  0  0  0  0  0  0  0
  135.9015   83.6628  223.1124 H   0  0  0  0  0  0  0  0  0  0  0  0
  136.8455   80.5620  220.4522 H   0  0  0  0  0  0  0  0  0  0  0  0
  139.1744   80.3447  220.3894 H   0  0  0  0  0  0  0  0  0  0  0  0
  139.2591   79.7526  222.0538 H   0  0  0  0  0  0  0  0  0  0  0  0
  137.5412   78.4752  219.8383 H   0  0  0  0  0  0  0  0  0  0  0  0
  139.1798   77.8971  220.3034 H   0  0  0  0  0  0  0  0  0  0  0  0
  139.0071   75.4787  220.6997 H   0  0  0  0  0  0  0  0  0  0  0  0
  139.9390   74.0480  223.0640 H   0  0  0  0  0  0  0  0  0  0  0  0
  138.2840   73.9550  222.7490 H   0  0  0  0  0  0  0  0  0  0  0  0
  140.6849   76.3472  223.0437 H   0  0  0  0  0  0  0  0  0  0  0  0
  141.2605   75.2515  221.6412 H   0  0  0  0  0  0  0  0  0  0  0  0
  140.1559   77.4742  220.5791 H   0  0  0  0  0  0  0  0  0  0  0  0
  143.0630   76.7451  220.8195 H   0  0  0  0  0  0  0  0  0  0  0  0
  141.8939   76.0987  219.6186 H   0  0  0  0  0  0  0  0  0  0  0  0
  142.3074   77.8468  219.6186 H   0  0  0  0  0  0  0  0  0  0  0  0
  142.5129   79.3901  220.5233 H   0  0  0  0  0  0  0  0  0  0  0  0
  143.1778   81.3231  221.9352 H   0  0  0  0  0  0  0  0  0  0  0  0
  142.4284   81.3983  224.3203 H   0  0  0  0  0  0  0  0  0  0  0  0
  141.0498   79.5655  225.2594 H   0  0  0  0  0  0  0  0  0  0  0  0
  140.3961   77.6385  223.8238 H   0  0  0  0  0  0  0  0  0  0  0  0
  135.6338   77.7641  221.9321 H   0  0  0  0  0  0  0  0  0  0  0  0
  136.6735   78.0325  223.4483 H   0  0  0  0  0  0  0  0  0  0  0  0
  135.3638   79.8575  221.8732 H   0  0  0  0  0  0  0  0  0  0  0  0
  136.5803   80.0250  223.2945 H   0  0  0  0  0  0  0  0  0  0  0  0
  1  2  1  0
  2  3  1  0
  3  4  2  0
  3  5  1  0
  5  6  1  0
  6  7  2  0
  7  8  1  0
  8  9  2  0
  9 10  1  0
 10 11  2  0
  5 12  1  0
 12 13  1  0
 13 14  1  0
 14 15  1  0
 15 16  1  0
 16 17  2  0
 16 18  1  0
 18 19  1  0
 18 20  1  0
 20 21  1  0
 21 22  1  0
 21 23  1  0
 23 24  2  0
 24 25  1  0
 25 26  2  0
 26 27  1  0
 27 28  2  0
 15 29  1  0
 29 30  1  0
 11  6  1  0
 30 12  1  0
 28 23  1  0
  1 31  1  0
  1 32  1  0
  1 33  1  0
  2 34  1  0
  2 35  1  0
  7 36  1  0
  8 37  1  0
  9 38  1  0
 10 39  1  0
 11 40  1  0
 12 41  1  0
 13 42  1  0
 13 43  1  0
 14 44  1  0
 14 45  1  0
 18 46  1  6
 19 47  1  0
 19 48  1  0
 20 49  1  0
 20 50  1  0
 21 51  1  6
 22 52  1  0
 22 53  1  0
 22 54  1  0
 24 55  1  0
 25 56  1  0
 26 57  1  0
 27 58  1  0
 28 59  1  0
 29 60  1  0
 29 61  1  0
 30 62  1  0
 30 63  1  0
M  END
>  <smiles>  (30) 
CCC(=O)N(c1ccccc1)C1CCN(C(=O)[C@H](N)CC(C)c2ccccc2)CC1

>  <score_type>  (30) 
oracle

>  <origin>  (30) 
autodockgpu

>  <m_score__min__energy>  (30) 
-8.8699999999999992

>  <m_primary>  (30) 
energy

>  <rmsd>  (30) 
4.084571442830141

>  <m_score__min__rmsd>  (30) 
4.084571442830141

>  <meeko>  (30) 
{"free_energy": -5.95, "intermolecular_energy": -8.64, "internal_energy": -3.61, "cluster_size": 7, "cluster_id": 11, "rank_in_cluster": 4}

>  <energy>  (30) 
-7.32

>  <cluster_rmsd>  (30) 
1.89

>  <cluster>  (30) 
6

$$$$

     RDKit          3D

 63 65  0  0  0  0  0  0  0  0999 V2000
  146.6960   73.2780  222.0680 C   0  0  0  0  0  0  0  0  0  0  0  0
  145.8240   73.9700  221.0470 C   0  0  0  0  0  0  0  0  0  0  0  0
  145.6810   73.2080  219.7840 C   0  0  0  0  0  0  0  0  0  0  0  0
  146.5700   73.3830  218.9030 O   0  0  0  0  0  0  0  0  0  0  0  0
  144.5750   72.3200  219.5910 N   0  0  0  0  0  0  0  0  0  0  0  0
  144.8310   70.9220  219.5130 C   0  0  0  0  0  0  0  0  0  0  0  0
  143.8820   70.0570  220.0350 C   0  0  0  0  0  0  0  0  0  0  0  0
  144.0760   68.6930  219.9890 C   0  0  0  0  0  0  0  0  0  0  0  0
  145.2520   68.2420  219.4000 C   0  0  0  0  0  0  0  0  0  0  0  0
  146.1960   69.0900  218.8790 C   0  0  0  0  0  0  0  0  0  0  0  0
  146.0040   70.4570  218.9250 C   0  0  0  0  0  0  0  0  0  0  0  0
  143.2290   72.8790  219.4740 C   0  0  0  0  0  0  0  0  0  0  0  0
  142.5040   72.8300  220.7820 C   0  0  0  0  0  0  0  0  0  0  0  0
  141.1930   73.5690  220.5530 C   0  0  0  0  0  0  0  0  0  0  0  0
  141.4530   74.9640  220.3380 N   0  0  0  0  0  0  0  0  0  0  0  0
  140.9180   76.0590  221.0360 C   0  0  0  0  0  0  0  0  0  0  0  0
  141.3280   77.2330  220.6530 O   0  0  0  0  0  0  0  0  0  0  0  0
  139.9600   76.0970  222.1420 C   0  0  2  0  0  0  0  0  0  0  0  0
  139.2400   74.8640  222.3590 N   0  0  0  0  0  0  0  0  0  0  0  0
  138.9370   77.1980  222.0930 C   0  0  0  0  0  0  0  0  0  0  0  0
  138.9980   78.2710  223.0950 C   0  0  2  0  0  0  0  0  0  0  0  0
  137.8550   79.2110  223.0750 C   0  0  0  0  0  0  0  0  0  0  0  0
  140.2890   79.0590  222.9750 C   0  0  0  0  0  0  0  0  0  0  0  0
  140.3120   80.2250  222.2010 C   0  0  0  0  0  0  0  0  0  0  0  0
  141.4660   80.9760  222.0560 C   0  0  0  0  0  0  0  0  0  0  0  0
  142.6230   80.5460  222.7040 C   0  0  0  0  0  0  0  0  0  0  0  0
  142.6180   79.3970  223.4720 C   0  0  0  0  0  0  0  0  0  0  0  0
  141.4430   78.6570  223.6040 C   0  0  0  0  0  0  0  0  0  0  0  0
  142.3840   75.2680  219.2530 C   0  0  0  0  0  0  0  0  0  0  0  0
  143.3230   74.2190  218.8590 C   0  0  0  0  0  0  0  0  0  0  0  0
  146.3586   73.5458  223.0801 H   0  0  0  0  0  0  0  0  0  0  0  0
  146.6239   72.1886  221.9337 H   0  0  0  0  0  0  0  0  0  0  0  0
  147.7405   73.5957  221.9337 H   0  0  0  0  0  0  0  0  0  0  0  0
  144.8243   74.1145  221.4825 H   0  0  0  0  0  0  0  0  0  0  0  0
  146.3100   74.9248  220.7977 H   0  0  0  0  0  0  0  0  0  0  0  0
  142.9662   70.4625  220.4899 H   0  0  0  0  0  0  0  0  0  0  0  0
  143.3338   67.9928  220.3998 H   0  0  0  0  0  0  0  0  0  0  0  0
  145.4332   67.1582  219.3496 H   0  0  0  0  0  0  0  0  0  0  0  0
  147.1091   68.6799  218.4230 H   0  0  0  0  0  0  0  0  0  0  0  0
  146.7500   71.1522  218.5125 H   0  0  0  0  0  0  0  0  0  0  0  0
  142.6071   72.2667  218.8045 H   0  0  0  0  0  0  0  0  0  0  0  0
  142.3107   71.7874  221.0748 H   0  0  0  0  0  0  0  0  0  0  0  0
  143.0928   73.2879  221.5905 H   0  0  0  0  0  0  0  0  0  0  0  0
  140.6877   73.1513  219.6698 H   0  0  0  0  0  0  0  0  0  0  0  0
  140.5501   73.4513  221.4378 H   0  0  0  0  0  0  0  0  0  0  0  0
  140.6476   76.2904  222.9785 H   0  0  0  0  0  0  0  0  0  0  0  0
  139.7090   74.2400  223.0510 H   0  0  0  0  0  0  0  0  0  0  0  0
  138.2720   75.0350  222.6650 H   0  0  0  0  0  0  0  0  0  0  0  0
  139.0226   77.6740  221.1051 H   0  0  0  0  0  0  0  0  0  0  0  0
  137.9878   76.6866  222.3110 H   0  0  0  0  0  0  0  0  0  0  0  0
  138.9519   77.7430  224.0589 H   0  0  0  0  0  0  0  0  0  0  0  0
  137.5610   79.4528  224.1070 H   0  0  0  0  0  0  0  0  0  0  0  0
  138.1477   80.1331  222.5515 H   0  0  0  0  0  0  0  0  0  0  0  0
  137.0067   78.7457  222.5515 H   0  0  0  0  0  0  0  0  0  0  0  0
  139.3913   80.5524  221.6959 H   0  0  0  0  0  0  0  0  0  0  0  0
  141.4699   81.8901  221.4441 H   0  0  0  0  0  0  0  0  0  0  0  0
  143.5509   81.1281  222.6028 H   0  0  0  0  0  0  0  0  0  0  0  0
  143.5376   79.0672  223.9775 H   0  0  0  0  0  0  0  0  0  0  0  0
  141.4400   77.7436  224.2169 H   0  0  0  0  0  0  0  0  0  0  0  0
  141.7853   75.5249  218.3667 H   0  0  0  0  0  0  0  0  0  0  0  0
  143.0159   76.0793  219.6434 H   0  0  0  0  0  0  0  0  0  0  0  0
  143.2079   74.0800  217.7739 H   0  0  0  0  0  0  0  0  0  0  0  0
  144.2917   74.5965  219.2183 H   0  0  0  0  0  0  0  0  0  0  0  0
  1  2  1  0
  2  3  1  0
  3  4  2  0
  3  5  1  0
  5  6  1  0
  6  7  2  0
  7  8  1  0
  8  9  2  0
  9 10  1  0
 10 11  2  0
  5 12  1  0
 12 13  1  0
 13 14  1  0
 14 15  1  0
 15 16  1  0
 16 17  2  0
 16 18  1  0
 18 19  1  0
 18 20  1  0
 20 21  1  0
 21 22  1  0
 21 23  1  0
 23 24  2  0
 24 25  1  0
 25 26  2  0
 26 27  1  0
 27 28  2  0
 15 29  1  0
 29 30  1  0
 11  6  1  0
 30 12  1  0
 28 23  1  0
  1 31  1  0
  1 32  1  0
  1 33  1  0
  2 34  1  0
  2 35  1  0
  7 36  1  0
  8 37  1  0
  9 38  1  0
 10 39  1  0
 11 40  1  0
 12 41  1  0
 13 42  1  0
 13 43  1  0
 14 44  1  0
 14 45  1  0
 18 46  1  1
 19 47  1  0
 19 48  1  0
 20 49  1  0
 20 50  1  0
 21 51  1  1
 22 52  1  0
 22 53  1  0
 22 54  1  0
 24 55  1  0
 25 56  1  0
 26 57  1  0
 27 58  1  0
 28 59  1  0
 29 60  1  0
 29 61  1  0
 30 62  1  0
 30 63  1  0
M  END
>  <smiles>  (31) 
CCC(=O)N(c1ccccc1)C1CCN(C(=O)[C@H](N)CC(C)c2ccccc2)CC1

>  <score_type>  (31) 
oracle

>  <origin>  (31) 
autodockgpu

>  <m_score__min__energy>  (31) 
-8.8699999999999992

>  <m_primary>  (31) 
energy

>  <rmsd>  (31) 
6.553496352342456

>  <m_score__min__rmsd>  (31) 
6.553496352342456

>  <meeko>  (31) 
{"free_energy": -8.25, "intermolecular_energy": -10.93, "internal_energy": -1.88, "cluster_size": 4, "cluster_id": 2, "rank_in_cluster": 2}

>  <energy>  (31) 
-7.44

>  <cluster_rmsd>  (31) 
0.0

>  <cluster>  (31) 
7

$$$$

     RDKit          3D

 63 65  0  0  0  0  0  0  0  0999 V2000
  139.9210   84.3770  220.8790 C   0  0  0  0  0  0  0  0  0  0  0  0
  139.4810   83.1010  221.5600 C   0  0  0  0  0  0  0  0  0  0  0  0
  138.0290   83.0600  221.8480 C   0  0  0  0  0  0  0  0  0  0  0  0
  137.3350   84.0380  221.4480 O   0  0  0  0  0  0  0  0  0  0  0  0
  137.4570   81.9510  222.5510 N   0  0  0  0  0  0  0  0  0  0  0  0
  137.0710   82.1320  223.9090 C   0  0  0  0  0  0  0  0  0  0  0  0
  136.0420   83.0190  224.1790 C   0  0  0  0  0  0  0  0  0  0  0  0
  135.6250   83.2360  225.4750 C   0  0  0  0  0  0  0  0  0  0  0  0
  136.2820   82.5280  226.4760 C   0  0  0  0  0  0  0  0  0  0  0  0
  137.3010   81.6480  226.2180 C   0  0  0  0  0  0  0  0  0  0  0  0
  137.7200   81.4300  224.9200 C   0  0  0  0  0  0  0  0  0  0  0  0
  137.2980   80.6770  221.8530 C   0  0  0  0  0  0  0  0  0  0  0  0
  138.6250   80.0830  221.4960 C   0  0  0  0  0  0  0  0  0  0  0  0
  138.3170   78.7090  220.9170 C   0  0  0  0  0  0  0  0  0  0  0  0
  137.8050   77.8520  221.9470 N   0  0  0  0  0  0  0  0  0  0  0  0
  138.2890   76.5930  222.3420 C   0  0  0  0  0  0  0  0  0  0  0  0
  137.6500   76.0200  223.3200 O   0  0  0  0  0  0  0  0  0  0  0  0
  139.4110   75.8090  221.8270 C   0  0  2  0  0  0  0  0  0  0  0  0
  139.4950   74.4630  222.3450 N   0  0  0  0  0  0  0  0  0  0  0  0
  140.7750   76.4250  221.9840 C   0  0  0  0  0  0  0  0  0  0  0  0
  141.1300   77.5870  221.1570 C   0  0  2  0  0  0  0  0  0  0  0  0
  142.1940   77.3410  220.1580 C   0  0  0  0  0  0  0  0  0  0  0  0
  141.5250   78.7710  222.0190 C   0  0  0  0  0  0  0  0  0  0  0  0
  141.8200   79.9960  221.4110 C   0  0  0  0  0  0  0  0  0  0  0  0
  142.1900   81.1040  222.1540 C   0  0  0  0  0  0  0  0  0  0  0  0
  142.2650   80.9790  223.5400 C   0  0  0  0  0  0  0  0  0  0  0  0
  141.9770   79.7750  224.1580 C   0  0  0  0  0  0  0  0  0  0  0  0
  141.6060   78.6730  223.3880 C   0  0  0  0  0  0  0  0  0  0  0  0
  136.6330   78.3580  222.6590 C   0  0  0  0  0  0  0  0  0  0  0  0
  136.4160   79.8030  222.6530 C   0  0  0  0  0  0  0  0  0  0  0  0
  140.1800   85.1281  221.6397 H   0  0  0  0  0  0  0  0  0  0  0  0
  140.8007   84.1729  220.2509 H   0  0  0  0  0  0  0  0  0  0  0  0
  139.1025   84.7584  220.2509 H   0  0  0  0  0  0  0  0  0  0  0  0
  139.7311   82.2525  220.9062 H   0  0  0  0  0  0  0  0  0  0  0  0
  140.0057   83.0500  222.5255 H   0  0  0  0  0  0  0  0  0  0  0  0
  135.5532   83.5550  223.3521 H   0  0  0  0  0  0  0  0  0  0  0  0
  134.8098   83.9372  225.7070 H   0  0  0  0  0  0  0  0  0  0  0  0
  135.9704   82.6809  227.5198 H   0  0  0  0  0  0  0  0  0  0  0  0
  137.7867   81.1135  227.0477 H   0  0  0  0  0  0  0  0  0  0  0  0
  138.5360   80.7278  224.6940 H   0  0  0  0  0  0  0  0  0  0  0  0
  136.8027   80.8222  220.8816 H   0  0  0  0  0  0  0  0  0  0  0  0
  139.1370   80.7081  220.7496 H   0  0  0  0  0  0  0  0  0  0  0  0
  139.2892   80.0163  222.3703 H   0  0  0  0  0  0  0  0  0  0  0  0
  137.5670   78.8088  220.1185 H   0  0  0  0  0  0  0  0  0  0  0  0
  139.2394   78.2726  220.5063 H   0  0  0  0  0  0  0  0  0  0  0  0
  139.1522   75.7910  220.7580 H   0  0  0  0  0  0  0  0  0  0  0  0
  138.7950   74.2750  223.0930 H   0  0  0  0  0  0  0  0  0  0  0  0
  139.3880   73.7590  221.6010 H   0  0  0  0  0  0  0  0  0  0  0  0
  140.8695   76.7360  223.0349 H   0  0  0  0  0  0  0  0  0  0  0  0
  141.4620   75.6370  221.6418 H   0  0  0  0  0  0  0  0  0  0  0  0
  140.2131   77.8061  220.5902 H   0  0  0  0  0  0  0  0  0  0  0  0
  143.1396   77.1224  220.6757 H   0  0  0  0  0  0  0  0  0  0  0  0
  141.9143   76.4838  219.5279 H   0  0  0  0  0  0  0  0  0  0  0  0
  142.3189   78.2340  219.5279 H   0  0  0  0  0  0  0  0  0  0  0  0
  141.7564   80.0808  220.3161 H   0  0  0  0  0  0  0  0  0  0  0  0
  142.4194   82.0607  221.6619 H   0  0  0  0  0  0  0  0  0  0  0  0
  142.5564   81.8472  224.1494 H   0  0  0  0  0  0  0  0  0  0  0  0
  142.0404   79.6873  225.2527 H   0  0  0  0  0  0  0  0  0  0  0  0
  141.3761   77.7166  223.8805 H   0  0  0  0  0  0  0  0  0  0  0  0
  135.7455   77.8890  222.2092 H   0  0  0  0  0  0  0  0  0  0  0  0
  136.8130   78.1044  223.7141 H   0  0  0  0  0  0  0  0  0  0  0  0
  135.3906   79.9690  222.2910 H   0  0  0  0  0  0  0  0  0  0  0  0
  136.6390   80.0974  223.6891 H   0  0  0  0  0  0  0  0  0  0  0  0
  1  2  1  0
  2  3  1  0
  3  4  2  0
  3  5  1  0
  5  6  1  0
  6  7  2  0
  7  8  1  0
  8  9  2  0
  9 10  1  0
 10 11  2  0
  5 12  1  0
 12 13  1  0
 13 14  1  0
 14 15  1  0
 15 16  1  0
 16 17  2  0
 16 18  1  0
 18 19  1  0
 18 20  1  0
 20 21  1  0
 21 22  1  0
 21 23  1  0
 23 24  2  0
 24 25  1  0
 25 26  2  0
 26 27  1  0
 27 28  2  0
 15 29  1  0
 29 30  1  0
 11  6  1  0
 30 12  1  0
 28 23  1  0
  1 31  1  0
  1 32  1  0
  1 33  1  0
  2 34  1  0
  2 35  1  0
  7 36  1  0
  8 37  1  0
  9 38  1  0
 10 39  1  0
 11 40  1  0
 12 41  1  0
 13 42  1  0
 13 43  1  0
 14 44  1  0
 14 45  1  0
 18 46  1  6
 19 47  1  0
 19 48  1  0
 20 49  1  0
 20 50  1  0
 21 51  1  6
 22 52  1  0
 22 53  1  0
 22 54  1  0
 24 55  1  0
 25 56  1  0
 26 57  1  0
 27 58  1  0
 28 59  1  0
 29 60  1  0
 29 61  1  0
 30 62  1  0
 30 63  1  0
M  END
>  <smiles>  (32) 
CCC(=O)N(c1ccccc1)C1CCN(C(=O)[C@H](N)CC(C)c2ccccc2)CC1

>  <score_type>  (32) 
oracle

>  <origin>  (32) 
autodockgpu

>  <m_score__min__energy>  (32) 
-8.8699999999999992

>  <m_primary>  (32) 
energy

>  <rmsd>  (32) 
4.058286918570671

>  <m_score__min__rmsd>  (32) 
4.058286918570671

>  <meeko>  (32) 
{"free_energy": -6.24, "intermolecular_energy": -8.92, "internal_energy": -3.28, "cluster_size": 7, "cluster_id": 11, "rank_in_cluster": 2}

>  <energy>  (32) 
-7.26

>  <cluster_rmsd>  (32) 
0.65

>  <cluster>  (32) 
7

$$$$

     RDKit          3D

 63 65  0  0  0  0  0  0  0  0999 V2000
  146.3950   73.7390  221.4700 C   0  0  0  0  0  0  0  0  0  0  0  0
  145.2730   72.7690  221.1810 C   0  0  0  0  0  0  0  0  0  0  0  0
  145.1350   72.4420  219.7430 C   0  0  0  0  0  0  0  0  0  0  0  0
  146.0140   72.9040  218.9610 O   0  0  0  0  0  0  0  0  0  0  0  0
  144.0460   71.6350  219.2800 N   0  0  0  0  0  0  0  0  0  0  0  0
  144.2950   70.2690  218.9690 C   0  0  0  0  0  0  0  0  0  0  0  0
  144.1170   69.3310  219.9730 C   0  0  0  0  0  0  0  0  0  0  0  0
  144.3440   67.9920  219.7310 C   0  0  0  0  0  0  0  0  0  0  0  0
  144.7520   67.6440  218.4480 C   0  0  0  0  0  0  0  0  0  0  0  0
  144.9300   68.5650  217.4480 C   0  0  0  0  0  0  0  0  0  0  0  0
  144.7040   69.9060  217.6890 C   0  0  0  0  0  0  0  0  0  0  0  0
  142.7250   72.2440  219.1380 C   0  0  0  0  0  0  0  0  0  0  0  0
  141.6470   71.3260  219.6240 C   0  0  0  0  0  0  0  0  0  0  0  0
  140.3590   72.1330  219.5580 C   0  0  0  0  0  0  0  0  0  0  0  0
  140.3960   73.1890  220.5280 N   0  0  0  0  0  0  0  0  0  0  0  0
  139.4640   73.4600  221.5440 C   0  0  0  0  0  0  0  0  0  0  0  0
  139.7370   74.4770  222.3100 O   0  0  0  0  0  0  0  0  0  0  0  0
  138.2190   72.7760  221.8900 C   0  0  2  0  0  0  0  0  0  0  0  0
  137.2610   73.5890  222.6030 N   0  0  0  0  0  0  0  0  0  0  0  0
  138.3610   71.4910  222.6610 C   0  0  0  0  0  0  0  0  0  0  0  0
  139.6930   70.8810  222.7850 C   0  0  2  0  0  0  0  0  0  0  0  0
  139.8790   69.6290  222.0170 C   0  0  0  0  0  0  0  0  0  0  0  0
  140.0450   70.6270  224.2390 C   0  0  0  0  0  0  0  0  0  0  0  0
  139.6350   69.4350  224.8470 C   0  0  0  0  0  0  0  0  0  0  0  0
  139.9270   69.1600  226.1720 C   0  0  0  0  0  0  0  0  0  0  0  0
  140.6490   70.1030  226.9020 C   0  0  0  0  0  0  0  0  0  0  0  0
  141.0620   71.2850  226.3170 C   0  0  0  0  0  0  0  0  0  0  0  0
  140.7560   71.5410  224.9810 C   0  0  0  0  0  0  0  0  0  0  0  0
  141.5440   74.0880  220.4330 C   0  0  0  0  0  0  0  0  0  0  0  0
  142.7440   73.5780  219.7740 C   0  0  0  0  0  0  0  0  0  0  0  0
  146.5172   73.8446  222.5581 H   0  0  0  0  0  0  0  0  0  0  0  0
  147.3297   73.3598  221.0312 H   0  0  0  0  0  0  0  0  0  0  0  0
  146.1549   74.7187  221.0312 H   0  0  0  0  0  0  0  0  0  0  0  0
  145.4660   71.8377  221.7336 H   0  0  0  0  0  0  0  0  0  0  0  0
  144.3363   73.2522  221.4959 H   0  0  0  0  0  0  0  0  0  0  0  0
  143.7918   69.6569  220.9720 H   0  0  0  0  0  0  0  0  0  0  0  0
  144.2085   67.2343  220.5169 H   0  0  0  0  0  0  0  0  0  0  0  0
  144.9402   66.5833  218.2256 H   0  0  0  0  0  0  0  0  0  0  0  0
  145.2540   68.2346  216.4501 H   0  0  0  0  0  0  0  0  0  0  0  0
  144.8420   70.6589  216.8990 H   0  0  0  0  0  0  0  0  0  0  0  0
  142.4803   72.4025  218.0773 H   0  0  0  0  0  0  0  0  0  0  0  0
  141.5777   70.4392  218.9768 H   0  0  0  0  0  0  0  0  0  0  0  0
  141.8491   70.9661  220.6436 H   0  0  0  0  0  0  0  0  0  0  0  0
  140.2500   72.5649  218.5522 H   0  0  0  0  0  0  0  0  0  0  0  0
  139.5058   71.4728  219.7728 H   0  0  0  0  0  0  0  0  0  0  0  0
  137.8480   72.5439  220.8808 H   0  0  0  0  0  0  0  0  0  0  0  0
  136.9470   73.1520  223.4960 H   0  0  0  0  0  0  0  0  0  0  0  0
  137.6310   74.5300  222.8030 H   0  0  0  0  0  0  0  0  0  0  0  0
  137.9983   71.6848  223.6812 H   0  0  0  0  0  0  0  0  0  0  0  0
  137.7894   70.7616  222.0683 H   0  0  0  0  0  0  0  0  0  0  0  0
  140.3740   71.6238  222.3440 H   0  0  0  0  0  0  0  0  0  0  0  0
  140.0041   68.7868  222.7134 H   0  0  0  0  0  0  0  0  0  0  0  0
  138.9971   69.4530  221.3835 H   0  0  0  0  0  0  0  0  0  0  0  0
  140.7739   69.7170  221.3835 H   0  0  0  0  0  0  0  0  0  0  0  0
  139.0674   68.6993  224.2582 H   0  0  0  0  0  0  0  0  0  0  0  0
  139.5971   68.2197  226.6378 H   0  0  0  0  0  0  0  0  0  0  0  0
  140.8928   69.9039  227.9560 H   0  0  0  0  0  0  0  0  0  0  0  0
  141.6305   72.0217  226.9037 H   0  0  0  0  0  0  0  0  0  0  0  0
  141.0860   72.4819  224.5165 H   0  0  0  0  0  0  0  0  0  0  0  0
  141.2185   74.9817  219.8804 H   0  0  0  0  0  0  0  0  0  0  0  0
  141.8491   74.2661  221.4747 H   0  0  0  0  0  0  0  0  0  0  0  0
  143.0069   74.3013  218.9880 H   0  0  0  0  0  0  0  0  0  0  0  0
  143.4557   73.4536  220.6035 H   0  0  0  0  0  0  0  0  0  0  0  0
  1  2  1  0
  2  3  1  0
  3  4  2  0
  3  5  1  0
  5  6  1  0
  6  7  2  0
  7  8  1  0
  8  9  2  0
  9 10  1  0
 10 11  2  0
  5 12  1  0
 12 13  1  0
 13 14  1  0
 14 15  1  0
 15 16  1  0
 16 17  2  0
 16 18  1  0
 18 19  1  0
 18 20  1  0
 20 21  1  0
 21 22  1  0
 21 23  1  0
 23 24  2  0
 24 25  1  0
 25 26  2  0
 26 27  1  0
 27 28  2  0
 15 29  1  0
 29 30  1  0
 11  6  1  0
 30 12  1  0
 28 23  1  0
  1 31  1  0
  1 32  1  0
  1 33  1  0
  2 34  1  0
  2 35  1  0
  7 36  1  0
  8 37  1  0
  9 38  1  0
 10 39  1  0
 11 40  1  0
 12 41  1  0
 13 42  1  0
 13 43  1  0
 14 44  1  0
 14 45  1  0
 18 46  1  6
 19 47  1  0
 19 48  1  0
 20 49  1  0
 20 50  1  0
 21 51  1  6
 22 52  1  0
 22 53  1  0
 22 54  1  0
 24 55  1  0
 25 56  1  0
 26 57  1  0
 27 58  1  0
 28 59  1  0
 29 60  1  0
 29 61  1  0
 30 62  1  0
 30 63  1  0
M  END
>  <smiles>  (33) 
CCC(=O)N(c1ccccc1)C1CCN(C(=O)[C@H](N)CC(C)c2ccccc2)CC1

>  <score_type>  (33) 
oracle

>  <origin>  (33) 
autodockgpu

>  <m_score__min__energy>  (33) 
-8.8699999999999992

>  <m_primary>  (33) 
energy

>  <rmsd>  (33) 
7.5570309843727905

>  <m_score__min__rmsd>  (33) 
7.5570309843727905

>  <meeko>  (33) 
{"free_energy": -7.23, "intermolecular_energy": -9.92, "internal_energy": -2.74, "cluster_size": 10, "cluster_id": 1, "rank_in_cluster": 10}

>  <energy>  (33) 
-7.18

>  <cluster_rmsd>  (33) 
0.0

>  <cluster>  (33) 
8

$$$$

     RDKit          3D

 63 65  0  0  0  0  0  0  0  0999 V2000
  138.7850   80.5090  220.4880 C   0  0  0  0  0  0  0  0  0  0  0  0
  138.0300   80.1060  221.7330 C   0  0  0  0  0  0  0  0  0  0  0  0
  138.5920   78.9080  222.3990 C   0  0  0  0  0  0  0  0  0  0  0  0
  137.8090   78.2340  223.1260 O   0  0  0  0  0  0  0  0  0  0  0  0
  139.9650   78.5470  222.2120 N   0  0  0  0  0  0  0  0  0  0  0  0
  140.9710   79.3980  222.7520 C   0  0  0  0  0  0  0  0  0  0  0  0
  142.2770   79.2090  222.3280 C   0  0  0  0  0  0  0  0  0  0  0  0
  143.2940   80.0010  222.8170 C   0  0  0  0  0  0  0  0  0  0  0  0
  142.9430   80.9820  223.7380 C   0  0  0  0  0  0  0  0  0  0  0  0
  141.6540   81.1760  224.1620 C   0  0  0  0  0  0  0  0  0  0  0  0
  140.6340   80.3830  223.6750 C   0  0  0  0  0  0  0  0  0  0  0  0
  140.2830   77.3280  221.4720 C   0  0  0  0  0  0  0  0  0  0  0  0
  141.0620   76.3670  222.3140 C   0  0  0  0  0  0  0  0  0  0  0  0
  141.1920   75.1010  221.4790 C   0  0  0  0  0  0  0  0  0  0  0  0
  139.9050   74.4850  221.3270 N   0  0  0  0  0  0  0  0  0  0  0  0
  139.5360   73.1670  221.6480 C   0  0  0  0  0  0  0  0  0  0  0  0
  138.2920   72.8550  221.4270 O   0  0  0  0  0  0  0  0  0  0  0  0
  140.3330   72.0720  222.2010 C   0  0  2  0  0  0  0  0  0  0  0  0
  140.0290   70.7690  221.6540 N   0  0  0  0  0  0  0  0  0  0  0  0
  140.3170   71.9320  223.6990 C   0  0  0  0  0  0  0  0  0  0  0  0
  139.7560   70.7100  224.2920 C   0  0  2  0  0  0  0  0  0  0  0  0
  138.2780   70.6220  224.2580 C   0  0  0  0  0  0  0  0  0  0  0  0
  140.2280   70.5290  225.7220 C   0  0  0  0  0  0  0  0  0  0  0  0
  140.2480   69.2470  226.2820 C   0  0  0  0  0  0  0  0  0  0  0  0
  140.6670   69.0310  227.5850 C   0  0  0  0  0  0  0  0  0  0  0  0
  141.0750   70.1290  228.3410 C   0  0  0  0  0  0  0  0  0  0  0  0
  141.0620   71.4030  227.8030 C   0  0  0  0  0  0  0  0  0  0  0  0
  140.6360   71.5950  226.4890 C   0  0  0  0  0  0  0  0  0  0  0  0
  138.8630   75.3400  220.7630 C   0  0  0  0  0  0  0  0  0  0  0  0
  139.0370   76.7850  220.8920 C   0  0  0  0  0  0  0  0  0  0  0  0
  139.7222   81.0093  220.7733 H   0  0  0  0  0  0  0  0  0  0  0  0
  139.0142   79.6133  219.8921 H   0  0  0  0  0  0  0  0  0  0  0  0
  138.1683   81.1979  219.8921 H   0  0  0  0  0  0  0  0  0  0  0  0
  138.0565   80.9450  222.4439 H   0  0  0  0  0  0  0  0  0  0  0  0
  137.0044   79.8553  221.4244 H   0  0  0  0  0  0  0  0  0  0  0  0
  142.5039   78.4206  221.5953 H   0  0  0  0  0  0  0  0  0  0  0  0
  144.3362   79.8631  222.4932 H   0  0  0  0  0  0  0  0  0  0  0  0
  143.7337   81.6302  224.1437 H   0  0  0  0  0  0  0  0  0  0  0  0
  141.4313   81.9669  224.8934 H   0  0  0  0  0  0  0  0  0  0  0  0
  139.5941   80.5247  224.0044 H   0  0  0  0  0  0  0  0  0  0  0  0
  140.9557   77.5463  220.6295 H   0  0  0  0  0  0  0  0  0  0  0  0
  142.0558   76.7778  222.5453 H   0  0  0  0  0  0  0  0  0  0  0  0
  140.5628   76.1709  223.2744 H   0  0  0  0  0  0  0  0  0  0  0  0
  141.5937   75.3571  220.4875 H   0  0  0  0  0  0  0  0  0  0  0  0
  141.8726   74.4004  221.9849 H   0  0  0  0  0  0  0  0  0  0  0  0
  141.3368   72.3944  221.8875 H   0  0  0  0  0  0  0  0  0  0  0  0
  139.0780   70.7220  221.2300 H   0  0  0  0  0  0  0  0  0  0  0  0
  140.7230   70.4780  220.9510 H   0  0  0  0  0  0  0  0  0  0  0  0
  141.3596   72.0078  224.0415 H   0  0  0  0  0  0  0  0  0  0  0  0
  139.6328   72.7264  224.0321 H   0  0  0  0  0  0  0  0  0  0  0  0
  140.1345   69.8999  223.6513 H   0  0  0  0  0  0  0  0  0  0  0  0
  137.8883   70.5988  225.2864 H   0  0  0  0  0  0  0  0  0  0  0  0
  137.8706   71.4975  223.7312 H   0  0  0  0  0  0  0  0  0  0  0  0
  137.9773   69.7044  223.7312 H   0  0  0  0  0  0  0  0  0  0  0  0
  139.9234   68.3901  225.6734 H   0  0  0  0  0  0  0  0  0  0  0  0
  140.6775   68.0176  228.0126 H   0  0  0  0  0  0  0  0  0  0  0  0
  141.4112   69.9803  229.3777 H   0  0  0  0  0  0  0  0  0  0  0  0
  141.3864   72.2616  228.4092 H   0  0  0  0  0  0  0  0  0  0  0  0
  140.6263   72.6087  226.0621 H   0  0  0  0  0  0  0  0  0  0  0  0
  138.7929   75.1105  219.6895 H   0  0  0  0  0  0  0  0  0  0  0  0
  137.9620   75.1112  221.3511 H   0  0  0  0  0  0  0  0  0  0  0  0
  138.9464   77.2078  219.8805 H   0  0  0  0  0  0  0  0  0  0  0  0
  138.2698   77.0685  221.6276 H   0  0  0  0  0  0  0  0  0  0  0  0
  1  2  1  0
  2  3  1  0
  3  4  2  0
  3  5  1  0
  5  6  1  0
  6  7  2  0
  7  8  1  0
  8  9  2  0
  9 10  1  0
 10 11  2  0
  5 12  1  0
 12 13  1  0
 13 14  1  0
 14 15  1  0
 15 16  1  0
 16 17  2  0
 16 18  1  0
 18 19  1  0
 18 20  1  0
 20 21  1  0
 21 22  1  0
 21 23  1  0
 23 24  2  0
 24 25  1  0
 25 26  2  0
 26 27  1  0
 27 28  2  0
 15 29  1  0
 29 30  1  0
 11  6  1  0
 30 12  1  0
 28 23  1  0
  1 31  1  0
  1 32  1  0
  1 33  1  0
  2 34  1  0
  2 35  1  0
  7 36  1  0
  8 37  1  0
  9 38  1  0
 10 39  1  0
 11 40  1  0
 12 41  1  0
 13 42  1  0
 13 43  1  0
 14 44  1  0
 14 45  1  0
 18 46  1  6
 19 47  1  0
 19 48  1  0
 20 49  1  0
 20 50  1  0
 21 51  1  6
 22 52  1  0
 22 53  1  0
 22 54  1  0
 24 55  1  0
 25 56  1  0
 26 57  1  0
 27 58  1  0
 28 59  1  0
 29 60  1  0
 29 61  1  0
 30 62  1  0
 30 63  1  0
M  END
>  <smiles>  (34) 
CCC(=O)N(c1ccccc1)C1CCN(C(=O)[C@H](N)CC(C)c2ccccc2)CC1

>  <score_type>  (34) 
oracle

>  <origin>  (34) 
autodockgpu

>  <m_score__min__energy>  (34) 
-8.8699999999999992

>  <m_primary>  (34) 
energy

>  <rmsd>  (34) 
6.543038423032531

>  <m_score__min__rmsd>  (34) 
6.543038423032531

>  <meeko>  (34) 
{"free_energy": -7.32, "intermolecular_energy": -10.01, "internal_energy": -2.15, "cluster_size": 4, "cluster_id": 6, "rank_in_cluster": 4}

>  <energy>  (34) 
-7.12

>  <cluster_rmsd>  (34) 
0.0

>  <cluster>  (34) 
9

$$$$

     RDKit          3D

 63 65  0  0  0  0  0  0  0  0999 V2000
  140.3410   71.5340  223.2230 C   0  0  0  0  0  0  0  0  0  0  0  0
  141.1290   71.8900  221.9850 C   0  0  0  0  0  0  0  0  0  0  0  0
  141.0510   73.3260  221.6310 C   0  0  0  0  0  0  0  0  0  0  0  0
  140.2790   74.0480  222.3230 O   0  0  0  0  0  0  0  0  0  0  0  0
  141.8260   73.8530  220.5480 N   0  0  0  0  0  0  0  0  0  0  0  0
  143.1890   73.4600  220.4320 C   0  0  0  0  0  0  0  0  0  0  0  0
  143.4610   72.2000  219.9240 C   0  0  0  0  0  0  0  0  0  0  0  0
  144.7620   71.7640  219.7890 C   0  0  0  0  0  0  0  0  0  0  0  0
  145.7660   72.6430  220.1820 C   0  0  0  0  0  0  0  0  0  0  0  0
  145.5060   73.8920  220.6860 C   0  0  0  0  0  0  0  0  0  0  0  0
  144.2040   74.3290  220.8220 C   0  0  0  0  0  0  0  0  0  0  0  0
  141.1930   74.7770  219.6090 C   0  0  0  0  0  0  0  0  0  0  0  0
  141.1610   76.1710  220.1550 C   0  0  0  0  0  0  0  0  0  0  0  0
  140.6200   77.0400  219.0290 C   0  0  0  0  0  0  0  0  0  0  0  0
  141.5720   77.0950  217.9570 N   0  0  0  0  0  0  0  0  0  0  0  0
  142.1390   78.2360  217.3650 C   0  0  0  0  0  0  0  0  0  0  0  0
  142.9960   78.0160  216.4110 O   0  0  0  0  0  0  0  0  0  0  0  0
  141.9220   79.6550  217.6500 C   0  0  2  0  0  0  0  0  0  0  0  0
  142.5590   80.5610  216.7230 N   0  0  0  0  0  0  0  0  0  0  0  0
  142.2910   80.1150  219.0340 C   0  0  0  0  0  0  0  0  0  0  0  0
  141.2240   80.5420  219.9500 C   0  0  2  0  0  0  0  0  0  0  0  0
  141.0340   82.0070  220.0480 C   0  0  0  0  0  0  0  0  0  0  0  0
  141.4370   79.9770  221.3410 C   0  0  0  0  0  0  0  0  0  0  0  0
  142.4050   80.5480  222.1740 C   0  0  0  0  0  0  0  0  0  0  0  0
  142.6410   80.0650  223.4500 C   0  0  0  0  0  0  0  0  0  0  0  0
  141.8850   78.9830  223.8990 C   0  0  0  0  0  0  0  0  0  0  0  0
  140.9250   78.4060  223.0890 C   0  0  0  0  0  0  0  0  0  0  0  0
  140.7060   78.9100  221.8080 C   0  0  0  0  0  0  0  0  0  0  0  0
  141.9870   75.8010  217.4200 C   0  0  0  0  0  0  0  0  0  0  0  0
  141.8440   74.6360  218.2900 C   0  0  0  0  0  0  0  0  0  0  0  0
  140.9245   71.7976  224.1175 H   0  0  0  0  0  0  0  0  0  0  0  0
  139.3925   72.0910  223.2267 H   0  0  0  0  0  0  0  0  0  0  0  0
  140.1320   70.4540  223.2267 H   0  0  0  0  0  0  0  0  0  0  0  0
  142.1840   71.6299  222.1564 H   0  0  0  0  0  0  0  0  0  0  0  0
  140.6922   71.3250  221.1483 H   0  0  0  0  0  0  0  0  0  0  0  0
  142.6317   71.5417  219.6258 H   0  0  0  0  0  0  0  0  0  0  0  0
  144.9955   70.7664  219.3887 H   0  0  0  0  0  0  0  0  0  0  0  0
  146.8138   72.3226  220.0844 H   0  0  0  0  0  0  0  0  0  0  0  0
  146.3380   74.5475  220.9828 H   0  0  0  0  0  0  0  0  0  0  0  0
  143.9767   75.3274  221.2239 H   0  0  0  0  0  0  0  0  0  0  0  0
  140.1320   74.5239  219.4665 H   0  0  0  0  0  0  0  0  0  0  0  0
  140.5000   76.2244  221.0326 H   0  0  0  0  0  0  0  0  0  0  0  0
  142.1575   76.5027  220.4819 H   0  0  0  0  0  0  0  0  0  0  0  0
  139.6770   76.6120  218.6583 H   0  0  0  0  0  0  0  0  0  0  0  0
  140.4416   78.0568  219.4087 H   0  0  0  0  0  0  0  0  0  0  0  0
  140.8285   79.7028  217.5407 H   0  0  0  0  0  0  0  0  0  0  0  0
  143.4280   80.9870  217.1080 H   0  0  0  0  0  0  0  0  0  0  0  0
  142.7800   80.1000  215.8280 H   0  0  0  0  0  0  0  0  0  0  0  0
  142.8196   79.2820  219.5205 H   0  0  0  0  0  0  0  0  0  0  0  0
  142.8735   81.0319  218.8612 H   0  0  0  0  0  0  0  0  0  0  0  0
  140.3053   80.1358  219.5017 H   0  0  0  0  0  0  0  0  0  0  0  0
  140.9958   82.3017  221.1071 H   0  0  0  0  0  0  0  0  0  0  0  0
  141.8732   82.5194  219.5549 H   0  0  0  0  0  0  0  0  0  0  0  0
  140.0918   82.2884  219.5549 H   0  0  0  0  0  0  0  0  0  0  0  0
  142.9931   81.4017  221.8062 H   0  0  0  0  0  0  0  0  0  0  0  0
  143.4061   80.5237  224.0936 H   0  0  0  0  0  0  0  0  0  0  0  0
  142.0545   78.5838  224.9099 H   0  0  0  0  0  0  0  0  0  0  0  0
  140.3358   77.5519  223.4541 H   0  0  0  0  0  0  0  0  0  0  0  0
  139.9414   78.4500  221.1648 H   0  0  0  0  0  0  0  0  0  0  0  0
  141.3907   75.6125  216.5151 H   0  0  0  0  0  0  0  0  0  0  0  0
  143.0702   75.8985  217.2555 H   0  0  0  0  0  0  0  0  0  0  0  0
  141.2650   73.8885  217.7279 H   0  0  0  0  0  0  0  0  0  0  0  0
  142.8830   74.3810  218.5457 H   0  0  0  0  0  0  0  0  0  0  0  0
  1  2  1  0
  2  3  1  0
  3  4  2  0
  3  5  1  0
  5  6  1  0
  6  7  2  0
  7  8  1  0
  8  9  2  0
  9 10  1  0
 10 11  2  0
  5 12  1  0
 12 13  1  0
 13 14  1  0
 14 15  1  0
 15 16  1  0
 16 17  2  0
 16 18  1  0
 18 19  1  0
 18 20  1  0
 20 21  1  0
 21 22  1  0
 21 23  1  0
 23 24  2  0
 24 25  1  0
 25 26  2  0
 26 27  1  0
 27 28  2  0
 15 29  1  0
 29 30  1  0
 11  6  1  0
 30 12  1  0
 28 23  1  0
  1 31  1  0
  1 32  1  0
  1 33  1  0
  2 34  1  0
  2 35  1  0
  7 36  1  0
  8 37  1  0
  9 38  1  0
 10 39  1  0
 11 40  1  0
 12 41  1  0
 13 42  1  0
 13 43  1  0
 14 44  1  0
 14 45  1  0
 18 46  1  1
 19 47  1  0
 19 48  1  0
 20 49  1  0
 20 50  1  0
 21 51  1  6
 22 52  1  0
 22 53  1  0
 22 54  1  0
 24 55  1  0
 25 56  1  0
 26 57  1  0
 27 58  1  0
 28 59  1  0
 29 60  1  0
 29 61  1  0
 30 62  1  0
 30 63  1  0
M  END
>  <smiles>  (35) 
CCC(=O)N(c1ccccc1)C1CCN(C(=O)[C@H](N)CC(C)c2ccccc2)CC1

>  <score_type>  (35) 
oracle

>  <origin>  (35) 
autodockgpu

>  <m_score__min__energy>  (35) 
-8.8699999999999992

>  <m_primary>  (35) 
energy

>  <rmsd>  (35) 
6.023766175060015

>  <m_score__min__rmsd>  (35) 
6.023766175060015

>  <meeko>  (35) 
{"free_energy": -7.12, "intermolecular_energy": -9.8, "internal_energy": -2.87, "cluster_size": 6, "cluster_id": 9, "rank_in_cluster": 2}

>  <energy>  (35) 
-7.12

>  <cluster_rmsd>  (35) 
0.22

>  <cluster>  (35) 
9

$$$$

     RDKit          3D

 63 65  0  0  0  0  0  0  0  0999 V2000
  140.3200   71.5650  223.1720 C   0  0  0  0  0  0  0  0  0  0  0  0
  140.9550   71.8900  221.8400 C   0  0  0  0  0  0  0  0  0  0  0  0
  141.0590   73.3440  221.5780 C   0  0  0  0  0  0  0  0  0  0  0  0
  140.4090   74.1140  222.3420 O   0  0  0  0  0  0  0  0  0  0  0  0
  141.8660   73.8350  220.5020 N   0  0  0  0  0  0  0  0  0  0  0  0
  143.2230   73.4120  220.4210 C   0  0  0  0  0  0  0  0  0  0  0  0
  144.2040   74.2940  220.8430 C   0  0  0  0  0  0  0  0  0  0  0  0
  145.5360   73.9410  220.7870 C   0  0  0  0  0  0  0  0  0  0  0  0
  145.8320   72.6740  220.2950 C   0  0  0  0  0  0  0  0  0  0  0  0
  144.8670   71.7940  219.8760 C   0  0  0  0  0  0  0  0  0  0  0  0
  143.5330   72.1470  219.9310 C   0  0  0  0  0  0  0  0  0  0  0  0
  141.2720   74.7540  219.5340 C   0  0  0  0  0  0  0  0  0  0  0  0
  141.0770   76.1160  220.1250 C   0  0  0  0  0  0  0  0  0  0  0  0
  140.5980   76.9960  218.9790 C   0  0  0  0  0  0  0  0  0  0  0  0
  141.6540   77.1670  218.0230 N   0  0  0  0  0  0  0  0  0  0  0  0
  142.1950   78.3710  217.5420 C   0  0  0  0  0  0  0  0  0  0  0  0
  143.1650   78.2550  216.6820 O   0  0  0  0  0  0  0  0  0  0  0  0
  141.8440   79.7560  217.8550 C   0  0  2  0  0  0  0  0  0  0  0  0
  142.3620   80.7340  216.9270 N   0  0  0  0  0  0  0  0  0  0  0  0
  142.1990   80.2330  219.2370 C   0  0  0  0  0  0  0  0  0  0  0  0
  141.1170   80.6060  220.1600 C   0  0  2  0  0  0  0  0  0  0  0  0
  140.6950   82.0230  220.0870 C   0  0  0  0  0  0  0  0  0  0  0  0
  141.4830   80.2720  221.5940 C   0  0  0  0  0  0  0  0  0  0  0  0
  141.4060   78.9460  222.0320 C   0  0  0  0  0  0  0  0  0  0  0  0
  141.7240   78.5920  223.3320 C   0  0  0  0  0  0  0  0  0  0  0  0
  142.1290   79.5940  224.2120 C   0  0  0  0  0  0  0  0  0  0  0  0
  142.2100   80.9100  223.7960 C   0  0  0  0  0  0  0  0  0  0  0  0
  141.8850   81.2420  222.4820 C   0  0  0  0  0  0  0  0  0  0  0  0
  142.2210   75.9310  217.4880 C   0  0  0  0  0  0  0  0  0  0  0  0
  142.0710   74.7200  218.2920 C   0  0  0  0  0  0  0  0  0  0  0  0
  140.9798   71.9027  223.9848 H   0  0  0  0  0  0  0  0  0  0  0  0
  139.3498   72.0774  223.2504 H   0  0  0  0  0  0  0  0  0  0  0  0
  140.1682   70.4784  223.2504 H   0  0  0  0  0  0  0  0  0  0  0  0
  141.9669   71.4590  221.8215 H   0  0  0  0  0  0  0  0  0  0  0  0
  140.3079   71.4644  221.0589 H   0  0  0  0  0  0  0  0  0  0  0  0
  143.9182   75.2847  221.2262 H   0  0  0  0  0  0  0  0  0  0  0  0
  146.3280   74.6297  221.1163 H   0  0  0  0  0  0  0  0  0  0  0  0
  146.8861   72.3643  220.2395 H   0  0  0  0  0  0  0  0  0  0  0  0
  145.1566   70.8036  219.4949 H   0  0  0  0  0  0  0  0  0  0  0  0
  142.7452   71.4543  219.5999 H   0  0  0  0  0  0  0  0  0  0  0  0
  140.2548   74.4335  219.2646 H   0  0  0  0  0  0  0  0  0  0  0  0
  140.3224   76.0829  220.9247 H   0  0  0  0  0  0  0  0  0  0  0  0
  142.0047   76.5013  220.5732 H   0  0  0  0  0  0  0  0  0  0  0  0
  139.7356   76.5203  218.4892 H   0  0  0  0  0  0  0  0  0  0  0  0
  140.3038   77.9793  219.3748 H   0  0  0  0  0  0  0  0  0  0  0  0
  140.7488   79.6939  217.7735 H   0  0  0  0  0  0  0  0  0  0  0  0
  143.2340   80.4170  216.4520 H   0  0  0  0  0  0  0  0  0  0  0  0
  141.6650   80.9900  216.2120 H   0  0  0  0  0  0  0  0  0  0  0  0
  142.7714   79.4270  219.7195 H   0  0  0  0  0  0  0  0  0  0  0  0
  142.7348   81.1776  219.0616 H   0  0  0  0  0  0  0  0  0  0  0  0
  140.2575   80.0057  219.8271 H   0  0  0  0  0  0  0  0  0  0  0  0
  140.5759   82.4230  221.1048 H   0  0  0  0  0  0  0  0  0  0  0  0
  141.4586   82.6058  219.5510 H   0  0  0  0  0  0  0  0  0  0  0  0
  139.7370   82.0931  219.5510 H   0  0  0  0  0  0  0  0  0  0  0  0
  141.0850   78.1655  221.3265 H   0  0  0  0  0  0  0  0  0  0  0  0
  141.6586   77.5449  223.6625 H   0  0  0  0  0  0  0  0  0  0  0  0
  142.3871   79.3348  225.2494 H   0  0  0  0  0  0  0  0  0  0  0  0
  142.5299   81.6925  224.4998 H   0  0  0  0  0  0  0  0  0  0  0  0
  141.9506   82.2894  222.1523 H   0  0  0  0  0  0  0  0  0  0  0  0
  141.7433   75.7427  216.5152 H   0  0  0  0  0  0  0  0  0  0  0  0
  143.3054   76.1117  217.4506 H   0  0  0  0  0  0  0  0  0  0  0  0
  141.6138   73.9606  217.6406 H   0  0  0  0  0  0  0  0  0  0  0  0
  143.0921   74.5270  218.6527 H   0  0  0  0  0  0  0  0  0  0  0  0
  1  2  1  0
  2  3  1  0
  3  4  2  0
  3  5  1  0
  5  6  1  0
  6  7  2  0
  7  8  1  0
  8  9  2  0
  9 10  1  0
 10 11  2  0
  5 12  1  0
 12 13  1  0
 13 14  1  0
 14 15  1  0
 15 16  1  0
 16 17  2  0
 16 18  1  0
 18 19  1  0
 18 20  1  0
 20 21  1  0
 21 22  1  0
 21 23  1  0
 23 24  2  0
 24 25  1  0
 25 26  2  0
 26 27  1  0
 27 28  2  0
 15 29  1  0
 29 30  1  0
 11  6  1  0
 30 12  1  0
 28 23  1  0
  1 31  1  0
  1 32  1  0
  1 33  1  0
  2 34  1  0
  2 35  1  0
  7 36  1  0
  8 37  1  0
  9 38  1  0
 10 39  1  0
 11 40  1  0
 12 41  1  0
 13 42  1  0
 13 43  1  0
 14 44  1  0
 14 45  1  0
 18 46  1  1
 19 47  1  0
 19 48  1  0
 20 49  1  0
 20 50  1  0
 21 51  1  6
 22 52  1  0
 22 53  1  0
 22 54  1  0
 24 55  1  0
 25 56  1  0
 26 57  1  0
 27 58  1  0
 28 59  1  0
 29 60  1  0
 29 61  1  0
 30 62  1  0
 30 63  1  0
M  END
>  <smiles>  (36) 
CCC(=O)N(c1ccccc1)C1CCN(C(=O)[C@H](N)CC(C)c2ccccc2)CC1

>  <score_type>  (36) 
oracle

>  <origin>  (36) 
autodockgpu

>  <m_score__min__energy>  (36) 
-8.8699999999999992

>  <m_primary>  (36) 
energy

>  <rmsd>  (36) 
6.050599825709926

>  <m_score__min__rmsd>  (36) 
6.050599825709926

>  <meeko>  (36) 
{"free_energy": -6.94, "intermolecular_energy": -9.62, "internal_energy": -2.78, "cluster_size": 6, "cluster_id": 9, "rank_in_cluster": 4}

>  <energy>  (36) 
-7.11

>  <cluster_rmsd>  (36) 
0.35

>  <cluster>  (36) 
9

$$$$

     RDKit          3D

 63 65  0  0  0  0  0  0  0  0999 V2000
  140.0470   83.0570  221.2090 C   0  0  0  0  0  0  0  0  0  0  0  0
  138.7190   83.6890  221.5540 C   0  0  0  0  0  0  0  0  0  0  0  0
  137.5590   82.8170  221.2590 C   0  0  0  0  0  0  0  0  0  0  0  0
  136.8320   83.1400  220.2760 O   0  0  0  0  0  0  0  0  0  0  0  0
  137.2900   81.6650  222.0640 N   0  0  0  0  0  0  0  0  0  0  0  0
  137.1310   81.8370  223.4680 C   0  0  0  0  0  0  0  0  0  0  0  0
  136.2090   82.7730  223.9080 C   0  0  0  0  0  0  0  0  0  0  0  0
  136.0120   82.9840  225.2560 C   0  0  0  0  0  0  0  0  0  0  0  0
  136.7750   82.2200  226.1320 C   0  0  0  0  0  0  0  0  0  0  0  0
  137.6900   81.2910  225.7060 C   0  0  0  0  0  0  0  0  0  0  0  0
  137.8880   81.0780  224.3570 C   0  0  0  0  0  0  0  0  0  0  0  0
  137.1970   80.3560  221.4190 C   0  0  0  0  0  0  0  0  0  0  0  0
  138.5540   79.8000  221.1170 C   0  0  0  0  0  0  0  0  0  0  0  0
  138.3140   78.3920  220.5920 C   0  0  0  0  0  0  0  0  0  0  0  0
  137.8100   77.5600  221.6470 N   0  0  0  0  0  0  0  0  0  0  0  0
  138.3330   76.3390  222.1060 C   0  0  0  0  0  0  0  0  0  0  0  0
  137.6940   75.7830  223.0940 O   0  0  0  0  0  0  0  0  0  0  0  0
  139.4970   75.5800  221.6510 C   0  0  2  0  0  0  0  0  0  0  0  0
  139.5880   74.2390  222.1810 N   0  0  0  0  0  0  0  0  0  0  0  0
  140.8380   76.2280  221.8690 C   0  0  0  0  0  0  0  0  0  0  0  0
  141.1780   77.4320  221.0980 C   0  0  2  0  0  0  0  0  0  0  0  0
  142.2640   77.2540  220.1080 C   0  0  0  0  0  0  0  0  0  0  0  0
  141.5310   78.5870  222.0160 C   0  0  0  0  0  0  0  0  0  0  0  0
  141.9360   79.8060  221.4620 C   0  0  0  0  0  0  0  0  0  0  0  0
  142.2740   80.8880  222.2580 C   0  0  0  0  0  0  0  0  0  0  0  0
  142.2010   80.7410  223.6430 C   0  0  0  0  0  0  0  0  0  0  0  0
  141.8030   79.5430  224.2070 C   0  0  0  0  0  0  0  0  0  0  0  0
  141.4680   78.4680  223.3850 C   0  0  0  0  0  0  0  0  0  0  0  0
  136.6040   78.0490  222.3100 C   0  0  0  0  0  0  0  0  0  0  0  0
  136.3310   79.4820  222.2360 C   0  0  0  0  0  0  0  0  0  0  0  0
  140.5832   82.8018  222.1349 H   0  0  0  0  0  0  0  0  0  0  0  0
  139.8764   82.1435  220.6204 H   0  0  0  0  0  0  0  0  0  0  0  0
  140.6484   83.7655  220.6204 H   0  0  0  0  0  0  0  0  0  0  0  0
  138.7137   83.9250  222.6284 H   0  0  0  0  0  0  0  0  0  0  0  0
  138.6157   84.5892  220.9304 H   0  0  0  0  0  0  0  0  0  0  0  0
  135.6290   83.3530  223.1751 H   0  0  0  0  0  0  0  0  0  0  0  0
  135.2842   83.7232  225.6219 H   0  0  0  0  0  0  0  0  0  0  0  0
  136.6390   82.3669  227.2136 H   0  0  0  0  0  0  0  0  0  0  0  0
  138.2681   80.7136  226.4425 H   0  0  0  0  0  0  0  0  0  0  0  0
  138.6165   80.3364  223.9973 H   0  0  0  0  0  0  0  0  0  0  0  0
  136.7193   80.4406  220.4318 H   0  0  0  0  0  0  0  0  0  0  0  0
  139.0588   80.4126  220.3554 H   0  0  0  0  0  0  0  0  0  0  0  0
  139.1992   79.7969  222.0079 H   0  0  0  0  0  0  0  0  0  0  0  0
  137.5807   78.4276  219.7728 H   0  0  0  0  0  0  0  0  0  0  0  0
  139.2624   77.9754  220.2220 H   0  0  0  0  0  0  0  0  0  0  0  0
  139.2899   75.5519  220.5710 H   0  0  0  0  0  0  0  0  0  0  0  0
  139.0610   74.1220  223.0730 H   0  0  0  0  0  0  0  0  0  0  0  0
  139.2600   73.5360  221.5030 H   0  0  0  0  0  0  0  0  0  0  0  0
  140.8965   76.4990  222.9335 H   0  0  0  0  0  0  0  0  0  0  0  0
  141.5572   75.4746  221.5152 H   0  0  0  0  0  0  0  0  0  0  0  0
  140.2652   77.6533  220.5255 H   0  0  0  0  0  0  0  0  0  0  0  0
  143.2175   77.0977  220.6338 H   0  0  0  0  0  0  0  0  0  0  0  0
  142.0455   76.3797  219.4773 H   0  0  0  0  0  0  0  0  0  0  0  0
  142.3361   78.1523  219.4773 H   0  0  0  0  0  0  0  0  0  0  0  0
  141.9873   79.9077  220.3679 H   0  0  0  0  0  0  0  0  0  0  0  0
  142.5923   81.8402  221.8086 H   0  0  0  0  0  0  0  0  0  0  0  0
  142.4631   81.5879  224.2942 H   0  0  0  0  0  0  0  0  0  0  0  0
  141.7508   79.4384  225.3008 H   0  0  0  0  0  0  0  0  0  0  0  0
  141.1504   77.5159  223.8352 H   0  0  0  0  0  0  0  0  0  0  0  0
  135.7461   77.5260  221.8623 H   0  0  0  0  0  0  0  0  0  0  0  0
  136.7694   77.8487  223.3789 H   0  0  0  0  0  0  0  0  0  0  0  0
  135.3090   79.5910  221.8440 H   0  0  0  0  0  0  0  0  0  0  0  0
  136.5173   79.8290  223.2631 H   0  0  0  0  0  0  0  0  0  0  0  0
  1  2  1  0
  2  3  1  0
  3  4  2  0
  3  5  1  0
  5  6  1  0
  6  7  2  0
  7  8  1  0
  8  9  2  0
  9 10  1  0
 10 11  2  0
  5 12  1  0
 12 13  1  0
 13 14  1  0
 14 15  1  0
 15 16  1  0
 16 17  2  0
 16 18  1  0
 18 19  1  0
 18 20  1  0
 20 21  1  0
 21 22  1  0
 21 23  1  0
 23 24  2  0
 24 25  1  0
 25 26  2  0
 26 27  1  0
 27 28  2  0
 15 29  1  0
 29 30  1  0
 11  6  1  0
 30 12  1  0
 28 23  1  0
  1 31  1  0
  1 32  1  0
  1 33  1  0
  2 34  1  0
  2 35  1  0
  7 36  1  0
  8 37  1  0
  9 38  1  0
 10 39  1  0
 11 40  1  0
 12 41  1  0
 13 42  1  0
 13 43  1  0
 14 44  1  0
 14 45  1  0
 18 46  1  6
 19 47  1  0
 19 48  1  0
 20 49  1  0
 20 50  1  0
 21 51  1  6
 22 52  1  0
 22 53  1  0
 22 54  1  0
 24 55  1  0
 25 56  1  0
 26 57  1  0
 27 58  1  0
 28 59  1  0
 29 60  1  0
 29 61  1  0
 30 62  1  0
 30 63  1  0
M  END
>  <smiles>  (37) 
CCC(=O)N(c1ccccc1)C1CCN(C(=O)[C@H](N)CC(C)c2ccccc2)CC1

>  <score_type>  (37) 
oracle

>  <origin>  (37) 
autodockgpu

>  <m_score__min__energy>  (37) 
-8.8699999999999992

>  <m_primary>  (37) 
energy

>  <rmsd>  (37) 
4.069118827918046

>  <m_score__min__rmsd>  (37) 
4.069118827918046

>  <meeko>  (37) 
{"free_energy": -5.92, "intermolecular_energy": -8.61, "internal_energy": -3.56, "cluster_size": 7, "cluster_id": 11, "rank_in_cluster": 5}

>  <energy>  (37) 
-6.94

>  <cluster_rmsd>  (37) 
0.41

>  <cluster>  (37) 
9

$$$$

     RDKit          3D

 63 65  0  0  0  0  0  0  0  0999 V2000
  140.2260   71.0120  221.0830 C   0  0  0  0  0  0  0  0  0  0  0  0
  141.1150   71.8730  221.9500 C   0  0  0  0  0  0  0  0  0  0  0  0
  141.0480   73.3140  221.6100 C   0  0  0  0  0  0  0  0  0  0  0  0
  140.2860   74.0360  222.3140 O   0  0  0  0  0  0  0  0  0  0  0  0
  141.8220   73.8440  220.5290 N   0  0  0  0  0  0  0  0  0  0  0  0
  143.1800   73.4360  220.3990 C   0  0  0  0  0  0  0  0  0  0  0  0
  144.1650   74.3150  220.8170 C   0  0  0  0  0  0  0  0  0  0  0  0
  145.4980   73.9760  220.7140 C   0  0  0  0  0  0  0  0  0  0  0  0
  145.7910   72.7250  220.1800 C   0  0  0  0  0  0  0  0  0  0  0  0
  144.8220   71.8480  219.7650 C   0  0  0  0  0  0  0  0  0  0  0  0
  143.4870   72.1870  219.8660 C   0  0  0  0  0  0  0  0  0  0  0  0
  141.1950   74.7870  219.6050 C   0  0  0  0  0  0  0  0  0  0  0  0
  141.0820   76.1500  220.2120 C   0  0  0  0  0  0  0  0  0  0  0  0
  140.5560   77.0510  219.1040 C   0  0  0  0  0  0  0  0  0  0  0  0
  141.5520   77.1950  218.0810 N   0  0  0  0  0  0  0  0  0  0  0  0
  142.0980   78.3840  217.5690 C   0  0  0  0  0  0  0  0  0  0  0  0
  143.0050   78.2420  216.6470 O   0  0  0  0  0  0  0  0  0  0  0  0
  141.8120   79.7770  217.9100 C   0  0  2  0  0  0  0  0  0  0  0  0
  142.3410   80.7470  216.9780 N   0  0  0  0  0  0  0  0  0  0  0  0
  142.2260   80.2210  219.2860 C   0  0  0  0  0  0  0  0  0  0  0  0
  141.1930   80.6770  220.2270 C   0  0  2  0  0  0  0  0  0  0  0  0
  141.0430   82.1470  220.3240 C   0  0  0  0  0  0  0  0  0  0  0  0
  141.4280   80.1110  221.6140 C   0  0  0  0  0  0  0  0  0  0  0  0
  140.9540   78.8320  221.9240 C   0  0  0  0  0  0  0  0  0  0  0  0
  141.1400   78.2730  223.1780 C   0  0  0  0  0  0  0  0  0  0  0  0
  141.8180   79.0180  224.1410 C   0  0  0  0  0  0  0  0  0  0  0  0
  142.2930   80.2840  223.8520 C   0  0  0  0  0  0  0  0  0  0  0  0
  142.0940   80.8250  222.5830 C   0  0  0  0  0  0  0  0  0  0  0  0
  142.0440   75.9450  217.5050 C   0  0  0  0  0  0  0  0  0  0  0  0
  141.9090   74.7340  218.3130 C   0  0  0  0  0  0  0  0  0  0  0  0
  139.5828   70.3891  221.7220 H   0  0  0  0  0  0  0  0  0  0  0  0
  139.5992   71.6552  220.4479 H   0  0  0  0  0  0  0  0  0  0  0  0
  140.8488   70.3649  220.4479 H   0  0  0  0  0  0  0  0  0  0  0  0
  140.8076   71.7471  222.9986 H   0  0  0  0  0  0  0  0  0  0  0  0
  142.1514   71.5460  221.7796 H   0  0  0  0  0  0  0  0  0  0  0  0
  143.8818   75.2923  221.2349 H   0  0  0  0  0  0  0  0  0  0  0  0
  146.2930   74.6632  221.0391 H   0  0  0  0  0  0  0  0  0  0  0  0
  146.8456   72.4266  220.0867 H   0  0  0  0  0  0  0  0  0  0  0  0
  145.1091   70.8706  219.3500 H   0  0  0  0  0  0  0  0  0  0  0  0
  142.6962   71.4964  219.5378 H   0  0  0  0  0  0  0  0  0  0  0  0
  140.1526   74.5007  219.4017 H   0  0  0  0  0  0  0  0  0  0  0  0
  140.3813   76.1355  221.0599 H   0  0  0  0  0  0  0  0  0  0  0  0
  142.0490   76.5040  220.5989 H   0  0  0  0  0  0  0  0  0  0  0  0
  139.6488   76.6050  218.6703 H   0  0  0  0  0  0  0  0  0  0  0  0
  140.3189   78.0404  219.5221 H   0  0  0  0  0  0  0  0  0  0  0  0
  140.7132   79.7590  217.8615 H   0  0  0  0  0  0  0  0  0  0  0  0
  143.1900   80.4050  216.4800 H   0  0  0  0  0  0  0  0  0  0  0  0
  141.6370   81.0340  216.2830 H   0  0  0  0  0  0  0  0  0  0  0  0
  142.7400   79.3709  219.7583 H   0  0  0  0  0  0  0  0  0  0  0  0
  142.8322   81.1204  219.1025 H   0  0  0  0  0  0  0  0  0  0  0  0
  140.2529   80.2927  219.8045 H   0  0  0  0  0  0  0  0  0  0  0  0
  141.0128   82.4434  221.3829 H   0  0  0  0  0  0  0  0  0  0  0  0
  141.8959   82.6360  219.8306 H   0  0  0  0  0  0  0  0  0  0  0  0
  140.1089   82.4536  219.8306 H   0  0  0  0  0  0  0  0  0  0  0  0
  140.4206   78.2560  221.1534 H   0  0  0  0  0  0  0  0  0  0  0  0
  140.7618   77.2659  223.4078 H   0  0  0  0  0  0  0  0  0  0  0  0
  141.9772   78.5937  225.1433 H   0  0  0  0  0  0  0  0  0  0  0  0
  142.8261   80.8622  224.6210 H   0  0  0  0  0  0  0  0  0  0  0  0
  142.4729   81.8320  222.3543 H   0  0  0  0  0  0  0  0  0  0  0  0
  141.4980   75.7772  216.5649 H   0  0  0  0  0  0  0  0  0  0  0  0
  143.1287   76.0922  217.3970 H   0  0  0  0  0  0  0  0  0  0  0  0
  141.3859   73.9931  217.6906 H   0  0  0  0  0  0  0  0  0  0  0  0
  142.9449   74.5062  218.6044 H   0  0  0  0  0  0  0  0  0  0  0  0
  1  2  1  0
  2  3  1  0
  3  4  2  0
  3  5  1  0
  5  6  1  0
  6  7  2  0
  7  8  1  0
  8  9  2  0
  9 10  1  0
 10 11  2  0
  5 12  1  0
 12 13  1  0
 13 14  1  0
 14 15  1  0
 15 16  1  0
 16 17  2  0
 16 18  1  0
 18 19  1  0
 18 20  1  0
 20 21  1  0
 21 22  1  0
 21 23  1  0
 23 24  2  0
 24 25  1  0
 25 26  2  0
 26 27  1  0
 27 28  2  0
 15 29  1  0
 29 30  1  0
 11  6  1  0
 30 12  1  0
 28 23  1  0
  1 31  1  0
  1 32  1  0
  1 33  1  0
  2 34  1  0
  2 35  1  0
  7 36  1  0
  8 37  1  0
  9 38  1  0
 10 39  1  0
 11 40  1  0
 12 41  1  0
 13 42  1  0
 13 43  1  0
 14 44  1  0
 14 45  1  0
 18 46  1  1
 19 47  1  0
 19 48  1  0
 20 49  1  0
 20 50  1  0
 21 51  1  6
 22 52  1  0
 22 53  1  0
 22 54  1  0
 24 55  1  0
 25 56  1  0
 26 57  1  0
 27 58  1  0
 28 59  1  0
 29 60  1  0
 29 61  1  0
 30 62  1  0
 30 63  1  0
M  END
>  <smiles>  (38) 
CCC(=O)N(c1ccccc1)C1CCN(C(=O)[C@H](N)CC(C)c2ccccc2)CC1

>  <score_type>  (38) 
oracle

>  <origin>  (38) 
autodockgpu

>  <m_score__min__energy>  (38) 
-8.8699999999999992

>  <m_primary>  (38) 
energy

>  <rmsd>  (38) 
6.064449070934668

>  <m_score__min__rmsd>  (38) 
6.064449070934668

>  <meeko>  (38) 
{"free_energy": -6.77, "intermolecular_energy": -9.46, "internal_energy": -2.87, "cluster_size": 6, "cluster_id": 9, "rank_in_cluster": 5}

>  <energy>  (38) 
-6.77

>  <cluster_rmsd>  (38) 
0.5

>  <cluster>  (38) 
9

$$$$

     RDKit          3D

 63 65  0  0  0  0  0  0  0  0999 V2000
  142.9310   80.8140  223.8760 C   0  0  0  0  0  0  0  0  0  0  0  0
  142.5580   79.7740  222.8450 C   0  0  0  0  0  0  0  0  0  0  0  0
  141.5750   78.7830  223.3380 C   0  0  0  0  0  0  0  0  0  0  0  0
  141.9030   78.1010  224.3500 O   0  0  0  0  0  0  0  0  0  0  0  0
  140.3120   78.6210  222.6820 N   0  0  0  0  0  0  0  0  0  0  0  0
  139.2900   79.5810  222.9260 C   0  0  0  0  0  0  0  0  0  0  0  0
  138.7880   80.2840  221.8430 C   0  0  0  0  0  0  0  0  0  0  0  0
  137.7970   81.2280  222.0180 C   0  0  0  0  0  0  0  0  0  0  0  0
  137.3400   81.4290  223.3160 C   0  0  0  0  0  0  0  0  0  0  0  0
  137.8310   80.7370  224.3930 C   0  0  0  0  0  0  0  0  0  0  0  0
  138.8230   79.7930  224.2200 C   0  0  0  0  0  0  0  0  0  0  0  0
  140.1170   77.4750  221.7950 C   0  0  0  0  0  0  0  0  0  0  0  0
  141.0720   76.3680  222.1190 C   0  0  0  0  0  0  0  0  0  0  0  0
  140.6630   75.2010  221.2310 C   0  0  0  0  0  0  0  0  0  0  0  0
  139.3810   74.7040  221.6430 N   0  0  0  0  0  0  0  0  0  0  0  0
  139.0430   73.3890  222.0040 C   0  0  0  0  0  0  0  0  0  0  0  0
  137.8040   73.1970  222.3560 O   0  0  0  0  0  0  0  0  0  0  0  0
  139.8660   72.1810  222.0530 C   0  0  2  0  0  0  0  0  0  0  0  0
  139.2280   70.9940  221.5330 N   0  0  0  0  0  0  0  0  0  0  0  0
  140.4310   71.8190  223.4000 C   0  0  0  0  0  0  0  0  0  0  0  0
  139.7370   70.8130  224.2150 C   0  0  2  0  0  0  0  0  0  0  0  0
  138.2590   70.9080  224.1980 C   0  0  0  0  0  0  0  0  0  0  0  0
  140.2180   70.8470  225.6530 C   0  0  0  0  0  0  0  0  0  0  0  0
  139.8690   69.8040  226.5190 C   0  0  0  0  0  0  0  0  0  0  0  0
  140.2790   69.7920  227.8420 C   0  0  0  0  0  0  0  0  0  0  0  0
  141.0590   70.8510  228.3040 C   0  0  0  0  0  0  0  0  0  0  0  0
  141.4130   71.8890  227.4620 C   0  0  0  0  0  0  0  0  0  0  0  0
  140.9880   71.8790  226.1340 C   0  0  0  0  0  0  0  0  0  0  0  0
  138.3070   75.6920  221.6790 C   0  0  0  0  0  0  0  0  0  0  0  0
  138.6890   77.0960  221.8140 C   0  0  0  0  0  0  0  0  0  0  0  0
  142.7826   80.4003  224.8844 H   0  0  0  0  0  0  0  0  0  0  0  0
  143.9864   81.0961  223.7470 H   0  0  0  0  0  0  0  0  0  0  0  0
  142.2955   81.7026  223.7470 H   0  0  0  0  0  0  0  0  0  0  0  0
  142.1280   80.2870  221.9721 H   0  0  0  0  0  0  0  0  0  0  0  0
  143.4760   79.2229  222.5931 H   0  0  0  0  0  0  0  0  0  0  0  0
  139.1827   80.0880  220.8351 H   0  0  0  0  0  0  0  0  0  0  0  0
  137.3872   81.7957  221.1696 H   0  0  0  0  0  0  0  0  0  0  0  0
  136.5503   82.1756  223.4860 H   0  0  0  0  0  0  0  0  0  0  0  0
  137.4327   80.9350  225.3991 H   0  0  0  0  0  0  0  0  0  0  0  0
  139.2293   79.2293  225.0728 H   0  0  0  0  0  0  0  0  0  0  0  0
  140.3601   77.7388  220.7551 H   0  0  0  0  0  0  0  0  0  0  0  0
  142.1049   76.6750  221.8980 H   0  0  0  0  0  0  0  0  0  0  0  0
  141.0373   76.0997  223.1852 H   0  0  0  0  0  0  0  0  0  0  0  0
  140.6050   75.5398  220.1861 H   0  0  0  0  0  0  0  0  0  0  0  0
  141.4097   74.3980  221.3188 H   0  0  0  0  0  0  0  0  0  0  0  0
  140.6911   72.4911  221.3950 H   0  0  0  0  0  0  0  0  0  0  0  0
  139.5260   70.1260  222.0280 H   0  0  0  0  0  0  0  0  0  0  0  0
  138.2010   71.0640  221.5700 H   0  0  0  0  0  0  0  0  0  0  0  0
  141.4532   71.4489  223.2322 H   0  0  0  0  0  0  0  0  0  0  0  0
  140.3344   72.7456  223.9849 H   0  0  0  0  0  0  0  0  0  0  0  0
  139.9957   69.8548  223.7407 H   0  0  0  0  0  0  0  0  0  0  0  0
  137.8812   70.9323  225.2308 H   0  0  0  0  0  0  0  0  0  0  0  0
  137.9567   71.8274  223.6753 H   0  0  0  0  0  0  0  0  0  0  0  0
  137.8414   70.0348  223.6753 H   0  0  0  0  0  0  0  0  0  0  0  0
  139.2545   68.9742  226.1398 H   0  0  0  0  0  0  0  0  0  0  0  0
  139.9960   68.9667  228.5119 H   0  0  0  0  0  0  0  0  0  0  0  0
  141.3968   70.8609  229.3508 H   0  0  0  0  0  0  0  0  0  0  0  0
  142.0278   72.7199  227.8385 H   0  0  0  0  0  0  0  0  0  0  0  0
  141.2716   72.7048  225.4650 H   0  0  0  0  0  0  0  0  0  0  0  0
  137.7368   75.5937  220.7435 H   0  0  0  0  0  0  0  0  0  0  0  0
  137.7455   75.4638  222.5970 H   0  0  0  0  0  0  0  0  0  0  0  0
  138.2048   77.6383  220.9885 H   0  0  0  0  0  0  0  0  0  0  0  0
  138.3724   77.3485  222.8367 H   0  0  0  0  0  0  0  0  0  0  0  0
  1  2  1  0
  2  3  1  0
  3  4  2  0
  3  5  1  0
  5  6  1  0
  6  7  2  0
  7  8  1  0
  8  9  2  0
  9 10  1  0
 10 11  2  0
  5 12  1  0
 12 13  1  0
 13 14  1  0
 14 15  1  0
 15 16  1  0
 16 17  2  0
 16 18  1  0
 18 19  1  0
 18 20  1  0
 20 21  1  0
 21 22  1  0
 21 23  1  0
 23 24  2  0
 24 25  1  0
 25 26  2  0
 26 27  1  0
 27 28  2  0
 15 29  1  0
 29 30  1  0
 11  6  1  0
 30 12  1  0
 28 23  1  0
  1 31  1  0
  1 32  1  0
  1 33  1  0
  2 34  1  0
  2 35  1  0
  7 36  1  0
  8 37  1  0
  9 38  1  0
 10 39  1  0
 11 40  1  0
 12 41  1  0
 13 42  1  0
 13 43  1  0
 14 44  1  0
 14 45  1  0
 18 46  1  6
 19 47  1  0
 19 48  1  0
 20 49  1  0
 20 50  1  0
 21 51  1  6
 22 52  1  0
 22 53  1  0
 22 54  1  0
 24 55  1  0
 25 56  1  0
 26 57  1  0
 27 58  1  0
 28 59  1  0
 29 60  1  0
 29 61  1  0
 30 62  1  0
 30 63  1  0
M  END
>  <smiles>  (39) 
CCC(=O)N(c1ccccc1)C1CCN(C(=O)[C@H](N)CC(C)c2ccccc2)CC1

>  <score_type>  (39) 
oracle

>  <origin>  (39) 
autodockgpu

>  <m_score__min__energy>  (39) 
-8.8699999999999992

>  <m_primary>  (39) 
energy

>  <rmsd>  (39) 
6.406266222629907

>  <m_score__min__rmsd>  (39) 
6.406266222629907

>  <meeko>  (39) 
{"free_energy": -7.57, "intermolecular_energy": -10.25, "internal_energy": -2.03, "cluster_size": 4, "cluster_id": 6, "rank_in_cluster": 1}

>  <energy>  (39) 
-6.61

>  <cluster_rmsd>  (39) 
0.62

>  <cluster>  (39) 
9

$$$$

     RDKit          3D

 63 65  0  0  0  0  0  0  0  0999 V2000
  145.7180   74.1030  220.8570 C   0  0  0  0  0  0  0  0  0  0  0  0
  145.9400   72.6510  220.5030 C   0  0  0  0  0  0  0  0  0  0  0  0
  145.5750   72.3240  219.1050 C   0  0  0  0  0  0  0  0  0  0  0  0
  146.0830   73.0400  218.1960 O   0  0  0  0  0  0  0  0  0  0  0  0
  144.6830   71.2410  218.8190 N   0  0  0  0  0  0  0  0  0  0  0  0
  145.2370   69.9800  218.4610 C   0  0  0  0  0  0  0  0  0  0  0  0
  145.6130   69.7860  217.1420 C   0  0  0  0  0  0  0  0  0  0  0  0
  146.1540   68.5850  216.7350 C   0  0  0  0  0  0  0  0  0  0  0  0
  146.3000   67.5990  217.7050 C   0  0  0  0  0  0  0  0  0  0  0  0
  145.9320   67.7820  219.0130 C   0  0  0  0  0  0  0  0  0  0  0  0
  145.3890   68.9840  219.4220 C   0  0  0  0  0  0  0  0  0  0  0  0
  143.2420   71.4710  218.8980 C   0  0  0  0  0  0  0  0  0  0  0  0
  142.5930   70.5330  219.8670 C   0  0  0  0  0  0  0  0  0  0  0  0
  141.1400   70.9770  219.9590 C   0  0  0  0  0  0  0  0  0  0  0  0
  141.0640   72.2610  220.5950 N   0  0  0  0  0  0  0  0  0  0  0  0
  140.3150   72.6190  221.7280 C   0  0  0  0  0  0  0  0  0  0  0  0
  140.4300   73.8550  222.1190 O   0  0  0  0  0  0  0  0  0  0  0  0
  139.4130   71.8170  222.5560 C   0  0  2  0  0  0  0  0  0  0  0  0
  138.1020   72.3910  222.7500 N   0  0  0  0  0  0  0  0  0  0  0  0
  139.9290   71.4350  223.9170 C   0  0  0  0  0  0  0  0  0  0  0  0
  139.9450   70.0160  224.2980 C   0  0  2  0  0  0  0  0  0  0  0  0
  138.6730   69.2940  224.0670 C   0  0  0  0  0  0  0  0  0  0  0  0
  140.3550   69.8430  225.7480 C   0  0  0  0  0  0  0  0  0  0  0  0
  140.3940   68.5590  226.3030 C   0  0  0  0  0  0  0  0  0  0  0  0
  140.7570   68.3500  227.6230 C   0  0  0  0  0  0  0  0  0  0  0  0
  141.0890   69.4570  228.4020 C   0  0  0  0  0  0  0  0  0  0  0  0
  141.0560   70.7330  227.8700 C   0  0  0  0  0  0  0  0  0  0  0  0
  140.6870   70.9180  226.5380 C   0  0  0  0  0  0  0  0  0  0  0  0
  141.8610   73.3170  219.9740 C   0  0  0  0  0  0  0  0  0  0  0  0
  143.0020   72.9060  219.1590 C   0  0  0  0  0  0  0  0  0  0  0  0
  145.7009   74.2152  221.9511 H   0  0  0  0  0  0  0  0  0  0  0  0
  146.5336   74.7112  220.4388 H   0  0  0  0  0  0  0  0  0  0  0  0
  144.7579   74.4397  220.4388 H   0  0  0  0  0  0  0  0  0  0  0  0
  147.0043   72.4151  220.6498 H   0  0  0  0  0  0  0  0  0  0  0  0
  145.2878   72.0538  221.1572 H   0  0  0  0  0  0  0  0  0  0  0  0
  145.4787   70.5980  216.4122 H   0  0  0  0  0  0  0  0  0  0  0  0
  146.4563   68.4144  215.6912 H   0  0  0  0  0  0  0  0  0  0  0  0
  146.7294   66.6302  217.4099 H   0  0  0  0  0  0  0  0  0  0  0  0
  146.0699   66.9678  219.7397 H   0  0  0  0  0  0  0  0  0  0  0  0
  145.0880   69.1483  220.4672 H   0  0  0  0  0  0  0  0  0  0  0  0
  142.7561   71.2385  217.9389 H   0  0  0  0  0  0  0  0  0  0  0  0
  142.6554   69.4981  219.4995 H   0  0  0  0  0  0  0  0  0  0  0  0
  143.0880   70.5569  220.8490 H   0  0  0  0  0  0  0  0  0  0  0  0
  140.7140   71.0448  218.9471 H   0  0  0  0  0  0  0  0  0  0  0  0
  140.5728   70.2439  220.5513 H   0  0  0  0  0  0  0  0  0  0  0  0
  139.3456   70.9108  221.9361 H   0  0  0  0  0  0  0  0  0  0  0  0
  138.1190   73.4330  222.7870 H   0  0  0  0  0  0  0  0  0  0  0  0
  137.4410   72.0930  222.0180 H   0  0  0  0  0  0  0  0  0  0  0  0
  140.9650   71.7987  223.9832 H   0  0  0  0  0  0  0  0  0  0  0  0
  139.2054   71.8874  224.6111 H   0  0  0  0  0  0  0  0  0  0  0  0
  140.6897   69.5638  223.6265 H   0  0  0  0  0  0  0  0  0  0  0  0
  138.2173   69.0354  225.0342 H   0  0  0  0  0  0  0  0  0  0  0  0
  137.9850   69.9362  223.4976 H   0  0  0  0  0  0  0  0  0  0  0  0
  138.8717   68.3741  223.4976 H   0  0  0  0  0  0  0  0  0  0  0  0
  140.1300   67.6949  225.6757 H   0  0  0  0  0  0  0  0  0  0  0  0
  140.7827   67.3350  228.0463 H   0  0  0  0  0  0  0  0  0  0  0  0
  141.3809   69.3139  229.4529 H   0  0  0  0  0  0  0  0  0  0  0  0
  141.3198   71.5988  228.4951 H   0  0  0  0  0  0  0  0  0  0  0  0
  140.6613   71.9333  226.1156 H   0  0  0  0  0  0  0  0  0  0  0  0
  141.1887   73.9023  219.3295 H   0  0  0  0  0  0  0  0  0  0  0  0
  142.3014   73.8701  220.8167 H   0  0  0  0  0  0  0  0  0  0  0  0
  142.8847   73.3922  218.1793 H   0  0  0  0  0  0  0  0  0  0  0  0
  143.8689   73.2019  219.7680 H   0  0  0  0  0  0  0  0  0  0  0  0
  1  2  1  0
  2  3  1  0
  3  4  2  0
  3  5  1  0
  5  6  1  0
  6  7  2  0
  7  8  1  0
  8  9  2  0
  9 10  1  0
 10 11  2  0
  5 12  1  0
 12 13  1  0
 13 14  1  0
 14 15  1  0
 15 16  1  0
 16 17  2  0
 16 18  1  0
 18 19  1  0
 18 20  1  0
 20 21  1  0
 21 22  1  0
 21 23  1  0
 23 24  2  0
 24 25  1  0
 25 26  2  0
 26 27  1  0
 27 28  2  0
 15 29  1  0
 29 30  1  0
 11  6  1  0
 30 12  1  0
 28 23  1  0
  1 31  1  0
  1 32  1  0
  1 33  1  0
  2 34  1  0
  2 35  1  0
  7 36  1  0
  8 37  1  0
  9 38  1  0
 10 39  1  0
 11 40  1  0
 12 41  1  0
 13 42  1  0
 13 43  1  0
 14 44  1  0
 14 45  1  0
 18 46  1  6
 19 47  1  0
 19 48  1  0
 20 49  1  0
 20 50  1  0
 21 51  1  6
 22 52  1  0
 22 53  1  0
 22 54  1  0
 24 55  1  0
 25 56  1  0
 26 57  1  0
 27 58  1  0
 28 59  1  0
 29 60  1  0
 29 61  1  0
 30 62  1  0
 30 63  1  0
M  END
>  <smiles>  (40) 
CCC(=O)N(c1ccccc1)C1CCN(C(=O)[C@H](N)CC(C)c2ccccc2)CC1

>  <score_type>  (40) 
oracle

>  <origin>  (40) 
autodockgpu

>  <m_score__min__energy>  (40) 
-8.8699999999999992

>  <m_primary>  (40) 
energy

>  <rmsd>  (40) 
8.530819438667432

>  <m_score__min__rmsd>  (40) 
8.530819438667432

>  <meeko>  (40) 
{"free_energy": -8.35, "intermolecular_energy": -11.03, "internal_energy": -2.02, "cluster_size": 10, "cluster_id": 1, "rank_in_cluster": 6}

>  <energy>  (40) 
-6.53

>  <cluster_rmsd>  (40) 
0.0

>  <cluster>  (40) 
10

$$$$

     RDKit          3D

 63 65  0  0  0  0  0  0  0  0999 V2000
  137.7910   80.8450  224.3490 C   0  0  0  0  0  0  0  0  0  0  0  0
  137.4930   81.4140  222.9810 C   0  0  0  0  0  0  0  0  0  0  0  0
  138.5890   81.2080  222.0070 C   0  0  0  0  0  0  0  0  0  0  0  0
  138.7490   82.0990  221.1240 O   0  0  0  0  0  0  0  0  0  0  0  0
  139.4190   80.0440  222.0800 N   0  0  0  0  0  0  0  0  0  0  0  0
  140.7410   80.1810  222.5900 C   0  0  0  0  0  0  0  0  0  0  0  0
  140.9950   81.2250  223.4640 C   0  0  0  0  0  0  0  0  0  0  0  0
  142.2560   81.4090  223.9900 C   0  0  0  0  0  0  0  0  0  0  0  0
  143.2390   80.5040  223.6020 C   0  0  0  0  0  0  0  0  0  0  0  0
  142.9960   79.4670  222.7380 C   0  0  0  0  0  0  0  0  0  0  0  0
  141.7340   79.2830  222.2100 C   0  0  0  0  0  0  0  0  0  0  0  0
  138.8830   78.7630  221.6220 C   0  0  0  0  0  0  0  0  0  0  0  0
  139.6500   78.2410  220.4470 C   0  0  0  0  0  0  0  0  0  0  0  0
  139.0890   76.8530  220.1750 C   0  0  0  0  0  0  0  0  0  0  0  0
  139.4340   75.9690  221.2510 N   0  0  0  0  0  0  0  0  0  0  0  0
  140.1060   74.7380  221.1740 C   0  0  0  0  0  0  0  0  0  0  0  0
  140.3120   74.1310  222.3070 O   0  0  0  0  0  0  0  0  0  0  0  0
  140.6240   74.0160  220.0120 C   0  0  2  0  0  0  0  0  0  0  0  0
  141.2280   72.7390  220.3150 N   0  0  0  0  0  0  0  0  0  0  0  0
  141.5990   74.7660  219.1460 C   0  0  0  0  0  0  0  0  0  0  0  0
  142.8090   75.3280  219.7620 C   0  0  2  0  0  0  0  0  0  0  0  0
  143.3050   76.5770  219.1390 C   0  0  0  0  0  0  0  0  0  0  0  0
  143.9330   74.3100  219.7890 C   0  0  0  0  0  0  0  0  0  0  0  0
  144.0850   73.4260  218.7150 C   0  0  0  0  0  0  0  0  0  0  0  0
  145.0920   72.4750  218.6960 C   0  0  0  0  0  0  0  0  0  0  0  0
  145.9660   72.4120  219.7800 C   0  0  0  0  0  0  0  0  0  0  0  0
  145.8290   73.2770  220.8500 C   0  0  0  0  0  0  0  0  0  0  0  0
  144.8080   74.2260  220.8470 C   0  0  0  0  0  0  0  0  0  0  0  0
  139.0230   76.4110  222.5810 C   0  0  0  0  0  0  0  0  0  0  0  0
  138.8010   77.8430  222.7750 C   0  0  0  0  0  0  0  0  0  0  0  0
  137.4278   81.5386  225.1217 H   0  0  0  0  0  0  0  0  0  0  0  0
  137.2854   79.8744  224.4605 H   0  0  0  0  0  0  0  0  0  0  0  0
  138.8767   80.7078  224.4605 H   0  0  0  0  0  0  0  0  0  0  0  0
  136.5852   80.9296  222.5920 H   0  0  0  0  0  0  0  0  0  0  0  0
  137.3656   82.4999  223.1017 H   0  0  0  0  0  0  0  0  0  0  0  0
  140.1832   81.9136  223.7410 H   0  0  0  0  0  0  0  0  0  0  0  0
  142.4749   82.2334  224.6845 H   0  0  0  0  0  0  0  0  0  0  0  0
  144.2550   80.6255  224.0057 H   0  0  0  0  0  0  0  0  0  0  0  0
  143.8099   78.7793  222.4648 H   0  0  0  0  0  0  0  0  0  0  0  0
  141.5211   78.4575  221.5149 H   0  0  0  0  0  0  0  0  0  0  0  0
  137.8591   78.8816  221.2379 H   0  0  0  0  0  0  0  0  0  0  0  0
  139.5033   78.8924  219.5728 H   0  0  0  0  0  0  0  0  0  0  0  0
  140.7310   78.2105  220.6481 H   0  0  0  0  0  0  0  0  0  0  0  0
  137.9940   76.9124  220.0882 H   0  0  0  0  0  0  0  0  0  0  0  0
  139.5152   76.4668  219.2373 H   0  0  0  0  0  0  0  0  0  0  0  0
  139.6893   73.8739  219.4497 H   0  0  0  0  0  0  0  0  0  0  0  0
  141.5490   72.6700  221.3040 H   0  0  0  0  0  0  0  0  0  0  0  0
  140.5890   71.9560  220.1150 H   0  0  0  0  0  0  0  0  0  0  0  0
  141.9297   74.0736  218.3578 H   0  0  0  0  0  0  0  0  0  0  0  0
  141.0344   75.6504  218.8158 H   0  0  0  0  0  0  0  0  0  0  0  0
  142.4953   75.5895  220.7834 H   0  0  0  0  0  0  0  0  0  0  0  0
  143.5887   77.2916  219.9257 H   0  0  0  0  0  0  0  0  0  0  0  0
  144.1820   76.3520  218.5143 H   0  0  0  0  0  0  0  0  0  0  0  0
  142.5125   77.0150  218.5143 H   0  0  0  0  0  0  0  0  0  0  0  0
  143.3885   73.4877  217.8659 H   0  0  0  0  0  0  0  0  0  0  0  0
  145.1994   71.7857  217.8455 H   0  0  0  0  0  0  0  0  0  0  0  0
  146.7740   71.6656  219.7843 H   0  0  0  0  0  0  0  0  0  0  0  0
  146.5235   73.2164  221.7009 H   0  0  0  0  0  0  0  0  0  0  0  0
  144.7010   74.9141  221.6986 H   0  0  0  0  0  0  0  0  0  0  0  0
  138.0823   75.8953  222.8241 H   0  0  0  0  0  0  0  0  0  0  0  0
  139.8739   76.1671  223.2341 H   0  0  0  0  0  0  0  0  0  0  0  0
  137.7923   77.9540  223.1995 H   0  0  0  0  0  0  0  0  0  0  0  0
  139.6492   78.1488  223.4051 H   0  0  0  0  0  0  0  0  0  0  0  0
  1  2  1  0
  2  3  1  0
  3  4  2  0
  3  5  1  0
  5  6  1  0
  6  7  2  0
  7  8  1  0
  8  9  2  0
  9 10  1  0
 10 11  2  0
  5 12  1  0
 12 13  1  0
 13 14  1  0
 14 15  1  0
 15 16  1  0
 16 17  2  0
 16 18  1  0
 18 19  1  0
 18 20  1  0
 20 21  1  0
 21 22  1  0
 21 23  1  0
 23 24  2  0
 24 25  1  0
 25 26  2  0
 26 27  1  0
 27 28  2  0
 15 29  1  0
 29 30  1  0
 11  6  1  0
 30 12  1  0
 28 23  1  0
  1 31  1  0
  1 32  1  0
  1 33  1  0
  2 34  1  0
  2 35  1  0
  7 36  1  0
  8 37  1  0
  9 38  1  0
 10 39  1  0
 11 40  1  0
 12 41  1  0
 13 42  1  0
 13 43  1  0
 14 44  1  0
 14 45  1  0
 18 46  1  6
 19 47  1  0
 19 48  1  0
 20 49  1  0
 20 50  1  0
 21 51  1  1
 22 52  1  0
 22 53  1  0
 22 54  1  0
 24 55  1  0
 25 56  1  0
 26 57  1  0
 27 58  1  0
 28 59  1  0
 29 60  1  0
 29 61  1  0
 30 62  1  0
 30 63  1  0
M  END
>  <smiles>  (41) 
CCC(=O)N(c1ccccc1)C1CCN(C(=O)[C@H](N)CC(C)c2ccccc2)CC1

>  <score_type>  (41) 
oracle

>  <origin>  (41) 
autodockgpu

>  <m_score__min__energy>  (41) 
-8.8699999999999992

>  <m_primary>  (41) 
energy

>  <rmsd>  (41) 
3.972296787199633

>  <m_score__min__rmsd>  (41) 
3.972296787199633

>  <meeko>  (41) 
{"free_energy": -6.53, "intermolecular_energy": -9.22, "internal_energy": -2.79, "cluster_size": 3, "cluster_id": 10, "rank_in_cluster": 1}

>  <energy>  (41) 
-6.48

>  <cluster_rmsd>  (41) 
0.94

>  <cluster>  (41) 
10

$$$$

     RDKit          3D

 63 65  0  0  0  0  0  0  0  0999 V2000
  140.6890   82.6900  220.2640 C   0  0  0  0  0  0  0  0  0  0  0  0
  139.8380   83.1070  221.4400 C   0  0  0  0  0  0  0  0  0  0  0  0
  138.4070   82.7610  221.2820 C   0  0  0  0  0  0  0  0  0  0  0  0
  137.7400   83.4380  220.4490 O   0  0  0  0  0  0  0  0  0  0  0  0
  137.8250   81.7020  222.0500 N   0  0  0  0  0  0  0  0  0  0  0  0
  137.4720   81.9570  223.4040 C   0  0  0  0  0  0  0  0  0  0  0  0
  136.5190   82.9320  223.6550 C   0  0  0  0  0  0  0  0  0  0  0  0
  136.1370   83.2240  224.9470 C   0  0  0  0  0  0  0  0  0  0  0  0
  136.7480   82.4990  225.9640 C   0  0  0  0  0  0  0  0  0  0  0  0
  137.6910   81.5320  225.7260 C   0  0  0  0  0  0  0  0  0  0  0  0
  138.0760   81.2390  224.4330 C   0  0  0  0  0  0  0  0  0  0  0  0
  137.6230   80.3990  221.4180 C   0  0  0  0  0  0  0  0  0  0  0  0
  138.9280   79.7640  221.0490 C   0  0  0  0  0  0  0  0  0  0  0  0
  138.5790   78.3710  220.5470 C   0  0  0  0  0  0  0  0  0  0  0  0
  138.0860   77.5720  221.6320 N   0  0  0  0  0  0  0  0  0  0  0  0
  138.5610   76.3250  222.0710 C   0  0  0  0  0  0  0  0  0  0  0  0
  137.9450   75.8100  223.0950 O   0  0  0  0  0  0  0  0  0  0  0  0
  139.6540   75.4980  221.5590 C   0  0  2  0  0  0  0  0  0  0  0  0
  139.6830   74.1490  222.0780 N   0  0  0  0  0  0  0  0  0  0  0  0
  141.0400   76.0590  221.7210 C   0  0  0  0  0  0  0  0  0  0  0  0
  141.4080   77.2710  220.9760 C   0  0  2  0  0  0  0  0  0  0  0  0
  142.5500   77.1100  220.0470 C   0  0  0  0  0  0  0  0  0  0  0  0
  141.6950   78.4260  221.9160 C   0  0  0  0  0  0  0  0  0  0  0  0
  141.4420   78.2770  223.2840 C   0  0  0  0  0  0  0  0  0  0  0  0
  141.6830   79.3040  224.1820 C   0  0  0  0  0  0  0  0  0  0  0  0
  142.1900   80.5070  223.6930 C   0  0  0  0  0  0  0  0  0  0  0  0
  142.4450   80.6710  222.3440 C   0  0  0  0  0  0  0  0  0  0  0  0
  142.1950   79.6230  221.4600 C   0  0  0  0  0  0  0  0  0  0  0  0
  136.9460   78.1320  222.3540 C   0  0  0  0  0  0  0  0  0  0  0  0
  136.7520   79.5790  222.2860 C   0  0  0  0  0  0  0  0  0  0  0  0
  141.6207   82.2334  220.6293 H   0  0  0  0  0  0  0  0  0  0  0  0
  140.1378   81.9599  219.6531 H   0  0  0  0  0  0  0  0  0  0  0  0
  140.9282   83.5730  219.6531 H   0  0  0  0  0  0  0  0  0  0  0  0
  140.2202   82.6066  222.3419 H   0  0  0  0  0  0  0  0  0  0  0  0
  139.9010   84.2027  221.5143 H   0  0  0  0  0  0  0  0  0  0  0  0
  136.0634   83.4777  222.8155 H   0  0  0  0  0  0  0  0  0  0  0  0
  135.3832   83.9953  225.1635 H   0  0  0  0  0  0  0  0  0  0  0  0
  136.4626   82.7103  227.0051 H   0  0  0  0  0  0  0  0  0  0  0  0
  138.1423   80.9877  226.5687 H   0  0  0  0  0  0  0  0  0  0  0  0
  138.8315   80.4674  224.2235 H   0  0  0  0  0  0  0  0  0  0  0  0
  137.1002   80.5081  220.4564 H   0  0  0  0  0  0  0  0  0  0  0  0
  139.4266   80.3433  220.2579 H   0  0  0  0  0  0  0  0  0  0  0  0
  139.6183   79.7267  221.9046 H   0  0  0  0  0  0  0  0  0  0  0  0
  137.8055   78.4467  219.7685 H   0  0  0  0  0  0  0  0  0  0  0  0
  139.4807   77.8993  220.1294 H   0  0  0  0  0  0  0  0  0  0  0  0
  139.3991   75.4913  220.4890 H   0  0  0  0  0  0  0  0  0  0  0  0
  139.1800   74.0560  222.9860 H   0  0  0  0  0  0  0  0  0  0  0  0
  139.2910   73.4730  221.4070 H   0  0  0  0  0  0  0  0  0  0  0  0
  141.1742   76.2838  222.7894 H   0  0  0  0  0  0  0  0  0  0  0  0
  141.6916   75.2803  221.2978 H   0  0  0  0  0  0  0  0  0  0  0  0
  140.5255   77.4847  220.3551 H   0  0  0  0  0  0  0  0  0  0  0  0
  143.4770   76.9793  220.6246 H   0  0  0  0  0  0  0  0  0  0  0  0
  142.3853   76.2262  219.4132 H   0  0  0  0  0  0  0  0  0  0  0  0
  142.6360   78.0049  219.4132 H   0  0  0  0  0  0  0  0  0  0  0  0
  141.0423   77.3218  223.6552 H   0  0  0  0  0  0  0  0  0  0  0  0
  141.4792   79.1734  225.2550 H   0  0  0  0  0  0  0  0  0  0  0  0
  142.3895   81.3355  224.3885 H   0  0  0  0  0  0  0  0  0  0  0  0
  142.8438   81.6254  221.9698 H   0  0  0  0  0  0  0  0  0  0  0  0
  142.3996   79.7546  220.3873 H   0  0  0  0  0  0  0  0  0  0  0  0
  136.0373   77.6581  221.9545 H   0  0  0  0  0  0  0  0  0  0  0  0
  137.1554   77.9257  223.4140 H   0  0  0  0  0  0  0  0  0  0  0  0
  135.7185   79.7458  221.9481 H   0  0  0  0  0  0  0  0  0  0  0  0
  137.0120   79.9180  223.2996 H   0  0  0  0  0  0  0  0  0  0  0  0
  1  2  1  0
  2  3  1  0
  3  4  2  0
  3  5  1  0
  5  6  1  0
  6  7  2  0
  7  8  1  0
  8  9  2  0
  9 10  1  0
 10 11  2  0
  5 12  1  0
 12 13  1  0
 13 14  1  0
 14 15  1  0
 15 16  1  0
 16 17  2  0
 16 18  1  0
 18 19  1  0
 18 20  1  0
 20 21  1  0
 21 22  1  0
 21 23  1  0
 23 24  2  0
 24 25  1  0
 25 26  2  0
 26 27  1  0
 27 28  2  0
 15 29  1  0
 29 30  1  0
 11  6  1  0
 30 12  1  0
 28 23  1  0
  1 31  1  0
  1 32  1  0
  1 33  1  0
  2 34  1  0
  2 35  1  0
  7 36  1  0
  8 37  1  0
  9 38  1  0
 10 39  1  0
 11 40  1  0
 12 41  1  0
 13 42  1  0
 13 43  1  0
 14 44  1  0
 14 45  1  0
 18 46  1  6
 19 47  1  0
 19 48  1  0
 20 49  1  0
 20 50  1  0
 21 51  1  6
 22 52  1  0
 22 53  1  0
 22 54  1  0
 24 55  1  0
 25 56  1  0
 26 57  1  0
 27 58  1  0
 28 59  1  0
 29 60  1  0
 29 61  1  0
 30 62  1  0
 30 63  1  0
M  END
>  <smiles>  (42) 
CCC(=O)N(c1ccccc1)C1CCN(C(=O)[C@H](N)CC(C)c2ccccc2)CC1

>  <score_type>  (42) 
oracle

>  <origin>  (42) 
autodockgpu

>  <m_score__min__energy>  (42) 
-8.8699999999999992

>  <m_primary>  (42) 
energy

>  <rmsd>  (42) 
3.9312751707500775

>  <m_score__min__rmsd>  (42) 
3.9312751707500775

>  <meeko>  (42) 
{"free_energy": -5.91, "intermolecular_energy": -8.59, "internal_energy": -3.62, "cluster_size": 7, "cluster_id": 11, "rank_in_cluster": 7}

>  <energy>  (42) 
-6.41

>  <cluster_rmsd>  (42) 
0.78

>  <cluster>  (42) 
10

$$$$

     RDKit          3D

 63 65  0  0  0  0  0  0  0  0999 V2000
  145.7620   74.1430  220.8370 C   0  0  0  0  0  0  0  0  0  0  0  0
  145.5940   72.6450  220.7380 C   0  0  0  0  0  0  0  0  0  0  0  0
  145.3340   72.1720  219.3580 C   0  0  0  0  0  0  0  0  0  0  0  0
  145.9380   72.7700  218.4220 O   0  0  0  0  0  0  0  0  0  0  0  0
  144.4350   71.0840  219.1180 N   0  0  0  0  0  0  0  0  0  0  0  0
  144.9800   69.7920  218.8760 C   0  0  0  0  0  0  0  0  0  0  0  0
  145.7070   69.6000  217.7130 C   0  0  0  0  0  0  0  0  0  0  0  0
  146.2570   68.3700  217.4240 C   0  0  0  0  0  0  0  0  0  0  0  0
  146.0470   67.3520  218.3480 C   0  0  0  0  0  0  0  0  0  0  0  0
  145.3290   67.5320  219.5030 C   0  0  0  0  0  0  0  0  0  0  0  0
  144.7760   68.7640  219.7930 C   0  0  0  0  0  0  0  0  0  0  0  0
  142.9960   71.3410  219.1230 C   0  0  0  0  0  0  0  0  0  0  0  0
  142.2880   70.4540  220.0990 C   0  0  0  0  0  0  0  0  0  0  0  0
  140.8410   70.9260  220.1090 C   0  0  0  0  0  0  0  0  0  0  0  0
  140.7610   72.2350  220.6890 N   0  0  0  0  0  0  0  0  0  0  0  0
  139.9690   72.6510  221.7730 C   0  0  0  0  0  0  0  0  0  0  0  0
  140.0890   73.9000  222.1190 O   0  0  0  0  0  0  0  0  0  0  0  0
  139.0180   71.8990  222.5910 C   0  0  2  0  0  0  0  0  0  0  0  0
  137.7270   72.5290  222.7480 N   0  0  0  0  0  0  0  0  0  0  0  0
  139.4870   71.5150  223.9680 C   0  0  0  0  0  0  0  0  0  0  0  0
  139.9050   70.1280  224.2150 C   0  0  2  0  0  0  0  0  0  0  0  0
  138.9180   69.0990  223.8190 C   0  0  0  0  0  0  0  0  0  0  0  0
  140.2790   69.9210  225.6700 C   0  0  0  0  0  0  0  0  0  0  0  0
  140.6780   71.0180  226.4410 C   0  0  0  0  0  0  0  0  0  0  0  0
  141.0340   70.8790  227.7720 C   0  0  0  0  0  0  0  0  0  0  0  0
  140.9870   69.6080  228.3410 C   0  0  0  0  0  0  0  0  0  0  0  0
  140.5960   68.5120  227.5940 C   0  0  0  0  0  0  0  0  0  0  0  0
  140.2420   68.6770  226.2560 C   0  0  0  0  0  0  0  0  0  0  0  0
  141.6040   73.2520  220.0630 C   0  0  0  0  0  0  0  0  0  0  0  0
  142.7710   72.7890  219.3160 C   0  0  0  0  0  0  0  0  0  0  0  0
  145.7952   74.4391  221.8959 H   0  0  0  0  0  0  0  0  0  0  0  0
  146.6991   74.4403  220.3436 H   0  0  0  0  0  0  0  0  0  0  0  0
  144.9140   74.6405  220.3436 H   0  0  0  0  0  0  0  0  0  0  0  0
  146.5144   72.1660  221.1032 H   0  0  0  0  0  0  0  0  0  0  0  0
  144.7165   72.3758  221.3443 H   0  0  0  0  0  0  0  0  0  0  0  0
  145.8467   70.4372  217.0133 H   0  0  0  0  0  0  0  0  0  0  0  0
  146.8360   68.2010  216.5041 H   0  0  0  0  0  0  0  0  0  0  0  0
  146.4752   66.3595  218.1439 H   0  0  0  0  0  0  0  0  0  0  0  0
  145.1932   66.6923  220.2005 H   0  0  0  0  0  0  0  0  0  0  0  0
  144.1963   68.9270  220.7135 H   0  0  0  0  0  0  0  0  0  0  0  0
  142.5489   71.0780  218.1530 H   0  0  0  0  0  0  0  0  0  0  0  0
  142.3469   69.4042  219.7760 H   0  0  0  0  0  0  0  0  0  0  0  0
  142.7402   70.5092  221.1002 H   0  0  0  0  0  0  0  0  0  0  0  0
  140.4608   70.9598  219.0773 H   0  0  0  0  0  0  0  0  0  0  0  0
  140.2352   70.2272  220.7046 H   0  0  0  0  0  0  0  0  0  0  0  0
  138.9281   70.9876  221.9817 H   0  0  0  0  0  0  0  0  0  0  0  0
  137.7890   73.5680  222.8030 H   0  0  0  0  0  0  0  0  0  0  0  0
  137.0810   72.2720  221.9870 H   0  0  0  0  0  0  0  0  0  0  0  0
  140.3463   72.1586  224.2075 H   0  0  0  0  0  0  0  0  0  0  0  0
  138.5924   71.6378  224.5962 H   0  0  0  0  0  0  0  0  0  0  0  0
  140.7808   69.9888  223.5641 H   0  0  0  0  0  0  0  0  0  0  0  0
  138.4813   68.6438  224.7201 H   0  0  0  0  0  0  0  0  0  0  0  0
  138.1213   69.5659  223.2212 H   0  0  0  0  0  0  0  0  0  0  0  0
  139.4177   68.3225  223.2212 H   0  0  0  0  0  0  0  0  0  0  0  0
  140.7097   72.0156  225.9786 H   0  0  0  0  0  0  0  0  0  0  0  0
  141.3463   71.7508  228.3656 H   0  0  0  0  0  0  0  0  0  0  0  0
  141.2643   69.4748  229.3971 H   0  0  0  0  0  0  0  0  0  0  0  0
  140.5644   67.5134  228.0541 H   0  0  0  0  0  0  0  0  0  0  0  0
  139.9302   67.8044  225.6632 H   0  0  0  0  0  0  0  0  0  0  0  0
  140.9715   73.8226  219.3671 H   0  0  0  0  0  0  0  0  0  0  0  0
  142.0176   73.8309  220.9019 H   0  0  0  0  0  0  0  0  0  0  0  0
  142.7049   73.2369  218.3135 H   0  0  0  0  0  0  0  0  0  0  0  0
  143.6160   73.0947  219.9505 H   0  0  0  0  0  0  0  0  0  0  0  0
  1  2  1  0
  2  3  1  0
  3  4  2  0
  3  5  1  0
  5  6  1  0
  6  7  2  0
  7  8  1  0
  8  9  2  0
  9 10  1  0
 10 11  2  0
  5 12  1  0
 12 13  1  0
 13 14  1  0
 14 15  1  0
 15 16  1  0
 16 17  2  0
 16 18  1  0
 18 19  1  0
 18 20  1  0
 20 21  1  0
 21 22  1  0
 21 23  1  0
 23 24  2  0
 24 25  1  0
 25 26  2  0
 26 27  1  0
 27 28  2  0
 15 29  1  0
 29 30  1  0
 11  6  1  0
 30 12  1  0
 28 23  1  0
  1 31  1  0
  1 32  1  0
  1 33  1  0
  2 34  1  0
  2 35  1  0
  7 36  1  0
  8 37  1  0
  9 38  1  0
 10 39  1  0
 11 40  1  0
 12 41  1  0
 13 42  1  0
 13 43  1  0
 14 44  1  0
 14 45  1  0
 18 46  1  6
 19 47  1  0
 19 48  1  0
 20 49  1  0
 20 50  1  0
 21 51  1  6
 22 52  1  0
 22 53  1  0
 22 54  1  0
 24 55  1  0
 25 56  1  0
 26 57  1  0
 27 58  1  0
 28 59  1  0
 29 60  1  0
 29 61  1  0
 30 62  1  0
 30 63  1  0
M  END
>  <smiles>  (43) 
CCC(=O)N(c1ccccc1)C1CCN(C(=O)[C@H](N)CC(C)c2ccccc2)CC1

>  <score_type>  (43) 
oracle

>  <origin>  (43) 
autodockgpu

>  <m_score__min__energy>  (43) 
-8.8699999999999992

>  <m_primary>  (43) 
energy

>  <rmsd>  (43) 
8.533175401620753

>  <m_score__min__rmsd>  (43) 
8.533175401620753

>  <meeko>  (43) 
{"free_energy": -8.46, "intermolecular_energy": -11.14, "internal_energy": -2.0, "cluster_size": 10, "cluster_id": 1, "rank_in_cluster": 4}

>  <energy>  (43) 
-6.33

>  <cluster_rmsd>  (43) 
0.0

>  <cluster>  (43) 
11

$$$$

     RDKit          3D

 63 65  0  0  0  0  0  0  0  0999 V2000
  136.0970   69.7950  224.2370 C   0  0  0  0  0  0  0  0  0  0  0  0
  136.9010   69.0120  223.2240 C   0  0  0  0  0  0  0  0  0  0  0  0
  138.3430   68.9330  223.5530 C   0  0  0  0  0  0  0  0  0  0  0  0
  138.8210   67.7830  223.7670 O   0  0  0  0  0  0  0  0  0  0  0  0
  139.1410   70.1190  223.6200 N   0  0  0  0  0  0  0  0  0  0  0  0
  139.7730   70.4460  224.8530 C   0  0  0  0  0  0  0  0  0  0  0  0
  139.4110   69.7250  225.9800 C   0  0  0  0  0  0  0  0  0  0  0  0
  139.9890   69.9970  227.2020 C   0  0  0  0  0  0  0  0  0  0  0  0
  140.9360   71.0140  227.2390 C   0  0  0  0  0  0  0  0  0  0  0  0
  141.3010   71.7320  226.1300 C   0  0  0  0  0  0  0  0  0  0  0  0
  140.7240   71.4620  224.9050 C   0  0  0  0  0  0  0  0  0  0  0  0
  139.2720   70.9540  222.4270 C   0  0  0  0  0  0  0  0  0  0  0  0
  138.8930   72.3740  222.7110 C   0  0  0  0  0  0  0  0  0  0  0  0
  139.2150   73.1470  221.4400 C   0  0  0  0  0  0  0  0  0  0  0  0
  140.6350   73.1860  221.2420 N   0  0  0  0  0  0  0  0  0  0  0  0
  141.4510   74.3170  221.0730 C   0  0  0  0  0  0  0  0  0  0  0  0
  142.7230   74.0840  220.9230 O   0  0  0  0  0  0  0  0  0  0  0  0
  141.1020   75.7370  221.0380 C   0  0  2  0  0  0  0  0  0  0  0  0
  142.1690   76.6110  220.6080 N   0  0  0  0  0  0  0  0  0  0  0  0
  140.5520   76.3150  222.3140 C   0  0  0  0  0  0  0  0  0  0  0  0
  139.8630   77.6120  222.2680 C   0  0  2  0  0  0  0  0  0  0  0  0
  139.1250   77.8830  221.0130 C   0  0  0  0  0  0  0  0  0  0  0  0
  140.8270   78.7530  222.5310 C   0  0  0  0  0  0  0  0  0  0  0  0
  141.5000   78.8150  223.7560 C   0  0  0  0  0  0  0  0  0  0  0  0
  142.3860   79.8400  224.0450 C   0  0  0  0  0  0  0  0  0  0  0  0
  142.6010   80.8230  223.0810 C   0  0  0  0  0  0  0  0  0  0  0  0
  141.9430   80.7770  221.8650 C   0  0  0  0  0  0  0  0  0  0  0  0
  141.0560   79.7360  221.5970 C   0  0  0  0  0  0  0  0  0  0  0  0
  141.2990   71.8850  221.2060 C   0  0  0  0  0  0  0  0  0  0  0  0
  140.6240   70.7680  221.8610 C   0  0  0  0  0  0  0  0  0  0  0  0
  136.3998   69.5001  225.2525 H   0  0  0  0  0  0  0  0  0  0  0  0
  136.2797   70.8707  224.0978 H   0  0  0  0  0  0  0  0  0  0  0  0
  135.0265   69.5839  224.0978 H   0  0  0  0  0  0  0  0  0  0  0  0
  136.4981   67.9897  223.1738 H   0  0  0  0  0  0  0  0  0  0  0  0
  136.8153   69.5398  222.2627 H   0  0  0  0  0  0  0  0  0  0  0  0
  138.6561   68.9290  225.8989 H   0  0  0  0  0  0  0  0  0  0  0  0
  139.7133   69.4348  228.1064 H   0  0  0  0  0  0  0  0  0  0  0  0
  141.4135   71.2530  228.2007 H   0  0  0  0  0  0  0  0  0  0  0  0
  142.0567   72.5266  226.2163 H   0  0  0  0  0  0  0  0  0  0  0  0
  141.0048   72.0279  224.0045 H   0  0  0  0  0  0  0  0  0  0  0  0
  138.5585   70.6403  221.6508 H   0  0  0  0  0  0  0  0  0  0  0  0
  137.8200   72.4459  222.9424 H   0  0  0  0  0  0  0  0  0  0  0  0
  139.4374   72.7742  223.5791 H   0  0  0  0  0  0  0  0  0  0  0  0
  138.7399   72.6512  220.5807 H   0  0  0  0  0  0  0  0  0  0  0  0
  138.8328   74.1743  221.5328 H   0  0  0  0  0  0  0  0  0  0  0  0
  140.3002   75.7131  220.2853 H   0  0  0  0  0  0  0  0  0  0  0  0
  142.3380   77.3970  221.2720 H   0  0  0  0  0  0  0  0  0  0  0  0
  143.0500   76.0970  220.4650 H   0  0  0  0  0  0  0  0  0  0  0  0
  139.8362   75.5836  222.7173 H   0  0  0  0  0  0  0  0  0  0  0  0
  141.4470   76.5124  222.9223 H   0  0  0  0  0  0  0  0  0  0  0  0
  139.1096   77.5466  223.0669 H   0  0  0  0  0  0  0  0  0  0  0  0
  138.1173   78.2531  221.2528 H   0  0  0  0  0  0  0  0  0  0  0  0
  139.6644   78.6417  220.4270 H   0  0  0  0  0  0  0  0  0  0  0  0
  139.0452   76.9555  220.4270 H   0  0  0  0  0  0  0  0  0  0  0  0
  141.3215   78.0316  224.5072 H   0  0  0  0  0  0  0  0  0  0  0  0
  142.9076   79.8770  225.0128 H   0  0  0  0  0  0  0  0  0  0  0  0
  143.3019   81.6448  223.2893 H   0  0  0  0  0  0  0  0  0  0  0  0
  142.1193   81.5594  221.1122 H   0  0  0  0  0  0  0  0  0  0  0  0
  140.5342   79.7003  220.6293 H   0  0  0  0  0  0  0  0  0  0  0  0
  141.4361   71.6136  220.1488 H   0  0  0  0  0  0  0  0  0  0  0  0
  142.2277   72.0271  221.7780 H   0  0  0  0  0  0  0  0  0  0  0  0
  140.5490   69.9613  221.1170 H   0  0  0  0  0  0  0  0  0  0  0  0
  141.2469   70.5798  222.7479 H   0  0  0  0  0  0  0  0  0  0  0  0
  1  2  1  0
  2  3  1  0
  3  4  2  0
  3  5  1  0
  5  6  1  0
  6  7  2  0
  7  8  1  0
  8  9  2  0
  9 10  1  0
 10 11  2  0
  5 12  1  0
 12 13  1  0
 13 14  1  0
 14 15  1  0
 15 16  1  0
 16 17  2  0
 16 18  1  0
 18 19  1  0
 18 20  1  0
 20 21  1  0
 21 22  1  0
 21 23  1  0
 23 24  2  0
 24 25  1  0
 25 26  2  0
 26 27  1  0
 27 28  2  0
 15 29  1  0
 29 30  1  0
 11  6  1  0
 30 12  1  0
 28 23  1  0
  1 31  1  0
  1 32  1  0
  1 33  1  0
  2 34  1  0
  2 35  1  0
  7 36  1  0
  8 37  1  0
  9 38  1  0
 10 39  1  0
 11 40  1  0
 12 41  1  0
 13 42  1  0
 13 43  1  0
 14 44  1  0
 14 45  1  0
 18 46  1  6
 19 47  1  0
 19 48  1  0
 20 49  1  0
 20 50  1  0
 21 51  1  1
 22 52  1  0
 22 53  1  0
 22 54  1  0
 24 55  1  0
 25 56  1  0
 26 57  1  0
 27 58  1  0
 28 59  1  0
 29 60  1  0
 29 61  1  0
 30 62  1  0
 30 63  1  0
M  END
>  <smiles>  (44) 
CCC(=O)N(c1ccccc1)C1CCN(C(=O)[C@H](N)CC(C)c2ccccc2)CC1

>  <score_type>  (44) 
oracle

>  <origin>  (44) 
autodockgpu

>  <m_score__min__energy>  (44) 
-8.8699999999999992

>  <m_primary>  (44) 
energy

>  <rmsd>  (44) 
6.905331692592133

>  <m_score__min__rmsd>  (44) 
6.905331692592133

>  <meeko>  (44) 
{"free_energy": -7.51, "intermolecular_energy": -10.19, "internal_energy": -2.41, "cluster_size": 10, "cluster_id": 5, "rank_in_cluster": 4}

>  <energy>  (44) 
-6.24

>  <cluster_rmsd>  (44) 
0.53

>  <cluster>  (44) 
11

$$$$

     RDKit          3D

 63 65  0  0  0  0  0  0  0  0999 V2000
  137.7640   80.8320  224.5990 C   0  0  0  0  0  0  0  0  0  0  0  0
  138.0830   81.5910  223.3320 C   0  0  0  0  0  0  0  0  0  0  0  0
  138.1730   80.7250  222.1350 C   0  0  0  0  0  0  0  0  0  0  0  0
  137.4030   80.9960  221.1700 O   0  0  0  0  0  0  0  0  0  0  0  0
  139.0980   79.6320  222.0930 N   0  0  0  0  0  0  0  0  0  0  0  0
  140.4370   79.8570  222.5200 C   0  0  0  0  0  0  0  0  0  0  0  0
  141.2690   80.5900  221.6900 C   0  0  0  0  0  0  0  0  0  0  0  0
  142.5770   80.8400  222.0510 C   0  0  0  0  0  0  0  0  0  0  0  0
  143.0030   80.3250  223.2700 C   0  0  0  0  0  0  0  0  0  0  0  0
  142.1860   79.5990  224.0990 C   0  0  0  0  0  0  0  0  0  0  0  0
  140.8770   79.3480  223.7390 C   0  0  0  0  0  0  0  0  0  0  0  0
  138.6370   78.3330  221.6080 C   0  0  0  0  0  0  0  0  0  0  0  0
  139.4400   77.8760  220.4290 C   0  0  0  0  0  0  0  0  0  0  0  0
  138.9570   76.4650  220.1270 C   0  0  0  0  0  0  0  0  0  0  0  0
  139.3430   75.5810  221.1890 N   0  0  0  0  0  0  0  0  0  0  0  0
  140.0830   74.3910  221.0950 C   0  0  0  0  0  0  0  0  0  0  0  0
  140.3150   73.7740  222.2180 O   0  0  0  0  0  0  0  0  0  0  0  0
  140.6480   73.7200  219.9240 C   0  0  2  0  0  0  0  0  0  0  0  0
  141.0480   72.3500  220.1470 N   0  0  0  0  0  0  0  0  0  0  0  0
  141.8080   74.4110  219.2600 C   0  0  0  0  0  0  0  0  0  0  0  0
  142.8630   74.9940  220.1010 C   0  0  2  0  0  0  0  0  0  0  0  0
  143.3100   76.3460  219.6940 C   0  0  0  0  0  0  0  0  0  0  0  0
  144.0690   74.0780  220.1790 C   0  0  0  0  0  0  0  0  0  0  0  0
  145.2250   74.5170  220.8330 C   0  0  0  0  0  0  0  0  0  0  0  0
  146.3530   73.7200  220.9270 C   0  0  0  0  0  0  0  0  0  0  0  0
  146.3180   72.4510  220.3500 C   0  0  0  0  0  0  0  0  0  0  0  0
  145.1840   72.0010  219.7000 C   0  0  0  0  0  0  0  0  0  0  0  0
  144.0610   72.8220  219.6190 C   0  0  0  0  0  0  0  0  0  0  0  0
  138.8990   75.9750  222.5240 C   0  0  0  0  0  0  0  0  0  0  0  0
  138.5970   77.3880  222.7420 C   0  0  0  0  0  0  0  0  0  0  0  0
  138.0235   81.4495  225.4715 H   0  0  0  0  0  0  0  0  0  0  0  0
  136.6901   80.5949  224.6239 H   0  0  0  0  0  0  0  0  0  0  0  0
  138.3461   79.8990  224.6239 H   0  0  0  0  0  0  0  0  0  0  0  0
  137.2923   82.3370  223.1640 H   0  0  0  0  0  0  0  0  0  0  0  0
  139.0702   82.0558  223.4716 H   0  0  0  0  0  0  0  0  0  0  0  0
  140.8836   80.9761  220.7348 H   0  0  0  0  0  0  0  0  0  0  0  0
  143.2516   81.4200  221.4041 H   0  0  0  0  0  0  0  0  0  0  0  0
  144.0414   80.5078  223.5837 H   0  0  0  0  0  0  0  0  0  0  0  0
  142.5751   79.2155  225.0538 H   0  0  0  0  0  0  0  0  0  0  0  0
  140.2070   78.7678  224.3906 H   0  0  0  0  0  0  0  0  0  0  0  0
  137.6106   78.4028  221.2187 H   0  0  0  0  0  0  0  0  0  0  0  0
  139.2641   78.5350  219.5660 H   0  0  0  0  0  0  0  0  0  0  0  0
  140.5197   77.9006  220.6378 H   0  0  0  0  0  0  0  0  0  0  0  0
  137.8610   76.4665  220.0334 H   0  0  0  0  0  0  0  0  0  0  0  0
  139.4092   76.1203  219.1853 H   0  0  0  0  0  0  0  0  0  0  0  0
  139.7795   73.7601  219.2501 H   0  0  0  0  0  0  0  0  0  0  0  0
  141.2320   72.1430  221.1520 H   0  0  0  0  0  0  0  0  0  0  0  0
  140.3480   71.6840  219.7910 H   0  0  0  0  0  0  0  0  0  0  0  0
  142.2903   73.6727  218.6025 H   0  0  0  0  0  0  0  0  0  0  0  0
  141.3509   75.2815  218.7667 H   0  0  0  0  0  0  0  0  0  0  0  0
  142.3920   75.1031  221.0890 H   0  0  0  0  0  0  0  0  0  0  0  0
  143.5101   76.9513  220.5904 H   0  0  0  0  0  0  0  0  0  0  0  0
  144.2287   76.2635  219.0947 H   0  0  0  0  0  0  0  0  0  0  0  0
  142.5232   76.8274  219.0947 H   0  0  0  0  0  0  0  0  0  0  0  0
  145.2381   75.5203  221.2837 H   0  0  0  0  0  0  0  0  0  0  0  0
  147.2550   74.0790  221.4443 H   0  0  0  0  0  0  0  0  0  0  0  0
  147.2029   71.8006  220.4128 H   0  0  0  0  0  0  0  0  0  0  0  0
  145.1682   70.9982  219.2482 H   0  0  0  0  0  0  0  0  0  0  0  0
  143.1593   72.4619  219.1021 H   0  0  0  0  0  0  0  0  0  0  0  0
  137.9866   75.4038  222.7503 H   0  0  0  0  0  0  0  0  0  0  0  0
  139.7576   75.7663  223.1792 H   0  0  0  0  0  0  0  0  0  0  0  0
  137.5804   77.4351  223.1595 H   0  0  0  0  0  0  0  0  0  0  0  0
  139.4225   77.7278  223.3848 H   0  0  0  0  0  0  0  0  0  0  0  0
  1  2  1  0
  2  3  1  0
  3  4  2  0
  3  5  1  0
  5  6  1  0
  6  7  2  0
  7  8  1  0
  8  9  2  0
  9 10  1  0
 10 11  2  0
  5 12  1  0
 12 13  1  0
 13 14  1  0
 14 15  1  0
 15 16  1  0
 16 17  2  0
 16 18  1  0
 18 19  1  0
 18 20  1  0
 20 21  1  0
 21 22  1  0
 21 23  1  0
 23 24  2  0
 24 25  1  0
 25 26  2  0
 26 27  1  0
 27 28  2  0
 15 29  1  0
 29 30  1  0
 11  6  1  0
 30 12  1  0
 28 23  1  0
  1 31  1  0
  1 32  1  0
  1 33  1  0
  2 34  1  0
  2 35  1  0
  7 36  1  0
  8 37  1  0
  9 38  1  0
 10 39  1  0
 11 40  1  0
 12 41  1  0
 13 42  1  0
 13 43  1  0
 14 44  1  0
 14 45  1  0
 18 46  1  6
 19 47  1  0
 19 48  1  0
 20 49  1  0
 20 50  1  0
 21 51  1  1
 22 52  1  0
 22 53  1  0
 22 54  1  0
 24 55  1  0
 25 56  1  0
 26 57  1  0
 27 58  1  0
 28 59  1  0
 29 60  1  0
 29 61  1  0
 30 62  1  0
 30 63  1  0
M  END
>  <smiles>  (45) 
CCC(=O)N(c1ccccc1)C1CCN(C(=O)[C@H](N)CC(C)c2ccccc2)CC1

>  <score_type>  (45) 
oracle

>  <origin>  (45) 
autodockgpu

>  <m_score__min__energy>  (45) 
-8.8699999999999992

>  <m_primary>  (45) 
energy

>  <rmsd>  (45) 
4.2755346460483015

>  <m_score__min__rmsd>  (45) 
4.2755346460483015

>  <meeko>  (45) 
{"free_energy": -6.41, "intermolecular_energy": -9.1, "internal_energy": -2.9, "cluster_size": 3, "cluster_id": 10, "rank_in_cluster": 3}

>  <energy>  (45) 
-5.99

>  <cluster_rmsd>  (45) 
0.53

>  <cluster>  (45) 
11

$$$$

     RDKit          3D

 63 65  0  0  0  0  0  0  0  0999 V2000
  140.3060   82.9980  221.2270 C   0  0  0  0  0  0  0  0  0  0  0  0
  138.9830   83.6440  221.5640 C   0  0  0  0  0  0  0  0  0  0  0  0
  137.8130   82.8160  221.1920 C   0  0  0  0  0  0  0  0  0  0  0  0
  137.1860   83.1420  220.1440 O   0  0  0  0  0  0  0  0  0  0  0  0
  137.4260   81.6980  222.0000 N   0  0  0  0  0  0  0  0  0  0  0  0
  137.1840   81.9110  223.3860 C   0  0  0  0  0  0  0  0  0  0  0  0
  137.8910   81.1410  224.2950 C   0  0  0  0  0  0  0  0  0  0  0  0
  137.6990   81.3020  225.6510 C   0  0  0  0  0  0  0  0  0  0  0  0
  136.7740   82.2620  226.0470 C   0  0  0  0  0  0  0  0  0  0  0  0
  136.0690   83.0290  225.1540 C   0  0  0  0  0  0  0  0  0  0  0  0
  136.2610   82.8690  223.7970 C   0  0  0  0  0  0  0  0  0  0  0  0
  137.3010   80.3830  221.3740 C   0  0  0  0  0  0  0  0  0  0  0  0
  138.6430   79.8020  221.0540 C   0  0  0  0  0  0  0  0  0  0  0  0
  138.3710   78.3910  220.5540 C   0  0  0  0  0  0  0  0  0  0  0  0
  137.8760   77.5810  221.6290 N   0  0  0  0  0  0  0  0  0  0  0  0
  138.3900   76.3590  222.0950 C   0  0  0  0  0  0  0  0  0  0  0  0
  137.7620   75.8260  223.1030 O   0  0  0  0  0  0  0  0  0  0  0  0
  139.5330   75.5750  221.6280 C   0  0  2  0  0  0  0  0  0  0  0  0
  139.6180   74.2430  222.1810 N   0  0  0  0  0  0  0  0  0  0  0  0
  140.8860   76.2090  221.8050 C   0  0  0  0  0  0  0  0  0  0  0  0
  141.2030   77.4290  221.0500 C   0  0  2  0  0  0  0  0  0  0  0  0
  142.2580   77.2710  220.0230 C   0  0  0  0  0  0  0  0  0  0  0  0
  141.5860   78.5650  221.9800 C   0  0  0  0  0  0  0  0  0  0  0  0
  141.4290   78.4040  223.3610 C   0  0  0  0  0  0  0  0  0  0  0  0
  141.7590   79.4130  224.2510 C   0  0  0  0  0  0  0  0  0  0  0  0
  142.2590   80.6100  223.7410 C   0  0  0  0  0  0  0  0  0  0  0  0
  142.4200   80.7860  222.3790 C   0  0  0  0  0  0  0  0  0  0  0  0
  142.0810   79.7550  221.5030 C   0  0  0  0  0  0  0  0  0  0  0  0
  136.6900   78.0970  222.3080 C   0  0  0  0  0  0  0  0  0  0  0  0
  136.4370   79.5340  222.2200 C   0  0  0  0  0  0  0  0  0  0  0  0
  140.8351   82.7396  222.1561 H   0  0  0  0  0  0  0  0  0  0  0  0
  140.1291   82.0849  220.6397 H   0  0  0  0  0  0  0  0  0  0  0  0
  140.9173   83.6990  220.6397 H   0  0  0  0  0  0  0  0  0  0  0  0
  138.9503   83.8268  222.6482 H   0  0  0  0  0  0  0  0  0  0  0  0
  138.9193   84.5760  220.9833 H   0  0  0  0  0  0  0  0  0  0  0  0
  138.6123   80.3942  223.9317 H   0  0  0  0  0  0  0  0  0  0  0  0
  138.2522   80.6987  226.3859 H   0  0  0  0  0  0  0  0  0  0  0  0
  136.6000   82.4130  227.1226 H   0  0  0  0  0  0  0  0  0  0  0  0
  135.3481   83.7742  225.5213 H   0  0  0  0  0  0  0  0  0  0  0  0
  135.7054   83.4759  223.0669 H   0  0  0  0  0  0  0  0  0  0  0  0
  136.8067   80.4616  220.3945 H   0  0  0  0  0  0  0  0  0  0  0  0
  139.1422   80.3959  220.2742 H   0  0  0  0  0  0  0  0  0  0  0  0
  139.3055   79.8014  221.9322 H   0  0  0  0  0  0  0  0  0  0  0  0
  137.6220   78.4269  219.7492 H   0  0  0  0  0  0  0  0  0  0  0  0
  139.3057   77.9550  220.1717 H   0  0  0  0  0  0  0  0  0  0  0  0
  139.3016   75.5286  220.5536 H   0  0  0  0  0  0  0  0  0  0  0  0
  139.0470   74.1290  223.0460 H   0  0  0  0  0  0  0  0  0  0  0  0
  139.3360   73.5260  221.4960 H   0  0  0  0  0  0  0  0  0  0  0  0
  140.9907   76.4536  222.8723 H   0  0  0  0  0  0  0  0  0  0  0  0
  141.5840   75.4599  221.4029 H   0  0  0  0  0  0  0  0  0  0  0  0
  140.2725   77.6629  220.5119 H   0  0  0  0  0  0  0  0  0  0  0  0
  143.2306   77.1253  220.5158 H   0  0  0  0  0  0  0  0  0  0  0  0
  142.0305   76.3969  219.3951 H   0  0  0  0  0  0  0  0  0  0  0  0
  142.2966   78.1734  219.3951 H   0  0  0  0  0  0  0  0  0  0  0  0
  141.0341   77.4536  223.7492 H   0  0  0  0  0  0  0  0  0  0  0  0
  141.6295   79.2729  225.3343 H   0  0  0  0  0  0  0  0  0  0  0  0
  142.5286   81.4240  224.4300 H   0  0  0  0  0  0  0  0  0  0  0  0
  142.8140   81.7356  221.9878 H   0  0  0  0  0  0  0  0  0  0  0  0
  142.2111   79.8957  220.4198 H   0  0  0  0  0  0  0  0  0  0  0  0
  135.8160   77.5814  221.8834 H   0  0  0  0  0  0  0  0  0  0  0  0
  136.8726   77.9081  223.3762 H   0  0  0  0  0  0  0  0  0  0  0  0
  135.4094   79.6538  221.8463 H   0  0  0  0  0  0  0  0  0  0  0  0
  136.6478   79.8920  223.2385 H   0  0  0  0  0  0  0  0  0  0  0  0
  1  2  1  0
  2  3  1  0
  3  4  2  0
  3  5  1  0
  5  6  1  0
  6  7  2  0
  7  8  1  0
  8  9  2  0
  9 10  1  0
 10 11  2  0
  5 12  1  0
 12 13  1  0
 13 14  1  0
 14 15  1  0
 15 16  1  0
 16 17  2  0
 16 18  1  0
 18 19  1  0
 18 20  1  0
 20 21  1  0
 21 22  1  0
 21 23  1  0
 23 24  2  0
 24 25  1  0
 25 26  2  0
 26 27  1  0
 27 28  2  0
 15 29  1  0
 29 30  1  0
 11  6  1  0
 30 12  1  0
 28 23  1  0
  1 31  1  0
  1 32  1  0
  1 33  1  0
  2 34  1  0
  2 35  1  0
  7 36  1  0
  8 37  1  0
  9 38  1  0
 10 39  1  0
 11 40  1  0
 12 41  1  0
 13 42  1  0
 13 43  1  0
 14 44  1  0
 14 45  1  0
 18 46  1  6
 19 47  1  0
 19 48  1  0
 20 49  1  0
 20 50  1  0
 21 51  1  6
 22 52  1  0
 22 53  1  0
 22 54  1  0
 24 55  1  0
 25 56  1  0
 26 57  1  0
 27 58  1  0
 28 59  1  0
 29 60  1  0
 29 61  1  0
 30 62  1  0
 30 63  1  0
M  END
>  <smiles>  (46) 
CCC(=O)N(c1ccccc1)C1CCN(C(=O)[C@H](N)CC(C)c2ccccc2)CC1

>  <score_type>  (46) 
oracle

>  <origin>  (46) 
autodockgpu

>  <m_score__min__energy>  (46) 
-8.8699999999999992

>  <m_primary>  (46) 
energy

>  <rmsd>  (46) 
4.016684337246404

>  <m_score__min__rmsd>  (46) 
4.016684337246404

>  <meeko>  (46) 
{"free_energy": -5.91, "intermolecular_energy": -8.6, "internal_energy": -3.52, "cluster_size": 7, "cluster_id": 11, "rank_in_cluster": 6}

>  <energy>  (46) 
-5.95

>  <cluster_rmsd>  (46) 
0.46

>  <cluster>  (46) 
11

$$$$

     RDKit          3D

 63 65  0  0  0  0  0  0  0  0999 V2000
  145.9280   73.0180  221.9560 C   0  0  0  0  0  0  0  0  0  0  0  0
  146.3550   73.7960  220.7330 C   0  0  0  0  0  0  0  0  0  0  0  0
  145.9190   73.1760  219.4600 C   0  0  0  0  0  0  0  0  0  0  0  0
  146.6280   73.4010  218.4380 O   0  0  0  0  0  0  0  0  0  0  0  0
  144.7440   72.3600  219.4130 N   0  0  0  0  0  0  0  0  0  0  0  0
  144.8940   70.9450  219.4690 C   0  0  0  0  0  0  0  0  0  0  0  0
  146.1040   70.4040  219.0660 C   0  0  0  0  0  0  0  0  0  0  0  0
  146.3080   69.0400  219.0970 C   0  0  0  0  0  0  0  0  0  0  0  0
  145.2520   68.2550  219.5480 C   0  0  0  0  0  0  0  0  0  0  0  0
  144.0520   68.7820  219.9500 C   0  0  0  0  0  0  0  0  0  0  0  0
  143.8460   70.1470  219.9190 C   0  0  0  0  0  0  0  0  0  0  0  0
  143.4380   73.0060  219.3010 C   0  0  0  0  0  0  0  0  0  0  0  0
  142.6780   72.9250  220.5880 C   0  0  0  0  0  0  0  0  0  0  0  0
  141.4200   73.7550  220.3760 C   0  0  0  0  0  0  0  0  0  0  0  0
  141.7690   75.1410  220.2510 N   0  0  0  0  0  0  0  0  0  0  0  0
  141.2820   76.2240  221.0030 C   0  0  0  0  0  0  0  0  0  0  0  0
  141.7710   77.3910  220.7010 O   0  0  0  0  0  0  0  0  0  0  0  0
  140.3010   76.2550  222.0880 C   0  0  2  0  0  0  0  0  0  0  0  0
  139.6600   74.9890  222.3590 N   0  0  0  0  0  0  0  0  0  0  0  0
  139.2080   77.2810  221.9630 C   0  0  0  0  0  0  0  0  0  0  0  0
  139.1710   78.4000  222.9150 C   0  0  2  0  0  0  0  0  0  0  0  0
  138.0400   79.3370  222.7330 C   0  0  0  0  0  0  0  0  0  0  0  0
  140.4700   79.1830  222.8900 C   0  0  0  0  0  0  0  0  0  0  0  0
  140.7450   80.0230  221.8050 C   0  0  0  0  0  0  0  0  0  0  0  0
  141.9190   80.7550  221.7340 C   0  0  0  0  0  0  0  0  0  0  0  0
  142.8370   80.6390  222.7770 C   0  0  0  0  0  0  0  0  0  0  0  0
  142.5820   79.8120  223.8560 C   0  0  0  0  0  0  0  0  0  0  0  0
  141.3930   79.0860  223.9050 C   0  0  0  0  0  0  0  0  0  0  0  0
  142.7430   75.4510  219.2070 C   0  0  0  0  0  0  0  0  0  0  0  0
  143.6260   74.3720  218.7710 C   0  0  0  0  0  0  0  0  0  0  0  0
  146.2282   73.5650  222.8619 H   0  0  0  0  0  0  0  0  0  0  0  0
  144.8351   72.8934  221.9482 H   0  0  0  0  0  0  0  0  0  0  0  0
  146.4098   72.0292  221.9482 H   0  0  0  0  0  0  0  0  0  0  0  0
  145.9243   74.8063  220.7944 H   0  0  0  0  0  0  0  0  0  0  0  0
  147.4548   73.8129  220.7263 H   0  0  0  0  0  0  0  0  0  0  0  0
  146.9092   71.0679  218.7182 H   0  0  0  0  0  0  0  0  0  0  0  0
  147.2620   68.5937  218.7796 H   0  0  0  0  0  0  0  0  0  0  0  0
  145.3856   67.1637  219.5837 H   0  0  0  0  0  0  0  0  0  0  0  0
  143.2500   68.1148  220.2987 H   0  0  0  0  0  0  0  0  0  0  0  0
  142.8897   70.5872  220.2379 H   0  0  0  0  0  0  0  0  0  0  0  0
  142.7991   72.4725  218.5818 H   0  0  0  0  0  0  0  0  0  0  0  0
  142.4152   71.8809  220.8132 H   0  0  0  0  0  0  0  0  0  0  0  0
  143.2726   73.2979  221.4349 H   0  0  0  0  0  0  0  0  0  0  0  0
  140.9126   73.4218  219.4587 H   0  0  0  0  0  0  0  0  0  0  0  0
  140.7490   73.6252  221.2380 H   0  0  0  0  0  0  0  0  0  0  0  0
  140.9571   76.5379  222.9244 H   0  0  0  0  0  0  0  0  0  0  0  0
  139.1990   74.9630  223.2930 H   0  0  0  0  0  0  0  0  0  0  0  0
  138.9660   74.7490  221.6360 H   0  0  0  0  0  0  0  0  0  0  0  0
  139.2879   77.7165  220.9561 H   0  0  0  0  0  0  0  0  0  0  0  0
  138.2894   76.7169  222.1820 H   0  0  0  0  0  0  0  0  0  0  0  0
  139.0253   77.9181  223.8930 H   0  0  0  0  0  0  0  0  0  0  0  0
  137.6616   79.6505  223.7171 H   0  0  0  0  0  0  0  0  0  0  0  0
  138.3819   80.2201  222.1733 H   0  0  0  0  0  0  0  0  0  0  0  0
  137.2359   78.8368  222.1733 H   0  0  0  0  0  0  0  0  0  0  0  0
  140.0116   80.1040  220.9892 H   0  0  0  0  0  0  0  0  0  0  0  0
  142.1221   81.4119  220.8754 H   0  0  0  0  0  0  0  0  0  0  0  0
  143.7753   81.2120  222.7413 H   0  0  0  0  0  0  0  0  0  0  0  0
  143.3146   79.7275  224.6722 H   0  0  0  0  0  0  0  0  0  0  0  0
  141.1910   78.4291  224.7639 H   0  0  0  0  0  0  0  0  0  0  0  0
  142.1832   75.7962  218.3252 H   0  0  0  0  0  0  0  0  0  0  0  0
  143.4124   76.1977  219.6589 H   0  0  0  0  0  0  0  0  0  0  0  0
  143.5296   74.3047  217.6773 H   0  0  0  0  0  0  0  0  0  0  0  0
  144.6059   74.6677  219.1740 H   0  0  0  0  0  0  0  0  0  0  0  0
  1  2  1  0
  2  3  1  0
  3  4  2  0
  3  5  1  0
  5  6  1  0
  6  7  2  0
  7  8  1  0
  8  9  2  0
  9 10  1  0
 10 11  2  0
  5 12  1  0
 12 13  1  0
 13 14  1  0
 14 15  1  0
 15 16  1  0
 16 17  2  0
 16 18  1  0
 18 19  1  0
 18 20  1  0
 20 21  1  0
 21 22  1  0
 21 23  1  0
 23 24  2  0
 24 25  1  0
 25 26  2  0
 26 27  1  0
 27 28  2  0
 15 29  1  0
 29 30  1  0
 11  6  1  0
 30 12  1  0
 28 23  1  0
  1 31  1  0
  1 32  1  0
  1 33  1  0
  2 34  1  0
  2 35  1  0
  7 36  1  0
  8 37  1  0
  9 38  1  0
 10 39  1  0
 11 40  1  0
 12 41  1  0
 13 42  1  0
 13 43  1  0
 14 44  1  0
 14 45  1  0
 18 46  1  1
 19 47  1  0
 19 48  1  0
 20 49  1  0
 20 50  1  0
 21 51  1  1
 22 52  1  0
 22 53  1  0
 22 54  1  0
 24 55  1  0
 25 56  1  0
 26 57  1  0
 27 58  1  0
 28 59  1  0
 29 60  1  0
 29 61  1  0
 30 62  1  0
 30 63  1  0
M  END
>  <smiles>  (47) 
CCC(=O)N(c1ccccc1)C1CCN(C(=O)[C@H](N)CC(C)c2ccccc2)CC1

>  <score_type>  (47) 
oracle

>  <origin>  (47) 
autodockgpu

>  <m_score__min__energy>  (47) 
-8.8699999999999992

>  <m_primary>  (47) 
energy

>  <rmsd>  (47) 
6.45996684045463

>  <m_score__min__rmsd>  (47) 
6.45996684045463

>  <meeko>  (47) 
{"free_energy": -7.98, "intermolecular_energy": -10.67, "internal_energy": -1.91, "cluster_size": 4, "cluster_id": 2, "rank_in_cluster": 3}

>  <energy>  (47) 
-5.92

>  <cluster_rmsd>  (47) 
0.63

>  <cluster>  (47) 
11

$$$$

     RDKit          3D

 63 65  0  0  0  0  0  0  0  0999 V2000
  135.8640   72.4410  221.4160 C   0  0  0  0  0  0  0  0  0  0  0  0
  136.6100   71.2350  221.9370 C   0  0  0  0  0  0  0  0  0  0  0  0
  137.4650   71.5340  223.1090 C   0  0  0  0  0  0  0  0  0  0  0  0
  136.8800   71.8640  224.1790 O   0  0  0  0  0  0  0  0  0  0  0  0
  138.8910   71.4470  223.0110 N   0  0  0  0  0  0  0  0  0  0  0  0
  139.6220   70.9690  224.1350 C   0  0  0  0  0  0  0  0  0  0  0  0
  140.3640   71.8850  224.8640 C   0  0  0  0  0  0  0  0  0  0  0  0
  141.0930   71.4810  225.9620 C   0  0  0  0  0  0  0  0  0  0  0  0
  141.0430   70.1310  226.2910 C   0  0  0  0  0  0  0  0  0  0  0  0
  140.3110   69.2180  225.5760 C   0  0  0  0  0  0  0  0  0  0  0  0
  139.5810   69.6200  224.4760 C   0  0  0  0  0  0  0  0  0  0  0  0
  139.5420   71.8560  221.7680 C   0  0  0  0  0  0  0  0  0  0  0  0
  139.1930   73.2670  221.4100 C   0  0  0  0  0  0  0  0  0  0  0  0
  140.0450   73.6050  220.1950 C   0  0  0  0  0  0  0  0  0  0  0  0
  141.4280   73.6610  220.5720 N   0  0  0  0  0  0  0  0  0  0  0  0
  142.3300   74.7220  220.3870 C   0  0  0  0  0  0  0  0  0  0  0  0
  143.5370   74.5280  220.8350 O   0  0  0  0  0  0  0  0  0  0  0  0
  142.1330   76.0320  219.7660 C   0  0  2  0  0  0  0  0  0  0  0  0
  143.3250   76.8450  219.6790 N   0  0  0  0  0  0  0  0  0  0  0  0
  141.0580   76.8950  220.3690 C   0  0  0  0  0  0  0  0  0  0  0  0
  140.8920   76.9070  221.8290 C   0  0  2  0  0  0  0  0  0  0  0  0
  139.5960   76.3780  222.3140 C   0  0  0  0  0  0  0  0  0  0  0  0
  141.0990   78.3000  222.3920 C   0  0  0  0  0  0  0  0  0  0  0  0
  142.2520   79.0150  222.0490 C   0  0  0  0  0  0  0  0  0  0  0  0
  142.4890   80.2880  222.5420 C   0  0  0  0  0  0  0  0  0  0  0  0
  141.5450   80.8540  223.3970 C   0  0  0  0  0  0  0  0  0  0  0  0
  140.4010   80.1610  223.7470 C   0  0  0  0  0  0  0  0  0  0  0  0
  140.1840   78.8810  223.2380 C   0  0  0  0  0  0  0  0  0  0  0  0
  141.9510   72.4600  221.2180 C   0  0  0  0  0  0  0  0  0  0  0  0
  140.9890   71.5770  221.8740 C   0  0  0  0  0  0  0  0  0  0  0  0
  135.4948   73.0379  222.2630 H   0  0  0  0  0  0  0  0  0  0  0  0
  136.5408   73.0541  220.8028 H   0  0  0  0  0  0  0  0  0  0  0  0
  135.0132   72.1091  220.8028 H   0  0  0  0  0  0  0  0  0  0  0  0
  135.8756   70.4692  222.2273 H   0  0  0  0  0  0  0  0  0  0  0  0
  137.2734   70.8898  221.1303 H   0  0  0  0  0  0  0  0  0  0  0  0
  140.3712   72.9432  224.5639 H   0  0  0  0  0  0  0  0  0  0  0  0
  141.6875   72.1946  226.5514 H   0  0  0  0  0  0  0  0  0  0  0  0
  141.6153   69.7802  227.1624 H   0  0  0  0  0  0  0  0  0  0  0  0
  140.3057   68.1610  225.8805 H   0  0  0  0  0  0  0  0  0  0  0  0
  138.9888   68.9013  223.8905 H   0  0  0  0  0  0  0  0  0  0  0  0
  139.1677   71.2664  220.9181 H   0  0  0  0  0  0  0  0  0  0  0  0
  138.1240   73.3471  221.1634 H   0  0  0  0  0  0  0  0  0  0  0  0
  139.3836   73.9573  222.2450 H   0  0  0  0  0  0  0  0  0  0  0  0
  139.9072   72.8310  219.4256 H   0  0  0  0  0  0  0  0  0  0  0  0
  139.7373   74.5829  219.7962 H   0  0  0  0  0  0  0  0  0  0  0  0
  141.8118   75.7163  218.7624 H   0  0  0  0  0  0  0  0  0  0  0  0
  143.1190   77.8660  219.7150 H   0  0  0  0  0  0  0  0  0  0  0  0
  144.0010   76.6130  220.4220 H   0  0  0  0  0  0  0  0  0  0  0  0
  141.2635   77.9302  220.0591 H   0  0  0  0  0  0  0  0  0  0  0  0
  140.1226   76.4491  219.9999 H   0  0  0  0  0  0  0  0  0  0  0  0
  141.6688   76.2198  222.1954 H   0  0  0  0  0  0  0  0  0  0  0  0
  139.5896   76.3754  223.4140 H   0  0  0  0  0  0  0  0  0  0  0  0
  138.7786   77.0145  221.9441 H   0  0  0  0  0  0  0  0  0  0  0  0
  139.4575   75.3514  221.9441 H   0  0  0  0  0  0  0  0  0  0  0  0
  142.9874   78.5556  221.3721 H   0  0  0  0  0  0  0  0  0  0  0  0
  143.4002   80.8386  222.2653 H   0  0  0  0  0  0  0  0  0  0  0  0
  141.7122   81.8645  223.7983 H   0  0  0  0  0  0  0  0  0  0  0  0
  139.6646   80.6177  224.4246 H   0  0  0  0  0  0  0  0  0  0  0  0
  139.2727   78.3312  223.5158 H   0  0  0  0  0  0  0  0  0  0  0  0
  142.4689   71.8698  220.4477 H   0  0  0  0  0  0  0  0  0  0  0  0
  142.5906   72.8335  222.0313 H   0  0  0  0  0  0  0  0  0  0  0  0
  141.1497   70.5697  221.4622 H   0  0  0  0  0  0  0  0  0  0  0  0
  141.1982   71.7236  222.9439 H   0  0  0  0  0  0  0  0  0  0  0  0
  1  2  1  0
  2  3  1  0
  3  4  2  0
  3  5  1  0
  5  6  1  0
  6  7  2  0
  7  8  1  0
  8  9  2  0
  9 10  1  0
 10 11  2  0
  5 12  1  0
 12 13  1  0
 13 14  1  0
 14 15  1  0
 15 16  1  0
 16 17  2  0
 16 18  1  0
 18 19  1  0
 18 20  1  0
 20 21  1  0
 21 22  1  0
 21 23  1  0
 23 24  2  0
 24 25  1  0
 25 26  2  0
 26 27  1  0
 27 28  2  0
 15 29  1  0
 29 30  1  0
 11  6  1  0
 30 12  1  0
 28 23  1  0
  1 31  1  0
  1 32  1  0
  1 33  1  0
  2 34  1  0
  2 35  1  0
  7 36  1  0
  8 37  1  0
  9 38  1  0
 10 39  1  0
 11 40  1  0
 12 41  1  0
 13 42  1  0
 13 43  1  0
 14 44  1  0
 14 45  1  0
 18 46  1  6
 19 47  1  0
 19 48  1  0
 20 49  1  0
 20 50  1  0
 21 51  1  1
 22 52  1  0
 22 53  1  0
 22 54  1  0
 24 55  1  0
 25 56  1  0
 26 57  1  0
 27 58  1  0
 28 59  1  0
 29 60  1  0
 29 61  1  0
 30 62  1  0
 30 63  1  0
M  END
>  <smiles>  (48) 
CCC(=O)N(c1ccccc1)C1CCN(C(=O)[C@H](N)CC(C)c2ccccc2)CC1

>  <score_type>  (48) 
oracle

>  <origin>  (48) 
autodockgpu

>  <m_score__min__energy>  (48) 
-8.8699999999999992

>  <m_primary>  (48) 
energy

>  <rmsd>  (48) 
6.291666104527544

>  <m_score__min__rmsd>  (48) 
6.291666104527544

>  <meeko>  (48) 
{"free_energy": -6.94, "intermolecular_energy": -9.62, "internal_energy": -2.7, "cluster_size": 10, "cluster_id": 5, "rank_in_cluster": 9}

>  <energy>  (48) 
-5.91

>  <cluster_rmsd>  (48) 
0.63

>  <cluster>  (48) 
11

$$$$

     RDKit          3D

 63 65  0  0  0  0  0  0  0  0999 V2000
  146.4460   73.6440  221.4310 C   0  0  0  0  0  0  0  0  0  0  0  0
  145.2970   72.6870  221.2140 C   0  0  0  0  0  0  0  0  0  0  0  0
  145.1960   72.1970  219.8190 C   0  0  0  0  0  0  0  0  0  0  0  0
  146.0160   72.6720  218.9820 O   0  0  0  0  0  0  0  0  0  0  0  0
  144.2060   71.2290  219.4570 N   0  0  0  0  0  0  0  0  0  0  0  0
  144.6290   69.9030  219.1550 C   0  0  0  0  0  0  0  0  0  0  0  0
  145.2210   69.6750  217.9230 C   0  0  0  0  0  0  0  0  0  0  0  0
  145.6490   68.4120  217.5740 C   0  0  0  0  0  0  0  0  0  0  0  0
  145.4580   67.4010  218.5090 C   0  0  0  0  0  0  0  0  0  0  0  0
  144.8740   67.6170  219.7310 C   0  0  0  0  0  0  0  0  0  0  0  0
  144.4440   68.8810  220.0820 C   0  0  0  0  0  0  0  0  0  0  0  0
  142.8030   71.6360  219.4050 C   0  0  0  0  0  0  0  0  0  0  0  0
  141.9210   70.6400  220.0900 C   0  0  0  0  0  0  0  0  0  0  0  0
  140.5290   71.2560  220.0900 C   0  0  0  0  0  0  0  0  0  0  0  0
  140.5070   72.4060  220.9470 N   0  0  0  0  0  0  0  0  0  0  0  0
  139.6470   72.6580  222.0290 C   0  0  0  0  0  0  0  0  0  0  0  0
  139.8420   73.7790  222.6610 O   0  0  0  0  0  0  0  0  0  0  0  0
  138.5520   71.8550  222.5730 C   0  0  2  0  0  0  0  0  0  0  0  0
  137.2480   72.4710  222.4810 N   0  0  0  0  0  0  0  0  0  0  0  0
  138.7160   71.3870  223.9930 C   0  0  0  0  0  0  0  0  0  0  0  0
  139.8350   70.4930  224.3220 C   0  0  2  0  0  0  0  0  0  0  0  0
  139.5680   69.0530  224.1060 C   0  0  0  0  0  0  0  0  0  0  0  0
  140.3000   70.7010  225.7510 C   0  0  0  0  0  0  0  0  0  0  0  0
  140.9830   71.8740  226.0880 C   0  0  0  0  0  0  0  0  0  0  0  0
  141.4310   72.1080  227.3770 C   0  0  0  0  0  0  0  0  0  0  0  0
  141.1870   71.1400  228.3500 C   0  0  0  0  0  0  0  0  0  0  0  0
  140.5130   69.9740  228.0340 C   0  0  0  0  0  0  0  0  0  0  0  0
  140.0710   69.7620  226.7290 C   0  0  0  0  0  0  0  0  0  0  0  0
  141.4980   73.4350  220.6420 C   0  0  0  0  0  0  0  0  0  0  0  0
  142.6910   73.0220  219.9060 C   0  0  0  0  0  0  0  0  0  0  0  0
  146.6104   73.7809  222.5100 H   0  0  0  0  0  0  0  0  0  0  0  0
  147.3568   73.2338  220.9705 H   0  0  0  0  0  0  0  0  0  0  0  0
  146.2072   74.6140  220.9705 H   0  0  0  0  0  0  0  0  0  0  0  0
  145.4336   71.8213  221.8788 H   0  0  0  0  0  0  0  0  0  0  0  0
  144.3699   73.2368  221.4335 H   0  0  0  0  0  0  0  0  0  0  0  0
  145.3505   70.5090  217.2175 H   0  0  0  0  0  0  0  0  0  0  0  0
  146.1202   68.2131  216.6001 H   0  0  0  0  0  0  0  0  0  0  0  0
  145.7899   66.3829  218.2576 H   0  0  0  0  0  0  0  0  0  0  0  0
  144.7478   66.7802  220.4338 H   0  0  0  0  0  0  0  0  0  0  0  0
  143.9730   69.0734  221.0573 H   0  0  0  0  0  0  0  0  0  0  0  0
  142.4360   71.6439  218.3681 H   0  0  0  0  0  0  0  0  0  0  0  0
  141.9190   69.6872  219.5404 H   0  0  0  0  0  0  0  0  0  0  0  0
  142.2694   70.4225  221.1105 H   0  0  0  0  0  0  0  0  0  0  0  0
  140.2634   71.5583  219.0662 H   0  0  0  0  0  0  0  0  0  0  0  0
  139.8038   70.5151  220.4575 H   0  0  0  0  0  0  0  0  0  0  0  0
  138.6108   70.9829  221.9052 H   0  0  0  0  0  0  0  0  0  0  0  0
  136.4760   71.8190  222.7360 H   0  0  0  0  0  0  0  0  0  0  0  0
  137.1820   73.3150  223.0690 H   0  0  0  0  0  0  0  0  0  0  0  0
  138.8261   72.2854  224.6182 H   0  0  0  0  0  0  0  0  0  0  0  0
  137.8230   70.7705  224.1732 H   0  0  0  0  0  0  0  0  0  0  0  0
  140.6250   70.7756  223.6106 H   0  0  0  0  0  0  0  0  0  0  0  0
  139.4743   68.5476  225.0785 H   0  0  0  0  0  0  0  0  0  0  0  0
  138.6326   68.9345  223.5395 H   0  0  0  0  0  0  0  0  0  0  0  0
  140.3987   68.6070  223.5395 H   0  0  0  0  0  0  0  0  0  0  0  0
  141.1688   72.6291  225.3100 H   0  0  0  0  0  0  0  0  0  0  0  0
  141.9667   73.0356  227.6273 H   0  0  0  0  0  0  0  0  0  0  0  0
  141.5343   71.3052  229.3806 H   0  0  0  0  0  0  0  0  0  0  0  0
  140.3265   69.2168  228.8098 H   0  0  0  0  0  0  0  0  0  0  0  0
  139.5341   68.8350  226.4794 H   0  0  0  0  0  0  0  0  0  0  0  0
  140.9952   74.2113  220.0466 H   0  0  0  0  0  0  0  0  0  0  0  0
  141.8722   73.7648  221.6224 H   0  0  0  0  0  0  0  0  0  0  0  0
  142.7704   73.6841  219.0312 H   0  0  0  0  0  0  0  0  0  0  0  0
  143.4898   73.0856  220.6596 H   0  0  0  0  0  0  0  0  0  0  0  0
  1  2  1  0
  2  3  1  0
  3  4  2  0
  3  5  1  0
  5  6  1  0
  6  7  2  0
  7  8  1  0
  8  9  2  0
  9 10  1  0
 10 11  2  0
  5 12  1  0
 12 13  1  0
 13 14  1  0
 14 15  1  0
 15 16  1  0
 16 17  2  0
 16 18  1  0
 18 19  1  0
 18 20  1  0
 20 21  1  0
 21 22  1  0
 21 23  1  0
 23 24  2  0
 24 25  1  0
 25 26  2  0
 26 27  1  0
 27 28  2  0
 15 29  1  0
 29 30  1  0
 11  6  1  0
 30 12  1  0
 28 23  1  0
  1 31  1  0
  1 32  1  0
  1 33  1  0
  2 34  1  0
  2 35  1  0
  7 36  1  0
  8 37  1  0
  9 38  1  0
 10 39  1  0
 11 40  1  0
 12 41  1  0
 13 42  1  0
 13 43  1  0
 14 44  1  0
 14 45  1  0
 18 46  1  6
 19 47  1  0
 19 48  1  0
 20 49  1  0
 20 50  1  0
 21 51  1  6
 22 52  1  0
 22 53  1  0
 22 54  1  0
 24 55  1  0
 25 56  1  0
 26 57  1  0
 27 58  1  0
 28 59  1  0
 29 60  1  0
 29 61  1  0
 30 62  1  0
 30 63  1  0
M  END
>  <smiles>  (49) 
CCC(=O)N(c1ccccc1)C1CCN(C(=O)[C@H](N)CC(C)c2ccccc2)CC1

>  <score_type>  (49) 
oracle

>  <origin>  (49) 
autodockgpu

>  <m_score__min__energy>  (49) 
-8.8699999999999992

>  <m_primary>  (49) 
energy

>  <rmsd>  (49) 
8.443449048367862

>  <m_score__min__rmsd>  (49) 
8.443449048367862

>  <meeko>  (49) 
{"free_energy": -8.32, "intermolecular_energy": -11.0, "internal_energy": -1.76, "cluster_size": 10, "cluster_id": 1, "rank_in_cluster": 9}

>  <energy>  (49) 
-5.91

>  <cluster_rmsd>  (49) 
0.58

>  <cluster>  (49) 
11

$$$$

     RDKit          3D

 63 65  0  0  0  0  0  0  0  0999 V2000
  146.5640   73.4220  221.6190 C   0  0  0  0  0  0  0  0  0  0  0  0
  145.3000   72.8010  221.0730 C   0  0  0  0  0  0  0  0  0  0  0  0
  145.4120   72.3910  219.6540 C   0  0  0  0  0  0  0  0  0  0  0  0
  146.2760   72.9860  218.9490 O   0  0  0  0  0  0  0  0  0  0  0  0
  144.5680   71.3630  219.1240 N   0  0  0  0  0  0  0  0  0  0  0  0
  145.1740   70.1840  218.6060 C   0  0  0  0  0  0  0  0  0  0  0  0
  145.1680   69.0480  219.3990 C   0  0  0  0  0  0  0  0  0  0  0  0
  145.7410   67.8760  218.9500 C   0  0  0  0  0  0  0  0  0  0  0  0
  146.3130   67.8990  217.6830 C   0  0  0  0  0  0  0  0  0  0  0  0
  146.3230   69.0190  216.8910 C   0  0  0  0  0  0  0  0  0  0  0  0
  145.7500   70.1930  217.3390 C   0  0  0  0  0  0  0  0  0  0  0  0
  143.1200   71.5640  219.1280 C   0  0  0  0  0  0  0  0  0  0  0  0
  142.4420   70.6220  220.0750 C   0  0  0  0  0  0  0  0  0  0  0  0
  140.9780   71.0370  220.0890 C   0  0  0  0  0  0  0  0  0  0  0  0
  140.8440   72.3250  220.7060 N   0  0  0  0  0  0  0  0  0  0  0  0
  140.0320   72.6790  221.7960 C   0  0  0  0  0  0  0  0  0  0  0  0
  140.1020   73.9210  222.1790 O   0  0  0  0  0  0  0  0  0  0  0  0
  139.1070   71.8670  222.5870 C   0  0  2  0  0  0  0  0  0  0  0  0
  137.7860   72.4330  222.7390 N   0  0  0  0  0  0  0  0  0  0  0  0
  139.5770   71.4790  223.9630 C   0  0  0  0  0  0  0  0  0  0  0  0
  139.8920   70.0690  224.2340 C   0  0  2  0  0  0  0  0  0  0  0  0
  138.8140   69.1120  223.8960 C   0  0  0  0  0  0  0  0  0  0  0  0
  140.2940   69.8680  225.6830 C   0  0  0  0  0  0  0  0  0  0  0  0
  140.3460   68.5720  226.2080 C   0  0  0  0  0  0  0  0  0  0  0  0
  140.7030   68.3370  227.5250 C   0  0  0  0  0  0  0  0  0  0  0  0
  141.0150   69.4300  228.3330 C   0  0  0  0  0  0  0  0  0  0  0  0
  140.9680   70.7170  227.8310 C   0  0  0  0  0  0  0  0  0  0  0  0
  140.6060   70.9280  226.5010 C   0  0  0  0  0  0  0  0  0  0  0  0
  141.6500   73.3910  220.1140 C   0  0  0  0  0  0  0  0  0  0  0  0
  142.8380   72.9950  219.3610 C   0  0  0  0  0  0  0  0  0  0  0  0
  146.5344   73.4074  222.7185 H   0  0  0  0  0  0  0  0  0  0  0  0
  147.4351   72.8493  221.2681 H   0  0  0  0  0  0  0  0  0  0  0  0
  146.6430   74.4615  221.2681 H   0  0  0  0  0  0  0  0  0  0  0  0
  145.0599   71.9122  221.6749 H   0  0  0  0  0  0  0  0  0  0  0  0
  144.5117   73.5661  221.1289 H   0  0  0  0  0  0  0  0  0  0  0  0
  144.7024   69.0807  220.3951 H   0  0  0  0  0  0  0  0  0  0  0  0
  145.7451   66.9649  219.5663 H   0  0  0  0  0  0  0  0  0  0  0  0
  146.7778   66.9790  217.2989 H   0  0  0  0  0  0  0  0  0  0  0  0
  146.7892   68.9819  215.8954 H   0  0  0  0  0  0  0  0  0  0  0  0
  145.7489   71.1009  216.7179 H   0  0  0  0  0  0  0  0  0  0  0  0
  142.6881   71.3120  218.1482 H   0  0  0  0  0  0  0  0  0  0  0  0
  142.5435   69.5848  219.7230 H   0  0  0  0  0  0  0  0  0  0  0  0
  142.8866   70.6661  221.0802 H   0  0  0  0  0  0  0  0  0  0  0  0
  140.6024   71.0859  219.0563 H   0  0  0  0  0  0  0  0  0  0  0  0
  140.3965   70.2984  220.6602 H   0  0  0  0  0  0  0  0  0  0  0  0
  139.0671   70.9644  221.9595 H   0  0  0  0  0  0  0  0  0  0  0  0
  137.7980   73.4730  222.8000 H   0  0  0  0  0  0  0  0  0  0  0  0
  137.1580   72.1500  221.9720 H   0  0  0  0  0  0  0  0  0  0  0  0
  140.4889   72.0589  224.1682 H   0  0  0  0  0  0  0  0  0  0  0  0
  138.7099   71.6857  224.6075 H   0  0  0  0  0  0  0  0  0  0  0  0
  140.7327   69.8452  223.5608 H   0  0  0  0  0  0  0  0  0  0  0  0
  138.3700   68.7178  224.8220 H   0  0  0  0  0  0  0  0  0  0  0  0
  138.0393   69.6252  223.3074 H   0  0  0  0  0  0  0  0  0  0  0  0
  139.2318   68.2819  223.3074 H   0  0  0  0  0  0  0  0  0  0  0  0
  140.0973   67.7195  225.5589 H   0  0  0  0  0  0  0  0  0  0  0  0
  140.7397   67.3127  227.9244 H   0  0  0  0  0  0  0  0  0  0  0  0
  141.3019   69.2660  229.3822 H   0  0  0  0  0  0  0  0  0  0  0  0
  141.2152   71.5714  228.4782 H   0  0  0  0  0  0  0  0  0  0  0  0
  140.5697   71.9526  226.1024 H   0  0  0  0  0  0  0  0  0  0  0  0
  140.9992   73.9563  219.4307 H   0  0  0  0  0  0  0  0  0  0  0  0
  142.0369   73.9611  220.9715 H   0  0  0  0  0  0  0  0  0  0  0  0
  142.7596   73.4687  218.3713 H   0  0  0  0  0  0  0  0  0  0  0  0
  143.6672   73.3145  220.0093 H   0  0  0  0  0  0  0  0  0  0  0  0
  1  2  1  0
  2  3  1  0
  3  4  2  0
  3  5  1  0
  5  6  1  0
  6  7  2  0
  7  8  1  0
  8  9  2  0
  9 10  1  0
 10 11  2  0
  5 12  1  0
 12 13  1  0
 13 14  1  0
 14 15  1  0
 15 16  1  0
 16 17  2  0
 16 18  1  0
 18 19  1  0
 18 20  1  0
 20 21  1  0
 21 22  1  0
 21 23  1  0
 23 24  2  0
 24 25  1  0
 25 26  2  0
 26 27  1  0
 27 28  2  0
 15 29  1  0
 29 30  1  0
 11  6  1  0
 30 12  1  0
 28 23  1  0
  1 31  1  0
  1 32  1  0
  1 33  1  0
  2 34  1  0
  2 35  1  0
  7 36  1  0
  8 37  1  0
  9 38  1  0
 10 39  1  0
 11 40  1  0
 12 41  1  0
 13 42  1  0
 13 43  1  0
 14 44  1  0
 14 45  1  0
 18 46  1  6
 19 47  1  0
 19 48  1  0
 20 49  1  0
 20 50  1  0
 21 51  1  6
 22 52  1  0
 22 53  1  0
 22 54  1  0
 24 55  1  0
 25 56  1  0
 26 57  1  0
 27 58  1  0
 28 59  1  0
 29 60  1  0
 29 61  1  0
 30 62  1  0
 30 63  1  0
M  END
>  <smiles>  (50) 
CCC(=O)N(c1ccccc1)C1CCN(C(=O)[C@H](N)CC(C)c2ccccc2)CC1

>  <score_type>  (50) 
oracle

>  <origin>  (50) 
autodockgpu

>  <m_score__min__energy>  (50) 
-8.8699999999999992

>  <m_primary>  (50) 
energy

>  <rmsd>  (50) 
8.47823417786679

>  <m_score__min__rmsd>  (50) 
8.47823417786679

>  <meeko>  (50) 
{"free_energy": -8.53, "intermolecular_energy": -11.21, "internal_energy": -1.96, "cluster_size": 10, "cluster_id": 1, "rank_in_cluster": 3}

>  <energy>  (50) 
-5.9

>  <cluster_rmsd>  (50) 
0.0

>  <cluster>  (50) 
12

$$$$

     RDKit          3D

 63 65  0  0  0  0  0  0  0  0999 V2000
  138.7460   67.4510  222.7100 C   0  0  0  0  0  0  0  0  0  0  0  0
  138.2050   68.8210  222.3170 C   0  0  0  0  0  0  0  0  0  0  0  0
  138.1290   69.6270  223.5420 C   0  0  0  0  0  0  0  0  0  0  0  0
  137.0630   69.4930  224.2400 O   0  0  0  0  0  0  0  0  0  0  0  0
  139.0810   70.5300  224.0420 N   0  0  0  0  0  0  0  0  0  0  0  0
  139.6720   70.1560  225.3180 C   0  0  0  0  0  0  0  0  0  0  0  0
  140.1700   71.1910  226.0820 C   0  0  0  0  0  0  0  0  0  0  0  0
  140.7470   70.9120  227.3100 C   0  0  0  0  0  0  0  0  0  0  0  0
  140.8090   69.6010  227.7400 C   0  0  0  0  0  0  0  0  0  0  0  0
  140.3010   68.5790  226.9500 C   0  0  0  0  0  0  0  0  0  0  0  0
  139.7150   68.8340  225.7120 C   0  0  0  0  0  0  0  0  0  0  0  0
  139.5500   71.7390  223.4460 C   0  0  0  0  0  0  0  0  0  0  0  0
  141.0150   71.5690  223.0670 C   0  0  0  0  0  0  0  0  0  0  0  0
  141.1990   72.1330  221.6750 C   0  0  0  0  0  0  0  0  0  0  0  0
  140.6290   73.4860  221.6060 N   0  0  0  0  0  0  0  0  0  0  0  0
  141.4830   74.5240  221.1370 C   0  0  0  0  0  0  0  0  0  0  0  0
  142.6590   74.2090  220.8120 O   0  0  0  0  0  0  0  0  0  0  0  0
  141.0870   75.9310  221.0070 C   0  0  2  0  0  0  0  0  0  0  0  0
  142.1020   76.7340  220.3630 N   0  0  0  0  0  0  0  0  0  0  0  0
  140.5070   76.5410  222.2280 C   0  0  0  0  0  0  0  0  0  0  0  0
  139.7480   77.7830  222.1410 C   0  0  1  0  0  0  0  0  0  0  0  0
  138.4520   77.9110  222.8400 C   0  0  0  0  0  0  0  0  0  0  0  0
  140.6200   78.8720  222.7150 C   0  0  0  0  0  0  0  0  0  0  0  0
  140.1260   80.1540  222.5990 C   0  0  0  0  0  0  0  0  0  0  0  0
  140.8110   81.2650  223.0790 C   0  0  0  0  0  0  0  0  0  0  0  0
  142.0300   81.0190  223.6840 C   0  0  0  0  0  0  0  0  0  0  0  0
  142.5250   79.7340  223.7990 C   0  0  0  0  0  0  0  0  0  0  0  0
  141.8160   78.6350  223.3090 C   0  0  0  0  0  0  0  0  0  0  0  0
  139.2650   73.6800  222.0110 C   0  0  0  0  0  0  0  0  0  0  0  0
  138.7180   72.2730  222.3250 C   0  0  0  0  0  0  0  0  0  0  0  0
  138.7779   67.3702  223.8066 H   0  0  0  0  0  0  0  0  0  0  0  0
  138.0899   66.6673  222.3035 H   0  0  0  0  0  0  0  0  0  0  0  0
  139.7606   67.3270  222.3035 H   0  0  0  0  0  0  0  0  0  0  0  0
  138.8809   69.2993  221.5928 H   0  0  0  0  0  0  0  0  0  0  0  0
  137.2140   68.7292  221.8486 H   0  0  0  0  0  0  0  0  0  0  0  0
  140.1095   72.2278  225.7196 H   0  0  0  0  0  0  0  0  0  0  0  0
  141.1502   71.7233  227.9340 H   0  0  0  0  0  0  0  0  0  0  0  0
  141.2634   69.3655  228.7137 H   0  0  0  0  0  0  0  0  0  0  0  0
  140.3626   67.5416  227.3105 H   0  0  0  0  0  0  0  0  0  0  0  0
  139.3094   68.0271  225.0840 H   0  0  0  0  0  0  0  0  0  0  0  0
  139.4494   72.5267  224.2072 H   0  0  0  0  0  0  0  0  0  0  0  0
  141.6518   72.1142  223.7792 H   0  0  0  0  0  0  0  0  0  0  0  0
  141.2986   70.5065  223.0926 H   0  0  0  0  0  0  0  0  0  0  0  0
  142.2722   72.1765  221.4376 H   0  0  0  0  0  0  0  0  0  0  0  0
  140.6847   71.4851  220.9500 H   0  0  0  0  0  0  0  0  0  0  0  0
  140.2293   75.9192  220.3183 H   0  0  0  0  0  0  0  0  0  0  0  0
  143.0530   76.3860  220.4770 H   0  0  0  0  0  0  0  0  0  0  0  0
  141.8370   77.1800  219.4860 H   0  0  0  0  0  0  0  0  0  0  0  0
  139.8344   75.7898  222.6677 H   0  0  0  0  0  0  0  0  0  0  0  0
  141.3955   76.8318  222.8076 H   0  0  0  0  0  0  0  0  0  0  0  0
  139.4887   77.8336  221.0732 H   0  0  0  0  0  0  0  0  0  0  0  0
  138.6186   77.8946  223.9272 H   0  0  0  0  0  0  0  0  0  0  0  0
  137.9747   78.8607  222.5565 H   0  0  0  0  0  0  0  0  0  0  0  0
  137.7982   77.0731  222.5565 H   0  0  0  0  0  0  0  0  0  0  0  0
  139.1531   80.3037  222.1081 H   0  0  0  0  0  0  0  0  0  0  0  0
  140.4057   82.2831  222.9828 H   0  0  0  0  0  0  0  0  0  0  0  0
  142.6160   81.8612  224.0807 H   0  0  0  0  0  0  0  0  0  0  0  0
  143.4978   79.5733  224.2867 H   0  0  0  0  0  0  0  0  0  0  0  0
  142.2135   77.6135  223.4016 H   0  0  0  0  0  0  0  0  0  0  0  0
  139.2178   74.3182  222.9057 H   0  0  0  0  0  0  0  0  0  0  0  0
  138.6761   74.1786  221.2271 H   0  0  0  0  0  0  0  0  0  0  0  0
  137.6628   72.3340  222.6296 H   0  0  0  0  0  0  0  0  0  0  0  0
  138.7693   71.6184  221.4425 H   0  0  0  0  0  0  0  0  0  0  0  0
  1  2  1  0
  2  3  1  0
  3  4  2  0
  3  5  1  0
  5  6  1  0
  6  7  2  0
  7  8  1  0
  8  9  2  0
  9 10  1  0
 10 11  2  0
  5 12  1  0
 12 13  1  0
 13 14  1  0
 14 15  1  0
 15 16  1  0
 16 17  2  0
 16 18  1  0
 18 19  1  0
 18 20  1  0
 20 21  1  0
 21 22  1  0
 21 23  1  0
 23 24  2  0
 24 25  1  0
 25 26  2  0
 26 27  1  0
 27 28  2  0
 15 29  1  0
 29 30  1  0
 11  6  1  0
 30 12  1  0
 28 23  1  0
  1 31  1  0
  1 32  1  0
  1 33  1  0
  2 34  1  0
  2 35  1  0
  7 36  1  0
  8 37  1  0
  9 38  1  0
 10 39  1  0
 11 40  1  0
 12 41  1  0
 13 42  1  0
 13 43  1  0
 14 44  1  0
 14 45  1  0
 18 46  1  6
 19 47  1  0
 19 48  1  0
 20 49  1  0
 20 50  1  0
 21 51  1  6
 22 52  1  0
 22 53  1  0
 22 54  1  0
 24 55  1  0
 25 56  1  0
 26 57  1  0
 27 58  1  0
 28 59  1  0
 29 60  1  0
 29 61  1  0
 30 62  1  0
 30 63  1  0
M  END
>  <smiles>  (51) 
CCC(=O)N(c1ccccc1)C1CCN(C(=O)[C@H](N)CC(C)c2ccccc2)CC1

>  <score_type>  (51) 
oracle

>  <origin>  (51) 
autodockgpu

>  <m_score__min__energy>  (51) 
-8.3599999999999994

>  <m_primary>  (51) 
energy

>  <rmsd>  (51) 
6.727889301927492

>  <m_score__min__rmsd>  (51) 
6.727889301927492

>  <meeko>  (51) 
{"free_energy": -7.61, "intermolecular_energy": -10.3, "internal_energy": -2.32, "cluster_size": 18, "cluster_id": 3, "rank_in_cluster": 13}

>  <energy>  (51) 
-8.36

>  <cluster_rmsd>  (51) 
0.0

>  <cluster>  (51) 
1

$$$$

     RDKit          3D

 63 65  0  0  0  0  0  0  0  0999 V2000
  139.2110   68.9440  221.3130 C   0  0  0  0  0  0  0  0  0  0  0  0
  138.7840   68.6560  222.7480 C   0  0  0  0  0  0  0  0  0  0  0  0
  138.4530   69.9440  223.3710 C   0  0  0  0  0  0  0  0  0  0  0  0
  137.2050   70.2120  223.4830 O   0  0  0  0  0  0  0  0  0  0  0  0
  139.3370   70.9200  223.8580 N   0  0  0  0  0  0  0  0  0  0  0  0
  139.7990   70.7060  225.2220 C   0  0  0  0  0  0  0  0  0  0  0  0
  140.6560   71.6610  225.7280 C   0  0  0  0  0  0  0  0  0  0  0  0
  141.1370   71.5250  227.0200 C   0  0  0  0  0  0  0  0  0  0  0  0
  140.7440   70.4350  227.7710 C   0  0  0  0  0  0  0  0  0  0  0  0
  139.8810   69.4890  227.2360 C   0  0  0  0  0  0  0  0  0  0  0  0
  139.3840   69.6040  225.9390 C   0  0  0  0  0  0  0  0  0  0  0  0
  139.8490   72.0660  223.1780 C   0  0  0  0  0  0  0  0  0  0  0  0
  141.1050   71.6680  222.4130 C   0  0  0  0  0  0  0  0  0  0  0  0
  141.0170   72.2840  221.0340 C   0  0  0  0  0  0  0  0  0  0  0  0
  140.7120   73.7160  221.1450 N   0  0  0  0  0  0  0  0  0  0  0  0
  141.5890   74.6180  220.4810 C   0  0  0  0  0  0  0  0  0  0  0  0
  142.5580   74.1250  219.8430 O   0  0  0  0  0  0  0  0  0  0  0  0
  141.4420   76.0780  220.4860 C   0  0  2  0  0  0  0  0  0  0  0  0
  142.5360   76.7480  219.8180 N   0  0  0  0  0  0  0  0  0  0  0  0
  141.0690   76.6720  221.7940 C   0  0  0  0  0  0  0  0  0  0  0  0
  140.1880   77.8310  221.8520 C   0  0  1  0  0  0  0  0  0  0  0  0
  138.9200   77.7630  222.6090 C   0  0  0  0  0  0  0  0  0  0  0  0
  140.9740   78.9500  222.4890 C   0  0  0  0  0  0  0  0  0  0  0  0
  140.9980   80.1360  221.7870 C   0  0  0  0  0  0  0  0  0  0  0  0
  141.6780   81.2600  222.2420 C   0  0  0  0  0  0  0  0  0  0  0  0
  142.3390   81.1290  223.4490 C   0  0  0  0  0  0  0  0  0  0  0  0
  142.3150   79.9410  224.1530 C   0  0  0  0  0  0  0  0  0  0  0  0
  141.6230   78.8260  223.6730 C   0  0  0  0  0  0  0  0  0  0  0  0
  139.5630   74.1180  221.9080 C   0  0  0  0  0  0  0  0  0  0  0  0
  138.8660   72.8100  222.3350 C   0  0  0  0  0  0  0  0  0  0  0  0
  140.1229   69.5591  221.3182 H   0  0  0  0  0  0  0  0  0  0  0  0
  139.4113   67.9957  220.7927 H   0  0  0  0  0  0  0  0  0  0  0  0
  138.4068   69.4850  220.7927 H   0  0  0  0  0  0  0  0  0  0  0  0
  137.9030   67.9974  222.7538 H   0  0  0  0  0  0  0  0  0  0  0  0
  139.5901   68.1513  223.3007 H   0  0  0  0  0  0  0  0  0  0  0  0
  140.9545   72.5219  225.1118 H   0  0  0  0  0  0  0  0  0  0  0  0
  141.8224   72.2749  227.4417 H   0  0  0  0  0  0  0  0  0  0  0  0
  141.1170   70.3158  228.7989 H   0  0  0  0  0  0  0  0  0  0  0  0
  139.5819   68.6272  227.8507 H   0  0  0  0  0  0  0  0  0  0  0  0
  138.6989   68.8572  225.5113 H   0  0  0  0  0  0  0  0  0  0  0  0
  140.1010   72.8070  223.9509 H   0  0  0  0  0  0  0  0  0  0  0  0
  141.9970   72.0442  222.9353 H   0  0  0  0  0  0  0  0  0  0  0  0
  141.1826   70.5730  222.3420 H   0  0  0  0  0  0  0  0  0  0  0  0
  141.9782   72.1549  220.5148 H   0  0  0  0  0  0  0  0  0  0  0  0
  140.2176   71.7864  220.4654 H   0  0  0  0  0  0  0  0  0  0  0  0
  140.5497   76.2719  219.8726 H   0  0  0  0  0  0  0  0  0  0  0  0
  142.9430   77.5210  220.3430 H   0  0  0  0  0  0  0  0  0  0  0  0
  143.1400   76.1630  219.2430 H   0  0  0  0  0  0  0  0  0  0  0  0
  140.5815   75.8753  222.3751 H   0  0  0  0  0  0  0  0  0  0  0  0
  142.0246   77.0666  222.1697 H   0  0  0  0  0  0  0  0  0  0  0  0
  139.8741   77.9478  220.8042 H   0  0  0  0  0  0  0  0  0  0  0  0
  139.1358   77.7746  223.6876 H   0  0  0  0  0  0  0  0  0  0  0  0
  138.2923   78.6288  222.3513 H   0  0  0  0  0  0  0  0  0  0  0  0
  138.3885   76.8351  222.3513 H   0  0  0  0  0  0  0  0  0  0  0  0
  140.4585   80.1954  220.8302 H   0  0  0  0  0  0  0  0  0  0  0  0
  141.6894   82.2014  221.6731 H   0  0  0  0  0  0  0  0  0  0  0  0
  142.8943   81.9867  223.8563 H   0  0  0  0  0  0  0  0  0  0  0  0
  142.8514   79.8712  225.1108 H   0  0  0  0  0  0  0  0  0  0  0  0
  141.6054   77.8810  224.2358 H   0  0  0  0  0  0  0  0  0  0  0  0
  139.8725   74.6939  222.7926 H   0  0  0  0  0  0  0  0  0  0  0  0
  138.8918   74.7625  221.3214 H   0  0  0  0  0  0  0  0  0  0  0  0
  137.9590   73.0339  222.9158 H   0  0  0  0  0  0  0  0  0  0  0  0
  138.5599   72.2167  221.4608 H   0  0  0  0  0  0  0  0  0  0  0  0
  1  2  1  0
  2  3  1  0
  3  4  2  0
  3  5  1  0
  5  6  1  0
  6  7  2  0
  7  8  1  0
  8  9  2  0
  9 10  1  0
 10 11  2  0
  5 12  1  0
 12 13  1  0
 13 14  1  0
 14 15  1  0
 15 16  1  0
 16 17  2  0
 16 18  1  0
 18 19  1  0
 18 20  1  0
 20 21  1  0
 21 22  1  0
 21 23  1  0
 23 24  2  0
 24 25  1  0
 25 26  2  0
 26 27  1  0
 27 28  2  0
 15 29  1  0
 29 30  1  0
 11  6  1  0
 30 12  1  0
 28 23  1  0
  1 31  1  0
  1 32  1  0
  1 33  1  0
  2 34  1  0
  2 35  1  0
  7 36  1  0
  8 37  1  0
  9 38  1  0
 10 39  1  0
 11 40  1  0
 12 41  1  0
 13 42  1  0
 13 43  1  0
 14 44  1  0
 14 45  1  0
 18 46  1  6
 19 47  1  0
 19 48  1  0
 20 49  1  0
 20 50  1  0
 21 51  1  6
 22 52  1  0
 22 53  1  0
 22 54  1  0
 24 55  1  0
 25 56  1  0
 26 57  1  0
 27 58  1  0
 28 59  1  0
 29 60  1  0
 29 61  1  0
 30 62  1  0
 30 63  1  0
M  END
>  <smiles>  (52) 
CCC(=O)N(c1ccccc1)C1CCN(C(=O)[C@H](N)CC(C)c2ccccc2)CC1

>  <score_type>  (52) 
oracle

>  <origin>  (52) 
autodockgpu

>  <m_score__min__energy>  (52) 
-8.3599999999999994

>  <m_primary>  (52) 
energy

>  <rmsd>  (52) 
6.453200970062614

>  <m_score__min__rmsd>  (52) 
6.453200970062614

>  <meeko>  (52) 
{"free_energy": -7.51, "intermolecular_energy": -10.19, "internal_energy": -2.36, "cluster_size": 18, "cluster_id": 3, "rank_in_cluster": 16}

>  <energy>  (52) 
-8.31

>  <cluster_rmsd>  (52) 
0.26

>  <cluster>  (52) 
1

$$$$

     RDKit          3D

 63 65  0  0  0  0  0  0  0  0999 V2000
  139.1230   68.4580  221.8830 C   0  0  0  0  0  0  0  0  0  0  0  0
  138.7770   67.8490  223.2370 C   0  0  0  0  0  0  0  0  0  0  0  0
  138.3210   68.9430  224.1040 C   0  0  0  0  0  0  0  0  0  0  0  0
  137.1140   68.8640  224.5230 O   0  0  0  0  0  0  0  0  0  0  0  0
  139.0470   70.0680  224.5280 N   0  0  0  0  0  0  0  0  0  0  0  0
  139.7410   69.9090  225.7980 C   0  0  0  0  0  0  0  0  0  0  0  0
  139.9970   68.6110  226.1890 C   0  0  0  0  0  0  0  0  0  0  0  0
  140.6540   68.3800  227.3860 C   0  0  0  0  0  0  0  0  0  0  0  0
  141.0390   69.4590  228.1590 C   0  0  0  0  0  0  0  0  0  0  0  0
  140.7670   70.7540  227.7410 C   0  0  0  0  0  0  0  0  0  0  0  0
  140.1070   71.0110  226.5420 C   0  0  0  0  0  0  0  0  0  0  0  0
  139.2040   71.3200  223.8630 C   0  0  0  0  0  0  0  0  0  0  0  0
  140.6800   71.5390  223.5590 C   0  0  0  0  0  0  0  0  0  0  0  0
  140.7870   72.0450  222.1380 C   0  0  0  0  0  0  0  0  0  0  0  0
  139.8760   73.1810  221.9430 N   0  0  0  0  0  0  0  0  0  0  0  0
  140.4410   74.3840  221.4320 C   0  0  0  0  0  0  0  0  0  0  0  0
  141.6760   74.3860  221.1810 O   0  0  0  0  0  0  0  0  0  0  0  0
  139.6860   75.6160  221.1790 C   0  0  2  0  0  0  0  0  0  0  0  0
  139.2960   75.7510  219.7930 N   0  0  0  0  0  0  0  0  0  0  0  0
  140.2620   76.8460  221.7750 C   0  0  0  0  0  0  0  0  0  0  0  0
  141.4430   77.4660  221.1860 C   0  0  1  0  0  0  0  0  0  0  0  0
  141.4480   77.8460  219.7580 C   0  0  0  0  0  0  0  0  0  0  0  0
  141.6910   78.7480  221.9420 C   0  0  0  0  0  0  0  0  0  0  0  0
  141.7880   78.6220  223.3120 C   0  0  0  0  0  0  0  0  0  0  0  0
  142.0150   79.7100  224.1470 C   0  0  0  0  0  0  0  0  0  0  0  0
  142.1390   80.9410  223.5290 C   0  0  0  0  0  0  0  0  0  0  0  0
  142.0410   81.0670  222.1570 C   0  0  0  0  0  0  0  0  0  0  0  0
  141.8130   79.9570  221.3400 C   0  0  0  0  0  0  0  0  0  0  0  0
  138.4880   73.0150  222.2740 C   0  0  0  0  0  0  0  0  0  0  0  0
  138.3280   71.5330  222.6710 C   0  0  0  0  0  0  0  0  0  0  0  0
  139.6613   69.4054  222.0338 H   0  0  0  0  0  0  0  0  0  0  0  0
  139.7596   67.7604  221.3191 H   0  0  0  0  0  0  0  0  0  0  0  0
  138.1978   68.6477  221.3191 H   0  0  0  0  0  0  0  0  0  0  0  0
  137.9775   67.1025  223.1208 H   0  0  0  0  0  0  0  0  0  0  0  0
  139.6526   67.3457  223.6729 H   0  0  0  0  0  0  0  0  0  0  0  0
  139.6824   67.7680  225.5563 H   0  0  0  0  0  0  0  0  0  0  0  0
  140.8664   67.3526  227.7167 H   0  0  0  0  0  0  0  0  0  0  0  0
  141.5639   69.2904  229.1108 H   0  0  0  0  0  0  0  0  0  0  0  0
  141.0805   71.5984  228.3724 H   0  0  0  0  0  0  0  0  0  0  0  0
  139.8897   72.0360  226.2070 H   0  0  0  0  0  0  0  0  0  0  0  0
  138.8466   72.0941  224.5580 H   0  0  0  0  0  0  0  0  0  0  0  0
  141.0993   72.2817  224.2537 H   0  0  0  0  0  0  0  0  0  0  0  0
  141.2409   70.6001  223.6767 H   0  0  0  0  0  0  0  0  0  0  0  0
  141.8202   72.3680  221.9424 H   0  0  0  0  0  0  0  0  0  0  0  0
  140.5129   71.2370  221.4437 H   0  0  0  0  0  0  0  0  0  0  0  0
  138.7513   75.4938  221.7459 H   0  0  0  0  0  0  0  0  0  0  0  0
  138.9260   76.6680  219.5450 H   0  0  0  0  0  0  0  0  0  0  0  0
  139.8580   75.2400  219.1140 H   0  0  0  0  0  0  0  0  0  0  0  0
  139.4666   77.6057  221.7622 H   0  0  0  0  0  0  0  0  0  0  0  0
  140.6236   76.5023  222.7554 H   0  0  0  0  0  0  0  0  0  0  0  0
  142.1957   76.6671  221.2579 H   0  0  0  0  0  0  0  0  0  0  0  0
  141.4624   78.9424  219.6704 H   0  0  0  0  0  0  0  0  0  0  0  0
  142.3407   77.4274  219.2703 H   0  0  0  0  0  0  0  0  0  0  0  0
  140.5446   77.4511  219.2703 H   0  0  0  0  0  0  0  0  0  0  0  0
  141.6818   77.6233  223.7607 H   0  0  0  0  0  0  0  0  0  0  0  0
  142.0917   79.5980  225.2386 H   0  0  0  0  0  0  0  0  0  0  0  0
  142.3191   81.8367  224.1417 H   0  0  0  0  0  0  0  0  0  0  0  0
  142.1446   82.0615  221.6984 H   0  0  0  0  0  0  0  0  0  0  0  0
  141.7352   80.0600  220.2476 H   0  0  0  0  0  0  0  0  0  0  0  0
  138.2133   73.6691  223.1147 H   0  0  0  0  0  0  0  0  0  0  0  0
  137.8346   73.2822  221.4304 H   0  0  0  0  0  0  0  0  0  0  0  0
  137.2797   71.3182  222.9257 H   0  0  0  0  0  0  0  0  0  0  0  0
  138.6101   70.8652  221.8437 H   0  0  0  0  0  0  0  0  0  0  0  0
  1  2  1  0
  2  3  1  0
  3  4  2  0
  3  5  1  0
  5  6  1  0
  6  7  2  0
  7  8  1  0
  8  9  2  0
  9 10  1  0
 10 11  2  0
  5 12  1  0
 12 13  1  0
 13 14  1  0
 14 15  1  0
 15 16  1  0
 16 17  2  0
 16 18  1  0
 18 19  1  0
 18 20  1  0
 20 21  1  0
 21 22  1  0
 21 23  1  0
 23 24  2  0
 24 25  1  0
 25 26  2  0
 26 27  1  0
 27 28  2  0
 15 29  1  0
 29 30  1  0
 11  6  1  0
 30 12  1  0
 28 23  1  0
  1 31  1  0
  1 32  1  0
  1 33  1  0
  2 34  1  0
  2 35  1  0
  7 36  1  0
  8 37  1  0
  9 38  1  0
 10 39  1  0
 11 40  1  0
 12 41  1  0
 13 42  1  0
 13 43  1  0
 14 44  1  0
 14 45  1  0
 18 46  1  1
 19 47  1  0
 19 48  1  0
 20 49  1  0
 20 50  1  0
 21 51  1  6
 22 52  1  0
 22 53  1  0
 22 54  1  0
 24 55  1  0
 25 56  1  0
 26 57  1  0
 27 58  1  0
 28 59  1  0
 29 60  1  0
 29 61  1  0
 30 62  1  0
 30 63  1  0
M  END
>  <smiles>  (53) 
CCC(=O)N(c1ccccc1)C1CCN(C(=O)[C@H](N)CC(C)c2ccccc2)CC1

>  <score_type>  (53) 
oracle

>  <origin>  (53) 
autodockgpu

>  <m_score__min__energy>  (53) 
-8.3599999999999994

>  <m_primary>  (53) 
energy

>  <rmsd>  (53) 
6.746124783538185

>  <m_score__min__rmsd>  (53) 
6.746124783538185

>  <meeko>  (53) 
{"free_energy": -7.5, "intermolecular_energy": -10.18, "internal_energy": -1.7, "cluster_size": 18, "cluster_id": 3, "rank_in_cluster": 17}

>  <energy>  (53) 
-8.3

>  <cluster_rmsd>  (53) 
0.49

>  <cluster>  (53) 
1

$$$$

     RDKit          3D

 63 65  0  0  0  0  0  0  0  0999 V2000
  138.9040   68.2870  221.7510 C   0  0  0  0  0  0  0  0  0  0  0  0
  138.7900   67.7740  223.1820 C   0  0  0  0  0  0  0  0  0  0  0  0
  138.2960   68.8860  224.0050 C   0  0  0  0  0  0  0  0  0  0  0  0
  137.0620   68.8310  224.3420 O   0  0  0  0  0  0  0  0  0  0  0  0
  139.0110   70.0030  224.4660 N   0  0  0  0  0  0  0  0  0  0  0  0
  139.7280   69.8000  225.7160 C   0  0  0  0  0  0  0  0  0  0  0  0
  140.0240   70.9380  226.4360 C   0  0  0  0  0  0  0  0  0  0  0  0
  140.7060   70.8240  227.6370 C   0  0  0  0  0  0  0  0  0  0  0  0
  141.0710   69.5700  228.0840 C   0  0  0  0  0  0  0  0  0  0  0  0
  140.7610   68.4410  227.3390 C   0  0  0  0  0  0  0  0  0  0  0  0
  140.0760   68.5300  226.1280 C   0  0  0  0  0  0  0  0  0  0  0  0
  139.1370   71.2850  223.8530 C   0  0  0  0  0  0  0  0  0  0  0  0
  140.6080   71.5520  223.5610 C   0  0  0  0  0  0  0  0  0  0  0  0
  140.7020   72.1200  222.1620 C   0  0  0  0  0  0  0  0  0  0  0  0
  139.7630   73.2400  222.0130 N   0  0  0  0  0  0  0  0  0  0  0  0
  140.2990   74.4770  221.5540 C   0  0  0  0  0  0  0  0  0  0  0  0
  141.5330   74.5200  221.3050 O   0  0  0  0  0  0  0  0  0  0  0  0
  139.5130   75.6990  221.3510 C   0  0  2  0  0  0  0  0  0  0  0  0
  139.2340   75.9530  219.9550 N   0  0  0  0  0  0  0  0  0  0  0  0
  139.9820   76.8870  222.1070 C   0  0  0  0  0  0  0  0  0  0  0  0
  141.2790   77.4830  221.8090 C   0  0  1  0  0  0  0  0  0  0  0  0
  141.6530   77.7840  220.4110 C   0  0  0  0  0  0  0  0  0  0  0  0
  141.3300   78.8080  222.5300 C   0  0  0  0  0  0  0  0  0  0  0  0
  142.5840   79.3640  222.6660 C   0  0  0  0  0  0  0  0  0  0  0  0
  142.7960   80.5800  223.3050 C   0  0  0  0  0  0  0  0  0  0  0  0
  141.6730   81.2130  223.8060 C   0  0  0  0  0  0  0  0  0  0  0  0
  140.4160   80.6550  223.6700 C   0  0  0  0  0  0  0  0  0  0  0  0
  140.2310   79.4310  223.0230 C   0  0  0  0  0  0  0  0  0  0  0  0
  138.3800   73.0260  222.3360 C   0  0  0  0  0  0  0  0  0  0  0  0
  138.2560   71.5260  222.6700 C   0  0  0  0  0  0  0  0  0  0  0  0
  139.1426   69.3607  221.7643 H   0  0  0  0  0  0  0  0  0  0  0  0
  139.7026   67.7404  221.2281 H   0  0  0  0  0  0  0  0  0  0  0  0
  137.9491   68.1301  221.2281 H   0  0  0  0  0  0  0  0  0  0  0  0
  138.0845   66.9312  223.2250 H   0  0  0  0  0  0  0  0  0  0  0  0
  139.7650   67.4206  223.5485 H   0  0  0  0  0  0  0  0  0  0  0  0
  139.7217   71.9269  226.0608 H   0  0  0  0  0  0  0  0  0  0  0  0
  140.9529   71.7199  228.2256 H   0  0  0  0  0  0  0  0  0  0  0  0
  141.6109   69.4650  229.0366 H   0  0  0  0  0  0  0  0  0  0  0  0
  141.0631   67.4517  227.7131 H   0  0  0  0  0  0  0  0  0  0  0  0
  139.8270   67.6380  225.5344 H   0  0  0  0  0  0  0  0  0  0  0  0
  138.7599   72.0213  224.5780 H   0  0  0  0  0  0  0  0  0  0  0  0
  141.0091   72.2747  224.2868 H   0  0  0  0  0  0  0  0  0  0  0  0
  141.1919   70.6232  223.6404 H   0  0  0  0  0  0  0  0  0  0  0  0
  141.7267   72.4767  221.9812 H   0  0  0  0  0  0  0  0  0  0  0  0
  140.4478   71.3350  221.4346 H   0  0  0  0  0  0  0  0  0  0  0  0
  138.5406   75.4877  221.8198 H   0  0  0  0  0  0  0  0  0  0  0  0
  139.9180   75.5630  219.3090 H   0  0  0  0  0  0  0  0  0  0  0  0
  138.2510   75.9730  219.6880 H   0  0  0  0  0  0  0  0  0  0  0  0
  139.2296   77.6751  221.9560 H   0  0  0  0  0  0  0  0  0  0  0  0
  140.1144   76.4976  223.1272 H   0  0  0  0  0  0  0  0  0  0  0  0
  141.9835   76.6965  222.1173 H   0  0  0  0  0  0  0  0  0  0  0  0
  142.5099   78.4736  220.4010 H   0  0  0  0  0  0  0  0  0  0  0  0
  141.9268   76.8515  219.8958 H   0  0  0  0  0  0  0  0  0  0  0  0
  140.8006   78.2509  219.8958 H   0  0  0  0  0  0  0  0  0  0  0  0
  143.4495   78.8250  222.2533 H   0  0  0  0  0  0  0  0  0  0  0  0
  143.8013   81.0148  223.4066 H   0  0  0  0  0  0  0  0  0  0  0  0
  141.7823   82.1782  224.3221 H   0  0  0  0  0  0  0  0  0  0  0  0
  139.5437   81.1854  224.0795 H   0  0  0  0  0  0  0  0  0  0  0  0
  139.2296   78.9882  222.9171 H   0  0  0  0  0  0  0  0  0  0  0  0
  138.0899   73.6372  223.2033 H   0  0  0  0  0  0  0  0  0  0  0  0
  137.7201   73.3122  221.5038 H   0  0  0  0  0  0  0  0  0  0  0  0
  137.2132   71.2752  222.9144 H   0  0  0  0  0  0  0  0  0  0  0  0
  138.5540   70.9004  221.8157 H   0  0  0  0  0  0  0  0  0  0  0  0
  1  2  1  0
  2  3  1  0
  3  4  2  0
  3  5  1  0
  5  6  1  0
  6  7  2  0
  7  8  1  0
  8  9  2  0
  9 10  1  0
 10 11  2  0
  5 12  1  0
 12 13  1  0
 13 14  1  0
 14 15  1  0
 15 16  1  0
 16 17  2  0
 16 18  1  0
 18 19  1  0
 18 20  1  0
 20 21  1  0
 21 22  1  0
 21 23  1  0
 23 24  2  0
 24 25  1  0
 25 26  2  0
 26 27  1  0
 27 28  2  0
 15 29  1  0
 29 30  1  0
 11  6  1  0
 30 12  1  0
 28 23  1  0
  1 31  1  0
  1 32  1  0
  1 33  1  0
  2 34  1  0
  2 35  1  0
  7 36  1  0
  8 37  1  0
  9 38  1  0
 10 39  1  0
 11 40  1  0
 12 41  1  0
 13 42  1  0
 13 43  1  0
 14 44  1  0
 14 45  1  0
 18 46  1  1
 19 47  1  0
 19 48  1  0
 20 49  1  0
 20 50  1  0
 21 51  1  1
 22 52  1  0
 22 53  1  0
 22 54  1  0
 24 55  1  0
 25 56  1  0
 26 57  1  0
 27 58  1  0
 28 59  1  0
 29 60  1  0
 29 61  1  0
 30 62  1  0
 30 63  1  0
M  END
>  <smiles>  (54) 
CCC(=O)N(c1ccccc1)C1CCN(C(=O)[C@H](N)CC(C)c2ccccc2)CC1

>  <score_type>  (54) 
oracle

>  <origin>  (54) 
autodockgpu

>  <m_score__min__energy>  (54) 
-8.3599999999999994

>  <m_primary>  (54) 
energy

>  <rmsd>  (54) 
6.850911697398758

>  <m_score__min__rmsd>  (54) 
6.850911697398758

>  <meeko>  (54) 
{"free_energy": -7.62, "intermolecular_energy": -10.3, "internal_energy": -1.72, "cluster_size": 18, "cluster_id": 3, "rank_in_cluster": 11}

>  <energy>  (54) 
-8.15

>  <cluster_rmsd>  (54) 
0.74

>  <cluster>  (54) 
1

$$$$

     RDKit          3D

 63 65  0  0  0  0  0  0  0  0999 V2000
  138.8110   68.8960  221.3790 C   0  0  0  0  0  0  0  0  0  0  0  0
  138.4550   68.4480  222.7920 C   0  0  0  0  0  0  0  0  0  0  0  0
  138.1900   69.6590  223.5800 C   0  0  0  0  0  0  0  0  0  0  0  0
  136.9600   69.8990  223.8470 O   0  0  0  0  0  0  0  0  0  0  0  0
  139.1190   70.5880  224.0750 N   0  0  0  0  0  0  0  0  0  0  0  0
  139.6470   70.2830  225.3960 C   0  0  0  0  0  0  0  0  0  0  0  0
  139.4280   69.0020  225.8560 C   0  0  0  0  0  0  0  0  0  0  0  0
  139.9020   68.6380  227.1060 C   0  0  0  0  0  0  0  0  0  0  0  0
  140.5860   69.5710  227.8610 C   0  0  0  0  0  0  0  0  0  0  0  0
  140.7910   70.8540  227.3740 C   0  0  0  0  0  0  0  0  0  0  0  0
  140.3240   71.2430  226.1200 C   0  0  0  0  0  0  0  0  0  0  0  0
  139.6180   71.7630  223.4370 C   0  0  0  0  0  0  0  0  0  0  0  0
  141.0480   71.5080  222.9780 C   0  0  0  0  0  0  0  0  0  0  0  0
  141.1820   72.0470  221.5710 C   0  0  0  0  0  0  0  0  0  0  0  0
  140.6840   73.4280  221.5160 N   0  0  0  0  0  0  0  0  0  0  0  0
  141.5650   74.4130  220.9860 C   0  0  0  0  0  0  0  0  0  0  0  0
  142.7010   74.0290  220.5990 O   0  0  0  0  0  0  0  0  0  0  0  0
  141.2400   75.8380  220.8590 C   0  0  2  0  0  0  0  0  0  0  0  0
  142.3360   76.6100  220.3190 N   0  0  0  0  0  0  0  0  0  0  0  0
  140.5900   76.4470  222.0460 C   0  0  0  0  0  0  0  0  0  0  0  0
  139.9070   77.7300  221.9340 C   0  0  1  0  0  0  0  0  0  0  0  0
  138.6710   77.9820  222.7040 C   0  0  0  0  0  0  0  0  0  0  0  0
  140.8820   78.7880  222.3850 C   0  0  0  0  0  0  0  0  0  0  0  0
  141.0390   79.8580  221.5290 C   0  0  0  0  0  0  0  0  0  0  0  0
  141.9000   80.9140  221.8030 C   0  0  0  0  0  0  0  0  0  0  0  0
  142.6030   80.8390  222.9920 C   0  0  0  0  0  0  0  0  0  0  0  0
  142.4460   79.7670  223.8490 C   0  0  0  0  0  0  0  0  0  0  0  0
  141.5730   78.7180  223.5500 C   0  0  0  0  0  0  0  0  0  0  0  0
  139.3580   73.7020  221.9950 C   0  0  0  0  0  0  0  0  0  0  0  0
  138.7530   72.3300  222.3580 C   0  0  0  0  0  0  0  0  0  0  0  0
  139.4947   69.7563  221.4284 H   0  0  0  0  0  0  0  0  0  0  0  0
  139.3008   68.0687  220.8445 H   0  0  0  0  0  0  0  0  0  0  0  0
  137.8944   69.1862  220.8445 H   0  0  0  0  0  0  0  0  0  0  0  0
  137.5595   67.8096  222.7702 H   0  0  0  0  0  0  0  0  0  0  0  0
  139.2771   67.8669  223.2352 H   0  0  0  0  0  0  0  0  0  0  0  0
  138.8819   68.2755  225.2363 H   0  0  0  0  0  0  0  0  0  0  0  0
  139.7361   67.6212  227.4915 H   0  0  0  0  0  0  0  0  0  0  0  0
  140.9704   69.2952  228.8541 H   0  0  0  0  0  0  0  0  0  0  0  0
  141.3356   71.5821  227.9931 H   0  0  0  0  0  0  0  0  0  0  0  0
  140.4860   72.2584  225.7292 H   0  0  0  0  0  0  0  0  0  0  0  0
  139.6045   72.5635  224.1914 H   0  0  0  0  0  0  0  0  0  0  0  0
  141.7535   72.0241  223.6457 H   0  0  0  0  0  0  0  0  0  0  0  0
  141.2743   70.4318  223.0016 H   0  0  0  0  0  0  0  0  0  0  0  0
  142.2406   72.0287  221.2725 H   0  0  0  0  0  0  0  0  0  0  0  0
  140.5919   71.4212  220.8853 H   0  0  0  0  0  0  0  0  0  0  0  0
  140.4416   75.8775  220.1034 H   0  0  0  0  0  0  0  0  0  0  0  0
  142.6000   77.4200  220.8780 H   0  0  0  0  0  0  0  0  0  0  0  0
  143.0600   76.0860  219.8300 H   0  0  0  0  0  0  0  0  0  0  0  0
  139.8442   75.7222  222.4045 H   0  0  0  0  0  0  0  0  0  0  0  0
  141.4398   76.6738  222.7066 H   0  0  0  0  0  0  0  0  0  0  0  0
  139.5805   77.7392  220.8836 H   0  0  0  0  0  0  0  0  0  0  0  0
  138.8938   77.9366  223.7802 H   0  0  0  0  0  0  0  0  0  0  0  0
  138.2790   78.9785  222.4524 H   0  0  0  0  0  0  0  0  0  0  0  0
  137.9202   77.2185  222.4524 H   0  0  0  0  0  0  0  0  0  0  0  0
  140.4606   79.8763  220.5936 H   0  0  0  0  0  0  0  0  0  0  0  0
  142.0160   81.7625  221.1126 H   0  0  0  0  0  0  0  0  0  0  0  0
  143.2994   81.6473  223.2598 H   0  0  0  0  0  0  0  0  0  0  0  0
  143.0205   79.7387  224.7866 H   0  0  0  0  0  0  0  0  0  0  0  0
  141.4505   77.8659  224.2348 H   0  0  0  0  0  0  0  0  0  0  0  0
  139.3973   74.3507  222.8825 H   0  0  0  0  0  0  0  0  0  0  0  0
  138.7535   74.2250  221.2393 H   0  0  0  0  0  0  0  0  0  0  0  0
  137.7219   72.4524  222.7212 H   0  0  0  0  0  0  0  0  0  0  0  0
  138.7171   71.6645  221.4829 H   0  0  0  0  0  0  0  0  0  0  0  0
  1  2  1  0
  2  3  1  0
  3  4  2  0
  3  5  1  0
  5  6  1  0
  6  7  2  0
  7  8  1  0
  8  9  2  0
  9 10  1  0
 10 11  2  0
  5 12  1  0
 12 13  1  0
 13 14  1  0
 14 15  1  0
 15 16  1  0
 16 17  2  0
 16 18  1  0
 18 19  1  0
 18 20  1  0
 20 21  1  0
 21 22  1  0
 21 23  1  0
 23 24  2  0
 24 25  1  0
 25 26  2  0
 26 27  1  0
 27 28  2  0
 15 29  1  0
 29 30  1  0
 11  6  1  0
 30 12  1  0
 28 23  1  0
  1 31  1  0
  1 32  1  0
  1 33  1  0
  2 34  1  0
  2 35  1  0
  7 36  1  0
  8 37  1  0
  9 38  1  0
 10 39  1  0
 11 40  1  0
 12 41  1  0
 13 42  1  0
 13 43  1  0
 14 44  1  0
 14 45  1  0
 18 46  1  6
 19 47  1  0
 19 48  1  0
 20 49  1  0
 20 50  1  0
 21 51  1  6
 22 52  1  0
 22 53  1  0
 22 54  1  0
 24 55  1  0
 25 56  1  0
 26 57  1  0
 27 58  1  0
 28 59  1  0
 29 60  1  0
 29 61  1  0
 30 62  1  0
 30 63  1  0
M  END
>  <smiles>  (55) 
CCC(=O)N(c1ccccc1)C1CCN(C(=O)[C@H](N)CC(C)c2ccccc2)CC1

>  <score_type>  (55) 
oracle

>  <origin>  (55) 
autodockgpu

>  <m_score__min__energy>  (55) 
-8.3599999999999994

>  <m_primary>  (55) 
energy

>  <rmsd>  (55) 
6.682761925463045

>  <m_score__min__rmsd>  (55) 
6.682761925463045

>  <meeko>  (55) 
{"free_energy": -7.68, "intermolecular_energy": -10.37, "internal_energy": -2.35, "cluster_size": 18, "cluster_id": 3, "rank_in_cluster": 5}

>  <energy>  (55) 
-8.14

>  <cluster_rmsd>  (55) 
0.37

>  <cluster>  (55) 
1

$$$$

     RDKit          3D

 63 65  0  0  0  0  0  0  0  0999 V2000
  143.8670   74.3040  218.1450 C   0  0  0  0  0  0  0  0  0  0  0  0
  144.5670   73.0830  217.5600 C   0  0  0  0  0  0  0  0  0  0  0  0
  145.0290   72.2630  218.6880 C   0  0  0  0  0  0  0  0  0  0  0  0
  146.1350   72.6190  219.2280 O   0  0  0  0  0  0  0  0  0  0  0  0
  144.4080   71.1350  219.2470 N   0  0  0  0  0  0  0  0  0  0  0  0
  145.0240   69.8610  218.9050 C   0  0  0  0  0  0  0  0  0  0  0  0
  145.7350   69.8310  217.7240 C   0  0  0  0  0  0  0  0  0  0  0  0
  146.3500   68.6530  217.3320 C   0  0  0  0  0  0  0  0  0  0  0  0
  146.2360   67.5360  218.1370 C   0  0  0  0  0  0  0  0  0  0  0  0
  145.5130   67.5960  219.3200 C   0  0  0  0  0  0  0  0  0  0  0  0
  144.8860   68.7690  219.7360 C   0  0  0  0  0  0  0  0  0  0  0  0
  143.2780   71.0890  220.1170 C   0  0  0  0  0  0  0  0  0  0  0  0
  143.1380   72.4330  220.8210 C   0  0  0  0  0  0  0  0  0  0  0  0
  141.6780   72.8240  220.7800 C   0  0  0  0  0  0  0  0  0  0  0  0
  140.8490   71.7120  221.2650 N   0  0  0  0  0  0  0  0  0  0  0  0
  139.9410   71.9950  222.3230 C   0  0  0  0  0  0  0  0  0  0  0  0
  139.9090   73.1760  222.7630 O   0  0  0  0  0  0  0  0  0  0  0  0
  139.0410   71.0100  222.9330 C   0  0  2  0  0  0  0  0  0  0  0  0
  137.9010   71.6240  223.5760 N   0  0  0  0  0  0  0  0  0  0  0  0
  139.7080   69.9600  223.7430 C   0  0  0  0  0  0  0  0  0  0  0  0
  139.1270   69.5260  225.0080 C   0  0  1  0  0  0  0  0  0  0  0  0
  139.2080   68.1070  225.4140 C   0  0  0  0  0  0  0  0  0  0  0  0
  139.8290   70.2950  226.1010 C   0  0  0  0  0  0  0  0  0  0  0  0
  140.7220   71.2540  225.6750 C   0  0  0  0  0  0  0  0  0  0  0  0
  141.4460   72.0460  226.5600 C   0  0  0  0  0  0  0  0  0  0  0  0
  141.2250   71.8200  227.9060 C   0  0  0  0  0  0  0  0  0  0  0  0
  140.3300   70.8580  228.3320 C   0  0  0  0  0  0  0  0  0  0  0  0
  139.6140   70.0760  227.4220 C   0  0  0  0  0  0  0  0  0  0  0  0
  141.0020   70.4220  220.6530 C   0  0  0  0  0  0  0  0  0  0  0  0
  142.0010   70.6240  219.4950 C   0  0  0  0  0  0  0  0  0  0  0  0
  143.8966   74.2524  219.2434 H   0  0  0  0  0  0  0  0  0  0  0  0
  144.3788   75.2171  217.8069 H   0  0  0  0  0  0  0  0  0  0  0  0
  142.8204   74.3237  217.8069 H   0  0  0  0  0  0  0  0  0  0  0  0
  143.8645   72.5077  216.9391 H   0  0  0  0  0  0  0  0  0  0  0  0
  145.4133   73.3855  216.9257 H   0  0  0  0  0  0  0  0  0  0  0  0
  145.8131   70.7331  217.0994 H   0  0  0  0  0  0  0  0  0  0  0  0
  146.9211   68.6077  216.3930 H   0  0  0  0  0  0  0  0  0  0  0  0
  146.7206   66.5946  217.8388 H   0  0  0  0  0  0  0  0  0  0  0  0
  145.4328   66.6946  219.9454 H   0  0  0  0  0  0  0  0  0  0  0  0
  144.3135   68.8210  220.6739 H   0  0  0  0  0  0  0  0  0  0  0  0
  143.4801   70.2991  220.8554 H   0  0  0  0  0  0  0  0  0  0  0  0
  143.4732   72.3457  221.8650 H   0  0  0  0  0  0  0  0  0  0  0  0
  143.7549   73.1951  220.3223 H   0  0  0  0  0  0  0  0  0  0  0  0
  141.5180   73.7044  221.4198 H   0  0  0  0  0  0  0  0  0  0  0  0
  141.3955   73.0614  219.7437 H   0  0  0  0  0  0  0  0  0  0  0  0
  138.6366   70.4368  222.0857 H   0  0  0  0  0  0  0  0  0  0  0  0
  137.9790   72.6320  223.7040 H   0  0  0  0  0  0  0  0  0  0  0  0
  136.9910   71.2170  223.3650 H   0  0  0  0  0  0  0  0  0  0  0  0
  139.7795   69.0667  223.1051 H   0  0  0  0  0  0  0  0  0  0  0  0
  140.6468   70.4426  224.0524 H   0  0  0  0  0  0  0  0  0  0  0  0
  138.0526   69.7049  224.8545 H   0  0  0  0  0  0  0  0  0  0  0  0
  139.2119   68.0394  226.5119 H   0  0  0  0  0  0  0  0  0  0  0  0
  138.3395   67.5616  225.0161 H   0  0  0  0  0  0  0  0  0  0  0  0
  140.1329   67.6640  225.0161 H   0  0  0  0  0  0  0  0  0  0  0  0
  140.8678   71.3987  224.5944 H   0  0  0  0  0  0  0  0  0  0  0  0
  142.1552   72.8099  226.2085 H   0  0  0  0  0  0  0  0  0  0  0  0
  141.7717   72.4169  228.6509 H   0  0  0  0  0  0  0  0  0  0  0  0
  140.1777   70.7043  229.4105 H   0  0  0  0  0  0  0  0  0  0  0  0
  138.9020   69.3107  227.7645 H   0  0  0  0  0  0  0  0  0  0  0  0
  141.3987   69.6976  221.3796 H   0  0  0  0  0  0  0  0  0  0  0  0
  140.0402   70.0265  220.2945 H   0  0  0  0  0  0  0  0  0  0  0  0
  142.1610   69.6759  218.9606 H   0  0  0  0  0  0  0  0  0  0  0  0
  141.6233   71.3549  218.7648 H   0  0  0  0  0  0  0  0  0  0  0  0
  1  2  1  0
  2  3  1  0
  3  4  2  0
  3  5  1  0
  5  6  1  0
  6  7  2  0
  7  8  1  0
  8  9  2  0
  9 10  1  0
 10 11  2  0
  5 12  1  0
 12 13  1  0
 13 14  1  0
 14 15  1  0
 15 16  1  0
 16 17  2  0
 16 18  1  0
 18 19  1  0
 18 20  1  0
 20 21  1  0
 21 22  1  0
 21 23  1  0
 23 24  2  0
 24 25  1  0
 25 26  2  0
 26 27  1  0
 27 28  2  0
 15 29  1  0
 29 30  1  0
 11  6  1  0
 30 12  1  0
 28 23  1  0
  1 31  1  0
  1 32  1  0
  1 33  1  0
  2 34  1  0
  2 35  1  0
  7 36  1  0
  8 37  1  0
  9 38  1  0
 10 39  1  0
 11 40  1  0
 12 41  1  0
 13 42  1  0
 13 43  1  0
 14 44  1  0
 14 45  1  0
 18 46  1  6
 19 47  1  0
 19 48  1  0
 20 49  1  0
 20 50  1  0
 21 51  1  6
 22 52  1  0
 22 53  1  0
 22 54  1  0
 24 55  1  0
 25 56  1  0
 26 57  1  0
 27 58  1  0
 28 59  1  0
 29 60  1  0
 29 61  1  0
 30 62  1  0
 30 63  1  0
M  END
>  <smiles>  (56) 
CCC(=O)N(c1ccccc1)C1CCN(C(=O)[C@H](N)CC(C)c2ccccc2)CC1

>  <score_type>  (56) 
oracle

>  <origin>  (56) 
autodockgpu

>  <m_score__min__energy>  (56) 
-8.3599999999999994

>  <m_primary>  (56) 
energy

>  <rmsd>  (56) 
9.195240076582792

>  <m_score__min__rmsd>  (56) 
9.195240076582792

>  <meeko>  (56) 
{"free_energy": -7.98, "intermolecular_energy": -10.66, "internal_energy": -2.53, "cluster_size": 11, "cluster_id": 1, "rank_in_cluster": 7}

>  <energy>  (56) 
-8.05

>  <cluster_rmsd>  (56) 
1.02

>  <cluster>  (56) 
1

$$$$

     RDKit          3D

 63 65  0  0  0  0  0  0  0  0999 V2000
  136.4170   71.0960  224.0770 C   0  0  0  0  0  0  0  0  0  0  0  0
  136.8700   69.7870  223.4410 C   0  0  0  0  0  0  0  0  0  0  0  0
  138.3360   69.8240  223.3630 C   0  0  0  0  0  0  0  0  0  0  0  0
  138.8910   68.8630  222.7230 O   0  0  0  0  0  0  0  0  0  0  0  0
  139.2060   70.7840  223.9060 N   0  0  0  0  0  0  0  0  0  0  0  0
  139.6180   70.5330  225.2790 C   0  0  0  0  0  0  0  0  0  0  0  0
  140.3910   71.5110  225.8680 C   0  0  0  0  0  0  0  0  0  0  0  0
  140.8220   71.3420  227.1740 C   0  0  0  0  0  0  0  0  0  0  0  0
  140.4630   70.1960  227.8550 C   0  0  0  0  0  0  0  0  0  0  0  0
  139.6840   69.2270  227.2380 C   0  0  0  0  0  0  0  0  0  0  0  0
  139.2400   69.3740  225.9260 C   0  0  0  0  0  0  0  0  0  0  0  0
  139.7450   71.9450  223.2750 C   0  0  0  0  0  0  0  0  0  0  0  0
  141.0880   71.5900  222.6500 C   0  0  0  0  0  0  0  0  0  0  0  0
  141.1250   72.1970  221.2650 C   0  0  0  0  0  0  0  0  0  0  0  0
  140.7580   73.6180  221.3320 N   0  0  0  0  0  0  0  0  0  0  0  0
  141.6680   74.5490  220.7560 C   0  0  0  0  0  0  0  0  0  0  0  0
  142.7160   74.0890  220.2290 O   0  0  0  0  0  0  0  0  0  0  0  0
  141.4680   76.0020  220.7350 C   0  0  2  0  0  0  0  0  0  0  0  0
  142.5710   76.7040  220.1180 N   0  0  0  0  0  0  0  0  0  0  0  0
  141.0040   76.5960  222.0130 C   0  0  0  0  0  0  0  0  0  0  0  0
  140.0540   77.7020  222.0090 C   0  0  1  0  0  0  0  0  0  0  0  0
  138.7660   77.5780  222.7220 C   0  0  0  0  0  0  0  0  0  0  0  0
  140.7500   78.8820  222.6430 C   0  0  0  0  0  0  0  0  0  0  0  0
  142.1230   78.8970  222.5250 C   0  0  0  0  0  0  0  0  0  0  0  0
  142.9070   79.9160  223.0550 C   0  0  0  0  0  0  0  0  0  0  0  0
  142.2330   80.9260  223.7160 C   0  0  0  0  0  0  0  0  0  0  0  0
  140.8570   80.9100  223.8350 C   0  0  0  0  0  0  0  0  0  0  0  0
  140.0920   79.8750  223.2920 C   0  0  0  0  0  0  0  0  0  0  0  0
  139.5210   73.9800  221.9660 C   0  0  0  0  0  0  0  0  0  0  0  0
  138.8300   72.6490  222.3260 C   0  0  0  0  0  0  0  0  0  0  0  0
  136.4496   71.0019  225.1725 H   0  0  0  0  0  0  0  0  0  0  0  0
  137.0860   71.9091  223.7588 H   0  0  0  0  0  0  0  0  0  0  0  0
  135.3885   71.3217  223.7588 H   0  0  0  0  0  0  0  0  0  0  0  0
  136.5472   68.9365  224.0594 H   0  0  0  0  0  0  0  0  0  0  0  0
  136.4296   69.6673  222.4401 H   0  0  0  0  0  0  0  0  0  0  0  0
  140.6630   72.4169  225.3064 H   0  0  0  0  0  0  0  0  0  0  0  0
  141.4412   72.1097  227.6611 H   0  0  0  0  0  0  0  0  0  0  0  0
  140.7964   70.0499  228.8930 H   0  0  0  0  0  0  0  0  0  0  0  0
  139.4107   68.3210  227.7988 H   0  0  0  0  0  0  0  0  0  0  0  0
  138.6224   68.6088  225.4329 H   0  0  0  0  0  0  0  0  0  0  0  0
  139.8867   72.6981  224.0642 H   0  0  0  0  0  0  0  0  0  0  0  0
  141.9057   72.0001  223.2608 H   0  0  0  0  0  0  0  0  0  0  0  0
  141.2114   70.4983  222.5958 H   0  0  0  0  0  0  0  0  0  0  0  0
  142.1400   72.1015  220.8519 H   0  0  0  0  0  0  0  0  0  0  0  0
  140.4092   71.6681  220.6185 H   0  0  0  0  0  0  0  0  0  0  0  0
  140.6031   76.1563  220.0731 H   0  0  0  0  0  0  0  0  0  0  0  0
  142.9430   77.4770  220.6690 H   0  0  0  0  0  0  0  0  0  0  0  0
  143.2090   76.1400  219.5590 H   0  0  0  0  0  0  0  0  0  0  0  0
  140.5392   75.7824  222.5892 H   0  0  0  0  0  0  0  0  0  0  0  0
  141.9173   77.0535  222.4212 H   0  0  0  0  0  0  0  0  0  0  0  0
  139.7718   77.7733  220.9482 H   0  0  0  0  0  0  0  0  0  0  0  0
  138.9446   77.5952  223.8073 H   0  0  0  0  0  0  0  0  0  0  0  0
  138.1112   78.4173  222.4448 H   0  0  0  0  0  0  0  0  0  0  0  0
  138.2833   76.6292  222.4448 H   0  0  0  0  0  0  0  0  0  0  0  0
  142.6174   78.0718  221.9915 H   0  0  0  0  0  0  0  0  0  0  0  0
  144.0023   79.9183  222.9539 H   0  0  0  0  0  0  0  0  0  0  0  0
  142.8032   81.7578  224.1553 H   0  0  0  0  0  0  0  0  0  0  0  0
  140.3530   81.7294  224.3685 H   0  0  0  0  0  0  0  0  0  0  0  0
  138.9962   79.8655  223.3872 H   0  0  0  0  0  0  0  0  0  0  0  0
  139.7140   74.5697  222.8743 H   0  0  0  0  0  0  0  0  0  0  0  0
  138.8931   74.5976  221.3070 H   0  0  0  0  0  0  0  0  0  0  0  0
  137.8588   72.8414  222.8053 H   0  0  0  0  0  0  0  0  0  0  0  0
  138.6399   72.0416  221.4288 H   0  0  0  0  0  0  0  0  0  0  0  0
  1  2  1  0
  2  3  1  0
  3  4  2  0
  3  5  1  0
  5  6  1  0
  6  7  2  0
  7  8  1  0
  8  9  2  0
  9 10  1  0
 10 11  2  0
  5 12  1  0
 12 13  1  0
 13 14  1  0
 14 15  1  0
 15 16  1  0
 16 17  2  0
 16 18  1  0
 18 19  1  0
 18 20  1  0
 20 21  1  0
 21 22  1  0
 21 23  1  0
 23 24  2  0
 24 25  1  0
 25 26  2  0
 26 27  1  0
 27 28  2  0
 15 29  1  0
 29 30  1  0
 11  6  1  0
 30 12  1  0
 28 23  1  0
  1 31  1  0
  1 32  1  0
  1 33  1  0
  2 34  1  0
  2 35  1  0
  7 36  1  0
  8 37  1  0
  9 38  1  0
 10 39  1  0
 11 40  1  0
 12 41  1  0
 13 42  1  0
 13 43  1  0
 14 44  1  0
 14 45  1  0
 18 46  1  6
 19 47  1  0
 19 48  1  0
 20 49  1  0
 20 50  1  0
 21 51  1  6
 22 52  1  0
 22 53  1  0
 22 54  1  0
 24 55  1  0
 25 56  1  0
 26 57  1  0
 27 58  1  0
 28 59  1  0
 29 60  1  0
 29 61  1  0
 30 62  1  0
 30 63  1  0
M  END
>  <smiles>  (57) 
CCC(=O)N(c1ccccc1)C1CCN(C(=O)[C@H](N)CC(C)c2ccccc2)CC1

>  <score_type>  (57) 
oracle

>  <origin>  (57) 
autodockgpu

>  <m_score__min__energy>  (57) 
-8.3599999999999994

>  <m_primary>  (57) 
energy

>  <rmsd>  (57) 
6.557288914765851

>  <m_score__min__rmsd>  (57) 
6.557288914765851

>  <meeko>  (57) 
{"free_energy": -7.71, "intermolecular_energy": -10.4, "internal_energy": -2.38, "cluster_size": 18, "cluster_id": 3, "rank_in_cluster": 2}

>  <energy>  (57) 
-7.98

>  <cluster_rmsd>  (57) 
0.82

>  <cluster>  (57) 
1

$$$$

     RDKit          3D

 63 65  0  0  0  0  0  0  0  0999 V2000
  142.2060   80.4470  217.3990 C   0  0  0  0  0  0  0  0  0  0  0  0
  142.0690   80.4910  218.9170 C   0  0  0  0  0  0  0  0  0  0  0  0
  141.1910   79.3800  219.3070 C   0  0  0  0  0  0  0  0  0  0  0  0
  140.3810   78.9600  218.4080 O   0  0  0  0  0  0  0  0  0  0  0  0
  141.1300   78.7220  220.5460 N   0  0  0  0  0  0  0  0  0  0  0  0
  141.4150   79.5600  221.7010 C   0  0  0  0  0  0  0  0  0  0  0  0
  140.4080   80.4170  222.0910 C   0  0  0  0  0  0  0  0  0  0  0  0
  140.6070   81.2460  223.1830 C   0  0  0  0  0  0  0  0  0  0  0  0
  141.8120   81.1910  223.8570 C   0  0  0  0  0  0  0  0  0  0  0  0
  142.8080   80.3190  223.4420 C   0  0  0  0  0  0  0  0  0  0  0  0
  142.6320   79.4760  222.3460 C   0  0  0  0  0  0  0  0  0  0  0  0
  140.8010   77.3580  220.8060 C   0  0  0  0  0  0  0  0  0  0  0  0
  141.6970   76.4620  219.9620 C   0  0  0  0  0  0  0  0  0  0  0  0
  142.1920   75.3400  220.8480 C   0  0  0  0  0  0  0  0  0  0  0  0
  141.0590   74.7130  221.5400 N   0  0  0  0  0  0  0  0  0  0  0  0
  140.9200   73.3030  221.4080 C   0  0  0  0  0  0  0  0  0  0  0  0
  141.7780   72.6960  220.7130 O   0  0  0  0  0  0  0  0  0  0  0  0
  139.8490   72.5110  222.0240 C   0  0  2  0  0  0  0  0  0  0  0  0
  138.6860   73.3070  222.3450 N   0  0  0  0  0  0  0  0  0  0  0  0
  140.2830   71.5960  223.1090 C   0  0  0  0  0  0  0  0  0  0  0  0
  139.2950   70.9360  223.9540 C   0  0  1  0  0  0  0  0  0  0  0  0
  138.8700   69.5520  223.6560 C   0  0  0  0  0  0  0  0  0  0  0  0
  139.8720   70.8860  225.3470 C   0  0  0  0  0  0  0  0  0  0  0  0
  140.7710   71.8840  225.6560 C   0  0  0  0  0  0  0  0  0  0  0  0
  141.3890   71.9750  226.8990 C   0  0  0  0  0  0  0  0  0  0  0  0
  141.0530   71.0020  227.8220 C   0  0  0  0  0  0  0  0  0  0  0  0
  140.1520   70.0020  227.5120 C   0  0  0  0  0  0  0  0  0  0  0  0
  139.5450   69.9330  226.2560 C   0  0  0  0  0  0  0  0  0  0  0  0
  140.1680   75.5470  222.2990 C   0  0  0  0  0  0  0  0  0  0  0  0
  140.7760   76.9630  222.2480 C   0  0  0  0  0  0  0  0  0  0  0  0
  143.2219   80.1207  217.1318 H   0  0  0  0  0  0  0  0  0  0  0  0
  141.4728   79.7392  216.9850 H   0  0  0  0  0  0  0  0  0  0  0  0
  142.0221   81.4494  216.9850 H   0  0  0  0  0  0  0  0  0  0  0  0
  143.0562   80.3742  219.3879 H   0  0  0  0  0  0  0  0  0  0  0  0
  141.6483   81.4537  219.2430 H   0  0  0  0  0  0  0  0  0  0  0  0
  139.4560   80.4423  221.5406 H   0  0  0  0  0  0  0  0  0  0  0  0
  139.8168   81.9383  223.5089 H   0  0  0  0  0  0  0  0  0  0  0  0
  141.9824   81.8420  224.7271 H   0  0  0  0  0  0  0  0  0  0  0  0
  143.7605   80.2922  223.9916 H   0  0  0  0  0  0  0  0  0  0  0  0
  143.4189   78.7828  222.0139 H   0  0  0  0  0  0  0  0  0  0  0  0
  139.7508   77.2230  220.5079 H   0  0  0  0  0  0  0  0  0  0  0  0
  141.1251   76.0485  219.1182 H   0  0  0  0  0  0  0  0  0  0  0  0
  142.5440   77.0356  219.5577 H   0  0  0  0  0  0  0  0  0  0  0  0
  142.7046   74.5872  220.2311 H   0  0  0  0  0  0  0  0  0  0  0  0
  142.8906   75.7482  221.5932 H   0  0  0  0  0  0  0  0  0  0  0  0
  139.5281   71.8122  221.2374 H   0  0  0  0  0  0  0  0  0  0  0  0
  138.8310   73.9880  223.0900 H   0  0  0  0  0  0  0  0  0  0  0  0
  138.0720   73.5430  221.5680 H   0  0  0  0  0  0  0  0  0  0  0  0
  140.8745   70.7998  222.6333 H   0  0  0  0  0  0  0  0  0  0  0  0
  140.8015   72.2675  223.8092 H   0  0  0  0  0  0  0  0  0  0  0  0
  138.3912   71.5405  223.7876 H   0  0  0  0  0  0  0  0  0  0  0  0
  138.7032   69.0088  224.5979 H   0  0  0  0  0  0  0  0  0  0  0  0
  137.9367   69.5723  223.0742 H   0  0  0  0  0  0  0  0  0  0  0  0
  139.6538   69.0450  223.0742 H   0  0  0  0  0  0  0  0  0  0  0  0
  141.0089   72.6373  224.8905 H   0  0  0  0  0  0  0  0  0  0  0  0
  142.1050   72.7763  227.1344 H   0  0  0  0  0  0  0  0  0  0  0  0
  141.5116   71.0247  228.8216 H   0  0  0  0  0  0  0  0  0  0  0  0
  139.9073   69.2438  228.2705 H   0  0  0  0  0  0  0  0  0  0  0  0
  138.8280   69.1352  226.0125 H   0  0  0  0  0  0  0  0  0  0  0  0
  139.1641   75.5444  221.8494 H   0  0  0  0  0  0  0  0  0  0  0  0
  140.0596   75.1890  223.3334 H   0  0  0  0  0  0  0  0  0  0  0  0
  140.1553   77.6649  222.8244 H   0  0  0  0  0  0  0  0  0  0  0  0
  141.7855   76.9803  222.6846 H   0  0  0  0  0  0  0  0  0  0  0  0
  1  2  1  0
  2  3  1  0
  3  4  2  0
  3  5  1  0
  5  6  1  0
  6  7  2  0
  7  8  1  0
  8  9  2  0
  9 10  1  0
 10 11  2  0
  5 12  1  0
 12 13  1  0
 13 14  1  0
 14 15  1  0
 15 16  1  0
 16 17  2  0
 16 18  1  0
 18 19  1  0
 18 20  1  0
 20 21  1  0
 21 22  1  0
 21 23  1  0
 23 24  2  0
 24 25  1  0
 25 26  2  0
 26 27  1  0
 27 28  2  0
 15 29  1  0
 29 30  1  0
 11  6  1  0
 30 12  1  0
 28 23  1  0
  1 31  1  0
  1 32  1  0
  1 33  1  0
  2 34  1  0
  2 35  1  0
  7 36  1  0
  8 37  1  0
  9 38  1  0
 10 39  1  0
 11 40  1  0
 12 41  1  0
 13 42  1  0
 13 43  1  0
 14 44  1  0
 14 45  1  0
 18 46  1  6
 19 47  1  0
 19 48  1  0
 20 49  1  0
 20 50  1  0
 21 51  1  1
 22 52  1  0
 22 53  1  0
 22 54  1  0
 24 55  1  0
 25 56  1  0
 26 57  1  0
 27 58  1  0
 28 59  1  0
 29 60  1  0
 29 61  1  0
 30 62  1  0
 30 63  1  0
M  END
>  <smiles>  (58) 
CCC(=O)N(c1ccccc1)C1CCN(C(=O)[C@H](N)CC(C)c2ccccc2)CC1

>  <score_type>  (58) 
oracle

>  <origin>  (58) 
autodockgpu

>  <m_score__min__energy>  (58) 
-8.3599999999999994

>  <m_primary>  (58) 
energy

>  <rmsd>  (58) 
6.361489569947602

>  <m_score__min__rmsd>  (58) 
6.361489569947602

>  <meeko>  (58) 
{"free_energy": -7.94, "intermolecular_energy": -10.63, "internal_energy": -1.43, "cluster_size": 7, "cluster_id": 2, "rank_in_cluster": 1}

>  <energy>  (58) 
-7.84

>  <cluster_rmsd>  (58) 
1.22

>  <cluster>  (58) 
1

$$$$

     RDKit          3D

 63 65  0  0  0  0  0  0  0  0999 V2000
  142.5240   80.0620  218.2640 C   0  0  0  0  0  0  0  0  0  0  0  0
  141.3120   80.7040  218.9280 C   0  0  0  0  0  0  0  0  0  0  0  0
  140.4960   79.6190  219.4890 C   0  0  0  0  0  0  0  0  0  0  0  0
  139.4400   79.3120  218.8320 O   0  0  0  0  0  0  0  0  0  0  0  0
  140.7300   78.8780  220.6580 N   0  0  0  0  0  0  0  0  0  0  0  0
  141.2620   79.6450  221.7760 C   0  0  0  0  0  0  0  0  0  0  0  0
  140.3780   80.5050  222.3950 C   0  0  0  0  0  0  0  0  0  0  0  0
  140.8110   81.2680  223.4670 C   0  0  0  0  0  0  0  0  0  0  0  0
  142.1200   81.1470  223.8900 C   0  0  0  0  0  0  0  0  0  0  0  0
  142.9880   80.2750  223.2480 C   0  0  0  0  0  0  0  0  0  0  0  0
  142.5760   79.4970  222.1680 C   0  0  0  0  0  0  0  0  0  0  0  0
  140.4910   77.4900  220.8870 C   0  0  0  0  0  0  0  0  0  0  0  0
  141.4150   76.6730  219.9950 C   0  0  0  0  0  0  0  0  0  0  0  0
  142.0010   75.5600  220.8350 C   0  0  0  0  0  0  0  0  0  0  0  0
  140.9260   74.8470  221.5370 N   0  0  0  0  0  0  0  0  0  0  0  0
  140.8680   73.4350  221.3670 C   0  0  0  0  0  0  0  0  0  0  0  0
  141.7420   72.9000  220.6340 O   0  0  0  0  0  0  0  0  0  0  0  0
  139.8640   72.5630  221.9880 C   0  0  2  0  0  0  0  0  0  0  0  0
  138.5470   73.1600  222.0040 N   0  0  0  0  0  0  0  0  0  0  0  0
  140.2700   71.9430  223.2730 C   0  0  0  0  0  0  0  0  0  0  0  0
  139.3710   71.0300  223.9670 C   0  0  1  0  0  0  0  0  0  0  0  0
  139.1860   69.6500  223.4710 C   0  0  0  0  0  0  0  0  0  0  0  0
  139.8940   70.8820  225.3750 C   0  0  0  0  0  0  0  0  0  0  0  0
  140.7460   71.8790  225.8010 C   0  0  0  0  0  0  0  0  0  0  0  0
  141.3100   71.8850  227.0720 C   0  0  0  0  0  0  0  0  0  0  0  0
  140.9730   70.8290  227.8980 C   0  0  0  0  0  0  0  0  0  0  0  0
  140.1200   69.8300  227.4700 C   0  0  0  0  0  0  0  0  0  0  0  0
  139.5660   69.8480  226.1880 C   0  0  0  0  0  0  0  0  0  0  0  0
  140.0080   75.6040  222.3420 C   0  0  0  0  0  0  0  0  0  0  0  0
  140.5290   77.0550  222.3170 C   0  0  0  0  0  0  0  0  0  0  0  0
  143.2150   79.6960  219.0377 H   0  0  0  0  0  0  0  0  0  0  0  0
  142.1956   79.2196  217.6375 H   0  0  0  0  0  0  0  0  0  0  0  0
  143.0364   80.8070  217.6375 H   0  0  0  0  0  0  0  0  0  0  0  0
  141.6376   81.3833  219.7296 H   0  0  0  0  0  0  0  0  0  0  0  0
  140.7331   81.2899  218.1989 H   0  0  0  0  0  0  0  0  0  0  0  0
  139.3396   80.5839  222.0406 H   0  0  0  0  0  0  0  0  0  0  0  0
  140.1224   81.9600  223.9738 H   0  0  0  0  0  0  0  0  0  0  0  0
  142.4769   81.7455  224.7411 H   0  0  0  0  0  0  0  0  0  0  0  0
  144.0270   80.1961  223.6005 H   0  0  0  0  0  0  0  0  0  0  0  0
  143.2602   78.8038  221.6568 H   0  0  0  0  0  0  0  0  0  0  0  0
  139.4430   77.3000  220.6120 H   0  0  0  0  0  0  0  0  0  0  0  0
  140.8455   76.2482  219.1552 H   0  0  0  0  0  0  0  0  0  0  0  0
  142.2145   77.3077  219.5852 H   0  0  0  0  0  0  0  0  0  0  0  0
  142.5410   74.8568  220.1839 H   0  0  0  0  0  0  0  0  0  0  0  0
  142.6944   75.9891  221.5733 H   0  0  0  0  0  0  0  0  0  0  0  0
  139.7946   71.6936  221.3176 H   0  0  0  0  0  0  0  0  0  0  0  0
  138.3420   73.7120  222.8360 H   0  0  0  0  0  0  0  0  0  0  0  0
  138.1750   73.4590  221.1040 H   0  0  0  0  0  0  0  0  0  0  0  0
  141.1966   71.3842  223.0751 H   0  0  0  0  0  0  0  0  0  0  0  0
  140.3279   72.8028  223.9567 H   0  0  0  0  0  0  0  0  0  0  0  0
  138.3889   71.5047  223.8252 H   0  0  0  0  0  0  0  0  0  0  0  0
  139.0939   68.9627  224.3249 H   0  0  0  0  0  0  0  0  0  0  0  0
  138.2731   69.5995  222.8595 H   0  0  0  0  0  0  0  0  0  0  0  0
  140.0534   69.3608  222.8595 H   0  0  0  0  0  0  0  0  0  0  0  0
  140.9884   72.6998  225.1100 H   0  0  0  0  0  0  0  0  0  0  0  0
  141.9874   72.6863  227.4022 H   0  0  0  0  0  0  0  0  0  0  0  0
  141.3915   70.7833  228.9142 H   0  0  0  0  0  0  0  0  0  0  0  0
  139.8722   69.0038  228.1526 H   0  0  0  0  0  0  0  0  0  0  0  0
  138.8873   69.0511  225.8499 H   0  0  0  0  0  0  0  0  0  0  0  0
  138.9943   75.5532  221.9180 H   0  0  0  0  0  0  0  0  0  0  0  0
  139.9490   75.2116  223.3679 H   0  0  0  0  0  0  0  0  0  0  0  0
  139.8836   77.7020  222.9292 H   0  0  0  0  0  0  0  0  0  0  0  0
  141.5471   77.1213  222.7281 H   0  0  0  0  0  0  0  0  0  0  0  0
  1  2  1  0
  2  3  1  0
  3  4  2  0
  3  5  1  0
  5  6  1  0
  6  7  2  0
  7  8  1  0
  8  9  2  0
  9 10  1  0
 10 11  2  0
  5 12  1  0
 12 13  1  0
 13 14  1  0
 14 15  1  0
 15 16  1  0
 16 17  2  0
 16 18  1  0
 18 19  1  0
 18 20  1  0
 20 21  1  0
 21 22  1  0
 21 23  1  0
 23 24  2  0
 24 25  1  0
 25 26  2  0
 26 27  1  0
 27 28  2  0
 15 29  1  0
 29 30  1  0
 11  6  1  0
 30 12  1  0
 28 23  1  0
  1 31  1  0
  1 32  1  0
  1 33  1  0
  2 34  1  0
  2 35  1  0
  7 36  1  0
  8 37  1  0
  9 38  1  0
 10 39  1  0
 11 40  1  0
 12 41  1  0
 13 42  1  0
 13 43  1  0
 14 44  1  0
 14 45  1  0
 18 46  1  6
 19 47  1  0
 19 48  1  0
 20 49  1  0
 20 50  1  0
 21 51  1  1
 22 52  1  0
 22 53  1  0
 22 54  1  0
 24 55  1  0
 25 56  1  0
 26 57  1  0
 27 58  1  0
 28 59  1  0
 29 60  1  0
 29 61  1  0
 30 62  1  0
 30 63  1  0
M  END
>  <smiles>  (59) 
CCC(=O)N(c1ccccc1)C1CCN(C(=O)[C@H](N)CC(C)c2ccccc2)CC1

>  <score_type>  (59) 
oracle

>  <origin>  (59) 
autodockgpu

>  <m_score__min__energy>  (59) 
-8.3599999999999994

>  <m_primary>  (59) 
energy

>  <rmsd>  (59) 
6.249021415811101

>  <m_score__min__rmsd>  (59) 
6.249021415811101

>  <meeko>  (59) 
{"free_energy": -7.92, "intermolecular_energy": -10.6, "internal_energy": -1.72, "cluster_size": 7, "cluster_id": 2, "rank_in_cluster": 3}

>  <energy>  (59) 
-7.7

>  <cluster_rmsd>  (59) 
1.1

>  <cluster>  (59) 
1

$$$$

     RDKit          3D

 63 65  0  0  0  0  0  0  0  0999 V2000
  138.8220   67.5260  222.7260 C   0  0  0  0  0  0  0  0  0  0  0  0
  138.1810   68.8670  222.3900 C   0  0  0  0  0  0  0  0  0  0  0  0
  138.1570   69.6600  223.6270 C   0  0  0  0  0  0  0  0  0  0  0  0
  137.1220   69.5150  224.3680 O   0  0  0  0  0  0  0  0  0  0  0  0
  139.1280   70.5590  224.0950 N   0  0  0  0  0  0  0  0  0  0  0  0
  139.7210   70.2090  225.3770 C   0  0  0  0  0  0  0  0  0  0  0  0
  139.7090   68.8700  225.7050 C   0  0  0  0  0  0  0  0  0  0  0  0
  140.2570   68.4600  226.9100 C   0  0  0  0  0  0  0  0  0  0  0  0
  140.8040   69.4070  227.7540 C   0  0  0  0  0  0  0  0  0  0  0  0
  140.8030   70.7480  227.3980 C   0  0  0  0  0  0  0  0  0  0  0  0
  140.2580   71.1840  226.1930 C   0  0  0  0  0  0  0  0  0  0  0  0
  139.6130   71.7430  223.4640 C   0  0  0  0  0  0  0  0  0  0  0  0
  141.0660   71.5310  223.0620 C   0  0  0  0  0  0  0  0  0  0  0  0
  141.2360   72.0600  221.6550 C   0  0  0  0  0  0  0  0  0  0  0  0
  140.6970   73.4240  221.5660 N   0  0  0  0  0  0  0  0  0  0  0  0
  141.5650   74.4310  221.0580 C   0  0  0  0  0  0  0  0  0  0  0  0
  142.7270   74.0820  220.7180 O   0  0  0  0  0  0  0  0  0  0  0  0
  141.1980   75.8430  220.9030 C   0  0  2  0  0  0  0  0  0  0  0  0
  142.2320   76.6150  220.2500 N   0  0  0  0  0  0  0  0  0  0  0  0
  140.6270   76.4860  222.1120 C   0  0  0  0  0  0  0  0  0  0  0  0
  139.9460   77.7710  222.0110 C   0  0  1  0  0  0  0  0  0  0  0  0
  138.6800   77.9990  222.7380 C   0  0  0  0  0  0  0  0  0  0  0  0
  140.9010   78.8160  222.5330 C   0  0  0  0  0  0  0  0  0  0  0  0
  141.2930   79.7730  221.6210 C   0  0  0  0  0  0  0  0  0  0  0  0
  142.1670   80.8030  221.9490 C   0  0  0  0  0  0  0  0  0  0  0  0
  142.6320   80.8210  223.2510 C   0  0  0  0  0  0  0  0  0  0  0  0
  142.2390   79.8620  224.1640 C   0  0  0  0  0  0  0  0  0  0  0  0
  141.3590   78.8380  223.8090 C   0  0  0  0  0  0  0  0  0  0  0  0
  139.3450   73.6580  221.9910 C   0  0  0  0  0  0  0  0  0  0  0  0
  138.7720   72.2710  222.3470 C   0  0  0  0  0  0  0  0  0  0  0  0
  138.8776   67.4096  223.8184 H   0  0  0  0  0  0  0  0  0  0  0  0
  138.2152   66.7128  222.3011 H   0  0  0  0  0  0  0  0  0  0  0  0
  139.8359   67.4875  222.3011 H   0  0  0  0  0  0  0  0  0  0  0  0
  138.7730   69.3855  221.6215 H   0  0  0  0  0  0  0  0  0  0  0  0
  137.1632   68.7255  221.9974 H   0  0  0  0  0  0  0  0  0  0  0  0
  139.2685   68.1338  225.0165 H   0  0  0  0  0  0  0  0  0  0  0  0
  140.2564   67.3963  227.1903 H   0  0  0  0  0  0  0  0  0  0  0  0
  141.2428   69.0962  228.7136 H   0  0  0  0  0  0  0  0  0  0  0  0
  141.2438   71.4854  228.0850 H   0  0  0  0  0  0  0  0  0  0  0  0
  140.2556   72.2463  225.9074 H   0  0  0  0  0  0  0  0  0  0  0  0
  139.5453   72.5494  224.2091 H   0  0  0  0  0  0  0  0  0  0  0  0
  141.7285   72.0767  223.7500 H   0  0  0  0  0  0  0  0  0  0  0  0
  141.3259   70.4631  223.1060 H   0  0  0  0  0  0  0  0  0  0  0  0
  142.3051   72.0725  221.3966 H   0  0  0  0  0  0  0  0  0  0  0  0
  140.6922   71.4089  220.9547 H   0  0  0  0  0  0  0  0  0  0  0  0
  140.3425   75.8360  220.2115 H   0  0  0  0  0  0  0  0  0  0  0  0
  143.1820   76.2950  220.4360 H   0  0  0  0  0  0  0  0  0  0  0  0
  142.0050   76.9880  219.3300 H   0  0  0  0  0  0  0  0  0  0  0  0
  139.9007   75.7759  222.5342 H   0  0  0  0  0  0  0  0  0  0  0  0
  141.5178   76.7229  222.7123 H   0  0  0  0  0  0  0  0  0  0  0  0
  139.6613   77.8115  220.9493 H   0  0  0  0  0  0  0  0  0  0  0  0
  138.8680   77.9651  223.8213 H   0  0  0  0  0  0  0  0  0  0  0  0
  138.2739   78.9847  222.4670 H   0  0  0  0  0  0  0  0  0  0  0  0
  137.9555   77.2169  222.4670 H   0  0  0  0  0  0  0  0  0  0  0  0
  140.8993   79.7194  220.5953 H   0  0  0  0  0  0  0  0  0  0  0  0
  142.4719   81.5618  221.2133 H   0  0  0  0  0  0  0  0  0  0  0  0
  143.3274   81.6132  223.5653 H   0  0  0  0  0  0  0  0  0  0  0  0
  142.6275   79.9060  225.1922 H   0  0  0  0  0  0  0  0  0  0  0  0
  141.0481   78.0759  224.5388 H   0  0  0  0  0  0  0  0  0  0  0  0
  139.3286   74.3170  222.8716 H   0  0  0  0  0  0  0  0  0  0  0  0
  138.7531   74.1520  221.2064 H   0  0  0  0  0  0  0  0  0  0  0  0
  137.7245   72.3632  222.6698 H   0  0  0  0  0  0  0  0  0  0  0  0
  138.7914   71.5959  221.4788 H   0  0  0  0  0  0  0  0  0  0  0  0
  1  2  1  0
  2  3  1  0
  3  4  2  0
  3  5  1  0
  5  6  1  0
  6  7  2  0
  7  8  1  0
  8  9  2  0
  9 10  1  0
 10 11  2  0
  5 12  1  0
 12 13  1  0
 13 14  1  0
 14 15  1  0
 15 16  1  0
 16 17  2  0
 16 18  1  0
 18 19  1  0
 18 20  1  0
 20 21  1  0
 21 22  1  0
 21 23  1  0
 23 24  2  0
 24 25  1  0
 25 26  2  0
 26 27  1  0
 27 28  2  0
 15 29  1  0
 29 30  1  0
 11  6  1  0
 30 12  1  0
 28 23  1  0
  1 31  1  0
  1 32  1  0
  1 33  1  0
  2 34  1  0
  2 35  1  0
  7 36  1  0
  8 37  1  0
  9 38  1  0
 10 39  1  0
 11 40  1  0
 12 41  1  0
 13 42  1  0
 13 43  1  0
 14 44  1  0
 14 45  1  0
 18 46  1  6
 19 47  1  0
 19 48  1  0
 20 49  1  0
 20 50  1  0
 21 51  1  6
 22 52  1  0
 22 53  1  0
 22 54  1  0
 24 55  1  0
 25 56  1  0
 26 57  1  0
 27 58  1  0
 28 59  1  0
 29 60  1  0
 29 61  1  0
 30 62  1  0
 30 63  1  0
M  END
>  <smiles>  (60) 
CCC(=O)N(c1ccccc1)C1CCN(C(=O)[C@H](N)CC(C)c2ccccc2)CC1

>  <score_type>  (60) 
oracle

>  <origin>  (60) 
autodockgpu

>  <m_score__min__energy>  (60) 
-8.3599999999999994

>  <m_primary>  (60) 
energy

>  <rmsd>  (60) 
6.710090308649526

>  <m_score__min__rmsd>  (60) 
6.710090308649526

>  <meeko>  (60) 
{"free_energy": -7.63, "intermolecular_energy": -10.32, "internal_energy": -2.29, "cluster_size": 18, "cluster_id": 3, "rank_in_cluster": 10}

>  <energy>  (60) 
-7.64

>  <cluster_rmsd>  (60) 
1.24

>  <cluster>  (60) 
1

$$$$

     RDKit          3D

 63 65  0  0  0  0  0  0  0  0999 V2000
  136.5330   71.0210  223.9050 C   0  0  0  0  0  0  0  0  0  0  0  0
  137.1100   70.0730  222.8610 C   0  0  0  0  0  0  0  0  0  0  0  0
  138.5640   70.0370  223.0610 C   0  0  0  0  0  0  0  0  0  0  0  0
  139.1600   68.9710  222.6750 O   0  0  0  0  0  0  0  0  0  0  0  0
  139.3830   71.0280  223.6260 N   0  0  0  0  0  0  0  0  0  0  0  0
  139.7870   70.7810  225.0020 C   0  0  0  0  0  0  0  0  0  0  0  0
  140.6440   71.7070  225.5580 C   0  0  0  0  0  0  0  0  0  0  0  0
  141.0720   71.5390  226.8650 C   0  0  0  0  0  0  0  0  0  0  0  0
  140.6270   70.4440  227.5800 C   0  0  0  0  0  0  0  0  0  0  0  0
  139.7660   69.5270  226.9950 C   0  0  0  0  0  0  0  0  0  0  0  0
  139.3210   69.6750  225.6830 C   0  0  0  0  0  0  0  0  0  0  0  0
  139.8790   72.2180  223.0150 C   0  0  0  0  0  0  0  0  0  0  0  0
  141.2100   71.9120  222.3410 C   0  0  0  0  0  0  0  0  0  0  0  0
  141.1930   72.5580  220.9740 C   0  0  0  0  0  0  0  0  0  0  0  0
  140.7990   73.9680  221.0930 N   0  0  0  0  0  0  0  0  0  0  0  0
  141.6720   74.9350  220.5200 C   0  0  0  0  0  0  0  0  0  0  0  0
  142.7130   74.5140  219.9490 O   0  0  0  0  0  0  0  0  0  0  0  0
  141.4410   76.3840  220.5470 C   0  0  2  0  0  0  0  0  0  0  0  0
  142.4800   77.1240  219.8650 N   0  0  0  0  0  0  0  0  0  0  0  0
  141.0630   76.9400  221.8700 C   0  0  0  0  0  0  0  0  0  0  0  0
  140.1310   78.0570  221.9600 C   0  0  1  0  0  0  0  0  0  0  0  0
  138.8690   77.9120  222.7150 C   0  0  0  0  0  0  0  0  0  0  0  0
  140.8680   79.1920  222.6280 C   0  0  0  0  0  0  0  0  0  0  0  0
  142.2430   79.1300  222.5610 C   0  0  0  0  0  0  0  0  0  0  0  0
  143.0630   80.1000  223.1270 C   0  0  0  0  0  0  0  0  0  0  0  0
  142.4230   81.1440  223.7700 C   0  0  0  0  0  0  0  0  0  0  0  0
  141.0440   81.2060  223.8370 C   0  0  0  0  0  0  0  0  0  0  0  0
  140.2440   80.2180  223.2590 C   0  0  0  0  0  0  0  0  0  0  0  0
  139.5740   74.2850  221.7730 C   0  0  0  0  0  0  0  0  0  0  0  0
  138.9220   72.9300  222.1140 C   0  0  0  0  0  0  0  0  0  0  0  0
  136.7636   70.6421  224.9116 H   0  0  0  0  0  0  0  0  0  0  0  0
  136.9766   72.0196  223.7785 H   0  0  0  0  0  0  0  0  0  0  0  0
  135.4422   71.0857  223.7785 H   0  0  0  0  0  0  0  0  0  0  0  0
  136.6869   69.0661  222.9919 H   0  0  0  0  0  0  0  0  0  0  0  0
  136.8648   70.4162  221.8451 H   0  0  0  0  0  0  0  0  0  0  0  0
  140.9848   72.5714  224.9692 H   0  0  0  0  0  0  0  0  0  0  0  0
  141.7559   72.2666  227.3264 H   0  0  0  0  0  0  0  0  0  0  0  0
  140.9572   70.2984  228.6191 H   0  0  0  0  0  0  0  0  0  0  0  0
  139.4260   68.6610  227.5819 H   0  0  0  0  0  0  0  0  0  0  0  0
  138.6368   68.9510  225.2164 H   0  0  0  0  0  0  0  0  0  0  0  0
  140.0281   72.9495  223.8229 H   0  0  0  0  0  0  0  0  0  0  0  0
  142.0362   72.3235  222.9394 H   0  0  0  0  0  0  0  0  0  0  0  0
  141.3554   70.8253  222.2515 H   0  0  0  0  0  0  0  0  0  0  0  0
  142.1969   72.4960  220.5286 H   0  0  0  0  0  0  0  0  0  0  0  0
  140.4694   72.0323  220.3337 H   0  0  0  0  0  0  0  0  0  0  0  0
  140.5258   76.5330  219.9552 H   0  0  0  0  0  0  0  0  0  0  0  0
  142.8530   77.9130  220.3910 H   0  0  0  0  0  0  0  0  0  0  0  0
  143.1050   76.5810  219.2710 H   0  0  0  0  0  0  0  0  0  0  0  0
  140.6217   76.1131  222.4458 H   0  0  0  0  0  0  0  0  0  0  0  0
  142.0057   77.3718  222.2374 H   0  0  0  0  0  0  0  0  0  0  0  0
  139.8105   78.1886  220.9160 H   0  0  0  0  0  0  0  0  0  0  0  0
  139.0823   77.9365  223.7938 H   0  0  0  0  0  0  0  0  0  0  0  0
  138.1901   78.7381  222.4566 H   0  0  0  0  0  0  0  0  0  0  0  0
  138.3952   76.9535  222.4566 H   0  0  0  0  0  0  0  0  0  0  0  0
  142.7096   78.2810  222.0400 H   0  0  0  0  0  0  0  0  0  0  0  0
  144.1597   80.0403  223.0667 H   0  0  0  0  0  0  0  0  0  0  0  0
  143.0226   81.9395  224.2366 H   0  0  0  0  0  0  0  0  0  0  0  0
  140.5670   82.0505  224.3560 H   0  0  0  0  0  0  0  0  0  0  0  0
  139.1466   80.2699  223.3135 H   0  0  0  0  0  0  0  0  0  0  0  0
  139.7816   74.8526  222.6921 H   0  0  0  0  0  0  0  0  0  0  0  0
  138.9141   74.9074  221.1507 H   0  0  0  0  0  0  0  0  0  0  0  0
  137.9618   73.0879  222.6269 H   0  0  0  0  0  0  0  0  0  0  0  0
  138.7182   72.3448  221.2052 H   0  0  0  0  0  0  0  0  0  0  0  0
  1  2  1  0
  2  3  1  0
  3  4  2  0
  3  5  1  0
  5  6  1  0
  6  7  2  0
  7  8  1  0
  8  9  2  0
  9 10  1  0
 10 11  2  0
  5 12  1  0
 12 13  1  0
 13 14  1  0
 14 15  1  0
 15 16  1  0
 16 17  2  0
 16 18  1  0
 18 19  1  0
 18 20  1  0
 20 21  1  0
 21 22  1  0
 21 23  1  0
 23 24  2  0
 24 25  1  0
 25 26  2  0
 26 27  1  0
 27 28  2  0
 15 29  1  0
 29 30  1  0
 11  6  1  0
 30 12  1  0
 28 23  1  0
  1 31  1  0
  1 32  1  0
  1 33  1  0
  2 34  1  0
  2 35  1  0
  7 36  1  0
  8 37  1  0
  9 38  1  0
 10 39  1  0
 11 40  1  0
 12 41  1  0
 13 42  1  0
 13 43  1  0
 14 44  1  0
 14 45  1  0
 18 46  1  6
 19 47  1  0
 19 48  1  0
 20 49  1  0
 20 50  1  0
 21 51  1  6
 22 52  1  0
 22 53  1  0
 22 54  1  0
 24 55  1  0
 25 56  1  0
 26 57  1  0
 27 58  1  0
 28 59  1  0
 29 60  1  0
 29 61  1  0
 30 62  1  0
 30 63  1  0
M  END
>  <smiles>  (61) 
CCC(=O)N(c1ccccc1)C1CCN(C(=O)[C@H](N)CC(C)c2ccccc2)CC1

>  <score_type>  (61) 
oracle

>  <origin>  (61) 
autodockgpu

>  <m_score__min__energy>  (61) 
-8.3599999999999994

>  <m_primary>  (61) 
energy

>  <rmsd>  (61) 
6.389010462518091

>  <m_score__min__rmsd>  (61) 
6.389010462518091

>  <meeko>  (61) 
{"free_energy": -7.68, "intermolecular_energy": -10.36, "internal_energy": -2.4, "cluster_size": 18, "cluster_id": 3, "rank_in_cluster": 6}

>  <energy>  (61) 
-7.49

>  <cluster_rmsd>  (61) 
1.22

>  <cluster>  (61) 
1

$$$$

     RDKit          3D

 63 65  0  0  0  0  0  0  0  0999 V2000
  136.8080   71.0660  223.8770 C   0  0  0  0  0  0  0  0  0  0  0  0
  137.4110   69.7670  223.3560 C   0  0  0  0  0  0  0  0  0  0  0  0
  138.8460   70.0040  223.1510 C   0  0  0  0  0  0  0  0  0  0  0  0
  139.4510   69.1710  222.3890 O   0  0  0  0  0  0  0  0  0  0  0  0
  139.6370   71.0330  223.6880 N   0  0  0  0  0  0  0  0  0  0  0  0
  140.0570   70.8280  225.0670 C   0  0  0  0  0  0  0  0  0  0  0  0
  139.7460   69.6030  225.6190 C   0  0  0  0  0  0  0  0  0  0  0  0
  140.1130   69.3350  226.9280 C   0  0  0  0  0  0  0  0  0  0  0  0
  140.7850   70.3040  227.6470 C   0  0  0  0  0  0  0  0  0  0  0  0
  141.0850   71.5280  227.0660 C   0  0  0  0  0  0  0  0  0  0  0  0
  140.7250   71.8210  225.7520 C   0  0  0  0  0  0  0  0  0  0  0  0
  140.0930   72.2230  223.0470 C   0  0  0  0  0  0  0  0  0  0  0  0
  141.3360   71.9010  222.2290 C   0  0  0  0  0  0  0  0  0  0  0  0
  141.1880   72.5750  220.8830 C   0  0  0  0  0  0  0  0  0  0  0  0
  140.8410   73.9910  221.0690 N   0  0  0  0  0  0  0  0  0  0  0  0
  141.6700   74.9500  220.4210 C   0  0  0  0  0  0  0  0  0  0  0  0
  142.6340   74.5170  219.7340 O   0  0  0  0  0  0  0  0  0  0  0  0
  141.4780   76.4020  220.4980 C   0  0  2  0  0  0  0  0  0  0  0  0
  142.5460   77.1370  219.8580 N   0  0  0  0  0  0  0  0  0  0  0  0
  141.0950   76.9200  221.8340 C   0  0  0  0  0  0  0  0  0  0  0  0
  140.1450   78.0200  221.9530 C   0  0  1  0  0  0  0  0  0  0  0  0
  138.9010   77.8450  222.7320 C   0  0  0  0  0  0  0  0  0  0  0  0
  140.8750   79.1610  222.6170 C   0  0  0  0  0  0  0  0  0  0  0  0
  142.2510   79.0960  222.5710 C   0  0  0  0  0  0  0  0  0  0  0  0
  143.0650   80.0710  223.1370 C   0  0  0  0  0  0  0  0  0  0  0  0
  142.4180   81.1240  223.7570 C   0  0  0  0  0  0  0  0  0  0  0  0
  141.0390   81.1900  223.8030 C   0  0  0  0  0  0  0  0  0  0  0  0
  140.2440   80.1960  223.2270 C   0  0  0  0  0  0  0  0  0  0  0  0
  139.7040   74.3200  221.8810 C   0  0  0  0  0  0  0  0  0  0  0  0
  139.0610   72.9730  222.2670 C   0  0  0  0  0  0  0  0  0  0  0  0
  136.8122   71.0569  224.9770 H   0  0  0  0  0  0  0  0  0  0  0  0
  137.4029   71.9175  223.5151 H   0  0  0  0  0  0  0  0  0  0  0  0
  135.7736   71.1612  223.5151 H   0  0  0  0  0  0  0  0  0  0  0  0
  137.2635   68.9619  224.0909 H   0  0  0  0  0  0  0  0  0  0  0  0
  136.9280   69.4625  222.4158 H   0  0  0  0  0  0  0  0  0  0  0  0
  139.2118   68.8461  225.0259 H   0  0  0  0  0  0  0  0  0  0  0  0
  139.8727   68.3650  227.3876 H   0  0  0  0  0  0  0  0  0  0  0  0
  141.0842   70.1043  228.6865 H   0  0  0  0  0  0  0  0  0  0  0  0
  141.6202   72.2857  227.6572 H   0  0  0  0  0  0  0  0  0  0  0  0
  140.9605   72.7899  225.2874 H   0  0  0  0  0  0  0  0  0  0  0  0
  140.3463   72.9358  223.8456 H   0  0  0  0  0  0  0  0  0  0  0  0
  142.2313   72.2818  222.7423 H   0  0  0  0  0  0  0  0  0  0  0  0
  141.4448   70.8134  222.1054 H   0  0  0  0  0  0  0  0  0  0  0  0
  142.1370   72.5012  220.3317 H   0  0  0  0  0  0  0  0  0  0  0  0
  140.3885   72.0775  220.3144 H   0  0  0  0  0  0  0  0  0  0  0  0
  140.5760   76.5974  219.8995 H   0  0  0  0  0  0  0  0  0  0  0  0
  142.9430   77.8860  220.4240 H   0  0  0  0  0  0  0  0  0  0  0  0
  143.1560   76.6030  219.2410 H   0  0  0  0  0  0  0  0  0  0  0  0
  140.6686   76.0727  222.3910 H   0  0  0  0  0  0  0  0  0  0  0  0
  142.0316   77.3581  222.2092 H   0  0  0  0  0  0  0  0  0  0  0  0
  139.8013   78.1561  220.9170 H   0  0  0  0  0  0  0  0  0  0  0  0
  139.1336   77.8777  223.8066 H   0  0  0  0  0  0  0  0  0  0  0  0
  138.1967   78.6529  222.4845 H   0  0  0  0  0  0  0  0  0  0  0  0
  138.4469   76.8741  222.4845 H   0  0  0  0  0  0  0  0  0  0  0  0
  142.7234   78.2399  222.0671 H   0  0  0  0  0  0  0  0  0  0  0  0
  144.1624   80.0081  223.0939 H   0  0  0  0  0  0  0  0  0  0  0  0
  143.0125   81.9241  224.2223 H   0  0  0  0  0  0  0  0  0  0  0  0
  140.5569   82.0427  224.3034 H   0  0  0  0  0  0  0  0  0  0  0  0
  139.1461   80.2504  223.2665 H   0  0  0  0  0  0  0  0  0  0  0  0
  140.0215   74.8653  222.7820 H   0  0  0  0  0  0  0  0  0  0  0  0
  138.9959   74.9678  221.3435 H   0  0  0  0  0  0  0  0  0  0  0  0
  138.1656   73.1412  222.8834 H   0  0  0  0  0  0  0  0  0  0  0  0
  138.7467   72.4102  221.3756 H   0  0  0  0  0  0  0  0  0  0  0  0
  1  2  1  0
  2  3  1  0
  3  4  2  0
  3  5  1  0
  5  6  1  0
  6  7  2  0
  7  8  1  0
  8  9  2  0
  9 10  1  0
 10 11  2  0
  5 12  1  0
 12 13  1  0
 13 14  1  0
 14 15  1  0
 15 16  1  0
 16 17  2  0
 16 18  1  0
 18 19  1  0
 18 20  1  0
 20 21  1  0
 21 22  1  0
 21 23  1  0
 23 24  2  0
 24 25  1  0
 25 26  2  0
 26 27  1  0
 27 28  2  0
 15 29  1  0
 29 30  1  0
 11  6  1  0
 30 12  1  0
 28 23  1  0
  1 31  1  0
  1 32  1  0
  1 33  1  0
  2 34  1  0
  2 35  1  0
  7 36  1  0
  8 37  1  0
  9 38  1  0
 10 39  1  0
 11 40  1  0
 12 41  1  0
 13 42  1  0
 13 43  1  0
 14 44  1  0
 14 45  1  0
 18 46  1  6
 19 47  1  0
 19 48  1  0
 20 49  1  0
 20 50  1  0
 21 51  1  6
 22 52  1  0
 22 53  1  0
 22 54  1  0
 24 55  1  0
 25 56  1  0
 26 57  1  0
 27 58  1  0
 28 59  1  0
 29 60  1  0
 29 61  1  0
 30 62  1  0
 30 63  1  0
M  END
>  <smiles>  (62) 
CCC(=O)N(c1ccccc1)C1CCN(C(=O)[C@H](N)CC(C)c2ccccc2)CC1

>  <score_type>  (62) 
oracle

>  <origin>  (62) 
autodockgpu

>  <m_score__min__energy>  (62) 
-8.3599999999999994

>  <m_primary>  (62) 
energy

>  <rmsd>  (62) 
6.368179437106781

>  <m_score__min__rmsd>  (62) 
6.368179437106781

>  <meeko>  (62) 
{"free_energy": -7.71, "intermolecular_energy": -10.4, "internal_energy": -2.34, "cluster_size": 18, "cluster_id": 3, "rank_in_cluster": 3}

>  <energy>  (62) 
-7.94

>  <cluster_rmsd>  (62) 
0.0

>  <cluster>  (62) 
2

$$$$

     RDKit          3D

 63 65  0  0  0  0  0  0  0  0999 V2000
  138.2210   80.8950  223.8850 C   0  0  0  0  0  0  0  0  0  0  0  0
  138.0650   80.2130  222.5300 C   0  0  0  0  0  0  0  0  0  0  0  0
  138.2930   78.7770  222.7370 C   0  0  0  0  0  0  0  0  0  0  0  0
  137.2680   78.0860  223.0730 O   0  0  0  0  0  0  0  0  0  0  0  0
  139.4980   78.0670  222.6130 N   0  0  0  0  0  0  0  0  0  0  0  0
  140.7020   78.8830  222.6780 C   0  0  0  0  0  0  0  0  0  0  0  0
  141.0860   79.4900  221.5000 C   0  0  0  0  0  0  0  0  0  0  0  0
  142.2220   80.2830  221.4840 C   0  0  0  0  0  0  0  0  0  0  0  0
  142.9410   80.4480  222.6510 C   0  0  0  0  0  0  0  0  0  0  0  0
  142.5320   79.8250  223.8220 C   0  0  0  0  0  0  0  0  0  0  0  0
  141.3940   79.0230  223.8630 C   0  0  0  0  0  0  0  0  0  0  0  0
  139.6840   76.6600  222.4600 C   0  0  0  0  0  0  0  0  0  0  0  0
  138.4240   76.0580  221.8520 C   0  0  0  0  0  0  0  0  0  0  0  0
  138.8520   75.0970  220.7640 C   0  0  0  0  0  0  0  0  0  0  0  0
  139.8670   74.1720  221.2870 N   0  0  0  0  0  0  0  0  0  0  0  0
  139.6130   72.7800  221.1340 C   0  0  0  0  0  0  0  0  0  0  0  0
  138.5440   72.4420  220.5590 O   0  0  0  0  0  0  0  0  0  0  0  0
  140.5100   71.7150  221.5970 C   0  0  2  0  0  0  0  0  0  0  0  0
  140.2300   70.4430  220.9690 N   0  0  0  0  0  0  0  0  0  0  0  0
  140.7010   71.6430  223.0660 C   0  0  0  0  0  0  0  0  0  0  0  0
  139.5560   71.4590  223.9490 C   0  0  1  0  0  0  0  0  0  0  0  0
  138.5030   70.4800  223.6060 C   0  0  0  0  0  0  0  0  0  0  0  0
  140.0970   71.0120  225.2850 C   0  0  0  0  0  0  0  0  0  0  0  0
  139.9380   69.6740  225.5740 C   0  0  0  0  0  0  0  0  0  0  0  0
  140.3830   69.1080  226.7630 C   0  0  0  0  0  0  0  0  0  0  0  0
  141.0020   69.9650  227.6550 C   0  0  0  0  0  0  0  0  0  0  0  0
  141.1610   71.3060  227.3650 C   0  0  0  0  0  0  0  0  0  0  0  0
  140.7040   71.8490  226.1620 C   0  0  0  0  0  0  0  0  0  0  0  0
  141.0390   74.7180  221.9140 C   0  0  0  0  0  0  0  0  0  0  0  0
  140.9290   76.2470  221.7450 C   0  0  0  0  0  0  0  0  0  0  0  0
  138.0530   80.1607  224.6866 H   0  0  0  0  0  0  0  0  0  0  0  0
  139.2368   81.3079  223.9729 H   0  0  0  0  0  0  0  0  0  0  0  0
  137.4857   81.7084  223.9729 H   0  0  0  0  0  0  0  0  0  0  0  0
  137.0509   80.3808  222.1383 H   0  0  0  0  0  0  0  0  0  0  0  0
  138.7824   80.6211  221.8029 H   0  0  0  0  0  0  0  0  0  0  0  0
  140.4962   79.3458  220.5828 H   0  0  0  0  0  0  0  0  0  0  0  0
  142.5464   80.7741  220.5547 H   0  0  0  0  0  0  0  0  0  0  0  0
  143.8434   81.0770  222.6528 H   0  0  0  0  0  0  0  0  0  0  0  0
  143.1210   79.9682  224.7400 H   0  0  0  0  0  0  0  0  0  0  0  0
  141.0653   78.5287  224.7891 H   0  0  0  0  0  0  0  0  0  0  0  0
  139.8464   76.2495  223.4675 H   0  0  0  0  0  0  0  0  0  0  0  0
  137.8554   75.5199  222.6247 H   0  0  0  0  0  0  0  0  0  0  0  0
  137.7810   76.8482  221.4371 H   0  0  0  0  0  0  0  0  0  0  0  0
  137.9788   74.5238  220.4190 H   0  0  0  0  0  0  0  0  0  0  0  0
  139.2777   75.6658  219.9242 H   0  0  0  0  0  0  0  0  0  0  0  0
  141.5074   72.0136  221.2420 H   0  0  0  0  0  0  0  0  0  0  0  0
  140.4330   69.6300  221.5500 H   0  0  0  0  0  0  0  0  0  0  0  0
  139.4310   70.4170  220.3380 H   0  0  0  0  0  0  0  0  0  0  0  0
  141.3841   70.8018  223.2549 H   0  0  0  0  0  0  0  0  0  0  0  0
  141.0528   72.6534  223.3214 H   0  0  0  0  0  0  0  0  0  0  0  0
  139.0502   72.4342  223.8934 H   0  0  0  0  0  0  0  0  0  0  0  0
  138.0656   70.0733  224.5297 H   0  0  0  0  0  0  0  0  0  0  0  0
  137.7184   70.9769  223.0165 H   0  0  0  0  0  0  0  0  0  0  0  0
  138.9415   69.6613  223.0165 H   0  0  0  0  0  0  0  0  0  0  0  0
  139.4397   69.0290  224.8353 H   0  0  0  0  0  0  0  0  0  0  0  0
  140.2503   68.0383  226.9823 H   0  0  0  0  0  0  0  0  0  0  0  0
  141.3743   69.5715  228.6124 H   0  0  0  0  0  0  0  0  0  0  0  0
  141.6579   71.9600  228.0967 H   0  0  0  0  0  0  0  0  0  0  0  0
  140.8320   72.9175  225.9343 H   0  0  0  0  0  0  0  0  0  0  0  0
  141.0630   74.4508  222.9808 H   0  0  0  0  0  0  0  0  0  0  0  0
  141.9616   74.3250  221.4620 H   0  0  0  0  0  0  0  0  0  0  0  0
  141.8050   76.7431  222.1882 H   0  0  0  0  0  0  0  0  0  0  0  0
  140.8922   76.5299  220.6826 H   0  0  0  0  0  0  0  0  0  0  0  0
  1  2  1  0
  2  3  1  0
  3  4  2  0
  3  5  1  0
  5  6  1  0
  6  7  2  0
  7  8  1  0
  8  9  2  0
  9 10  1  0
 10 11  2  0
  5 12  1  0
 12 13  1  0
 13 14  1  0
 14 15  1  0
 15 16  1  0
 16 17  2  0
 16 18  1  0
 18 19  1  0
 18 20  1  0
 20 21  1  0
 21 22  1  0
 21 23  1  0
 23 24  2  0
 24 25  1  0
 25 26  2  0
 26 27  1  0
 27 28  2  0
 15 29  1  0
 29 30  1  0
 11  6  1  0
 30 12  1  0
 28 23  1  0
  1 31  1  0
  1 32  1  0
  1 33  1  0
  2 34  1  0
  2 35  1  0
  7 36  1  0
  8 37  1  0
  9 38  1  0
 10 39  1  0
 11 40  1  0
 12 41  1  0
 13 42  1  0
 13 43  1  0
 14 44  1  0
 14 45  1  0
 18 46  1  6
 19 47  1  0
 19 48  1  0
 20 49  1  0
 20 50  1  0
 21 51  1  1
 22 52  1  0
 22 53  1  0
 22 54  1  0
 24 55  1  0
 25 56  1  0
 26 57  1  0
 27 58  1  0
 28 59  1  0
 29 60  1  0
 29 61  1  0
 30 62  1  0
 30 63  1  0
M  END
>  <smiles>  (63) 
CCC(=O)N(c1ccccc1)C1CCN(C(=O)[C@H](N)CC(C)c2ccccc2)CC1

>  <score_type>  (63) 
oracle

>  <origin>  (63) 
autodockgpu

>  <m_score__min__energy>  (63) 
-8.3599999999999994

>  <m_primary>  (63) 
energy

>  <rmsd>  (63) 
6.515495699112041

>  <m_score__min__rmsd>  (63) 
6.515495699112041

>  <meeko>  (63) 
{"free_energy": -7.03, "intermolecular_energy": -9.71, "internal_energy": -2.29, "cluster_size": 8, "cluster_id": 4, "rank_in_cluster": 8}

>  <energy>  (63) 
-7.92

>  <cluster_rmsd>  (63) 
0.51

>  <cluster>  (63) 
2

$$$$

     RDKit          3D

 63 65  0  0  0  0  0  0  0  0999 V2000
  145.7460   74.1770  220.8500 C   0  0  0  0  0  0  0  0  0  0  0  0
  146.2940   72.7630  220.6920 C   0  0  0  0  0  0  0  0  0  0  0  0
  145.5760   72.1400  219.5730 C   0  0  0  0  0  0  0  0  0  0  0  0
  145.9010   72.5430  218.4010 O   0  0  0  0  0  0  0  0  0  0  0  0
  144.5740   71.1580  219.6290 N   0  0  0  0  0  0  0  0  0  0  0  0
  144.8250   69.9770  218.8170 C   0  0  0  0  0  0  0  0  0  0  0  0
  144.5370   70.0940  217.4730 C   0  0  0  0  0  0  0  0  0  0  0  0
  144.7510   69.0110  216.6360 C   0  0  0  0  0  0  0  0  0  0  0  0
  145.2490   67.8380  217.1700 C   0  0  0  0  0  0  0  0  0  0  0  0
  145.5290   67.7490  218.5260 C   0  0  0  0  0  0  0  0  0  0  0  0
  145.3230   68.8240  219.3880 C   0  0  0  0  0  0  0  0  0  0  0  0
  143.3700   71.1670  220.3950 C   0  0  0  0  0  0  0  0  0  0  0  0
  143.0870   72.5910  220.8570 C   0  0  0  0  0  0  0  0  0  0  0  0
  141.6170   72.8640  220.6280 C   0  0  0  0  0  0  0  0  0  0  0  0
  140.8110   71.7850  221.2140 N   0  0  0  0  0  0  0  0  0  0  0  0
  139.7900   72.1640  222.1300 C   0  0  0  0  0  0  0  0  0  0  0  0
  139.6480   73.3930  222.3680 O   0  0  0  0  0  0  0  0  0  0  0  0
  138.8940   71.2230  222.8130 C   0  0  2  0  0  0  0  0  0  0  0  0
  137.8210   71.8910  223.5150 N   0  0  0  0  0  0  0  0  0  0  0  0
  139.5700   70.1610  223.5970 C   0  0  0  0  0  0  0  0  0  0  0  0
  138.9700   69.6580  224.8260 C   0  0  1  0  0  0  0  0  0  0  0  0
  138.9750   68.2080  225.1160 C   0  0  0  0  0  0  0  0  0  0  0  0
  139.7140   70.2970  225.9730 C   0  0  0  0  0  0  0  0  0  0  0  0
  140.5890   71.3040  225.6270 C   0  0  0  0  0  0  0  0  0  0  0  0
  141.3480   71.9900  226.5680 C   0  0  0  0  0  0  0  0  0  0  0  0
  141.1800   71.6080  227.8870 C   0  0  0  0  0  0  0  0  0  0  0  0
  140.3030   70.5990  228.2330 C   0  0  0  0  0  0  0  0  0  0  0  0
  139.5520   69.9250  227.2670 C   0  0  0  0  0  0  0  0  0  0  0  0
  141.0960   70.4290  220.8340 C   0  0  0  0  0  0  0  0  0  0  0  0
  142.1880   70.5200  219.7490 C   0  0  0  0  0  0  0  0  0  0  0  0
  145.6531   74.4168  221.9195 H   0  0  0  0  0  0  0  0  0  0  0  0
  146.4322   74.8917  220.3723 H   0  0  0  0  0  0  0  0  0  0  0  0
  144.7573   74.2426  220.3723 H   0  0  0  0  0  0  0  0  0  0  0  0
  147.3717   72.7989  220.4747 H   0  0  0  0  0  0  0  0  0  0  0  0
  146.1522   72.1843  221.6167 H   0  0  0  0  0  0  0  0  0  0  0  0
  144.1413   71.0379  217.0699 H   0  0  0  0  0  0  0  0  0  0  0  0
  144.5276   69.0839  215.5614 H   0  0  0  0  0  0  0  0  0  0  0  0
  145.4243   66.9704  216.5169 H   0  0  0  0  0  0  0  0  0  0  0  0
  145.9238   66.8055  218.9309 H   0  0  0  0  0  0  0  0  0  0  0  0
  145.5449   68.7572  220.4633 H   0  0  0  0  0  0  0  0  0  0  0  0
  143.5441   70.5187  221.2664 H   0  0  0  0  0  0  0  0  0  0  0  0
  143.3250   72.6925  221.9261 H   0  0  0  0  0  0  0  0  0  0  0  0
  143.7044   73.3083  220.2964 H   0  0  0  0  0  0  0  0  0  0  0  0
  141.3456   73.8197  221.1002 H   0  0  0  0  0  0  0  0  0  0  0  0
  141.4223   72.9151  219.5466 H   0  0  0  0  0  0  0  0  0  0  0  0
  138.4160   70.6521  222.0033 H   0  0  0  0  0  0  0  0  0  0  0  0
  137.7130   71.6100  224.4890 H   0  0  0  0  0  0  0  0  0  0  0  0
  137.6450   72.8600  223.2550 H   0  0  0  0  0  0  0  0  0  0  0  0
  139.6853   69.2975  222.9254 H   0  0  0  0  0  0  0  0  0  0  0  0
  140.4850   70.6578  223.9519 H   0  0  0  0  0  0  0  0  0  0  0  0
  137.9065   69.9062  224.6940 H   0  0  0  0  0  0  0  0  0  0  0  0
  138.9755   68.0518  226.2049 H   0  0  0  0  0  0  0  0  0  0  0  0
  138.0785   67.7437  224.6794 H   0  0  0  0  0  0  0  0  0  0  0  0
  139.8747   67.7499  224.6794 H   0  0  0  0  0  0  0  0  0  0  0  0
  140.6906   71.5752  224.5658 H   0  0  0  0  0  0  0  0  0  0  0  0
  142.0436   72.7920  226.2799 H   0  0  0  0  0  0  0  0  0  0  0  0
  141.7553   72.1171  228.6743 H   0  0  0  0  0  0  0  0  0  0  0  0
  140.1935   70.3202  229.2914 H   0  0  0  0  0  0  0  0  0  0  0  0
  138.8544   69.1215  227.5459 H   0  0  0  0  0  0  0  0  0  0  0  0
  141.4620   69.8571  221.6994 H   0  0  0  0  0  0  0  0  0  0  0  0
  140.1975   69.9140  220.4633 H   0  0  0  0  0  0  0  0  0  0  0  0
  142.4531   69.5144  219.3905 H   0  0  0  0  0  0  0  0  0  0  0  0
  141.8408   71.0991  218.8806 H   0  0  0  0  0  0  0  0  0  0  0  0
  1  2  1  0
  2  3  1  0
  3  4  2  0
  3  5  1  0
  5  6  1  0
  6  7  2  0
  7  8  1  0
  8  9  2  0
  9 10  1  0
 10 11  2  0
  5 12  1  0
 12 13  1  0
 13 14  1  0
 14 15  1  0
 15 16  1  0
 16 17  2  0
 16 18  1  0
 18 19  1  0
 18 20  1  0
 20 21  1  0
 21 22  1  0
 21 23  1  0
 23 24  2  0
 24 25  1  0
 25 26  2  0
 26 27  1  0
 27 28  2  0
 15 29  1  0
 29 30  1  0
 11  6  1  0
 30 12  1  0
 28 23  1  0
  1 31  1  0
  1 32  1  0
  1 33  1  0
  2 34  1  0
  2 35  1  0
  7 36  1  0
  8 37  1  0
  9 38  1  0
 10 39  1  0
 11 40  1  0
 12 41  1  0
 13 42  1  0
 13 43  1  0
 14 44  1  0
 14 45  1  0
 18 46  1  6
 19 47  1  0
 19 48  1  0
 20 49  1  0
 20 50  1  0
 21 51  1  6
 22 52  1  0
 22 53  1  0
 22 54  1  0
 24 55  1  0
 25 56  1  0
 26 57  1  0
 27 58  1  0
 28 59  1  0
 29 60  1  0
 29 61  1  0
 30 62  1  0
 30 63  1  0
M  END
>  <smiles>  (64) 
CCC(=O)N(c1ccccc1)C1CCN(C(=O)[C@H](N)CC(C)c2ccccc2)CC1

>  <score_type>  (64) 
oracle

>  <origin>  (64) 
autodockgpu

>  <m_score__min__energy>  (64) 
-8.3599999999999994

>  <m_primary>  (64) 
energy

>  <rmsd>  (64) 
9.020806118433896

>  <m_score__min__rmsd>  (64) 
9.020806118433896

>  <meeko>  (64) 
{"free_energy": -8.05, "intermolecular_energy": -10.73, "internal_energy": -2.33, "cluster_size": 11, "cluster_id": 1, "rank_in_cluster": 6}

>  <energy>  (64) 
-7.92

>  <cluster_rmsd>  (64) 
0.42

>  <cluster>  (64) 
2

$$$$

     RDKit          3D

 63 65  0  0  0  0  0  0  0  0999 V2000
  140.8420   76.4560  221.3990 C   0  0  0  0  0  0  0  0  0  0  0  0
  141.8910   76.0240  220.3810 C   0  0  0  0  0  0  0  0  0  0  0  0
  141.5630   74.6510  219.9740 C   0  0  0  0  0  0  0  0  0  0  0  0
  140.8360   74.5330  218.9260 O   0  0  0  0  0  0  0  0  0  0  0  0
  141.9480   73.4520  220.5940 N   0  0  0  0  0  0  0  0  0  0  0  0
  143.3450   73.0850  220.4110 C   0  0  0  0  0  0  0  0  0  0  0  0
  144.2740   74.0180  220.8220 C   0  0  0  0  0  0  0  0  0  0  0  0
  145.6240   73.7400  220.6810 C   0  0  0  0  0  0  0  0  0  0  0  0
  146.0060   72.5320  220.1310 C   0  0  0  0  0  0  0  0  0  0  0  0
  145.0490   71.6120  219.7250 C   0  0  0  0  0  0  0  0  0  0  0  0
  143.6860   71.8690  219.8570 C   0  0  0  0  0  0  0  0  0  0  0  0
  141.1520   72.5740  221.3900 C   0  0  0  0  0  0  0  0  0  0  0  0
  140.1460   73.3990  222.1830 C   0  0  0  0  0  0  0  0  0  0  0  0
  138.8050   72.7060  222.0850 C   0  0  0  0  0  0  0  0  0  0  0  0
  138.9510   71.2870  222.4360 N   0  0  0  0  0  0  0  0  0  0  0  0
  138.0970   70.7820  223.4580 C   0  0  0  0  0  0  0  0  0  0  0  0
  137.2790   71.5840  223.9820 O   0  0  0  0  0  0  0  0  0  0  0  0
  138.1050   69.3960  223.9390 C   0  0  2  0  0  0  0  0  0  0  0  0
  136.9310   69.0740  224.7200 N   0  0  0  0  0  0  0  0  0  0  0  0
  139.3830   68.9420  224.5400 C   0  0  0  0  0  0  0  0  0  0  0  0
  139.4800   68.7110  225.9770 C   0  0  1  0  0  0  0  0  0  0  0  0
  140.2910   67.5890  226.4950 C   0  0  0  0  0  0  0  0  0  0  0  0
  140.0850   69.9540  226.5820 C   0  0  0  0  0  0  0  0  0  0  0  0
  140.8410   70.7260  225.7270 C   0  0  0  0  0  0  0  0  0  0  0  0
  141.4630   71.9010  226.1340 C   0  0  0  0  0  0  0  0  0  0  0  0
  141.2850   72.2620  227.4570 C   0  0  0  0  0  0  0  0  0  0  0  0
  140.5270   71.4880  228.3140 C   0  0  0  0  0  0  0  0  0  0  0  0
  139.9120   70.3110  227.8790 C   0  0  0  0  0  0  0  0  0  0  0  0
  139.9310   70.5020  221.7400 C   0  0  0  0  0  0  0  0  0  0  0  0
  140.5220   71.4320  220.6610 C   0  0  0  0  0  0  0  0  0  0  0  0
  141.2301   76.2962  222.4158 H   0  0  0  0  0  0  0  0  0  0  0  0
  140.6114   77.5223  221.2579 H   0  0  0  0  0  0  0  0  0  0  0  0
  139.9274   75.8613  221.2579 H   0  0  0  0  0  0  0  0  0  0  0  0
  141.8658   76.6921  219.5075 H   0  0  0  0  0  0  0  0  0  0  0  0
  142.9000   76.0713  220.8165 H   0  0  0  0  0  0  0  0  0  0  0  0
  143.9463   74.9735  221.2575 H   0  0  0  0  0  0  0  0  0  0  0  0
  146.3807   74.4708  221.0025 H   0  0  0  0  0  0  0  0  0  0  0  0
  147.0744   72.2977  220.0140 H   0  0  0  0  0  0  0  0  0  0  0  0
  145.3748   70.6564  219.2883 H   0  0  0  0  0  0  0  0  0  0  0  0
  142.9244   71.1426  219.5372 H   0  0  0  0  0  0  0  0  0  0  0  0
  141.8392   72.0600  222.0781 H   0  0  0  0  0  0  0  0  0  0  0  0
  140.4594   73.4617  223.2355 H   0  0  0  0  0  0  0  0  0  0  0  0
  140.0824   74.4206  221.7803 H   0  0  0  0  0  0  0  0  0  0  0  0
  138.0962   73.1825  222.7782 H   0  0  0  0  0  0  0  0  0  0  0  0
  138.4282   72.7883  221.0548 H   0  0  0  0  0  0  0  0  0  0  0  0
  138.0396   68.7823  223.0285 H   0  0  0  0  0  0  0  0  0  0  0  0
  136.4220   69.8830  225.0720 H   0  0  0  0  0  0  0  0  0  0  0  0
  136.4130   68.2440  224.4350 H   0  0  0  0  0  0  0  0  0  0  0  0
  139.6434   67.9927  224.0491 H   0  0  0  0  0  0  0  0  0  0  0  0
  140.0525   69.7999  224.3796 H   0  0  0  0  0  0  0  0  0  0  0  0
  138.4470   68.4501  226.2505 H   0  0  0  0  0  0  0  0  0  0  0  0
  140.2793   67.6052  227.5948 H   0  0  0  0  0  0  0  0  0  0  0  0
  139.8707   66.6373  226.1378 H   0  0  0  0  0  0  0  0  0  0  0  0
  141.3265   67.6895  226.1378 H   0  0  0  0  0  0  0  0  0  0  0  0
  140.9569   70.4003  224.6827 H   0  0  0  0  0  0  0  0  0  0  0  0
  142.0634   72.5097  225.4420 H   0  0  0  0  0  0  0  0  0  0  0  0
  141.7555   73.1821  227.8337 H   0  0  0  0  0  0  0  0  0  0  0  0
  140.4050   71.8046  229.3603 H   0  0  0  0  0  0  0  0  0  0  0  0
  139.3094   69.6962  228.5637 H   0  0  0  0  0  0  0  0  0  0  0  0
  140.7182   70.1695  222.4326 H   0  0  0  0  0  0  0  0  0  0  0  0
  139.4870   69.5980  221.2976 H   0  0  0  0  0  0  0  0  0  0  0  0
  141.2775   70.8955  220.0682 H   0  0  0  0  0  0  0  0  0  0  0  0
  139.7447   71.7819  219.9658 H   0  0  0  0  0  0  0  0  0  0  0  0
  1  2  1  0
  2  3  1  0
  3  4  2  0
  3  5  1  0
  5  6  1  0
  6  7  2  0
  7  8  1  0
  8  9  2  0
  9 10  1  0
 10 11  2  0
  5 12  1  0
 12 13  1  0
 13 14  1  0
 14 15  1  0
 15 16  1  0
 16 17  2  0
 16 18  1  0
 18 19  1  0
 18 20  1  0
 20 21  1  0
 21 22  1  0
 21 23  1  0
 23 24  2  0
 24 25  1  0
 25 26  2  0
 26 27  1  0
 27 28  2  0
 15 29  1  0
 29 30  1  0
 11  6  1  0
 30 12  1  0
 28 23  1  0
  1 31  1  0
  1 32  1  0
  1 33  1  0
  2 34  1  0
  2 35  1  0
  7 36  1  0
  8 37  1  0
  9 38  1  0
 10 39  1  0
 11 40  1  0
 12 41  1  0
 13 42  1  0
 13 43  1  0
 14 44  1  0
 14 45  1  0
 18 46  1  6
 19 47  1  0
 19 48  1  0
 20 49  1  0
 20 50  1  0
 21 51  1  1
 22 52  1  0
 22 53  1  0
 22 54  1  0
 24 55  1  0
 25 56  1  0
 26 57  1  0
 27 58  1  0
 28 59  1  0
 29 60  1  0
 29 61  1  0
 30 62  1  0
 30 63  1  0
M  END
>  <smiles>  (65) 
CCC(=O)N(c1ccccc1)C1CCN(C(=O)[C@H](N)CC(C)c2ccccc2)CC1

>  <score_type>  (65) 
oracle

>  <origin>  (65) 
autodockgpu

>  <m_score__min__energy>  (65) 
-8.3599999999999994

>  <m_primary>  (65) 
energy

>  <rmsd>  (65) 
9.762061514094714

>  <m_score__min__rmsd>  (65) 
9.762061514094714

>  <meeko>  (65) 
{"free_energy": -7.37, "intermolecular_energy": -10.05, "internal_energy": -2.82, "cluster_size": 3, "cluster_id": 6, "rank_in_cluster": 1}

>  <energy>  (65) 
-7.91

>  <cluster_rmsd>  (65) 
1.72

>  <cluster>  (65) 
2

$$$$

     RDKit          3D

 63 65  0  0  0  0  0  0  0  0999 V2000
  138.2430   80.6310  223.9740 C   0  0  0  0  0  0  0  0  0  0  0  0
  137.5460   79.5650  223.1360 C   0  0  0  0  0  0  0  0  0  0  0  0
  138.5240   79.0720  222.1570 C   0  0  0  0  0  0  0  0  0  0  0  0
  138.2960   79.3750  220.9330 O   0  0  0  0  0  0  0  0  0  0  0  0
  139.6760   78.3080  222.3970 N   0  0  0  0  0  0  0  0  0  0  0  0
  140.8750   79.0790  222.6900 C   0  0  0  0  0  0  0  0  0  0  0  0
  141.4280   79.7650  221.6290 C   0  0  0  0  0  0  0  0  0  0  0  0
  142.5710   80.5220  221.8310 C   0  0  0  0  0  0  0  0  0  0  0  0
  143.1280   80.5720  223.0940 C   0  0  0  0  0  0  0  0  0  0  0  0
  142.5510   79.8700  224.1440 C   0  0  0  0  0  0  0  0  0  0  0  0
  141.4020   79.1020  223.9650 C   0  0  0  0  0  0  0  0  0  0  0  0
  139.8070   76.8870  222.4120 C   0  0  0  0  0  0  0  0  0  0  0  0
  138.4230   76.2630  222.5370 C   0  0  0  0  0  0  0  0  0  0  0  0
  138.3420   75.1210  221.5490 C   0  0  0  0  0  0  0  0  0  0  0  0
  139.5050   74.2380  221.7110 N   0  0  0  0  0  0  0  0  0  0  0  0
  139.2430   72.8540  221.9200 C   0  0  0  0  0  0  0  0  0  0  0  0
  138.0380   72.4870  221.9460 O   0  0  0  0  0  0  0  0  0  0  0  0
  140.2770   71.8300  222.1040 C   0  0  2  0  0  0  0  0  0  0  0  0
  140.0900   70.6900  221.2350 N   0  0  0  0  0  0  0  0  0  0  0  0
  140.5770   71.4810  223.5150 C   0  0  0  0  0  0  0  0  0  0  0  0
  139.5620   70.8490  224.3490 C   0  0  1  0  0  0  0  0  0  0  0  0
  139.1370   69.4600  224.0750 C   0  0  0  0  0  0  0  0  0  0  0  0
  140.0990   70.8320  225.7590 C   0  0  0  0  0  0  0  0  0  0  0  0
  139.9050   69.6590  226.4560 C   0  0  0  0  0  0  0  0  0  0  0  0
  140.3430   69.4860  227.7640 C   0  0  0  0  0  0  0  0  0  0  0  0
  140.9890   70.5640  228.3410 C   0  0  0  0  0  0  0  0  0  0  0  0
  141.1820   71.7400  227.6420 C   0  0  0  0  0  0  0  0  0  0  0  0
  140.7330   71.8870  226.3280 C   0  0  0  0  0  0  0  0  0  0  0  0
  140.8200   74.8130  221.6510 C   0  0  0  0  0  0  0  0  0  0  0  0
  140.6110   76.2990  221.2970 C   0  0  0  0  0  0  0  0  0  0  0  0
  138.0987   80.4103  225.0419 H   0  0  0  0  0  0  0  0  0  0  0  0
  139.3183   80.6344  223.7424 H   0  0  0  0  0  0  0  0  0  0  0  0
  137.8149   81.6174  223.7424 H   0  0  0  0  0  0  0  0  0  0  0  0
  137.2095   78.7396  223.7806 H   0  0  0  0  0  0  0  0  0  0  0  0
  136.6636   79.9827  222.6292 H   0  0  0  0  0  0  0  0  0  0  0  0
  140.9662   79.7117  220.6320 H   0  0  0  0  0  0  0  0  0  0  0  0
  143.0282   81.0752  220.9974 H   0  0  0  0  0  0  0  0  0  0  0  0
  144.0337   81.1712  223.2690 H   0  0  0  0  0  0  0  0  0  0  0  0
  143.0121   79.9214  225.1414 H   0  0  0  0  0  0  0  0  0  0  0  0
  140.9409   78.5451  224.7940 H   0  0  0  0  0  0  0  0  0  0  0  0
  140.4127   76.6345  223.2948 H   0  0  0  0  0  0  0  0  0  0  0  0
  138.2734   75.8852  223.5592 H   0  0  0  0  0  0  0  0  0  0  0  0
  137.6434   77.0100  222.3268 H   0  0  0  0  0  0  0  0  0  0  0  0
  137.4206   74.5476  221.7286 H   0  0  0  0  0  0  0  0  0  0  0  0
  138.3337   75.5260  220.5263 H   0  0  0  0  0  0  0  0  0  0  0  0
  141.2096   72.3105  221.7733 H   0  0  0  0  0  0  0  0  0  0  0  0
  139.1460   70.5910  220.8640 H   0  0  0  0  0  0  0  0  0  0  0  0
  140.8840   70.4330  220.6510 H   0  0  0  0  0  0  0  0  0  0  0  0
  141.4394   70.7985  223.4951 H   0  0  0  0  0  0  0  0  0  0  0  0
  140.7142   72.4632  223.9908 H   0  0  0  0  0  0  0  0  0  0  0  0
  138.6673   71.4544  224.1419 H   0  0  0  0  0  0  0  0  0  0  0  0
  138.9753   68.9316  225.0261 H   0  0  0  0  0  0  0  0  0  0  0  0
  138.2009   69.4702  223.4975 H   0  0  0  0  0  0  0  0  0  0  0  0
  139.9185   68.9446  223.4975 H   0  0  0  0  0  0  0  0  0  0  0  0
  139.3837   68.8280  225.9584 H   0  0  0  0  0  0  0  0  0  0  0  0
  140.1845   68.5441  228.3096 H   0  0  0  0  0  0  0  0  0  0  0  0
  141.3557   70.4838  229.3750 H   0  0  0  0  0  0  0  0  0  0  0  0
  141.7003   72.5781  228.1309 H   0  0  0  0  0  0  0  0  0  0  0  0
  140.8880   72.8248  225.7744 H   0  0  0  0  0  0  0  0  0  0  0  0
  141.3247   74.7180  222.6238 H   0  0  0  0  0  0  0  0  0  0  0  0
  141.4517   74.3041  220.9081 H   0  0  0  0  0  0  0  0  0  0  0  0
  141.5810   76.8112  221.2156 H   0  0  0  0  0  0  0  0  0  0  0  0
  140.0969   76.4114  220.3310 H   0  0  0  0  0  0  0  0  0  0  0  0
  1  2  1  0
  2  3  1  0
  3  4  2  0
  3  5  1  0
  5  6  1  0
  6  7  2  0
  7  8  1  0
  8  9  2  0
  9 10  1  0
 10 11  2  0
  5 12  1  0
 12 13  1  0
 13 14  1  0
 14 15  1  0
 15 16  1  0
 16 17  2  0
 16 18  1  0
 18 19  1  0
 18 20  1  0
 20 21  1  0
 21 22  1  0
 21 23  1  0
 23 24  2  0
 24 25  1  0
 25 26  2  0
 26 27  1  0
 27 28  2  0
 15 29  1  0
 29 30  1  0
 11  6  1  0
 30 12  1  0
 28 23  1  0
  1 31  1  0
  1 32  1  0
  1 33  1  0
  2 34  1  0
  2 35  1  0
  7 36  1  0
  8 37  1  0
  9 38  1  0
 10 39  1  0
 11 40  1  0
 12 41  1  0
 13 42  1  0
 13 43  1  0
 14 44  1  0
 14 45  1  0
 18 46  1  6
 19 47  1  0
 19 48  1  0
 20 49  1  0
 20 50  1  0
 21 51  1  1
 22 52  1  0
 22 53  1  0
 22 54  1  0
 24 55  1  0
 25 56  1  0
 26 57  1  0
 27 58  1  0
 28 59  1  0
 29 60  1  0
 29 61  1  0
 30 62  1  0
 30 63  1  0
M  END
>  <smiles>  (66) 
CCC(=O)N(c1ccccc1)C1CCN(C(=O)[C@H](N)CC(C)c2ccccc2)CC1

>  <score_type>  (66) 
oracle

>  <origin>  (66) 
autodockgpu

>  <m_score__min__energy>  (66) 
-8.3599999999999994

>  <m_primary>  (66) 
energy

>  <rmsd>  (66) 
6.812916978187178

>  <m_score__min__rmsd>  (66) 
6.812916978187178

>  <meeko>  (66) 
{"free_energy": -7.69, "intermolecular_energy": -10.38, "internal_energy": -2.17, "cluster_size": 8, "cluster_id": 4, "rank_in_cluster": 2}

>  <energy>  (66) 
-7.89

>  <cluster_rmsd>  (66) 
1.64

>  <cluster>  (66) 
2

$$$$

     RDKit          3D

 63 65  0  0  0  0  0  0  0  0999 V2000
  145.8300   74.1390  220.8030 C   0  0  0  0  0  0  0  0  0  0  0  0
  146.3210   72.6990  220.7080 C   0  0  0  0  0  0  0  0  0  0  0  0
  145.5320   72.0370  219.6620 C   0  0  0  0  0  0  0  0  0  0  0  0
  145.7660   72.4090  218.4590 O   0  0  0  0  0  0  0  0  0  0  0  0
  144.5490   71.0470  219.8180 N   0  0  0  0  0  0  0  0  0  0  0  0
  144.9210   69.7280  219.3260 C   0  0  0  0  0  0  0  0  0  0  0  0
  144.4350   68.6550  220.0430 C   0  0  0  0  0  0  0  0  0  0  0  0
  144.7470   67.3680  219.6340 C   0  0  0  0  0  0  0  0  0  0  0  0
  145.5370   67.1930  218.5150 C   0  0  0  0  0  0  0  0  0  0  0  0
  146.0130   68.2920  217.8130 C   0  0  0  0  0  0  0  0  0  0  0  0
  145.7130   69.5950  218.2040 C   0  0  0  0  0  0  0  0  0  0  0  0
  143.2580   71.1690  220.4150 C   0  0  0  0  0  0  0  0  0  0  0  0
  143.1630   72.5170  221.1180 C   0  0  0  0  0  0  0  0  0  0  0  0
  141.8220   73.1230  220.7700 C   0  0  0  0  0  0  0  0  0  0  0  0
  140.7530   72.1470  221.0200 N   0  0  0  0  0  0  0  0  0  0  0  0
  139.6820   72.5620  221.8610 C   0  0  0  0  0  0  0  0  0  0  0  0
  139.7250   73.7320  222.3250 O   0  0  0  0  0  0  0  0  0  0  0  0
  138.5340   71.7210  222.2220 C   0  0  2  0  0  0  0  0  0  0  0  0
  137.4020   72.4960  222.6780 N   0  0  0  0  0  0  0  0  0  0  0  0
  138.8520   70.5460  223.0700 C   0  0  0  0  0  0  0  0  0  0  0  0
  138.1430   70.3300  224.3250 C   0  0  1  0  0  0  0  0  0  0  0  0
  137.1730   69.2220  224.4480 C   0  0  0  0  0  0  0  0  0  0  0  0
  139.1880   70.0660  225.3810 C   0  0  0  0  0  0  0  0  0  0  0  0
  140.0330   71.1190  225.6600 C   0  0  0  0  0  0  0  0  0  0  0  0
  141.0460   71.0330  226.6070 C   0  0  0  0  0  0  0  0  0  0  0  0
  141.1680   69.8230  227.2650 C   0  0  0  0  0  0  0  0  0  0  0  0
  140.3220   68.7670  226.9850 C   0  0  0  0  0  0  0  0  0  0  0  0
  139.3110   68.8800  226.0280 C   0  0  0  0  0  0  0  0  0  0  0  0
  140.8490   70.8500  220.4100 C   0  0  0  0  0  0  0  0  0  0  0  0
  142.0990   70.9030  219.5100 C   0  0  0  0  0  0  0  0  0  0  0  0
  145.7328   74.4242  221.8609 H   0  0  0  0  0  0  0  0  0  0  0  0
  146.5516   74.8058  220.3083 H   0  0  0  0  0  0  0  0  0  0  0  0
  144.8514   74.2261  220.3083 H   0  0  0  0  0  0  0  0  0  0  0  0
  147.3882   72.6819  220.4421 H   0  0  0  0  0  0  0  0  0  0  0  0
  146.2015   72.1824  221.6717 H   0  0  0  0  0  0  0  0  0  0  0  0
  143.8061   68.8188  220.9305 H   0  0  0  0  0  0  0  0  0  0  0  0
  144.3707   66.4984  220.1928 H   0  0  0  0  0  0  0  0  0  0  0  0
  145.7906   66.1771  218.1780 H   0  0  0  0  0  0  0  0  0  0  0  0
  146.6428   68.1299  216.9258 H   0  0  0  0  0  0  0  0  0  0  0  0
  146.0864   70.4686  217.6495 H   0  0  0  0  0  0  0  0  0  0  0  0
  143.1712   70.3559  221.1507 H   0  0  0  0  0  0  0  0  0  0  0  0
  143.2404   72.3782  222.2065 H   0  0  0  0  0  0  0  0  0  0  0  0
  143.9804   73.1785  220.7951 H   0  0  0  0  0  0  0  0  0  0  0  0
  141.6532   74.0158  221.3900 H   0  0  0  0  0  0  0  0  0  0  0  0
  141.8158   73.4028  219.7062 H   0  0  0  0  0  0  0  0  0  0  0  0
  138.2197   71.2539  221.2770 H   0  0  0  0  0  0  0  0  0  0  0  0
  137.6360   73.4250  223.0240 H   0  0  0  0  0  0  0  0  0  0  0  0
  136.5280   72.3590  222.1720 H   0  0  0  0  0  0  0  0  0  0  0  0
  138.6778   69.6534  222.4512 H   0  0  0  0  0  0  0  0  0  0  0  0
  139.8826   70.7470  223.3977 H   0  0  0  0  0  0  0  0  0  0  0  0
  137.5310   71.2395  224.4163 H   0  0  0  0  0  0  0  0  0  0  0  0
  136.9892   69.0120  225.5120 H   0  0  0  0  0  0  0  0  0  0  0  0
  136.2281   69.5062  223.9618 H   0  0  0  0  0  0  0  0  0  0  0  0
  137.5797   68.3230  223.9618 H   0  0  0  0  0  0  0  0  0  0  0  0
  139.9001   72.0634  225.1119 H   0  0  0  0  0  0  0  0  0  0  0  0
  141.7138   71.8804  226.8214 H   0  0  0  0  0  0  0  0  0  0  0  0
  141.9531   69.6988  228.0254 H   0  0  0  0  0  0  0  0  0  0  0  0
  140.4473   67.8180  227.5269 H   0  0  0  0  0  0  0  0  0  0  0  0
  138.6388   68.0378  225.8069 H   0  0  0  0  0  0  0  0  0  0  0  0
  140.9631   70.0720  221.1792 H   0  0  0  0  0  0  0  0  0  0  0  0
  139.9445   70.6046  219.8340 H   0  0  0  0  0  0  0  0  0  0  0  0
  142.2346   69.9432  218.9899 H   0  0  0  0  0  0  0  0  0  0  0  0
  142.0049   71.6844  218.7415 H   0  0  0  0  0  0  0  0  0  0  0  0
  1  2  1  0
  2  3  1  0
  3  4  2  0
  3  5  1  0
  5  6  1  0
  6  7  2  0
  7  8  1  0
  8  9  2  0
  9 10  1  0
 10 11  2  0
  5 12  1  0
 12 13  1  0
 13 14  1  0
 14 15  1  0
 15 16  1  0
 16 17  2  0
 16 18  1  0
 18 19  1  0
 18 20  1  0
 20 21  1  0
 21 22  1  0
 21 23  1  0
 23 24  2  0
 24 25  1  0
 25 26  2  0
 26 27  1  0
 27 28  2  0
 15 29  1  0
 29 30  1  0
 11  6  1  0
 30 12  1  0
 28 23  1  0
  1 31  1  0
  1 32  1  0
  1 33  1  0
  2 34  1  0
  2 35  1  0
  7 36  1  0
  8 37  1  0
  9 38  1  0
 10 39  1  0
 11 40  1  0
 12 41  1  0
 13 42  1  0
 13 43  1  0
 14 44  1  0
 14 45  1  0
 18 46  1  6
 19 47  1  0
 19 48  1  0
 20 49  1  0
 20 50  1  0
 21 51  1  1
 22 52  1  0
 22 53  1  0
 22 54  1  0
 24 55  1  0
 25 56  1  0
 26 57  1  0
 27 58  1  0
 28 59  1  0
 29 60  1  0
 29 61  1  0
 30 62  1  0
 30 63  1  0
M  END
>  <smiles>  (67) 
CCC(=O)N(c1ccccc1)C1CCN(C(=O)[C@H](N)CC(C)c2ccccc2)CC1

>  <score_type>  (67) 
oracle

>  <origin>  (67) 
autodockgpu

>  <m_score__min__energy>  (67) 
-8.3599999999999994

>  <m_primary>  (67) 
energy

>  <rmsd>  (67) 
8.636828540115484

>  <m_score__min__rmsd>  (67) 
8.636828540115484

>  <meeko>  (67) 
{"free_energy": -7.84, "intermolecular_energy": -10.53, "internal_energy": -2.31, "cluster_size": 11, "cluster_id": 1, "rank_in_cluster": 8}

>  <energy>  (67) 
-7.38

>  <cluster_rmsd>  (67) 
1.74

>  <cluster>  (67) 
2

$$$$

     RDKit          3D

 63 65  0  0  0  0  0  0  0  0999 V2000
  138.8200   67.3910  222.7240 C   0  0  0  0  0  0  0  0  0  0  0  0
  138.3050   68.7660  222.3130 C   0  0  0  0  0  0  0  0  0  0  0  0
  138.1990   69.5750  223.5350 C   0  0  0  0  0  0  0  0  0  0  0  0
  137.1290   69.4190  224.2220 O   0  0  0  0  0  0  0  0  0  0  0  0
  139.1270   70.4990  224.0420 N   0  0  0  0  0  0  0  0  0  0  0  0
  139.6870   70.1560  225.3410 C   0  0  0  0  0  0  0  0  0  0  0  0
  140.1880   71.2070  226.0810 C   0  0  0  0  0  0  0  0  0  0  0  0
  140.7380   70.9590  227.3280 C   0  0  0  0  0  0  0  0  0  0  0  0
  140.7690   69.6620  227.8010 C   0  0  0  0  0  0  0  0  0  0  0  0
  140.2590   68.6230  227.0350 C   0  0  0  0  0  0  0  0  0  0  0  0
  139.7010   68.8480  225.7780 C   0  0  0  0  0  0  0  0  0  0  0  0
  139.5970   71.7020  223.4360 C   0  0  0  0  0  0  0  0  0  0  0  0
  141.0510   71.5130  223.0230 C   0  0  0  0  0  0  0  0  0  0  0  0
  141.2090   72.0750  221.6270 C   0  0  0  0  0  0  0  0  0  0  0  0
  140.6560   73.4350  221.5720 N   0  0  0  0  0  0  0  0  0  0  0  0
  141.5110   74.4620  221.0830 C   0  0  0  0  0  0  0  0  0  0  0  0
  142.6750   74.1320  220.7310 O   0  0  0  0  0  0  0  0  0  0  0  0
  141.1310   75.8740  220.9620 C   0  0  2  0  0  0  0  0  0  0  0  0
  142.1650   76.6760  220.3480 N   0  0  0  0  0  0  0  0  0  0  0  0
  140.5330   76.4760  222.1800 C   0  0  0  0  0  0  0  0  0  0  0  0
  139.6850   77.6570  222.0780 C   0  0  1  0  0  0  0  0  0  0  0  0
  138.3540   77.6730  222.7200 C   0  0  0  0  0  0  0  0  0  0  0  0
  140.4450   78.8000  222.7040 C   0  0  0  0  0  0  0  0  0  0  0  0
  141.8190   78.7000  222.6530 C   0  0  0  0  0  0  0  0  0  0  0  0
  142.6590   79.6720  223.1850 C   0  0  0  0  0  0  0  0  0  0  0  0
  142.0410   80.7580  223.7780 C   0  0  0  0  0  0  0  0  0  0  0  0
  140.6640   80.8570  223.8290 C   0  0  0  0  0  0  0  0  0  0  0  0
  139.8430   79.8660  223.2860 C   0  0  0  0  0  0  0  0  0  0  0  0
  139.3040   73.6470  222.0080 C   0  0  0  0  0  0  0  0  0  0  0  0
  138.7460   72.2460  222.3350 C   0  0  0  0  0  0  0  0  0  0  0  0
  138.8458   67.3221  223.8215 H   0  0  0  0  0  0  0  0  0  0  0  0
  138.1518   66.6144  222.3235 H   0  0  0  0  0  0  0  0  0  0  0  0
  139.8340   67.2445  222.3235 H   0  0  0  0  0  0  0  0  0  0  0  0
  139.0077   69.2366  221.6096 H   0  0  0  0  0  0  0  0  0  0  0  0
  137.3281   68.6833  221.8143 H   0  0  0  0  0  0  0  0  0  0  0  0
  140.1511   72.2324  225.6845 H   0  0  0  0  0  0  0  0  0  0  0  0
  141.1442   71.7833  227.9326 H   0  0  0  0  0  0  0  0  0  0  0  0
  141.2004   69.4511  228.7906 H   0  0  0  0  0  0  0  0  0  0  0  0
  140.2962   67.5969  227.4297 H   0  0  0  0  0  0  0  0  0  0  0  0
  139.2943   68.0278  225.1682 H   0  0  0  0  0  0  0  0  0  0  0  0
  139.5244   72.4911  224.1990 H   0  0  0  0  0  0  0  0  0  0  0  0
  141.7113   72.0498  223.7200 H   0  0  0  0  0  0  0  0  0  0  0  0
  141.3217   70.4470  223.0423 H   0  0  0  0  0  0  0  0  0  0  0  0
  142.2767   72.1041  221.3638 H   0  0  0  0  0  0  0  0  0  0  0  0
  140.6687   71.4344  220.9145 H   0  0  0  0  0  0  0  0  0  0  0  0
  140.2874   75.8769  220.2561 H   0  0  0  0  0  0  0  0  0  0  0  0
  143.1130   76.3330  220.4990 H   0  0  0  0  0  0  0  0  0  0  0  0
  141.9300   77.1120  219.4570 H   0  0  0  0  0  0  0  0  0  0  0  0
  139.9257   75.6912  222.6545 H   0  0  0  0  0  0  0  0  0  0  0  0
  141.4102   76.8464  222.7308 H   0  0  0  0  0  0  0  0  0  0  0  0
  139.4683   77.7060  221.0007 H   0  0  0  0  0  0  0  0  0  0  0  0
  138.4743   77.6716  223.8134 H   0  0  0  0  0  0  0  0  0  0  0  0
  137.8093   78.5778  222.4122 H   0  0  0  0  0  0  0  0  0  0  0  0
  137.7877   76.7816  222.4122 H   0  0  0  0  0  0  0  0  0  0  0  0
  142.2679   77.8178  222.1732 H   0  0  0  0  0  0  0  0  0  0  0  0
  143.7543   79.5822  223.1369 H   0  0  0  0  0  0  0  0  0  0  0  0
  142.6568   81.5570  224.2167 H   0  0  0  0  0  0  0  0  0  0  0  0
  140.2045   81.7346  224.3072 H   0  0  0  0  0  0  0  0  0  0  0  0
  138.7469   79.9477  223.3291 H   0  0  0  0  0  0  0  0  0  0  0  0
  139.2855   74.2858  222.9033 H   0  0  0  0  0  0  0  0  0  0  0  0
  138.7038   74.1534  221.2377 H   0  0  0  0  0  0  0  0  0  0  0  0
  137.6990   72.3203  222.6642 H   0  0  0  0  0  0  0  0  0  0  0  0
  138.7681   71.5908  221.4517 H   0  0  0  0  0  0  0  0  0  0  0  0
  1  2  1  0
  2  3  1  0
  3  4  2  0
  3  5  1  0
  5  6  1  0
  6  7  2  0
  7  8  1  0
  8  9  2  0
  9 10  1  0
 10 11  2  0
  5 12  1  0
 12 13  1  0
 13 14  1  0
 14 15  1  0
 15 16  1  0
 16 17  2  0
 16 18  1  0
 18 19  1  0
 18 20  1  0
 20 21  1  0
 21 22  1  0
 21 23  1  0
 23 24  2  0
 24 25  1  0
 25 26  2  0
 26 27  1  0
 27 28  2  0
 15 29  1  0
 29 30  1  0
 11  6  1  0
 30 12  1  0
 28 23  1  0
  1 31  1  0
  1 32  1  0
  1 33  1  0
  2 34  1  0
  2 35  1  0
  7 36  1  0
  8 37  1  0
  9 38  1  0
 10 39  1  0
 11 40  1  0
 12 41  1  0
 13 42  1  0
 13 43  1  0
 14 44  1  0
 14 45  1  0
 18 46  1  6
 19 47  1  0
 19 48  1  0
 20 49  1  0
 20 50  1  0
 21 51  1  6
 22 52  1  0
 22 53  1  0
 22 54  1  0
 24 55  1  0
 25 56  1  0
 26 57  1  0
 27 58  1  0
 28 59  1  0
 29 60  1  0
 29 61  1  0
 30 62  1  0
 30 63  1  0
M  END
>  <smiles>  (68) 
CCC(=O)N(c1ccccc1)C1CCN(C(=O)[C@H](N)CC(C)c2ccccc2)CC1

>  <score_type>  (68) 
oracle

>  <origin>  (68) 
autodockgpu

>  <m_score__min__energy>  (68) 
-8.3599999999999994

>  <m_primary>  (68) 
energy

>  <rmsd>  (68) 
6.712277224614932

>  <m_score__min__rmsd>  (68) 
6.712277224614932

>  <meeko>  (68) 
{"free_energy": -7.66, "intermolecular_energy": -10.34, "internal_energy": -2.28, "cluster_size": 18, "cluster_id": 3, "rank_in_cluster": 8}

>  <energy>  (68) 
-7.37

>  <cluster_rmsd>  (68) 
1.76

>  <cluster>  (68) 
2

$$$$

     RDKit          3D

 63 65  0  0  0  0  0  0  0  0999 V2000
  136.1620   80.3050  222.1930 C   0  0  0  0  0  0  0  0  0  0  0  0
  137.1730   79.2660  221.7180 C   0  0  0  0  0  0  0  0  0  0  0  0
  138.1770   79.1200  222.7790 C   0  0  0  0  0  0  0  0  0  0  0  0
  137.9450   79.7570  223.8660 O   0  0  0  0  0  0  0  0  0  0  0  0
  139.3630   78.3680  222.7480 N   0  0  0  0  0  0  0  0  0  0  0  0
  140.5880   79.1510  222.8090 C   0  0  0  0  0  0  0  0  0  0  0  0
  140.8110   80.0100  221.7530 C   0  0  0  0  0  0  0  0  0  0  0  0
  141.9560   80.7890  221.7410 C   0  0  0  0  0  0  0  0  0  0  0  0
  142.8490   80.6850  222.7900 C   0  0  0  0  0  0  0  0  0  0  0  0
  142.6000   79.8110  223.8390 C   0  0  0  0  0  0  0  0  0  0  0  0
  141.4550   79.0180  223.8740 C   0  0  0  0  0  0  0  0  0  0  0  0
  139.5080   76.9500  222.6910 C   0  0  0  0  0  0  0  0  0  0  0  0
  138.1270   76.3090  222.6940 C   0  0  0  0  0  0  0  0  0  0  0  0
  138.1200   75.2250  221.6390 C   0  0  0  0  0  0  0  0  0  0  0  0
  139.2810   74.3430  221.8220 N   0  0  0  0  0  0  0  0  0  0  0  0
  139.0220   72.9480  221.9350 C   0  0  0  0  0  0  0  0  0  0  0  0
  137.8220   72.5710  221.8650 O   0  0  0  0  0  0  0  0  0  0  0  0
  140.0550   71.9230  222.1250 C   0  0  2  0  0  0  0  0  0  0  0  0
  139.8190   70.7430  221.3230 N   0  0  0  0  0  0  0  0  0  0  0  0
  140.4160   71.6420  223.5360 C   0  0  0  0  0  0  0  0  0  0  0  0
  139.5090   70.8850  224.3900 C   0  0  1  0  0  0  0  0  0  0  0  0
  139.2140   69.4680  224.0880 C   0  0  0  0  0  0  0  0  0  0  0  0
  140.1090   70.8820  225.7750 C   0  0  0  0  0  0  0  0  0  0  0  0
  139.8170   69.7780  226.5480 C   0  0  0  0  0  0  0  0  0  0  0  0
  140.2950   69.6270  227.8450 C   0  0  0  0  0  0  0  0  0  0  0  0
  141.0880   70.6520  228.3290 C   0  0  0  0  0  0  0  0  0  0  0  0
  141.3800   71.7570  227.5530 C   0  0  0  0  0  0  0  0  0  0  0  0
  140.8870   71.8840  226.2530 C   0  0  0  0  0  0  0  0  0  0  0  0
  140.5900   74.9310  221.8760 C   0  0  0  0  0  0  0  0  0  0  0  0
  140.3860   76.4340  221.5960 C   0  0  0  0  0  0  0  0  0  0  0  0
  136.1442   80.3233  223.2927 H   0  0  0  0  0  0  0  0  0  0  0  0
  136.4501   81.2968  221.8144 H   0  0  0  0  0  0  0  0  0  0  0  0
  135.1627   80.0441  221.8144 H   0  0  0  0  0  0  0  0  0  0  0  0
  136.6697   78.3041  221.5405 H   0  0  0  0  0  0  0  0  0  0  0  0
  137.6441   79.5822  220.7756 H   0  0  0  0  0  0  0  0  0  0  0  0
  140.0862   80.0757  220.9282 H   0  0  0  0  0  0  0  0  0  0  0  0
  142.1516   81.4806  220.9082 H   0  0  0  0  0  0  0  0  0  0  0  0
  143.7622   81.2982  222.7938 H   0  0  0  0  0  0  0  0  0  0  0  0
  143.3249   79.7427  224.6635 H   0  0  0  0  0  0  0  0  0  0  0  0
  141.2536   78.3248  224.7040 H   0  0  0  0  0  0  0  0  0  0  0  0
  140.0598   76.6516  223.5946 H   0  0  0  0  0  0  0  0  0  0  0  0
  137.9193   75.8717  223.6817 H   0  0  0  0  0  0  0  0  0  0  0  0
  137.3532   77.0607  222.4788 H   0  0  0  0  0  0  0  0  0  0  0  0
  137.1959   74.6350  221.7281 H   0  0  0  0  0  0  0  0  0  0  0  0
  138.1701   75.6884  220.6426 H   0  0  0  0  0  0  0  0  0  0  0  0
  140.9762   72.3764  221.7303 H   0  0  0  0  0  0  0  0  0  0  0  0
  138.8670   70.6550  220.9700 H   0  0  0  0  0  0  0  0  0  0  0  0
  140.5960   70.4270  220.7450 H   0  0  0  0  0  0  0  0  0  0  0  0
  141.3664   71.0885  223.5150 H   0  0  0  0  0  0  0  0  0  0  0  0
  140.4179   72.6407  223.9970 H   0  0  0  0  0  0  0  0  0  0  0  0
  138.5492   71.4012  224.2408 H   0  0  0  0  0  0  0  0  0  0  0  0
  139.0977   68.9092  225.0283 H   0  0  0  0  0  0  0  0  0  0  0  0
  138.2831   69.4033  223.5055 H   0  0  0  0  0  0  0  0  0  0  0  0
  140.0417   69.0372  223.5055 H   0  0  0  0  0  0  0  0  0  0  0  0
  139.1820   68.9870  226.1225 H   0  0  0  0  0  0  0  0  0  0  0  0
  140.0559   68.7417  228.4525 H   0  0  0  0  0  0  0  0  0  0  0  0
  141.4931   70.5860  229.3495 H   0  0  0  0  0  0  0  0  0  0  0  0
  142.0145   72.5538  227.9682 H   0  0  0  0  0  0  0  0  0  0  0  0
  141.1215   72.7657  225.6385 H   0  0  0  0  0  0  0  0  0  0  0  0
  141.0357   74.7835  222.8708 H   0  0  0  0  0  0  0  0  0  0  0  0
  141.2714   74.4713  221.1450 H   0  0  0  0  0  0  0  0  0  0  0  0
  141.3533   76.9577  221.6048 H   0  0  0  0  0  0  0  0  0  0  0  0
  139.9311   76.5983  220.6080 H   0  0  0  0  0  0  0  0  0  0  0  0
  1  2  1  0
  2  3  1  0
  3  4  2  0
  3  5  1  0
  5  6  1  0
  6  7  2  0
  7  8  1  0
  8  9  2  0
  9 10  1  0
 10 11  2  0
  5 12  1  0
 12 13  1  0
 13 14  1  0
 14 15  1  0
 15 16  1  0
 16 17  2  0
 16 18  1  0
 18 19  1  0
 18 20  1  0
 20 21  1  0
 21 22  1  0
 21 23  1  0
 23 24  2  0
 24 25  1  0
 25 26  2  0
 26 27  1  0
 27 28  2  0
 15 29  1  0
 29 30  1  0
 11  6  1  0
 30 12  1  0
 28 23  1  0
  1 31  1  0
  1 32  1  0
  1 33  1  0
  2 34  1  0
  2 35  1  0
  7 36  1  0
  8 37  1  0
  9 38  1  0
 10 39  1  0
 11 40  1  0
 12 41  1  0
 13 42  1  0
 13 43  1  0
 14 44  1  0
 14 45  1  0
 18 46  1  6
 19 47  1  0
 19 48  1  0
 20 49  1  0
 20 50  1  0
 21 51  1  1
 22 52  1  0
 22 53  1  0
 22 54  1  0
 24 55  1  0
 25 56  1  0
 26 57  1  0
 27 58  1  0
 28 59  1  0
 29 60  1  0
 29 61  1  0
 30 62  1  0
 30 63  1  0
M  END
>  <smiles>  (69) 
CCC(=O)N(c1ccccc1)C1CCN(C(=O)[C@H](N)CC(C)c2ccccc2)CC1

>  <score_type>  (69) 
oracle

>  <origin>  (69) 
autodockgpu

>  <m_score__min__energy>  (69) 
-8.3599999999999994

>  <m_primary>  (69) 
energy

>  <rmsd>  (69) 
6.810418303845498

>  <m_score__min__rmsd>  (69) 
6.810418303845498

>  <meeko>  (69) 
{"free_energy": -7.36, "intermolecular_energy": -10.04, "internal_energy": -2.18, "cluster_size": 8, "cluster_id": 4, "rank_in_cluster": 5}

>  <energy>  (69) 
-7.81

>  <cluster_rmsd>  (69) 
0.0

>  <cluster>  (69) 
3

$$$$

     RDKit          3D

 63 65  0  0  0  0  0  0  0  0999 V2000
  145.6380   73.6200  216.5970 C   0  0  0  0  0  0  0  0  0  0  0  0
  145.0300   72.2340  216.7800 C   0  0  0  0  0  0  0  0  0  0  0  0
  145.1750   71.8780  218.1980 C   0  0  0  0  0  0  0  0  0  0  0  0
  145.9550   72.6240  218.8880 O   0  0  0  0  0  0  0  0  0  0  0  0
  144.5660   70.8190  218.8890 N   0  0  0  0  0  0  0  0  0  0  0  0
  145.1670   69.5120  218.6640 C   0  0  0  0  0  0  0  0  0  0  0  0
  145.1100   68.6290  219.7220 C   0  0  0  0  0  0  0  0  0  0  0  0
  145.6600   67.3660  219.5830 C   0  0  0  0  0  0  0  0  0  0  0  0
  146.2530   67.0210  218.3840 C   0  0  0  0  0  0  0  0  0  0  0  0
  146.2980   67.9300  217.3360 C   0  0  0  0  0  0  0  0  0  0  0  0
  145.7510   69.2060  217.4520 C   0  0  0  0  0  0  0  0  0  0  0  0
  143.4610   70.8720  219.7910 C   0  0  0  0  0  0  0  0  0  0  0  0
  143.4870   72.2040  220.5290 C   0  0  0  0  0  0  0  0  0  0  0  0
  142.0770   72.7500  220.5400 C   0  0  0  0  0  0  0  0  0  0  0  0
  141.1460   71.7210  221.0230 N   0  0  0  0  0  0  0  0  0  0  0  0
  140.3020   72.0730  222.1150 C   0  0  0  0  0  0  0  0  0  0  0  0
  140.4100   73.2380  222.5820 O   0  0  0  0  0  0  0  0  0  0  0  0
  139.3180   71.1740  222.7280 C   0  0  2  0  0  0  0  0  0  0  0  0
  138.1330   71.8710  223.1730 N   0  0  0  0  0  0  0  0  0  0  0  0
  139.8690   70.2120  223.7150 C   0  0  0  0  0  0  0  0  0  0  0  0
  139.0990   69.8510  224.8990 C   0  0  1  0  0  0  0  0  0  0  0  0
  138.8720   68.4280  225.2310 C   0  0  0  0  0  0  0  0  0  0  0  0
  139.8250   70.4280  226.0890 C   0  0  0  0  0  0  0  0  0  0  0  0
  140.6340   71.5120  225.8250 C   0  0  0  0  0  0  0  0  0  0  0  0
  141.3670   72.1560  226.8150 C   0  0  0  0  0  0  0  0  0  0  0  0
  141.2460   71.6480  228.0950 C   0  0  0  0  0  0  0  0  0  0  0  0
  140.4350   70.5610  228.3600 C   0  0  0  0  0  0  0  0  0  0  0  0
  139.7080   69.9320  227.3460 C   0  0  0  0  0  0  0  0  0  0  0  0
  141.1430   70.4380  220.3770 C   0  0  0  0  0  0  0  0  0  0  0  0
  142.1260   70.5630  219.1950 C   0  0  0  0  0  0  0  0  0  0  0  0
  145.8342   74.0674  217.5826 H   0  0  0  0  0  0  0  0  0  0  0  0
  146.5817   73.5356  216.0382 H   0  0  0  0  0  0  0  0  0  0  0  0
  144.9367   74.2572  216.0382 H   0  0  0  0  0  0  0  0  0  0  0  0
  143.9656   72.2501  216.5027 H   0  0  0  0  0  0  0  0  0  0  0  0
  145.5378   71.4979  216.1394 H   0  0  0  0  0  0  0  0  0  0  0  0
  144.6321   68.9254  220.6674 H   0  0  0  0  0  0  0  0  0  0  0  0
  145.6253   66.6476  220.4153 H   0  0  0  0  0  0  0  0  0  0  0  0
  146.6921   66.0202  218.2591 H   0  0  0  0  0  0  0  0  0  0  0  0
  146.7773   67.6356  216.3907 H   0  0  0  0  0  0  0  0  0  0  0  0
  145.7829   69.9291  216.6237 H   0  0  0  0  0  0  0  0  0  0  0  0
  143.5947   70.0467  220.5058 H   0  0  0  0  0  0  0  0  0  0  0  0
  143.8390   72.0543  221.5604 H   0  0  0  0  0  0  0  0  0  0  0  0
  144.1693   72.9080  220.0302 H   0  0  0  0  0  0  0  0  0  0  0  0
  142.0300   73.6253  221.2046 H   0  0  0  0  0  0  0  0  0  0  0  0
  141.7943   73.0433  219.5182 H   0  0  0  0  0  0  0  0  0  0  0  0
  138.9910   70.5152  221.9100 H   0  0  0  0  0  0  0  0  0  0  0  0
  138.2390   72.8820  223.2480 H   0  0  0  0  0  0  0  0  0  0  0  0
  137.2400   71.4850  222.8680 H   0  0  0  0  0  0  0  0  0  0  0  0
  140.0665   69.2775  223.1693 H   0  0  0  0  0  0  0  0  0  0  0  0
  140.7322   70.7505  224.1333 H   0  0  0  0  0  0  0  0  0  0  0  0
  138.0973   70.2398  224.6637 H   0  0  0  0  0  0  0  0  0  0  0  0
  138.8524   68.3051  226.3239 H   0  0  0  0  0  0  0  0  0  0  0  0
  137.9104   68.1017  224.8080 H   0  0  0  0  0  0  0  0  0  0  0  0
  139.6843   67.8187  224.8080 H   0  0  0  0  0  0  0  0  0  0  0  0
  140.7023   71.8817  224.7913 H   0  0  0  0  0  0  0  0  0  0  0  0
  142.0078   73.0219  226.5923 H   0  0  0  0  0  0  0  0  0  0  0  0
  141.8055   72.1176  228.9175 H   0  0  0  0  0  0  0  0  0  0  0  0
  140.3602   70.1831  229.3904 H   0  0  0  0  0  0  0  0  0  0  0  0
  139.0641   69.0660  227.5594 H   0  0  0  0  0  0  0  0  0  0  0  0
  141.4794   69.6567  221.0745 H   0  0  0  0  0  0  0  0  0  0  0  0
  140.1350   70.1565  220.0384 H   0  0  0  0  0  0  0  0  0  0  0  0
  142.1690   69.6180  218.6337 H   0  0  0  0  0  0  0  0  0  0  0  0
  141.8098   71.3488  218.4933 H   0  0  0  0  0  0  0  0  0  0  0  0
  1  2  1  0
  2  3  1  0
  3  4  2  0
  3  5  1  0
  5  6  1  0
  6  7  2  0
  7  8  1  0
  8  9  2  0
  9 10  1  0
 10 11  2  0
  5 12  1  0
 12 13  1  0
 13 14  1  0
 14 15  1  0
 15 16  1  0
 16 17  2  0
 16 18  1  0
 18 19  1  0
 18 20  1  0
 20 21  1  0
 21 22  1  0
 21 23  1  0
 23 24  2  0
 24 25  1  0
 25 26  2  0
 26 27  1  0
 27 28  2  0
 15 29  1  0
 29 30  1  0
 11  6  1  0
 30 12  1  0
 28 23  1  0
  1 31  1  0
  1 32  1  0
  1 33  1  0
  2 34  1  0
  2 35  1  0
  7 36  1  0
  8 37  1  0
  9 38  1  0
 10 39  1  0
 11 40  1  0
 12 41  1  0
 13 42  1  0
 13 43  1  0
 14 44  1  0
 14 45  1  0
 18 46  1  6
 19 47  1  0
 19 48  1  0
 20 49  1  0
 20 50  1  0
 21 51  1  6
 22 52  1  0
 22 53  1  0
 22 54  1  0
 24 55  1  0
 25 56  1  0
 26 57  1  0
 27 58  1  0
 28 59  1  0
 29 60  1  0
 29 61  1  0
 30 62  1  0
 30 63  1  0
M  END
>  <smiles>  (70) 
CCC(=O)N(c1ccccc1)C1CCN(C(=O)[C@H](N)CC(C)c2ccccc2)CC1

>  <score_type>  (70) 
oracle

>  <origin>  (70) 
autodockgpu

>  <m_score__min__energy>  (70) 
-8.3599999999999994

>  <m_primary>  (70) 
energy

>  <rmsd>  (70) 
9.121099443036314

>  <m_score__min__rmsd>  (70) 
9.121099443036314

>  <meeko>  (70) 
{"free_energy": -8.14, "intermolecular_energy": -10.82, "internal_energy": -2.27, "cluster_size": 11, "cluster_id": 1, "rank_in_cluster": 5}

>  <energy>  (70) 
-7.71

>  <cluster_rmsd>  (70) 
0.77

>  <cluster>  (70) 
3

$$$$

     RDKit          3D

 63 65  0  0  0  0  0  0  0  0999 V2000
  138.1770   80.1550  224.1540 C   0  0  0  0  0  0  0  0  0  0  0  0
  138.0710   80.3480  222.6450 C   0  0  0  0  0  0  0  0  0  0  0  0
  138.5000   79.0930  222.0140 C   0  0  0  0  0  0  0  0  0  0  0  0
  137.7280   78.6280  221.1040 O   0  0  0  0  0  0  0  0  0  0  0  0
  139.6510   78.3380  222.2880 N   0  0  0  0  0  0  0  0  0  0  0  0
  140.8470   79.1200  222.5680 C   0  0  0  0  0  0  0  0  0  0  0  0
  141.3240   79.0550  223.8600 C   0  0  0  0  0  0  0  0  0  0  0  0
  142.4590   79.7730  224.2020 C   0  0  0  0  0  0  0  0  0  0  0  0
  143.0850   80.5370  223.2370 C   0  0  0  0  0  0  0  0  0  0  0  0
  142.5820   80.5840  221.9440 C   0  0  0  0  0  0  0  0  0  0  0  0
  141.4430   79.8720  221.5770 C   0  0  0  0  0  0  0  0  0  0  0  0
  139.7830   76.9180  222.3490 C   0  0  0  0  0  0  0  0  0  0  0  0
  138.4140   76.3030  222.6060 C   0  0  0  0  0  0  0  0  0  0  0  0
  138.2570   75.1240  221.6730 C   0  0  0  0  0  0  0  0  0  0  0  0
  139.4300   74.2450  221.7780 N   0  0  0  0  0  0  0  0  0  0  0  0
  139.1850   72.8710  222.0610 C   0  0  0  0  0  0  0  0  0  0  0  0
  137.9860   72.5090  222.1950 O   0  0  0  0  0  0  0  0  0  0  0  0
  140.2320   71.8530  222.2040 C   0  0  2  0  0  0  0  0  0  0  0  0
  140.0450   70.7360  221.3050 N   0  0  0  0  0  0  0  0  0  0  0  0
  140.5530   71.4670  223.6010 C   0  0  0  0  0  0  0  0  0  0  0  0
  139.5720   70.7560  224.4120 C   0  0  1  0  0  0  0  0  0  0  0  0
  139.2680   69.3370  224.1340 C   0  0  0  0  0  0  0  0  0  0  0  0
  140.0720   70.7870  225.8350 C   0  0  0  0  0  0  0  0  0  0  0  0
  140.8740   71.8600  226.1610 C   0  0  0  0  0  0  0  0  0  0  0  0
  141.4120   72.0300  227.4320 C   0  0  0  0  0  0  0  0  0  0  0  0
  141.1010   71.0570  228.3650 C   0  0  0  0  0  0  0  0  0  0  0  0
  140.2980   69.9820  228.0370 C   0  0  0  0  0  0  0  0  0  0  0  0
  139.7700   69.8350  226.7520 C   0  0  0  0  0  0  0  0  0  0  0  0
  140.7360   74.8140  221.5930 C   0  0  0  0  0  0  0  0  0  0  0  0
  140.4980   76.2860  221.1990 C   0  0  0  0  0  0  0  0  0  0  0  0
  137.7085   81.0081  224.6666 H   0  0  0  0  0  0  0  0  0  0  0  0
  137.6623   79.2265  224.4420 H   0  0  0  0  0  0  0  0  0  0  0  0
  139.2367   80.0912  224.4420 H   0  0  0  0  0  0  0  0  0  0  0  0
  137.0310   80.5734  222.3663 H   0  0  0  0  0  0  0  0  0  0  0  0
  138.7016   81.1863  222.3139 H   0  0  0  0  0  0  0  0  0  0  0  0
  140.8088   78.4393  224.6119 H   0  0  0  0  0  0  0  0  0  0  0  0
  142.8555   79.7348  225.2274 H   0  0  0  0  0  0  0  0  0  0  0  0
  143.9871   81.1115  223.4942 H   0  0  0  0  0  0  0  0  0  0  0  0
  143.0960   81.1990  221.1906 H   0  0  0  0  0  0  0  0  0  0  0  0
  141.0409   79.9073  220.5537 H   0  0  0  0  0  0  0  0  0  0  0  0
  140.4549   76.6980  223.1917 H   0  0  0  0  0  0  0  0  0  0  0  0
  138.3450   75.9657  223.6507 H   0  0  0  0  0  0  0  0  0  0  0  0
  137.6198   77.0431  222.4284 H   0  0  0  0  0  0  0  0  0  0  0  0
  137.3528   74.5602  221.9462 H   0  0  0  0  0  0  0  0  0  0  0  0
  138.1686   75.4889  220.6391 H   0  0  0  0  0  0  0  0  0  0  0  0
  141.1559   72.3524  221.8768 H   0  0  0  0  0  0  0  0  0  0  0  0
  139.0880   70.6110  220.9780 H   0  0  0  0  0  0  0  0  0  0  0  0
  140.8180   70.5300  220.6740 H   0  0  0  0  0  0  0  0  0  0  0  0
  141.4474   70.8283  223.5548 H   0  0  0  0  0  0  0  0  0  0  0  0
  140.6442   72.4364  224.1129 H   0  0  0  0  0  0  0  0  0  0  0  0
  138.6365   71.2857  224.1791 H   0  0  0  0  0  0  0  0  0  0  0  0
  139.1517   68.7941  225.0836 H   0  0  0  0  0  0  0  0  0  0  0  0
  138.3348   69.2684  223.5557 H   0  0  0  0  0  0  0  0  0  0  0  0
  140.0912   68.8921  223.5557 H   0  0  0  0  0  0  0  0  0  0  0  0
  141.0965   72.6094  225.3871 H   0  0  0  0  0  0  0  0  0  0  0  0
  142.0498   72.8907  227.6818 H   0  0  0  0  0  0  0  0  0  0  0  0
  141.5004   71.1409  229.3865 H   0  0  0  0  0  0  0  0  0  0  0  0
  140.0697   69.2264  228.8031 H   0  0  0  0  0  0  0  0  0  0  0  0
  139.1318   68.9772  226.4933 H   0  0  0  0  0  0  0  0  0  0  0  0
  141.3155   74.7556  222.5262 H   0  0  0  0  0  0  0  0  0  0  0  0
  141.3083   74.2752  220.8235 H   0  0  0  0  0  0  0  0  0  0  0  0
  141.4581   76.7930  221.0225 H   0  0  0  0  0  0  0  0  0  0  0  0
  139.9100   76.3617  220.2725 H   0  0  0  0  0  0  0  0  0  0  0  0
  1  2  1  0
  2  3  1  0
  3  4  2  0
  3  5  1  0
  5  6  1  0
  6  7  2  0
  7  8  1  0
  8  9  2  0
  9 10  1  0
 10 11  2  0
  5 12  1  0
 12 13  1  0
 13 14  1  0
 14 15  1  0
 15 16  1  0
 16 17  2  0
 16 18  1  0
 18 19  1  0
 18 20  1  0
 20 21  1  0
 21 22  1  0
 21 23  1  0
 23 24  2  0
 24 25  1  0
 25 26  2  0
 26 27  1  0
 27 28  2  0
 15 29  1  0
 29 30  1  0
 11  6  1  0
 30 12  1  0
 28 23  1  0
  1 31  1  0
  1 32  1  0
  1 33  1  0
  2 34  1  0
  2 35  1  0
  7 36  1  0
  8 37  1  0
  9 38  1  0
 10 39  1  0
 11 40  1  0
 12 41  1  0
 13 42  1  0
 13 43  1  0
 14 44  1  0
 14 45  1  0
 18 46  1  6
 19 47  1  0
 19 48  1  0
 20 49  1  0
 20 50  1  0
 21 51  1  1
 22 52  1  0
 22 53  1  0
 22 54  1  0
 24 55  1  0
 25 56  1  0
 26 57  1  0
 27 58  1  0
 28 59  1  0
 29 60  1  0
 29 61  1  0
 30 62  1  0
 30 63  1  0
M  END
>  <smiles>  (71) 
CCC(=O)N(c1ccccc1)C1CCN(C(=O)[C@H](N)CC(C)c2ccccc2)CC1

>  <score_type>  (71) 
oracle

>  <origin>  (71) 
autodockgpu

>  <m_score__min__energy>  (71) 
-8.3599999999999994

>  <m_primary>  (71) 
energy

>  <rmsd>  (71) 
6.860168783748486

>  <m_score__min__rmsd>  (71) 
6.860168783748486

>  <meeko>  (71) 
{"free_energy": -7.74, "intermolecular_energy": -10.42, "internal_energy": -2.07, "cluster_size": 8, "cluster_id": 4, "rank_in_cluster": 1}

>  <energy>  (71) 
-7.71

>  <cluster_rmsd>  (71) 
0.65

>  <cluster>  (71) 
3

$$$$

     RDKit          3D

 63 65  0  0  0  0  0  0  0  0999 V2000
  138.3120   80.8070  223.9690 C   0  0  0  0  0  0  0  0  0  0  0  0
  137.4960   79.6420  223.4200 C   0  0  0  0  0  0  0  0  0  0  0  0
  138.2850   79.0240  222.3470 C   0  0  0  0  0  0  0  0  0  0  0  0
  137.8510   79.2010  221.1540 O   0  0  0  0  0  0  0  0  0  0  0  0
  139.4580   78.2610  222.4670 N   0  0  0  0  0  0  0  0  0  0  0  0
  140.6800   79.0340  222.6330 C   0  0  0  0  0  0  0  0  0  0  0  0
  141.0880   79.7660  221.5370 C   0  0  0  0  0  0  0  0  0  0  0  0
  142.2420   80.5270  221.6200 C   0  0  0  0  0  0  0  0  0  0  0  0
  142.9570   80.5350  222.8020 C   0  0  0  0  0  0  0  0  0  0  0  0
  142.5230   79.7880  223.8890 C   0  0  0  0  0  0  0  0  0  0  0  0
  141.3660   79.0150  223.8300 C   0  0  0  0  0  0  0  0  0  0  0  0
  139.5900   76.8400  222.4710 C   0  0  0  0  0  0  0  0  0  0  0  0
  138.2050   76.2130  222.3990 C   0  0  0  0  0  0  0  0  0  0  0  0
  138.2600   75.0910  221.3860 C   0  0  0  0  0  0  0  0  0  0  0  0
  139.3940   74.2060  221.6820 N   0  0  0  0  0  0  0  0  0  0  0  0
  139.1120   72.8180  221.8270 C   0  0  0  0  0  0  0  0  0  0  0  0
  137.9150   72.4500  221.6860 O   0  0  0  0  0  0  0  0  0  0  0  0
  140.1170   71.7920  222.1260 C   0  0  2  0  0  0  0  0  0  0  0  0
  139.9060   70.5750  221.3740 N   0  0  0  0  0  0  0  0  0  0  0  0
  140.3960   71.5800  223.5670 C   0  0  0  0  0  0  0  0  0  0  0  0
  139.4580   70.8340  224.3970 C   0  0  1  0  0  0  0  0  0  0  0  0
  139.1730   69.4140  224.1000 C   0  0  0  0  0  0  0  0  0  0  0  0
  140.0070   70.8450  225.8020 C   0  0  0  0  0  0  0  0  0  0  0  0
  140.8090   71.9210  226.1190 C   0  0  0  0  0  0  0  0  0  0  0  0
  141.3890   72.0760  227.3730 C   0  0  0  0  0  0  0  0  0  0  0  0
  141.1210   71.0850  228.2990 C   0  0  0  0  0  0  0  0  0  0  0  0
  140.3180   70.0070  227.9810 C   0  0  0  0  0  0  0  0  0  0  0  0
  139.7460   69.8750  226.7130 C   0  0  0  0  0  0  0  0  0  0  0  0
  140.7030   74.7840  221.8080 C   0  0  0  0  0  0  0  0  0  0  0  0
  140.5370   76.2770  221.4600 C   0  0  0  0  0  0  0  0  0  0  0  0
  138.2940   80.7813  225.0685 H   0  0  0  0  0  0  0  0  0  0  0  0
  139.3510   80.7249  223.6173 H   0  0  0  0  0  0  0  0  0  0  0  0
  137.8797   81.7554  223.6173 H   0  0  0  0  0  0  0  0  0  0  0  0
  137.3042   78.9082  224.2167 H   0  0  0  0  0  0  0  0  0  0  0  0
  136.5256   79.9919  223.0380 H   0  0  0  0  0  0  0  0  0  0  0  0
  140.5022   79.7453  220.6062 H   0  0  0  0  0  0  0  0  0  0  0  0
  142.5845   81.1168  220.7569 H   0  0  0  0  0  0  0  0  0  0  0  0
  143.8747   81.1361  222.8824 H   0  0  0  0  0  0  0  0  0  0  0  0
  143.1079   79.8072  224.8204 H   0  0  0  0  0  0  0  0  0  0  0  0
  141.0186   78.4226  224.6893 H   0  0  0  0  0  0  0  0  0  0  0  0
  140.0731   76.5688  223.4213 H   0  0  0  0  0  0  0  0  0  0  0  0
  137.9226   75.8144  223.3846 H   0  0  0  0  0  0  0  0  0  0  0  0
  137.4574   76.9634  222.1024 H   0  0  0  0  0  0  0  0  0  0  0  0
  137.3250   74.5132  221.4305 H   0  0  0  0  0  0  0  0  0  0  0  0
  138.3860   75.5172  220.3798 H   0  0  0  0  0  0  0  0  0  0  0  0
  141.0654   72.2127  221.7604 H   0  0  0  0  0  0  0  0  0  0  0  0
  140.3450   69.7470  221.7770 H   0  0  0  0  0  0  0  0  0  0  0  0
  139.0060   70.4830  220.9070 H   0  0  0  0  0  0  0  0  0  0  0  0
  141.3598   71.0533  223.6280 H   0  0  0  0  0  0  0  0  0  0  0  0
  140.3425   72.5968  223.9832 H   0  0  0  0  0  0  0  0  0  0  0  0
  138.5052   71.3503  224.2085 H   0  0  0  0  0  0  0  0  0  0  0  0
  139.0613   68.8576  225.0423 H   0  0  0  0  0  0  0  0  0  0  0  0
  138.2422   69.3407  223.5184 H   0  0  0  0  0  0  0  0  0  0  0  0
  140.0034   68.9872  223.5184 H   0  0  0  0  0  0  0  0  0  0  0  0
  140.9970   72.6855  225.3508 H   0  0  0  0  0  0  0  0  0  0  0  0
  142.0260   72.9395  227.6150 H   0  0  0  0  0  0  0  0  0  0  0  0
  141.5551   71.1563  229.3072 H   0  0  0  0  0  0  0  0  0  0  0  0
  140.1248   69.2364  228.7418 H   0  0  0  0  0  0  0  0  0  0  0  0
  139.1071   69.0153  226.4628 H   0  0  0  0  0  0  0  0  0  0  0  0
  141.0752   74.6693  222.8368 H   0  0  0  0  0  0  0  0  0  0  0  0
  141.4291   74.2915  221.1445 H   0  0  0  0  0  0  0  0  0  0  0  0
  141.5072   76.7920  221.5185 H   0  0  0  0  0  0  0  0  0  0  0  0
  140.1552   76.4093  220.4369 H   0  0  0  0  0  0  0  0  0  0  0  0
  1  2  1  0
  2  3  1  0
  3  4  2  0
  3  5  1  0
  5  6  1  0
  6  7  2  0
  7  8  1  0
  8  9  2  0
  9 10  1  0
 10 11  2  0
  5 12  1  0
 12 13  1  0
 13 14  1  0
 14 15  1  0
 15 16  1  0
 16 17  2  0
 16 18  1  0
 18 19  1  0
 18 20  1  0
 20 21  1  0
 21 22  1  0
 21 23  1  0
 23 24  2  0
 24 25  1  0
 25 26  2  0
 26 27  1  0
 27 28  2  0
 15 29  1  0
 29 30  1  0
 11  6  1  0
 30 12  1  0
 28 23  1  0
  1 31  1  0
  1 32  1  0
  1 33  1  0
  2 34  1  0
  2 35  1  0
  7 36  1  0
  8 37  1  0
  9 38  1  0
 10 39  1  0
 11 40  1  0
 12 41  1  0
 13 42  1  0
 13 43  1  0
 14 44  1  0
 14 45  1  0
 18 46  1  6
 19 47  1  0
 19 48  1  0
 20 49  1  0
 20 50  1  0
 21 51  1  1
 22 52  1  0
 22 53  1  0
 22 54  1  0
 24 55  1  0
 25 56  1  0
 26 57  1  0
 27 58  1  0
 28 59  1  0
 29 60  1  0
 29 61  1  0
 30 62  1  0
 30 63  1  0
M  END
>  <smiles>  (72) 
CCC(=O)N(c1ccccc1)C1CCN(C(=O)[C@H](N)CC(C)c2ccccc2)CC1

>  <score_type>  (72) 
oracle

>  <origin>  (72) 
autodockgpu

>  <m_score__min__energy>  (72) 
-8.3599999999999994

>  <m_primary>  (72) 
energy

>  <rmsd>  (72) 
6.859411038327704

>  <m_score__min__rmsd>  (72) 
6.859411038327704

>  <meeko>  (72) 
{"free_energy": -7.63, "intermolecular_energy": -10.32, "internal_energy": -2.24, "cluster_size": 8, "cluster_id": 4, "rank_in_cluster": 3}

>  <energy>  (72) 
-7.69

>  <cluster_rmsd>  (72) 
0.7

>  <cluster>  (72) 
3

$$$$

     RDKit          3D

 63 65  0  0  0  0  0  0  0  0999 V2000
  138.8070   67.4080  222.6940 C   0  0  0  0  0  0  0  0  0  0  0  0
  138.2400   68.7710  222.3120 C   0  0  0  0  0  0  0  0  0  0  0  0
  138.1590   69.5690  223.5420 C   0  0  0  0  0  0  0  0  0  0  0  0
  137.1010   69.4110  224.2470 O   0  0  0  0  0  0  0  0  0  0  0  0
  139.0980   70.4870  224.0390 N   0  0  0  0  0  0  0  0  0  0  0  0
  139.6890   70.1280  225.3200 C   0  0  0  0  0  0  0  0  0  0  0  0
  140.1570   71.1750  226.0860 C   0  0  0  0  0  0  0  0  0  0  0  0
  140.7320   70.9110  227.3180 C   0  0  0  0  0  0  0  0  0  0  0  0
  140.8220   69.6020  227.7500 C   0  0  0  0  0  0  0  0  0  0  0  0
  140.3440   68.5680  226.9580 C   0  0  0  0  0  0  0  0  0  0  0  0
  139.7610   68.8080  225.7160 C   0  0  0  0  0  0  0  0  0  0  0  0
  139.5540   71.6980  223.4380 C   0  0  0  0  0  0  0  0  0  0  0  0
  141.0230   71.5440  223.0660 C   0  0  0  0  0  0  0  0  0  0  0  0
  141.2060   72.1020  221.6720 C   0  0  0  0  0  0  0  0  0  0  0  0
  140.6190   73.4470  221.5920 N   0  0  0  0  0  0  0  0  0  0  0  0
  141.4610   74.4930  221.1200 C   0  0  0  0  0  0  0  0  0  0  0  0
  142.6430   74.1910  220.8020 O   0  0  0  0  0  0  0  0  0  0  0  0
  141.0480   75.8930  220.9790 C   0  0  2  0  0  0  0  0  0  0  0  0
  142.0680   76.7130  220.3620 N   0  0  0  0  0  0  0  0  0  0  0  0
  140.4260   76.4950  222.1840 C   0  0  0  0  0  0  0  0  0  0  0  0
  139.5940   77.6860  222.0670 C   0  0  1  0  0  0  0  0  0  0  0  0
  138.2710   77.7340  222.7240 C   0  0  0  0  0  0  0  0  0  0  0  0
  140.3760   78.8300  222.6610 C   0  0  0  0  0  0  0  0  0  0  0  0
  141.7160   78.5870  222.8780 C   0  0  0  0  0  0  0  0  0  0  0  0
  142.5700   79.5410  223.4180 C   0  0  0  0  0  0  0  0  0  0  0  0
  142.0040   80.7630  223.7330 C   0  0  0  0  0  0  0  0  0  0  0  0
  140.6610   81.0060  223.5160 C   0  0  0  0  0  0  0  0  0  0  0  0
  139.8240   80.0300  222.9720 C   0  0  0  0  0  0  0  0  0  0  0  0
  139.2500   73.6260  221.9890 C   0  0  0  0  0  0  0  0  0  0  0  0
  138.7200   72.2130  222.3100 C   0  0  0  0  0  0  0  0  0  0  0  0
  138.8436   67.3201  223.7899 H   0  0  0  0  0  0  0  0  0  0  0  0
  138.1640   66.6153  222.2838 H   0  0  0  0  0  0  0  0  0  0  0  0
  139.8225   67.3053  222.2838 H   0  0  0  0  0  0  0  0  0  0  0  0
  138.9026   69.2645  221.5858 H   0  0  0  0  0  0  0  0  0  0  0  0
  137.2475   68.6649  221.8498 H   0  0  0  0  0  0  0  0  0  0  0  0
  140.0744   72.2097  225.7220 H   0  0  0  0  0  0  0  0  0  0  0  0
  141.1117   71.7322  227.9437 H   0  0  0  0  0  0  0  0  0  0  0  0
  141.2751   69.3783  228.7271 H   0  0  0  0  0  0  0  0  0  0  0  0
  140.4275   67.5326  227.3200 H   0  0  0  0  0  0  0  0  0  0  0  0
  139.3793   67.9910  225.0860 H   0  0  0  0  0  0  0  0  0  0  0  0
  139.4406   72.4894  224.1935 H   0  0  0  0  0  0  0  0  0  0  0  0
  141.6500   72.1011  223.7777 H   0  0  0  0  0  0  0  0  0  0  0  0
  141.3195   70.4852  223.0989 H   0  0  0  0  0  0  0  0  0  0  0  0
  142.2796   72.1579  221.4393 H   0  0  0  0  0  0  0  0  0  0  0  0
  140.7032   71.4432  220.9487 H   0  0  0  0  0  0  0  0  0  0  0  0
  140.2098   75.8667  220.2671 H   0  0  0  0  0  0  0  0  0  0  0  0
  143.0190   76.3670  220.4830 H   0  0  0  0  0  0  0  0  0  0  0  0
  141.8120   77.1710  219.4900 H   0  0  0  0  0  0  0  0  0  0  0  0
  139.7980   75.7146  222.6385 H   0  0  0  0  0  0  0  0  0  0  0  0
  141.2928   76.8527  222.7590 H   0  0  0  0  0  0  0  0  0  0  0  0
  139.3664   77.7163  220.9912 H   0  0  0  0  0  0  0  0  0  0  0  0
  138.4035   77.7292  223.8160 H   0  0  0  0  0  0  0  0  0  0  0  0
  137.7450   78.6518  222.4225 H   0  0  0  0  0  0  0  0  0  0  0  0
  137.6798   76.8567  222.4225 H   0  0  0  0  0  0  0  0  0  0  0  0
  142.1244   77.6004  222.6136 H   0  0  0  0  0  0  0  0  0  0  0  0
  143.6376   79.3356  223.5857 H   0  0  0  0  0  0  0  0  0  0  0  0
  142.6338   81.5553  224.1638 H   0  0  0  0  0  0  0  0  0  0  0  0
  140.2426   81.9892  223.7774 H   0  0  0  0  0  0  0  0  0  0  0  0
  138.7552   80.2267  222.8016 H   0  0  0  0  0  0  0  0  0  0  0  0
  139.1898   74.2695  222.8791 H   0  0  0  0  0  0  0  0  0  0  0  0
  138.6584   74.1116  221.1989 H   0  0  0  0  0  0  0  0  0  0  0  0
  137.6627   72.2618  222.6095 H   0  0  0  0  0  0  0  0  0  0  0  0
  138.7839   71.5532  221.4321 H   0  0  0  0  0  0  0  0  0  0  0  0
  1  2  1  0
  2  3  1  0
  3  4  2  0
  3  5  1  0
  5  6  1  0
  6  7  2  0
  7  8  1  0
  8  9  2  0
  9 10  1  0
 10 11  2  0
  5 12  1  0
 12 13  1  0
 13 14  1  0
 14 15  1  0
 15 16  1  0
 16 17  2  0
 16 18  1  0
 18 19  1  0
 18 20  1  0
 20 21  1  0
 21 22  1  0
 21 23  1  0
 23 24  2  0
 24 25  1  0
 25 26  2  0
 26 27  1  0
 27 28  2  0
 15 29  1  0
 29 30  1  0
 11  6  1  0
 30 12  1  0
 28 23  1  0
  1 31  1  0
  1 32  1  0
  1 33  1  0
  2 34  1  0
  2 35  1  0
  7 36  1  0
  8 37  1  0
  9 38  1  0
 10 39  1  0
 11 40  1  0
 12 41  1  0
 13 42  1  0
 13 43  1  0
 14 44  1  0
 14 45  1  0
 18 46  1  6
 19 47  1  0
 19 48  1  0
 20 49  1  0
 20 50  1  0
 21 51  1  6
 22 52  1  0
 22 53  1  0
 22 54  1  0
 24 55  1  0
 25 56  1  0
 26 57  1  0
 27 58  1  0
 28 59  1  0
 29 60  1  0
 29 61  1  0
 30 62  1  0
 30 63  1  0
M  END
>  <smiles>  (73) 
CCC(=O)N(c1ccccc1)C1CCN(C(=O)[C@H](N)CC(C)c2ccccc2)CC1

>  <score_type>  (73) 
oracle

>  <origin>  (73) 
autodockgpu

>  <m_score__min__energy>  (73) 
-8.3599999999999994

>  <m_primary>  (73) 
energy

>  <rmsd>  (73) 
6.716724757458471

>  <m_score__min__rmsd>  (73) 
6.716724757458471

>  <meeko>  (73) 
{"free_energy": -7.6, "intermolecular_energy": -10.29, "internal_energy": -2.32, "cluster_size": 18, "cluster_id": 3, "rank_in_cluster": 15}

>  <energy>  (73) 
-7.68

>  <cluster_rmsd>  (73) 
0.8

>  <cluster>  (73) 
3

$$$$

     RDKit          3D

 63 65  0  0  0  0  0  0  0  0999 V2000
  139.1580   68.8850  221.4780 C   0  0  0  0  0  0  0  0  0  0  0  0
  138.5030   68.5470  222.8120 C   0  0  0  0  0  0  0  0  0  0  0  0
  138.2310   69.8160  223.4980 C   0  0  0  0  0  0  0  0  0  0  0  0
  136.9960   70.1150  223.6600 O   0  0  0  0  0  0  0  0  0  0  0  0
  139.1590   70.7440  223.9970 N   0  0  0  0  0  0  0  0  0  0  0  0
  139.6360   70.4720  225.3460 C   0  0  0  0  0  0  0  0  0  0  0  0
  140.3860   71.4680  225.9350 C   0  0  0  0  0  0  0  0  0  0  0  0
  140.8740   71.2820  227.2180 C   0  0  0  0  0  0  0  0  0  0  0  0
  140.5950   70.1000  227.8770 C   0  0  0  0  0  0  0  0  0  0  0  0
  139.8380   69.1150  227.2590 C   0  0  0  0  0  0  0  0  0  0  0  0
  139.3360   69.2790  225.9700 C   0  0  0  0  0  0  0  0  0  0  0  0
  139.7010   71.8900  223.3430 C   0  0  0  0  0  0  0  0  0  0  0  0
  141.0590   71.5290  222.7550 C   0  0  0  0  0  0  0  0  0  0  0  0
  141.1180   72.0940  221.3530 C   0  0  0  0  0  0  0  0  0  0  0  0
  140.7380   73.5130  221.3700 N   0  0  0  0  0  0  0  0  0  0  0  0
  141.6520   74.4340  220.7850 C   0  0  0  0  0  0  0  0  0  0  0  0
  142.7140   73.9680  220.2920 O   0  0  0  0  0  0  0  0  0  0  0  0
  141.4410   75.8850  220.7160 C   0  0  2  0  0  0  0  0  0  0  0  0
  142.5620   76.5800  220.1230 N   0  0  0  0  0  0  0  0  0  0  0  0
  140.9230   76.5090  221.9580 C   0  0  0  0  0  0  0  0  0  0  0  0
  140.1190   77.7230  221.8920 C   0  0  1  0  0  0  0  0  0  0  0  0
  138.8930   77.8470  222.7090 C   0  0  0  0  0  0  0  0  0  0  0  0
  141.0070   78.8620  222.3290 C   0  0  0  0  0  0  0  0  0  0  0  0
  141.4400   78.8120  223.6360 C   0  0  0  0  0  0  0  0  0  0  0  0
  142.2640   79.7870  224.1880 C   0  0  0  0  0  0  0  0  0  0  0  0
  142.6310   80.8240  223.3500 C   0  0  0  0  0  0  0  0  0  0  0  0
  142.1960   80.8740  222.0400 C   0  0  0  0  0  0  0  0  0  0  0  0
  141.3690   79.8820  221.5100 C   0  0  0  0  0  0  0  0  0  0  0  0
  139.4870   73.8840  221.9690 C   0  0  0  0  0  0  0  0  0  0  0  0
  138.8000   72.5580  222.3560 C   0  0  0  0  0  0  0  0  0  0  0  0
  140.1223   69.3826  221.6586 H   0  0  0  0  0  0  0  0  0  0  0  0
  139.3241   67.9600  220.9063 H   0  0  0  0  0  0  0  0  0  0  0  0
  138.5004   69.5563  220.9063 H   0  0  0  0  0  0  0  0  0  0  0  0
  137.5629   68.0016  222.6424 H   0  0  0  0  0  0  0  0  0  0  0  0
  139.1621   67.9092  223.4193 H   0  0  0  0  0  0  0  0  0  0  0  0
  140.5948   72.4012  225.3913 H   0  0  0  0  0  0  0  0  0  0  0  0
  141.4749   72.0640  227.7052 H   0  0  0  0  0  0  0  0  0  0  0  0
  140.9749   69.9391  228.8967 H   0  0  0  0  0  0  0  0  0  0  0  0
  139.6289   68.1808  227.8008 H   0  0  0  0  0  0  0  0  0  0  0  0
  138.7342   68.5010  225.4775 H   0  0  0  0  0  0  0  0  0  0  0  0
  139.8208   72.6665  224.1128 H   0  0  0  0  0  0  0  0  0  0  0  0
  141.8609   71.9652  223.3687 H   0  0  0  0  0  0  0  0  0  0  0  0
  141.1929   70.4373  222.7364 H   0  0  0  0  0  0  0  0  0  0  0  0
  142.1416   71.9951  220.9625 H   0  0  0  0  0  0  0  0  0  0  0  0
  140.4195   71.5395  220.7091 H   0  0  0  0  0  0  0  0  0  0  0  0
  140.6014   76.0136  220.0171 H   0  0  0  0  0  0  0  0  0  0  0  0
  142.9150   77.3620  220.6730 H   0  0  0  0  0  0  0  0  0  0  0  0
  143.2180   76.0090  219.5920 H   0  0  0  0  0  0  0  0  0  0  0  0
  140.3067   75.7488  222.4602 H   0  0  0  0  0  0  0  0  0  0  0  0
  141.8378   76.8435  222.4690 H   0  0  0  0  0  0  0  0  0  0  0  0
  139.7554   77.7162  220.8539 H   0  0  0  0  0  0  0  0  0  0  0  0
  139.1591   77.8201  223.7760 H   0  0  0  0  0  0  0  0  0  0  0  0
  138.3942   78.8002  222.4794 H   0  0  0  0  0  0  0  0  0  0  0  0
  138.2135   77.0130  222.4794 H   0  0  0  0  0  0  0  0  0  0  0  0
  141.1219   77.9689  224.2669 H   0  0  0  0  0  0  0  0  0  0  0  0
  142.6047   79.7361  225.2327 H   0  0  0  0  0  0  0  0  0  0  0  0
  143.2814   81.6238  223.7338 H   0  0  0  0  0  0  0  0  0  0  0  0
  142.5078   81.7132  221.4008 H   0  0  0  0  0  0  0  0  0  0  0  0
  141.0233   79.9254  220.4666 H   0  0  0  0  0  0  0  0  0  0  0  0
  139.6580   74.5024  222.8625 H   0  0  0  0  0  0  0  0  0  0  0  0
  138.8670   74.4766  221.2802 H   0  0  0  0  0  0  0  0  0  0  0  0
  137.8181   72.7565  222.8104 H   0  0  0  0  0  0  0  0  0  0  0  0
  138.6330   71.9225  221.4738 H   0  0  0  0  0  0  0  0  0  0  0  0
  1  2  1  0
  2  3  1  0
  3  4  2  0
  3  5  1  0
  5  6  1  0
  6  7  2  0
  7  8  1  0
  8  9  2  0
  9 10  1  0
 10 11  2  0
  5 12  1  0
 12 13  1  0
 13 14  1  0
 14 15  1  0
 15 16  1  0
 16 17  2  0
 16 18  1  0
 18 19  1  0
 18 20  1  0
 20 21  1  0
 21 22  1  0
 21 23  1  0
 23 24  2  0
 24 25  1  0
 25 26  2  0
 26 27  1  0
 27 28  2  0
 15 29  1  0
 29 30  1  0
 11  6  1  0
 30 12  1  0
 28 23  1  0
  1 31  1  0
  1 32  1  0
  1 33  1  0
  2 34  1  0
  2 35  1  0
  7 36  1  0
  8 37  1  0
  9 38  1  0
 10 39  1  0
 11 40  1  0
 12 41  1  0
 13 42  1  0
 13 43  1  0
 14 44  1  0
 14 45  1  0
 18 46  1  6
 19 47  1  0
 19 48  1  0
 20 49  1  0
 20 50  1  0
 21 51  1  6
 22 52  1  0
 22 53  1  0
 22 54  1  0
 24 55  1  0
 25 56  1  0
 26 57  1  0
 27 58  1  0
 28 59  1  0
 29 60  1  0
 29 61  1  0
 30 62  1  0
 30 63  1  0
M  END
>  <smiles>  (74) 
CCC(=O)N(c1ccccc1)C1CCN(C(=O)[C@H](N)CC(C)c2ccccc2)CC1

>  <score_type>  (74) 
oracle

>  <origin>  (74) 
autodockgpu

>  <m_score__min__energy>  (74) 
-8.3599999999999994

>  <m_primary>  (74) 
energy

>  <rmsd>  (74) 
6.598603846636697

>  <m_score__min__rmsd>  (74) 
6.598603846636697

>  <meeko>  (74) 
{"free_energy": -7.69, "intermolecular_energy": -10.37, "internal_energy": -2.35, "cluster_size": 18, "cluster_id": 3, "rank_in_cluster": 4}

>  <energy>  (74) 
-7.68

>  <cluster_rmsd>  (74) 
0.65

>  <cluster>  (74) 
3

$$$$

     RDKit          3D

 63 65  0  0  0  0  0  0  0  0999 V2000
  145.8060   70.6000  216.4270 C   0  0  0  0  0  0  0  0  0  0  0  0
  144.9420   71.5750  217.2200 C   0  0  0  0  0  0  0  0  0  0  0  0
  145.0250   71.1810  218.6320 C   0  0  0  0  0  0  0  0  0  0  0  0
  145.9410   71.7490  219.3230 O   0  0  0  0  0  0  0  0  0  0  0  0
  144.2220   70.2560  219.3190 N   0  0  0  0  0  0  0  0  0  0  0  0
  144.6750   68.8740  219.2430 C   0  0  0  0  0  0  0  0  0  0  0  0
  143.6890   67.9200  219.1060 C   0  0  0  0  0  0  0  0  0  0  0  0
  144.0440   66.5830  219.0270 C   0  0  0  0  0  0  0  0  0  0  0  0
  145.3800   66.2390  219.0860 C   0  0  0  0  0  0  0  0  0  0  0  0
  146.3520   67.2210  219.2250 C   0  0  0  0  0  0  0  0  0  0  0  0
  146.0200   68.5710  219.3070 C   0  0  0  0  0  0  0  0  0  0  0  0
  143.0490   70.5060  220.0910 C   0  0  0  0  0  0  0  0  0  0  0  0
  143.2080   71.8330  220.8210 C   0  0  0  0  0  0  0  0  0  0  0  0
  141.9120   72.5990  220.6710 C   0  0  0  0  0  0  0  0  0  0  0  0
  140.7800   71.7430  221.0520 N   0  0  0  0  0  0  0  0  0  0  0  0
  139.8900   72.2500  222.0400 C   0  0  0  0  0  0  0  0  0  0  0  0
  140.1330   73.3930  222.5110 O   0  0  0  0  0  0  0  0  0  0  0  0
  138.7120   71.5350  222.5440 C   0  0  2  0  0  0  0  0  0  0  0  0
  137.5670   72.4020  222.7120 N   0  0  0  0  0  0  0  0  0  0  0  0
  138.9650   70.6270  223.6890 C   0  0  0  0  0  0  0  0  0  0  0  0
  140.2570   70.6340  224.3630 C   0  0  1  0  0  0  0  0  0  0  0  0
  140.7430   71.8650  225.0220 C   0  0  0  0  0  0  0  0  0  0  0  0
  140.1900   69.5960  225.4560 C   0  0  0  0  0  0  0  0  0  0  0  0
  140.8190   69.9310  226.6360 C   0  0  0  0  0  0  0  0  0  0  0  0
  140.8440   69.0810  227.7360 C   0  0  0  0  0  0  0  0  0  0  0  0
  140.2010   67.8670  227.5870 C   0  0  0  0  0  0  0  0  0  0  0  0
  139.5710   67.5310  226.4040 C   0  0  0  0  0  0  0  0  0  0  0  0
  139.5600   68.4030  225.3140 C   0  0  0  0  0  0  0  0  0  0  0  0
  140.6400   70.4630  220.4160 C   0  0  0  0  0  0  0  0  0  0  0  0
  141.7540   70.4010  219.3510 C   0  0  0  0  0  0  0  0  0  0  0  0
  146.3714   69.9620  217.1222 H   0  0  0  0  0  0  0  0  0  0  0  0
  145.1627   69.9717  215.7934 H   0  0  0  0  0  0  0  0  0  0  0  0
  146.5071   71.1630  215.7934 H   0  0  0  0  0  0  0  0  0  0  0  0
  145.3178   72.6009  217.0925 H   0  0  0  0  0  0  0  0  0  0  0  0
  143.9001   71.5480  216.8681 H   0  0  0  0  0  0  0  0  0  0  0  0
  142.6310   68.2174  219.0599 H   0  0  0  0  0  0  0  0  0  0  0  0
  143.2724   65.8065  218.9188 H   0  0  0  0  0  0  0  0  0  0  0  0
  145.6759   65.1815  219.0226 H   0  0  0  0  0  0  0  0  0  0  0  0
  147.4105   66.9252  219.2715 H   0  0  0  0  0  0  0  0  0  0  0  0
  146.7868   69.3521  219.4166 H   0  0  0  0  0  0  0  0  0  0  0  0
  142.9695   69.6863  220.8202 H   0  0  0  0  0  0  0  0  0  0  0  0
  143.4151   71.6521  221.8861 H   0  0  0  0  0  0  0  0  0  0  0  0
  144.0458   72.4071  220.3984 H   0  0  0  0  0  0  0  0  0  0  0  0
  141.9345   73.4855  221.3218 H   0  0  0  0  0  0  0  0  0  0  0  0
  141.7942   72.9111  219.6228 H   0  0  0  0  0  0  0  0  0  0  0  0
  138.4439   70.8342  221.7397 H   0  0  0  0  0  0  0  0  0  0  0  0
  137.7980   73.3810  222.8780 H   0  0  0  0  0  0  0  0  0  0  0  0
  136.7410   72.1720  222.1620 H   0  0  0  0  0  0  0  0  0  0  0  0
  138.2092   70.8633  224.4525 H   0  0  0  0  0  0  0  0  0  0  0  0
  138.9303   69.6290  223.2277 H   0  0  0  0  0  0  0  0  0  0  0  0
  140.9620   70.4703  223.5347 H   0  0  0  0  0  0  0  0  0  0  0  0
  140.6938   71.7403  226.1138 H   0  0  0  0  0  0  0  0  0  0  0  0
  141.7838   72.0555  224.7213 H   0  0  0  0  0  0  0  0  0  0  0  0
  140.1130   72.7151  224.7213 H   0  0  0  0  0  0  0  0  0  0  0  0
  141.3200   70.9075  226.7101 H   0  0  0  0  0  0  0  0  0  0  0  0
  141.3479   69.3596  228.6733 H   0  0  0  0  0  0  0  0  0  0  0  0
  140.1905   67.1551  228.4255 H   0  0  0  0  0  0  0  0  0  0  0  0
  139.0679   66.5565  226.3194 H   0  0  0  0  0  0  0  0  0  0  0  0
  139.0583   68.1324  224.3732 H   0  0  0  0  0  0  0  0  0  0  0  0
  140.7664   69.6540  221.1506 H   0  0  0  0  0  0  0  0  0  0  0  0
  139.6430   70.3396  219.9678 H   0  0  0  0  0  0  0  0  0  0  0  0
  141.7046   69.4484  218.8033 H   0  0  0  0  0  0  0  0  0  0  0  0
  141.6480   71.2109  218.6142 H   0  0  0  0  0  0  0  0  0  0  0  0
  1  2  1  0
  2  3  1  0
  3  4  2  0
  3  5  1  0
  5  6  1  0
  6  7  2  0
  7  8  1  0
  8  9  2  0
  9 10  1  0
 10 11  2  0
  5 12  1  0
 12 13  1  0
 13 14  1  0
 14 15  1  0
 15 16  1  0
 16 17  2  0
 16 18  1  0
 18 19  1  0
 18 20  1  0
 20 21  1  0
 21 22  1  0
 21 23  1  0
 23 24  2  0
 24 25  1  0
 25 26  2  0
 26 27  1  0
 27 28  2  0
 15 29  1  0
 29 30  1  0
 11  6  1  0
 30 12  1  0
 28 23  1  0
  1 31  1  0
  1 32  1  0
  1 33  1  0
  2 34  1  0
  2 35  1  0
  7 36  1  0
  8 37  1  0
  9 38  1  0
 10 39  1  0
 11 40  1  0
 12 41  1  0
 13 42  1  0
 13 43  1  0
 14 44  1  0
 14 45  1  0
 18 46  1  6
 19 47  1  0
 19 48  1  0
 20 49  1  0
 20 50  1  0
 21 51  1  6
 22 52  1  0
 22 53  1  0
 22 54  1  0
 24 55  1  0
 25 56  1  0
 26 57  1  0
 27 58  1  0
 28 59  1  0
 29 60  1  0
 29 61  1  0
 30 62  1  0
 30 63  1  0
M  END
>  <smiles>  (75) 
CCC(=O)N(c1ccccc1)C1CCN(C(=O)[C@H](N)CC(C)c2ccccc2)CC1

>  <score_type>  (75) 
oracle

>  <origin>  (75) 
autodockgpu

>  <m_score__min__energy>  (75) 
-8.3599999999999994

>  <m_primary>  (75) 
energy

>  <rmsd>  (75) 
8.839080497955086

>  <m_score__min__rmsd>  (75) 
8.839080497955086

>  <meeko>  (75) 
{"free_energy": -7.64, "intermolecular_energy": -10.33, "internal_energy": -2.3, "cluster_size": 11, "cluster_id": 1, "rank_in_cluster": 10}

>  <energy>  (75) 
-7.66

>  <cluster_rmsd>  (75) 
0.6

>  <cluster>  (75) 
3

$$$$

     RDKit          3D

 63 65  0  0  0  0  0  0  0  0999 V2000
  142.2000   81.0790  218.5260 C   0  0  0  0  0  0  0  0  0  0  0  0
  141.4780   79.7520  218.3240 C   0  0  0  0  0  0  0  0  0  0  0  0
  140.5370   79.5930  219.4410 C   0  0  0  0  0  0  0  0  0  0  0  0
  139.4090   80.1860  219.3150 O   0  0  0  0  0  0  0  0  0  0  0  0
  140.7230   78.8720  220.6310 N   0  0  0  0  0  0  0  0  0  0  0  0
  141.1980   79.6600  221.7590 C   0  0  0  0  0  0  0  0  0  0  0  0
  142.5220   79.4860  222.1040 C   0  0  0  0  0  0  0  0  0  0  0  0
  143.0470   80.2020  223.1670 C   0  0  0  0  0  0  0  0  0  0  0  0
  142.2290   81.0770  223.8550 C   0  0  0  0  0  0  0  0  0  0  0  0
  140.9000   81.2310  223.4870 C   0  0  0  0  0  0  0  0  0  0  0  0
  140.3500   80.5220  222.4210 C   0  0  0  0  0  0  0  0  0  0  0  0
  140.4820   77.4860  220.8710 C   0  0  0  0  0  0  0  0  0  0  0  0
  141.4130   76.6610  219.9930 C   0  0  0  0  0  0  0  0  0  0  0  0
  141.9920   75.5560  220.8480 C   0  0  0  0  0  0  0  0  0  0  0  0
  140.9120   74.8490  221.5490 N   0  0  0  0  0  0  0  0  0  0  0  0
  140.8560   73.4350  221.3920 C   0  0  0  0  0  0  0  0  0  0  0  0
  141.7350   72.8940  220.6700 O   0  0  0  0  0  0  0  0  0  0  0  0
  139.8470   72.5690  222.0130 C   0  0  2  0  0  0  0  0  0  0  0  0
  138.5320   73.1690  222.0230 N   0  0  0  0  0  0  0  0  0  0  0  0
  140.2480   71.9550  223.3030 C   0  0  0  0  0  0  0  0  0  0  0  0
  139.3510   71.0350  223.9910 C   0  0  1  0  0  0  0  0  0  0  0  0
  139.1650   69.6600  223.4820 C   0  0  0  0  0  0  0  0  0  0  0  0
  139.8770   70.8740  225.3950 C   0  0  0  0  0  0  0  0  0  0  0  0
  140.7270   71.8680  225.8310 C   0  0  0  0  0  0  0  0  0  0  0  0
  141.2940   71.8630  227.1000 C   0  0  0  0  0  0  0  0  0  0  0  0
  140.9620   70.7970  227.9160 C   0  0  0  0  0  0  0  0  0  0  0  0
  140.1110   69.8000  227.4790 C   0  0  0  0  0  0  0  0  0  0  0  0
  139.5540   69.8300  226.1980 C   0  0  0  0  0  0  0  0  0  0  0  0
  139.9890   75.6140  222.3410 C   0  0  0  0  0  0  0  0  0  0  0  0
  140.5100   77.0650  222.3050 C   0  0  0  0  0  0  0  0  0  0  0  0
  142.3080   81.2775  219.6025 H   0  0  0  0  0  0  0  0  0  0  0  0
  143.1955   81.0294  218.0606 H   0  0  0  0  0  0  0  0  0  0  0  0
  141.6176   81.8879  218.0606 H   0  0  0  0  0  0  0  0  0  0  0  0
  140.9312   79.7623  217.3696 H   0  0  0  0  0  0  0  0  0  0  0  0
  142.1951   78.9183  218.2968 H   0  0  0  0  0  0  0  0  0  0  0  0
  143.1551   78.7851  221.5402 H   0  0  0  0  0  0  0  0  0  0  0  0
  144.1000   80.0757  223.4591 H   0  0  0  0  0  0  0  0  0  0  0  0
  142.6334   81.6548  224.6992 H   0  0  0  0  0  0  0  0  0  0  0  0
  140.2649   81.9301  224.0508 H   0  0  0  0  0  0  0  0  0  0  0  0
  139.2978   80.6434  222.1242 H   0  0  0  0  0  0  0  0  0  0  0  0
  139.4361   77.2927  220.5902 H   0  0  0  0  0  0  0  0  0  0  0  0
  140.8501   76.2286  219.1527 H   0  0  0  0  0  0  0  0  0  0  0  0
  142.2156   77.2918  219.5832 H   0  0  0  0  0  0  0  0  0  0  0  0
  142.5369   74.8467  220.2077 H   0  0  0  0  0  0  0  0  0  0  0  0
  142.6793   75.9925  221.5877 H   0  0  0  0  0  0  0  0  0  0  0  0
  139.7762   71.6976  221.3454 H   0  0  0  0  0  0  0  0  0  0  0  0
  138.3240   73.7220  222.8540 H   0  0  0  0  0  0  0  0  0  0  0  0
  138.1660   73.4710  221.1210 H   0  0  0  0  0  0  0  0  0  0  0  0
  141.1813   71.4042  223.1141 H   0  0  0  0  0  0  0  0  0  0  0  0
  140.2927   72.8164  223.9856 H   0  0  0  0  0  0  0  0  0  0  0  0
  138.3683   71.5108  223.8566 H   0  0  0  0  0  0  0  0  0  0  0  0
  139.0710   68.9649  224.3294 H   0  0  0  0  0  0  0  0  0  0  0  0
  138.2527   69.6162  222.8689 H   0  0  0  0  0  0  0  0  0  0  0  0
  140.0328   69.3754  222.8689 H   0  0  0  0  0  0  0  0  0  0  0  0
  140.9657   72.6969  225.1484 H   0  0  0  0  0  0  0  0  0  0  0  0
  141.9697   72.6630  227.4368 H   0  0  0  0  0  0  0  0  0  0  0  0
  141.3828   70.7418  228.9308 H   0  0  0  0  0  0  0  0  0  0  0  0
  139.8671   68.9658  228.1533 H   0  0  0  0  0  0  0  0  0  0  0  0
  138.8771   69.0346  225.8529 H   0  0  0  0  0  0  0  0  0  0  0  0
  138.9779   75.5589  221.9114 H   0  0  0  0  0  0  0  0  0  0  0  0
  139.9239   75.2317  223.3704 H   0  0  0  0  0  0  0  0  0  0  0  0
  139.8602   77.7179  222.9063 H   0  0  0  0  0  0  0  0  0  0  0  0
  141.5253   77.1354  222.7223 H   0  0  0  0  0  0  0  0  0  0  0  0
  1  2  1  0
  2  3  1  0
  3  4  2  0
  3  5  1  0
  5  6  1  0
  6  7  2  0
  7  8  1  0
  8  9  2  0
  9 10  1  0
 10 11  2  0
  5 12  1  0
 12 13  1  0
 13 14  1  0
 14 15  1  0
 15 16  1  0
 16 17  2  0
 16 18  1  0
 18 19  1  0
 18 20  1  0
 20 21  1  0
 21 22  1  0
 21 23  1  0
 23 24  2  0
 24 25  1  0
 25 26  2  0
 26 27  1  0
 27 28  2  0
 15 29  1  0
 29 30  1  0
 11  6  1  0
 30 12  1  0
 28 23  1  0
  1 31  1  0
  1 32  1  0
  1 33  1  0
  2 34  1  0
  2 35  1  0
  7 36  1  0
  8 37  1  0
  9 38  1  0
 10 39  1  0
 11 40  1  0
 12 41  1  0
 13 42  1  0
 13 43  1  0
 14 44  1  0
 14 45  1  0
 18 46  1  6
 19 47  1  0
 19 48  1  0
 20 49  1  0
 20 50  1  0
 21 51  1  1
 22 52  1  0
 22 53  1  0
 22 54  1  0
 24 55  1  0
 25 56  1  0
 26 57  1  0
 27 58  1  0
 28 59  1  0
 29 60  1  0
 29 61  1  0
 30 62  1  0
 30 63  1  0
M  END
>  <smiles>  (76) 
CCC(=O)N(c1ccccc1)C1CCN(C(=O)[C@H](N)CC(C)c2ccccc2)CC1

>  <score_type>  (76) 
oracle

>  <origin>  (76) 
autodockgpu

>  <m_score__min__energy>  (76) 
-8.3599999999999994

>  <m_primary>  (76) 
energy

>  <rmsd>  (76) 
6.257489074848441

>  <m_score__min__rmsd>  (76) 
6.257489074848441

>  <meeko>  (76) 
{"free_energy": -7.92, "intermolecular_energy": -10.61, "internal_energy": -1.69, "cluster_size": 7, "cluster_id": 2, "rank_in_cluster": 2}

>  <energy>  (76) 
-7.66

>  <cluster_rmsd>  (76) 
0.75

>  <cluster>  (76) 
3

$$$$

     RDKit          3D

 63 65  0  0  0  0  0  0  0  0999 V2000
  140.5270   74.0360  218.2750 C   0  0  0  0  0  0  0  0  0  0  0  0
  141.3580   75.1460  218.9070 C   0  0  0  0  0  0  0  0  0  0  0  0
  141.6020   74.7650  220.3050 C   0  0  0  0  0  0  0  0  0  0  0  0
  141.4850   75.7010  221.1720 O   0  0  0  0  0  0  0  0  0  0  0  0
  141.9490   73.5020  220.8080 N   0  0  0  0  0  0  0  0  0  0  0  0
  143.3170   73.0850  220.5340 C   0  0  0  0  0  0  0  0  0  0  0  0
  144.3000   74.0050  220.8320 C   0  0  0  0  0  0  0  0  0  0  0  0
  145.6270   73.6800  220.5980 C   0  0  0  0  0  0  0  0  0  0  0  0
  145.9310   72.4400  220.0720 C   0  0  0  0  0  0  0  0  0  0  0  0
  144.9200   71.5340  219.7810 C   0  0  0  0  0  0  0  0  0  0  0  0
  143.5800   71.8380  220.0070 C   0  0  0  0  0  0  0  0  0  0  0  0
  141.1430   72.6000  221.5660 C   0  0  0  0  0  0  0  0  0  0  0  0
  140.0650   73.3920  222.2950 C   0  0  0  0  0  0  0  0  0  0  0  0
  138.7580   72.6500  222.1290 C   0  0  0  0  0  0  0  0  0  0  0  0
  138.9340   71.2390  222.4980 N   0  0  0  0  0  0  0  0  0  0  0  0
  138.0440   70.7090  223.4740 C   0  0  0  0  0  0  0  0  0  0  0  0
  137.1690   71.4840  223.9460 O   0  0  0  0  0  0  0  0  0  0  0  0
  138.0750   69.3270  223.9650 C   0  0  2  0  0  0  0  0  0  0  0  0
  136.8870   68.9770  224.7120 N   0  0  0  0  0  0  0  0  0  0  0  0
  139.3460   68.9120  224.6070 C   0  0  0  0  0  0  0  0  0  0  0  0
  139.4150   68.7260  226.0520 C   0  0  1  0  0  0  0  0  0  0  0  0
  140.1740   67.5910  226.6180 C   0  0  0  0  0  0  0  0  0  0  0  0
  140.0590   69.9630  226.6250 C   0  0  0  0  0  0  0  0  0  0  0  0
  140.7830   70.7260  225.7330 C   0  0  0  0  0  0  0  0  0  0  0  0
  141.4340   71.8950  226.1070 C   0  0  0  0  0  0  0  0  0  0  0  0
  141.3220   72.2620  227.4360 C   0  0  0  0  0  0  0  0  0  0  0  0
  140.5970   71.4970  228.3290 C   0  0  0  0  0  0  0  0  0  0  0  0
  139.9510   70.3260  227.9270 C   0  0  0  0  0  0  0  0  0  0  0  0
  139.9790   70.4870  221.8620 C   0  0  0  0  0  0  0  0  0  0  0  0
  140.5950   71.4320  220.8110 C   0  0  0  0  0  0  0  0  0  0  0  0
  140.0693   73.4246  219.0666 H   0  0  0  0  0  0  0  0  0  0  0  0
  139.7369   74.4793  217.6511 H   0  0  0  0  0  0  0  0  0  0  0  0
  141.1749   73.4028  217.6511 H   0  0  0  0  0  0  0  0  0  0  0  0
  142.3139   75.2516  218.3730 H   0  0  0  0  0  0  0  0  0  0  0  0
  140.8292   76.1090  218.8517 H   0  0  0  0  0  0  0  0  0  0  0  0
  144.0338   74.9866  221.2511 H   0  0  0  0  0  0  0  0  0  0  0  0
  146.4265   74.3996  220.8281 H   0  0  0  0  0  0  0  0  0  0  0  0
  146.9800   72.1685  219.8825 H   0  0  0  0  0  0  0  0  0  0  0  0
  145.1840   70.5519  219.3616 H   0  0  0  0  0  0  0  0  0  0  0  0
  142.7759   71.1232  219.7779 H   0  0  0  0  0  0  0  0  0  0  0  0
  141.8093   72.1157  222.2950 H   0  0  0  0  0  0  0  0  0  0  0  0
  140.3170   73.4728  223.3627 H   0  0  0  0  0  0  0  0  0  0  0  0
  139.9866   74.4079  221.8805 H   0  0  0  0  0  0  0  0  0  0  0  0
  137.9954   73.1045  222.7786 H   0  0  0  0  0  0  0  0  0  0  0  0
  138.4368   72.7124  221.0788 H   0  0  0  0  0  0  0  0  0  0  0  0
  138.0537   68.7062  223.0572 H   0  0  0  0  0  0  0  0  0  0  0  0
  137.0350   68.2770  225.4380 H   0  0  0  0  0  0  0  0  0  0  0  0
  136.2180   69.7280  224.8730 H   0  0  0  0  0  0  0  0  0  0  0  0
  139.6318   67.9526  224.1510 H   0  0  0  0  0  0  0  0  0  0  0  0
  140.0055   69.7754  224.4351 H   0  0  0  0  0  0  0  0  0  0  0  0
  138.3689   68.5151  226.3187 H   0  0  0  0  0  0  0  0  0  0  0  0
  140.1415   67.6396  227.7164 H   0  0  0  0  0  0  0  0  0  0  0  0
  139.7261   66.6451  226.2794 H   0  0  0  0  0  0  0  0  0  0  0  0
  141.2193   67.6436  226.2794 H   0  0  0  0  0  0  0  0  0  0  0  0
  140.8475   70.3965  224.6855 H   0  0  0  0  0  0  0  0  0  0  0  0
  142.0072   72.4959  225.3856 H   0  0  0  0  0  0  0  0  0  0  0  0
  141.8186   73.1784  227.7877 H   0  0  0  0  0  0  0  0  0  0  0  0
  140.5270   71.8170  229.3791 H   0  0  0  0  0  0  0  0  0  0  0  0
  139.3749   69.7195  228.6413 H   0  0  0  0  0  0  0  0  0  0  0  0
  140.7382   70.1867  222.5992 H   0  0  0  0  0  0  0  0  0  0  0  0
  139.5928   69.5656  221.4017 H   0  0  0  0  0  0  0  0  0  0  0  0
  141.4006   70.9201  220.2643 H   0  0  0  0  0  0  0  0  0  0  0  0
  139.8453   71.7503  220.0717 H   0  0  0  0  0  0  0  0  0  0  0  0
  1  2  1  0
  2  3  1  0
  3  4  2  0
  3  5  1  0
  5  6  1  0
  6  7  2  0
  7  8  1  0
  8  9  2  0
  9 10  1  0
 10 11  2  0
  5 12  1  0
 12 13  1  0
 13 14  1  0
 14 15  1  0
 15 16  1  0
 16 17  2  0
 16 18  1  0
 18 19  1  0
 18 20  1  0
 20 21  1  0
 21 22  1  0
 21 23  1  0
 23 24  2  0
 24 25  1  0
 25 26  2  0
 26 27  1  0
 27 28  2  0
 15 29  1  0
 29 30  1  0
 11  6  1  0
 30 12  1  0
 28 23  1  0
  1 31  1  0
  1 32  1  0
  1 33  1  0
  2 34  1  0
  2 35  1  0
  7 36  1  0
  8 37  1  0
  9 38  1  0
 10 39  1  0
 11 40  1  0
 12 41  1  0
 13 42  1  0
 13 43  1  0
 14 44  1  0
 14 45  1  0
 18 46  1  6
 19 47  1  0
 19 48  1  0
 20 49  1  0
 20 50  1  0
 21 51  1  1
 22 52  1  0
 22 53  1  0
 22 54  1  0
 24 55  1  0
 25 56  1  0
 26 57  1  0
 27 58  1  0
 28 59  1  0
 29 60  1  0
 29 61  1  0
 30 62  1  0
 30 63  1  0
M  END
>  <smiles>  (77) 
CCC(=O)N(c1ccccc1)C1CCN(C(=O)[C@H](N)CC(C)c2ccccc2)CC1

>  <score_type>  (77) 
oracle

>  <origin>  (77) 
autodockgpu

>  <m_score__min__energy>  (77) 
-8.3599999999999994

>  <m_primary>  (77) 
energy

>  <rmsd>  (77) 
9.810389864449009

>  <m_score__min__rmsd>  (77) 
9.810389864449009

>  <meeko>  (77) 
{"free_energy": -7.14, "intermolecular_energy": -9.82, "internal_energy": -2.89, "cluster_size": 3, "cluster_id": 6, "rank_in_cluster": 3}

>  <energy>  (77) 
-7.64

>  <cluster_rmsd>  (77) 
0.89

>  <cluster>  (77) 
3

$$$$

     RDKit          3D

 63 65  0  0  0  0  0  0  0  0999 V2000
  144.3290   74.0060  217.2280 C   0  0  0  0  0  0  0  0  0  0  0  0
  145.1230   72.7190  217.0350 C   0  0  0  0  0  0  0  0  0  0  0  0
  145.3470   72.1420  218.3670 C   0  0  0  0  0  0  0  0  0  0  0  0
  146.3090   72.6470  219.0450 O   0  0  0  0  0  0  0  0  0  0  0  0
  144.6380   71.1010  218.9870 N   0  0  0  0  0  0  0  0  0  0  0  0
  145.1510   69.7650  218.7240 C   0  0  0  0  0  0  0  0  0  0  0  0
  144.8760   68.8110  219.6820 C   0  0  0  0  0  0  0  0  0  0  0  0
  145.3320   67.5150  219.5010 C   0  0  0  0  0  0  0  0  0  0  0  0
  146.0520   67.2110  218.3620 C   0  0  0  0  0  0  0  0  0  0  0  0
  146.3150   68.1910  217.4150 C   0  0  0  0  0  0  0  0  0  0  0  0
  145.8670   69.5010  217.5750 C   0  0  0  0  0  0  0  0  0  0  0  0
  143.5060   71.1960  219.8520 C   0  0  0  0  0  0  0  0  0  0  0  0
  143.3840   72.6290  220.3530 C   0  0  0  0  0  0  0  0  0  0  0  0
  141.9290   73.0290  220.2520 C   0  0  0  0  0  0  0  0  0  0  0  0
  141.0860   72.0090  220.8910 N   0  0  0  0  0  0  0  0  0  0  0  0
  140.1800   72.4540  221.8950 C   0  0  0  0  0  0  0  0  0  0  0  0
  140.1630   73.6860  222.1590 O   0  0  0  0  0  0  0  0  0  0  0  0
  139.2670   71.5790  222.6390 C   0  0  2  0  0  0  0  0  0  0  0  0
  138.0770   72.2690  223.0820 N   0  0  0  0  0  0  0  0  0  0  0  0
  139.9070   70.7340  223.6770 C   0  0  0  0  0  0  0  0  0  0  0  0
  139.0960   70.0840  224.7000 C   0  0  1  0  0  0  0  0  0  0  0  0
  138.8430   68.6300  224.6330 C   0  0  0  0  0  0  0  0  0  0  0  0
  139.7910   70.3090  226.0200 C   0  0  0  0  0  0  0  0  0  0  0  0
  140.4740   71.5000  226.1380 C   0  0  0  0  0  0  0  0  0  0  0  0
  141.1640   71.8540  227.2920 C   0  0  0  0  0  0  0  0  0  0  0  0
  141.1310   70.9410  228.3300 C   0  0  0  0  0  0  0  0  0  0  0  0
  140.4460   69.7470  228.2110 C   0  0  0  0  0  0  0  0  0  0  0  0
  139.7610   69.4160  227.0400 C   0  0  0  0  0  0  0  0  0  0  0  0
  141.2230   70.6420  220.4720 C   0  0  0  0  0  0  0  0  0  0  0  0
  142.2240   70.6620  219.3000 C   0  0  0  0  0  0  0  0  0  0  0  0
  144.2070   74.2038  218.3032 H   0  0  0  0  0  0  0  0  0  0  0  0
  144.8679   74.8430  216.7600 H   0  0  0  0  0  0  0  0  0  0  0  0
  143.3392   73.8998  216.7600 H   0  0  0  0  0  0  0  0  0  0  0  0
  144.5535   72.0151  216.4104 H   0  0  0  0  0  0  0  0  0  0  0  0
  146.0799   72.9227  216.5321 H   0  0  0  0  0  0  0  0  0  0  0  0
  144.3003   69.0766  220.5809 H   0  0  0  0  0  0  0  0  0  0  0  0
  145.1237   66.7398  220.2532 H   0  0  0  0  0  0  0  0  0  0  0  0
  146.4191   66.1861  218.2046 H   0  0  0  0  0  0  0  0  0  0  0  0
  146.8913   67.9272  216.5159 H   0  0  0  0  0  0  0  0  0  0  0  0
  146.0729   70.2807  216.8269 H   0  0  0  0  0  0  0  0  0  0  0  0
  143.6960   70.5191  220.6980 H   0  0  0  0  0  0  0  0  0  0  0  0
  143.7175   72.6897  221.3995 H   0  0  0  0  0  0  0  0  0  0  0  0
  144.0115   73.3025  219.7507 H   0  0  0  0  0  0  0  0  0  0  0  0
  141.7800   73.9946  220.7573 H   0  0  0  0  0  0  0  0  0  0  0  0
  141.6500   73.1181  219.1917 H   0  0  0  0  0  0  0  0  0  0  0  0
  138.9275   70.8354  221.9030 H   0  0  0  0  0  0  0  0  0  0  0  0
  137.7150   71.9540  223.9820 H   0  0  0  0  0  0  0  0  0  0  0  0
  138.0080   73.2550  222.8360 H   0  0  0  0  0  0  0  0  0  0  0  0
  140.4459   69.9353  223.1462 H   0  0  0  0  0  0  0  0  0  0  0  0
  140.5037   71.4562  224.2535 H   0  0  0  0  0  0  0  0  0  0  0  0
  138.1062   70.5398  224.5500 H   0  0  0  0  0  0  0  0  0  0  0  0
  138.7722   68.2228  225.6524 H   0  0  0  0  0  0  0  0  0  0  0  0
  137.8994   68.4463  224.0984 H   0  0  0  0  0  0  0  0  0  0  0  0
  139.6691   68.1383  224.0984 H   0  0  0  0  0  0  0  0  0  0  0  0
  140.4733   72.1970  225.2870 H   0  0  0  0  0  0  0  0  0  0  0  0
  141.7061   72.8075  227.3747 H   0  0  0  0  0  0  0  0  0  0  0  0
  141.6596   71.1694  229.2673 H   0  0  0  0  0  0  0  0  0  0  0  0
  140.4401   69.0427  229.0560 H   0  0  0  0  0  0  0  0  0  0  0  0
  139.2164   68.4647  226.9483 H   0  0  0  0  0  0  0  0  0  0  0  0
  141.6104   70.0254  221.2964 H   0  0  0  0  0  0  0  0  0  0  0  0
  140.2564   70.2109  220.1724 H   0  0  0  0  0  0  0  0  0  0  0  0
  142.3723   69.6448  218.9085 H   0  0  0  0  0  0  0  0  0  0  0  0
  141.8561   71.2840  218.4707 H   0  0  0  0  0  0  0  0  0  0  0  0
  1  2  1  0
  2  3  1  0
  3  4  2  0
  3  5  1  0
  5  6  1  0
  6  7  2  0
  7  8  1  0
  8  9  2  0
  9 10  1  0
 10 11  2  0
  5 12  1  0
 12 13  1  0
 13 14  1  0
 14 15  1  0
 15 16  1  0
 16 17  2  0
 16 18  1  0
 18 19  1  0
 18 20  1  0
 20 21  1  0
 21 22  1  0
 21 23  1  0
 23 24  2  0
 24 25  1  0
 25 26  2  0
 26 27  1  0
 27 28  2  0
 15 29  1  0
 29 30  1  0
 11  6  1  0
 30 12  1  0
 28 23  1  0
  1 31  1  0
  1 32  1  0
  1 33  1  0
  2 34  1  0
  2 35  1  0
  7 36  1  0
  8 37  1  0
  9 38  1  0
 10 39  1  0
 11 40  1  0
 12 41  1  0
 13 42  1  0
 13 43  1  0
 14 44  1  0
 14 45  1  0
 18 46  1  6
 19 47  1  0
 19 48  1  0
 20 49  1  0
 20 50  1  0
 21 51  1  1
 22 52  1  0
 22 53  1  0
 22 54  1  0
 24 55  1  0
 25 56  1  0
 26 57  1  0
 27 58  1  0
 28 59  1  0
 29 60  1  0
 29 61  1  0
 30 62  1  0
 30 63  1  0
M  END
>  <smiles>  (78) 
CCC(=O)N(c1ccccc1)C1CCN(C(=O)[C@H](N)CC(C)c2ccccc2)CC1

>  <score_type>  (78) 
oracle

>  <origin>  (78) 
autodockgpu

>  <m_score__min__energy>  (78) 
-8.3599999999999994

>  <m_primary>  (78) 
energy

>  <rmsd>  (78) 
8.749737381166915

>  <m_score__min__rmsd>  (78) 
8.749737381166915

>  <meeko>  (78) 
{"free_energy": -8.3, "intermolecular_energy": -10.98, "internal_energy": -2.29, "cluster_size": 11, "cluster_id": 1, "rank_in_cluster": 3}

>  <energy>  (78) 
-7.63

>  <cluster_rmsd>  (78) 
0.85

>  <cluster>  (78) 
3

$$$$

     RDKit          3D

 63 65  0  0  0  0  0  0  0  0999 V2000
  139.5240   69.0330  221.4420 C   0  0  0  0  0  0  0  0  0  0  0  0
  138.0900   69.5050  221.6550 C   0  0  0  0  0  0  0  0  0  0  0  0
  138.0610   70.2560  222.9160 C   0  0  0  0  0  0  0  0  0  0  0  0
  136.9720   70.1860  223.5880 O   0  0  0  0  0  0  0  0  0  0  0  0
  139.0790   71.0430  223.4760 N   0  0  0  0  0  0  0  0  0  0  0  0
  139.6530   70.5210  224.7080 C   0  0  0  0  0  0  0  0  0  0  0  0
  139.4830   69.1700  224.9300 C   0  0  0  0  0  0  0  0  0  0  0  0
  140.0020   68.6010  226.0810 C   0  0  0  0  0  0  0  0  0  0  0  0
  140.6790   69.4020  226.9790 C   0  0  0  0  0  0  0  0  0  0  0  0
  140.8350   70.7580  226.7300 C   0  0  0  0  0  0  0  0  0  0  0  0
  140.3220   71.3540  225.5800 C   0  0  0  0  0  0  0  0  0  0  0  0
  139.6290   72.2620  222.9780 C   0  0  0  0  0  0  0  0  0  0  0  0
  141.0480   72.0040  222.4910 C   0  0  0  0  0  0  0  0  0  0  0  0
  141.2090   72.6950  221.1550 C   0  0  0  0  0  0  0  0  0  0  0  0
  140.7690   74.0930  221.2610 N   0  0  0  0  0  0  0  0  0  0  0  0
  141.6910   75.0950  220.8460 C   0  0  0  0  0  0  0  0  0  0  0  0
  142.8120   74.7130  220.4160 O   0  0  0  0  0  0  0  0  0  0  0  0
  141.4250   76.5370  220.8850 C   0  0  2  0  0  0  0  0  0  0  0  0
  142.5540   77.3220  220.4380 N   0  0  0  0  0  0  0  0  0  0  0  0
  140.7930   77.0310  222.1330 C   0  0  0  0  0  0  0  0  0  0  0  0
  139.9770   78.2390  222.1170 C   0  0  1  0  0  0  0  0  0  0  0  0
  138.7520   78.3180  222.9410 C   0  0  0  0  0  0  0  0  0  0  0  0
  140.8540   79.3690  222.5970 C   0  0  0  0  0  0  0  0  0  0  0  0
  141.6860   79.0700  223.6540 C   0  0  0  0  0  0  0  0  0  0  0  0
  142.5540   80.0040  224.2090 C   0  0  0  0  0  0  0  0  0  0  0  0
  142.5410   81.2650  223.6410 C   0  0  0  0  0  0  0  0  0  0  0  0
  141.7080   81.5640  222.5820 C   0  0  0  0  0  0  0  0  0  0  0  0
  140.8450   80.6070  222.0420 C   0  0  0  0  0  0  0  0  0  0  0  0
  139.4530   74.3640  221.7690 C   0  0  0  0  0  0  0  0  0  0  0  0
  138.7920   72.9850  221.9730 C   0  0  0  0  0  0  0  0  0  0  0  0
  140.0065   68.8742  222.4177 H   0  0  0  0  0  0  0  0  0  0  0  0
  139.5193   68.0890  220.8773 H   0  0  0  0  0  0  0  0  0  0  0  0
  140.0809   69.7953  220.8773 H   0  0  0  0  0  0  0  0  0  0  0  0
  137.7797   70.1541  220.8229 H   0  0  0  0  0  0  0  0  0  0  0  0
  137.4000   68.6493  221.6951 H   0  0  0  0  0  0  0  0  0  0  0  0
  138.9407   68.5510  224.2001 H   0  0  0  0  0  0  0  0  0  0  0  0
  139.8766   67.5259  226.2770 H   0  0  0  0  0  0  0  0  0  0  0  0
  141.0969   68.9627  227.8968 H   0  0  0  0  0  0  0  0  0  0  0  0
  141.3774   71.3781  227.4589 H   0  0  0  0  0  0  0  0  0  0  0  0
  140.4437   72.4286  225.3788 H   0  0  0  0  0  0  0  0  0  0  0  0
  139.6464   72.9690  223.8205 H   0  0  0  0  0  0  0  0  0  0  0  0
  141.7715   72.4109  223.2128 H   0  0  0  0  0  0  0  0  0  0  0  0
  141.2302   70.9239  222.3903 H   0  0  0  0  0  0  0  0  0  0  0  0
  142.2668   72.6670  220.8546 H   0  0  0  0  0  0  0  0  0  0  0  0
  140.5959   72.1775  220.4024 H   0  0  0  0  0  0  0  0  0  0  0  0
  140.6330   76.6953  220.1383 H   0  0  0  0  0  0  0  0  0  0  0  0
  142.5650   78.2820  220.7790 H   0  0  0  0  0  0  0  0  0  0  0  0
  143.4360   76.8220  220.3300 H   0  0  0  0  0  0  0  0  0  0  0  0
  140.1492   76.2197  222.5036 H   0  0  0  0  0  0  0  0  0  0  0  0
  141.6555   77.3211  222.7511 H   0  0  0  0  0  0  0  0  0  0  0  0
  139.6115   78.2697  221.0800 H   0  0  0  0  0  0  0  0  0  0  0  0
  139.0250   78.3004  224.0064 H   0  0  0  0  0  0  0  0  0  0  0  0
  138.2176   79.2525  222.7148 H   0  0  0  0  0  0  0  0  0  0  0  0
  138.1020   77.4599  222.7148 H   0  0  0  0  0  0  0  0  0  0  0  0
  141.6627   78.0539  224.0747 H   0  0  0  0  0  0  0  0  0  0  0  0
  143.2141   79.7539  225.0526 H   0  0  0  0  0  0  0  0  0  0  0  0
  143.2069   82.0440  224.0407 H   0  0  0  0  0  0  0  0  0  0  0  0
  141.7238   82.5772  222.1540 H   0  0  0  0  0  0  0  0  0  0  0  0
  140.1825   80.8485  221.1978 H   0  0  0  0  0  0  0  0  0  0  0  0
  139.5147   74.9049  222.7248 H   0  0  0  0  0  0  0  0  0  0  0  0
  138.8731   74.9940  221.0785 H   0  0  0  0  0  0  0  0  0  0  0  0
  137.7656   73.1068  222.3494 H   0  0  0  0  0  0  0  0  0  0  0  0
  138.7326   72.4268  221.0271 H   0  0  0  0  0  0  0  0  0  0  0  0
  1  2  1  0
  2  3  1  0
  3  4  2  0
  3  5  1  0
  5  6  1  0
  6  7  2  0
  7  8  1  0
  8  9  2  0
  9 10  1  0
 10 11  2  0
  5 12  1  0
 12 13  1  0
 13 14  1  0
 14 15  1  0
 15 16  1  0
 16 17  2  0
 16 18  1  0
 18 19  1  0
 18 20  1  0
 20 21  1  0
 21 22  1  0
 21 23  1  0
 23 24  2  0
 24 25  1  0
 25 26  2  0
 26 27  1  0
 27 28  2  0
 15 29  1  0
 29 30  1  0
 11  6  1  0
 30 12  1  0
 28 23  1  0
  1 31  1  0
  1 32  1  0
  1 33  1  0
  2 34  1  0
  2 35  1  0
  7 36  1  0
  8 37  1  0
  9 38  1  0
 10 39  1  0
 11 40  1  0
 12 41  1  0
 13 42  1  0
 13 43  1  0
 14 44  1  0
 14 45  1  0
 18 46  1  6
 19 47  1  0
 19 48  1  0
 20 49  1  0
 20 50  1  0
 21 51  1  6
 22 52  1  0
 22 53  1  0
 22 54  1  0
 24 55  1  0
 25 56  1  0
 26 57  1  0
 27 58  1  0
 28 59  1  0
 29 60  1  0
 29 61  1  0
 30 62  1  0
 30 63  1  0
M  END
>  <smiles>  (79) 
CCC(=O)N(c1ccccc1)C1CCN(C(=O)[C@H](N)CC(C)c2ccccc2)CC1

>  <score_type>  (79) 
oracle

>  <origin>  (79) 
autodockgpu

>  <m_score__min__energy>  (79) 
-8.3599999999999994

>  <m_primary>  (79) 
energy

>  <rmsd>  (79) 
6.4605543211873

>  <m_score__min__rmsd>  (79) 
6.4605543211873

>  <meeko>  (79) 
{"free_energy": -7.44, "intermolecular_energy": -10.12, "internal_energy": -2.41, "cluster_size": 18, "cluster_id": 3, "rank_in_cluster": 18}

>  <energy>  (79) 
-7.62

>  <cluster_rmsd>  (79) 
1.61

>  <cluster>  (79) 
3

$$$$

     RDKit          3D

 63 65  0  0  0  0  0  0  0  0999 V2000
  140.5470   71.9780  222.5090 C   0  0  0  0  0  0  0  0  0  0  0  0
  141.3390   72.4020  221.2770 C   0  0  0  0  0  0  0  0  0  0  0  0
  141.3110   73.8690  221.2250 C   0  0  0  0  0  0  0  0  0  0  0  0
  140.4650   74.4440  221.9960 O   0  0  0  0  0  0  0  0  0  0  0  0
  142.0970   74.7200  220.4320 N   0  0  0  0  0  0  0  0  0  0  0  0
  143.3160   74.1210  219.9090 C   0  0  0  0  0  0  0  0  0  0  0  0
  144.3750   74.0350  220.7890 C   0  0  0  0  0  0  0  0  0  0  0  0
  145.5680   73.4760  220.3640 C   0  0  0  0  0  0  0  0  0  0  0  0
  145.6680   73.0160  219.0650 C   0  0  0  0  0  0  0  0  0  0  0  0
  144.5870   73.1150  218.2010 C   0  0  0  0  0  0  0  0  0  0  0  0
  143.3770   73.6740  218.6050 C   0  0  0  0  0  0  0  0  0  0  0  0
  141.8360   76.0730  220.0610 C   0  0  0  0  0  0  0  0  0  0  0  0
  143.1550   76.7590  219.7270 C   0  0  0  0  0  0  0  0  0  0  0  0
  142.9510   77.5510  218.4540 C   0  0  0  0  0  0  0  0  0  0  0  0
  141.7560   78.3960  218.5790 N   0  0  0  0  0  0  0  0  0  0  0  0
  141.9170   79.7870  218.3230 C   0  0  0  0  0  0  0  0  0  0  0  0
  143.0680   80.1910  218.0050 O   0  0  0  0  0  0  0  0  0  0  0  0
  140.8380   80.7790  218.4030 C   0  0  2  0  0  0  0  0  0  0  0  0
  141.1370   81.9840  217.6630 N   0  0  0  0  0  0  0  0  0  0  0  0
  140.2960   81.0150  219.7630 C   0  0  0  0  0  0  0  0  0  0  0  0
  141.1110   81.6730  220.7770 C   0  0  1  0  0  0  0  0  0  0  0  0
  140.5770   82.8310  221.5230 C   0  0  0  0  0  0  0  0  0  0  0  0
  141.4310   80.6360  221.8250 C   0  0  0  0  0  0  0  0  0  0  0  0
  140.7000   79.4690  221.7510 C   0  0  0  0  0  0  0  0  0  0  0  0
  140.8780   78.4180  222.6440 C   0  0  0  0  0  0  0  0  0  0  0  0
  141.8360   78.6030  223.6250 C   0  0  0  0  0  0  0  0  0  0  0  0
  142.5670   79.7720  223.6990 C   0  0  0  0  0  0  0  0  0  0  0  0
  142.3690   80.8130  222.7890 C   0  0  0  0  0  0  0  0  0  0  0  0
  140.5120   77.7800  218.9460 C   0  0  0  0  0  0  0  0  0  0  0  0
  140.7970   76.2650  219.0040 C   0  0  0  0  0  0  0  0  0  0  0  0
  141.0953   72.2715  223.4163 H   0  0  0  0  0  0  0  0  0  0  0  0
  139.5633   72.4701  222.4998 H   0  0  0  0  0  0  0  0  0  0  0  0
  140.4111   70.8865  222.4998 H   0  0  0  0  0  0  0  0  0  0  0  0
  142.3773   72.0477  221.3564 H   0  0  0  0  0  0  0  0  0  0  0  0
  140.9011   71.9711  220.3646 H   0  0  0  0  0  0  0  0  0  0  0  0
  144.2723   74.4072  221.8190 H   0  0  0  0  0  0  0  0  0  0  0  0
  146.4240   73.3991  221.0506 H   0  0  0  0  0  0  0  0  0  0  0  0
  146.6097   72.5689  218.7140 H   0  0  0  0  0  0  0  0  0  0  0  0
  144.6881   72.7426  217.1709 H   0  0  0  0  0  0  0  0  0  0  0  0
  142.5180   73.7546  217.9227 H   0  0  0  0  0  0  0  0  0  0  0  0
  141.3733   76.5569  220.9338 H   0  0  0  0  0  0  0  0  0  0  0  0
  143.4444   77.4339  220.5460 H   0  0  0  0  0  0  0  0  0  0  0  0
  143.9541   76.0147  219.5943 H   0  0  0  0  0  0  0  0  0  0  0  0
  143.8306   78.1868  218.2747 H   0  0  0  0  0  0  0  0  0  0  0  0
  142.8176   76.8562  217.6117 H   0  0  0  0  0  0  0  0  0  0  0  0
  139.9874   80.3112  217.8856 H   0  0  0  0  0  0  0  0  0  0  0  0
  140.6420   82.8140  217.9870 H   0  0  0  0  0  0  0  0  0  0  0  0
  142.0910   82.0770  217.3170 H   0  0  0  0  0  0  0  0  0  0  0  0
  139.3900   81.6267  219.6402 H   0  0  0  0  0  0  0  0  0  0  0  0
  140.1750   79.9974  220.1628 H   0  0  0  0  0  0  0  0  0  0  0  0
  141.9408   82.0887  220.1865 H   0  0  0  0  0  0  0  0  0  0  0  0
  140.6638   82.6428  222.6033 H   0  0  0  0  0  0  0  0  0  0  0  0
  141.1504   83.7323  221.2606 H   0  0  0  0  0  0  0  0  0  0  0  0
  139.5192   82.9801  221.2606 H   0  0  0  0  0  0  0  0  0  0  0  0
  139.9475   79.3656  220.9554 H   0  0  0  0  0  0  0  0  0  0  0  0
  140.2899   77.4910  222.5743 H   0  0  0  0  0  0  0  0  0  0  0  0
  142.0185   77.8044  224.3591 H   0  0  0  0  0  0  0  0  0  0  0  0
  143.3213   79.8859  224.4915 H   0  0  0  0  0  0  0  0  0  0  0  0
  142.9528   81.7432  222.8518 H   0  0  0  0  0  0  0  0  0  0  0  0
  140.1783   78.1453  219.9285 H   0  0  0  0  0  0  0  0  0  0  0  0
  139.7145   78.0156  218.2260 H   0  0  0  0  0  0  0  0  0  0  0  0
  139.8811   75.7150  219.2661 H   0  0  0  0  0  0  0  0  0  0  0  0
  141.1423   75.8859  218.0308 H   0  0  0  0  0  0  0  0  0  0  0  0
  1  2  1  0
  2  3  1  0
  3  4  2  0
  3  5  1  0
  5  6  1  0
  6  7  2  0
  7  8  1  0
  8  9  2  0
  9 10  1  0
 10 11  2  0
  5 12  1  0
 12 13  1  0
 13 14  1  0
 14 15  1  0
 15 16  1  0
 16 17  2  0
 16 18  1  0
 18 19  1  0
 18 20  1  0
 20 21  1  0
 21 22  1  0
 21 23  1  0
 23 24  2  0
 24 25  1  0
 25 26  2  0
 26 27  1  0
 27 28  2  0
 15 29  1  0
 29 30  1  0
 11  6  1  0
 30 12  1  0
 28 23  1  0
  1 31  1  0
  1 32  1  0
  1 33  1  0
  2 34  1  0
  2 35  1  0
  7 36  1  0
  8 37  1  0
  9 38  1  0
 10 39  1  0
 11 40  1  0
 12 41  1  0
 13 42  1  0
 13 43  1  0
 14 44  1  0
 14 45  1  0
 18 46  1  6
 19 47  1  0
 19 48  1  0
 20 49  1  0
 20 50  1  0
 21 51  1  6
 22 52  1  0
 22 53  1  0
 22 54  1  0
 24 55  1  0
 25 56  1  0
 26 57  1  0
 27 58  1  0
 28 59  1  0
 29 60  1  0
 29 61  1  0
 30 62  1  0
 30 63  1  0
M  END
>  <smiles>  (80) 
CCC(=O)N(c1ccccc1)C1CCN(C(=O)[C@H](N)CC(C)c2ccccc2)CC1

>  <score_type>  (80) 
oracle

>  <origin>  (80) 
autodockgpu

>  <m_score__min__energy>  (80) 
-8.3599999999999994

>  <m_primary>  (80) 
energy

>  <rmsd>  (80) 
6.000794461379517

>  <m_score__min__rmsd>  (80) 
6.000794461379517

>  <meeko>  (80) 
{"free_energy": -6.23, "intermolecular_energy": -8.92, "internal_energy": -3.23, "cluster_size": 2, "cluster_id": 7, "rank_in_cluster": 2}

>  <energy>  (80) 
-7.62

>  <cluster_rmsd>  (80) 
1.27

>  <cluster>  (80) 
3

$$$$

     RDKit          3D

 63 65  0  0  0  0  0  0  0  0999 V2000
  144.0600   74.1530  218.0120 C   0  0  0  0  0  0  0  0  0  0  0  0
  144.7560   72.8900  217.5190 C   0  0  0  0  0  0  0  0  0  0  0  0
  145.1230   72.1040  218.7030 C   0  0  0  0  0  0  0  0  0  0  0  0
  146.1800   72.4780  219.3220 O   0  0  0  0  0  0  0  0  0  0  0  0
  144.4580   70.9900  219.2400 N   0  0  0  0  0  0  0  0  0  0  0  0
  145.0430   69.7010  218.8970 C   0  0  0  0  0  0  0  0  0  0  0  0
  144.7890   68.6680  219.7750 C   0  0  0  0  0  0  0  0  0  0  0  0
  145.3120   67.4120  219.5150 C   0  0  0  0  0  0  0  0  0  0  0  0
  146.0750   67.2250  218.3790 C   0  0  0  0  0  0  0  0  0  0  0  0
  146.3150   68.2830  217.5130 C   0  0  0  0  0  0  0  0  0  0  0  0
  145.8000   69.5550  217.7530 C   0  0  0  0  0  0  0  0  0  0  0  0
  143.3110   70.9690  220.0890 C   0  0  0  0  0  0  0  0  0  0  0  0
  143.2140   72.3010  220.8220 C   0  0  0  0  0  0  0  0  0  0  0  0
  141.7710   72.7520  220.7650 C   0  0  0  0  0  0  0  0  0  0  0  0
  140.8900   71.6640  221.2080 N   0  0  0  0  0  0  0  0  0  0  0  0
  139.9740   71.9590  222.2570 C   0  0  0  0  0  0  0  0  0  0  0  0
  139.9820   73.1290  222.7250 O   0  0  0  0  0  0  0  0  0  0  0  0
  139.0240   70.9970  222.8270 C   0  0  2  0  0  0  0  0  0  0  0  0
  137.9020   71.6420  223.4730 N   0  0  0  0  0  0  0  0  0  0  0  0
  139.6330   69.8970  223.6150 C   0  0  0  0  0  0  0  0  0  0  0  0
  139.1000   69.5480  224.9260 C   0  0  1  0  0  0  0  0  0  0  0  0
  139.1900   68.1570  225.4170 C   0  0  0  0  0  0  0  0  0  0  0  0
  139.8470   70.3790  225.9400 C   0  0  0  0  0  0  0  0  0  0  0  0
  139.6330   70.0430  227.2600 C   0  0  0  0  0  0  0  0  0  0  0  0
  140.2480   70.7140  228.3100 C   0  0  0  0  0  0  0  0  0  0  0  0
  141.0970   71.7490  227.9630 C   0  0  0  0  0  0  0  0  0  0  0  0
  141.3110   72.0860  226.6410 C   0  0  0  0  0  0  0  0  0  0  0  0
  140.6800   71.3960  225.6030 C   0  0  0  0  0  0  0  0  0  0  0  0
  141.0020   70.3830  220.5670 C   0  0  0  0  0  0  0  0  0  0  0  0
  142.0290   70.5720  219.4330 C   0  0  0  0  0  0  0  0  0  0  0  0
  144.0545   74.1630  219.1119 H   0  0  0  0  0  0  0  0  0  0  0  0
  144.5982   75.0373  217.6399 H   0  0  0  0  0  0  0  0  0  0  0  0
  143.0250   74.1703  217.6399 H   0  0  0  0  0  0  0  0  0  0  0  0
  144.0749   72.3104  216.8785 H   0  0  0  0  0  0  0  0  0  0  0  0
  145.6481   73.1425  216.9271 H   0  0  0  0  0  0  0  0  0  0  0  0
  144.1771   68.8399  220.6728 H   0  0  0  0  0  0  0  0  0  0  0  0
  145.1223   66.5754  220.2035 H   0  0  0  0  0  0  0  0  0  0  0  0
  146.4948   66.2323  218.1593 H   0  0  0  0  0  0  0  0  0  0  0  0
  146.9270   68.1128  216.6150 H   0  0  0  0  0  0  0  0  0  0  0  0
  145.9865   70.3958  217.0687 H   0  0  0  0  0  0  0  0  0  0  0  0
  143.4655   70.1543  220.8117 H   0  0  0  0  0  0  0  0  0  0  0  0
  143.5266   72.1762  221.8692 H   0  0  0  0  0  0  0  0  0  0  0  0
  143.8706   73.0484  220.3526 H   0  0  0  0  0  0  0  0  0  0  0  0
  141.6346   73.6228  221.4232 H   0  0  0  0  0  0  0  0  0  0  0  0
  141.5173   73.0251  219.7301 H   0  0  0  0  0  0  0  0  0  0  0  0
  138.6079   70.4658  221.9582 H   0  0  0  0  0  0  0  0  0  0  0  0
  138.0290   72.6390  223.6460 H   0  0  0  0  0  0  0  0  0  0  0  0
  136.9770   71.2930  223.2260 H   0  0  0  0  0  0  0  0  0  0  0  0
  139.5669   68.9904  222.9955 H   0  0  0  0  0  0  0  0  0  0  0  0
  140.6360   70.2836  223.8487 H   0  0  0  0  0  0  0  0  0  0  0  0
  138.0213   69.7248  224.8033 H   0  0  0  0  0  0  0  0  0  0  0  0
  139.1901   68.1557  226.5170 H   0  0  0  0  0  0  0  0  0  0  0  0
  138.3272   67.5820  225.0497 H   0  0  0  0  0  0  0  0  0  0  0  0
  140.1197   67.6979  225.0497 H   0  0  0  0  0  0  0  0  0  0  0  0
  138.9496   69.2124  227.4906 H   0  0  0  0  0  0  0  0  0  0  0  0
  140.0693   70.4371  229.3595 H   0  0  0  0  0  0  0  0  0  0  0  0
  141.6112   72.3141  228.7544 H   0  0  0  0  0  0  0  0  0  0  0  0
  141.9926   72.9151  226.4002 H   0  0  0  0  0  0  0  0  0  0  0  0
  140.8520   71.6672  224.5509 H   0  0  0  0  0  0  0  0  0  0  0  0
  141.3556   69.6259  221.2823 H   0  0  0  0  0  0  0  0  0  0  0  0
  140.0319   70.0355  220.1822 H   0  0  0  0  0  0  0  0  0  0  0  0
  142.1607   69.6315  218.8779 H   0  0  0  0  0  0  0  0  0  0  0  0
  141.6949   71.3351  218.7146 H   0  0  0  0  0  0  0  0  0  0  0  0
  1  2  1  0
  2  3  1  0
  3  4  2  0
  3  5  1  0
  5  6  1  0
  6  7  2  0
  7  8  1  0
  8  9  2  0
  9 10  1  0
 10 11  2  0
  5 12  1  0
 12 13  1  0
 13 14  1  0
 14 15  1  0
 15 16  1  0
 16 17  2  0
 16 18  1  0
 18 19  1  0
 18 20  1  0
 20 21  1  0
 21 22  1  0
 21 23  1  0
 23 24  2  0
 24 25  1  0
 25 26  2  0
 26 27  1  0
 27 28  2  0
 15 29  1  0
 29 30  1  0
 11  6  1  0
 30 12  1  0
 28 23  1  0
  1 31  1  0
  1 32  1  0
  1 33  1  0
  2 34  1  0
  2 35  1  0
  7 36  1  0
  8 37  1  0
  9 38  1  0
 10 39  1  0
 11 40  1  0
 12 41  1  0
 13 42  1  0
 13 43  1  0
 14 44  1  0
 14 45  1  0
 18 46  1  6
 19 47  1  0
 19 48  1  0
 20 49  1  0
 20 50  1  0
 21 51  1  6
 22 52  1  0
 22 53  1  0
 22 54  1  0
 24 55  1  0
 25 56  1  0
 26 57  1  0
 27 58  1  0
 28 59  1  0
 29 60  1  0
 29 61  1  0
 30 62  1  0
 30 63  1  0
M  END
>  <smiles>  (81) 
CCC(=O)N(c1ccccc1)C1CCN(C(=O)[C@H](N)CC(C)c2ccccc2)CC1

>  <score_type>  (81) 
oracle

>  <origin>  (81) 
autodockgpu

>  <m_score__min__energy>  (81) 
-8.3599999999999994

>  <m_primary>  (81) 
energy

>  <rmsd>  (81) 
9.218774700912999

>  <m_score__min__rmsd>  (81) 
9.218774700912999

>  <meeko>  (81) 
{"free_energy": -8.15, "intermolecular_energy": -10.83, "internal_energy": -2.56, "cluster_size": 11, "cluster_id": 1, "rank_in_cluster": 4}

>  <energy>  (81) 
-7.61

>  <cluster_rmsd>  (81) 
0.78

>  <cluster>  (81) 
3

$$$$

     RDKit          3D

 63 65  0  0  0  0  0  0  0  0999 V2000
  142.5780   79.6770  218.1610 C   0  0  0  0  0  0  0  0  0  0  0  0
  142.3220   78.2210  218.5310 C   0  0  0  0  0  0  0  0  0  0  0  0
  141.2720   78.2110  219.5580 C   0  0  0  0  0  0  0  0  0  0  0  0
  140.1470   78.7210  219.2180 O   0  0  0  0  0  0  0  0  0  0  0  0
  141.3500   77.7120  220.8680 N   0  0  0  0  0  0  0  0  0  0  0  0
  141.6680   78.7030  221.8850 C   0  0  0  0  0  0  0  0  0  0  0  0
  141.5190   78.2970  223.1950 C   0  0  0  0  0  0  0  0  0  0  0  0
  141.8030   79.1860  224.2180 C   0  0  0  0  0  0  0  0  0  0  0  0
  142.2320   80.4600  223.9010 C   0  0  0  0  0  0  0  0  0  0  0  0
  142.3720   80.8420  222.5740 C   0  0  0  0  0  0  0  0  0  0  0  0
  142.0920   79.9660  221.5270 C   0  0  0  0  0  0  0  0  0  0  0  0
  141.1330   76.3750  221.3190 C   0  0  0  0  0  0  0  0  0  0  0  0
  139.6600   76.2010  221.6630 C   0  0  0  0  0  0  0  0  0  0  0  0
  139.2030   74.8830  221.0790 C   0  0  0  0  0  0  0  0  0  0  0  0
  140.1280   73.8130  221.4780 N   0  0  0  0  0  0  0  0  0  0  0  0
  139.5610   72.6710  222.1100 C   0  0  0  0  0  0  0  0  0  0  0  0
  138.3120   72.6570  222.2770 O   0  0  0  0  0  0  0  0  0  0  0  0
  140.3300   71.5120  222.5780 C   0  0  2  0  0  0  0  0  0  0  0  0
  139.8800   70.2720  221.9850 N   0  0  0  0  0  0  0  0  0  0  0  0
  140.5460   71.4450  224.0440 C   0  0  0  0  0  0  0  0  0  0  0  0
  139.4450   71.1020  224.9360 C   0  0  1  0  0  0  0  0  0  0  0  0
  138.4160   70.1320  224.5050 C   0  0  0  0  0  0  0  0  0  0  0  0
  140.0560   70.5100  226.1820 C   0  0  0  0  0  0  0  0  0  0  0  0
  140.0620   69.1330  226.2460 C   0  0  0  0  0  0  0  0  0  0  0  0
  140.5890   68.4380  227.3280 C   0  0  0  0  0  0  0  0  0  0  0  0
  141.1140   69.2050  228.3520 C   0  0  0  0  0  0  0  0  0  0  0  0
  141.1080   70.5850  228.2880 C   0  0  0  0  0  0  0  0  0  0  0  0
  140.5710   71.2590  227.1880 C   0  0  0  0  0  0  0  0  0  0  0  0
  141.5300   73.9800  221.2120 C   0  0  0  0  0  0  0  0  0  0  0  0
  141.6510   75.2980  220.4210 C   0  0  0  0  0  0  0  0  0  0  0  0
  142.6832   80.2753  219.0780 H   0  0  0  0  0  0  0  0  0  0  0  0
  143.5024   79.7478  217.5689 H   0  0  0  0  0  0  0  0  0  0  0  0
  141.7332   80.0589  217.5689 H   0  0  0  0  0  0  0  0  0  0  0  0
  141.9881   77.6604  217.6454 H   0  0  0  0  0  0  0  0  0  0  0  0
  143.2404   77.7469  218.9075 H   0  0  0  0  0  0  0  0  0  0  0  0
  141.1778   77.2768  223.4247 H   0  0  0  0  0  0  0  0  0  0  0  0
  141.6885   78.8817  225.2688 H   0  0  0  0  0  0  0  0  0  0  0  0
  142.4638   81.1752  224.7039 H   0  0  0  0  0  0  0  0  0  0  0  0
  142.7126   81.8621  222.3429 H   0  0  0  0  0  0  0  0  0  0  0  0
  142.2028   80.2648  220.4742 H   0  0  0  0  0  0  0  0  0  0  0  0
  141.7463   76.2419  222.2224 H   0  0  0  0  0  0  0  0  0  0  0  0
  139.5290   76.1921  222.7551 H   0  0  0  0  0  0  0  0  0  0  0  0
  139.0677   77.0309  221.2501 H   0  0  0  0  0  0  0  0  0  0  0  0
  138.1938   74.6500  221.4495 H   0  0  0  0  0  0  0  0  0  0  0  0
  139.1874   74.9585  219.9817 H   0  0  0  0  0  0  0  0  0  0  0  0
  141.3477   71.6785  222.1952 H   0  0  0  0  0  0  0  0  0  0  0  0
  138.9320   70.3010  221.6130 H   0  0  0  0  0  0  0  0  0  0  0  0
  140.5870   69.7190  221.5040 H   0  0  0  0  0  0  0  0  0  0  0  0
  141.3344   70.6968  224.2132 H   0  0  0  0  0  0  0  0  0  0  0  0
  140.7668   72.4890  224.3111 H   0  0  0  0  0  0  0  0  0  0  0  0
  138.9017   72.0541  225.0268 H   0  0  0  0  0  0  0  0  0  0  0  0
  137.9408   69.6840  225.3901 H   0  0  0  0  0  0  0  0  0  0  0  0
  137.6547   70.6487  223.9021 H   0  0  0  0  0  0  0  0  0  0  0  0
  138.8869   69.3416  223.9021 H   0  0  0  0  0  0  0  0  0  0  0  0
  139.6333   68.5626  225.4088 H   0  0  0  0  0  0  0  0  0  0  0  0
  140.5886   67.3387  227.3677 H   0  0  0  0  0  0  0  0  0  0  0  0
  141.5442   68.7072  229.2335 H   0  0  0  0  0  0  0  0  0  0  0  0
  141.5346   71.1649  229.1197 H   0  0  0  0  0  0  0  0  0  0  0  0
  140.5663   72.3579  227.1400 H   0  0  0  0  0  0  0  0  0  0  0  0
  142.0940   74.0451  222.1542 H   0  0  0  0  0  0  0  0  0  0  0  0
  141.9402   73.1292  220.6482 H   0  0  0  0  0  0  0  0  0  0  0  0
  142.7023   75.4913  220.1614 H   0  0  0  0  0  0  0  0  0  0  0  0
  141.0823   75.2536  219.4805 H   0  0  0  0  0  0  0  0  0  0  0  0
  1  2  1  0
  2  3  1  0
  3  4  2  0
  3  5  1  0
  5  6  1  0
  6  7  2  0
  7  8  1  0
  8  9  2  0
  9 10  1  0
 10 11  2  0
  5 12  1  0
 12 13  1  0
 13 14  1  0
 14 15  1  0
 15 16  1  0
 16 17  2  0
 16 18  1  0
 18 19  1  0
 18 20  1  0
 20 21  1  0
 21 22  1  0
 21 23  1  0
 23 24  2  0
 24 25  1  0
 25 26  2  0
 26 27  1  0
 27 28  2  0
 15 29  1  0
 29 30  1  0
 11  6  1  0
 30 12  1  0
 28 23  1  0
  1 31  1  0
  1 32  1  0
  1 33  1  0
  2 34  1  0
  2 35  1  0
  7 36  1  0
  8 37  1  0
  9 38  1  0
 10 39  1  0
 11 40  1  0
 12 41  1  0
 13 42  1  0
 13 43  1  0
 14 44  1  0
 14 45  1  0
 18 46  1  6
 19 47  1  0
 19 48  1  0
 20 49  1  0
 20 50  1  0
 21 51  1  1
 22 52  1  0
 22 53  1  0
 22 54  1  0
 24 55  1  0
 25 56  1  0
 26 57  1  0
 27 58  1  0
 28 59  1  0
 29 60  1  0
 29 61  1  0
 30 62  1  0
 30 63  1  0
M  END
>  <smiles>  (82) 
CCC(=O)N(c1ccccc1)C1CCN(C(=O)[C@H](N)CC(C)c2ccccc2)CC1

>  <score_type>  (82) 
oracle

>  <origin>  (82) 
autodockgpu

>  <m_score__min__energy>  (82) 
-8.3599999999999994

>  <m_primary>  (82) 
energy

>  <rmsd>  (82) 
7.016998217764538

>  <m_score__min__rmsd>  (82) 
7.016998217764538

>  <meeko>  (82) 
{"free_energy": -7.91, "intermolecular_energy": -10.59, "internal_energy": -1.89, "cluster_size": 7, "cluster_id": 2, "rank_in_cluster": 4}

>  <energy>  (82) 
-7.6

>  <cluster_rmsd>  (82) 
1.31

>  <cluster>  (82) 
3

$$$$

     RDKit          3D

 63 65  0  0  0  0  0  0  0  0999 V2000
  146.2560   73.5710  216.6740 C   0  0  0  0  0  0  0  0  0  0  0  0
  145.1300   72.5830  216.9560 C   0  0  0  0  0  0  0  0  0  0  0  0
  145.3310   72.0710  218.3180 C   0  0  0  0  0  0  0  0  0  0  0  0
  146.2480   72.6440  219.0060 O   0  0  0  0  0  0  0  0  0  0  0  0
  144.6420   71.0300  218.9600 N   0  0  0  0  0  0  0  0  0  0  0  0
  145.1710   69.6970  218.7090 C   0  0  0  0  0  0  0  0  0  0  0  0
  144.9440   68.7600  219.6960 C   0  0  0  0  0  0  0  0  0  0  0  0
  145.4180   67.4690  219.5280 C   0  0  0  0  0  0  0  0  0  0  0  0
  146.1060   67.1520  218.3730 C   0  0  0  0  0  0  0  0  0  0  0  0
  146.3190   68.1150  217.3970 C   0  0  0  0  0  0  0  0  0  0  0  0
  145.8530   69.4200  217.5430 C   0  0  0  0  0  0  0  0  0  0  0  0
  143.5180   71.1210  219.8350 C   0  0  0  0  0  0  0  0  0  0  0  0
  143.4500   72.5300  220.4090 C   0  0  0  0  0  0  0  0  0  0  0  0
  142.0090   72.9860  220.3370 C   0  0  0  0  0  0  0  0  0  0  0  0
  141.1320   71.9660  220.9270 N   0  0  0  0  0  0  0  0  0  0  0  0
  140.2470   72.3920  221.9580 C   0  0  0  0  0  0  0  0  0  0  0  0
  140.2760   73.6090  222.2850 O   0  0  0  0  0  0  0  0  0  0  0  0
  139.3060   71.5130  222.6610 C   0  0  2  0  0  0  0  0  0  0  0  0
  138.1590   72.2280  223.1750 N   0  0  0  0  0  0  0  0  0  0  0  0
  139.9220   70.5710  223.6270 C   0  0  0  0  0  0  0  0  0  0  0  0
  139.1470   70.0570  224.7510 C   0  0  1  0  0  0  0  0  0  0  0  0
  138.9760   68.6000  224.9290 C   0  0  0  0  0  0  0  0  0  0  0  0
  139.8270   70.5370  226.0100 C   0  0  0  0  0  0  0  0  0  0  0  0
  140.7010   71.5900  225.8500 C   0  0  0  0  0  0  0  0  0  0  0  0
  141.4040   72.1450  226.9140 C   0  0  0  0  0  0  0  0  0  0  0  0
  141.1810   71.5810  228.1560 C   0  0  0  0  0  0  0  0  0  0  0  0
  140.3050   70.5250  228.3160 C   0  0  0  0  0  0  0  0  0  0  0  0
  139.6110   69.9860  227.2300 C   0  0  0  0  0  0  0  0  0  0  0  0
  141.2180   70.6190  220.4390 C   0  0  0  0  0  0  0  0  0  0  0  0
  142.2150   70.6620  219.2630 C   0  0  0  0  0  0  0  0  0  0  0  0
  146.6711   73.9352  217.6254 H   0  0  0  0  0  0  0  0  0  0  0  0
  147.0471   73.0703  216.0966 H   0  0  0  0  0  0  0  0  0  0  0  0
  145.8624   74.4205  216.0966 H   0  0  0  0  0  0  0  0  0  0  0  0
  144.1567   73.0905  216.8842 H   0  0  0  0  0  0  0  0  0  0  0  0
  145.1400   71.7612  216.2249 H   0  0  0  0  0  0  0  0  0  0  0  0
  144.3923   69.0352  220.6070 H   0  0  0  0  0  0  0  0  0  0  0  0
  145.2488   66.7073  220.3034 H   0  0  0  0  0  0  0  0  0  0  0  0
  146.4871   66.1306  218.2261 H   0  0  0  0  0  0  0  0  0  0  0  0
  146.8697   67.8413  216.4849 H   0  0  0  0  0  0  0  0  0  0  0  0
  146.0198   70.1862  216.7715 H   0  0  0  0  0  0  0  0  0  0  0  0
  143.6863   70.3955  220.6446 H   0  0  0  0  0  0  0  0  0  0  0  0
  143.7898   72.5253  221.4552 H   0  0  0  0  0  0  0  0  0  0  0  0
  144.0989   73.2106  219.8383 H   0  0  0  0  0  0  0  0  0  0  0  0
  141.8966   73.9290  220.8921 H   0  0  0  0  0  0  0  0  0  0  0  0
  141.7296   73.1389  219.2841 H   0  0  0  0  0  0  0  0  0  0  0  0
  138.9180   70.8378  221.8841 H   0  0  0  0  0  0  0  0  0  0  0  0
  137.8250   71.8990  224.0800 H   0  0  0  0  0  0  0  0  0  0  0  0
  138.1130   73.2230  222.9590 H   0  0  0  0  0  0  0  0  0  0  0  0
  140.2557   69.6976  223.0476 H   0  0  0  0  0  0  0  0  0  0  0  0
  140.6934   71.1842  224.1158 H   0  0  0  0  0  0  0  0  0  0  0  0
  138.1335   70.4263  224.5355 H   0  0  0  0  0  0  0  0  0  0  0  0
  138.9481   68.3626  226.0027 H   0  0  0  0  0  0  0  0  0  0  0  0
  138.0343   68.2811  224.4584 H   0  0  0  0  0  0  0  0  0  0  0  0
  139.8183   68.0718  224.4584 H   0  0  0  0  0  0  0  0  0  0  0  0
  140.8483   72.0074  224.8430 H   0  0  0  0  0  0  0  0  0  0  0  0
  142.0990   72.9862  226.7748 H   0  0  0  0  0  0  0  0  0  0  0  0
  141.7109   71.9805  229.0333 H   0  0  0  0  0  0  0  0  0  0  0  0
  140.1508   70.0999  229.3188 H   0  0  0  0  0  0  0  0  0  0  0  0
  138.9143   69.1447  227.3599 H   0  0  0  0  0  0  0  0  0  0  0  0
  141.5860   69.9479  221.2291 H   0  0  0  0  0  0  0  0  0  0  0  0
  140.2352   70.2388  220.1234 H   0  0  0  0  0  0  0  0  0  0  0  0
  142.3249   69.6612  218.8199 H   0  0  0  0  0  0  0  0  0  0  0  0
  141.8669   71.3377  218.4679 H   0  0  0  0  0  0  0  0  0  0  0  0
  1  2  1  0
  2  3  1  0
  3  4  2  0
  3  5  1  0
  5  6  1  0
  6  7  2  0
  7  8  1  0
  8  9  2  0
  9 10  1  0
 10 11  2  0
  5 12  1  0
 12 13  1  0
 13 14  1  0
 14 15  1  0
 15 16  1  0
 16 17  2  0
 16 18  1  0
 18 19  1  0
 18 20  1  0
 20 21  1  0
 21 22  1  0
 21 23  1  0
 23 24  2  0
 24 25  1  0
 25 26  2  0
 26 27  1  0
 27 28  2  0
 15 29  1  0
 29 30  1  0
 11  6  1  0
 30 12  1  0
 28 23  1  0
  1 31  1  0
  1 32  1  0
  1 33  1  0
  2 34  1  0
  2 35  1  0
  7 36  1  0
  8 37  1  0
  9 38  1  0
 10 39  1  0
 11 40  1  0
 12 41  1  0
 13 42  1  0
 13 43  1  0
 14 44  1  0
 14 45  1  0
 18 46  1  6
 19 47  1  0
 19 48  1  0
 20 49  1  0
 20 50  1  0
 21 51  1  6
 22 52  1  0
 22 53  1  0
 22 54  1  0
 24 55  1  0
 25 56  1  0
 26 57  1  0
 27 58  1  0
 28 59  1  0
 29 60  1  0
 29 61  1  0
 30 62  1  0
 30 63  1  0
M  END
>  <smiles>  (83) 
CCC(=O)N(c1ccccc1)C1CCN(C(=O)[C@H](N)CC(C)c2ccccc2)CC1

>  <score_type>  (83) 
oracle

>  <origin>  (83) 
autodockgpu

>  <m_score__min__energy>  (83) 
-8.3599999999999994

>  <m_primary>  (83) 
energy

>  <rmsd>  (83) 
8.839275176053297

>  <m_score__min__rmsd>  (83) 
8.839275176053297

>  <meeko>  (83) 
{"free_energy": -8.31, "intermolecular_energy": -11.0, "internal_energy": -2.28, "cluster_size": 11, "cluster_id": 1, "rank_in_cluster": 2}

>  <energy>  (83) 
-7.6

>  <cluster_rmsd>  (83) 
0.79

>  <cluster>  (83) 
3

$$$$

     RDKit          3D

 63 65  0  0  0  0  0  0  0  0999 V2000
  138.4880   67.6960  222.7330 C   0  0  0  0  0  0  0  0  0  0  0  0
  138.8250   69.0450  222.1080 C   0  0  0  0  0  0  0  0  0  0  0  0
  138.5310   70.0760  223.1120 C   0  0  0  0  0  0  0  0  0  0  0  0
  137.3250   70.1140  223.5430 O   0  0  0  0  0  0  0  0  0  0  0  0
  139.4080   71.0270  223.6560 N   0  0  0  0  0  0  0  0  0  0  0  0
  139.8740   70.7340  225.0030 C   0  0  0  0  0  0  0  0  0  0  0  0
  139.4600   69.5330  225.5390 C   0  0  0  0  0  0  0  0  0  0  0  0
  139.8640   69.1840  226.8180 C   0  0  0  0  0  0  0  0  0  0  0  0
  140.6740   70.0510  227.5250 C   0  0  0  0  0  0  0  0  0  0  0  0
  141.0750   71.2540  226.9610 C   0  0  0  0  0  0  0  0  0  0  0  0
  140.6820   71.6270  225.6770 C   0  0  0  0  0  0  0  0  0  0  0  0
  139.9110   72.2160  223.0470 C   0  0  0  0  0  0  0  0  0  0  0  0
  141.2210   71.8950  222.3390 C   0  0  0  0  0  0  0  0  0  0  0  0
  141.1830   72.5580  220.9800 C   0  0  0  0  0  0  0  0  0  0  0  0
  140.8160   73.9730  221.1240 N   0  0  0  0  0  0  0  0  0  0  0  0
  141.6920   74.9320  220.5420 C   0  0  0  0  0  0  0  0  0  0  0  0
  142.7120   74.5000  219.9420 O   0  0  0  0  0  0  0  0  0  0  0  0
  141.4860   76.3840  220.5910 C   0  0  2  0  0  0  0  0  0  0  0  0
  142.5670   77.1180  219.9710 N   0  0  0  0  0  0  0  0  0  0  0  0
  141.0610   76.9190  221.9080 C   0  0  0  0  0  0  0  0  0  0  0  0
  140.1560   78.0600  221.9820 C   0  0  1  0  0  0  0  0  0  0  0  0
  138.8920   77.9570  222.7410 C   0  0  0  0  0  0  0  0  0  0  0  0
  140.9210   79.1870  222.6300 C   0  0  0  0  0  0  0  0  0  0  0  0
  142.2940   79.1040  222.5400 C   0  0  0  0  0  0  0  0  0  0  0  0
  143.1380   80.0640  223.0860 C   0  0  0  0  0  0  0  0  0  0  0  0
  142.5250   81.1220  223.7330 C   0  0  0  0  0  0  0  0  0  0  0  0
  141.1490   81.2050  223.8230 C   0  0  0  0  0  0  0  0  0  0  0  0
  140.3230   80.2260  223.2650 C   0  0  0  0  0  0  0  0  0  0  0  0
  139.6120   74.3020  221.8360 C   0  0  0  0  0  0  0  0  0  0  0  0
  138.9450   72.9540  222.1760 C   0  0  0  0  0  0  0  0  0  0  0  0
  138.5100   67.7840  223.8293 H   0  0  0  0  0  0  0  0  0  0  0  0
  137.4841   67.3830  222.4104 H   0  0  0  0  0  0  0  0  0  0  0  0
  139.2268   66.9476  222.4104 H   0  0  0  0  0  0  0  0  0  0  0  0
  139.8901   69.0780  221.8350 H   0  0  0  0  0  0  0  0  0  0  0  0
  138.2341   69.2102  221.1950 H   0  0  0  0  0  0  0  0  0  0  0  0
  138.8151   68.8582  224.9570 H   0  0  0  0  0  0  0  0  0  0  0  0
  139.5442   68.2305  227.2635 H   0  0  0  0  0  0  0  0  0  0  0  0
  141.0031   69.7865  228.5407 H   0  0  0  0  0  0  0  0  0  0  0  0
  141.7193   71.9302  227.5421 H   0  0  0  0  0  0  0  0  0  0  0  0
  140.9980   72.5793  225.2262 H   0  0  0  0  0  0  0  0  0  0  0  0
  140.0920   72.9358  223.8589 H   0  0  0  0  0  0  0  0  0  0  0  0
  142.0678   72.2851  222.9227 H   0  0  0  0  0  0  0  0  0  0  0  0
  141.3459   70.8072  222.2339 H   0  0  0  0  0  0  0  0  0  0  0  0
  142.1750   72.4845  220.5105 H   0  0  0  0  0  0  0  0  0  0  0  0
  140.4355   72.0522  220.3511 H   0  0  0  0  0  0  0  0  0  0  0  0
  140.6000   76.5629  219.9641 H   0  0  0  0  0  0  0  0  0  0  0  0
  142.9390   77.8810  220.5350 H   0  0  0  0  0  0  0  0  0  0  0  0
  143.2000   76.5780  219.3830 H   0  0  0  0  0  0  0  0  0  0  0  0
  140.5706   76.0916  222.4418 H   0  0  0  0  0  0  0  0  0  0  0  0
  141.9965   77.3151  222.3297 H   0  0  0  0  0  0  0  0  0  0  0  0
  139.8367   78.1830  220.9366 H   0  0  0  0  0  0  0  0  0  0  0  0
  139.1092   77.9747  223.8192 H   0  0  0  0  0  0  0  0  0  0  0  0
  138.2401   78.8050  222.4844 H   0  0  0  0  0  0  0  0  0  0  0  0
  138.3859   77.0146  222.4844 H   0  0  0  0  0  0  0  0  0  0  0  0
  142.7388   78.2451  222.0160 H   0  0  0  0  0  0  0  0  0  0  0  0
  144.2325   79.9868  223.0080 H   0  0  0  0  0  0  0  0  0  0  0  0
  143.1444   81.9114  224.1839 H   0  0  0  0  0  0  0  0  0  0  0  0
  140.6941   82.0598  224.3449 H   0  0  0  0  0  0  0  0  0  0  0  0
  139.2276   80.2952  223.3379 H   0  0  0  0  0  0  0  0  0  0  0  0
  139.8501   74.8548  222.7567 H   0  0  0  0  0  0  0  0  0  0  0  0
  138.9487   74.9427  221.2365 H   0  0  0  0  0  0  0  0  0  0  0  0
  137.9994   73.1215  222.7125 H   0  0  0  0  0  0  0  0  0  0  0  0
  138.7105   72.3829  221.2656 H   0  0  0  0  0  0  0  0  0  0  0  0
  1  2  1  0
  2  3  1  0
  3  4  2  0
  3  5  1  0
  5  6  1  0
  6  7  2  0
  7  8  1  0
  8  9  2  0
  9 10  1  0
 10 11  2  0
  5 12  1  0
 12 13  1  0
 13 14  1  0
 14 15  1  0
 15 16  1  0
 16 17  2  0
 16 18  1  0
 18 19  1  0
 18 20  1  0
 20 21  1  0
 21 22  1  0
 21 23  1  0
 23 24  2  0
 24 25  1  0
 25 26  2  0
 26 27  1  0
 27 28  2  0
 15 29  1  0
 29 30  1  0
 11  6  1  0
 30 12  1  0
 28 23  1  0
  1 31  1  0
  1 32  1  0
  1 33  1  0
  2 34  1  0
  2 35  1  0
  7 36  1  0
  8 37  1  0
  9 38  1  0
 10 39  1  0
 11 40  1  0
 12 41  1  0
 13 42  1  0
 13 43  1  0
 14 44  1  0
 14 45  1  0
 18 46  1  6
 19 47  1  0
 19 48  1  0
 20 49  1  0
 20 50  1  0
 21 51  1  6
 22 52  1  0
 22 53  1  0
 22 54  1  0
 24 55  1  0
 25 56  1  0
 26 57  1  0
 27 58  1  0
 28 59  1  0
 29 60  1  0
 29 61  1  0
 30 62  1  0
 30 63  1  0
M  END
>  <smiles>  (84) 
CCC(=O)N(c1ccccc1)C1CCN(C(=O)[C@H](N)CC(C)c2ccccc2)CC1

>  <score_type>  (84) 
oracle

>  <origin>  (84) 
autodockgpu

>  <m_score__min__energy>  (84) 
-8.3599999999999994

>  <m_primary>  (84) 
energy

>  <rmsd>  (84) 
6.402697371667293

>  <m_score__min__rmsd>  (84) 
6.402697371667293

>  <meeko>  (84) 
{"free_energy": -7.81, "intermolecular_energy": -10.49, "internal_energy": -2.28, "cluster_size": 18, "cluster_id": 3, "rank_in_cluster": 1}

>  <energy>  (84) 
-7.51

>  <cluster_rmsd>  (84) 
0.61

>  <cluster>  (84) 
3

$$$$

     RDKit          3D

 63 65  0  0  0  0  0  0  0  0999 V2000
  135.6910   71.2610  224.2340 C   0  0  0  0  0  0  0  0  0  0  0  0
  136.1440   69.8150  224.3970 C   0  0  0  0  0  0  0  0  0  0  0  0
  137.4860   69.7090  223.8090 C   0  0  0  0  0  0  0  0  0  0  0  0
  137.6120   68.8830  222.8380 O   0  0  0  0  0  0  0  0  0  0  0  0
  138.6490   70.4010  224.1820 N   0  0  0  0  0  0  0  0  0  0  0  0
  139.3450   69.8560  225.3380 C   0  0  0  0  0  0  0  0  0  0  0  0
  139.3500   68.4820  225.4490 C   0  0  0  0  0  0  0  0  0  0  0  0
  139.9930   67.8900  226.5240 C   0  0  0  0  0  0  0  0  0  0  0  0
  140.6150   68.6930  227.4600 C   0  0  0  0  0  0  0  0  0  0  0  0
  140.5930   70.0740  227.3230 C   0  0  0  0  0  0  0  0  0  0  0  0
  139.9530   70.6930  226.2510 C   0  0  0  0  0  0  0  0  0  0  0  0
  139.2360   71.5420  223.5570 C   0  0  0  0  0  0  0  0  0  0  0  0
  140.6950   71.2390  223.2420 C   0  0  0  0  0  0  0  0  0  0  0  0
  140.9740   71.7280  221.8380 C   0  0  0  0  0  0  0  0  0  0  0  0
  140.5200   73.1170  221.6940 N   0  0  0  0  0  0  0  0  0  0  0  0
  141.4710   74.0630  221.2180 C   0  0  0  0  0  0  0  0  0  0  0  0
  142.6280   73.6410  220.9510 O   0  0  0  0  0  0  0  0  0  0  0  0
  141.1970   75.4900  221.0160 C   0  0  2  0  0  0  0  0  0  0  0  0
  142.3300   76.2000  220.4660 N   0  0  0  0  0  0  0  0  0  0  0  0
  140.5410   76.1750  222.1570 C   0  0  0  0  0  0  0  0  0  0  0  0
  139.8930   77.4670  221.9660 C   0  0  1  0  0  0  0  0  0  0  0  0
  138.6480   77.7890  222.6950 C   0  0  0  0  0  0  0  0  0  0  0  0
  140.8850   78.5240  222.3850 C   0  0  0  0  0  0  0  0  0  0  0  0
  141.2970   79.3830  221.3880 C   0  0  0  0  0  0  0  0  0  0  0  0
  142.2070   80.4090  221.6160 C   0  0  0  0  0  0  0  0  0  0  0  0
  142.6870   80.5270  222.9070 C   0  0  0  0  0  0  0  0  0  0  0  0
  142.2750   79.6650  223.9050 C   0  0  0  0  0  0  0  0  0  0  0  0
  141.3590   78.6430  223.6500 C   0  0  0  0  0  0  0  0  0  0  0  0
  139.1620   73.4370  222.0370 C   0  0  0  0  0  0  0  0  0  0  0  0
  138.4910   72.0930  222.3850 C   0  0  0  0  0  0  0  0  0  0  0  0
  135.5488   71.7147  225.2259 H   0  0  0  0  0  0  0  0  0  0  0  0
  136.4557   71.8245  223.6792 H   0  0  0  0  0  0  0  0  0  0  0  0
  134.7415   71.2875  223.6792 H   0  0  0  0  0  0  0  0  0  0  0  0
  136.1784   69.5492  225.4639 H   0  0  0  0  0  0  0  0  0  0  0  0
  135.4444   69.1289  223.8972 H   0  0  0  0  0  0  0  0  0  0  0  0
  138.8484   67.8617  224.6916 H   0  0  0  0  0  0  0  0  0  0  0  0
  140.0079   66.7953  226.6306 H   0  0  0  0  0  0  0  0  0  0  0  0
  141.1301   68.2360  228.3178 H   0  0  0  0  0  0  0  0  0  0  0  0
  141.0935   70.6957  228.0799 H   0  0  0  0  0  0  0  0  0  0  0  0
  139.9336   71.7871  226.1390 H   0  0  0  0  0  0  0  0  0  0  0  0
  139.1731   72.3669  224.2820 H   0  0  0  0  0  0  0  0  0  0  0  0
  141.3486   71.7602  223.9570 H   0  0  0  0  0  0  0  0  0  0  0  0
  140.8894   70.1591  223.3194 H   0  0  0  0  0  0  0  0  0  0  0  0
  142.0550   71.6752  221.6413 H   0  0  0  0  0  0  0  0  0  0  0  0
  140.4343   71.0938  221.1193 H   0  0  0  0  0  0  0  0  0  0  0  0
  140.4180   75.5194  220.2399 H   0  0  0  0  0  0  0  0  0  0  0  0
  142.5150   77.1030  220.9000 H   0  0  0  0  0  0  0  0  0  0  0  0
  143.1130   75.6280  220.1540 H   0  0  0  0  0  0  0  0  0  0  0  0
  139.7705   75.4882  222.5372 H   0  0  0  0  0  0  0  0  0  0  0  0
  141.3839   76.4147  222.8219 H   0  0  0  0  0  0  0  0  0  0  0  0
  139.5889   77.4293  220.9096 H   0  0  0  0  0  0  0  0  0  0  0  0
  138.8343   77.7408  223.7780 H   0  0  0  0  0  0  0  0  0  0  0  0
  138.3165   78.8024  222.4247 H   0  0  0  0  0  0  0  0  0  0  0  0
  137.8667   77.0634  222.4247 H   0  0  0  0  0  0  0  0  0  0  0  0
  140.8904   79.2515  220.3744 H   0  0  0  0  0  0  0  0  0  0  0  0
  142.5274   81.0894  220.8133 H   0  0  0  0  0  0  0  0  0  0  0  0
  143.4100   81.3215  223.1439 H   0  0  0  0  0  0  0  0  0  0  0  0
  142.6771   79.7866  224.9216 H   0  0  0  0  0  0  0  0  0  0  0  0
  141.0332   77.9584  224.4470 H   0  0  0  0  0  0  0  0  0  0  0  0
  139.1348   74.1147  222.9030 H   0  0  0  0  0  0  0  0  0  0  0  0
  138.6444   73.9471  221.2112 H   0  0  0  0  0  0  0  0  0  0  0  0
  137.4342   72.2515  222.6460 H   0  0  0  0  0  0  0  0  0  0  0  0
  138.5198   71.3995  221.5316 H   0  0  0  0  0  0  0  0  0  0  0  0
  1  2  1  0
  2  3  1  0
  3  4  2  0
  3  5  1  0
  5  6  1  0
  6  7  2  0
  7  8  1  0
  8  9  2  0
  9 10  1  0
 10 11  2  0
  5 12  1  0
 12 13  1  0
 13 14  1  0
 14 15  1  0
 15 16  1  0
 16 17  2  0
 16 18  1  0
 18 19  1  0
 18 20  1  0
 20 21  1  0
 21 22  1  0
 21 23  1  0
 23 24  2  0
 24 25  1  0
 25 26  2  0
 26 27  1  0
 27 28  2  0
 15 29  1  0
 29 30  1  0
 11  6  1  0
 30 12  1  0
 28 23  1  0
  1 31  1  0
  1 32  1  0
  1 33  1  0
  2 34  1  0
  2 35  1  0
  7 36  1  0
  8 37  1  0
  9 38  1  0
 10 39  1  0
 11 40  1  0
 12 41  1  0
 13 42  1  0
 13 43  1  0
 14 44  1  0
 14 45  1  0
 18 46  1  6
 19 47  1  0
 19 48  1  0
 20 49  1  0
 20 50  1  0
 21 51  1  6
 22 52  1  0
 22 53  1  0
 22 54  1  0
 24 55  1  0
 25 56  1  0
 26 57  1  0
 27 58  1  0
 28 59  1  0
 29 60  1  0
 29 61  1  0
 30 62  1  0
 30 63  1  0
M  END
>  <smiles>  (85) 
CCC(=O)N(c1ccccc1)C1CCN(C(=O)[C@H](N)CC(C)c2ccccc2)CC1

>  <score_type>  (85) 
oracle

>  <origin>  (85) 
autodockgpu

>  <m_score__min__energy>  (85) 
-8.3599999999999994

>  <m_primary>  (85) 
energy

>  <rmsd>  (85) 
6.849474569920897

>  <m_score__min__rmsd>  (85) 
6.849474569920897

>  <meeko>  (85) 
{"free_energy": -7.62, "intermolecular_energy": -10.3, "internal_energy": -2.39, "cluster_size": 18, "cluster_id": 3, "rank_in_cluster": 12}

>  <energy>  (85) 
-7.5

>  <cluster_rmsd>  (85) 
1.63

>  <cluster>  (85) 
3

$$$$

     RDKit          3D

 63 65  0  0  0  0  0  0  0  0999 V2000
  145.9880   73.1500  216.1710 C   0  0  0  0  0  0  0  0  0  0  0  0
  144.9360   72.1250  216.5770 C   0  0  0  0  0  0  0  0  0  0  0  0
  145.1290   71.8450  218.0060 C   0  0  0  0  0  0  0  0  0  0  0  0
  145.9510   72.6090  218.6230 O   0  0  0  0  0  0  0  0  0  0  0  0
  144.5240   70.8410  218.7780 N   0  0  0  0  0  0  0  0  0  0  0  0
  145.1190   69.5190  218.6430 C   0  0  0  0  0  0  0  0  0  0  0  0
  144.9580   68.6700  219.7190 C   0  0  0  0  0  0  0  0  0  0  0  0
  145.4970   67.3950  219.6630 C   0  0  0  0  0  0  0  0  0  0  0  0
  146.1810   67.0050  218.5290 C   0  0  0  0  0  0  0  0  0  0  0  0
  146.3280   67.8800  217.4620 C   0  0  0  0  0  0  0  0  0  0  0  0
  145.7960   69.1670  217.4940 C   0  0  0  0  0  0  0  0  0  0  0  0
  143.4290   70.9630  219.6850 C   0  0  0  0  0  0  0  0  0  0  0  0
  143.4640   72.3460  220.3220 C   0  0  0  0  0  0  0  0  0  0  0  0
  142.0550   72.8960  220.3070 C   0  0  0  0  0  0  0  0  0  0  0  0
  141.1280   71.9070  220.8750 N   0  0  0  0  0  0  0  0  0  0  0  0
  140.2970   72.3410  221.9460 C   0  0  0  0  0  0  0  0  0  0  0  0
  140.4110   73.5380  222.3250 O   0  0  0  0  0  0  0  0  0  0  0  0
  139.3180   71.4930  222.6350 C   0  0  2  0  0  0  0  0  0  0  0  0
  138.1800   72.2410  223.1210 N   0  0  0  0  0  0  0  0  0  0  0  0
  139.8880   70.5390  223.6190 C   0  0  0  0  0  0  0  0  0  0  0  0
  139.0710   70.0370  224.7170 C   0  0  1  0  0  0  0  0  0  0  0  0
  138.8320   68.5860  224.8610 C   0  0  0  0  0  0  0  0  0  0  0  0
  139.7460   70.4610  225.9970 C   0  0  0  0  0  0  0  0  0  0  0  0
  140.5480   71.5790  225.9060 C   0  0  0  0  0  0  0  0  0  0  0  0
  141.2370   72.0940  226.9980 C   0  0  0  0  0  0  0  0  0  0  0  0
  141.0790   71.4210  228.1960 C   0  0  0  0  0  0  0  0  0  0  0  0
  140.2760   70.3010  228.2870 C   0  0  0  0  0  0  0  0  0  0  0  0
  139.5930   69.8040  227.1740 C   0  0  0  0  0  0  0  0  0  0  0  0
  141.1160   70.5800  220.3270 C   0  0  0  0  0  0  0  0  0  0  0  0
  142.0860   70.6140  219.1290 C   0  0  0  0  0  0  0  0  0  0  0  0
  146.4390   73.5895  217.0729 H   0  0  0  0  0  0  0  0  0  0  0  0
  146.7690   72.6569  215.5735 H   0  0  0  0  0  0  0  0  0  0  0  0
  145.5154   73.9435  215.5735 H   0  0  0  0  0  0  0  0  0  0  0  0
  143.9283   72.5314  216.4056 H   0  0  0  0  0  0  0  0  0  0  0  0
  145.0379   71.2053  215.9823 H   0  0  0  0  0  0  0  0  0  0  0  0
  144.4076   69.0021  220.6116 H   0  0  0  0  0  0  0  0  0  0  0  0
  145.3816   66.7030  220.5103 H   0  0  0  0  0  0  0  0  0  0  0  0
  146.6120   65.9946  218.4709 H   0  0  0  0  0  0  0  0  0  0  0  0
  146.8782   67.5491  216.5688 H   0  0  0  0  0  0  0  0  0  0  0  0
  145.9095   69.8635  216.6502 H   0  0  0  0  0  0  0  0  0  0  0  0
  143.5706   70.1918  220.4565 H   0  0  0  0  0  0  0  0  0  0  0  0
  143.8261   72.2720  221.3581 H   0  0  0  0  0  0  0  0  0  0  0  0
  144.1420   73.0093  219.7650 H   0  0  0  0  0  0  0  0  0  0  0  0
  142.0166   73.8182  220.9054 H   0  0  0  0  0  0  0  0  0  0  0  0
  141.7617   73.1146  219.2696 H   0  0  0  0  0  0  0  0  0  0  0  0
  138.9277   70.8247  221.8533 H   0  0  0  0  0  0  0  0  0  0  0  0
  137.7990   71.9070  224.0050 H   0  0  0  0  0  0  0  0  0  0  0  0
  138.1810   73.2420  222.9270 H   0  0  0  0  0  0  0  0  0  0  0  0
  140.2248   69.6607  223.0488 H   0  0  0  0  0  0  0  0  0  0  0  0
  140.6537   71.1390  224.1326 H   0  0  0  0  0  0  0  0  0  0  0  0
  138.0789   70.4548  224.4906 H   0  0  0  0  0  0  0  0  0  0  0  0
  138.7891   68.3257  225.9289 H   0  0  0  0  0  0  0  0  0  0  0  0
  137.8783   68.3220  224.3806 H   0  0  0  0  0  0  0  0  0  0  0  0
  139.6507   68.0301  224.3806 H   0  0  0  0  0  0  0  0  0  0  0  0
  140.6463   72.0822  224.9328 H   0  0  0  0  0  0  0  0  0  0  0  0
  141.8729   72.9876  226.9140 H   0  0  0  0  0  0  0  0  0  0  0  0
  141.6024   71.7844  229.0926 H   0  0  0  0  0  0  0  0  0  0  0  0
  140.1720   69.7898  229.2554 H   0  0  0  0  0  0  0  0  0  0  0  0
  138.9540   68.9118  227.2494 H   0  0  0  0  0  0  0  0  0  0  0  0
  141.4586   69.8522  221.0773 H   0  0  0  0  0  0  0  0  0  0  0  0
  140.1039   70.2764  220.0212 H   0  0  0  0  0  0  0  0  0  0  0  0
  142.1208   69.6296  218.6393 H   0  0  0  0  0  0  0  0  0  0  0  0
  141.7634   71.3467  218.3746 H   0  0  0  0  0  0  0  0  0  0  0  0
  1  2  1  0
  2  3  1  0
  3  4  2  0
  3  5  1  0
  5  6  1  0
  6  7  2  0
  7  8  1  0
  8  9  2  0
  9 10  1  0
 10 11  2  0
  5 12  1  0
 12 13  1  0
 13 14  1  0
 14 15  1  0
 15 16  1  0
 16 17  2  0
 16 18  1  0
 18 19  1  0
 18 20  1  0
 20 21  1  0
 21 22  1  0
 21 23  1  0
 23 24  2  0
 24 25  1  0
 25 26  2  0
 26 27  1  0
 27 28  2  0
 15 29  1  0
 29 30  1  0
 11  6  1  0
 30 12  1  0
 28 23  1  0
  1 31  1  0
  1 32  1  0
  1 33  1  0
  2 34  1  0
  2 35  1  0
  7 36  1  0
  8 37  1  0
  9 38  1  0
 10 39  1  0
 11 40  1  0
 12 41  1  0
 13 42  1  0
 13 43  1  0
 14 44  1  0
 14 45  1  0
 18 46  1  6
 19 47  1  0
 19 48  1  0
 20 49  1  0
 20 50  1  0
 21 51  1  6
 22 52  1  0
 22 53  1  0
 22 54  1  0
 24 55  1  0
 25 56  1  0
 26 57  1  0
 27 58  1  0
 28 59  1  0
 29 60  1  0
 29 61  1  0
 30 62  1  0
 30 63  1  0
M  END
>  <smiles>  (86) 
CCC(=O)N(c1ccccc1)C1CCN(C(=O)[C@H](N)CC(C)c2ccccc2)CC1

>  <score_type>  (86) 
oracle

>  <origin>  (86) 
autodockgpu

>  <m_score__min__energy>  (86) 
-8.3599999999999994

>  <m_primary>  (86) 
energy

>  <rmsd>  (86) 
8.89557613591556

>  <m_score__min__rmsd>  (86) 
8.89557613591556

>  <meeko>  (86) 
{"free_energy": -8.36, "intermolecular_energy": -11.05, "internal_energy": -2.21, "cluster_size": 11, "cluster_id": 1, "rank_in_cluster": 1}

>  <energy>  (86) 
-7.44

>  <cluster_rmsd>  (86) 
0.69

>  <cluster>  (86) 
3

$$$$

     RDKit          3D

 63 65  0  0  0  0  0  0  0  0999 V2000
  143.8580   70.5990  216.4640 C   0  0  0  0  0  0  0  0  0  0  0  0
  144.9860   71.4280  217.0690 C   0  0  0  0  0  0  0  0  0  0  0  0
  145.0480   71.1010  218.5000 C   0  0  0  0  0  0  0  0  0  0  0  0
  145.9500   71.7070  219.1770 O   0  0  0  0  0  0  0  0  0  0  0  0
  144.2400   70.2040  219.2160 N   0  0  0  0  0  0  0  0  0  0  0  0
  144.6680   68.8140  219.1620 C   0  0  0  0  0  0  0  0  0  0  0  0
  143.6720   67.8800  218.9700 C   0  0  0  0  0  0  0  0  0  0  0  0
  144.0030   66.5360  218.9070 C   0  0  0  0  0  0  0  0  0  0  0  0
  145.3270   66.1650  219.0380 C   0  0  0  0  0  0  0  0  0  0  0  0
  146.3090   67.1260  219.2310 C   0  0  0  0  0  0  0  0  0  0  0  0
  146.0010   68.4830  219.2980 C   0  0  0  0  0  0  0  0  0  0  0  0
  143.0820   70.4890  220.0000 C   0  0  0  0  0  0  0  0  0  0  0  0
  143.2530   71.8520  220.6590 C   0  0  0  0  0  0  0  0  0  0  0  0
  141.9520   72.6060  220.5000 C   0  0  0  0  0  0  0  0  0  0  0  0
  140.8310   71.7690  220.9470 N   0  0  0  0  0  0  0  0  0  0  0  0
  139.9600   72.3230  221.9270 C   0  0  0  0  0  0  0  0  0  0  0  0
  140.2100   73.4880  222.3360 O   0  0  0  0  0  0  0  0  0  0  0  0
  138.7960   71.6310  222.4910 C   0  0  2  0  0  0  0  0  0  0  0  0
  137.7500   72.5450  222.8930 N   0  0  0  0  0  0  0  0  0  0  0  0
  139.1060   70.5790  223.4900 C   0  0  0  0  0  0  0  0  0  0  0  0
  140.3360   70.6450  224.2700 C   0  0  1  0  0  0  0  0  0  0  0  0
  140.7230   71.9030  224.9410 C   0  0  0  0  0  0  0  0  0  0  0  0
  140.2120   69.6250  225.3750 C   0  0  0  0  0  0  0  0  0  0  0  0
  139.4300   68.5260  225.0860 C   0  0  0  0  0  0  0  0  0  0  0  0
  139.2190   67.5000  225.9990 C   0  0  0  0  0  0  0  0  0  0  0  0
  139.8380   67.6360  227.2280 C   0  0  0  0  0  0  0  0  0  0  0  0
  140.6210   68.7370  227.5170 C   0  0  0  0  0  0  0  0  0  0  0  0
  140.8180   69.7550  226.5810 C   0  0  0  0  0  0  0  0  0  0  0  0
  140.6810   70.4580  220.3780 C   0  0  0  0  0  0  0  0  0  0  0  0
  141.7730   70.3460  219.2940 C   0  0  0  0  0  0  0  0  0  0  0  0
  143.2553   70.1560  217.2705 H   0  0  0  0  0  0  0  0  0  0  0  0
  143.2207   71.2452  215.8425 H   0  0  0  0  0  0  0  0  0  0  0  0
  144.2844   69.7978  215.8425 H   0  0  0  0  0  0  0  0  0  0  0  0
  145.9405   71.1765  216.5835 H   0  0  0  0  0  0  0  0  0  0  0  0
  144.8021   72.5025  216.9222 H   0  0  0  0  0  0  0  0  0  0  0  0
  142.6242   68.1989  218.8678 H   0  0  0  0  0  0  0  0  0  0  0  0
  143.2228   65.7756  218.7549 H   0  0  0  0  0  0  0  0  0  0  0  0
  145.6044   65.1017  218.9890 H   0  0  0  0  0  0  0  0  0  0  0  0
  147.3571   66.8084  219.3337 H   0  0  0  0  0  0  0  0  0  0  0  0
  146.7767   69.2478  219.4507 H   0  0  0  0  0  0  0  0  0  0  0  0
  143.0199   69.7060  220.7701 H   0  0  0  0  0  0  0  0  0  0  0  0
  143.4846   71.7254  221.7269 H   0  0  0  0  0  0  0  0  0  0  0  0
  144.0792   72.4060  220.1895 H   0  0  0  0  0  0  0  0  0  0  0  0
  141.9860   73.5237  221.1055 H   0  0  0  0  0  0  0  0  0  0  0  0
  141.8106   72.8646  219.4402 H   0  0  0  0  0  0  0  0  0  0  0  0
  138.3839   71.0483  221.6540 H   0  0  0  0  0  0  0  0  0  0  0  0
  137.2470   72.2680  223.7360 H   0  0  0  0  0  0  0  0  0  0  0  0
  137.9220   73.5340  222.7180 H   0  0  0  0  0  0  0  0  0  0  0  0
  138.2748   70.5724  224.2104 H   0  0  0  0  0  0  0  0  0  0  0  0
  139.2511   69.6816  222.8706 H   0  0  0  0  0  0  0  0  0  0  0  0
  141.1135   70.4924  223.5070 H   0  0  0  0  0  0  0  0  0  0  0  0
  140.6806   71.7650  226.0315 H   0  0  0  0  0  0  0  0  0  0  0  0
  141.7468   72.1762  224.6456 H   0  0  0  0  0  0  0  0  0  0  0  0
  140.0299   72.7044  224.6456 H   0  0  0  0  0  0  0  0  0  0  0  0
  138.9557   68.4594  224.0957 H   0  0  0  0  0  0  0  0  0  0  0  0
  138.5940   66.6276  225.7574 H   0  0  0  0  0  0  0  0  0  0  0  0
  139.7046   66.8534  227.9894 H   0  0  0  0  0  0  0  0  0  0  0  0
  141.0992   68.8135  228.5047 H   0  0  0  0  0  0  0  0  0  0  0  0
  141.4421   70.6304  226.8138 H   0  0  0  0  0  0  0  0  0  0  0  0
  140.8252   69.6866  221.1488 H   0  0  0  0  0  0  0  0  0  0  0  0
  139.6752   70.3104  219.9578 H   0  0  0  0  0  0  0  0  0  0  0  0
  141.7147   69.3677  218.7945 H   0  0  0  0  0  0  0  0  0  0  0  0
  141.6494   71.1189  218.5211 H   0  0  0  0  0  0  0  0  0  0  0  0
  1  2  1  0
  2  3  1  0
  3  4  2  0
  3  5  1  0
  5  6  1  0
  6  7  2  0
  7  8  1  0
  8  9  2  0
  9 10  1  0
 10 11  2  0
  5 12  1  0
 12 13  1  0
 13 14  1  0
 14 15  1  0
 15 16  1  0
 16 17  2  0
 16 18  1  0
 18 19  1  0
 18 20  1  0
 20 21  1  0
 21 22  1  0
 21 23  1  0
 23 24  2  0
 24 25  1  0
 25 26  2  0
 26 27  1  0
 27 28  2  0
 15 29  1  0
 29 30  1  0
 11  6  1  0
 30 12  1  0
 28 23  1  0
  1 31  1  0
  1 32  1  0
  1 33  1  0
  2 34  1  0
  2 35  1  0
  7 36  1  0
  8 37  1  0
  9 38  1  0
 10 39  1  0
 11 40  1  0
 12 41  1  0
 13 42  1  0
 13 43  1  0
 14 44  1  0
 14 45  1  0
 18 46  1  6
 19 47  1  0
 19 48  1  0
 20 49  1  0
 20 50  1  0
 21 51  1  6
 22 52  1  0
 22 53  1  0
 22 54  1  0
 24 55  1  0
 25 56  1  0
 26 57  1  0
 27 58  1  0
 28 59  1  0
 29 60  1  0
 29 61  1  0
 30 62  1  0
 30 63  1  0
M  END
>  <smiles>  (87) 
CCC(=O)N(c1ccccc1)C1CCN(C(=O)[C@H](N)CC(C)c2ccccc2)CC1

>  <score_type>  (87) 
oracle

>  <origin>  (87) 
autodockgpu

>  <m_score__min__energy>  (87) 
-8.3599999999999994

>  <m_primary>  (87) 
energy

>  <rmsd>  (87) 
8.782542345079996

>  <m_score__min__rmsd>  (87) 
8.782542345079996

>  <meeko>  (87) 
{"free_energy": -7.49, "intermolecular_energy": -10.17, "internal_energy": -2.4, "cluster_size": 11, "cluster_id": 1, "rank_in_cluster": 11}

>  <energy>  (87) 
-7.74

>  <cluster_rmsd>  (87) 
0.0

>  <cluster>  (87) 
4

$$$$

     RDKit          3D

 63 65  0  0  0  0  0  0  0  0999 V2000
  138.2390   80.5520  223.8790 C   0  0  0  0  0  0  0  0  0  0  0  0
  137.4680   79.5260  223.0560 C   0  0  0  0  0  0  0  0  0  0  0  0
  138.4000   78.9760  222.0630 C   0  0  0  0  0  0  0  0  0  0  0  0
  138.1210   79.2150  220.8360 O   0  0  0  0  0  0  0  0  0  0  0  0
  139.5590   78.2170  222.2930 N   0  0  0  0  0  0  0  0  0  0  0  0
  140.7690   78.9960  222.5140 C   0  0  0  0  0  0  0  0  0  0  0  0
  141.2180   79.7350  221.4400 C   0  0  0  0  0  0  0  0  0  0  0  0
  142.3640   80.5010  221.5740 C   0  0  0  0  0  0  0  0  0  0  0  0
  143.0290   80.5070  222.7850 C   0  0  0  0  0  0  0  0  0  0  0  0
  142.5540   79.7530  223.8490 C   0  0  0  0  0  0  0  0  0  0  0  0
  141.4040   78.9750  223.7380 C   0  0  0  0  0  0  0  0  0  0  0  0
  139.6870   76.7980  222.3600 C   0  0  0  0  0  0  0  0  0  0  0  0
  138.3000   76.1800  222.4860 C   0  0  0  0  0  0  0  0  0  0  0  0
  138.2330   75.0040  221.5370 C   0  0  0  0  0  0  0  0  0  0  0  0
  139.3920   74.1260  221.7460 N   0  0  0  0  0  0  0  0  0  0  0  0
  139.1240   72.7510  221.9990 C   0  0  0  0  0  0  0  0  0  0  0  0
  137.9180   72.3870  222.0200 O   0  0  0  0  0  0  0  0  0  0  0  0
  140.1540   71.7330  222.2350 C   0  0  2  0  0  0  0  0  0  0  0  0
  139.9910   70.5730  221.3870 N   0  0  0  0  0  0  0  0  0  0  0  0
  140.4160   71.4160  223.6610 C   0  0  0  0  0  0  0  0  0  0  0  0
  139.3200   71.0450  224.5460 C   0  0  1  0  0  0  0  0  0  0  0  0
  138.4190   69.9300  224.1850 C   0  0  0  0  0  0  0  0  0  0  0  0
  139.9340   70.6510  225.8670 C   0  0  0  0  0  0  0  0  0  0  0  0
  140.4590   71.6850  226.6120 C   0  0  0  0  0  0  0  0  0  0  0  0
  141.0580   71.4840  227.8500 C   0  0  0  0  0  0  0  0  0  0  0  0
  141.1040   70.1790  228.3040 C   0  0  0  0  0  0  0  0  0  0  0  0
  140.5780   69.1430  227.5570 C   0  0  0  0  0  0  0  0  0  0  0  0
  139.9810   69.3720  226.3150 C   0  0  0  0  0  0  0  0  0  0  0  0
  140.7080   74.6970  221.6860 C   0  0  0  0  0  0  0  0  0  0  0  0
  140.5060   76.1710  221.2780 C   0  0  0  0  0  0  0  0  0  0  0  0
  138.0881   80.3512  224.9499 H   0  0  0  0  0  0  0  0  0  0  0  0
  139.3106   80.4830  223.6404 H   0  0  0  0  0  0  0  0  0  0  0  0
  137.8746   81.5621  223.6404 H   0  0  0  0  0  0  0  0  0  0  0  0
  137.0954   78.7227  223.7086 H   0  0  0  0  0  0  0  0  0  0  0  0
  136.6025   79.9923  222.5626 H   0  0  0  0  0  0  0  0  0  0  0  0
  140.6711   79.7163  220.4858 H   0  0  0  0  0  0  0  0  0  0  0  0
  142.7394   81.0961  220.7284 H   0  0  0  0  0  0  0  0  0  0  0  0
  143.9394   81.1123  222.9065 H   0  0  0  0  0  0  0  0  0  0  0  0
  143.0995   79.7702  224.8041 H   0  0  0  0  0  0  0  0  0  0  0  0
  141.0236   78.3773  224.5795 H   0  0  0  0  0  0  0  0  0  0  0  0
  140.2786   76.5758  223.2603 H   0  0  0  0  0  0  0  0  0  0  0  0
  138.1344   75.8383  223.5184 H   0  0  0  0  0  0  0  0  0  0  0  0
  137.5245   76.9198  222.2384 H   0  0  0  0  0  0  0  0  0  0  0  0
  137.3084   74.4378  221.7226 H   0  0  0  0  0  0  0  0  0  0  0  0
  138.2411   75.3738  220.5011 H   0  0  0  0  0  0  0  0  0  0  0  0
  141.0950   72.2077  221.9201 H   0  0  0  0  0  0  0  0  0  0  0  0
  140.4790   69.7390  221.7120 H   0  0  0  0  0  0  0  0  0  0  0  0
  139.0880   70.4740  220.9260 H   0  0  0  0  0  0  0  0  0  0  0  0
  141.1287   70.5782  223.6725 H   0  0  0  0  0  0  0  0  0  0  0  0
  140.7530   72.3789  224.0723 H   0  0  0  0  0  0  0  0  0  0  0  0
  138.6759   71.9362  224.5183 H   0  0  0  0  0  0  0  0  0  0  0  0
  138.0363   69.4565  225.1011 H   0  0  0  0  0  0  0  0  0  0  0  0
  137.5765   70.3164  223.5926 H   0  0  0  0  0  0  0  0  0  0  0  0
  138.9737   69.1874  223.5926 H   0  0  0  0  0  0  0  0  0  0  0  0
  140.4018   72.7080  226.2116 H   0  0  0  0  0  0  0  0  0  0  0  0
  141.4726   72.3173  228.4362 H   0  0  0  0  0  0  0  0  0  0  0  0
  141.5678   69.9618  229.2775 H   0  0  0  0  0  0  0  0  0  0  0  0
  140.6303   68.1163  227.9483 H   0  0  0  0  0  0  0  0  0  0  0  0
  139.5641   68.5447  225.7219 H   0  0  0  0  0  0  0  0  0  0  0  0
  141.1981   74.6349  222.6688 H   0  0  0  0  0  0  0  0  0  0  0  0
  141.3500   74.1623  220.9706 H   0  0  0  0  0  0  0  0  0  0  0  0
  141.4779   76.6792  221.1931 H   0  0  0  0  0  0  0  0  0  0  0  0
  140.0059   76.2503  220.3015 H   0  0  0  0  0  0  0  0  0  0  0  0
  1  2  1  0
  2  3  1  0
  3  4  2  0
  3  5  1  0
  5  6  1  0
  6  7  2  0
  7  8  1  0
  8  9  2  0
  9 10  1  0
 10 11  2  0
  5 12  1  0
 12 13  1  0
 13 14  1  0
 14 15  1  0
 15 16  1  0
 16 17  2  0
 16 18  1  0
 18 19  1  0
 18 20  1  0
 20 21  1  0
 21 22  1  0
 21 23  1  0
 23 24  2  0
 24 25  1  0
 25 26  2  0
 26 27  1  0
 27 28  2  0
 15 29  1  0
 29 30  1  0
 11  6  1  0
 30 12  1  0
 28 23  1  0
  1 31  1  0
  1 32  1  0
  1 33  1  0
  2 34  1  0
  2 35  1  0
  7 36  1  0
  8 37  1  0
  9 38  1  0
 10 39  1  0
 11 40  1  0
 12 41  1  0
 13 42  1  0
 13 43  1  0
 14 44  1  0
 14 45  1  0
 18 46  1  6
 19 47  1  0
 19 48  1  0
 20 49  1  0
 20 50  1  0
 21 51  1  1
 22 52  1  0
 22 53  1  0
 22 54  1  0
 24 55  1  0
 25 56  1  0
 26 57  1  0
 27 58  1  0
 28 59  1  0
 29 60  1  0
 29 61  1  0
 30 62  1  0
 30 63  1  0
M  END
>  <smiles>  (88) 
CCC(=O)N(c1ccccc1)C1CCN(C(=O)[C@H](N)CC(C)c2ccccc2)CC1

>  <score_type>  (88) 
oracle

>  <origin>  (88) 
autodockgpu

>  <m_score__min__energy>  (88) 
-8.3599999999999994

>  <m_primary>  (88) 
energy

>  <rmsd>  (88) 
6.876894024384032

>  <m_score__min__rmsd>  (88) 
6.876894024384032

>  <meeko>  (88) 
{"free_energy": -7.61, "intermolecular_energy": -10.29, "internal_energy": -2.14, "cluster_size": 8, "cluster_id": 4, "rank_in_cluster": 4}

>  <energy>  (88) 
-7.69

>  <cluster_rmsd>  (88) 
0.34

>  <cluster>  (88) 
4

$$$$

     RDKit          3D

 63 65  0  0  0  0  0  0  0  0999 V2000
  135.9950   78.6570  223.1510 C   0  0  0  0  0  0  0  0  0  0  0  0
  137.3210   79.4090  223.1360 C   0  0  0  0  0  0  0  0  0  0  0  0
  138.1750   78.7670  222.1290 C   0  0  0  0  0  0  0  0  0  0  0  0
  137.8030   78.8990  220.9100 O   0  0  0  0  0  0  0  0  0  0  0  0
  139.3480   78.0250  222.3370 N   0  0  0  0  0  0  0  0  0  0  0  0
  140.5430   78.8200  222.5790 C   0  0  0  0  0  0  0  0  0  0  0  0
  141.0690   79.4710  221.4830 C   0  0  0  0  0  0  0  0  0  0  0  0
  142.2070   80.2470  221.6360 C   0  0  0  0  0  0  0  0  0  0  0  0
  142.7850   80.3500  222.8860 C   0  0  0  0  0  0  0  0  0  0  0  0
  142.2340   79.6830  223.9710 C   0  0  0  0  0  0  0  0  0  0  0  0
  141.0920   78.8970  223.8430 C   0  0  0  0  0  0  0  0  0  0  0  0
  139.5030   76.6070  222.3650 C   0  0  0  0  0  0  0  0  0  0  0  0
  138.1550   75.9550  222.0850 C   0  0  0  0  0  0  0  0  0  0  0  0
  138.3820   74.8350  221.0950 C   0  0  0  0  0  0  0  0  0  0  0  0
  139.4740   73.9700  221.5620 N   0  0  0  0  0  0  0  0  0  0  0  0
  139.1970   72.5770  221.6650 C   0  0  0  0  0  0  0  0  0  0  0  0
  138.0420   72.1880  221.3450 O   0  0  0  0  0  0  0  0  0  0  0  0
  140.1620   71.5680  222.1160 C   0  0  2  0  0  0  0  0  0  0  0  0
  139.9570   70.2840  221.4840 N   0  0  0  0  0  0  0  0  0  0  0  0
  140.3690   71.5010  223.5840 C   0  0  0  0  0  0  0  0  0  0  0  0
  139.4370   70.7620  224.4260 C   0  0  1  0  0  0  0  0  0  0  0  0
  139.1560   69.3380  224.1480 C   0  0  0  0  0  0  0  0  0  0  0  0
  139.9910   70.7940  225.8290 C   0  0  0  0  0  0  0  0  0  0  0  0
  140.8050   71.8660  226.1230 C   0  0  0  0  0  0  0  0  0  0  0  0
  141.3920   72.0380  227.3720 C   0  0  0  0  0  0  0  0  0  0  0  0
  141.1150   71.0670  228.3180 C   0  0  0  0  0  0  0  0  0  0  0  0
  140.2990   69.9920  228.0220 C   0  0  0  0  0  0  0  0  0  0  0  0
  139.7220   69.8430  226.7590 C   0  0  0  0  0  0  0  0  0  0  0  0
  140.7380   74.5700  221.8830 C   0  0  0  0  0  0  0  0  0  0  0  0
  140.6010   76.0600  221.5110 C   0  0  0  0  0  0  0  0  0  0  0  0
  135.6849   78.4812  224.1916 H   0  0  0  0  0  0  0  0  0  0  0  0
  135.2286   79.2549  222.6361 H   0  0  0  0  0  0  0  0  0  0  0  0
  136.1147   77.6924  222.6361 H   0  0  0  0  0  0  0  0  0  0  0  0
  137.1530   80.4632  222.8705 H   0  0  0  0  0  0  0  0  0  0  0  0
  137.7972   79.3790  224.1271 H   0  0  0  0  0  0  0  0  0  0  0  0
  140.5902   79.3753  220.4973 H   0  0  0  0  0  0  0  0  0  0  0  0
  142.6435   80.7732  220.7743 H   0  0  0  0  0  0  0  0  0  0  0  0
  143.6873   80.9642  223.0224 H   0  0  0  0  0  0  0  0  0  0  0  0
  142.7117   79.7777  224.9573 H   0  0  0  0  0  0  0  0  0  0  0  0
  140.6521   78.3673  224.7008 H   0  0  0  0  0  0  0  0  0  0  0  0
  139.8417   76.3455  223.3784 H   0  0  0  0  0  0  0  0  0  0  0  0
  137.7335   75.5511  223.0173 H   0  0  0  0  0  0  0  0  0  0  0  0
  137.4482   76.6923  221.6767 H   0  0  0  0  0  0  0  0  0  0  0  0
  137.4614   74.2407  220.9988 H   0  0  0  0  0  0  0  0  0  0  0  0
  138.6511   75.2634  220.1182 H   0  0  0  0  0  0  0  0  0  0  0  0
  141.1359   71.9304  221.7550 H   0  0  0  0  0  0  0  0  0  0  0  0
  140.3520   69.4940  221.9930 H   0  0  0  0  0  0  0  0  0  0  0  0
  139.0800   70.1630  220.9800 H   0  0  0  0  0  0  0  0  0  0  0  0
  141.3613   71.0536  223.7430 H   0  0  0  0  0  0  0  0  0  0  0  0
  140.2214   72.5430  223.9041 H   0  0  0  0  0  0  0  0  0  0  0  0
  138.4812   71.2715  224.2340 H   0  0  0  0  0  0  0  0  0  0  0  0
  139.0485   68.7933  225.0976 H   0  0  0  0  0  0  0  0  0  0  0  0
  138.2240   69.2543  223.5697 H   0  0  0  0  0  0  0  0  0  0  0  0
  139.9863   68.9065  223.5697 H   0  0  0  0  0  0  0  0  0  0  0  0
  140.9979   72.6142  225.3401 H   0  0  0  0  0  0  0  0  0  0  0  0
  142.0404   72.8981  227.5954 H   0  0  0  0  0  0  0  0  0  0  0  0
  141.5523   71.1524  229.3237 H   0  0  0  0  0  0  0  0  0  0  0  0
  140.0997   69.2377  228.7974 H   0  0  0  0  0  0  0  0  0  0  0  0
  139.0730   68.9859  226.5264 H   0  0  0  0  0  0  0  0  0  0  0  0
  140.9523   74.4611  222.9564 H   0  0  0  0  0  0  0  0  0  0  0  0
  141.5644   74.0905  221.3379 H   0  0  0  0  0  0  0  0  0  0  0  0
  141.5424   76.5914  221.7145 H   0  0  0  0  0  0  0  0  0  0  0  0
  140.3758   76.1858  220.4417 H   0  0  0  0  0  0  0  0  0  0  0  0
  1  2  1  0
  2  3  1  0
  3  4  2  0
  3  5  1  0
  5  6  1  0
  6  7  2  0
  7  8  1  0
  8  9  2  0
  9 10  1  0
 10 11  2  0
  5 12  1  0
 12 13  1  0
 13 14  1  0
 14 15  1  0
 15 16  1  0
 16 17  2  0
 16 18  1  0
 18 19  1  0
 18 20  1  0
 20 21  1  0
 21 22  1  0
 21 23  1  0
 23 24  2  0
 24 25  1  0
 25 26  2  0
 26 27  1  0
 27 28  2  0
 15 29  1  0
 29 30  1  0
 11  6  1  0
 30 12  1  0
 28 23  1  0
  1 31  1  0
  1 32  1  0
  1 33  1  0
  2 34  1  0
  2 35  1  0
  7 36  1  0
  8 37  1  0
  9 38  1  0
 10 39  1  0
 11 40  1  0
 12 41  1  0
 13 42  1  0
 13 43  1  0
 14 44  1  0
 14 45  1  0
 18 46  1  6
 19 47  1  0
 19 48  1  0
 20 49  1  0
 20 50  1  0
 21 51  1  1
 22 52  1  0
 22 53  1  0
 22 54  1  0
 24 55  1  0
 25 56  1  0
 26 57  1  0
 27 58  1  0
 28 59  1  0
 29 60  1  0
 29 61  1  0
 30 62  1  0
 30 63  1  0
M  END
>  <smiles>  (89) 
CCC(=O)N(c1ccccc1)C1CCN(C(=O)[C@H](N)CC(C)c2ccccc2)CC1

>  <score_type>  (89) 
oracle

>  <origin>  (89) 
autodockgpu

>  <m_score__min__energy>  (89) 
-8.3599999999999994

>  <m_primary>  (89) 
energy

>  <rmsd>  (89) 
6.98615421158972

>  <m_score__min__rmsd>  (89) 
6.98615421158972

>  <meeko>  (89) 
{"free_energy": -7.23, "intermolecular_energy": -9.91, "internal_energy": -2.28, "cluster_size": 8, "cluster_id": 4, "rank_in_cluster": 7}

>  <energy>  (89) 
-7.63

>  <cluster_rmsd>  (89) 
0.43

>  <cluster>  (89) 
4

$$$$

     RDKit          3D

 63 65  0  0  0  0  0  0  0  0999 V2000
  139.1520   68.4910  222.0900 C   0  0  0  0  0  0  0  0  0  0  0  0
  137.8430   69.2300  222.3430 C   0  0  0  0  0  0  0  0  0  0  0  0
  137.9970   69.9730  223.6010 C   0  0  0  0  0  0  0  0  0  0  0  0
  137.0130   69.9060  224.4180 O   0  0  0  0  0  0  0  0  0  0  0  0
  139.0900   70.7490  224.0170 N   0  0  0  0  0  0  0  0  0  0  0  0
  139.7300   70.3000  225.2450 C   0  0  0  0  0  0  0  0  0  0  0  0
  139.6590   68.9470  225.5060 C   0  0  0  0  0  0  0  0  0  0  0  0
  140.2450   68.4460  226.6570 C   0  0  0  0  0  0  0  0  0  0  0  0
  140.8890   69.3150  227.5160 C   0  0  0  0  0  0  0  0  0  0  0  0
  140.9440   70.6720  227.2290 C   0  0  0  0  0  0  0  0  0  0  0  0
  140.3620   71.2000  226.0780 C   0  0  0  0  0  0  0  0  0  0  0  0
  139.6570   71.8910  223.3780 C   0  0  0  0  0  0  0  0  0  0  0  0
  141.0550   71.5410  222.8850 C   0  0  0  0  0  0  0  0  0  0  0  0
  141.1960   72.0830  221.4790 C   0  0  0  0  0  0  0  0  0  0  0  0
  140.7950   73.4960  221.4470 N   0  0  0  0  0  0  0  0  0  0  0  0
  141.7310   74.4210  220.9040 C   0  0  0  0  0  0  0  0  0  0  0  0
  142.8290   73.9630  220.4890 O   0  0  0  0  0  0  0  0  0  0  0  0
  141.5040   75.8670  220.7960 C   0  0  2  0  0  0  0  0  0  0  0  0
  142.5800   76.5470  220.1090 N   0  0  0  0  0  0  0  0  0  0  0  0
  141.0590   76.5330  222.0450 C   0  0  0  0  0  0  0  0  0  0  0  0
  140.1810   77.6960  221.9860 C   0  0  1  0  0  0  0  0  0  0  0  0
  138.8890   77.6870  222.7040 C   0  0  0  0  0  0  0  0  0  0  0  0
  140.9510   78.8580  222.5630 C   0  0  0  0  0  0  0  0  0  0  0  0
  140.2000   79.7920  223.2430 C   0  0  0  0  0  0  0  0  0  0  0  0
  140.7630   80.9190  223.8310 C   0  0  0  0  0  0  0  0  0  0  0  0
  142.1320   81.0590  223.7000 C   0  0  0  0  0  0  0  0  0  0  0  0
  142.8850   80.1230  223.0180 C   0  0  0  0  0  0  0  0  0  0  0  0
  142.2940   79.0000  222.4350 C   0  0  0  0  0  0  0  0  0  0  0  0
  139.5020   73.8570  221.9570 C   0  0  0  0  0  0  0  0  0  0  0  0
  138.8110   72.5280  222.3230 C   0  0  0  0  0  0  0  0  0  0  0  0
  139.6168   68.2286  223.0518 H   0  0  0  0  0  0  0  0  0  0  0  0
  138.9504   67.5734  221.5178 H   0  0  0  0  0  0  0  0  0  0  0  0
  139.8335   69.1377  221.5178 H   0  0  0  0  0  0  0  0  0  0  0  0
  137.6384   69.9269  221.5169 H   0  0  0  0  0  0  0  0  0  0  0  0
  137.0029   68.5229  222.4086 H   0  0  0  0  0  0  0  0  0  0  0  0
  139.1422   68.2728  224.8071 H   0  0  0  0  0  0  0  0  0  0  0  0
  140.1980   67.3706  226.8838 H   0  0  0  0  0  0  0  0  0  0  0  0
  141.3606   68.9298  228.4321 H   0  0  0  0  0  0  0  0  0  0  0  0
  141.4598   71.3474  227.9274 H   0  0  0  0  0  0  0  0  0  0  0  0
  140.4042   72.2746  225.8466 H   0  0  0  0  0  0  0  0  0  0  0  0
  139.7168   72.6826  224.1395 H   0  0  0  0  0  0  0  0  0  0  0  0
  141.8094   72.0000  223.5409 H   0  0  0  0  0  0  0  0  0  0  0  0
  141.2055   70.4514  222.8948 H   0  0  0  0  0  0  0  0  0  0  0  0
  142.2439   71.9935  221.1567 H   0  0  0  0  0  0  0  0  0  0  0  0
  140.5489   71.5067  220.8014 H   0  0  0  0  0  0  0  0  0  0  0  0
  140.6214   75.9647  220.1468 H   0  0  0  0  0  0  0  0  0  0  0  0
  142.9450   77.3640  220.5970 H   0  0  0  0  0  0  0  0  0  0  0  0
  143.2190   75.9580  219.5760 H   0  0  0  0  0  0  0  0  0  0  0  0
  140.5346   75.7709  222.6401 H   0  0  0  0  0  0  0  0  0  0  0  0
  141.9929   76.9458  222.4542 H   0  0  0  0  0  0  0  0  0  0  0  0
  139.9021   77.7350  220.9227 H   0  0  0  0  0  0  0  0  0  0  0  0
  139.0723   77.6883  223.7886 H   0  0  0  0  0  0  0  0  0  0  0  0
  138.3104   78.5811  222.4288 H   0  0  0  0  0  0  0  0  0  0  0  0
  138.3229   76.7849  222.4288 H   0  0  0  0  0  0  0  0  0  0  0  0
  139.1135   79.6401  223.3237 H   0  0  0  0  0  0  0  0  0  0  0  0
  140.1529   81.6583  224.3706 H   0  0  0  0  0  0  0  0  0  0  0  0
  142.6308   81.9316  224.1470 H   0  0  0  0  0  0  0  0  0  0  0  0
  143.9724   80.2651  222.9324 H   0  0  0  0  0  0  0  0  0  0  0  0
  142.8961   78.2571  221.8914 H   0  0  0  0  0  0  0  0  0  0  0  0
  139.6054   74.4935  222.8482 H   0  0  0  0  0  0  0  0  0  0  0  0
  138.9194   74.4272  221.2185 H   0  0  0  0  0  0  0  0  0  0  0  0
  137.7992   72.7189  222.7101 H   0  0  0  0  0  0  0  0  0  0  0  0
  138.7099   71.8749  221.4437 H   0  0  0  0  0  0  0  0  0  0  0  0
  1  2  1  0
  2  3  1  0
  3  4  2  0
  3  5  1  0
  5  6  1  0
  6  7  2  0
  7  8  1  0
  8  9  2  0
  9 10  1  0
 10 11  2  0
  5 12  1  0
 12 13  1  0
 13 14  1  0
 14 15  1  0
 15 16  1  0
 16 17  2  0
 16 18  1  0
 18 19  1  0
 18 20  1  0
 20 21  1  0
 21 22  1  0
 21 23  1  0
 23 24  2  0
 24 25  1  0
 25 26  2  0
 26 27  1  0
 27 28  2  0
 15 29  1  0
 29 30  1  0
 11  6  1  0
 30 12  1  0
 28 23  1  0
  1 31  1  0
  1 32  1  0
  1 33  1  0
  2 34  1  0
  2 35  1  0
  7 36  1  0
  8 37  1  0
  9 38  1  0
 10 39  1  0
 11 40  1  0
 12 41  1  0
 13 42  1  0
 13 43  1  0
 14 44  1  0
 14 45  1  0
 18 46  1  6
 19 47  1  0
 19 48  1  0
 20 49  1  0
 20 50  1  0
 21 51  1  6
 22 52  1  0
 22 53  1  0
 22 54  1  0
 24 55  1  0
 25 56  1  0
 26 57  1  0
 27 58  1  0
 28 59  1  0
 29 60  1  0
 29 61  1  0
 30 62  1  0
 30 63  1  0
M  END
>  <smiles>  (90) 
CCC(=O)N(c1ccccc1)C1CCN(C(=O)[C@H](N)CC(C)c2ccccc2)CC1

>  <score_type>  (90) 
oracle

>  <origin>  (90) 
autodockgpu

>  <m_score__min__energy>  (90) 
-8.3599999999999994

>  <m_primary>  (90) 
energy

>  <rmsd>  (90) 
6.621605268096323

>  <m_score__min__rmsd>  (90) 
6.621605268096323

>  <meeko>  (90) 
{"free_energy": -7.66, "intermolecular_energy": -10.34, "internal_energy": -2.4, "cluster_size": 18, "cluster_id": 3, "rank_in_cluster": 7}

>  <energy>  (90) 
-7.61

>  <cluster_rmsd>  (90) 
0.54

>  <cluster>  (90) 
4

$$$$

     RDKit          3D

 63 65  0  0  0  0  0  0  0  0999 V2000
  140.6520   71.8650  222.4270 C   0  0  0  0  0  0  0  0  0  0  0  0
  141.4550   72.3190  221.2130 C   0  0  0  0  0  0  0  0  0  0  0  0
  141.4210   73.7870  221.1930 C   0  0  0  0  0  0  0  0  0  0  0  0
  140.5740   74.3420  221.9790 O   0  0  0  0  0  0  0  0  0  0  0  0
  142.2010   74.6590  220.4160 N   0  0  0  0  0  0  0  0  0  0  0  0
  143.4520   74.0960  219.9300 C   0  0  0  0  0  0  0  0  0  0  0  0
  144.4900   74.0550  220.8370 C   0  0  0  0  0  0  0  0  0  0  0  0
  145.7120   73.5320  220.4470 C   0  0  0  0  0  0  0  0  0  0  0  0
  145.8600   73.0620  219.1560 C   0  0  0  0  0  0  0  0  0  0  0  0
  144.7980   73.1170  218.2650 C   0  0  0  0  0  0  0  0  0  0  0  0
  143.5590   73.6380  218.6330 C   0  0  0  0  0  0  0  0  0  0  0  0
  141.9080   76.0010  220.0310 C   0  0  0  0  0  0  0  0  0  0  0  0
  143.2040   76.7010  219.6460 C   0  0  0  0  0  0  0  0  0  0  0  0
  142.9510   77.4690  218.3680 C   0  0  0  0  0  0  0  0  0  0  0  0
  141.7470   78.2970  218.5140 N   0  0  0  0  0  0  0  0  0  0  0  0
  141.8790   79.6860  218.2300 C   0  0  0  0  0  0  0  0  0  0  0  0
  143.0120   80.1020  217.8710 O   0  0  0  0  0  0  0  0  0  0  0  0
  140.7870   80.6610  218.3260 C   0  0  2  0  0  0  0  0  0  0  0  0
  140.9920   81.8080  217.4690 N   0  0  0  0  0  0  0  0  0  0  0  0
  140.3580   80.9980  219.7060 C   0  0  0  0  0  0  0  0  0  0  0  0
  141.3270   81.4830  220.6800 C   0  0  1  0  0  0  0  0  0  0  0  0
  141.0740   82.7400  221.4170 C   0  0  0  0  0  0  0  0  0  0  0  0
  141.4570   80.4180  221.7400 C   0  0  0  0  0  0  0  0  0  0  0  0
  142.2650   80.7370  222.8100 C   0  0  0  0  0  0  0  0  0  0  0  0
  142.4850   79.8620  223.8680 C   0  0  0  0  0  0  0  0  0  0  0  0
  141.8450   78.6380  223.7930 C   0  0  0  0  0  0  0  0  0  0  0  0
  141.0350   78.3180  222.7210 C   0  0  0  0  0  0  0  0  0  0  0  0
  140.8310   79.2160  221.6710 C   0  0  0  0  0  0  0  0  0  0  0  0
  140.5240   77.6680  218.9280 C   0  0  0  0  0  0  0  0  0  0  0  0
  140.8350   76.1590  219.0030 C   0  0  0  0  0  0  0  0  0  0  0  0
  141.1777   72.1622  223.3464 H   0  0  0  0  0  0  0  0  0  0  0  0
  139.6574   72.3345  222.4052 H   0  0  0  0  0  0  0  0  0  0  0  0
  140.5415   70.7708  222.4052 H   0  0  0  0  0  0  0  0  0  0  0  0
  142.4940   71.9673  221.2956 H   0  0  0  0  0  0  0  0  0  0  0  0
  141.0287   71.9063  220.2867 H   0  0  0  0  0  0  0  0  0  0  0  0
  144.3490   74.4339  221.8600 H   0  0  0  0  0  0  0  0  0  0  0  0
  146.5528   73.4914  221.1551 H   0  0  0  0  0  0  0  0  0  0  0  0
  146.8242   72.6423  218.8333 H   0  0  0  0  0  0  0  0  0  0  0  0
  144.9376   72.7395  217.2413 H   0  0  0  0  0  0  0  0  0  0  0  0
  142.7145   73.6816  217.9295 H   0  0  0  0  0  0  0  0  0  0  0  0
  141.4646   76.4924  220.9096 H   0  0  0  0  0  0  0  0  0  0  0  0
  143.5073   77.3934  220.4451 H   0  0  0  0  0  0  0  0  0  0  0  0
  144.0096   75.9663  219.5003 H   0  0  0  0  0  0  0  0  0  0  0  0
  143.8148   78.1155  218.1536 H   0  0  0  0  0  0  0  0  0  0  0  0
  142.8047   76.7587  217.5409 H   0  0  0  0  0  0  0  0  0  0  0  0
  139.9069   80.1369  217.9250 H   0  0  0  0  0  0  0  0  0  0  0  0
  141.9190   81.8630  217.0490 H   0  0  0  0  0  0  0  0  0  0  0  0
  140.1840   82.1220  216.9330 H   0  0  0  0  0  0  0  0  0  0  0  0
  139.5848   81.7752  219.6156 H   0  0  0  0  0  0  0  0  0  0  0  0
  140.0566   80.0237  220.1182 H   0  0  0  0  0  0  0  0  0  0  0  0
  142.2054   81.7045  220.0560 H   0  0  0  0  0  0  0  0  0  0  0  0
  141.1133   82.5450  222.4989 H   0  0  0  0  0  0  0  0  0  0  0  0
  141.8408   83.4822  221.1502 H   0  0  0  0  0  0  0  0  0  0  0  0
  140.0798   83.1278  221.1502 H   0  0  0  0  0  0  0  0  0  0  0  0
  142.7547   81.7218  222.8277 H   0  0  0  0  0  0  0  0  0  0  0  0
  143.1317   80.1282  224.7170 H   0  0  0  0  0  0  0  0  0  0  0  0
  141.9837   77.9059  224.6022 H   0  0  0  0  0  0  0  0  0  0  0  0
  140.5405   77.3358  222.6937 H   0  0  0  0  0  0  0  0  0  0  0  0
  140.1857   78.9581  220.8183 H   0  0  0  0  0  0  0  0  0  0  0  0
  140.2134   78.0450  219.9136 H   0  0  0  0  0  0  0  0  0  0  0  0
  139.7020   77.8787  218.2280 H   0  0  0  0  0  0  0  0  0  0  0  0
  139.9363   75.5995  219.3018 H   0  0  0  0  0  0  0  0  0  0  0  0
  141.1573   75.7688  218.0263 H   0  0  0  0  0  0  0  0  0  0  0  0
  1  2  1  0
  2  3  1  0
  3  4  2  0
  3  5  1  0
  5  6  1  0
  6  7  2  0
  7  8  1  0
  8  9  2  0
  9 10  1  0
 10 11  2  0
  5 12  1  0
 12 13  1  0
 13 14  1  0
 14 15  1  0
 15 16  1  0
 16 17  2  0
 16 18  1  0
 18 19  1  0
 18 20  1  0
 20 21  1  0
 21 22  1  0
 21 23  1  0
 23 24  2  0
 24 25  1  0
 25 26  2  0
 26 27  1  0
 27 28  2  0
 15 29  1  0
 29 30  1  0
 11  6  1  0
 30 12  1  0
 28 23  1  0
  1 31  1  0
  1 32  1  0
  1 33  1  0
  2 34  1  0
  2 35  1  0
  7 36  1  0
  8 37  1  0
  9 38  1  0
 10 39  1  0
 11 40  1  0
 12 41  1  0
 13 42  1  0
 13 43  1  0
 14 44  1  0
 14 45  1  0
 18 46  1  6
 19 47  1  0
 19 48  1  0
 20 49  1  0
 20 50  1  0
 21 51  1  6
 22 52  1  0
 22 53  1  0
 22 54  1  0
 24 55  1  0
 25 56  1  0
 26 57  1  0
 27 58  1  0
 28 59  1  0
 29 60  1  0
 29 61  1  0
 30 62  1  0
 30 63  1  0
M  END
>  <smiles>  (91) 
CCC(=O)N(c1ccccc1)C1CCN(C(=O)[C@H](N)CC(C)c2ccccc2)CC1

>  <score_type>  (91) 
oracle

>  <origin>  (91) 
autodockgpu

>  <m_score__min__energy>  (91) 
-8.3599999999999994

>  <m_primary>  (91) 
energy

>  <rmsd>  (91) 
5.968285729391911

>  <m_score__min__rmsd>  (91) 
5.968285729391911

>  <meeko>  (91) 
{"free_energy": -6.38, "intermolecular_energy": -9.06, "internal_energy": -3.15, "cluster_size": 2, "cluster_id": 7, "rank_in_cluster": 1}

>  <energy>  (91) 
-7.36

>  <cluster_rmsd>  (91) 
0.77

>  <cluster>  (91) 
4

$$$$

     RDKit          3D

 63 65  0  0  0  0  0  0  0  0999 V2000
  135.6110   71.2090  224.1570 C   0  0  0  0  0  0  0  0  0  0  0  0
  136.1420   69.8400  224.5660 C   0  0  0  0  0  0  0  0  0  0  0  0
  137.4700   69.6880  223.9570 C   0  0  0  0  0  0  0  0  0  0  0  0
  137.5630   68.8240  223.0160 O   0  0  0  0  0  0  0  0  0  0  0  0
  138.6520   70.3730  224.2820 N   0  0  0  0  0  0  0  0  0  0  0  0
  139.3820   69.8330  225.4200 C   0  0  0  0  0  0  0  0  0  0  0  0
  139.4590   68.4580  225.4940 C   0  0  0  0  0  0  0  0  0  0  0  0
  140.1370   67.8720  226.5500 C   0  0  0  0  0  0  0  0  0  0  0  0
  140.7220   68.6810  227.5040 C   0  0  0  0  0  0  0  0  0  0  0  0
  140.6280   70.0630  227.4050 C   0  0  0  0  0  0  0  0  0  0  0  0
  139.9510   70.6760  226.3530 C   0  0  0  0  0  0  0  0  0  0  0  0
  139.2290   71.5000  223.6250 C   0  0  0  0  0  0  0  0  0  0  0  0
  140.6900   71.2010  223.3170 C   0  0  0  0  0  0  0  0  0  0  0  0
  140.9630   71.6510  221.8990 C   0  0  0  0  0  0  0  0  0  0  0  0
  140.4970   73.0320  221.7150 N   0  0  0  0  0  0  0  0  0  0  0  0
  141.4400   73.9720  221.2120 C   0  0  0  0  0  0  0  0  0  0  0  0
  142.6010   73.5530  220.9560 O   0  0  0  0  0  0  0  0  0  0  0  0
  141.1530   75.3910  220.9700 C   0  0  2  0  0  0  0  0  0  0  0  0
  142.2710   76.0890  220.3750 N   0  0  0  0  0  0  0  0  0  0  0  0
  140.5150   76.1090  222.1000 C   0  0  0  0  0  0  0  0  0  0  0  0
  139.8300   77.3760  221.8750 C   0  0  1  0  0  0  0  0  0  0  0  0
  138.6360   77.7270  222.6720 C   0  0  0  0  0  0  0  0  0  0  0  0
  140.8300   78.4720  222.1510 C   0  0  0  0  0  0  0  0  0  0  0  0
  141.2560   78.5740  223.4580 C   0  0  0  0  0  0  0  0  0  0  0  0
  142.1760   79.5310  223.8720 C   0  0  0  0  0  0  0  0  0  0  0  0
  142.6480   80.3890  222.8950 C   0  0  0  0  0  0  0  0  0  0  0  0
  142.2210   80.2860  221.5860 C   0  0  0  0  0  0  0  0  0  0  0  0
  141.2960   79.3150  221.1960 C   0  0  0  0  0  0  0  0  0  0  0  0
  139.1370   73.3500  222.0500 C   0  0  0  0  0  0  0  0  0  0  0  0
  138.4780   72.0110  222.4370 C   0  0  0  0  0  0  0  0  0  0  0  0
  135.3826   71.7978  225.0577 H   0  0  0  0  0  0  0  0  0  0  0  0
  136.3709   71.7334  223.5591 H   0  0  0  0  0  0  0  0  0  0  0  0
  134.6962   71.0838  223.5591 H   0  0  0  0  0  0  0  0  0  0  0  0
  136.2207   69.7785  225.6614 H   0  0  0  0  0  0  0  0  0  0  0  0
  135.4644   69.0421  224.2280 H   0  0  0  0  0  0  0  0  0  0  0  0
  138.9866   67.8329  224.7219 H   0  0  0  0  0  0  0  0  0  0  0  0
  140.2085   66.7771  226.6277 H   0  0  0  0  0  0  0  0  0  0  0  0
  141.2652   68.2285  228.3467 H   0  0  0  0  0  0  0  0  0  0  0  0
  141.0999   70.6893  228.1765 H   0  0  0  0  0  0  0  0  0  0  0  0
  139.8743   71.7702  226.2706 H   0  0  0  0  0  0  0  0  0  0  0  0
  139.1599   72.3442  224.3269 H   0  0  0  0  0  0  0  0  0  0  0  0
  141.3397   71.7488  224.0154 H   0  0  0  0  0  0  0  0  0  0  0  0
  140.8942   70.1256  223.4257 H   0  0  0  0  0  0  0  0  0  0  0  0
  142.0441   71.6015  221.7022 H   0  0  0  0  0  0  0  0  0  0  0  0
  140.4276   70.9916  221.2000 H   0  0  0  0  0  0  0  0  0  0  0  0
  140.3583   75.3909  220.2094 H   0  0  0  0  0  0  0  0  0  0  0  0
  142.5400   76.9450  220.8570 H   0  0  0  0  0  0  0  0  0  0  0  0
  142.9920   75.5070  219.9510 H   0  0  0  0  0  0  0  0  0  0  0  0
  139.7733   75.4214  222.5327 H   0  0  0  0  0  0  0  0  0  0  0  0
  141.3715   76.3970  222.7273 H   0  0  0  0  0  0  0  0  0  0  0  0
  139.4499   77.2652  220.8487 H   0  0  0  0  0  0  0  0  0  0  0  0
  138.8764   77.6563  223.7431 H   0  0  0  0  0  0  0  0  0  0  0  0
  138.3248   78.7546  222.4331 H   0  0  0  0  0  0  0  0  0  0  0  0
  137.8182   77.0313  222.4331 H   0  0  0  0  0  0  0  0  0  0  0  0
  140.8527   77.8714  224.2021 H   0  0  0  0  0  0  0  0  0  0  0  0
  142.5097   79.6018  224.9178 H   0  0  0  0  0  0  0  0  0  0  0  0
  143.3766   81.1673  223.1658 H   0  0  0  0  0  0  0  0  0  0  0  0
  142.6179   80.9838  220.8340 H   0  0  0  0  0  0  0  0  0  0  0  0
  140.9577   79.2367  220.1523 H   0  0  0  0  0  0  0  0  0  0  0  0
  139.1047   74.0520  222.8963 H   0  0  0  0  0  0  0  0  0  0  0  0
  138.6143   73.8318  221.2105 H   0  0  0  0  0  0  0  0  0  0  0  0
  137.4200   72.1677  222.6941 H   0  0  0  0  0  0  0  0  0  0  0  0
  138.5125   71.2935  221.6039 H   0  0  0  0  0  0  0  0  0  0  0  0
  1  2  1  0
  2  3  1  0
  3  4  2  0
  3  5  1  0
  5  6  1  0
  6  7  2  0
  7  8  1  0
  8  9  2  0
  9 10  1  0
 10 11  2  0
  5 12  1  0
 12 13  1  0
 13 14  1  0
 14 15  1  0
 15 16  1  0
 16 17  2  0
 16 18  1  0
 18 19  1  0
 18 20  1  0
 20 21  1  0
 21 22  1  0
 21 23  1  0
 23 24  2  0
 24 25  1  0
 25 26  2  0
 26 27  1  0
 27 28  2  0
 15 29  1  0
 29 30  1  0
 11  6  1  0
 30 12  1  0
 28 23  1  0
  1 31  1  0
  1 32  1  0
  1 33  1  0
  2 34  1  0
  2 35  1  0
  7 36  1  0
  8 37  1  0
  9 38  1  0
 10 39  1  0
 11 40  1  0
 12 41  1  0
 13 42  1  0
 13 43  1  0
 14 44  1  0
 14 45  1  0
 18 46  1  6
 19 47  1  0
 19 48  1  0
 20 49  1  0
 20 50  1  0
 21 51  1  6
 22 52  1  0
 22 53  1  0
 22 54  1  0
 24 55  1  0
 25 56  1  0
 26 57  1  0
 27 58  1  0
 28 59  1  0
 29 60  1  0
 29 61  1  0
 30 62  1  0
 30 63  1  0
M  END
>  <smiles>  (92) 
CCC(=O)N(c1ccccc1)C1CCN(C(=O)[C@H](N)CC(C)c2ccccc2)CC1

>  <score_type>  (92) 
oracle

>  <origin>  (92) 
autodockgpu

>  <m_score__min__energy>  (92) 
-8.3599999999999994

>  <m_primary>  (92) 
energy

>  <rmsd>  (92) 
6.8623912037525985

>  <m_score__min__rmsd>  (92) 
6.8623912037525985

>  <meeko>  (92) 
{"free_energy": -7.6, "intermolecular_energy": -10.29, "internal_energy": -2.37, "cluster_size": 18, "cluster_id": 3, "rank_in_cluster": 14}

>  <energy>  (92) 
-7.29

>  <cluster_rmsd>  (92) 
0.76

>  <cluster>  (92) 
4

$$$$

     RDKit          3D

 63 65  0  0  0  0  0  0  0  0999 V2000
  138.7750   67.4570  222.7010 C   0  0  0  0  0  0  0  0  0  0  0  0
  138.1490   68.8120  222.3900 C   0  0  0  0  0  0  0  0  0  0  0  0
  138.1320   69.5810  223.6420 C   0  0  0  0  0  0  0  0  0  0  0  0
  137.1160   69.3980  224.4000 O   0  0  0  0  0  0  0  0  0  0  0  0
  139.0910   70.4940  224.1080 N   0  0  0  0  0  0  0  0  0  0  0  0
  139.6960   70.1500  225.3860 C   0  0  0  0  0  0  0  0  0  0  0  0
  139.7350   68.8070  225.6960 C   0  0  0  0  0  0  0  0  0  0  0  0
  140.2970   68.4030  226.8960 C   0  0  0  0  0  0  0  0  0  0  0  0
  140.8050   69.3580  227.7540 C   0  0  0  0  0  0  0  0  0  0  0  0
  140.7520   70.7040  227.4170 C   0  0  0  0  0  0  0  0  0  0  0  0
  140.1920   71.1340  226.2160 C   0  0  0  0  0  0  0  0  0  0  0  0
  139.5550   71.6870  223.4770 C   0  0  0  0  0  0  0  0  0  0  0  0
  141.0300   71.5250  223.1340 C   0  0  0  0  0  0  0  0  0  0  0  0
  141.2340   72.0400  221.7270 C   0  0  0  0  0  0  0  0  0  0  0  0
  140.6470   73.3810  221.5960 N   0  0  0  0  0  0  0  0  0  0  0  0
  141.4960   74.4130  221.1060 C   0  0  0  0  0  0  0  0  0  0  0  0
  142.6820   74.1040  220.8170 O   0  0  0  0  0  0  0  0  0  0  0  0
  141.0830   75.8080  220.9150 C   0  0  2  0  0  0  0  0  0  0  0  0
  142.1100   76.6090  220.2870 N   0  0  0  0  0  0  0  0  0  0  0  0
  140.4440   76.4470  222.0930 C   0  0  0  0  0  0  0  0  0  0  0  0
  139.8400   77.7680  221.9770 C   0  0  1  0  0  0  0  0  0  0  0  0
  138.6640   78.1210  222.8000 C   0  0  0  0  0  0  0  0  0  0  0  0
  140.9030   78.7720  222.3470 C   0  0  0  0  0  0  0  0  0  0  0  0
  141.2380   78.8190  223.6840 C   0  0  0  0  0  0  0  0  0  0  0  0
  142.2000   79.6910  224.1820 C   0  0  0  0  0  0  0  0  0  0  0  0
  142.8110   80.5200  223.2610 C   0  0  0  0  0  0  0  0  0  0  0  0
  142.4750   80.4730  221.9220 C   0  0  0  0  0  0  0  0  0  0  0  0
  141.5050   79.5880  221.4460 C   0  0  0  0  0  0  0  0  0  0  0  0
  139.2720   73.5690  221.9650 C   0  0  0  0  0  0  0  0  0  0  0  0
  138.7390   72.1670  222.3210 C   0  0  0  0  0  0  0  0  0  0  0  0
  138.8368   67.3232  223.7911 H   0  0  0  0  0  0  0  0  0  0  0  0
  138.1546   66.6584  222.2682 H   0  0  0  0  0  0  0  0  0  0  0  0
  139.7852   67.4118  222.2682 H   0  0  0  0  0  0  0  0  0  0  0  0
  138.7478   69.3387  221.6324 H   0  0  0  0  0  0  0  0  0  0  0  0
  137.1303   68.6895  221.9934 H   0  0  0  0  0  0  0  0  0  0  0  0
  139.3238   68.0636  224.9972 H   0  0  0  0  0  0  0  0  0  0  0  0
  140.3380   67.3363  227.1615 H   0  0  0  0  0  0  0  0  0  0  0  0
  141.2542   69.0508  228.7099 H   0  0  0  0  0  0  0  0  0  0  0  0
  141.1620   71.4487  228.1151 H   0  0  0  0  0  0  0  0  0  0  0  0
  140.1478   72.1991  225.9446 H   0  0  0  0  0  0  0  0  0  0  0  0
  139.4276   72.5006  224.2063 H   0  0  0  0  0  0  0  0  0  0  0  0
  141.6443   72.1054  223.8381 H   0  0  0  0  0  0  0  0  0  0  0  0
  141.3282   70.4686  223.2046 H   0  0  0  0  0  0  0  0  0  0  0  0
  142.3111   72.0903  221.5095 H   0  0  0  0  0  0  0  0  0  0  0  0
  140.7430   71.3584  221.0168 H   0  0  0  0  0  0  0  0  0  0  0  0
  140.2546   75.7583  220.1930 H   0  0  0  0  0  0  0  0  0  0  0  0
  143.0630   76.3040  220.4810 H   0  0  0  0  0  0  0  0  0  0  0  0
  141.8870   76.9920  219.3700 H   0  0  0  0  0  0  0  0  0  0  0  0
  139.6495   75.7650  222.4301 H   0  0  0  0  0  0  0  0  0  0  0  0
  141.2914   76.6196  222.7728 H   0  0  0  0  0  0  0  0  0  0  0  0
  139.4609   77.7704  220.9444 H   0  0  0  0  0  0  0  0  0  0  0  0
  138.9253   78.0426  223.8656 H   0  0  0  0  0  0  0  0  0  0  0  0
  138.3540   79.1518  222.5734 H   0  0  0  0  0  0  0  0  0  0  0  0
  137.8375   77.4313  222.5734 H   0  0  0  0  0  0  0  0  0  0  0  0
  140.7251   78.1415  224.3825 H   0  0  0  0  0  0  0  0  0  0  0  0
  142.4602   79.7192  225.2504 H   0  0  0  0  0  0  0  0  0  0  0  0
  143.5792   81.2305  223.6003 H   0  0  0  0  0  0  0  0  0  0  0  0
  142.9821   81.1468  221.2157 H   0  0  0  0  0  0  0  0  0  0  0  0
  141.2389   79.5539  220.3792 H   0  0  0  0  0  0  0  0  0  0  0  0
  139.1965   74.2398  222.8335 H   0  0  0  0  0  0  0  0  0  0  0  0
  138.6927   74.0283  221.1505 H   0  0  0  0  0  0  0  0  0  0  0  0
  137.6771   72.2237  222.6023 H   0  0  0  0  0  0  0  0  0  0  0  0
  138.8178   71.4809  221.4648 H   0  0  0  0  0  0  0  0  0  0  0  0
  1  2  1  0
  2  3  1  0
  3  4  2  0
  3  5  1  0
  5  6  1  0
  6  7  2  0
  7  8  1  0
  8  9  2  0
  9 10  1  0
 10 11  2  0
  5 12  1  0
 12 13  1  0
 13 14  1  0
 14 15  1  0
 15 16  1  0
 16 17  2  0
 16 18  1  0
 18 19  1  0
 18 20  1  0
 20 21  1  0
 21 22  1  0
 21 23  1  0
 23 24  2  0
 24 25  1  0
 25 26  2  0
 26 27  1  0
 27 28  2  0
 15 29  1  0
 29 30  1  0
 11  6  1  0
 30 12  1  0
 28 23  1  0
  1 31  1  0
  1 32  1  0
  1 33  1  0
  2 34  1  0
  2 35  1  0
  7 36  1  0
  8 37  1  0
  9 38  1  0
 10 39  1  0
 11 40  1  0
 12 41  1  0
 13 42  1  0
 13 43  1  0
 14 44  1  0
 14 45  1  0
 18 46  1  6
 19 47  1  0
 19 48  1  0
 20 49  1  0
 20 50  1  0
 21 51  1  6
 22 52  1  0
 22 53  1  0
 22 54  1  0
 24 55  1  0
 25 56  1  0
 26 57  1  0
 27 58  1  0
 28 59  1  0
 29 60  1  0
 29 61  1  0
 30 62  1  0
 30 63  1  0
M  END
>  <smiles>  (93) 
CCC(=O)N(c1ccccc1)C1CCN(C(=O)[C@H](N)CC(C)c2ccccc2)CC1

>  <score_type>  (93) 
oracle

>  <origin>  (93) 
autodockgpu

>  <m_score__min__energy>  (93) 
-8.3599999999999994

>  <m_primary>  (93) 
energy

>  <rmsd>  (93) 
6.741301003237544

>  <m_score__min__rmsd>  (93) 
6.741301003237544

>  <meeko>  (93) 
{"free_energy": -7.64, "intermolecular_energy": -10.32, "internal_energy": -2.32, "cluster_size": 18, "cluster_id": 3, "rank_in_cluster": 9}

>  <energy>  (93) 
-7.23

>  <cluster_rmsd>  (93) 
0.73

>  <cluster>  (93) 
4

$$$$

     RDKit          3D

 63 65  0  0  0  0  0  0  0  0999 V2000
  142.8310   76.5400  219.3410 C   0  0  0  0  0  0  0  0  0  0  0  0
  141.7180   75.8390  220.1110 C   0  0  0  0  0  0  0  0  0  0  0  0
  141.7080   74.4350  219.6810 C   0  0  0  0  0  0  0  0  0  0  0  0
  141.2480   74.2080  218.5070 O   0  0  0  0  0  0  0  0  0  0  0  0
  142.1390   73.3080  220.4000 N   0  0  0  0  0  0  0  0  0  0  0  0
  143.5660   73.0310  220.3110 C   0  0  0  0  0  0  0  0  0  0  0  0
  144.4040   74.0000  220.8230 C   0  0  0  0  0  0  0  0  0  0  0  0
  145.7740   73.8060  220.7740 C   0  0  0  0  0  0  0  0  0  0  0  0
  146.2690   72.6450  220.2130 C   0  0  0  0  0  0  0  0  0  0  0  0
  145.4020   71.6880  219.7040 C   0  0  0  0  0  0  0  0  0  0  0  0
  144.0200   71.8590  219.7420 C   0  0  0  0  0  0  0  0  0  0  0  0
  141.3640   72.4300  221.2140 C   0  0  0  0  0  0  0  0  0  0  0  0
  140.5330   73.2590  222.1860 C   0  0  0  0  0  0  0  0  0  0  0  0
  139.1330   72.6870  222.1970 C   0  0  0  0  0  0  0  0  0  0  0  0
  139.1880   71.2350  222.4140 N   0  0  0  0  0  0  0  0  0  0  0  0
  138.4150   70.7120  223.4880 C   0  0  0  0  0  0  0  0  0  0  0  0
  137.7370   71.5270  224.1700 O   0  0  0  0  0  0  0  0  0  0  0  0
  138.3520   69.2920  223.8540 C   0  0  2  0  0  0  0  0  0  0  0  0
  137.0720   68.9200  224.4150 N   0  0  0  0  0  0  0  0  0  0  0  0
  139.5220   68.7810  224.6090 C   0  0  0  0  0  0  0  0  0  0  0  0
  139.4670   68.6600  226.0600 C   0  0  1  0  0  0  0  0  0  0  0  0
  140.1770   67.5580  226.7410 C   0  0  0  0  0  0  0  0  0  0  0  0
  140.0560   69.9270  226.6300 C   0  0  0  0  0  0  0  0  0  0  0  0
  140.8100   70.6790  225.7540 C   0  0  0  0  0  0  0  0  0  0  0  0
  141.4190   71.8720  226.1270 C   0  0  0  0  0  0  0  0  0  0  0  0
  141.2300   72.2730  227.4370 C   0  0  0  0  0  0  0  0  0  0  0  0
  140.4750   71.5190  228.3140 C   0  0  0  0  0  0  0  0  0  0  0  0
  139.8730   70.3240  227.9140 C   0  0  0  0  0  0  0  0  0  0  0  0
  140.0080   70.4400  221.5440 C   0  0  0  0  0  0  0  0  0  0  0  0
  140.5540   71.4120  220.4790 C   0  0  0  0  0  0  0  0  0  0  0  0
  143.5421   76.9879  220.0508 H   0  0  0  0  0  0  0  0  0  0  0  0
  143.3557   75.8091  218.7083 H   0  0  0  0  0  0  0  0  0  0  0  0
  142.3984   77.3290  218.7083 H   0  0  0  0  0  0  0  0  0  0  0  0
  141.9116   75.9004  221.1921 H   0  0  0  0  0  0  0  0  0  0  0  0
  140.7465   76.3147  219.9114 H   0  0  0  0  0  0  0  0  0  0  0  0
  143.9881   74.9171  221.2655 H   0  0  0  0  0  0  0  0  0  0  0  0
  146.4592   74.5665  221.1766 H   0  0  0  0  0  0  0  0  0  0  0  0
  147.3554   72.4780  220.1694 H   0  0  0  0  0  0  0  0  0  0  0  0
  145.8167   70.7713  219.2593 H   0  0  0  0  0  0  0  0  0  0  0  0
  143.3297   71.1023  219.3410 H   0  0  0  0  0  0  0  0  0  0  0  0
  142.0766   71.8035  221.7705 H   0  0  0  0  0  0  0  0  0  0  0  0
  140.9688   73.2025  223.1944 H   0  0  0  0  0  0  0  0  0  0  0  0
  140.5159   74.3142  221.8758 H   0  0  0  0  0  0  0  0  0  0  0  0
  138.5540   73.1552  223.0067 H   0  0  0  0  0  0  0  0  0  0  0  0
  138.6509   72.8907  221.2295 H   0  0  0  0  0  0  0  0  0  0  0  0
  138.4307   68.7525  222.8987 H   0  0  0  0  0  0  0  0  0  0  0  0
  136.5310   69.6990  224.7890 H   0  0  0  0  0  0  0  0  0  0  0  0
  136.5860   68.1500  223.9580 H   0  0  0  0  0  0  0  0  0  0  0  0
  139.7368   67.7762  224.2163 H   0  0  0  0  0  0  0  0  0  0  0  0
  140.2795   69.5633  224.4532 H   0  0  0  0  0  0  0  0  0  0  0  0
  138.4024   68.4530  226.2440 H   0  0  0  0  0  0  0  0  0  0  0  0
  140.0943   67.6864  227.8303 H   0  0  0  0  0  0  0  0  0  0  0  0
  139.7277   66.5971  226.4499 H   0  0  0  0  0  0  0  0  0  0  0  0
  141.2377   67.5700  226.4499 H   0  0  0  0  0  0  0  0  0  0  0  0
  140.9344   70.3216  224.7211 H   0  0  0  0  0  0  0  0  0  0  0  0
  142.0179   72.4640  225.4194 H   0  0  0  0  0  0  0  0  0  0  0  0
  141.6892   73.2093  227.7868 H   0  0  0  0  0  0  0  0  0  0  0  0
  140.3451   71.8671  229.3494 H   0  0  0  0  0  0  0  0  0  0  0  0
  139.2720   69.7262  228.6151 H   0  0  0  0  0  0  0  0  0  0  0  0
  140.8357   69.9848  222.1077 H   0  0  0  0  0  0  0  0  0  0  0  0
  139.4367   69.6181  221.0878 H   0  0  0  0  0  0  0  0  0  0  0  0
  141.1852   70.8715  219.7583 H   0  0  0  0  0  0  0  0  0  0  0  0
  139.7372   71.8843  219.9135 H   0  0  0  0  0  0  0  0  0  0  0  0
  1  2  1  0
  2  3  1  0
  3  4  2  0
  3  5  1  0
  5  6  1  0
  6  7  2  0
  7  8  1  0
  8  9  2  0
  9 10  1  0
 10 11  2  0
  5 12  1  0
 12 13  1  0
 13 14  1  0
 14 15  1  0
 15 16  1  0
 16 17  2  0
 16 18  1  0
 18 19  1  0
 18 20  1  0
 20 21  1  0
 21 22  1  0
 21 23  1  0
 23 24  2  0
 24 25  1  0
 25 26  2  0
 26 27  1  0
 27 28  2  0
 15 29  1  0
 29 30  1  0
 11  6  1  0
 30 12  1  0
 28 23  1  0
  1 31  1  0
  1 32  1  0
  1 33  1  0
  2 34  1  0
  2 35  1  0
  7 36  1  0
  8 37  1  0
  9 38  1  0
 10 39  1  0
 11 40  1  0
 12 41  1  0
 13 42  1  0
 13 43  1  0
 14 44  1  0
 14 45  1  0
 18 46  1  6
 19 47  1  0
 19 48  1  0
 20 49  1  0
 20 50  1  0
 21 51  1  1
 22 52  1  0
 22 53  1  0
 22 54  1  0
 24 55  1  0
 25 56  1  0
 26 57  1  0
 27 58  1  0
 28 59  1  0
 29 60  1  0
 29 61  1  0
 30 62  1  0
 30 63  1  0
M  END
>  <smiles>  (94) 
CCC(=O)N(c1ccccc1)C1CCN(C(=O)[C@H](N)CC(C)c2ccccc2)CC1

>  <score_type>  (94) 
oracle

>  <origin>  (94) 
autodockgpu

>  <m_score__min__energy>  (94) 
-8.3599999999999994

>  <m_primary>  (94) 
energy

>  <rmsd>  (94) 
9.858053378920117

>  <m_score__min__rmsd>  (94) 
9.858053378920117

>  <meeko>  (94) 
{"free_energy": -7.33, "intermolecular_energy": -10.01, "internal_energy": -2.78, "cluster_size": 3, "cluster_id": 6, "rank_in_cluster": 2}

>  <energy>  (94) 
-7.03

>  <cluster_rmsd>  (94) 
0.87

>  <cluster>  (94) 
4

$$$$

     RDKit          3D

 63 65  0  0  0  0  0  0  0  0999 V2000
  142.5550   80.8970  223.8210 C   0  0  0  0  0  0  0  0  0  0  0  0
  142.9720   79.8090  222.8380 C   0  0  0  0  0  0  0  0  0  0  0  0
  141.7970   79.4900  222.0160 C   0  0  0  0  0  0  0  0  0  0  0  0
  141.7930   79.9700  220.8290 O   0  0  0  0  0  0  0  0  0  0  0  0
  140.6750   78.7250  222.3740 N   0  0  0  0  0  0  0  0  0  0  0  0
  139.4970   79.4960  222.7430 C   0  0  0  0  0  0  0  0  0  0  0  0
  139.3530   79.7760  224.0860 C   0  0  0  0  0  0  0  0  0  0  0  0
  138.2570   80.5070  224.5140 C   0  0  0  0  0  0  0  0  0  0  0  0
  137.3340   80.9390  223.5820 C   0  0  0  0  0  0  0  0  0  0  0  0
  137.5030   80.6420  222.2360 C   0  0  0  0  0  0  0  0  0  0  0  0
  138.5970   79.9090  221.7820 C   0  0  0  0  0  0  0  0  0  0  0  0
  140.5450   77.3040  222.3940 C   0  0  0  0  0  0  0  0  0  0  0  0
  139.0800   76.9430  222.6030 C   0  0  0  0  0  0  0  0  0  0  0  0
  138.7360   75.8370  221.6300 C   0  0  0  0  0  0  0  0  0  0  0  0
  139.7250   74.7560  221.7330 N   0  0  0  0  0  0  0  0  0  0  0  0
  139.2280   73.4430  221.9680 C   0  0  0  0  0  0  0  0  0  0  0  0
  137.9790   73.3030  222.0660 O   0  0  0  0  0  0  0  0  0  0  0  0
  140.0670   72.2470  222.1020 C   0  0  2  0  0  0  0  0  0  0  0  0
  139.6220   71.1600  221.2590 N   0  0  0  0  0  0  0  0  0  0  0  0
  140.3840   71.8500  223.4960 C   0  0  0  0  0  0  0  0  0  0  0  0
  139.4050   71.1220  224.2950 C   0  0  1  0  0  0  0  0  0  0  0  0
  138.9350   69.7900  223.8580 C   0  0  0  0  0  0  0  0  0  0  0  0
  140.0220   70.9020  225.6540 C   0  0  0  0  0  0  0  0  0  0  0  0
  139.8890   69.6300  226.1700 C   0  0  0  0  0  0  0  0  0  0  0  0
  140.4030   69.2700  227.4100 C   0  0  0  0  0  0  0  0  0  0  0  0
  141.0630   70.2630  228.1120 C   0  0  0  0  0  0  0  0  0  0  0  0
  141.1960   71.5370  227.5940 C   0  0  0  0  0  0  0  0  0  0  0  0
  140.6700   71.8730  226.3450 C   0  0  0  0  0  0  0  0  0  0  0  0
  141.1170   75.0810  221.5930 C   0  0  0  0  0  0  0  0  0  0  0  0
  141.1630   76.5820  221.2400 C   0  0  0  0  0  0  0  0  0  0  0  0
  142.6940   80.5342  224.8501 H   0  0  0  0  0  0  0  0  0  0  0  0
  143.1737   81.7924  223.6611 H   0  0  0  0  0  0  0  0  0  0  0  0
  141.4964   81.1495  223.6611 H   0  0  0  0  0  0  0  0  0  0  0  0
  143.7908   80.1721  222.1995 H   0  0  0  0  0  0  0  0  0  0  0  0
  143.3274   78.9159  223.3729 H   0  0  0  0  0  0  0  0  0  0  0  0
  140.1015   79.4221  224.8103 H   0  0  0  0  0  0  0  0  0  0  0  0
  138.1238   80.7400  225.5808 H   0  0  0  0  0  0  0  0  0  0  0  0
  136.4598   81.5218  223.9077 H   0  0  0  0  0  0  0  0  0  0  0  0
  136.7547   80.9942  221.5107 H   0  0  0  0  0  0  0  0  0  0  0  0
  138.7358   79.6725  220.7167 H   0  0  0  0  0  0  0  0  0  0  0  0
  141.1436   76.9430  223.2433 H   0  0  0  0  0  0  0  0  0  0  0  0
  138.9230   76.5964  223.6351 H   0  0  0  0  0  0  0  0  0  0  0  0
  138.4387   77.8202  222.4319 H   0  0  0  0  0  0  0  0  0  0  0  0
  137.7371   75.4413  221.8657 H   0  0  0  0  0  0  0  0  0  0  0  0
  138.7441   76.2394  220.6063 H   0  0  0  0  0  0  0  0  0  0  0  0
  141.0499   72.5483  221.7107 H   0  0  0  0  0  0  0  0  0  0  0  0
  138.6560   71.2390  220.9420 H   0  0  0  0  0  0  0  0  0  0  0  0
  140.3190   70.7570  220.6360 H   0  0  0  0  0  0  0  0  0  0  0  0
  141.2843   71.2197  223.4481 H   0  0  0  0  0  0  0  0  0  0  0  0
  140.4638   72.8150  224.0180 H   0  0  0  0  0  0  0  0  0  0  0  0
  138.5132   71.7625  224.2279 H   0  0  0  0  0  0  0  0  0  0  0  0
  138.7164   69.1706  224.7404 H   0  0  0  0  0  0  0  0  0  0  0  0
  138.0225   69.9031  223.2543 H   0  0  0  0  0  0  0  0  0  0  0  0
  139.7164   69.3053  223.2543 H   0  0  0  0  0  0  0  0  0  0  0  0
  139.3559   68.8717  225.5777 H   0  0  0  0  0  0  0  0  0  0  0  0
  140.2913   68.2519  227.8112 H   0  0  0  0  0  0  0  0  0  0  0  0
  141.4893   70.0342  229.0999 H   0  0  0  0  0  0  0  0  0  0  0  0
  141.7275   72.3028  228.1780 H   0  0  0  0  0  0  0  0  0  0  0  0
  140.7772   72.8885  225.9361 H   0  0  0  0  0  0  0  0  0  0  0  0
  141.6514   74.8924  222.5358 H   0  0  0  0  0  0  0  0  0  0  0  0
  141.6008   74.4673  220.8188 H   0  0  0  0  0  0  0  0  0  0  0  0
  142.2040   76.9085  221.0999 H   0  0  0  0  0  0  0  0  0  0  0  0
  140.6237   76.7891  220.3039 H   0  0  0  0  0  0  0  0  0  0  0  0
  1  2  1  0
  2  3  1  0
  3  4  2  0
  3  5  1  0
  5  6  1  0
  6  7  2  0
  7  8  1  0
  8  9  2  0
  9 10  1  0
 10 11  2  0
  5 12  1  0
 12 13  1  0
 13 14  1  0
 14 15  1  0
 15 16  1  0
 16 17  2  0
 16 18  1  0
 18 19  1  0
 18 20  1  0
 20 21  1  0
 21 22  1  0
 21 23  1  0
 23 24  2  0
 24 25  1  0
 25 26  2  0
 26 27  1  0
 27 28  2  0
 15 29  1  0
 29 30  1  0
 11  6  1  0
 30 12  1  0
 28 23  1  0
  1 31  1  0
  1 32  1  0
  1 33  1  0
  2 34  1  0
  2 35  1  0
  7 36  1  0
  8 37  1  0
  9 38  1  0
 10 39  1  0
 11 40  1  0
 12 41  1  0
 13 42  1  0
 13 43  1  0
 14 44  1  0
 14 45  1  0
 18 46  1  6
 19 47  1  0
 19 48  1  0
 20 49  1  0
 20 50  1  0
 21 51  1  1
 22 52  1  0
 22 53  1  0
 22 54  1  0
 24 55  1  0
 25 56  1  0
 26 57  1  0
 27 58  1  0
 28 59  1  0
 29 60  1  0
 29 61  1  0
 30 62  1  0
 30 63  1  0
M  END
>  <smiles>  (95) 
CCC(=O)N(c1ccccc1)C1CCN(C(=O)[C@H](N)CC(C)c2ccccc2)CC1

>  <score_type>  (95) 
oracle

>  <origin>  (95) 
autodockgpu

>  <m_score__min__energy>  (95) 
-8.3599999999999994

>  <m_primary>  (95) 
energy

>  <rmsd>  (95) 
6.45256508800574

>  <m_score__min__rmsd>  (95) 
6.45256508800574

>  <meeko>  (95) 
{"free_energy": -7.52, "intermolecular_energy": -10.2, "internal_energy": -2.02, "cluster_size": 1, "cluster_id": 5, "rank_in_cluster": 1}

>  <energy>  (95) 
-7.52

>  <cluster_rmsd>  (95) 
0.0

>  <cluster>  (95) 
5

$$$$

     RDKit          3D

 63 65  0  0  0  0  0  0  0  0999 V2000
  139.1740   79.2160  219.9650 C   0  0  0  0  0  0  0  0  0  0  0  0
  140.1990   78.8080  218.9120 C   0  0  0  0  0  0  0  0  0  0  0  0
  141.3500   78.2380  219.6230 C   0  0  0  0  0  0  0  0  0  0  0  0
  142.4630   78.2440  218.9880 O   0  0  0  0  0  0  0  0  0  0  0  0
  141.3810   77.6850  220.9130 N   0  0  0  0  0  0  0  0  0  0  0  0
  141.6780   78.6290  221.9800 C   0  0  0  0  0  0  0  0  0  0  0  0
  142.1740   79.8540  221.5830 C   0  0  0  0  0  0  0  0  0  0  0  0
  142.4790   80.8060  222.5430 C   0  0  0  0  0  0  0  0  0  0  0  0
  142.2790   80.5030  223.8750 C   0  0  0  0  0  0  0  0  0  0  0  0
  141.7800   79.2620  224.2460 C   0  0  0  0  0  0  0  0  0  0  0  0
  141.4650   78.2890  223.3000 C   0  0  0  0  0  0  0  0  0  0  0  0
  141.1360   76.3340  221.3010 C   0  0  0  0  0  0  0  0  0  0  0  0
  139.6330   76.1200  221.4300 C   0  0  0  0  0  0  0  0  0  0  0  0
  139.2960   74.8070  220.7600 C   0  0  0  0  0  0  0  0  0  0  0  0
  140.1810   73.7480  221.2640 N   0  0  0  0  0  0  0  0  0  0  0  0
  139.5590   72.5790  221.7860 C   0  0  0  0  0  0  0  0  0  0  0  0
  138.2990   72.5350  221.7750 O   0  0  0  0  0  0  0  0  0  0  0  0
  140.2820   71.4260  222.3340 C   0  0  2  0  0  0  0  0  0  0  0  0
  139.7800   70.1660  221.8300 N   0  0  0  0  0  0  0  0  0  0  0  0
  140.5010   71.4540  223.8010 C   0  0  0  0  0  0  0  0  0  0  0  0
  139.3990   71.1800  224.7150 C   0  0  1  0  0  0  0  0  0  0  0  0
  138.4040   70.1370  224.3860 C   0  0  0  0  0  0  0  0  0  0  0  0
  140.0100   70.7500  226.0250 C   0  0  0  0  0  0  0  0  0  0  0  0
  139.9820   69.3950  226.2800 C   0  0  0  0  0  0  0  0  0  0  0  0
  140.5060   68.8430  227.4430 C   0  0  0  0  0  0  0  0  0  0  0  0
  141.0640   69.7300  228.3450 C   0  0  0  0  0  0  0  0  0  0  0  0
  141.0910   71.0870  228.0900 C   0  0  0  0  0  0  0  0  0  0  0  0
  140.5580   71.6170  226.9130 C   0  0  0  0  0  0  0  0  0  0  0  0
  141.6020   73.9500  221.2020 C   0  0  0  0  0  0  0  0  0  0  0  0
  141.8010   75.2890  220.4640 C   0  0  0  0  0  0  0  0  0  0  0  0
  139.5929   79.0493  220.9684 H   0  0  0  0  0  0  0  0  0  0  0  0
  138.9271   80.2810  219.8431 H   0  0  0  0  0  0  0  0  0  0  0  0
  138.2628   78.6120  219.8431 H   0  0  0  0  0  0  0  0  0  0  0  0
  139.7651   78.0575  218.2349 H   0  0  0  0  0  0  0  0  0  0  0  0
  140.5041   79.6753  218.3081 H   0  0  0  0  0  0  0  0  0  0  0  0
  142.3257   80.0726  220.5157 H   0  0  0  0  0  0  0  0  0  0  0  0
  142.8748   81.7890  222.2478 H   0  0  0  0  0  0  0  0  0  0  0  0
  142.5166   81.2497  224.6471 H   0  0  0  0  0  0  0  0  0  0  0  0
  141.6296   79.0414  225.3131 H   0  0  0  0  0  0  0  0  0  0  0  0
  141.0686   77.3046  223.5894 H   0  0  0  0  0  0  0  0  0  0  0  0
  141.6201   76.1935  222.2787 H   0  0  0  0  0  0  0  0  0  0  0  0
  139.3499   76.0820  222.4923 H   0  0  0  0  0  0  0  0  0  0  0  0
  139.0842   76.9466  220.9552 H   0  0  0  0  0  0  0  0  0  0  0  0
  138.2506   74.5436  220.9784 H   0  0  0  0  0  0  0  0  0  0  0  0
  139.4341   74.9084  219.6734 H   0  0  0  0  0  0  0  0  0  0  0  0
  141.3042   71.5235  221.9396 H   0  0  0  0  0  0  0  0  0  0  0  0
  138.8470   70.2150  221.4220 H   0  0  0  0  0  0  0  0  0  0  0  0
  140.4690   69.5360  221.4240 H   0  0  0  0  0  0  0  0  0  0  0  0
  141.2834   70.7119  224.0179 H   0  0  0  0  0  0  0  0  0  0  0  0
  140.7317   72.5113  223.9985 H   0  0  0  0  0  0  0  0  0  0  0  0
  138.8275   72.1196  224.6926 H   0  0  0  0  0  0  0  0  0  0  0  0
  137.9980   69.7114  225.3155 H   0  0  0  0  0  0  0  0  0  0  0  0
  137.5870   70.5818  223.7989 H   0  0  0  0  0  0  0  0  0  0  0  0
  138.8868   69.3419  223.7989 H   0  0  0  0  0  0  0  0  0  0  0  0
  139.5277   68.7256  225.5347 H   0  0  0  0  0  0  0  0  0  0  0  0
  140.4783   67.7603  227.6352 H   0  0  0  0  0  0  0  0  0  0  0  0
  141.4941   69.3479  229.2826 H   0  0  0  0  0  0  0  0  0  0  0  0
  141.5419   71.7648  228.8297 H   0  0  0  0  0  0  0  0  0  0  0  0
  140.5816   72.6984  226.7131 H   0  0  0  0  0  0  0  0  0  0  0  0
  142.0264   74.0038  222.2154 H   0  0  0  0  0  0  0  0  0  0  0  0
  142.1077   73.1218  220.6840 H   0  0  0  0  0  0  0  0  0  0  0  0
  142.8734   75.5104  220.3598 H   0  0  0  0  0  0  0  0  0  0  0  0
  141.3710   75.2548  219.4521 H   0  0  0  0  0  0  0  0  0  0  0  0
  1  2  1  0
  2  3  1  0
  3  4  2  0
  3  5  1  0
  5  6  1  0
  6  7  2  0
  7  8  1  0
  8  9  2  0
  9 10  1  0
 10 11  2  0
  5 12  1  0
 12 13  1  0
 13 14  1  0
 14 15  1  0
 15 16  1  0
 16 17  2  0
 16 18  1  0
 18 19  1  0
 18 20  1  0
 20 21  1  0
 21 22  1  0
 21 23  1  0
 23 24  2  0
 24 25  1  0
 25 26  2  0
 26 27  1  0
 27 28  2  0
 15 29  1  0
 29 30  1  0
 11  6  1  0
 30 12  1  0
 28 23  1  0
  1 31  1  0
  1 32  1  0
  1 33  1  0
  2 34  1  0
  2 35  1  0
  7 36  1  0
  8 37  1  0
  9 38  1  0
 10 39  1  0
 11 40  1  0
 12 41  1  0
 13 42  1  0
 13 43  1  0
 14 44  1  0
 14 45  1  0
 18 46  1  6
 19 47  1  0
 19 48  1  0
 20 49  1  0
 20 50  1  0
 21 51  1  1
 22 52  1  0
 22 53  1  0
 22 54  1  0
 24 55  1  0
 25 56  1  0
 26 57  1  0
 27 58  1  0
 28 59  1  0
 29 60  1  0
 29 61  1  0
 30 62  1  0
 30 63  1  0
M  END
>  <smiles>  (96) 
CCC(=O)N(c1ccccc1)C1CCN(C(=O)[C@H](N)CC(C)c2ccccc2)CC1

>  <score_type>  (96) 
oracle

>  <origin>  (96) 
autodockgpu

>  <m_score__min__energy>  (96) 
-8.3599999999999994

>  <m_primary>  (96) 
energy

>  <rmsd>  (96) 
6.948035110064081

>  <m_score__min__rmsd>  (96) 
6.948035110064081

>  <meeko>  (96) 
{"free_energy": -7.37, "intermolecular_energy": -10.05, "internal_energy": -2.1, "cluster_size": 7, "cluster_id": 2, "rank_in_cluster": 7}

>  <energy>  (96) 
-7.37

>  <cluster_rmsd>  (96) 
0.0

>  <cluster>  (96) 
6

$$$$

     RDKit          3D

 63 65  0  0  0  0  0  0  0  0999 V2000
  137.7170   79.3660  220.4720 C   0  0  0  0  0  0  0  0  0  0  0  0
  137.1130   79.1840  221.8590 C   0  0  0  0  0  0  0  0  0  0  0  0
  138.2280   79.0770  222.8090 C   0  0  0  0  0  0  0  0  0  0  0  0
  138.1170   79.7620  223.8860 O   0  0  0  0  0  0  0  0  0  0  0  0
  139.4020   78.3180  222.6820 N   0  0  0  0  0  0  0  0  0  0  0  0
  140.6330   79.0930  222.6410 C   0  0  0  0  0  0  0  0  0  0  0  0
  141.3760   79.1110  223.8030 C   0  0  0  0  0  0  0  0  0  0  0  0
  142.5610   79.8270  223.8410 C   0  0  0  0  0  0  0  0  0  0  0  0
  142.9710   80.5060  222.7100 C   0  0  0  0  0  0  0  0  0  0  0  0
  142.2030   80.4710  221.5540 C   0  0  0  0  0  0  0  0  0  0  0  0
  141.0080   79.7580  221.4920 C   0  0  0  0  0  0  0  0  0  0  0  0
  139.5330   76.8980  222.6130 C   0  0  0  0  0  0  0  0  0  0  0  0
  138.1520   76.2800  222.4420 C   0  0  0  0  0  0  0  0  0  0  0  0
  138.2540   75.2160  221.3710 C   0  0  0  0  0  0  0  0  0  0  0  0
  139.3720   74.3130  221.6710 N   0  0  0  0  0  0  0  0  0  0  0  0
  139.0820   72.9200  221.7250 C   0  0  0  0  0  0  0  0  0  0  0  0
  137.8930   72.5640  221.5080 O   0  0  0  0  0  0  0  0  0  0  0  0
  140.0710   71.8750  222.0140 C   0  0  2  0  0  0  0  0  0  0  0  0
  139.8090   70.6490  221.2930 N   0  0  0  0  0  0  0  0  0  0  0  0
  140.3880   71.6830  223.4510 C   0  0  0  0  0  0  0  0  0  0  0  0
  139.4910   70.9160  224.3070 C   0  0  1  0  0  0  0  0  0  0  0  0
  139.2150   69.4950  224.0080 C   0  0  0  0  0  0  0  0  0  0  0  0
  140.0890   70.9250  225.6910 C   0  0  0  0  0  0  0  0  0  0  0  0
  139.7240   69.8740  226.5050 C   0  0  0  0  0  0  0  0  0  0  0  0
  140.1920   69.7400  227.8070 C   0  0  0  0  0  0  0  0  0  0  0  0
  141.0510   70.7270  228.2540 C   0  0  0  0  0  0  0  0  0  0  0  0
  141.4160   71.7810  227.4390 C   0  0  0  0  0  0  0  0  0  0  0  0
  140.9320   71.8920  226.1340 C   0  0  0  0  0  0  0  0  0  0  0  0
  140.6740   74.8780  221.8910 C   0  0  0  0  0  0  0  0  0  0  0  0
  140.5250   76.3880  221.6190 C   0  0  0  0  0  0  0  0  0  0  0  0
  138.7662   79.6822  220.5676 H   0  0  0  0  0  0  0  0  0  0  0  0
  137.6695   78.4137  219.9236 H   0  0  0  0  0  0  0  0  0  0  0  0
  137.1513   80.1336  219.9236 H   0  0  0  0  0  0  0  0  0  0  0  0
  136.4840   80.0501  222.1125 H   0  0  0  0  0  0  0  0  0  0  0  0
  136.4826   78.2833  221.8946 H   0  0  0  0  0  0  0  0  0  0  0  0
  141.0306   78.5618  224.6913 H   0  0  0  0  0  0  0  0  0  0  0  0
  143.1670   79.8546  224.7586 H   0  0  0  0  0  0  0  0  0  0  0  0
  143.9108   81.0774  222.7254 H   0  0  0  0  0  0  0  0  0  0  0  0
  142.5467   81.0200  220.6649 H   0  0  0  0  0  0  0  0  0  0  0  0
  140.3973   79.7269  220.5777 H   0  0  0  0  0  0  0  0  0  0  0  0
  139.9716   76.5740  223.5683 H   0  0  0  0  0  0  0  0  0  0  0  0
  137.8239   75.8277  223.3895 H   0  0  0  0  0  0  0  0  0  0  0  0
  137.4191   77.0480  222.1538 H   0  0  0  0  0  0  0  0  0  0  0  0
  137.3177   74.6396  221.3388 H   0  0  0  0  0  0  0  0  0  0  0  0
  138.4273   75.6970  220.3970 H   0  0  0  0  0  0  0  0  0  0  0  0
  141.0172   72.2659  221.6116 H   0  0  0  0  0  0  0  0  0  0  0  0
  138.8710   70.5810  220.9000 H   0  0  0  0  0  0  0  0  0  0  0  0
  140.5940   70.2510  220.7800 H   0  0  0  0  0  0  0  0  0  0  0  0
  141.3682   71.1857  223.4946 H   0  0  0  0  0  0  0  0  0  0  0  0
  140.3133   72.7011  223.8607 H   0  0  0  0  0  0  0  0  0  0  0  0
  138.5244   71.4189  224.1564 H   0  0  0  0  0  0  0  0  0  0  0  0
  139.1065   68.9366  224.9495 H   0  0  0  0  0  0  0  0  0  0  0  0
  138.2849   69.4167  223.4260 H   0  0  0  0  0  0  0  0  0  0  0  0
  140.0482   69.0742  223.4260 H   0  0  0  0  0  0  0  0  0  0  0  0
  139.0361   69.1124  226.1091 H   0  0  0  0  0  0  0  0  0  0  0  0
  139.8954   68.8955  228.4464 H   0  0  0  0  0  0  0  0  0  0  0  0
  141.4510   70.6719  229.2772 H   0  0  0  0  0  0  0  0  0  0  0  0
  142.1021   72.5487  227.8261 H   0  0  0  0  0  0  0  0  0  0  0  0
  141.2236   72.7332  225.4880 H   0  0  0  0  0  0  0  0  0  0  0  0
  140.9968   74.7052  222.9283 H   0  0  0  0  0  0  0  0  0  0  0  0
  141.4309   74.4205  221.2369 H   0  0  0  0  0  0  0  0  0  0  0  0
  141.4918   76.8959  221.7510 H   0  0  0  0  0  0  0  0  0  0  0  0
  140.1910   76.5772  220.5881 H   0  0  0  0  0  0  0  0  0  0  0  0
  1  2  1  0
  2  3  1  0
  3  4  2  0
  3  5  1  0
  5  6  1  0
  6  7  2  0
  7  8  1  0
  8  9  2  0
  9 10  1  0
 10 11  2  0
  5 12  1  0
 12 13  1  0
 13 14  1  0
 14 15  1  0
 15 16  1  0
 16 17  2  0
 16 18  1  0
 18 19  1  0
 18 20  1  0
 20 21  1  0
 21 22  1  0
 21 23  1  0
 23 24  2  0
 24 25  1  0
 25 26  2  0
 26 27  1  0
 27 28  2  0
 15 29  1  0
 29 30  1  0
 11  6  1  0
 30 12  1  0
 28 23  1  0
  1 31  1  0
  1 32  1  0
  1 33  1  0
  2 34  1  0
  2 35  1  0
  7 36  1  0
  8 37  1  0
  9 38  1  0
 10 39  1  0
 11 40  1  0
 12 41  1  0
 13 42  1  0
 13 43  1  0
 14 44  1  0
 14 45  1  0
 18 46  1  6
 19 47  1  0
 19 48  1  0
 20 49  1  0
 20 50  1  0
 21 51  1  1
 22 52  1  0
 22 53  1  0
 22 54  1  0
 24 55  1  0
 25 56  1  0
 26 57  1  0
 27 58  1  0
 28 59  1  0
 29 60  1  0
 29 61  1  0
 30 62  1  0
 30 63  1  0
M  END
>  <smiles>  (97) 
CCC(=O)N(c1ccccc1)C1CCN(C(=O)[C@H](N)CC(C)c2ccccc2)CC1

>  <score_type>  (97) 
oracle

>  <origin>  (97) 
autodockgpu

>  <m_score__min__energy>  (97) 
-8.3599999999999994

>  <m_primary>  (97) 
energy

>  <rmsd>  (97) 
6.767104674717834

>  <m_score__min__rmsd>  (97) 
6.767104674717834

>  <meeko>  (97) 
{"free_energy": -7.29, "intermolecular_energy": -9.97, "internal_energy": -2.31, "cluster_size": 8, "cluster_id": 4, "rank_in_cluster": 6}

>  <energy>  (97) 
-7.33

>  <cluster_rmsd>  (97) 
0.4

>  <cluster>  (97) 
6

$$$$

     RDKit          3D

 63 65  0  0  0  0  0  0  0  0999 V2000
  145.7790   74.1480  220.5410 C   0  0  0  0  0  0  0  0  0  0  0  0
  146.3100   72.7200  220.4790 C   0  0  0  0  0  0  0  0  0  0  0  0
  145.5390   72.0130  219.4480 C   0  0  0  0  0  0  0  0  0  0  0  0
  145.7830   72.3470  218.2350 O   0  0  0  0  0  0  0  0  0  0  0  0
  144.5660   71.0170  219.6270 N   0  0  0  0  0  0  0  0  0  0  0  0
  144.9370   69.7000  219.1310 C   0  0  0  0  0  0  0  0  0  0  0  0
  144.7580   68.6500  220.0070 C   0  0  0  0  0  0  0  0  0  0  0  0
  145.0880   67.3660  219.6050 C   0  0  0  0  0  0  0  0  0  0  0  0
  145.5880   67.1690  218.3320 C   0  0  0  0  0  0  0  0  0  0  0  0
  145.7580   68.2450  217.4720 C   0  0  0  0  0  0  0  0  0  0  0  0
  145.4330   69.5450  217.8530 C   0  0  0  0  0  0  0  0  0  0  0  0
  143.2880   71.1330  220.2510 C   0  0  0  0  0  0  0  0  0  0  0  0
  143.2400   72.4310  221.0460 C   0  0  0  0  0  0  0  0  0  0  0  0
  141.9110   73.0960  220.7610 C   0  0  0  0  0  0  0  0  0  0  0  0
  140.8190   72.1340  220.9590 N   0  0  0  0  0  0  0  0  0  0  0  0
  139.7720   72.5180  221.8430 C   0  0  0  0  0  0  0  0  0  0  0  0
  139.8540   73.6520  222.3860 O   0  0  0  0  0  0  0  0  0  0  0  0
  138.6060   71.6860  222.1630 C   0  0  2  0  0  0  0  0  0  0  0  0
  137.4770   72.4650  222.6200 N   0  0  0  0  0  0  0  0  0  0  0  0
  138.8930   70.4840  222.9860 C   0  0  0  0  0  0  0  0  0  0  0  0
  138.2340   70.2990  224.2730 C   0  0  1  0  0  0  0  0  0  0  0  0
  137.5840   69.0110  224.5940 C   0  0  0  0  0  0  0  0  0  0  0  0
  139.2850   70.4930  225.3370 C   0  0  0  0  0  0  0  0  0  0  0  0
  139.2930   69.5520  226.3450 C   0  0  0  0  0  0  0  0  0  0  0  0
  140.2010   69.5930  227.3970 C   0  0  0  0  0  0  0  0  0  0  0  0
  141.1060   70.6380  227.3860 C   0  0  0  0  0  0  0  0  0  0  0  0
  141.0970   71.5810  226.3760 C   0  0  0  0  0  0  0  0  0  0  0  0
  140.1740   71.5170  225.3290 C   0  0  0  0  0  0  0  0  0  0  0  0
  140.8710   70.8790  220.2610 C   0  0  0  0  0  0  0  0  0  0  0  0
  142.1100   70.9600  219.3470 C   0  0  0  0  0  0  0  0  0  0  0  0
  145.6660   74.4519  221.5921 H   0  0  0  0  0  0  0  0  0  0  0  0
  146.4858   74.8242  220.0378 H   0  0  0  0  0  0  0  0  0  0  0  0
  144.8021   74.1981  220.0378 H   0  0  0  0  0  0  0  0  0  0  0  0
  147.3774   72.7263  220.2131 H   0  0  0  0  0  0  0  0  0  0  0  0
  146.2051   72.2223  221.4543 H   0  0  0  0  0  0  0  0  0  0  0  0
  144.3570   68.8303  221.0153 H   0  0  0  0  0  0  0  0  0  0  0  0
  144.9539   66.5154  220.2895 H   0  0  0  0  0  0  0  0  0  0  0  0
  145.8525   66.1547  217.9987 H   0  0  0  0  0  0  0  0  0  0  0  0
  146.1597   68.0667  216.4636 H   0  0  0  0  0  0  0  0  0  0  0  0
  145.5644   70.3997  217.1732 H   0  0  0  0  0  0  0  0  0  0  0  0
  143.1883   70.2749  220.9319 H   0  0  0  0  0  0  0  0  0  0  0  0
  143.3282   72.2154  222.1211 H   0  0  0  0  0  0  0  0  0  0  0  0
  144.0710   73.0910  220.7566 H   0  0  0  0  0  0  0  0  0  0  0  0
  141.7753   73.9477  221.4438 H   0  0  0  0  0  0  0  0  0  0  0  0
  141.8984   73.4494  219.7194 H   0  0  0  0  0  0  0  0  0  0  0  0
  138.3009   71.2492  221.2007 H   0  0  0  0  0  0  0  0  0  0  0  0
  137.7180   73.3860  222.9840 H   0  0  0  0  0  0  0  0  0  0  0  0
  136.6070   72.3460  222.1040 H   0  0  0  0  0  0  0  0  0  0  0  0
  138.6344   69.6101  222.3700 H   0  0  0  0  0  0  0  0  0  0  0  0
  139.9489   70.6181  223.2635 H   0  0  0  0  0  0  0  0  0  0  0  0
  137.4042   71.0196  224.2264 H   0  0  0  0  0  0  0  0  0  0  0  0
  137.5242   68.8926  225.6860 H   0  0  0  0  0  0  0  0  0  0  0  0
  136.5702   68.9956  224.1675 H   0  0  0  0  0  0  0  0  0  0  0  0
  138.1738   68.1863  224.1675 H   0  0  0  0  0  0  0  0  0  0  0  0
  138.5532   68.7384  226.3156 H   0  0  0  0  0  0  0  0  0  0  0  0
  140.1994   68.8354  228.1945 H   0  0  0  0  0  0  0  0  0  0  0  0
  141.8463   70.7203  228.1955 H   0  0  0  0  0  0  0  0  0  0  0  0
  141.8319   72.3992  226.3967 H   0  0  0  0  0  0  0  0  0  0  0  0
  140.1687   72.2700  224.5272 H   0  0  0  0  0  0  0  0  0  0  0  0
  140.9742   70.0477  220.9740 H   0  0  0  0  0  0  0  0  0  0  0  0
  139.9523   70.6974  219.6839 H   0  0  0  0  0  0  0  0  0  0  0  0
  142.2122   70.0346  218.7611 H   0  0  0  0  0  0  0  0  0  0  0  0
  142.0272   71.7939  218.6344 H   0  0  0  0  0  0  0  0  0  0  0  0
  1  2  1  0
  2  3  1  0
  3  4  2  0
  3  5  1  0
  5  6  1  0
  6  7  2  0
  7  8  1  0
  8  9  2  0
  9 10  1  0
 10 11  2  0
  5 12  1  0
 12 13  1  0
 13 14  1  0
 14 15  1  0
 15 16  1  0
 16 17  2  0
 16 18  1  0
 18 19  1  0
 18 20  1  0
 20 21  1  0
 21 22  1  0
 21 23  1  0
 23 24  2  0
 24 25  1  0
 25 26  2  0
 26 27  1  0
 27 28  2  0
 15 29  1  0
 29 30  1  0
 11  6  1  0
 30 12  1  0
 28 23  1  0
  1 31  1  0
  1 32  1  0
  1 33  1  0
  2 34  1  0
  2 35  1  0
  7 36  1  0
  8 37  1  0
  9 38  1  0
 10 39  1  0
 11 40  1  0
 12 41  1  0
 13 42  1  0
 13 43  1  0
 14 44  1  0
 14 45  1  0
 18 46  1  6
 19 47  1  0
 19 48  1  0
 20 49  1  0
 20 50  1  0
 21 51  1  1
 22 52  1  0
 22 53  1  0
 22 54  1  0
 24 55  1  0
 25 56  1  0
 26 57  1  0
 27 58  1  0
 28 59  1  0
 29 60  1  0
 29 61  1  0
 30 62  1  0
 30 63  1  0
M  END
>  <smiles>  (98) 
CCC(=O)N(c1ccccc1)C1CCN(C(=O)[C@H](N)CC(C)c2ccccc2)CC1

>  <score_type>  (98) 
oracle

>  <origin>  (98) 
autodockgpu

>  <m_score__min__energy>  (98) 
-8.3599999999999994

>  <m_primary>  (98) 
energy

>  <rmsd>  (98) 
8.672887746217645

>  <m_score__min__rmsd>  (98) 
8.672887746217645

>  <meeko>  (98) 
{"free_energy": -7.7, "intermolecular_energy": -10.39, "internal_energy": -2.37, "cluster_size": 11, "cluster_id": 1, "rank_in_cluster": 9}

>  <energy>  (98) 
-7.14

>  <cluster_rmsd>  (98) 
0.68

>  <cluster>  (98) 
6

$$$$

     RDKit          3D

 63 65  0  0  0  0  0  0  0  0999 V2000
  142.5080   79.6690  217.9850 C   0  0  0  0  0  0  0  0  0  0  0  0
  142.4640   78.2800  218.6110 C   0  0  0  0  0  0  0  0  0  0  0  0
  141.3520   78.2700  219.5710 C   0  0  0  0  0  0  0  0  0  0  0  0
  140.2700   78.8370  219.1850 O   0  0  0  0  0  0  0  0  0  0  0  0
  141.3300   77.7180  220.8620 N   0  0  0  0  0  0  0  0  0  0  0  0
  141.5880   78.6630  221.9390 C   0  0  0  0  0  0  0  0  0  0  0  0
  141.8620   79.9590  221.5540 C   0  0  0  0  0  0  0  0  0  0  0  0
  142.1170   80.9150  222.5240 C   0  0  0  0  0  0  0  0  0  0  0  0
  142.0910   80.5450  223.8540 C   0  0  0  0  0  0  0  0  0  0  0  0
  141.8130   79.2330  224.2120 C   0  0  0  0  0  0  0  0  0  0  0  0
  141.5530   78.2540  223.2560 C   0  0  0  0  0  0  0  0  0  0  0  0
  141.0640   76.3690  221.2410 C   0  0  0  0  0  0  0  0  0  0  0  0
  139.6410   76.2740  221.7740 C   0  0  0  0  0  0  0  0  0  0  0  0
  139.0020   75.0460  221.1650 C   0  0  0  0  0  0  0  0  0  0  0  0
  139.8790   73.8820  221.3530 N   0  0  0  0  0  0  0  0  0  0  0  0
  139.3080   72.7360  221.9750 C   0  0  0  0  0  0  0  0  0  0  0  0
  138.0960   72.7990  222.3120 O   0  0  0  0  0  0  0  0  0  0  0  0
  140.0330   71.4890  222.2460 C   0  0  2  0  0  0  0  0  0  0  0  0
  139.4170   70.3420  221.6170 N   0  0  0  0  0  0  0  0  0  0  0  0
  140.4180   71.2760  223.6630 C   0  0  0  0  0  0  0  0  0  0  0  0
  139.4820   70.6590  224.5950 C   0  0  1  0  0  0  0  0  0  0  0  0
  139.0670   69.2530  224.4080 C   0  0  0  0  0  0  0  0  0  0  0  0
  140.1250   70.7070  225.9600 C   0  0  0  0  0  0  0  0  0  0  0  0
  140.7910   71.8750  226.2630 C   0  0  0  0  0  0  0  0  0  0  0  0
  141.4330   72.0740  227.4800 C   0  0  0  0  0  0  0  0  0  0  0  0
  141.3720   71.0280  228.3830 C   0  0  0  0  0  0  0  0  0  0  0  0
  140.7040   69.8580  228.0780 C   0  0  0  0  0  0  0  0  0  0  0  0
  140.0670   69.6840  226.8480 C   0  0  0  0  0  0  0  0  0  0  0  0
  141.2410   73.9670  220.9070 C   0  0  0  0  0  0  0  0  0  0  0  0
  141.3670   75.3350  220.2050 C   0  0  0  0  0  0  0  0  0  0  0  0
  142.5321   80.4289  218.7800 H   0  0  0  0  0  0  0  0  0  0  0  0
  143.4095   79.7619  217.3616 H   0  0  0  0  0  0  0  0  0  0  0  0
  141.6141   79.8187  217.3616 H   0  0  0  0  0  0  0  0  0  0  0  0
  142.2964   77.5211  217.8325 H   0  0  0  0  0  0  0  0  0  0  0  0
  143.4149   78.0482  219.1131 H   0  0  0  0  0  0  0  0  0  0  0  0
  141.8779   80.2306  220.4882 H   0  0  0  0  0  0  0  0  0  0  0  0
  142.3371   81.9542  222.2385 H   0  0  0  0  0  0  0  0  0  0  0  0
  142.2917   81.2941  224.6342 H   0  0  0  0  0  0  0  0  0  0  0  0
  141.7977   78.9596  225.2774 H   0  0  0  0  0  0  0  0  0  0  0  0
  141.3322   77.2133  223.5354 H   0  0  0  0  0  0  0  0  0  0  0  0
  141.7786   76.1179  222.0386 H   0  0  0  0  0  0  0  0  0  0  0  0
  139.6570   76.1833  222.8701 H   0  0  0  0  0  0  0  0  0  0  0  0
  139.0700   77.1763  221.5097 H   0  0  0  0  0  0  0  0  0  0  0  0
  138.0350   74.8572  221.6541 H   0  0  0  0  0  0  0  0  0  0  0  0
  138.8473   75.2135  220.0889 H   0  0  0  0  0  0  0  0  0  0  0  0
  141.0071   71.6176  221.7514 H   0  0  0  0  0  0  0  0  0  0  0  0
  138.4210   70.4480  221.4250 H   0  0  0  0  0  0  0  0  0  0  0  0
  139.9970   69.8200  220.9630 H   0  0  0  0  0  0  0  0  0  0  0  0
  141.3183   70.6440  223.6543 H   0  0  0  0  0  0  0  0  0  0  0  0
  140.5176   72.3004  224.0511 H   0  0  0  0  0  0  0  0  0  0  0  0
  138.5617   71.2393  224.4332 H   0  0  0  0  0  0  0  0  0  0  0  0
  138.9269   68.7783  225.3904 H   0  0  0  0  0  0  0  0  0  0  0  0
  138.1212   69.2213  223.8472 H   0  0  0  0  0  0  0  0  0  0  0  0
  139.8440   68.7128  223.8472 H   0  0  0  0  0  0  0  0  0  0  0  0
  140.8155   72.6800  225.5138 H   0  0  0  0  0  0  0  0  0  0  0  0
  141.9602   73.0112  227.7119 H   0  0  0  0  0  0  0  0  0  0  0  0
  141.8642   71.1297  229.3615 H   0  0  0  0  0  0  0  0  0  0  0  0
  140.6733   69.0464  228.8199 H   0  0  0  0  0  0  0  0  0  0  0  0
  139.5371   68.7505  226.6079 H   0  0  0  0  0  0  0  0  0  0  0  0
  141.9290   73.9108  221.7634 H   0  0  0  0  0  0  0  0  0  0  0  0
  141.4986   73.1388  220.2305 H   0  0  0  0  0  0  0  0  0  0  0  0
  142.3875   75.4716  219.8179 H   0  0  0  0  0  0  0  0  0  0  0  0
  140.6773   75.4108  219.3514 H   0  0  0  0  0  0  0  0  0  0  0  0
  1  2  1  0
  2  3  1  0
  3  4  2  0
  3  5  1  0
  5  6  1  0
  6  7  2  0
  7  8  1  0
  8  9  2  0
  9 10  1  0
 10 11  2  0
  5 12  1  0
 12 13  1  0
 13 14  1  0
 14 15  1  0
 15 16  1  0
 16 17  2  0
 16 18  1  0
 18 19  1  0
 18 20  1  0
 20 21  1  0
 21 22  1  0
 21 23  1  0
 23 24  2  0
 24 25  1  0
 25 26  2  0
 26 27  1  0
 27 28  2  0
 15 29  1  0
 29 30  1  0
 11  6  1  0
 30 12  1  0
 28 23  1  0
  1 31  1  0
  1 32  1  0
  1 33  1  0
  2 34  1  0
  2 35  1  0
  7 36  1  0
  8 37  1  0
  9 38  1  0
 10 39  1  0
 11 40  1  0
 12 41  1  0
 13 42  1  0
 13 43  1  0
 14 44  1  0
 14 45  1  0
 18 46  1  6
 19 47  1  0
 19 48  1  0
 20 49  1  0
 20 50  1  0
 21 51  1  1
 22 52  1  0
 22 53  1  0
 22 54  1  0
 24 55  1  0
 25 56  1  0
 26 57  1  0
 27 58  1  0
 28 59  1  0
 29 60  1  0
 29 61  1  0
 30 62  1  0
 30 63  1  0
M  END
>  <smiles>  (99) 
CCC(=O)N(c1ccccc1)C1CCN(C(=O)[C@H](N)CC(C)c2ccccc2)CC1

>  <score_type>  (99) 
oracle

>  <origin>  (99) 
autodockgpu

>  <m_score__min__energy>  (99) 
-8.3599999999999994

>  <m_primary>  (99) 
energy

>  <rmsd>  (99) 
7.036055633844175

>  <m_score__min__rmsd>  (99) 
7.036055633844175

>  <meeko>  (99) 
{"free_energy": -7.89, "intermolecular_energy": -10.57, "internal_energy": -1.9, "cluster_size": 7, "cluster_id": 2, "rank_in_cluster": 5}

>  <energy>  (99) 
-6.38

>  <cluster_rmsd>  (99) 
0.0

>  <cluster>  (99) 
7

$$$$

     RDKit          3D

 63 65  0  0  0  0  0  0  0  0999 V2000
  142.5540   79.6910  218.1610 C   0  0  0  0  0  0  0  0  0  0  0  0
  142.3030   78.2330  218.5290 C   0  0  0  0  0  0  0  0  0  0  0  0
  141.2750   78.2180  219.5770 C   0  0  0  0  0  0  0  0  0  0  0  0
  140.1800   78.8220  219.3010 O   0  0  0  0  0  0  0  0  0  0  0  0
  141.3460   77.6250  220.8480 N   0  0  0  0  0  0  0  0  0  0  0  0
  141.6730   78.5370  221.9350 C   0  0  0  0  0  0  0  0  0  0  0  0
  142.1800   79.7650  221.5630 C   0  0  0  0  0  0  0  0  0  0  0  0
  142.5140   80.6860  222.5420 C   0  0  0  0  0  0  0  0  0  0  0  0
  142.3290   80.3510  223.8690 C   0  0  0  0  0  0  0  0  0  0  0  0
  141.8170   79.1080  224.2140 C   0  0  0  0  0  0  0  0  0  0  0  0
  141.4740   78.1650  223.2480 C   0  0  0  0  0  0  0  0  0  0  0  0
  141.1150   76.2620  221.2010 C   0  0  0  0  0  0  0  0  0  0  0  0
  139.6310   75.9560  221.0520 C   0  0  0  0  0  0  0  0  0  0  0  0
  139.5040   74.6230  220.3470 C   0  0  0  0  0  0  0  0  0  0  0  0
  140.3430   73.6220  221.0200 N   0  0  0  0  0  0  0  0  0  0  0  0
  139.7060   72.4170  221.4320 C   0  0  0  0  0  0  0  0  0  0  0  0
  138.4760   72.2950  221.1880 O   0  0  0  0  0  0  0  0  0  0  0  0
  140.3840   71.3120  222.1190 C   0  0  2  0  0  0  0  0  0  0  0  0
  139.8080   70.0240  221.7990 N   0  0  0  0  0  0  0  0  0  0  0  0
  140.6380   71.5250  223.5650 C   0  0  0  0  0  0  0  0  0  0  0  0
  139.5380   71.4780  224.5210 C   0  0  1  0  0  0  0  0  0  0  0  0
  138.3730   70.6040  224.2680 C   0  0  0  0  0  0  0  0  0  0  0  0
  140.1140   71.0070  225.8330 C   0  0  0  0  0  0  0  0  0  0  0  0
  140.0350   69.6510  226.0660 C   0  0  0  0  0  0  0  0  0  0  0  0
  140.5210   69.0620  227.2280 C   0  0  0  0  0  0  0  0  0  0  0  0
  141.0970   69.9150  228.1520 C   0  0  0  0  0  0  0  0  0  0  0  0
  141.1770   71.2750  227.9180 C   0  0  0  0  0  0  0  0  0  0  0  0
  140.6800   71.8400  226.7420 C   0  0  0  0  0  0  0  0  0  0  0  0
  141.7350   73.9120  221.2200 C   0  0  0  0  0  0  0  0  0  0  0  0
  141.9870   75.2600  220.5150 C   0  0  0  0  0  0  0  0  0  0  0  0
  142.6568   80.2884  219.0789 H   0  0  0  0  0  0  0  0  0  0  0  0
  143.4783   79.7659  217.5693 H   0  0  0  0  0  0  0  0  0  0  0  0
  141.7080   80.0707  217.5693 H   0  0  0  0  0  0  0  0  0  0  0  0
  141.9500   77.6777  217.6475 H   0  0  0  0  0  0  0  0  0  0  0  0
  143.2284   77.7562  218.8844 H   0  0  0  0  0  0  0  0  0  0  0  0
  142.3176   80.0102  220.4995 H   0  0  0  0  0  0  0  0  0  0  0  0
  142.9208   81.6702  222.2666 H   0  0  0  0  0  0  0  0  0  0  0  0
  142.5889   81.0733  224.6568 H   0  0  0  0  0  0  0  0  0  0  0  0
  141.6786   78.8614  225.2770 H   0  0  0  0  0  0  0  0  0  0  0  0
  141.0673   77.1791  223.5172 H   0  0  0  0  0  0  0  0  0  0  0  0
  141.4154   76.1520  222.2535 H   0  0  0  0  0  0  0  0  0  0  0  0
  139.1584   75.9017  222.0438 H   0  0  0  0  0  0  0  0  0  0  0  0
  139.1310   76.7467  220.4734 H   0  0  0  0  0  0  0  0  0  0  0  0
  138.4542   74.2955  220.3715 H   0  0  0  0  0  0  0  0  0  0  0  0
  139.8343   74.7312  219.3034 H   0  0  0  0  0  0  0  0  0  0  0  0
  141.4003   71.3025  221.6982 H   0  0  0  0  0  0  0  0  0  0  0  0
  138.9220   70.0700  221.2980 H   0  0  0  0  0  0  0  0  0  0  0  0
  140.4660   69.2770  221.5810 H   0  0  0  0  0  0  0  0  0  0  0  0
  141.3596   70.7551  223.8757 H   0  0  0  0  0  0  0  0  0  0  0  0
  140.9614   72.5755  223.6089 H   0  0  0  0  0  0  0  0  0  0  0  0
  139.1302   72.4984  224.4705 H   0  0  0  0  0  0  0  0  0  0  0  0
  137.9420   70.2807  225.2270 H   0  0  0  0  0  0  0  0  0  0  0  0
  137.6160   71.1589  223.6944 H   0  0  0  0  0  0  0  0  0  0  0  0
  138.6940   69.7220  223.6944 H   0  0  0  0  0  0  0  0  0  0  0  0
  139.5694   69.0098  225.3031 H   0  0  0  0  0  0  0  0  0  0  0  0
  140.4513   67.9782  227.4027 H   0  0  0  0  0  0  0  0  0  0  0  0
  141.4986   69.5037  229.0898 H   0  0  0  0  0  0  0  0  0  0  0  0
  141.6417   71.9253  228.6737 H   0  0  0  0  0  0  0  0  0  0  0  0
  140.7450   72.9227  226.5589 H   0  0  0  0  0  0  0  0  0  0  0  0
  141.9592   73.9932  222.2938 H   0  0  0  0  0  0  0  0  0  0  0  0
  142.3773   73.1162  220.8150 H   0  0  0  0  0  0  0  0  0  0  0  0
  143.0446   75.5474  220.6096 H   0  0  0  0  0  0  0  0  0  0  0  0
  141.7569   75.1986  219.4411 H   0  0  0  0  0  0  0  0  0  0  0  0
  1  2  1  0
  2  3  1  0
  3  4  2  0
  3  5  1  0
  5  6  1  0
  6  7  2  0
  7  8  1  0
  8  9  2  0
  9 10  1  0
 10 11  2  0
  5 12  1  0
 12 13  1  0
 13 14  1  0
 14 15  1  0
 15 16  1  0
 16 17  2  0
 16 18  1  0
 18 19  1  0
 18 20  1  0
 20 21  1  0
 21 22  1  0
 21 23  1  0
 23 24  2  0
 24 25  1  0
 25 26  2  0
 26 27  1  0
 27 28  2  0
 15 29  1  0
 29 30  1  0
 11  6  1  0
 30 12  1  0
 28 23  1  0
  1 31  1  0
  1 32  1  0
  1 33  1  0
  2 34  1  0
  2 35  1  0
  7 36  1  0
  8 37  1  0
  9 38  1  0
 10 39  1  0
 11 40  1  0
 12 41  1  0
 13 42  1  0
 13 43  1  0
 14 44  1  0
 14 45  1  0
 18 46  1  6
 19 47  1  0
 19 48  1  0
 20 49  1  0
 20 50  1  0
 21 51  1  1
 22 52  1  0
 22 53  1  0
 22 54  1  0
 24 55  1  0
 25 56  1  0
 26 57  1  0
 27 58  1  0
 28 59  1  0
 29 60  1  0
 29 61  1  0
 30 62  1  0
 30 63  1  0
M  END
>  <smiles>  (100) 
CCC(=O)N(c1ccccc1)C1CCN(C(=O)[C@H](N)CC(C)c2ccccc2)CC1

>  <score_type>  (100) 
oracle

>  <origin>  (100) 
autodockgpu

>  <m_score__min__energy>  (100) 
-8.3599999999999994

>  <m_primary>  (100) 
energy

>  <rmsd>  (100) 
6.841689553304709

>  <m_score__min__rmsd>  (100) 
6.841689553304709

>  <meeko>  (100) 
{"free_energy": -7.38, "intermolecular_energy": -10.07, "internal_energy": -2.26, "cluster_size": 7, "cluster_id": 2, "rank_in_cluster": 6}

>  <energy>  (100) 
-6.23

>  <cluster_rmsd>  (100) 
0.31

>  <cluster>  (100) 
7

$$$$
