
     RDKit          3D

 44 46  0  0  0  0  0  0  0  0999 V2000
  139.5110   67.9140  225.5090 C   0  0  0  0  0  0  0  0  0  0  0  0
  140.3330   69.1340  225.1510 C   0  0  1  0  0  0  0  0  0  0  0  0
  139.7050   69.7820  224.0230 N   0  0  0  0  0  0  0  0  0  0  0  0
  138.3430   70.1860  224.0960 C   0  0  0  0  0  0  0  0  0  0  0  0
  137.6860   69.9750  225.1510 O   0  0  0  0  0  0  0  0  0  0  0  0
  137.7710   70.8440  222.8960 C   0  0  0  0  0  0  0  0  0  0  0  0
  138.2090   72.2190  222.7710 N   0  0  0  0  0  0  0  0  0  0  0  0
  139.4250   72.4490  222.0670 C   0  0  0  0  0  0  0  0  0  0  0  0
  140.0150   71.4340  221.6150 O   0  0  0  0  0  0  0  0  0  0  0  0
  139.9510   73.7980  221.8870 C   0  0  0  0  0  0  0  0  0  0  0  0
  141.1190   73.9420  221.1590 C   0  0  0  0  0  0  0  0  0  0  0  0
  141.6980   75.1680  220.9310 C   0  0  0  0  0  0  0  0  0  0  0  0
  141.0750   76.2800  221.4560 C   0  0  0  0  0  0  0  0  0  0  0  0
  141.6200   77.5240  221.2520 C   0  0  0  0  0  0  0  0  0  0  0  0
  141.0070   78.6420  221.7720 C   0  0  0  0  0  0  0  0  0  0  0  0
  139.8420   78.5140  222.5010 C   0  0  0  0  0  0  0  0  0  0  0  0
  139.2450   79.6260  223.0090 F   0  0  0  0  0  0  0  0  0  0  0  0
  139.3060   77.2540  222.6970 C   0  0  0  0  0  0  0  0  0  0  0  0
  139.9030   76.1230  222.1860 C   0  0  0  0  0  0  0  0  0  0  0  0
  139.3870   74.8930  222.3730 N   0  0  0  0  0  0  0  0  0  0  0  0
  140.4190   70.1020  226.2530 C   0  0  0  0  0  0  0  0  0  0  0  0
  139.7960   69.8000  227.4490 C   0  0  0  0  0  0  0  0  0  0  0  0
  139.8950   70.7240  228.4580 C   0  0  0  0  0  0  0  0  0  0  0  0
  140.5850   71.9260  228.3180 C   0  0  0  0  0  0  0  0  0  0  0  0
  141.2060   72.2220  227.1200 C   0  0  0  0  0  0  0  0  0  0  0  0
  141.1080   71.2990  226.1100 C   0  0  0  0  0  0  0  0  0  0  0  0
  139.4490   67.8219  226.6034 H   0  0  0  0  0  0  0  0  0  0  0  0
  138.4986   68.0187  225.0919 H   0  0  0  0  0  0  0  0  0  0  0  0
  139.9883   67.0150  225.0919 H   0  0  0  0  0  0  0  0  0  0  0  0
  141.3553   68.7985  224.9223 H   0  0  0  0  0  0  0  0  0  0  0  0
  140.2680   69.9500  223.1500 H   0  0  0  0  0  0  0  0  0  0  0  0
  138.0871   70.2878  222.0012 H   0  0  0  0  0  0  0  0  0  0  0  0
  136.6757   70.8440  222.9979 H   0  0  0  0  0  0  0  0  0  0  0  0
  137.6690   73.0260  223.1750 H   0  0  0  0  0  0  0  0  0  0  0  0
  141.6017   73.0431  220.7479 H   0  0  0  0  0  0  0  0  0  0  0  0
  142.6272   75.2585  220.3492 H   0  0  0  0  0  0  0  0  0  0  0  0
  142.5487   77.6275  220.6716 H   0  0  0  0  0  0  0  0  0  0  0  0
  141.4457   79.6370  221.6064 H   0  0  0  0  0  0  0  0  0  0  0  0
  138.3770   77.1525  223.2772 H   0  0  0  0  0  0  0  0  0  0  0  0
  139.2440   68.8584  227.5861 H   0  0  0  0  0  0  0  0  0  0  0  0
  139.4081   70.5062  229.4200 H   0  0  0  0  0  0  0  0  0  0  0  0
  140.6351   72.6357  229.1569 H   0  0  0  0  0  0  0  0  0  0  0  0
  141.7585   73.1630  226.9812 H   0  0  0  0  0  0  0  0  0  0  0  0
  141.5950   71.5159  225.1478 H   0  0  0  0  0  0  0  0  0  0  0  0
  1  2  1  0
  2  3  1  0
  3  4  1  0
  4  5  2  0
  4  6  1  0
  6  7  1  0
  7  8  1  0
  8  9  2  0
  8 10  1  0
 10 11  2  0
 11 12  1  0
 12 13  2  0
 13 14  1  0
 14 15  2  0
 15 16  1  0
 16 17  1  0
 16 18  2  0
 18 19  1  0
 19 20  2  0
  2 21  1  0
 21 22  2  0
 22 23  1  0
 23 24  2  0
 24 25  1  0
 25 26  2  0
 20 10  1  0
 26 21  1  0
 19 13  1  0
  1 27  1  0
  1 28  1  0
  1 29  1  0
  2 30  1  6
  3 31  1  0
  6 32  1  0
  6 33  1  0
  7 34  1  0
 11 35  1  0
 12 36  1  0
 14 37  1  0
 15 38  1  0
 18 39  1  0
 22 40  1  0
 23 41  1  0
 24 42  1  0
 25 43  1  0
 26 44  1  0
M  END
>  <smiles>  (1) 
C[C@@H](NC(=O)CNC(=O)c1ccc2ccc(F)cc2n1)c1ccccc1

>  <score_type>  (1) 
oracle

>  <origin>  (1) 
autodockgpu

>  <m_score__min__energy>  (1) 
-8.6699999999999999

>  <m_primary>  (1) 
energy

>  <rmsd>  (1) 
9.807776126410952

>  <m_score__min__rmsd>  (1) 
9.807776126410952

>  <meeko>  (1) 
{"free_energy": -7.63, "intermolecular_energy": -9.12, "internal_energy": -1.98, "cluster_size": 23, "cluster_id": 3, "rank_in_cluster": 20}

>  <energy>  (1) 
-8.67

>  <cluster_rmsd>  (1) 
0.0

>  <cluster>  (1) 
1

$$$$

     RDKit          3D

 44 46  0  0  0  0  0  0  0  0999 V2000
  139.5720   67.8200  225.8070 C   0  0  0  0  0  0  0  0  0  0  0  0
  140.3940   69.0100  225.3610 C   0  0  1  0  0  0  0  0  0  0  0  0
  139.7560   69.5850  224.2000 N   0  0  0  0  0  0  0  0  0  0  0  0
  138.4150   70.0550  224.2790 C   0  0  0  0  0  0  0  0  0  0  0  0
  137.7870   69.9650  225.3680 O   0  0  0  0  0  0  0  0  0  0  0  0
  137.8300   70.6320  223.0440 C   0  0  0  0  0  0  0  0  0  0  0  0
  138.3760   71.9400  222.7440 N   0  0  0  0  0  0  0  0  0  0  0  0
  139.5780   71.9800  221.9840 C   0  0  0  0  0  0  0  0  0  0  0  0
  140.0630   70.8720  221.6370 O   0  0  0  0  0  0  0  0  0  0  0  0
  140.2080   73.2480  221.6300 C   0  0  0  0  0  0  0  0  0  0  0  0
  141.1430   73.2410  220.6100 C   0  0  0  0  0  0  0  0  0  0  0  0
  141.7940   74.3800  220.2000 C   0  0  0  0  0  0  0  0  0  0  0  0
  141.4880   75.5610  220.8430 C   0  0  0  0  0  0  0  0  0  0  0  0
  142.1150   76.7230  220.4650 C   0  0  0  0  0  0  0  0  0  0  0  0
  141.8190   77.9080  221.0990 C   0  0  0  0  0  0  0  0  0  0  0  0
  140.8880   77.9310  222.1190 C   0  0  0  0  0  0  0  0  0  0  0  0
  140.6030   79.1080  222.7380 F   0  0  0  0  0  0  0  0  0  0  0  0
  140.2660   76.7520  222.4880 C   0  0  0  0  0  0  0  0  0  0  0  0
  140.5470   75.5550  221.8660 C   0  0  0  0  0  0  0  0  0  0  0  0
  139.9450   74.4040  222.2200 N   0  0  0  0  0  0  0  0  0  0  0  0
  140.4960   70.0470  226.3960 C   0  0  0  0  0  0  0  0  0  0  0  0
  139.8190   69.8630  227.5870 C   0  0  0  0  0  0  0  0  0  0  0  0
  139.9350   70.8500  228.5320 C   0  0  0  0  0  0  0  0  0  0  0  0
  140.6940   72.0020  228.3350 C   0  0  0  0  0  0  0  0  0  0  0  0
  141.3690   72.1810  227.1430 C   0  0  0  0  0  0  0  0  0  0  0  0
  141.2540   71.1950  226.1950 C   0  0  0  0  0  0  0  0  0  0  0  0
  139.5466   67.7832  226.9061 H   0  0  0  0  0  0  0  0  0  0  0  0
  138.5470   67.9164  225.4195 H   0  0  0  0  0  0  0  0  0  0  0  0
  140.0250   66.8955  225.4195 H   0  0  0  0  0  0  0  0  0  0  0  0
  141.4126   68.6562  225.1435 H   0  0  0  0  0  0  0  0  0  0  0  0
  140.2950   69.6530  223.2980 H   0  0  0  0  0  0  0  0  0  0  0  0
  138.0421   69.9570  222.2017 H   0  0  0  0  0  0  0  0  0  0  0  0
  136.7471   70.7441  223.2015 H   0  0  0  0  0  0  0  0  0  0  0  0
  137.9210   72.8320  223.0660 H   0  0  0  0  0  0  0  0  0  0  0  0
  141.3737   72.2893  220.1090 H   0  0  0  0  0  0  0  0  0  0  0  0
  142.5340   74.3505  219.3866 H   0  0  0  0  0  0  0  0  0  0  0  0
  142.8564   76.7064  219.6526 H   0  0  0  0  0  0  0  0  0  0  0  0
  142.3236   78.8365  220.7936 H   0  0  0  0  0  0  0  0  0  0  0  0
  139.5257   76.7705  223.3014 H   0  0  0  0  0  0  0  0  0  0  0  0
  139.2130   68.9632  227.7690 H   0  0  0  0  0  0  0  0  0  0  0  0
  139.4053   70.7269  229.4882 H   0  0  0  0  0  0  0  0  0  0  0  0
  140.7554   72.7651  229.1248 H   0  0  0  0  0  0  0  0  0  0  0  0
  141.9759   73.0801  226.9604 H   0  0  0  0  0  0  0  0  0  0  0  0
  141.7826   71.3180  225.2382 H   0  0  0  0  0  0  0  0  0  0  0  0
  1  2  1  0
  2  3  1  0
  3  4  1  0
  4  5  2  0
  4  6  1  0
  6  7  1  0
  7  8  1  0
  8  9  2  0
  8 10  1  0
 10 11  2  0
 11 12  1  0
 12 13  2  0
 13 14  1  0
 14 15  2  0
 15 16  1  0
 16 17  1  0
 16 18  2  0
 18 19  1  0
 19 20  2  0
  2 21  1  0
 21 22  2  0
 22 23  1  0
 23 24  2  0
 24 25  1  0
 25 26  2  0
 20 10  1  0
 26 21  1  0
 19 13  1  0
  1 27  1  0
  1 28  1  0
  1 29  1  0
  2 30  1  6
  3 31  1  0
  6 32  1  0
  6 33  1  0
  7 34  1  0
 11 35  1  0
 12 36  1  0
 14 37  1  0
 15 38  1  0
 18 39  1  0
 22 40  1  0
 23 41  1  0
 24 42  1  0
 25 43  1  0
 26 44  1  0
M  END
>  <smiles>  (2) 
C[C@@H](NC(=O)CNC(=O)c1ccc2ccc(F)cc2n1)c1ccccc1

>  <score_type>  (2) 
oracle

>  <origin>  (2) 
autodockgpu

>  <m_score__min__energy>  (2) 
-8.6699999999999999

>  <m_primary>  (2) 
energy

>  <rmsd>  (2) 
9.869379713069245

>  <m_score__min__rmsd>  (2) 
9.869379713069245

>  <meeko>  (2) 
{"free_energy": -7.72, "intermolecular_energy": -9.21, "internal_energy": -1.96, "cluster_size": 23, "cluster_id": 3, "rank_in_cluster": 8}

>  <energy>  (2) 
-8.52

>  <cluster_rmsd>  (2) 
0.71

>  <cluster>  (2) 
1

$$$$

     RDKit          3D

 44 46  0  0  0  0  0  0  0  0999 V2000
  139.5450   67.7520  225.7920 C   0  0  0  0  0  0  0  0  0  0  0  0
  140.3290   68.9900  225.4090 C   0  0  1  0  0  0  0  0  0  0  0  0
  139.7150   69.5630  224.2340 N   0  0  0  0  0  0  0  0  0  0  0  0
  138.3570   69.9860  224.2700 C   0  0  0  0  0  0  0  0  0  0  0  0
  137.6920   69.8580  225.3330 O   0  0  0  0  0  0  0  0  0  0  0  0
  137.8000   70.5650  223.0230 C   0  0  0  0  0  0  0  0  0  0  0  0
  138.2760   71.9130  222.7890 N   0  0  0  0  0  0  0  0  0  0  0  0
  139.4980   72.0520  222.0720 C   0  0  0  0  0  0  0  0  0  0  0  0
  140.0590   70.9880  221.7020 O   0  0  0  0  0  0  0  0  0  0  0  0
  140.0610   73.3680  221.7860 C   0  0  0  0  0  0  0  0  0  0  0  0
  141.1300   73.4340  220.9080 C   0  0  0  0  0  0  0  0  0  0  0  0
  141.7330   74.6220  220.5720 C   0  0  0  0  0  0  0  0  0  0  0  0
  141.2400   75.7760  221.1410 C   0  0  0  0  0  0  0  0  0  0  0  0
  141.8130   76.9850  220.8320 C   0  0  0  0  0  0  0  0  0  0  0  0
  141.3290   78.1450  221.3940 C   0  0  0  0  0  0  0  0  0  0  0  0
  140.2640   78.0950  222.2710 C   0  0  0  0  0  0  0  0  0  0  0  0
  139.7940   79.2480  222.8190 F   0  0  0  0  0  0  0  0  0  0  0  0
  139.6980   76.8700  222.5710 C   0  0  0  0  0  0  0  0  0  0  0  0
  140.1660   75.6970  222.0200 C   0  0  0  0  0  0  0  0  0  0  0  0
  139.6190   74.5010  222.3090 N   0  0  0  0  0  0  0  0  0  0  0  0
  140.3380   70.0050  226.4710 C   0  0  0  0  0  0  0  0  0  0  0  0
  141.0740   71.1590  226.2770 C   0  0  0  0  0  0  0  0  0  0  0  0
  141.0600   72.0870  227.2880 C   0  0  0  0  0  0  0  0  0  0  0  0
  140.3470   71.9070  228.4710 C   0  0  0  0  0  0  0  0  0  0  0  0
  139.6130   70.7520  228.6580 C   0  0  0  0  0  0  0  0  0  0  0  0
  139.6250   69.8230  227.6490 C   0  0  0  0  0  0  0  0  0  0  0  0
  139.4955   67.6739  226.8881 H   0  0  0  0  0  0  0  0  0  0  0  0
  138.5263   67.8220  225.3830 H   0  0  0  0  0  0  0  0  0  0  0  0
  140.0438   66.8610  225.3830 H   0  0  0  0  0  0  0  0  0  0  0  0
  141.3715   68.6892  225.2284 H   0  0  0  0  0  0  0  0  0  0  0  0
  140.2850   69.6630  223.3550 H   0  0  0  0  0  0  0  0  0  0  0  0
  138.0969   69.9315  222.1741 H   0  0  0  0  0  0  0  0  0  0  0  0
  136.7057   70.6051  223.1270 H   0  0  0  0  0  0  0  0  0  0  0  0
  137.7590   72.7640  223.1270 H   0  0  0  0  0  0  0  0  0  0  0  0
  141.5099   72.5021  220.4638 H   0  0  0  0  0  0  0  0  0  0  0  0
  142.5811   74.6509  219.8721 H   0  0  0  0  0  0  0  0  0  0  0  0
  142.6615   77.0269  220.1332 H   0  0  0  0  0  0  0  0  0  0  0  0
  141.7909   79.1116  221.1442 H   0  0  0  0  0  0  0  0  0  0  0  0
  138.8494   76.8305  223.2698 H   0  0  0  0  0  0  0  0  0  0  0  0
  141.6460   71.3262  225.3524 H   0  0  0  0  0  0  0  0  0  0  0  0
  141.6375   73.0142  227.1583 H   0  0  0  0  0  0  0  0  0  0  0  0
  140.3684   72.6809  229.2524 H   0  0  0  0  0  0  0  0  0  0  0  0
  139.0401   70.5835  229.5818 H   0  0  0  0  0  0  0  0  0  0  0  0
  139.0465   68.8963  227.7780 H   0  0  0  0  0  0  0  0  0  0  0  0
  1  2  1  0
  2  3  1  0
  3  4  1  0
  4  5  2  0
  4  6  1  0
  6  7  1  0
  7  8  1  0
  8  9  2  0
  8 10  1  0
 10 11  2  0
 11 12  1  0
 12 13  2  0
 13 14  1  0
 14 15  2  0
 15 16  1  0
 16 17  1  0
 16 18  2  0
 18 19  1  0
 19 20  2  0
  2 21  1  0
 21 22  2  0
 22 23  1  0
 23 24  2  0
 24 25  1  0
 25 26  2  0
 20 10  1  0
 26 21  1  0
 19 13  1  0
  1 27  1  0
  1 28  1  0
  1 29  1  0
  2 30  1  6
  3 31  1  0
  6 32  1  0
  6 33  1  0
  7 34  1  0
 11 35  1  0
 12 36  1  0
 14 37  1  0
 15 38  1  0
 18 39  1  0
 22 40  1  0
 23 41  1  0
 24 42  1  0
 25 43  1  0
 26 44  1  0
M  END
>  <smiles>  (3) 
C[C@@H](NC(=O)CNC(=O)c1ccc2ccc(F)cc2n1)c1ccccc1

>  <score_type>  (3) 
oracle

>  <origin>  (3) 
autodockgpu

>  <m_score__min__energy>  (3) 
-8.6699999999999999

>  <m_primary>  (3) 
energy

>  <rmsd>  (3) 
10.084682240847657

>  <m_score__min__rmsd>  (3) 
10.084682240847657

>  <meeko>  (3) 
{"free_energy": -7.73, "intermolecular_energy": -9.22, "internal_energy": -1.97, "cluster_size": 23, "cluster_id": 3, "rank_in_cluster": 6}

>  <energy>  (3) 
-8.49

>  <cluster_rmsd>  (3) 
0.74

>  <cluster>  (3) 
1

$$$$

     RDKit          3D

 44 46  0  0  0  0  0  0  0  0999 V2000
  139.5520   67.8220  225.5610 C   0  0  0  0  0  0  0  0  0  0  0  0
  139.9370   69.1840  225.0250 C   0  0  1  0  0  0  0  0  0  0  0  0
  138.8200   69.7000  224.2680 N   0  0  0  0  0  0  0  0  0  0  0  0
  139.0180   70.7390  223.3160 C   0  0  0  0  0  0  0  0  0  0  0  0
  140.1740   71.2080  223.1380 O   0  0  0  0  0  0  0  0  0  0  0  0
  137.8210   71.2140  222.5800 C   0  0  0  0  0  0  0  0  0  0  0  0
  136.9240   71.9690  223.4290 N   0  0  0  0  0  0  0  0  0  0  0  0
  135.9150   71.2370  224.1160 C   0  0  0  0  0  0  0  0  0  0  0  0
  135.8900   69.9940  223.9240 O   0  0  0  0  0  0  0  0  0  0  0  0
  134.9610   71.9060  224.9960 C   0  0  0  0  0  0  0  0  0  0  0  0
  134.1150   71.1130  225.7510 C   0  0  0  0  0  0  0  0  0  0  0  0
  133.1820   71.6430  226.6100 C   0  0  0  0  0  0  0  0  0  0  0  0
  133.1030   73.0150  226.7060 C   0  0  0  0  0  0  0  0  0  0  0  0
  132.1850   73.5860  227.5520 C   0  0  0  0  0  0  0  0  0  0  0  0
  132.0970   74.9560  227.6570 C   0  0  0  0  0  0  0  0  0  0  0  0
  132.9340   75.7600  226.9100 C   0  0  0  0  0  0  0  0  0  0  0  0
  132.8380   77.1130  227.0220 F   0  0  0  0  0  0  0  0  0  0  0  0
  133.8540   75.1700  226.0630 C   0  0  0  0  0  0  0  0  0  0  0  0
  133.9590   73.8010  225.9430 C   0  0  0  0  0  0  0  0  0  0  0  0
  134.8520   73.2200  225.1200 N   0  0  0  0  0  0  0  0  0  0  0  0
  140.2570   70.1420  226.0910 C   0  0  0  0  0  0  0  0  0  0  0  0
  141.1550   71.1570  225.8220 C   0  0  0  0  0  0  0  0  0  0  0  0
  141.4320   72.0350  226.8400 C   0  0  0  0  0  0  0  0  0  0  0  0
  140.8510   71.9370  228.1020 C   0  0  0  0  0  0  0  0  0  0  0  0
  139.9530   70.9210  228.3650 C   0  0  0  0  0  0  0  0  0  0  0  0
  139.6750   70.0420  227.3490 C   0  0  0  0  0  0  0  0  0  0  0  0
  139.5586   67.8455  226.6607 H   0  0  0  0  0  0  0  0  0  0  0  0
  138.5445   67.5596  225.2059 H   0  0  0  0  0  0  0  0  0  0  0  0
  140.2731   67.0710  225.2059 H   0  0  0  0  0  0  0  0  0  0  0  0
  140.8382   69.0620  224.4061 H   0  0  0  0  0  0  0  0  0  0  0  0
  137.8610   69.2970  224.4300 H   0  0  0  0  0  0  0  0  0  0  0  0
  138.1474   71.8563  221.7488 H   0  0  0  0  0  0  0  0  0  0  0  0
  137.2770   70.3314  222.2124 H   0  0  0  0  0  0  0  0  0  0  0  0
  136.9960   73.0120  223.5470 H   0  0  0  0  0  0  0  0  0  0  0  0
  134.1919   70.0194  225.6605 H   0  0  0  0  0  0  0  0  0  0  0  0
  132.5202   70.9931  227.2013 H   0  0  0  0  0  0  0  0  0  0  0  0
  131.5173   72.9467  228.1482 H   0  0  0  0  0  0  0  0  0  0  0  0
  131.3599   75.4096  228.3359 H   0  0  0  0  0  0  0  0  0  0  0  0
  134.5209   75.8114  225.4682 H   0  0  0  0  0  0  0  0  0  0  0  0
  141.6279   71.2572  224.8339 H   0  0  0  0  0  0  0  0  0  0  0  0
  142.1441   72.8518  226.6508 H   0  0  0  0  0  0  0  0  0  0  0  0
  141.1061   72.6655  228.8858 H   0  0  0  0  0  0  0  0  0  0  0  0
  139.4784   70.8204  229.3523 H   0  0  0  0  0  0  0  0  0  0  0  0
  138.9628   69.2252  227.5377 H   0  0  0  0  0  0  0  0  0  0  0  0
  1  2  1  0
  2  3  1  0
  3  4  1  0
  4  5  2  0
  4  6  1  0
  6  7  1  0
  7  8  1  0
  8  9  2  0
  8 10  1  0
 10 11  2  0
 11 12  1  0
 12 13  2  0
 13 14  1  0
 14 15  2  0
 15 16  1  0
 16 17  1  0
 16 18  2  0
 18 19  1  0
 19 20  2  0
  2 21  1  0
 21 22  2  0
 22 23  1  0
 23 24  2  0
 24 25  1  0
 25 26  2  0
 20 10  1  0
 26 21  1  0
 19 13  1  0
  1 27  1  0
  1 28  1  0
  1 29  1  0
  2 30  1  6
  3 31  1  0
  6 32  1  0
  6 33  1  0
  7 34  1  0
 11 35  1  0
 12 36  1  0
 14 37  1  0
 15 38  1  0
 18 39  1  0
 22 40  1  0
 23 41  1  0
 24 42  1  0
 25 43  1  0
 26 44  1  0
M  END
>  <smiles>  (4) 
C[C@@H](NC(=O)CNC(=O)c1ccc2ccc(F)cc2n1)c1ccccc1

>  <score_type>  (4) 
oracle

>  <origin>  (4) 
autodockgpu

>  <m_score__min__energy>  (4) 
-8.6699999999999999

>  <m_primary>  (4) 
energy

>  <rmsd>  (4) 
10.111729030388243

>  <m_score__min__rmsd>  (4) 
10.111729030388243

>  <meeko>  (4) 
{"free_energy": -7.71, "intermolecular_energy": -9.2, "internal_energy": -1.96, "cluster_size": 16, "cluster_id": 2, "rank_in_cluster": 3}

>  <energy>  (4) 
-8.46

>  <cluster_rmsd>  (4) 
0.73

>  <cluster>  (4) 
1

$$$$

     RDKit          3D

 44 46  0  0  0  0  0  0  0  0999 V2000
  139.1810   69.3850  223.7920 C   0  0  0  0  0  0  0  0  0  0  0  0
  139.9970   70.6290  224.0740 C   0  0  1  0  0  0  0  0  0  0  0  0
  139.2740   71.7660  223.5520 N   0  0  0  0  0  0  0  0  0  0  0  0
  139.7580   72.4590  222.4080 C   0  0  0  0  0  0  0  0  0  0  0  0
  140.8220   72.0750  221.8510 O   0  0  0  0  0  0  0  0  0  0  0  0
  138.9590   73.6150  221.9330 C   0  0  0  0  0  0  0  0  0  0  0  0
  139.6300   74.8750  222.1730 N   0  0  0  0  0  0  0  0  0  0  0  0
  138.8070   76.0100  222.4150 C   0  0  0  0  0  0  0  0  0  0  0  0
  137.5630   75.8190  222.3990 O   0  0  0  0  0  0  0  0  0  0  0  0
  139.3870   77.3260  222.6680 C   0  0  0  0  0  0  0  0  0  0  0  0
  138.5200   78.3920  222.8340 C   0  0  0  0  0  0  0  0  0  0  0  0
  138.9630   79.6700  223.0760 C   0  0  0  0  0  0  0  0  0  0  0  0
  140.3240   79.8740  223.1520 C   0  0  0  0  0  0  0  0  0  0  0  0
  140.8100   81.1360  223.3920 C   0  0  0  0  0  0  0  0  0  0  0  0
  142.1670   81.3530  223.4700 C   0  0  0  0  0  0  0  0  0  0  0  0
  143.0440   80.3000  223.3070 C   0  0  0  0  0  0  0  0  0  0  0  0
  144.3830   80.5260  223.3860 F   0  0  0  0  0  0  0  0  0  0  0  0
  142.5390   79.0350  223.0650 C   0  0  0  0  0  0  0  0  0  0  0  0
  141.1850   78.7960  222.9840 C   0  0  0  0  0  0  0  0  0  0  0  0
  140.6860   77.5670  222.7490 N   0  0  0  0  0  0  0  0  0  0  0  0
  140.2240   70.8430  225.5100 C   0  0  0  0  0  0  0  0  0  0  0  0
  141.0250   71.8990  225.9030 C   0  0  0  0  0  0  0  0  0  0  0  0
  141.2170   72.0710  227.2500 C   0  0  0  0  0  0  0  0  0  0  0  0
  140.6450   71.2380  228.2090 C   0  0  0  0  0  0  0  0  0  0  0  0
  139.8460   70.1840  227.8100 C   0  0  0  0  0  0  0  0  0  0  0  0
  139.6520   70.0100  226.4630 C   0  0  0  0  0  0  0  0  0  0  0  0
  138.8775   68.9223  224.7427 H   0  0  0  0  0  0  0  0  0  0  0  0
  138.2854   69.6571  223.2142 H   0  0  0  0  0  0  0  0  0  0  0  0
  139.7874   68.6719  223.2142 H   0  0  0  0  0  0  0  0  0  0  0  0
  140.9802   70.5057  223.5965 H   0  0  0  0  0  0  0  0  0  0  0  0
  138.3870   72.0730  224.0290 H   0  0  0  0  0  0  0  0  0  0  0  0
  138.7848   73.5059  220.8524 H   0  0  0  0  0  0  0  0  0  0  0  0
  138.0109   73.6240  222.4907 H   0  0  0  0  0  0  0  0  0  0  0  0
  140.6780   74.9690  222.1720 H   0  0  0  0  0  0  0  0  0  0  0  0
  137.4371   78.2095  222.7699 H   0  0  0  0  0  0  0  0  0  0  0  0
  138.2553   80.5022  223.2048 H   0  0  0  0  0  0  0  0  0  0  0  0
  140.1123   81.9763  223.5223 H   0  0  0  0  0  0  0  0  0  0  0  0
  142.5522   82.3653  223.6622 H   0  0  0  0  0  0  0  0  0  0  0  0
  143.2386   78.1964  222.9336 H   0  0  0  0  0  0  0  0  0  0  0  0
  141.4884   72.5724  225.1669 H   0  0  0  0  0  0  0  0  0  0  0  0
  141.8509   72.9039  227.5883 H   0  0  0  0  0  0  0  0  0  0  0  0
  140.8286   71.4186  229.2784 H   0  0  0  0  0  0  0  0  0  0  0  0
  139.3826   69.5094  228.5449 H   0  0  0  0  0  0  0  0  0  0  0  0
  139.0180   69.1774  226.1241 H   0  0  0  0  0  0  0  0  0  0  0  0
  1  2  1  0
  2  3  1  0
  3  4  1  0
  4  5  2  0
  4  6  1  0
  6  7  1  0
  7  8  1  0
  8  9  2  0
  8 10  1  0
 10 11  2  0
 11 12  1  0
 12 13  2  0
 13 14  1  0
 14 15  2  0
 15 16  1  0
 16 17  1  0
 16 18  2  0
 18 19  1  0
 19 20  2  0
  2 21  1  0
 21 22  2  0
 22 23  1  0
 23 24  2  0
 24 25  1  0
 25 26  2  0
 20 10  1  0
 26 21  1  0
 19 13  1  0
  1 27  1  0
  1 28  1  0
  1 29  1  0
  2 30  1  6
  3 31  1  0
  6 32  1  0
  6 33  1  0
  7 34  1  0
 11 35  1  0
 12 36  1  0
 14 37  1  0
 15 38  1  0
 18 39  1  0
 22 40  1  0
 23 41  1  0
 24 42  1  0
 25 43  1  0
 26 44  1  0
M  END
>  <smiles>  (5) 
C[C@@H](NC(=O)CNC(=O)c1ccc2ccc(F)cc2n1)c1ccccc1

>  <score_type>  (5) 
oracle

>  <origin>  (5) 
autodockgpu

>  <m_score__min__energy>  (5) 
-8.6699999999999999

>  <m_primary>  (5) 
energy

>  <rmsd>  (5) 
10.092979503668873

>  <m_score__min__rmsd>  (5) 
10.092979503668873

>  <meeko>  (5) 
{"free_energy": -8.4, "intermolecular_energy": -9.89, "internal_energy": -1.13, "cluster_size": 11, "cluster_id": 1, "rank_in_cluster": 8}

>  <energy>  (5) 
-8.44

>  <cluster_rmsd>  (5) 
1.26

>  <cluster>  (5) 
1

$$$$

     RDKit          3D

 44 46  0  0  0  0  0  0  0  0999 V2000
  139.5460   67.7560  225.7690 C   0  0  0  0  0  0  0  0  0  0  0  0
  140.3200   68.9970  225.3790 C   0  0  1  0  0  0  0  0  0  0  0  0
  139.6930   69.5670  224.2090 N   0  0  0  0  0  0  0  0  0  0  0  0
  138.3300   69.9730  224.2530 C   0  0  0  0  0  0  0  0  0  0  0  0
  137.6720   69.8320  225.3200 O   0  0  0  0  0  0  0  0  0  0  0  0
  137.7580   70.5490  223.0120 C   0  0  0  0  0  0  0  0  0  0  0  0
  138.2280   71.8980  222.7730 N   0  0  0  0  0  0  0  0  0  0  0  0
  139.4590   72.0390  222.0720 C   0  0  0  0  0  0  0  0  0  0  0  0
  140.0330   70.9760  221.7200 O   0  0  0  0  0  0  0  0  0  0  0  0
  140.0170   73.3570  221.7820 C   0  0  0  0  0  0  0  0  0  0  0  0
  141.0600   73.4290  220.8750 C   0  0  0  0  0  0  0  0  0  0  0  0
  141.6560   74.6190  220.5320 C   0  0  0  0  0  0  0  0  0  0  0  0
  141.1820   75.7690  221.1260 C   0  0  0  0  0  0  0  0  0  0  0  0
  141.7490   76.9800  220.8120 C   0  0  0  0  0  0  0  0  0  0  0  0
  141.2840   78.1350  221.3990 C   0  0  0  0  0  0  0  0  0  0  0  0
  140.2450   78.0790  222.3050 C   0  0  0  0  0  0  0  0  0  0  0  0
  139.7930   79.2270  222.8780 F   0  0  0  0  0  0  0  0  0  0  0  0
  139.6850   76.8520  222.6110 C   0  0  0  0  0  0  0  0  0  0  0  0
  140.1340   75.6840  222.0350 C   0  0  0  0  0  0  0  0  0  0  0  0
  139.5930   74.4860  222.3280 N   0  0  0  0  0  0  0  0  0  0  0  0
  140.3330   70.0130  226.4400 C   0  0  0  0  0  0  0  0  0  0  0  0
  141.0670   71.1670  226.2420 C   0  0  0  0  0  0  0  0  0  0  0  0
  141.0580   72.0950  227.2520 C   0  0  0  0  0  0  0  0  0  0  0  0
  140.3510   71.9160  228.4390 C   0  0  0  0  0  0  0  0  0  0  0  0
  139.6190   70.7600  228.6310 C   0  0  0  0  0  0  0  0  0  0  0  0
  139.6270   69.8300  227.6220 C   0  0  0  0  0  0  0  0  0  0  0  0
  139.4999   67.6821  226.8655 H   0  0  0  0  0  0  0  0  0  0  0  0
  138.5257   67.8173  225.3624 H   0  0  0  0  0  0  0  0  0  0  0  0
  140.0499   66.8667  225.3624 H   0  0  0  0  0  0  0  0  0  0  0  0
  141.3623   68.7006  225.1898 H   0  0  0  0  0  0  0  0  0  0  0  0
  140.2560   69.6780  223.3270 H   0  0  0  0  0  0  0  0  0  0  0  0
  138.0476   69.9159  222.1603 H   0  0  0  0  0  0  0  0  0  0  0  0
  136.6646   70.5856  223.1270 H   0  0  0  0  0  0  0  0  0  0  0  0
  137.6990   72.7480  223.0940 H   0  0  0  0  0  0  0  0  0  0  0  0
  141.4251   72.5004  220.4120 H   0  0  0  0  0  0  0  0  0  0  0  0
  142.4834   74.6526  219.8079 H   0  0  0  0  0  0  0  0  0  0  0  0
  142.5770   77.0270  220.0894 H   0  0  0  0  0  0  0  0  0  0  0  0
  141.7410   79.1030  221.1457 H   0  0  0  0  0  0  0  0  0  0  0  0
  138.8578   76.8075  223.3347 H   0  0  0  0  0  0  0  0  0  0  0  0
  141.6341   71.3342  225.3144 H   0  0  0  0  0  0  0  0  0  0  0  0
  141.6349   73.0221  227.1188 H   0  0  0  0  0  0  0  0  0  0  0  0
  140.3754   72.6909  229.2193 H   0  0  0  0  0  0  0  0  0  0  0  0
  139.0511   70.5915  229.5579 H   0  0  0  0  0  0  0  0  0  0  0  0
  139.0511   68.9022  227.7546 H   0  0  0  0  0  0  0  0  0  0  0  0
  1  2  1  0
  2  3  1  0
  3  4  1  0
  4  5  2  0
  4  6  1  0
  6  7  1  0
  7  8  1  0
  8  9  2  0
  8 10  1  0
 10 11  2  0
 11 12  1  0
 12 13  2  0
 13 14  1  0
 14 15  2  0
 15 16  1  0
 16 17  1  0
 16 18  2  0
 18 19  1  0
 19 20  2  0
  2 21  1  0
 21 22  2  0
 22 23  1  0
 23 24  2  0
 24 25  1  0
 25 26  2  0
 20 10  1  0
 26 21  1  0
 19 13  1  0
  1 27  1  0
  1 28  1  0
  1 29  1  0
  2 30  1  6
  3 31  1  0
  6 32  1  0
  6 33  1  0
  7 34  1  0
 11 35  1  0
 12 36  1  0
 14 37  1  0
 15 38  1  0
 18 39  1  0
 22 40  1  0
 23 41  1  0
 24 42  1  0
 25 43  1  0
 26 44  1  0
M  END
>  <smiles>  (6) 
C[C@@H](NC(=O)CNC(=O)c1ccc2ccc(F)cc2n1)c1ccccc1

>  <score_type>  (6) 
oracle

>  <origin>  (6) 
autodockgpu

>  <m_score__min__energy>  (6) 
-8.6699999999999999

>  <m_primary>  (6) 
energy

>  <rmsd>  (6) 
10.077010044278854

>  <m_score__min__rmsd>  (6) 
10.077010044278854

>  <meeko>  (6) 
{"free_energy": -7.71, "intermolecular_energy": -9.2, "internal_energy": -1.97, "cluster_size": 23, "cluster_id": 3, "rank_in_cluster": 10}

>  <energy>  (6) 
-8.43

>  <cluster_rmsd>  (6) 
0.7

>  <cluster>  (6) 
1

$$$$

     RDKit          3D

 44 46  0  0  0  0  0  0  0  0999 V2000
  139.1970   69.2800  223.7530 C   0  0  0  0  0  0  0  0  0  0  0  0
  139.9890   70.5530  223.9620 C   0  0  1  0  0  0  0  0  0  0  0  0
  139.2220   71.6510  223.4210 N   0  0  0  0  0  0  0  0  0  0  0  0
  139.6520   72.3100  222.2360 C   0  0  0  0  0  0  0  0  0  0  0  0
  140.7070   71.9300  221.6600 O   0  0  0  0  0  0  0  0  0  0  0  0
  138.8100   73.4280  221.7430 C   0  0  0  0  0  0  0  0  0  0  0  0
  139.1650   74.6890  222.3610 N   0  0  0  0  0  0  0  0  0  0  0  0
  139.3690   75.7980  221.4930 C   0  0  0  0  0  0  0  0  0  0  0  0
  139.2230   75.5860  220.2620 O   0  0  0  0  0  0  0  0  0  0  0  0
  139.7310   77.1120  222.0180 C   0  0  0  0  0  0  0  0  0  0  0  0
  138.7040   77.9900  222.3200 C   0  0  0  0  0  0  0  0  0  0  0  0
  138.9360   79.2490  222.8190 C   0  0  0  0  0  0  0  0  0  0  0  0
  140.2460   79.6300  223.0170 C   0  0  0  0  0  0  0  0  0  0  0  0
  140.5220   80.8810  223.5140 C   0  0  0  0  0  0  0  0  0  0  0  0
  141.8260   81.2730  223.7160 C   0  0  0  0  0  0  0  0  0  0  0  0
  142.8610   80.4080  223.4200 C   0  0  0  0  0  0  0  0  0  0  0  0
  144.1450   80.8070  223.6240 F   0  0  0  0  0  0  0  0  0  0  0  0
  142.5660   79.1530  222.9200 C   0  0  0  0  0  0  0  0  0  0  0  0
  141.2680   78.7400  222.7100 C   0  0  0  0  0  0  0  0  0  0  0  0
  140.9740   77.5190  222.2240 N   0  0  0  0  0  0  0  0  0  0  0  0
  140.2550   70.8280  225.3800 C   0  0  0  0  0  0  0  0  0  0  0  0
  139.6850   70.0040  226.3320 C   0  0  0  0  0  0  0  0  0  0  0  0
  139.9530   70.2880  227.6470 C   0  0  0  0  0  0  0  0  0  0  0  0
  140.7610   71.3510  228.0430 C   0  0  0  0  0  0  0  0  0  0  0  0
  141.3290   72.1710  227.0870 C   0  0  0  0  0  0  0  0  0  0  0  0
  141.0620   71.8900  225.7710 C   0  0  0  0  0  0  0  0  0  0  0  0
  138.9295   68.8501  224.7295 H   0  0  0  0  0  0  0  0  0  0  0  0
  138.2804   69.5069  223.1888 H   0  0  0  0  0  0  0  0  0  0  0  0
  139.8056   68.5580  223.1888 H   0  0  0  0  0  0  0  0  0  0  0  0
  140.9598   70.4347  223.4584 H   0  0  0  0  0  0  0  0  0  0  0  0
  138.3430   71.9550  223.9140 H   0  0  0  0  0  0  0  0  0  0  0  0
  138.9401   73.5171  220.6544 H   0  0  0  0  0  0  0  0  0  0  0  0
  137.7644   73.2054  222.0022 H   0  0  0  0  0  0  0  0  0  0  0  0
  139.2740   74.8010  223.4010 H   0  0  0  0  0  0  0  0  0  0  0  0
  137.6652   77.6682  222.1546 H   0  0  0  0  0  0  0  0  0  0  0  0
  138.1044   79.9300  223.0526 H   0  0  0  0  0  0  0  0  0  0  0  0
  139.6988   81.5710  223.7511 H   0  0  0  0  0  0  0  0  0  0  0  0
  142.0436   82.2754  224.1133 H   0  0  0  0  0  0  0  0  0  0  0  0
  143.3907   78.4647  222.6831 H   0  0  0  0  0  0  0  0  0  0  0  0
  139.0439   69.1567  226.0474 H   0  0  0  0  0  0  0  0  0  0  0  0
  139.5098   69.6474  228.4236 H   0  0  0  0  0  0  0  0  0  0  0  0
  140.9460   71.5368  229.1113 H   0  0  0  0  0  0  0  0  0  0  0  0
  141.9714   73.0177  227.3705 H   0  0  0  0  0  0  0  0  0  0  0  0
  141.5043   72.5309  224.9941 H   0  0  0  0  0  0  0  0  0  0  0  0
  1  2  1  0
  2  3  1  0
  3  4  1  0
  4  5  2  0
  4  6  1  0
  6  7  1  0
  7  8  1  0
  8  9  2  0
  8 10  1  0
 10 11  2  0
 11 12  1  0
 12 13  2  0
 13 14  1  0
 14 15  2  0
 15 16  1  0
 16 17  1  0
 16 18  2  0
 18 19  1  0
 19 20  2  0
  2 21  1  0
 21 22  2  0
 22 23  1  0
 23 24  2  0
 24 25  1  0
 25 26  2  0
 20 10  1  0
 26 21  1  0
 19 13  1  0
  1 27  1  0
  1 28  1  0
  1 29  1  0
  2 30  1  6
  3 31  1  0
  6 32  1  0
  6 33  1  0
  7 34  1  0
 11 35  1  0
 12 36  1  0
 14 37  1  0
 15 38  1  0
 18 39  1  0
 22 40  1  0
 23 41  1  0
 24 42  1  0
 25 43  1  0
 26 44  1  0
M  END
>  <smiles>  (7) 
C[C@@H](NC(=O)CNC(=O)c1ccc2ccc(F)cc2n1)c1ccccc1

>  <score_type>  (7) 
oracle

>  <origin>  (7) 
autodockgpu

>  <m_score__min__energy>  (7) 
-8.6699999999999999

>  <m_primary>  (7) 
energy

>  <rmsd>  (7) 
9.855472594731173

>  <m_score__min__rmsd>  (7) 
9.855472594731173

>  <meeko>  (7) 
{"free_energy": -8.67, "intermolecular_energy": -10.16, "internal_energy": -0.9, "cluster_size": 11, "cluster_id": 1, "rank_in_cluster": 1}

>  <energy>  (7) 
-8.42

>  <cluster_rmsd>  (7) 
1.28

>  <cluster>  (7) 
1

$$$$

     RDKit          3D

 44 46  0  0  0  0  0  0  0  0999 V2000
  139.2500   69.2980  224.0540 C   0  0  0  0  0  0  0  0  0  0  0  0
  140.0840   70.5460  224.2520 C   0  0  1  0  0  0  0  0  0  0  0  0
  139.3740   71.6570  223.6610 N   0  0  0  0  0  0  0  0  0  0  0  0
  139.8960   72.3100  222.5100 C   0  0  0  0  0  0  0  0  0  0  0  0
  140.9830   71.9140  222.0080 O   0  0  0  0  0  0  0  0  0  0  0  0
  139.1080   73.4420  221.9630 C   0  0  0  0  0  0  0  0  0  0  0  0
  139.7250   74.7210  222.2470 N   0  0  0  0  0  0  0  0  0  0  0  0
  138.8590   75.8450  222.3610 C   0  0  0  0  0  0  0  0  0  0  0  0
  137.6300   75.6280  222.2050 O   0  0  0  0  0  0  0  0  0  0  0  0
  139.3830   77.1780  222.6450 C   0  0  0  0  0  0  0  0  0  0  0  0
  138.4710   78.2010  222.8340 C   0  0  0  0  0  0  0  0  0  0  0  0
  138.8590   79.4910  223.1070 C   0  0  0  0  0  0  0  0  0  0  0  0
  140.2100   79.7520  223.1890 C   0  0  0  0  0  0  0  0  0  0  0  0
  140.6420   81.0270  223.4590 C   0  0  0  0  0  0  0  0  0  0  0  0
  141.9880   81.2990  223.5440 C   0  0  0  0  0  0  0  0  0  0  0  0
  142.9100   80.2890  223.3580 C   0  0  0  0  0  0  0  0  0  0  0  0
  144.2380   80.5700  223.4440 F   0  0  0  0  0  0  0  0  0  0  0  0
  142.4590   79.0100  223.0860 C   0  0  0  0  0  0  0  0  0  0  0  0
  141.1160   78.7150  222.9970 C   0  0  0  0  0  0  0  0  0  0  0  0
  140.6710   77.4720  222.7330 N   0  0  0  0  0  0  0  0  0  0  0  0
  140.3220   70.8480  225.6700 C   0  0  0  0  0  0  0  0  0  0  0  0
  139.7180   70.0550  226.6260 C   0  0  0  0  0  0  0  0  0  0  0  0
  139.9610   70.3640  227.9400 C   0  0  0  0  0  0  0  0  0  0  0  0
  140.7750   71.4240  228.3310 C   0  0  0  0  0  0  0  0  0  0  0  0
  141.3770   72.2140  227.3700 C   0  0  0  0  0  0  0  0  0  0  0  0
  141.1350   71.9070  226.0550 C   0  0  0  0  0  0  0  0  0  0  0  0
  138.9727   68.8830  225.0342 H   0  0  0  0  0  0  0  0  0  0  0  0
  138.3389   69.5512  223.4920 H   0  0  0  0  0  0  0  0  0  0  0  0
  139.8324   68.5531  223.4920 H   0  0  0  0  0  0  0  0  0  0  0  0
  141.0630   70.3790  223.7790 H   0  0  0  0  0  0  0  0  0  0  0  0
  138.4680   71.9740  224.0930 H   0  0  0  0  0  0  0  0  0  0  0  0
  139.0247   73.3224  220.8727 H   0  0  0  0  0  0  0  0  0  0  0  0
  138.1179   73.4290  222.4420 H   0  0  0  0  0  0  0  0  0  0  0  0
  140.7630   74.8360  222.3670 H   0  0  0  0  0  0  0  0  0  0  0  0
  137.3970   77.9739  222.7633 H   0  0  0  0  0  0  0  0  0  0  0  0
  138.1161   80.2886  223.2551 H   0  0  0  0  0  0  0  0  0  0  0  0
  139.9093   81.8339  223.6079 H   0  0  0  0  0  0  0  0  0  0  0  0
  142.3295   82.3220  223.7603 H   0  0  0  0  0  0  0  0  0  0  0  0
  143.1937   78.2051  222.9364 H   0  0  0  0  0  0  0  0  0  0  0  0
  139.0698   69.2117  226.3455 H   0  0  0  0  0  0  0  0  0  0  0  0
  139.4917   69.7466  228.7202 H   0  0  0  0  0  0  0  0  0  0  0  0
  140.9380   71.6314  229.3989 H   0  0  0  0  0  0  0  0  0  0  0  0
  142.0258   73.0573  227.6490 H   0  0  0  0  0  0  0  0  0  0  0  0
  141.6034   72.5240  225.2740 H   0  0  0  0  0  0  0  0  0  0  0  0
  1  2  1  0
  2  3  1  0
  3  4  1  0
  4  5  2  0
  4  6  1  0
  6  7  1  0
  7  8  1  0
  8  9  2  0
  8 10  1  0
 10 11  2  0
 11 12  1  0
 12 13  2  0
 13 14  1  0
 14 15  2  0
 15 16  1  0
 16 17  1  0
 16 18  2  0
 18 19  1  0
 19 20  2  0
  2 21  1  0
 21 22  2  0
 22 23  1  0
 23 24  2  0
 24 25  1  0
 25 26  2  0
 20 10  1  0
 26 21  1  0
 19 13  1  0
  1 27  1  0
  1 28  1  0
  1 29  1  0
  2 30  1  6
  3 31  1  0
  6 32  1  0
  6 33  1  0
  7 34  1  0
 11 35  1  0
 12 36  1  0
 14 37  1  0
 15 38  1  0
 18 39  1  0
 22 40  1  0
 23 41  1  0
 24 42  1  0
 25 43  1  0
 26 44  1  0
M  END
>  <smiles>  (8) 
C[C@@H](NC(=O)CNC(=O)c1ccc2ccc(F)cc2n1)c1ccccc1

>  <score_type>  (8) 
oracle

>  <origin>  (8) 
autodockgpu

>  <m_score__min__energy>  (8) 
-8.6699999999999999

>  <m_primary>  (8) 
energy

>  <rmsd>  (8) 
9.907548313402577

>  <m_score__min__rmsd>  (8) 
9.907548313402577

>  <meeko>  (8) 
{"free_energy": -8.52, "intermolecular_energy": -10.01, "internal_energy": -1.12, "cluster_size": 11, "cluster_id": 1, "rank_in_cluster": 2}

>  <energy>  (8) 
-8.4

>  <cluster_rmsd>  (8) 
0.74

>  <cluster>  (8) 
1

$$$$

     RDKit          3D

 44 46  0  0  0  0  0  0  0  0999 V2000
  139.2510   67.8080  225.9490 C   0  0  0  0  0  0  0  0  0  0  0  0
  140.2160   68.8250  225.3790 C   0  0  1  0  0  0  0  0  0  0  0  0
  139.6650   69.3200  224.1390 N   0  0  0  0  0  0  0  0  0  0  0  0
  138.3750   69.9190  224.1170 C   0  0  0  0  0  0  0  0  0  0  0  0
  137.7140   70.0150  225.1870 O   0  0  0  0  0  0  0  0  0  0  0  0
  137.8790   70.4020  222.8050 C   0  0  0  0  0  0  0  0  0  0  0  0
  138.2970   71.7620  222.5340 N   0  0  0  0  0  0  0  0  0  0  0  0
  139.6230   71.9460  222.0490 C   0  0  0  0  0  0  0  0  0  0  0  0
  140.3180   70.9080  221.8990 O   0  0  0  0  0  0  0  0  0  0  0  0
  140.1390   73.2770  221.7470 C   0  0  0  0  0  0  0  0  0  0  0  0
  141.1710   73.3750  220.8280 C   0  0  0  0  0  0  0  0  0  0  0  0
  141.7280   74.5800  220.4730 C   0  0  0  0  0  0  0  0  0  0  0  0
  141.2260   75.7190  221.0650 C   0  0  0  0  0  0  0  0  0  0  0  0
  141.7540   76.9440  220.7390 C   0  0  0  0  0  0  0  0  0  0  0  0
  141.2620   78.0880  221.3240 C   0  0  0  0  0  0  0  0  0  0  0  0
  140.2340   78.0070  222.2410 C   0  0  0  0  0  0  0  0  0  0  0  0
  139.7550   79.1450  222.8120 F   0  0  0  0  0  0  0  0  0  0  0  0
  139.7130   76.7660  222.5590 C   0  0  0  0  0  0  0  0  0  0  0  0
  140.1910   75.6080  221.9860 C   0  0  0  0  0  0  0  0  0  0  0  0
  139.6880   74.3960  222.2910 N   0  0  0  0  0  0  0  0  0  0  0  0
  140.4320   69.9660  226.2790 C   0  0  0  0  0  0  0  0  0  0  0  0
  141.2560   70.9930  225.8600 C   0  0  0  0  0  0  0  0  0  0  0  0
  141.4360   72.0440  226.7240 C   0  0  0  0  0  0  0  0  0  0  0  0
  140.8300   72.1060  227.9760 C   0  0  0  0  0  0  0  0  0  0  0  0
  140.0070   71.0770  228.3900 C   0  0  0  0  0  0  0  0  0  0  0  0
  139.8260   70.0250  227.5280 C   0  0  0  0  0  0  0  0  0  0  0  0
  139.2861   67.8450  227.0478 H   0  0  0  0  0  0  0  0  0  0  0  0
  138.2313   68.0381  225.6067 H   0  0  0  0  0  0  0  0  0  0  0  0
  139.5343   66.8017  225.6067 H   0  0  0  0  0  0  0  0  0  0  0  0
  141.1862   68.3274  225.2336 H   0  0  0  0  0  0  0  0  0  0  0  0
  140.2300   69.2320  223.2550 H   0  0  0  0  0  0  0  0  0  0  0  0
  138.2707   69.7458  222.0138 H   0  0  0  0  0  0  0  0  0  0  0  0
  136.7794   70.3831  222.8296 H   0  0  0  0  0  0  0  0  0  0  0  0
  137.6660   72.5900  222.6820 H   0  0  0  0  0  0  0  0  0  0  0  0
  141.5585   72.4551  220.3658 H   0  0  0  0  0  0  0  0  0  0  0  0
  142.5472   74.6338  219.7408 H   0  0  0  0  0  0  0  0  0  0  0  0
  142.5730   77.0109  220.0077 H   0  0  0  0  0  0  0  0  0  0  0  0
  141.6882   79.0673  221.0607 H   0  0  0  0  0  0  0  0  0  0  0  0
  138.8937   76.7018  223.2902 H   0  0  0  0  0  0  0  0  0  0  0  0
  141.7468   70.9692  224.8758 H   0  0  0  0  0  0  0  0  0  0  0  0
  142.0878   72.8740  226.4137 H   0  0  0  0  0  0  0  0  0  0  0  0
  141.0060   72.9708  228.6326 H   0  0  0  0  0  0  0  0  0  0  0  0
  139.5152   71.1000  229.3737 H   0  0  0  0  0  0  0  0  0  0  0  0
  139.1747   69.1946  227.8383 H   0  0  0  0  0  0  0  0  0  0  0  0
  1  2  1  0
  2  3  1  0
  3  4  1  0
  4  5  2  0
  4  6  1  0
  6  7  1  0
  7  8  1  0
  8  9  2  0
  8 10  1  0
 10 11  2  0
 11 12  1  0
 12 13  2  0
 13 14  1  0
 14 15  2  0
 15 16  1  0
 16 17  1  0
 16 18  2  0
 18 19  1  0
 19 20  2  0
  2 21  1  0
 21 22  2  0
 22 23  1  0
 23 24  2  0
 24 25  1  0
 25 26  2  0
 20 10  1  0
 26 21  1  0
 19 13  1  0
  1 27  1  0
  1 28  1  0
  1 29  1  0
  2 30  1  6
  3 31  1  0
  6 32  1  0
  6 33  1  0
  7 34  1  0
 11 35  1  0
 12 36  1  0
 14 37  1  0
 15 38  1  0
 18 39  1  0
 22 40  1  0
 23 41  1  0
 24 42  1  0
 25 43  1  0
 26 44  1  0
M  END
>  <smiles>  (9) 
C[C@@H](NC(=O)CNC(=O)c1ccc2ccc(F)cc2n1)c1ccccc1

>  <score_type>  (9) 
oracle

>  <origin>  (9) 
autodockgpu

>  <m_score__min__energy>  (9) 
-8.6699999999999999

>  <m_primary>  (9) 
energy

>  <rmsd>  (9) 
10.038809883104218

>  <m_score__min__rmsd>  (9) 
10.038809883104218

>  <meeko>  (9) 
{"free_energy": -7.46, "intermolecular_energy": -8.96, "internal_energy": -2.01, "cluster_size": 23, "cluster_id": 3, "rank_in_cluster": 23}

>  <energy>  (9) 
-8.38

>  <cluster_rmsd>  (9) 
1.17

>  <cluster>  (9) 
1

$$$$

     RDKit          3D

 44 46  0  0  0  0  0  0  0  0999 V2000
  139.5540   67.9450  225.4080 C   0  0  0  0  0  0  0  0  0  0  0  0
  140.3180   69.2020  225.0510 C   0  0  1  0  0  0  0  0  0  0  0  0
  139.6180   69.8600  223.9720 N   0  0  0  0  0  0  0  0  0  0  0  0
  138.2480   70.2150  224.1180 C   0  0  0  0  0  0  0  0  0  0  0  0
  137.6480   69.9510  225.1950 O   0  0  0  0  0  0  0  0  0  0  0  0
  137.6010   70.8880  222.9660 C   0  0  0  0  0  0  0  0  0  0  0  0
  138.1260   72.2200  222.7500 N   0  0  0  0  0  0  0  0  0  0  0  0
  139.3440   72.3230  222.0200 C   0  0  0  0  0  0  0  0  0  0  0  0
  139.8580   71.2450  221.6250 O   0  0  0  0  0  0  0  0  0  0  0  0
  139.9560   73.6210  221.7490 C   0  0  0  0  0  0  0  0  0  0  0  0
  140.9830   73.6680  220.8230 C   0  0  0  0  0  0  0  0  0  0  0  0
  141.6250   74.8380  220.4960 C   0  0  0  0  0  0  0  0  0  0  0  0
  141.2160   75.9940  221.1260 C   0  0  0  0  0  0  0  0  0  0  0  0
  141.8310   77.1850  220.8290 C   0  0  0  0  0  0  0  0  0  0  0  0
  141.4310   78.3460  221.4510 C   0  0  0  0  0  0  0  0  0  0  0  0
  140.4070   78.3140  222.3770 C   0  0  0  0  0  0  0  0  0  0  0  0
  140.0200   79.4680  222.9860 F   0  0  0  0  0  0  0  0  0  0  0  0
  139.7980   77.1070  222.6660 C   0  0  0  0  0  0  0  0  0  0  0  0
  140.1830   75.9340  222.0540 C   0  0  0  0  0  0  0  0  0  0  0  0
  139.5940   74.7540  222.3300 N   0  0  0  0  0  0  0  0  0  0  0  0
  140.4240   70.1390  226.1760 C   0  0  0  0  0  0  0  0  0  0  0  0
  139.8100   69.8120  227.3700 C   0  0  0  0  0  0  0  0  0  0  0  0
  139.9270   70.7090  228.4010 C   0  0  0  0  0  0  0  0  0  0  0  0
  140.6270   71.9080  228.2860 C   0  0  0  0  0  0  0  0  0  0  0  0
  141.2390   72.2300  227.0900 C   0  0  0  0  0  0  0  0  0  0  0  0
  141.1230   71.3340  226.0570 C   0  0  0  0  0  0  0  0  0  0  0  0
  139.4960   67.8495  226.5023 H   0  0  0  0  0  0  0  0  0  0  0  0
  138.5379   68.0025  224.9906 H   0  0  0  0  0  0  0  0  0  0  0  0
  140.0729   67.0695  224.9906 H   0  0  0  0  0  0  0  0  0  0  0  0
  141.3393   68.9087  224.7666 H   0  0  0  0  0  0  0  0  0  0  0  0
  140.1350   70.0730  223.0800 H   0  0  0  0  0  0  0  0  0  0  0  0
  137.7740   70.2872  222.0610 H   0  0  0  0  0  0  0  0  0  0  0  0
  136.5268   70.9780  223.1851 H   0  0  0  0  0  0  0  0  0  0  0  0
  137.6470   73.0850  223.1080 H   0  0  0  0  0  0  0  0  0  0  0  0
  141.2967   72.7355  220.3311 H   0  0  0  0  0  0  0  0  0  0  0  0
  142.4386   74.8518  219.7558 H   0  0  0  0  0  0  0  0  0  0  0  0
  142.6464   77.2116  220.0912 H   0  0  0  0  0  0  0  0  0  0  0  0
  141.9265   79.2982  221.2107 H   0  0  0  0  0  0  0  0  0  0  0  0
  138.9836   77.0823  223.4050 H   0  0  0  0  0  0  0  0  0  0  0  0
  139.2510   68.8720  227.4886 H   0  0  0  0  0  0  0  0  0  0  0  0
  139.4467   70.4710  229.3616 H   0  0  0  0  0  0  0  0  0  0  0  0
  140.6921   72.5947  229.1429 H   0  0  0  0  0  0  0  0  0  0  0  0
  141.7984   73.1695  226.9702 H   0  0  0  0  0  0  0  0  0  0  0  0
  141.6027   71.5714  225.0960 H   0  0  0  0  0  0  0  0  0  0  0  0
  1  2  1  0
  2  3  1  0
  3  4  1  0
  4  5  2  0
  4  6  1  0
  6  7  1  0
  7  8  1  0
  8  9  2  0
  8 10  1  0
 10 11  2  0
 11 12  1  0
 12 13  2  0
 13 14  1  0
 14 15  2  0
 15 16  1  0
 16 17  1  0
 16 18  2  0
 18 19  1  0
 19 20  2  0
  2 21  1  0
 21 22  2  0
 22 23  1  0
 23 24  2  0
 24 25  1  0
 25 26  2  0
 20 10  1  0
 26 21  1  0
 19 13  1  0
  1 27  1  0
  1 28  1  0
  1 29  1  0
  2 30  1  6
  3 31  1  0
  6 32  1  0
  6 33  1  0
  7 34  1  0
 11 35  1  0
 12 36  1  0
 14 37  1  0
 15 38  1  0
 18 39  1  0
 22 40  1  0
 23 41  1  0
 24 42  1  0
 25 43  1  0
 26 44  1  0
M  END
>  <smiles>  (10) 
C[C@@H](NC(=O)CNC(=O)c1ccc2ccc(F)cc2n1)c1ccccc1

>  <score_type>  (10) 
oracle

>  <origin>  (10) 
autodockgpu

>  <m_score__min__energy>  (10) 
-8.6699999999999999

>  <m_primary>  (10) 
energy

>  <rmsd>  (10) 
9.794307095891464

>  <m_score__min__rmsd>  (10) 
9.794307095891464

>  <meeko>  (10) 
{"free_energy": -7.69, "intermolecular_energy": -9.19, "internal_energy": -1.96, "cluster_size": 23, "cluster_id": 3, "rank_in_cluster": 14}

>  <energy>  (10) 
-8.38

>  <cluster_rmsd>  (10) 
1.22

>  <cluster>  (10) 
1

$$$$

     RDKit          3D

 44 46  0  0  0  0  0  0  0  0999 V2000
  139.4750   67.3500  226.4870 C   0  0  0  0  0  0  0  0  0  0  0  0
  139.6550   68.5520  225.5830 C   0  0  1  0  0  0  0  0  0  0  0  0
  138.4040   68.7930  224.9040 N   0  0  0  0  0  0  0  0  0  0  0  0
  138.3830   69.0210  223.5000 C   0  0  0  0  0  0  0  0  0  0  0  0
  139.4640   69.0120  222.8510 O   0  0  0  0  0  0  0  0  0  0  0  0
  137.0580   69.2610  222.8770 C   0  0  0  0  0  0  0  0  0  0  0  0
  136.3420   70.3420  223.5220 N   0  0  0  0  0  0  0  0  0  0  0  0
  135.4750   69.9920  224.5960 C   0  0  0  0  0  0  0  0  0  0  0  0
  135.4080   68.7710  224.8920 O   0  0  0  0  0  0  0  0  0  0  0  0
  134.7080   71.0090  225.3100 C   0  0  0  0  0  0  0  0  0  0  0  0
  133.7990   70.5790  226.2610 C   0  0  0  0  0  0  0  0  0  0  0  0
  133.0280   71.4530  226.9890 C   0  0  0  0  0  0  0  0  0  0  0  0
  133.1820   72.8020  226.7460 C   0  0  0  0  0  0  0  0  0  0  0  0
  132.4310   73.7100  227.4510 C   0  0  0  0  0  0  0  0  0  0  0  0
  132.5760   75.0580  227.2180 C   0  0  0  0  0  0  0  0  0  0  0  0
  133.4800   75.5020  226.2730 C   0  0  0  0  0  0  0  0  0  0  0  0
  133.6150   76.8370  226.0510 F   0  0  0  0  0  0  0  0  0  0  0  0
  134.2280   74.5750  225.5710 C   0  0  0  0  0  0  0  0  0  0  0  0
  134.0990   73.2200  225.7890 C   0  0  0  0  0  0  0  0  0  0  0  0
  134.8250   72.3120  225.1090 N   0  0  0  0  0  0  0  0  0  0  0  0
  140.0230   69.7660  226.3240 C   0  0  0  0  0  0  0  0  0  0  0  0
  140.7890   70.7230  225.6860 C   0  0  0  0  0  0  0  0  0  0  0  0
  141.1150   71.8450  226.4050 C   0  0  0  0  0  0  0  0  0  0  0  0
  140.7100   72.0440  227.7230 C   0  0  0  0  0  0  0  0  0  0  0  0
  139.9440   71.0830  228.3550 C   0  0  0  0  0  0  0  0  0  0  0  0
  139.6170   69.9600  227.6380 C   0  0  0  0  0  0  0  0  0  0  0  0
  139.5231   67.6712  227.5380 H   0  0  0  0  0  0  0  0  0  0  0  0
  138.4974   66.8860  226.2898 H   0  0  0  0  0  0  0  0  0  0  0  0
  140.2738   66.6200  226.2898 H   0  0  0  0  0  0  0  0  0  0  0  0
  140.4724   68.3298  224.8813 H   0  0  0  0  0  0  0  0  0  0  0  0
  137.5100   68.7970  225.4610 H   0  0  0  0  0  0  0  0  0  0  0  0
  137.2050   69.5154  221.8170 H   0  0  0  0  0  0  0  0  0  0  0  0
  136.4600   68.3444  222.9875 H   0  0  0  0  0  0  0  0  0  0  0  0
  136.4410   71.3450  223.2250 H   0  0  0  0  0  0  0  0  0  0  0  0
  133.6899   69.4992  226.4405 H   0  0  0  0  0  0  0  0  0  0  0  0
  132.3119   71.0890  227.7405 H   0  0  0  0  0  0  0  0  0  0  0  0
  131.7110   73.3583  228.2046 H   0  0  0  0  0  0  0  0  0  0  0  0
  131.9720   75.7822  227.7843 H   0  0  0  0  0  0  0  0  0  0  0  0
  134.9465   74.9288  224.8170 H   0  0  0  0  0  0  0  0  0  0  0  0
  141.1230   70.5908  224.6463 H   0  0  0  0  0  0  0  0  0  0  0  0
  141.7233   72.6221  225.9191 H   0  0  0  0  0  0  0  0  0  0  0  0
  140.9984   72.9610  228.2577 H   0  0  0  0  0  0  0  0  0  0  0  0
  139.6088   71.2136  229.3945 H   0  0  0  0  0  0  0  0  0  0  0  0
  139.0090   69.1822  228.1231 H   0  0  0  0  0  0  0  0  0  0  0  0
  1  2  1  0
  2  3  1  0
  3  4  1  0
  4  5  2  0
  4  6  1  0
  6  7  1  0
  7  8  1  0
  8  9  2  0
  8 10  1  0
 10 11  2  0
 11 12  1  0
 12 13  2  0
 13 14  1  0
 14 15  2  0
 15 16  1  0
 16 17  1  0
 16 18  2  0
 18 19  1  0
 19 20  2  0
  2 21  1  0
 21 22  2  0
 22 23  1  0
 23 24  2  0
 24 25  1  0
 25 26  2  0
 20 10  1  0
 26 21  1  0
 19 13  1  0
  1 27  1  0
  1 28  1  0
  1 29  1  0
  2 30  1  6
  3 31  1  0
  6 32  1  0
  6 33  1  0
  7 34  1  0
 11 35  1  0
 12 36  1  0
 14 37  1  0
 15 38  1  0
 18 39  1  0
 22 40  1  0
 23 41  1  0
 24 42  1  0
 25 43  1  0
 26 44  1  0
M  END
>  <smiles>  (11) 
C[C@@H](NC(=O)CNC(=O)c1ccc2ccc(F)cc2n1)c1ccccc1

>  <score_type>  (11) 
oracle

>  <origin>  (11) 
autodockgpu

>  <m_score__min__energy>  (11) 
-8.6699999999999999

>  <m_primary>  (11) 
energy

>  <rmsd>  (11) 
10.515535623624194

>  <m_score__min__rmsd>  (11) 
10.515535623624194

>  <meeko>  (11) 
{"free_energy": -7.53, "intermolecular_energy": -9.02, "internal_energy": -2.01, "cluster_size": 16, "cluster_id": 2, "rank_in_cluster": 13}

>  <energy>  (11) 
-8.35

>  <cluster_rmsd>  (11) 
0.45

>  <cluster>  (11) 
1

$$$$

     RDKit          3D

 44 46  0  0  0  0  0  0  0  0999 V2000
  139.6900   67.9990  225.6000 C   0  0  0  0  0  0  0  0  0  0  0  0
  140.3410   69.3370  225.3220 C   0  0  1  0  0  0  0  0  0  0  0  0
  139.6110   69.9770  224.2530 N   0  0  0  0  0  0  0  0  0  0  0  0
  138.1950   70.0940  224.3220 C   0  0  0  0  0  0  0  0  0  0  0  0
  137.5800   69.6350  225.3230 O   0  0  0  0  0  0  0  0  0  0  0  0
  137.5180   70.7640  223.1850 C   0  0  0  0  0  0  0  0  0  0  0  0
  138.1710   72.0040  222.8180 N   0  0  0  0  0  0  0  0  0  0  0  0
  139.2850   71.9110  221.9360 C   0  0  0  0  0  0  0  0  0  0  0  0
  139.6050   70.7560  221.5520 O   0  0  0  0  0  0  0  0  0  0  0  0
  140.0110   73.1020  221.5080 C   0  0  0  0  0  0  0  0  0  0  0  0
  140.9630   72.9540  220.5130 C   0  0  0  0  0  0  0  0  0  0  0  0
  141.7010   74.0100  220.0380 C   0  0  0  0  0  0  0  0  0  0  0  0
  141.4690   75.2540  220.5860 C   0  0  0  0  0  0  0  0  0  0  0  0
  142.1860   76.3370  220.1400 C   0  0  0  0  0  0  0  0  0  0  0  0
  141.9640   77.5840  220.6790 C   0  0  0  0  0  0  0  0  0  0  0  0
  141.0180   77.7480  221.6710 C   0  0  0  0  0  0  0  0  0  0  0  0
  140.8060   78.9850  222.1960 F   0  0  0  0  0  0  0  0  0  0  0  0
  140.3050   76.6470  222.1090 C   0  0  0  0  0  0  0  0  0  0  0  0
  140.5120   75.3910  221.5830 C   0  0  0  0  0  0  0  0  0  0  0  0
  139.8210   74.3140  222.0050 N   0  0  0  0  0  0  0  0  0  0  0  0
  140.3270   70.2270  226.4910 C   0  0  0  0  0  0  0  0  0  0  0  0
  139.5750   69.8610  227.5920 C   0  0  0  0  0  0  0  0  0  0  0  0
  139.5830   70.7140  228.6660 C   0  0  0  0  0  0  0  0  0  0  0  0
  140.3060   71.9050  228.6820 C   0  0  0  0  0  0  0  0  0  0  0  0
  141.0560   72.2650  227.5790 C   0  0  0  0  0  0  0  0  0  0  0  0
  141.0490   71.4140  226.5030 C   0  0  0  0  0  0  0  0  0  0  0  0
  139.6156   67.8462  226.6868 H   0  0  0  0  0  0  0  0  0  0  0  0
  138.6830   67.9822  225.1576 H   0  0  0  0  0  0  0  0  0  0  0  0
  140.2983   67.1963  225.1576 H   0  0  0  0  0  0  0  0  0  0  0  0
  141.3925   69.1534  225.0561 H   0  0  0  0  0  0  0  0  0  0  0  0
  140.1400   70.3550  223.4250 H   0  0  0  0  0  0  0  0  0  0  0  0
  137.5275   70.0875  222.3176 H   0  0  0  0  0  0  0  0  0  0  0  0
  136.4892   71.0007  223.4942 H   0  0  0  0  0  0  0  0  0  0  0  0
  137.8540   72.9400  223.1760 H   0  0  0  0  0  0  0  0  0  0  0  0
  141.1341   71.9540  220.0878 H   0  0  0  0  0  0  0  0  0  0  0  0
  142.4521   73.8684  219.2469 H   0  0  0  0  0  0  0  0  0  0  0  0
  142.9400   76.2076  219.3496 H   0  0  0  0  0  0  0  0  0  0  0  0
  142.5401   78.4494  220.3195 H   0  0  0  0  0  0  0  0  0  0  0  0
  139.5515   76.7780  222.8996 H   0  0  0  0  0  0  0  0  0  0  0  0
  138.9954   68.9262  227.6060 H   0  0  0  0  0  0  0  0  0  0  0  0
  138.9923   70.4459  229.5544 H   0  0  0  0  0  0  0  0  0  0  0  0
  140.2798   72.5555  229.5686 H   0  0  0  0  0  0  0  0  0  0  0  0
  141.6370   73.1989  227.5641 H   0  0  0  0  0  0  0  0  0  0  0  0
  141.6387   71.6822  225.6140 H   0  0  0  0  0  0  0  0  0  0  0  0
  1  2  1  0
  2  3  1  0
  3  4  1  0
  4  5  2  0
  4  6  1  0
  6  7  1  0
  7  8  1  0
  8  9  2  0
  8 10  1  0
 10 11  2  0
 11 12  1  0
 12 13  2  0
 13 14  1  0
 14 15  2  0
 15 16  1  0
 16 17  1  0
 16 18  2  0
 18 19  1  0
 19 20  2  0
  2 21  1  0
 21 22  2  0
 22 23  1  0
 23 24  2  0
 24 25  1  0
 25 26  2  0
 20 10  1  0
 26 21  1  0
 19 13  1  0
  1 27  1  0
  1 28  1  0
  1 29  1  0
  2 30  1  6
  3 31  1  0
  6 32  1  0
  6 33  1  0
  7 34  1  0
 11 35  1  0
 12 36  1  0
 14 37  1  0
 15 38  1  0
 18 39  1  0
 22 40  1  0
 23 41  1  0
 24 42  1  0
 25 43  1  0
 26 44  1  0
M  END
>  <smiles>  (12) 
C[C@@H](NC(=O)CNC(=O)c1ccc2ccc(F)cc2n1)c1ccccc1

>  <score_type>  (12) 
oracle

>  <origin>  (12) 
autodockgpu

>  <m_score__min__energy>  (12) 
-8.6699999999999999

>  <m_primary>  (12) 
energy

>  <rmsd>  (12) 
9.81805122443758

>  <m_score__min__rmsd>  (12) 
9.81805122443758

>  <meeko>  (12) 
{"free_energy": -7.57, "intermolecular_energy": -9.06, "internal_energy": -1.81, "cluster_size": 23, "cluster_id": 3, "rank_in_cluster": 22}

>  <energy>  (12) 
-7.78

>  <cluster_rmsd>  (12) 
0.0

>  <cluster>  (12) 
2

$$$$

     RDKit          3D

 44 46  0  0  0  0  0  0  0  0999 V2000
  139.5350   67.9580  225.4090 C   0  0  0  0  0  0  0  0  0  0  0  0
  140.3310   69.2020  225.0720 C   0  0  1  0  0  0  0  0  0  0  0  0
  139.6730   69.8700  223.9740 N   0  0  0  0  0  0  0  0  0  0  0  0
  138.2930   70.2020  224.0610 C   0  0  0  0  0  0  0  0  0  0  0  0
  137.6460   69.9090  225.1030 O   0  0  0  0  0  0  0  0  0  0  0  0
  137.6900   70.8890  222.8930 C   0  0  0  0  0  0  0  0  0  0  0  0
  138.1620   72.2510  222.7600 N   0  0  0  0  0  0  0  0  0  0  0  0
  139.3660   72.4500  222.0260 C   0  0  0  0  0  0  0  0  0  0  0  0
  139.9160   71.4200  221.5560 O   0  0  0  0  0  0  0  0  0  0  0  0
  139.9250   73.7850  221.8360 C   0  0  0  0  0  0  0  0  0  0  0  0
  141.0600   73.9030  221.0540 C   0  0  0  0  0  0  0  0  0  0  0  0
  141.6650   75.1130  220.8120 C   0  0  0  0  0  0  0  0  0  0  0  0
  141.1030   76.2360  221.3800 C   0  0  0  0  0  0  0  0  0  0  0  0
  141.6750   77.4660  221.1640 C   0  0  0  0  0  0  0  0  0  0  0  0
  141.1240   78.5950  221.7260 C   0  0  0  0  0  0  0  0  0  0  0  0
  139.9910   78.4930  222.5080 C   0  0  0  0  0  0  0  0  0  0  0  0
  139.4540   79.6160  223.0570 F   0  0  0  0  0  0  0  0  0  0  0  0
  139.4270   77.2480  222.7160 C   0  0  0  0  0  0  0  0  0  0  0  0
  139.9620   76.1050  222.1630 C   0  0  0  0  0  0  0  0  0  0  0  0
  139.4180   74.8890  222.3610 N   0  0  0  0  0  0  0  0  0  0  0  0
  140.4210   70.1390  226.2000 C   0  0  0  0  0  0  0  0  0  0  0  0
  139.7770   69.8190  227.3790 C   0  0  0  0  0  0  0  0  0  0  0  0
  139.8800   70.7160  228.4120 C   0  0  0  0  0  0  0  0  0  0  0  0
  140.5960   71.9070  228.3120 C   0  0  0  0  0  0  0  0  0  0  0  0
  141.2380   72.2210  227.1300 C   0  0  0  0  0  0  0  0  0  0  0  0
  141.1360   71.3260  226.0960 C   0  0  0  0  0  0  0  0  0  0  0  0
  139.4667   67.8512  226.5017 H   0  0  0  0  0  0  0  0  0  0  0  0
  138.5236   68.0438  224.9850 H   0  0  0  0  0  0  0  0  0  0  0  0
  140.0367   67.0756  224.9850 H   0  0  0  0  0  0  0  0  0  0  0  0
  141.3547   68.8913  224.8163 H   0  0  0  0  0  0  0  0  0  0  0  0
  140.2280   70.1080  223.1120 H   0  0  0  0  0  0  0  0  0  0  0  0
  137.9504   70.3325  221.9806 H   0  0  0  0  0  0  0  0  0  0  0  0
  136.6008   70.9207  223.0434 H   0  0  0  0  0  0  0  0  0  0  0  0
  137.6550   73.0710  223.1790 H   0  0  0  0  0  0  0  0  0  0  0  0
  141.4941   72.9952  220.6097 H   0  0  0  0  0  0  0  0  0  0  0  0
  142.5670   75.1828  220.1863 H   0  0  0  0  0  0  0  0  0  0  0  0
  142.5768   77.5489  220.5396 H   0  0  0  0  0  0  0  0  0  0  0  0
  141.5861   79.5780  221.5522 H   0  0  0  0  0  0  0  0  0  0  0  0
  138.5253   77.1676  223.3409 H   0  0  0  0  0  0  0  0  0  0  0  0
  139.2059   68.8849  227.4853 H   0  0  0  0  0  0  0  0  0  0  0  0
  139.3749   70.4846  229.3614 H   0  0  0  0  0  0  0  0  0  0  0  0
  140.6497   72.5936  229.1697 H   0  0  0  0  0  0  0  0  0  0  0  0
  141.8099   73.1544  227.0221 H   0  0  0  0  0  0  0  0  0  0  0  0
  141.6404   71.5570  225.1461 H   0  0  0  0  0  0  0  0  0  0  0  0
  1  2  1  0
  2  3  1  0
  3  4  1  0
  4  5  2  0
  4  6  1  0
  6  7  1  0
  7  8  1  0
  8  9  2  0
  8 10  1  0
 10 11  2  0
 11 12  1  0
 12 13  2  0
 13 14  1  0
 14 15  2  0
 15 16  1  0
 16 17  1  0
 16 18  2  0
 18 19  1  0
 19 20  2  0
  2 21  1  0
 21 22  2  0
 22 23  1  0
 23 24  2  0
 24 25  1  0
 25 26  2  0
 20 10  1  0
 26 21  1  0
 19 13  1  0
  1 27  1  0
  1 28  1  0
  1 29  1  0
  2 30  1  6
  3 31  1  0
  6 32  1  0
  6 33  1  0
  7 34  1  0
 11 35  1  0
 12 36  1  0
 14 37  1  0
 15 38  1  0
 18 39  1  0
 22 40  1  0
 23 41  1  0
 24 42  1  0
 25 43  1  0
 26 44  1  0
M  END
>  <smiles>  (13) 
C[C@@H](NC(=O)CNC(=O)c1ccc2ccc(F)cc2n1)c1ccccc1

>  <score_type>  (13) 
oracle

>  <origin>  (13) 
autodockgpu

>  <m_score__min__energy>  (13) 
-8.6699999999999999

>  <m_primary>  (13) 
energy

>  <rmsd>  (13) 
9.789799100709194

>  <m_score__min__rmsd>  (13) 
9.789799100709194

>  <meeko>  (13) 
{"free_energy": -7.65, "intermolecular_energy": -9.15, "internal_energy": -1.95, "cluster_size": 23, "cluster_id": 3, "rank_in_cluster": 17}

>  <energy>  (13) 
-7.72

>  <cluster_rmsd>  (13) 
0.21

>  <cluster>  (13) 
2

$$$$

     RDKit          3D

 44 46  0  0  0  0  0  0  0  0999 V2000
  139.5230   67.8460  225.4750 C   0  0  0  0  0  0  0  0  0  0  0  0
  139.9310   69.2160  224.9760 C   0  0  1  0  0  0  0  0  0  0  0  0
  138.8270   69.7650  224.2230 N   0  0  0  0  0  0  0  0  0  0  0  0
  139.0590   70.7610  223.2340 C   0  0  0  0  0  0  0  0  0  0  0  0
  140.2340   71.1630  223.0180 O   0  0  0  0  0  0  0  0  0  0  0  0
  137.8730   71.2740  222.5040 C   0  0  0  0  0  0  0  0  0  0  0  0
  136.9570   71.9740  223.3800 N   0  0  0  0  0  0  0  0  0  0  0  0
  135.9820   71.1880  224.0570 C   0  0  0  0  0  0  0  0  0  0  0  0
  136.0020   69.9500  223.8340 O   0  0  0  0  0  0  0  0  0  0  0  0
  135.0120   71.7990  224.9610 C   0  0  0  0  0  0  0  0  0  0  0  0
  134.2080   70.9560  225.7080 C   0  0  0  0  0  0  0  0  0  0  0  0
  133.2640   71.4290  226.5880 C   0  0  0  0  0  0  0  0  0  0  0  0
  133.1310   72.7950  226.7150 C   0  0  0  0  0  0  0  0  0  0  0  0
  132.2000   73.3100  227.5830 C   0  0  0  0  0  0  0  0  0  0  0  0
  132.0580   74.6720  227.7190 C   0  0  0  0  0  0  0  0  0  0  0  0
  132.8540   75.5250  226.9810 C   0  0  0  0  0  0  0  0  0  0  0  0
  132.7060   76.8700  227.1240 F   0  0  0  0  0  0  0  0  0  0  0  0
  133.7870   74.9910  226.1110 C   0  0  0  0  0  0  0  0  0  0  0  0
  133.9450   73.6310  225.9600 C   0  0  0  0  0  0  0  0  0  0  0  0
  134.8520   73.1040  225.1150 N   0  0  0  0  0  0  0  0  0  0  0  0
  140.2540   70.1440  226.0680 C   0  0  0  0  0  0  0  0  0  0  0  0
  141.1480   71.1690  225.8240 C   0  0  0  0  0  0  0  0  0  0  0  0
  141.4280   72.0170  226.8650 C   0  0  0  0  0  0  0  0  0  0  0  0
  140.8550   71.8810  228.1270 C   0  0  0  0  0  0  0  0  0  0  0  0
  139.9620   70.8540  228.3660 C   0  0  0  0  0  0  0  0  0  0  0  0
  139.6800   70.0050  227.3260 C   0  0  0  0  0  0  0  0  0  0  0  0
  139.5217   67.8418  226.5750 H   0  0  0  0  0  0  0  0  0  0  0  0
  138.5146   67.6068  225.1063 H   0  0  0  0  0  0  0  0  0  0  0  0
  140.2362   67.0941  225.1063 H   0  0  0  0  0  0  0  0  0  0  0  0
  140.8361   69.0971  224.3623 H   0  0  0  0  0  0  0  0  0  0  0  0
  137.8520   69.4180  224.4160 H   0  0  0  0  0  0  0  0  0  0  0  0
  138.2114   71.9656  221.7184 H   0  0  0  0  0  0  0  0  0  0  0  0
  137.3404   70.4129  222.0741 H   0  0  0  0  0  0  0  0  0  0  0  0
  136.9910   73.0150  223.5230 H   0  0  0  0  0  0  0  0  0  0  0  0
  134.3287   69.8687  225.5934 H   0  0  0  0  0  0  0  0  0  0  0  0
  132.6355   70.7402  227.1716 H   0  0  0  0  0  0  0  0  0  0  0  0
  131.5653   72.6314  228.1718 H   0  0  0  0  0  0  0  0  0  0  0  0
  131.3108   75.0807  228.4152 H   0  0  0  0  0  0  0  0  0  0  0  0
  134.4207   75.6714  225.5231 H   0  0  0  0  0  0  0  0  0  0  0  0
  141.6153   71.2993  224.8368 H   0  0  0  0  0  0  0  0  0  0  0  0
  142.1366   72.8411  226.6956 H   0  0  0  0  0  0  0  0  0  0  0  0
  141.1121   72.5878  228.9297 H   0  0  0  0  0  0  0  0  0  0  0  0
  139.4948   70.7221  229.3531 H   0  0  0  0  0  0  0  0  0  0  0  0
  138.9710   69.1810  227.4946 H   0  0  0  0  0  0  0  0  0  0  0  0
  1  2  1  0
  2  3  1  0
  3  4  1  0
  4  5  2  0
  4  6  1  0
  6  7  1  0
  7  8  1  0
  8  9  2  0
  8 10  1  0
 10 11  2  0
 11 12  1  0
 12 13  2  0
 13 14  1  0
 14 15  2  0
 15 16  1  0
 16 17  1  0
 16 18  2  0
 18 19  1  0
 19 20  2  0
  2 21  1  0
 21 22  2  0
 22 23  1  0
 23 24  2  0
 24 25  1  0
 25 26  2  0
 20 10  1  0
 26 21  1  0
 19 13  1  0
  1 27  1  0
  1 28  1  0
  1 29  1  0
  2 30  1  6
  3 31  1  0
  6 32  1  0
  6 33  1  0
  7 34  1  0
 11 35  1  0
 12 36  1  0
 14 37  1  0
 15 38  1  0
 18 39  1  0
 22 40  1  0
 23 41  1  0
 24 42  1  0
 25 43  1  0
 26 44  1  0
M  END
>  <smiles>  (14) 
C[C@@H](NC(=O)CNC(=O)c1ccc2ccc(F)cc2n1)c1ccccc1

>  <score_type>  (14) 
oracle

>  <origin>  (14) 
autodockgpu

>  <m_score__min__energy>  (14) 
-8.6699999999999999

>  <m_primary>  (14) 
energy

>  <rmsd>  (14) 
10.07807201544674

>  <m_score__min__rmsd>  (14) 
10.07807201544674

>  <meeko>  (14) 
{"free_energy": -7.67, "intermolecular_energy": -9.16, "internal_energy": -2.01, "cluster_size": 16, "cluster_id": 2, "rank_in_cluster": 8}

>  <energy>  (14) 
-7.71

>  <cluster_rmsd>  (14) 
0.09

>  <cluster>  (14) 
2

$$$$

     RDKit          3D

 44 46  0  0  0  0  0  0  0  0999 V2000
  139.5220   67.8590  225.5120 C   0  0  0  0  0  0  0  0  0  0  0  0
  139.9310   69.2310  225.0200 C   0  0  1  0  0  0  0  0  0  0  0  0
  138.8340   69.7780  224.2560 N   0  0  0  0  0  0  0  0  0  0  0  0
  139.0750   70.7700  223.2650 C   0  0  0  0  0  0  0  0  0  0  0  0
  140.2520   71.1700  223.0580 O   0  0  0  0  0  0  0  0  0  0  0  0
  137.8960   71.2800  222.5220 C   0  0  0  0  0  0  0  0  0  0  0  0
  136.9620   71.9660  223.3900 N   0  0  0  0  0  0  0  0  0  0  0  0
  135.9960   71.1640  224.0620 C   0  0  0  0  0  0  0  0  0  0  0  0
  136.0390   69.9260  223.8420 O   0  0  0  0  0  0  0  0  0  0  0  0
  135.0100   71.7600  224.9580 C   0  0  0  0  0  0  0  0  0  0  0  0
  134.2030   70.9050  225.6880 C   0  0  0  0  0  0  0  0  0  0  0  0
  133.2440   71.3630  226.5600 C   0  0  0  0  0  0  0  0  0  0  0  0
  133.0990   72.7270  226.6960 C   0  0  0  0  0  0  0  0  0  0  0  0
  132.1520   73.2270  227.5560 C   0  0  0  0  0  0  0  0  0  0  0  0
  131.9970   74.5870  227.7000 C   0  0  0  0  0  0  0  0  0  0  0  0
  132.7950   75.4530  226.9790 C   0  0  0  0  0  0  0  0  0  0  0  0
  132.6340   76.7950  227.1300 F   0  0  0  0  0  0  0  0  0  0  0  0
  133.7440   74.9330  226.1170 C   0  0  0  0  0  0  0  0  0  0  0  0
  133.9150   73.5760  225.9580 C   0  0  0  0  0  0  0  0  0  0  0  0
  134.8370   73.0620  225.1200 N   0  0  0  0  0  0  0  0  0  0  0  0
  140.2370   70.1580  226.1180 C   0  0  0  0  0  0  0  0  0  0  0  0
  139.6470   69.9440  227.3490 C   0  0  0  0  0  0  0  0  0  0  0  0
  139.9540   70.8270  228.3530 C   0  0  0  0  0  0  0  0  0  0  0  0
  140.8200   71.9040  228.1750 C   0  0  0  0  0  0  0  0  0  0  0  0
  141.4080   72.1120  226.9420 C   0  0  0  0  0  0  0  0  0  0  0  0
  141.1020   71.2300  225.9370 C   0  0  0  0  0  0  0  0  0  0  0  0
  139.5192   67.8497  226.6120 H   0  0  0  0  0  0  0  0  0  0  0  0
  138.5141   67.6218  225.1408 H   0  0  0  0  0  0  0  0  0  0  0  0
  140.2355   67.1086  225.1408 H   0  0  0  0  0  0  0  0  0  0  0  0
  140.8434   69.1162  224.4164 H   0  0  0  0  0  0  0  0  0  0  0  0
  137.8570   69.4320  224.4410 H   0  0  0  0  0  0  0  0  0  0  0  0
  138.2406   71.9805  221.7470 H   0  0  0  0  0  0  0  0  0  0  0  0
  137.3762   70.4184  222.0775 H   0  0  0  0  0  0  0  0  0  0  0  0
  136.9780   73.0070  223.5320 H   0  0  0  0  0  0  0  0  0  0  0  0
  134.3337   69.8196  225.5661 H   0  0  0  0  0  0  0  0  0  0  0  0
  132.6136   70.6646  227.1300 H   0  0  0  0  0  0  0  0  0  0  0  0
  131.5156   72.5385  228.1313 H   0  0  0  0  0  0  0  0  0  0  0  0
  131.2374   74.9840  228.3895 H   0  0  0  0  0  0  0  0  0  0  0  0
  134.3797   75.6229  225.5426 H   0  0  0  0  0  0  0  0  0  0  0  0
  138.9602   69.1013  227.5168 H   0  0  0  0  0  0  0  0  0  0  0  0
  139.4963   70.6783  229.3421 H   0  0  0  0  0  0  0  0  0  0  0  0
  141.0345   72.5851  229.0117 H   0  0  0  0  0  0  0  0  0  0  0  0
  142.0959   72.9535  226.7727 H   0  0  0  0  0  0  0  0  0  0  0  0
  141.5600   71.3774  224.9478 H   0  0  0  0  0  0  0  0  0  0  0  0
  1  2  1  0
  2  3  1  0
  3  4  1  0
  4  5  2  0
  4  6  1  0
  6  7  1  0
  7  8  1  0
  8  9  2  0
  8 10  1  0
 10 11  2  0
 11 12  1  0
 12 13  2  0
 13 14  1  0
 14 15  2  0
 15 16  1  0
 16 17  1  0
 16 18  2  0
 18 19  1  0
 19 20  2  0
  2 21  1  0
 21 22  2  0
 22 23  1  0
 23 24  2  0
 24 25  1  0
 25 26  2  0
 20 10  1  0
 26 21  1  0
 19 13  1  0
  1 27  1  0
  1 28  1  0
  1 29  1  0
  2 30  1  6
  3 31  1  0
  6 32  1  0
  6 33  1  0
  7 34  1  0
 11 35  1  0
 12 36  1  0
 14 37  1  0
 15 38  1  0
 18 39  1  0
 22 40  1  0
 23 41  1  0
 24 42  1  0
 25 43  1  0
 26 44  1  0
M  END
>  <smiles>  (15) 
C[C@@H](NC(=O)CNC(=O)c1ccc2ccc(F)cc2n1)c1ccccc1

>  <score_type>  (15) 
oracle

>  <origin>  (15) 
autodockgpu

>  <m_score__min__energy>  (15) 
-8.6699999999999999

>  <m_primary>  (15) 
energy

>  <rmsd>  (15) 
9.890059614797025

>  <m_score__min__rmsd>  (15) 
9.890059614797025

>  <meeko>  (15) 
{"free_energy": -7.72, "intermolecular_energy": -9.21, "internal_energy": -2.02, "cluster_size": 16, "cluster_id": 2, "rank_in_cluster": 2}

>  <energy>  (15) 
-7.71

>  <cluster_rmsd>  (15) 
0.17

>  <cluster>  (15) 
2

$$$$

     RDKit          3D

 44 46  0  0  0  0  0  0  0  0999 V2000
  139.5060   67.8970  225.5010 C   0  0  0  0  0  0  0  0  0  0  0  0
  140.3320   69.1130  225.1390 C   0  0  1  0  0  0  0  0  0  0  0  0
  139.7010   69.7640  224.0150 N   0  0  0  0  0  0  0  0  0  0  0  0
  138.3400   70.1710  224.0940 C   0  0  0  0  0  0  0  0  0  0  0  0
  137.6870   69.9590  225.1510 O   0  0  0  0  0  0  0  0  0  0  0  0
  137.7640   70.8330  222.8970 C   0  0  0  0  0  0  0  0  0  0  0  0
  138.2110   72.2050  222.7690 N   0  0  0  0  0  0  0  0  0  0  0  0
  139.4220   72.4260  222.0530 C   0  0  0  0  0  0  0  0  0  0  0  0
  140.0000   71.4070  221.5940 O   0  0  0  0  0  0  0  0  0  0  0  0
  139.9560   73.7720  221.8690 C   0  0  0  0  0  0  0  0  0  0  0  0
  141.1110   73.9090  221.1180 C   0  0  0  0  0  0  0  0  0  0  0  0
  141.6950   75.1310  220.8840 C   0  0  0  0  0  0  0  0  0  0  0  0
  141.0920   76.2450  221.4270 C   0  0  0  0  0  0  0  0  0  0  0  0
  141.6440   77.4860  221.2180 C   0  0  0  0  0  0  0  0  0  0  0  0
  141.0510   78.6060  221.7550 C   0  0  0  0  0  0  0  0  0  0  0  0
  139.8990   78.4850  222.5060 C   0  0  0  0  0  0  0  0  0  0  0  0
  139.3220   79.6000  223.0310 F   0  0  0  0  0  0  0  0  0  0  0  0
  139.3570   77.2290  222.7070 C   0  0  0  0  0  0  0  0  0  0  0  0
  139.9330   76.0950  222.1790 C   0  0  0  0  0  0  0  0  0  0  0  0
  139.4110   74.8690  222.3710 N   0  0  0  0  0  0  0  0  0  0  0  0
  140.4290   70.0800  226.2410 C   0  0  0  0  0  0  0  0  0  0  0  0
  139.8010   69.7860  227.4360 C   0  0  0  0  0  0  0  0  0  0  0  0
  139.9100   70.7090  228.4440 C   0  0  0  0  0  0  0  0  0  0  0  0
  140.6150   71.9020  228.3050 C   0  0  0  0  0  0  0  0  0  0  0  0
  141.2410   72.1910  227.1080 C   0  0  0  0  0  0  0  0  0  0  0  0
  141.1330   71.2690  226.0970 C   0  0  0  0  0  0  0  0  0  0  0  0
  139.4453   67.8076  226.5957 H   0  0  0  0  0  0  0  0  0  0  0  0
  138.4933   68.0046  225.0852 H   0  0  0  0  0  0  0  0  0  0  0  0
  139.9792   66.9953  225.0852 H   0  0  0  0  0  0  0  0  0  0  0  0
  141.3515   68.7729  224.9046 H   0  0  0  0  0  0  0  0  0  0  0  0
  140.2610   69.9330  223.1390 H   0  0  0  0  0  0  0  0  0  0  0  0
  138.0701   70.2744  222.0002 H   0  0  0  0  0  0  0  0  0  0  0  0
  136.6695   70.8406  223.0061 H   0  0  0  0  0  0  0  0  0  0  0  0
  137.6810   73.0150  223.1780 H   0  0  0  0  0  0  0  0  0  0  0  0
  141.5778   73.0079  220.6935 H   0  0  0  0  0  0  0  0  0  0  0  0
  142.6127   75.2170  220.2836 H   0  0  0  0  0  0  0  0  0  0  0  0
  142.5620   77.5845  220.6201 H   0  0  0  0  0  0  0  0  0  0  0  0
  141.4952   79.5980  221.5857 H   0  0  0  0  0  0  0  0  0  0  0  0
  138.4393   77.1328  223.3059 H   0  0  0  0  0  0  0  0  0  0  0  0
  139.2375   68.8512  227.5729 H   0  0  0  0  0  0  0  0  0  0  0  0
  139.4188   70.4978  229.4053 H   0  0  0  0  0  0  0  0  0  0  0  0
  140.6731   72.6107  229.1443 H   0  0  0  0  0  0  0  0  0  0  0  0
  141.8050   73.1253  226.9702 H   0  0  0  0  0  0  0  0  0  0  0  0
  141.6231   71.4798  225.1350 H   0  0  0  0  0  0  0  0  0  0  0  0
  1  2  1  0
  2  3  1  0
  3  4  1  0
  4  5  2  0
  4  6  1  0
  6  7  1  0
  7  8  1  0
  8  9  2  0
  8 10  1  0
 10 11  2  0
 11 12  1  0
 12 13  2  0
 13 14  1  0
 14 15  2  0
 15 16  1  0
 16 17  1  0
 16 18  2  0
 18 19  1  0
 19 20  2  0
  2 21  1  0
 21 22  2  0
 22 23  1  0
 23 24  2  0
 24 25  1  0
 25 26  2  0
 20 10  1  0
 26 21  1  0
 19 13  1  0
  1 27  1  0
  1 28  1  0
  1 29  1  0
  2 30  1  6
  3 31  1  0
  6 32  1  0
  6 33  1  0
  7 34  1  0
 11 35  1  0
 12 36  1  0
 14 37  1  0
 15 38  1  0
 18 39  1  0
 22 40  1  0
 23 41  1  0
 24 42  1  0
 25 43  1  0
 26 44  1  0
M  END
>  <smiles>  (16) 
C[C@@H](NC(=O)CNC(=O)c1ccc2ccc(F)cc2n1)c1ccccc1

>  <score_type>  (16) 
oracle

>  <origin>  (16) 
autodockgpu

>  <m_score__min__energy>  (16) 
-8.6699999999999999

>  <m_primary>  (16) 
energy

>  <rmsd>  (16) 
9.817294389433245

>  <m_score__min__rmsd>  (16) 
9.817294389433245

>  <meeko>  (16) 
{"free_energy": -7.64, "intermolecular_energy": -9.13, "internal_energy": -1.98, "cluster_size": 23, "cluster_id": 3, "rank_in_cluster": 19}

>  <energy>  (16) 
-7.7

>  <cluster_rmsd>  (16) 
0.19

>  <cluster>  (16) 
2

$$$$

     RDKit          3D

 44 46  0  0  0  0  0  0  0  0999 V2000
  139.4430   68.0610  225.3090 C   0  0  0  0  0  0  0  0  0  0  0  0
  139.8910   69.4540  224.9190 C   0  0  1  0  0  0  0  0  0  0  0  0
  138.8220   70.0750  224.1720 N   0  0  0  0  0  0  0  0  0  0  0  0
  139.1070   70.8070  222.9860 C   0  0  0  0  0  0  0  0  0  0  0  0
  140.3000   70.9110  222.5900 O   0  0  0  0  0  0  0  0  0  0  0  0
  137.9560   71.4150  222.2760 C   0  0  0  0  0  0  0  0  0  0  0  0
  137.0890   72.1500  223.1740 N   0  0  0  0  0  0  0  0  0  0  0  0
  136.0290   71.4240  223.7870 C   0  0  0  0  0  0  0  0  0  0  0  0
  135.9370   70.2040  223.4940 O   0  0  0  0  0  0  0  0  0  0  0  0
  135.1010   72.0740  224.7070 C   0  0  0  0  0  0  0  0  0  0  0  0
  134.2380   71.2680  225.4290 C   0  0  0  0  0  0  0  0  0  0  0  0
  133.3270   71.7790  226.3210 C   0  0  0  0  0  0  0  0  0  0  0  0
  133.2880   73.1470  226.4870 C   0  0  0  0  0  0  0  0  0  0  0  0
  132.3920   73.7000  227.3690 C   0  0  0  0  0  0  0  0  0  0  0  0
  132.3430   75.0640  227.5430 C   0  0  0  0  0  0  0  0  0  0  0  0
  133.1980   75.8810  226.8310 C   0  0  0  0  0  0  0  0  0  0  0  0
  133.1410   77.2290  227.0110 F   0  0  0  0  0  0  0  0  0  0  0  0
  134.0940   75.3090  225.9470 C   0  0  0  0  0  0  0  0  0  0  0  0
  134.1590   73.9460  225.7570 C   0  0  0  0  0  0  0  0  0  0  0  0
  135.0300   73.3830  224.8980 N   0  0  0  0  0  0  0  0  0  0  0  0
  140.1940   70.2970  226.0830 C   0  0  0  0  0  0  0  0  0  0  0  0
  139.6410   69.9630  227.3040 C   0  0  0  0  0  0  0  0  0  0  0  0
  139.9440   70.7710  228.3710 C   0  0  0  0  0  0  0  0  0  0  0  0
  140.7710   71.8870  228.2640 C   0  0  0  0  0  0  0  0  0  0  0  0
  141.3210   72.2160  227.0400 C   0  0  0  0  0  0  0  0  0  0  0  0
  141.0180   71.4100  225.9720 C   0  0  0  0  0  0  0  0  0  0  0  0
  139.4163   67.9780  226.4055 H   0  0  0  0  0  0  0  0  0  0  0  0
  138.4386   67.8716  224.9024 H   0  0  0  0  0  0  0  0  0  0  0  0
  140.1486   67.3216  224.9024 H   0  0  0  0  0  0  0  0  0  0  0  0
  140.8132   69.3606  224.3267 H   0  0  0  0  0  0  0  0  0  0  0  0
  137.8310   69.9780  224.5160 H   0  0  0  0  0  0  0  0  0  0  0  0
  138.3368   72.1038  221.5076 H   0  0  0  0  0  0  0  0  0  0  0  0
  137.3672   70.6019  221.8263 H   0  0  0  0  0  0  0  0  0  0  0  0
  137.2190   73.1730  223.3770 H   0  0  0  0  0  0  0  0  0  0  0  0
  134.2834   70.1786  225.2832 H   0  0  0  0  0  0  0  0  0  0  0  0
  132.6511   71.1187  226.8841 H   0  0  0  0  0  0  0  0  0  0  0  0
  131.7112   73.0501  227.9383 H   0  0  0  0  0  0  0  0  0  0  0  0
  131.6229   75.5032  228.2491 H   0  0  0  0  0  0  0  0  0  0  0  0
  134.7744   75.9607  225.3792 H   0  0  0  0  0  0  0  0  0  0  0  0
  138.9857   69.0867  227.4162 H   0  0  0  0  0  0  0  0  0  0  0  0
  139.5150   70.5268  229.3540 H   0  0  0  0  0  0  0  0  0  0  0  0
  140.9851   72.5032  229.1497 H   0  0  0  0  0  0  0  0  0  0  0  0
  141.9773   73.0914  226.9261 H   0  0  0  0  0  0  0  0  0  0  0  0
  141.4447   71.6549  224.9881 H   0  0  0  0  0  0  0  0  0  0  0  0
  1  2  1  0
  2  3  1  0
  3  4  1  0
  4  5  2  0
  4  6  1  0
  6  7  1  0
  7  8  1  0
  8  9  2  0
  8 10  1  0
 10 11  2  0
 11 12  1  0
 12 13  2  0
 13 14  1  0
 14 15  2  0
 15 16  1  0
 16 17  1  0
 16 18  2  0
 18 19  1  0
 19 20  2  0
  2 21  1  0
 21 22  2  0
 22 23  1  0
 23 24  2  0
 24 25  1  0
 25 26  2  0
 20 10  1  0
 26 21  1  0
 19 13  1  0
  1 27  1  0
  1 28  1  0
  1 29  1  0
  2 30  1  6
  3 31  1  0
  6 32  1  0
  6 33  1  0
  7 34  1  0
 11 35  1  0
 12 36  1  0
 14 37  1  0
 15 38  1  0
 18 39  1  0
 22 40  1  0
 23 41  1  0
 24 42  1  0
 25 43  1  0
 26 44  1  0
M  END
>  <smiles>  (17) 
C[C@@H](NC(=O)CNC(=O)c1ccc2ccc(F)cc2n1)c1ccccc1

>  <score_type>  (17) 
oracle

>  <origin>  (17) 
autodockgpu

>  <m_score__min__energy>  (17) 
-8.6699999999999999

>  <m_primary>  (17) 
energy

>  <rmsd>  (17) 
9.784067086834224

>  <m_score__min__rmsd>  (17) 
9.784067086834224

>  <meeko>  (17) 
{"free_energy": -7.52, "intermolecular_energy": -9.01, "internal_energy": -2.01, "cluster_size": 16, "cluster_id": 2, "rank_in_cluster": 15}

>  <energy>  (17) 
-7.7

>  <cluster_rmsd>  (17) 
0.23

>  <cluster>  (17) 
2

$$$$

     RDKit          3D

 44 46  0  0  0  0  0  0  0  0999 V2000
  139.5830   68.0080  225.4170 C   0  0  0  0  0  0  0  0  0  0  0  0
  140.3550   69.2560  225.0470 C   0  0  1  0  0  0  0  0  0  0  0  0
  139.6470   69.9200  223.9770 N   0  0  0  0  0  0  0  0  0  0  0  0
  138.2770   70.2710  224.1340 C   0  0  0  0  0  0  0  0  0  0  0  0
  137.6850   70.0000  225.2140 O   0  0  0  0  0  0  0  0  0  0  0  0
  137.6200   70.9500  222.9910 C   0  0  0  0  0  0  0  0  0  0  0  0
  138.2030   72.2480  222.7220 N   0  0  0  0  0  0  0  0  0  0  0  0
  139.3720   72.2760  221.9100 C   0  0  0  0  0  0  0  0  0  0  0  0
  139.7970   71.1670  221.4950 O   0  0  0  0  0  0  0  0  0  0  0  0
  140.0350   73.5350  221.5820 C   0  0  0  0  0  0  0  0  0  0  0  0
  140.9070   73.5430  220.5070 C   0  0  0  0  0  0  0  0  0  0  0  0
  141.5810   74.6740  220.1150 C   0  0  0  0  0  0  0  0  0  0  0  0
  141.3670   75.8310  220.8330 C   0  0  0  0  0  0  0  0  0  0  0  0
  142.0200   76.9850  220.4750 C   0  0  0  0  0  0  0  0  0  0  0  0
  141.8140   78.1460  221.1840 C   0  0  0  0  0  0  0  0  0  0  0  0
  140.9470   78.1540  222.2580 C   0  0  0  0  0  0  0  0  0  0  0  0
  140.7510   79.3080  222.9520 F   0  0  0  0  0  0  0  0  0  0  0  0
  140.2970   76.9840  222.6060 C   0  0  0  0  0  0  0  0  0  0  0  0
  140.4880   75.8110  221.9100 C   0  0  0  0  0  0  0  0  0  0  0  0
  139.8580   74.6680  222.2430 N   0  0  0  0  0  0  0  0  0  0  0  0
  140.4860   70.1950  226.1690 C   0  0  0  0  0  0  0  0  0  0  0  0
  139.8560   69.8930  227.3610 C   0  0  0  0  0  0  0  0  0  0  0  0
  139.9980   70.7910  228.3890 C   0  0  0  0  0  0  0  0  0  0  0  0
  140.7370   71.9650  228.2710 C   0  0  0  0  0  0  0  0  0  0  0  0
  141.3650   72.2620  227.0770 C   0  0  0  0  0  0  0  0  0  0  0  0
  141.2240   71.3660  226.0470 C   0  0  0  0  0  0  0  0  0  0  0  0
  139.5293   67.9213  226.5123 H   0  0  0  0  0  0  0  0  0  0  0  0
  138.5654   68.0703  225.0038 H   0  0  0  0  0  0  0  0  0  0  0  0
  140.0931   67.1253  225.0038 H   0  0  0  0  0  0  0  0  0  0  0  0
  141.3689   68.9508  224.7491 H   0  0  0  0  0  0  0  0  0  0  0  0
  140.1570   70.1390  223.0820 H   0  0  0  0  0  0  0  0  0  0  0  0
  137.7266   70.3205  222.0953 H   0  0  0  0  0  0  0  0  0  0  0  0
  136.5612   71.1003  223.2486 H   0  0  0  0  0  0  0  0  0  0  0  0
  137.7990   73.1420  223.1010 H   0  0  0  0  0  0  0  0  0  0  0  0
  141.0660   72.6100  219.9464 H   0  0  0  0  0  0  0  0  0  0  0  0
  142.2686   74.6569  219.2566 H   0  0  0  0  0  0  0  0  0  0  0  0
  142.7101   76.9810  219.6184 H   0  0  0  0  0  0  0  0  0  0  0  0
  142.3402   79.0677  220.8950 H   0  0  0  0  0  0  0  0  0  0  0  0
  139.6077   76.9904  223.4632 H   0  0  0  0  0  0  0  0  0  0  0  0
  139.2660   68.9724  227.4809 H   0  0  0  0  0  0  0  0  0  0  0  0
  139.5062   70.5736  229.3486 H   0  0  0  0  0  0  0  0  0  0  0  0
  140.8205   72.6532  229.1250 H   0  0  0  0  0  0  0  0  0  0  0  0
  141.9558   73.1820  226.9563 H   0  0  0  0  0  0  0  0  0  0  0  0
  141.7147   71.5835  225.0868 H   0  0  0  0  0  0  0  0  0  0  0  0
  1  2  1  0
  2  3  1  0
  3  4  1  0
  4  5  2  0
  4  6  1  0
  6  7  1  0
  7  8  1  0
  8  9  2  0
  8 10  1  0
 10 11  2  0
 11 12  1  0
 12 13  2  0
 13 14  1  0
 14 15  2  0
 15 16  1  0
 16 17  1  0
 16 18  2  0
 18 19  1  0
 19 20  2  0
  2 21  1  0
 21 22  2  0
 22 23  1  0
 23 24  2  0
 24 25  1  0
 25 26  2  0
 20 10  1  0
 26 21  1  0
 19 13  1  0
  1 27  1  0
  1 28  1  0
  1 29  1  0
  2 30  1  6
  3 31  1  0
  6 32  1  0
  6 33  1  0
  7 34  1  0
 11 35  1  0
 12 36  1  0
 14 37  1  0
 15 38  1  0
 18 39  1  0
 22 40  1  0
 23 41  1  0
 24 42  1  0
 25 43  1  0
 26 44  1  0
M  END
>  <smiles>  (18) 
C[C@@H](NC(=O)CNC(=O)c1ccc2ccc(F)cc2n1)c1ccccc1

>  <score_type>  (18) 
oracle

>  <origin>  (18) 
autodockgpu

>  <m_score__min__energy>  (18) 
-8.6699999999999999

>  <m_primary>  (18) 
energy

>  <rmsd>  (18) 
9.788202399962852

>  <m_score__min__rmsd>  (18) 
9.788202399962852

>  <meeko>  (18) 
{"free_energy": -7.71, "intermolecular_energy": -9.2, "internal_energy": -1.94, "cluster_size": 23, "cluster_id": 3, "rank_in_cluster": 12}

>  <energy>  (18) 
-7.68

>  <cluster_rmsd>  (18) 
0.27

>  <cluster>  (18) 
2

$$$$

     RDKit          3D

 44 46  0  0  0  0  0  0  0  0999 V2000
  139.5790   67.7680  225.7610 C   0  0  0  0  0  0  0  0  0  0  0  0
  140.3580   69.0090  225.3770 C   0  0  1  0  0  0  0  0  0  0  0  0
  139.7340   69.5840  224.2080 N   0  0  0  0  0  0  0  0  0  0  0  0
  138.3710   69.9910  224.2500 C   0  0  0  0  0  0  0  0  0  0  0  0
  137.7100   69.8470  225.3140 O   0  0  0  0  0  0  0  0  0  0  0  0
  137.8040   70.5730  223.0090 C   0  0  0  0  0  0  0  0  0  0  0  0
  138.2780   71.9210  222.7750 N   0  0  0  0  0  0  0  0  0  0  0  0
  139.5050   72.0610  222.0650 C   0  0  0  0  0  0  0  0  0  0  0  0
  140.0710   70.9970  221.7030 O   0  0  0  0  0  0  0  0  0  0  0  0
  140.0670   73.3770  221.7800 C   0  0  0  0  0  0  0  0  0  0  0  0
  141.1400   73.4440  220.9080 C   0  0  0  0  0  0  0  0  0  0  0  0
  141.7430   74.6320  220.5720 C   0  0  0  0  0  0  0  0  0  0  0  0
  141.2440   75.7870  221.1360 C   0  0  0  0  0  0  0  0  0  0  0  0
  141.8170   76.9960  220.8280 C   0  0  0  0  0  0  0  0  0  0  0  0
  141.3290   78.1560  221.3850 C   0  0  0  0  0  0  0  0  0  0  0  0
  140.2590   78.1060  222.2560 C   0  0  0  0  0  0  0  0  0  0  0  0
  139.7840   79.2590  222.8000 F   0  0  0  0  0  0  0  0  0  0  0  0
  139.6940   76.8800  222.5570 C   0  0  0  0  0  0  0  0  0  0  0  0
  140.1670   75.7080  222.0100 C   0  0  0  0  0  0  0  0  0  0  0  0
  139.6210   74.5110  222.2980 N   0  0  0  0  0  0  0  0  0  0  0  0
  140.3710   70.0210  226.4410 C   0  0  0  0  0  0  0  0  0  0  0  0
  141.1100   71.1730  226.2500 C   0  0  0  0  0  0  0  0  0  0  0  0
  141.1010   72.0980  227.2630 C   0  0  0  0  0  0  0  0  0  0  0  0
  140.3890   71.9170  228.4470 C   0  0  0  0  0  0  0  0  0  0  0  0
  139.6510   70.7640  228.6320 C   0  0  0  0  0  0  0  0  0  0  0  0
  139.6590   69.8370  227.6200 C   0  0  0  0  0  0  0  0  0  0  0  0
  139.5302   67.6903  226.8572 H   0  0  0  0  0  0  0  0  0  0  0  0
  138.5598   67.8338  225.3524 H   0  0  0  0  0  0  0  0  0  0  0  0
  140.0812   66.8787  225.3524 H   0  0  0  0  0  0  0  0  0  0  0  0
  141.4001   68.7112  225.1893 H   0  0  0  0  0  0  0  0  0  0  0  0
  140.3000   69.6980  223.3280 H   0  0  0  0  0  0  0  0  0  0  0  0
  138.0941   69.9417  222.1562 H   0  0  0  0  0  0  0  0  0  0  0  0
  136.7105   70.6126  223.1217 H   0  0  0  0  0  0  0  0  0  0  0  0
  137.7570   72.7720  223.1060 H   0  0  0  0  0  0  0  0  0  0  0  0
  141.5240   72.5119  220.4679 H   0  0  0  0  0  0  0  0  0  0  0  0
  142.5949   74.6607  219.8767 H   0  0  0  0  0  0  0  0  0  0  0  0
  142.6691   77.0376  220.1336 H   0  0  0  0  0  0  0  0  0  0  0  0
  141.7913   79.1227  221.1363 H   0  0  0  0  0  0  0  0  0  0  0  0
  138.8430   76.8399  223.2528 H   0  0  0  0  0  0  0  0  0  0  0  0
  141.6812   71.3411  225.3251 H   0  0  0  0  0  0  0  0  0  0  0  0
  141.6815   73.0235  227.1349 H   0  0  0  0  0  0  0  0  0  0  0  0
  140.4145   72.6885  229.2306 H   0  0  0  0  0  0  0  0  0  0  0  0
  139.0783   70.5952  229.5559 H   0  0  0  0  0  0  0  0  0  0  0  0
  139.0786   68.9113  227.7473 H   0  0  0  0  0  0  0  0  0  0  0  0
  1  2  1  0
  2  3  1  0
  3  4  1  0
  4  5  2  0
  4  6  1  0
  6  7  1  0
  7  8  1  0
  8  9  2  0
  8 10  1  0
 10 11  2  0
 11 12  1  0
 12 13  2  0
 13 14  1  0
 14 15  2  0
 15 16  1  0
 16 17  1  0
 16 18  2  0
 18 19  1  0
 19 20  2  0
  2 21  1  0
 21 22  2  0
 22 23  1  0
 23 24  2  0
 24 25  1  0
 25 26  2  0
 20 10  1  0
 26 21  1  0
 19 13  1  0
  1 27  1  0
  1 28  1  0
  1 29  1  0
  2 30  1  6
  3 31  1  0
  6 32  1  0
  6 33  1  0
  7 34  1  0
 11 35  1  0
 12 36  1  0
 14 37  1  0
 15 38  1  0
 18 39  1  0
 22 40  1  0
 23 41  1  0
 24 42  1  0
 25 43  1  0
 26 44  1  0
M  END
>  <smiles>  (19) 
C[C@@H](NC(=O)CNC(=O)c1ccc2ccc(F)cc2n1)c1ccccc1

>  <score_type>  (19) 
oracle

>  <origin>  (19) 
autodockgpu

>  <m_score__min__energy>  (19) 
-8.6699999999999999

>  <m_primary>  (19) 
energy

>  <rmsd>  (19) 
10.070677299551507

>  <m_score__min__rmsd>  (19) 
10.070677299551507

>  <meeko>  (19) 
{"free_energy": -7.72, "intermolecular_energy": -9.21, "internal_energy": -1.98, "cluster_size": 23, "cluster_id": 3, "rank_in_cluster": 7}

>  <energy>  (19) 
-7.67

>  <cluster_rmsd>  (19) 
0.19

>  <cluster>  (19) 
2

$$$$

     RDKit          3D

 44 46  0  0  0  0  0  0  0  0999 V2000
  139.3780   68.0630  225.3710 C   0  0  0  0  0  0  0  0  0  0  0  0
  139.8450   69.4430  224.9590 C   0  0  1  0  0  0  0  0  0  0  0  0
  138.7750   70.0780  224.2260 N   0  0  0  0  0  0  0  0  0  0  0  0
  139.0680   71.0530  223.2320 C   0  0  0  0  0  0  0  0  0  0  0  0
  140.2670   71.3610  222.9950 O   0  0  0  0  0  0  0  0  0  0  0  0
  137.9140   71.6580  222.5220 C   0  0  0  0  0  0  0  0  0  0  0  0
  136.9370   72.2050  223.4410 N   0  0  0  0  0  0  0  0  0  0  0  0
  135.9650   71.3050  223.9620 C   0  0  0  0  0  0  0  0  0  0  0  0
  136.0400   70.1090  223.5770 O   0  0  0  0  0  0  0  0  0  0  0  0
  134.9370   71.7580  224.8940 C   0  0  0  0  0  0  0  0  0  0  0  0
  134.1810   70.7940  225.5380 C   0  0  0  0  0  0  0  0  0  0  0  0
  133.1900   71.1140  226.4340 C   0  0  0  0  0  0  0  0  0  0  0  0
  132.9570   72.4500  226.6850 C   0  0  0  0  0  0  0  0  0  0  0  0
  131.9750   72.8130  227.5740 C   0  0  0  0  0  0  0  0  0  0  0  0
  131.7340   74.1440  227.8320 C   0  0  0  0  0  0  0  0  0  0  0  0
  132.4800   75.1170  227.1990 C   0  0  0  0  0  0  0  0  0  0  0  0
  132.2330   76.4280  227.4630 F   0  0  0  0  0  0  0  0  0  0  0  0
  133.4650   74.7340  226.3060 C   0  0  0  0  0  0  0  0  0  0  0  0
  133.7230   73.4080  226.0330 C   0  0  0  0  0  0  0  0  0  0  0  0
  134.6810   73.0280  225.1650 N   0  0  0  0  0  0  0  0  0  0  0  0
  140.1870   70.2910  226.1090 C   0  0  0  0  0  0  0  0  0  0  0  0
  139.6370   69.9890  227.3400 C   0  0  0  0  0  0  0  0  0  0  0  0
  139.9760   70.8010  228.3930 C   0  0  0  0  0  0  0  0  0  0  0  0
  140.8340   71.8910  228.2630 C   0  0  0  0  0  0  0  0  0  0  0  0
  141.3800   72.1880  227.0290 C   0  0  0  0  0  0  0  0  0  0  0  0
  141.0420   71.3770  225.9750 C   0  0  0  0  0  0  0  0  0  0  0  0
  139.3554   67.9961  226.4687 H   0  0  0  0  0  0  0  0  0  0  0  0
  138.3689   67.8830  224.9718 H   0  0  0  0  0  0  0  0  0  0  0  0
  140.0704   67.3072  224.9718 H   0  0  0  0  0  0  0  0  0  0  0  0
  140.7536   69.3257  224.3501 H   0  0  0  0  0  0  0  0  0  0  0  0
  137.7790   69.8090  224.4360 H   0  0  0  0  0  0  0  0  0  0  0  0
  138.2810   72.4658  221.8718 H   0  0  0  0  0  0  0  0  0  0  0  0
  137.4233   70.8670  221.9359 H   0  0  0  0  0  0  0  0  0  0  0  0
  136.9280   73.2180  223.7230 H   0  0  0  0  0  0  0  0  0  0  0  0
  134.3808   69.7335  225.3247 H   0  0  0  0  0  0  0  0  0  0  0  0
  132.6019   70.3307  226.9346 H   0  0  0  0  0  0  0  0  0  0  0  0
  131.3799   72.0391  228.0809 H   0  0  0  0  0  0  0  0  0  0  0  0
  130.9460   74.4318  228.5434 H   0  0  0  0  0  0  0  0  0  0  0  0
  134.0587   75.5095  225.7998 H   0  0  0  0  0  0  0  0  0  0  0  0
  138.9567   69.1345  227.4703 H   0  0  0  0  0  0  0  0  0  0  0  0
  139.5515   70.5816  229.3838 H   0  0  0  0  0  0  0  0  0  0  0  0
  141.0755   72.5119  229.1383 H   0  0  0  0  0  0  0  0  0  0  0  0
  142.0600   73.0424  226.8965 H   0  0  0  0  0  0  0  0  0  0  0  0
  141.4655   71.5960  224.9837 H   0  0  0  0  0  0  0  0  0  0  0  0
  1  2  1  0
  2  3  1  0
  3  4  1  0
  4  5  2  0
  4  6  1  0
  6  7  1  0
  7  8  1  0
  8  9  2  0
  8 10  1  0
 10 11  2  0
 11 12  1  0
 12 13  2  0
 13 14  1  0
 14 15  2  0
 15 16  1  0
 16 17  1  0
 16 18  2  0
 18 19  1  0
 19 20  2  0
  2 21  1  0
 21 22  2  0
 22 23  1  0
 23 24  2  0
 24 25  1  0
 25 26  2  0
 20 10  1  0
 26 21  1  0
 19 13  1  0
  1 27  1  0
  1 28  1  0
  1 29  1  0
  2 30  1  6
  3 31  1  0
  6 32  1  0
  6 33  1  0
  7 34  1  0
 11 35  1  0
 12 36  1  0
 14 37  1  0
 15 38  1  0
 18 39  1  0
 22 40  1  0
 23 41  1  0
 24 42  1  0
 25 43  1  0
 26 44  1  0
M  END
>  <smiles>  (20) 
C[C@@H](NC(=O)CNC(=O)c1ccc2ccc(F)cc2n1)c1ccccc1

>  <score_type>  (20) 
oracle

>  <origin>  (20) 
autodockgpu

>  <m_score__min__energy>  (20) 
-8.6699999999999999

>  <m_primary>  (20) 
energy

>  <rmsd>  (20) 
9.817642643596331

>  <m_score__min__rmsd>  (20) 
9.817642643596331

>  <meeko>  (20) 
{"free_energy": -7.65, "intermolecular_energy": -9.15, "internal_energy": -2.0, "cluster_size": 16, "cluster_id": 2, "rank_in_cluster": 9}

>  <energy>  (20) 
-7.65

>  <cluster_rmsd>  (20) 
0.46

>  <cluster>  (20) 
2

$$$$

     RDKit          3D

 44 46  0  0  0  0  0  0  0  0999 V2000
  139.5410   67.7290  225.7310 C   0  0  0  0  0  0  0  0  0  0  0  0
  140.3310   68.9650  225.3550 C   0  0  1  0  0  0  0  0  0  0  0  0
  139.7220   69.5450  224.1810 N   0  0  0  0  0  0  0  0  0  0  0  0
  138.3690   69.9840  224.2170 C   0  0  0  0  0  0  0  0  0  0  0  0
  137.7040   69.8630  225.2810 O   0  0  0  0  0  0  0  0  0  0  0  0
  137.8170   70.5690  222.9710 C   0  0  0  0  0  0  0  0  0  0  0  0
  138.2900   71.9200  222.7490 N   0  0  0  0  0  0  0  0  0  0  0  0
  139.5140   72.0670  222.0380 C   0  0  0  0  0  0  0  0  0  0  0  0
  140.0800   71.0080  221.6630 O   0  0  0  0  0  0  0  0  0  0  0  0
  140.0750   73.3870  221.7630 C   0  0  0  0  0  0  0  0  0  0  0  0
  141.1370   73.4640  220.8790 C   0  0  0  0  0  0  0  0  0  0  0  0
  141.7360   74.6570  220.5520 C   0  0  0  0  0  0  0  0  0  0  0  0
  141.2470   75.8040  221.1390 C   0  0  0  0  0  0  0  0  0  0  0  0
  141.8170   77.0170  220.8400 C   0  0  0  0  0  0  0  0  0  0  0  0
  141.3370   78.1690  221.4200 C   0  0  0  0  0  0  0  0  0  0  0  0
  140.2790   78.1080  222.3040 C   0  0  0  0  0  0  0  0  0  0  0  0
  139.8120   79.2540  222.8700 F   0  0  0  0  0  0  0  0  0  0  0  0
  139.7150   76.8790  222.5940 C   0  0  0  0  0  0  0  0  0  0  0  0
  140.1800   75.7130  222.0250 C   0  0  0  0  0  0  0  0  0  0  0  0
  139.6360   74.5130  222.3030 N   0  0  0  0  0  0  0  0  0  0  0  0
  140.3410   69.9770  226.4200 C   0  0  0  0  0  0  0  0  0  0  0  0
  139.6170   69.7320  227.5720 C   0  0  0  0  0  0  0  0  0  0  0  0
  139.6470   70.6960  228.5470 C   0  0  0  0  0  0  0  0  0  0  0  0
  140.3650   71.8830  228.4160 C   0  0  0  0  0  0  0  0  0  0  0  0
  141.0870   72.1220  227.2630 C   0  0  0  0  0  0  0  0  0  0  0  0
  141.0580   71.1590  226.2860 C   0  0  0  0  0  0  0  0  0  0  0  0
  139.4884   67.6467  226.8267 H   0  0  0  0  0  0  0  0  0  0  0  0
  138.5236   67.8049  225.3197 H   0  0  0  0  0  0  0  0  0  0  0  0
  140.0371   66.8375  225.3197 H   0  0  0  0  0  0  0  0  0  0  0  0
  141.3727   68.6600  225.1767 H   0  0  0  0  0  0  0  0  0  0  0  0
  140.2930   69.6390  223.3000 H   0  0  0  0  0  0  0  0  0  0  0  0
  138.1207   69.9422  222.1196 H   0  0  0  0  0  0  0  0  0  0  0  0
  136.7219   70.6045  223.0688 H   0  0  0  0  0  0  0  0  0  0  0  0
  137.7690   72.7670  223.0900 H   0  0  0  0  0  0  0  0  0  0  0  0
  141.5151   72.5376  220.4219 H   0  0  0  0  0  0  0  0  0  0  0  0
  142.5779   74.6951  219.8451 H   0  0  0  0  0  0  0  0  0  0  0  0
  142.6597   77.0680  220.1348 H   0  0  0  0  0  0  0  0  0  0  0  0
  141.7968   79.1388  221.1789 H   0  0  0  0  0  0  0  0  0  0  0  0
  138.8716   76.8307  223.2985 H   0  0  0  0  0  0  0  0  0  0  0  0
  139.0415   68.8035  227.7011 H   0  0  0  0  0  0  0  0  0  0  0  0
  139.0792   70.5246  229.4734 H   0  0  0  0  0  0  0  0  0  0  0  0
  140.3569   72.6262  229.2270 H   0  0  0  0  0  0  0  0  0  0  0  0
  141.6637   73.0496  227.1329 H   0  0  0  0  0  0  0  0  0  0  0  0
  141.6254   71.3300  225.3593 H   0  0  0  0  0  0  0  0  0  0  0  0
  1  2  1  0
  2  3  1  0
  3  4  1  0
  4  5  2  0
  4  6  1  0
  6  7  1  0
  7  8  1  0
  8  9  2  0
  8 10  1  0
 10 11  2  0
 11 12  1  0
 12 13  2  0
 13 14  1  0
 14 15  2  0
 15 16  1  0
 16 17  1  0
 16 18  2  0
 18 19  1  0
 19 20  2  0
  2 21  1  0
 21 22  2  0
 22 23  1  0
 23 24  2  0
 24 25  1  0
 25 26  2  0
 20 10  1  0
 26 21  1  0
 19 13  1  0
  1 27  1  0
  1 28  1  0
  1 29  1  0
  2 30  1  6
  3 31  1  0
  6 32  1  0
  6 33  1  0
  7 34  1  0
 11 35  1  0
 12 36  1  0
 14 37  1  0
 15 38  1  0
 18 39  1  0
 22 40  1  0
 23 41  1  0
 24 42  1  0
 25 43  1  0
 26 44  1  0
M  END
>  <smiles>  (21) 
C[C@@H](NC(=O)CNC(=O)c1ccc2ccc(F)cc2n1)c1ccccc1

>  <score_type>  (21) 
oracle

>  <origin>  (21) 
autodockgpu

>  <m_score__min__energy>  (21) 
-8.6699999999999999

>  <m_primary>  (21) 
energy

>  <rmsd>  (21) 
9.895903732419729

>  <m_score__min__rmsd>  (21) 
9.895903732419729

>  <meeko>  (21) 
{"free_energy": -7.77, "intermolecular_energy": -9.26, "internal_energy": -1.96, "cluster_size": 23, "cluster_id": 3, "rank_in_cluster": 3}

>  <energy>  (21) 
-7.65

>  <cluster_rmsd>  (21) 
0.22

>  <cluster>  (21) 
2

$$$$

     RDKit          3D

 44 46  0  0  0  0  0  0  0  0999 V2000
  139.4450   68.0900  225.3010 C   0  0  0  0  0  0  0  0  0  0  0  0
  139.9050   69.4780  224.9050 C   0  0  1  0  0  0  0  0  0  0  0  0
  138.8250   70.1210  224.1930 N   0  0  0  0  0  0  0  0  0  0  0  0
  139.1040   71.1020  223.2020 C   0  0  0  0  0  0  0  0  0  0  0  0
  140.3010   71.4080  222.9480 O   0  0  0  0  0  0  0  0  0  0  0  0
  137.9410   71.7160  222.5150 C   0  0  0  0  0  0  0  0  0  0  0  0
  136.9500   72.2010  223.4530 N   0  0  0  0  0  0  0  0  0  0  0  0
  135.9860   71.2620  223.9180 C   0  0  0  0  0  0  0  0  0  0  0  0
  136.0800   70.0890  223.4720 O   0  0  0  0  0  0  0  0  0  0  0  0
  134.9460   71.6520  224.8640 C   0  0  0  0  0  0  0  0  0  0  0  0
  134.2180   70.6440  225.4740 C   0  0  0  0  0  0  0  0  0  0  0  0
  133.2180   70.9040  226.3790 C   0  0  0  0  0  0  0  0  0  0  0  0
  132.9460   72.2220  226.6760 C   0  0  0  0  0  0  0  0  0  0  0  0
  131.9530   72.5260  227.5750 C   0  0  0  0  0  0  0  0  0  0  0  0
  131.6720   73.8390  227.8790 C   0  0  0  0  0  0  0  0  0  0  0  0
  132.3890   74.8550  227.2800 C   0  0  0  0  0  0  0  0  0  0  0  0
  132.1030   76.1480  227.5890 F   0  0  0  0  0  0  0  0  0  0  0  0
  133.3850   74.5320  226.3760 C   0  0  0  0  0  0  0  0  0  0  0  0
  133.6830   73.2250  226.0580 C   0  0  0  0  0  0  0  0  0  0  0  0
  134.6510   72.9040  225.1790 N   0  0  0  0  0  0  0  0  0  0  0  0
  140.2570   70.3100  226.0640 C   0  0  0  0  0  0  0  0  0  0  0  0
  139.7330   69.9800  227.2990 C   0  0  0  0  0  0  0  0  0  0  0  0
  140.0810   70.7760  228.3600 C   0  0  0  0  0  0  0  0  0  0  0  0
  140.9240   71.8780  228.2340 C   0  0  0  0  0  0  0  0  0  0  0  0
  141.4450   72.2030  226.9970 C   0  0  0  0  0  0  0  0  0  0  0  0
  141.0980   71.4080  225.9340 C   0  0  0  0  0  0  0  0  0  0  0  0
  139.4190   68.0114  226.3979 H   0  0  0  0  0  0  0  0  0  0  0  0
  138.4385   67.9079  224.8963 H   0  0  0  0  0  0  0  0  0  0  0  0
  140.1436   67.3428  224.8963 H   0  0  0  0  0  0  0  0  0  0  0  0
  140.8077   69.3723  224.2853 H   0  0  0  0  0  0  0  0  0  0  0  0
  137.8320   69.8530  224.4170 H   0  0  0  0  0  0  0  0  0  0  0  0
  138.2944   72.5597  221.9041 H   0  0  0  0  0  0  0  0  0  0  0  0
  137.4683   70.9431  221.8912 H   0  0  0  0  0  0  0  0  0  0  0  0
  136.9250   73.1970  223.7880 H   0  0  0  0  0  0  0  0  0  0  0  0
  134.4489   69.5978  225.2248 H   0  0  0  0  0  0  0  0  0  0  0  0
  132.6528   70.0870  226.8512 H   0  0  0  0  0  0  0  0  0  0  0  0
  131.3805   71.7178  228.0536 H   0  0  0  0  0  0  0  0  0  0  0  0
  130.8759   74.0784  228.5994 H   0  0  0  0  0  0  0  0  0  0  0  0
  133.9553   75.3417  225.8974 H   0  0  0  0  0  0  0  0  0  0  0  0
  139.0649   69.1154  227.4258 H   0  0  0  0  0  0  0  0  0  0  0  0
  139.6769   70.5338  229.3540 H   0  0  0  0  0  0  0  0  0  0  0  0
  141.1735   72.4865  229.1158 H   0  0  0  0  0  0  0  0  0  0  0  0
  142.1134   73.0672  226.8687 H   0  0  0  0  0  0  0  0  0  0  0  0
  141.5016   71.6496  224.9397 H   0  0  0  0  0  0  0  0  0  0  0  0
  1  2  1  0
  2  3  1  0
  3  4  1  0
  4  5  2  0
  4  6  1  0
  6  7  1  0
  7  8  1  0
  8  9  2  0
  8 10  1  0
 10 11  2  0
 11 12  1  0
 12 13  2  0
 13 14  1  0
 14 15  2  0
 15 16  1  0
 16 17  1  0
 16 18  2  0
 18 19  1  0
 19 20  2  0
  2 21  1  0
 21 22  2  0
 22 23  1  0
 23 24  2  0
 24 25  1  0
 25 26  2  0
 20 10  1  0
 26 21  1  0
 19 13  1  0
  1 27  1  0
  1 28  1  0
  1 29  1  0
  2 30  1  6
  3 31  1  0
  6 32  1  0
  6 33  1  0
  7 34  1  0
 11 35  1  0
 12 36  1  0
 14 37  1  0
 15 38  1  0
 18 39  1  0
 22 40  1  0
 23 41  1  0
 24 42  1  0
 25 43  1  0
 26 44  1  0
M  END
>  <smiles>  (22) 
C[C@@H](NC(=O)CNC(=O)c1ccc2ccc(F)cc2n1)c1ccccc1

>  <score_type>  (22) 
oracle

>  <origin>  (22) 
autodockgpu

>  <m_score__min__energy>  (22) 
-8.6699999999999999

>  <m_primary>  (22) 
energy

>  <rmsd>  (22) 
9.781704149270896

>  <m_score__min__rmsd>  (22) 
9.781704149270896

>  <meeko>  (22) 
{"free_energy": -7.64, "intermolecular_energy": -9.13, "internal_energy": -1.99, "cluster_size": 16, "cluster_id": 2, "rank_in_cluster": 11}

>  <energy>  (22) 
-7.64

>  <cluster_rmsd>  (22) 
0.55

>  <cluster>  (22) 
2

$$$$

     RDKit          3D

 44 46  0  0  0  0  0  0  0  0999 V2000
  139.2130   68.8310  224.5820 C   0  0  0  0  0  0  0  0  0  0  0  0
  139.9470   70.1530  224.5190 C   0  0  1  0  0  0  0  0  0  0  0  0
  139.1020   71.1030  223.8340 N   0  0  0  0  0  0  0  0  0  0  0  0
  139.6680   72.0480  222.9340 C   0  0  0  0  0  0  0  0  0  0  0  0
  140.9130   72.0530  222.7380 O   0  0  0  0  0  0  0  0  0  0  0  0
  138.7330   72.9890  222.2690 C   0  0  0  0  0  0  0  0  0  0  0  0
  139.1930   74.3600  222.3490 N   0  0  0  0  0  0  0  0  0  0  0  0
  140.1070   74.7940  221.3470 C   0  0  0  0  0  0  0  0  0  0  0  0
  140.4360   73.9460  220.4780 O   0  0  0  0  0  0  0  0  0  0  0  0
  140.6300   76.1570  221.3410 C   0  0  0  0  0  0  0  0  0  0  0  0
  140.8400   76.7600  220.1130 C   0  0  0  0  0  0  0  0  0  0  0  0
  141.3280   78.0390  219.9960 C   0  0  0  0  0  0  0  0  0  0  0  0
  141.6130   78.7270  221.1560 C   0  0  0  0  0  0  0  0  0  0  0  0
  142.1030   80.0080  221.0840 C   0  0  0  0  0  0  0  0  0  0  0  0
  142.3910   80.7050  222.2360 C   0  0  0  0  0  0  0  0  0  0  0  0
  142.1870   80.1160  223.4680 C   0  0  0  0  0  0  0  0  0  0  0  0
  142.4740   80.8150  224.5990 F   0  0  0  0  0  0  0  0  0  0  0  0
  141.6930   78.8260  223.5230 C   0  0  0  0  0  0  0  0  0  0  0  0
  141.3980   78.1110  222.3830 C   0  0  0  0  0  0  0  0  0  0  0  0
  140.9160   76.8540  222.4290 N   0  0  0  0  0  0  0  0  0  0  0  0
  140.2630   70.6890  225.8500 C   0  0  0  0  0  0  0  0  0  0  0  0
  141.0610   71.8130  225.9380 C   0  0  0  0  0  0  0  0  0  0  0  0
  141.3370   72.2880  227.1960 C   0  0  0  0  0  0  0  0  0  0  0  0
  140.8500   71.6880  228.3550 C   0  0  0  0  0  0  0  0  0  0  0  0
  140.0520   70.5640  228.2600 C   0  0  0  0  0  0  0  0  0  0  0  0
  139.7760   70.0880  227.0030 C   0  0  0  0  0  0  0  0  0  0  0  0
  139.0561   68.5485  225.6335 H   0  0  0  0  0  0  0  0  0  0  0  0
  138.2395   68.9278  224.0792 H   0  0  0  0  0  0  0  0  0  0  0  0
  139.8099   68.0559  224.0792 H   0  0  0  0  0  0  0  0  0  0  0  0
  140.8984   69.9871  223.9924 H   0  0  0  0  0  0  0  0  0  0  0  0
  138.0640   71.0840  224.0080 H   0  0  0  0  0  0  0  0  0  0  0  0
  138.6395   72.7072  221.2098 H   0  0  0  0  0  0  0  0  0  0  0  0
  137.7637   72.9257  222.7853 H   0  0  0  0  0  0  0  0  0  0  0  0
  138.8810   75.0200  223.1050 H   0  0  0  0  0  0  0  0  0  0  0  0
  140.6079   76.1951  219.1981 H   0  0  0  0  0  0  0  0  0  0  0  0
  141.4861   78.4988  219.0093 H   0  0  0  0  0  0  0  0  0  0  0  0
  142.2658   80.4785  220.1031 H   0  0  0  0  0  0  0  0  0  0  0  0
  142.7835   81.7308  222.1748 H   0  0  0  0  0  0  0  0  0  0  0  0
  141.5309   78.3572  224.5048 H   0  0  0  0  0  0  0  0  0  0  0  0
  141.4583   72.3063  225.0386 H   0  0  0  0  0  0  0  0  0  0  0  0
  141.9707   73.1819  227.2931 H   0  0  0  0  0  0  0  0  0  0  0  0
  141.0995   72.1070  229.3410 H   0  0  0  0  0  0  0  0  0  0  0  0
  139.6531   70.0695  229.1580 H   0  0  0  0  0  0  0  0  0  0  0  0
  139.1431   69.1937  226.9048 H   0  0  0  0  0  0  0  0  0  0  0  0
  1  2  1  0
  2  3  1  0
  3  4  1  0
  4  5  2  0
  4  6  1  0
  6  7  1  0
  7  8  1  0
  8  9  2  0
  8 10  1  0
 10 11  2  0
 11 12  1  0
 12 13  2  0
 13 14  1  0
 14 15  2  0
 15 16  1  0
 16 17  1  0
 16 18  2  0
 18 19  1  0
 19 20  2  0
  2 21  1  0
 21 22  2  0
 22 23  1  0
 23 24  2  0
 24 25  1  0
 25 26  2  0
 20 10  1  0
 26 21  1  0
 19 13  1  0
  1 27  1  0
  1 28  1  0
  1 29  1  0
  2 30  1  6
  3 31  1  0
  6 32  1  0
  6 33  1  0
  7 34  1  0
 11 35  1  0
 12 36  1  0
 14 37  1  0
 15 38  1  0
 18 39  1  0
 22 40  1  0
 23 41  1  0
 24 42  1  0
 25 43  1  0
 26 44  1  0
M  END
>  <smiles>  (23) 
C[C@@H](NC(=O)CNC(=O)c1ccc2ccc(F)cc2n1)c1ccccc1

>  <score_type>  (23) 
oracle

>  <origin>  (23) 
autodockgpu

>  <m_score__min__energy>  (23) 
-8.6699999999999999

>  <m_primary>  (23) 
energy

>  <rmsd>  (23) 
10.193878558877868

>  <m_score__min__rmsd>  (23) 
10.193878558877868

>  <meeko>  (23) 
{"free_energy": -8.38, "intermolecular_energy": -9.87, "internal_energy": -1.05, "cluster_size": 11, "cluster_id": 1, "rank_in_cluster": 10}

>  <energy>  (23) 
-7.59

>  <cluster_rmsd>  (23) 
1.04

>  <cluster>  (23) 
2

$$$$

     RDKit          3D

 44 46  0  0  0  0  0  0  0  0999 V2000
  139.1580   69.2640  224.0300 C   0  0  0  0  0  0  0  0  0  0  0  0
  140.0060   70.5000  224.2460 C   0  0  1  0  0  0  0  0  0  0  0  0
  139.3190   71.6230  223.6530 N   0  0  0  0  0  0  0  0  0  0  0  0
  139.8780   72.2940  222.5290 C   0  0  0  0  0  0  0  0  0  0  0  0
  140.9780   71.9010  222.0550 O   0  0  0  0  0  0  0  0  0  0  0  0
  139.1120   73.4380  221.9770 C   0  0  0  0  0  0  0  0  0  0  0  0
  139.7250   74.7090  222.3010 N   0  0  0  0  0  0  0  0  0  0  0  0
  138.8670   75.8430  222.3620 C   0  0  0  0  0  0  0  0  0  0  0  0
  137.6470   75.6410  222.1290 O   0  0  0  0  0  0  0  0  0  0  0  0
  139.3880   77.1690  222.6800 C   0  0  0  0  0  0  0  0  0  0  0  0
  138.4730   78.1760  222.9380 C   0  0  0  0  0  0  0  0  0  0  0  0
  138.8580   79.4580  223.2470 C   0  0  0  0  0  0  0  0  0  0  0  0
  140.2090   79.7290  223.2960 C   0  0  0  0  0  0  0  0  0  0  0  0
  140.6370   80.9980  223.6020 C   0  0  0  0  0  0  0  0  0  0  0  0
  141.9830   81.2800  223.6540 C   0  0  0  0  0  0  0  0  0  0  0  0
  142.9070   80.2870  223.4000 C   0  0  0  0  0  0  0  0  0  0  0  0
  144.2350   80.5780  223.4560 F   0  0  0  0  0  0  0  0  0  0  0  0
  142.4600   79.0150  223.0940 C   0  0  0  0  0  0  0  0  0  0  0  0
  141.1180   78.7100  223.0360 C   0  0  0  0  0  0  0  0  0  0  0  0
  140.6750   77.4740  222.7390 N   0  0  0  0  0  0  0  0  0  0  0  0
  140.2290   70.7910  225.6680 C   0  0  0  0  0  0  0  0  0  0  0  0
  141.0020   71.8860  226.0060 C   0  0  0  0  0  0  0  0  0  0  0  0
  141.1910   72.1300  227.3430 C   0  0  0  0  0  0  0  0  0  0  0  0
  140.6440   71.3310  228.3430 C   0  0  0  0  0  0  0  0  0  0  0  0
  139.8720   70.2370  228.0000 C   0  0  0  0  0  0  0  0  0  0  0  0
  139.6810   69.9910  226.6630 C   0  0  0  0  0  0  0  0  0  0  0  0
  138.8690   68.8428  225.0042 H   0  0  0  0  0  0  0  0  0  0  0  0
  138.2539   69.5338  223.4645 H   0  0  0  0  0  0  0  0  0  0  0  0
  139.7351   68.5176  223.4645 H   0  0  0  0  0  0  0  0  0  0  0  0
  140.9886   70.3224  223.7846 H   0  0  0  0  0  0  0  0  0  0  0  0
  138.4010   71.9380  224.0620 H   0  0  0  0  0  0  0  0  0  0  0  0
  139.0618   73.3367  220.8828 H   0  0  0  0  0  0  0  0  0  0  0  0
  138.1075   73.4216  222.4250 H   0  0  0  0  0  0  0  0  0  0  0  0
  140.7550   74.8120  222.4860 H   0  0  0  0  0  0  0  0  0  0  0  0
  137.3993   77.9409  222.8939 H   0  0  0  0  0  0  0  0  0  0  0  0
  138.1133   80.2421  223.4486 H   0  0  0  0  0  0  0  0  0  0  0  0
  139.9021   81.7906  223.8060 H   0  0  0  0  0  0  0  0  0  0  0  0
  142.3225   82.2974  223.8982 H   0  0  0  0  0  0  0  0  0  0  0  0
  143.1970   78.2240  222.8911 H   0  0  0  0  0  0  0  0  0  0  0  0
  141.4465   72.5339  225.2362 H   0  0  0  0  0  0  0  0  0  0  0  0
  141.8021   72.9958  227.6378 H   0  0  0  0  0  0  0  0  0  0  0  0
  140.8253   71.5692  229.4015 H   0  0  0  0  0  0  0  0  0  0  0  0
  139.4276   69.5882  228.7691 H   0  0  0  0  0  0  0  0  0  0  0  0
  139.0695   69.1257  226.3676 H   0  0  0  0  0  0  0  0  0  0  0  0
  1  2  1  0
  2  3  1  0
  3  4  1  0
  4  5  2  0
  4  6  1  0
  6  7  1  0
  7  8  1  0
  8  9  2  0
  8 10  1  0
 10 11  2  0
 11 12  1  0
 12 13  2  0
 13 14  1  0
 14 15  2  0
 15 16  1  0
 16 17  1  0
 16 18  2  0
 18 19  1  0
 19 20  2  0
  2 21  1  0
 21 22  2  0
 22 23  1  0
 23 24  2  0
 24 25  1  0
 25 26  2  0
 20 10  1  0
 26 21  1  0
 19 13  1  0
  1 27  1  0
  1 28  1  0
  1 29  1  0
  2 30  1  6
  3 31  1  0
  6 32  1  0
  6 33  1  0
  7 34  1  0
 11 35  1  0
 12 36  1  0
 14 37  1  0
 15 38  1  0
 18 39  1  0
 22 40  1  0
 23 41  1  0
 24 42  1  0
 25 43  1  0
 26 44  1  0
M  END
>  <smiles>  (24) 
C[C@@H](NC(=O)CNC(=O)c1ccc2ccc(F)cc2n1)c1ccccc1

>  <score_type>  (24) 
oracle

>  <origin>  (24) 
autodockgpu

>  <m_score__min__energy>  (24) 
-8.6699999999999999

>  <m_primary>  (24) 
energy

>  <rmsd>  (24) 
10.0927140034546

>  <m_score__min__rmsd>  (24) 
10.0927140034546

>  <meeko>  (24) 
{"free_energy": -8.43, "intermolecular_energy": -9.92, "internal_energy": -1.12, "cluster_size": 11, "cluster_id": 1, "rank_in_cluster": 6}

>  <energy>  (24) 
-7.53

>  <cluster_rmsd>  (24) 
1.13

>  <cluster>  (24) 
2

$$$$

     RDKit          3D

 44 46  0  0  0  0  0  0  0  0999 V2000
  139.1960   69.2800  224.0250 C   0  0  0  0  0  0  0  0  0  0  0  0
  140.0290   70.5290  224.2250 C   0  0  1  0  0  0  0  0  0  0  0  0
  139.3220   71.6380  223.6280 N   0  0  0  0  0  0  0  0  0  0  0  0
  139.8860   72.3380  222.5250 C   0  0  0  0  0  0  0  0  0  0  0  0
  141.0080   71.9830  222.0710 O   0  0  0  0  0  0  0  0  0  0  0  0
  139.0990   73.4640  221.9680 C   0  0  0  0  0  0  0  0  0  0  0  0
  139.7260   74.7450  222.2230 N   0  0  0  0  0  0  0  0  0  0  0  0
  138.8630   75.8620  222.4030 C   0  0  0  0  0  0  0  0  0  0  0  0
  137.6270   75.6400  222.3240 O   0  0  0  0  0  0  0  0  0  0  0  0
  139.3970   77.1950  222.6650 C   0  0  0  0  0  0  0  0  0  0  0  0
  138.4930   78.2310  222.8260 C   0  0  0  0  0  0  0  0  0  0  0  0
  138.8920   79.5230  223.0760 C   0  0  0  0  0  0  0  0  0  0  0  0
  140.2440   79.7720  223.1660 C   0  0  0  0  0  0  0  0  0  0  0  0
  140.6850   81.0490  223.4140 C   0  0  0  0  0  0  0  0  0  0  0  0
  142.0340   81.3100  223.5050 C   0  0  0  0  0  0  0  0  0  0  0  0
  142.9470   80.2870  223.3480 C   0  0  0  0  0  0  0  0  0  0  0  0
  144.2770   80.5570  223.4400 F   0  0  0  0  0  0  0  0  0  0  0  0
  142.4870   79.0070  223.0970 C   0  0  0  0  0  0  0  0  0  0  0  0
  141.1420   78.7240  223.0020 C   0  0  0  0  0  0  0  0  0  0  0  0
  140.6870   77.4800  222.7590 N   0  0  0  0  0  0  0  0  0  0  0  0
  140.2590   70.8350  225.6430 C   0  0  0  0  0  0  0  0  0  0  0  0
  141.0550   71.9170  225.9660 C   0  0  0  0  0  0  0  0  0  0  0  0
  141.2500   72.1750  227.2990 C   0  0  0  0  0  0  0  0  0  0  0  0
  140.6860   71.4010  228.3110 C   0  0  0  0  0  0  0  0  0  0  0  0
  139.8900   70.3210  227.9820 C   0  0  0  0  0  0  0  0  0  0  0  0
  139.6940   70.0600  226.6490 C   0  0  0  0  0  0  0  0  0  0  0  0
  138.9183   68.8637  225.0046 H   0  0  0  0  0  0  0  0  0  0  0  0
  138.2851   69.5329  223.4626 H   0  0  0  0  0  0  0  0  0  0  0  0
  139.7795   68.5363  223.4626 H   0  0  0  0  0  0  0  0  0  0  0  0
  141.0106   70.3606  223.7580 H   0  0  0  0  0  0  0  0  0  0  0  0
  138.3860   71.9210  224.0190 H   0  0  0  0  0  0  0  0  0  0  0  0
  139.0028   73.3262  220.8809 H   0  0  0  0  0  0  0  0  0  0  0  0
  138.1144   73.4648  222.4585 H   0  0  0  0  0  0  0  0  0  0  0  0
  140.7690   74.8650  222.2770 H   0  0  0  0  0  0  0  0  0  0  0  0
  137.4174   78.0130  222.7513 H   0  0  0  0  0  0  0  0  0  0  0  0
  138.1560   80.3310  223.2000 H   0  0  0  0  0  0  0  0  0  0  0  0
  139.9586   81.8654  223.5402 H   0  0  0  0  0  0  0  0  0  0  0  0
  142.3839   82.3339  223.7028 H   0  0  0  0  0  0  0  0  0  0  0  0
  143.2152   78.1924  222.9697 H   0  0  0  0  0  0  0  0  0  0  0  0
  141.5129   72.5448  225.1874 H   0  0  0  0  0  0  0  0  0  0  0  0
  141.8799   73.0314  227.5817 H   0  0  0  0  0  0  0  0  0  0  0  0
  140.8736   71.6486  229.3662 H   0  0  0  0  0  0  0  0  0  0  0  0
  139.4303   69.6934  228.7597 H   0  0  0  0  0  0  0  0  0  0  0  0
  139.0648   69.2034  226.3655 H   0  0  0  0  0  0  0  0  0  0  0  0
  1  2  1  0
  2  3  1  0
  3  4  1  0
  4  5  2  0
  4  6  1  0
  6  7  1  0
  7  8  1  0
  8  9  2  0
  8 10  1  0
 10 11  2  0
 11 12  1  0
 12 13  2  0
 13 14  1  0
 14 15  2  0
 15 16  1  0
 16 17  1  0
 16 18  2  0
 18 19  1  0
 19 20  2  0
  2 21  1  0
 21 22  2  0
 22 23  1  0
 23 24  2  0
 24 25  1  0
 25 26  2  0
 20 10  1  0
 26 21  1  0
 19 13  1  0
  1 27  1  0
  1 28  1  0
  1 29  1  0
  2 30  1  6
  3 31  1  0
  6 32  1  0
  6 33  1  0
  7 34  1  0
 11 35  1  0
 12 36  1  0
 14 37  1  0
 15 38  1  0
 18 39  1  0
 22 40  1  0
 23 41  1  0
 24 42  1  0
 25 43  1  0
 26 44  1  0
M  END
>  <smiles>  (25) 
C[C@@H](NC(=O)CNC(=O)c1ccc2ccc(F)cc2n1)c1ccccc1

>  <score_type>  (25) 
oracle

>  <origin>  (25) 
autodockgpu

>  <m_score__min__energy>  (25) 
-8.6699999999999999

>  <m_primary>  (25) 
energy

>  <rmsd>  (25) 
10.088777039108638

>  <m_score__min__rmsd>  (25) 
10.088777039108638

>  <meeko>  (25) 
{"free_energy": -8.46, "intermolecular_energy": -9.95, "internal_energy": -1.14, "cluster_size": 11, "cluster_id": 1, "rank_in_cluster": 4}

>  <energy>  (25) 
-7.53

>  <cluster_rmsd>  (25) 
0.48

>  <cluster>  (25) 
2

$$$$

     RDKit          3D

 44 46  0  0  0  0  0  0  0  0999 V2000
  139.2510   68.8400  224.7310 C   0  0  0  0  0  0  0  0  0  0  0  0
  140.0270   70.1340  224.6110 C   0  0  1  0  0  0  0  0  0  0  0  0
  139.2130   71.0780  223.8820 N   0  0  0  0  0  0  0  0  0  0  0  0
  139.8040   71.9370  222.9130 C   0  0  0  0  0  0  0  0  0  0  0  0
  141.0430   71.8690  222.6950 O   0  0  0  0  0  0  0  0  0  0  0  0
  138.9000   72.8770  222.2070 C   0  0  0  0  0  0  0  0  0  0  0  0
  139.3550   74.2490  222.3100 N   0  0  0  0  0  0  0  0  0  0  0  0
  140.1830   74.7360  221.2600 C   0  0  0  0  0  0  0  0  0  0  0  0
  140.4480   73.9300  220.3310 O   0  0  0  0  0  0  0  0  0  0  0  0
  140.6940   76.1030  221.2720 C   0  0  0  0  0  0  0  0  0  0  0  0
  140.9240   76.7160  220.0530 C   0  0  0  0  0  0  0  0  0  0  0  0
  141.4040   78.0000  219.9530 C   0  0  0  0  0  0  0  0  0  0  0  0
  141.6570   78.6830  221.1230 C   0  0  0  0  0  0  0  0  0  0  0  0
  142.1370   79.9690  221.0690 C   0  0  0  0  0  0  0  0  0  0  0  0
  142.3940   80.6620  222.2310 C   0  0  0  0  0  0  0  0  0  0  0  0
  142.1680   80.0650  223.4550 C   0  0  0  0  0  0  0  0  0  0  0  0
  142.4250   80.7590  224.5960 F   0  0  0  0  0  0  0  0  0  0  0  0
  141.6850   78.7690  223.4920 C   0  0  0  0  0  0  0  0  0  0  0  0
  141.4210   78.0580  222.3420 C   0  0  0  0  0  0  0  0  0  0  0  0
  140.9500   76.7970  222.3710 N   0  0  0  0  0  0  0  0  0  0  0  0
  140.3590   70.7190  225.9170 C   0  0  0  0  0  0  0  0  0  0  0  0
  139.8920   70.0960  227.0590 C   0  0  0  0  0  0  0  0  0  0  0  0
  140.2190   70.6670  228.2620 C   0  0  0  0  0  0  0  0  0  0  0  0
  140.9870   71.8250  228.3670 C   0  0  0  0  0  0  0  0  0  0  0  0
  141.4500   72.4440  227.2220 C   0  0  0  0  0  0  0  0  0  0  0  0
  141.1240   71.8740  226.0170 C   0  0  0  0  0  0  0  0  0  0  0  0
  139.1053   68.5971  225.7939 H   0  0  0  0  0  0  0  0  0  0  0  0
  138.2716   68.9532  224.2432 H   0  0  0  0  0  0  0  0  0  0  0  0
  139.8121   68.0294  224.2432 H   0  0  0  0  0  0  0  0  0  0  0  0
  140.9735   69.9147  224.0952 H   0  0  0  0  0  0  0  0  0  0  0  0
  138.1790   71.1220  224.0770 H   0  0  0  0  0  0  0  0  0  0  0  0
  138.8557   72.5964  221.1443 H   0  0  0  0  0  0  0  0  0  0  0  0
  137.9079   72.8120  222.6776 H   0  0  0  0  0  0  0  0  0  0  0  0
  139.0980   74.8730  223.1170 H   0  0  0  0  0  0  0  0  0  0  0  0
  140.7150   76.1551  219.1301 H   0  0  0  0  0  0  0  0  0  0  0  0
  141.5802   78.4666  218.9726 H   0  0  0  0  0  0  0  0  0  0  0  0
  142.3166   80.4467  220.0946 H   0  0  0  0  0  0  0  0  0  0  0  0
  142.7793   81.6912  222.1838 H   0  0  0  0  0  0  0  0  0  0  0  0
  141.5067   78.2928  224.4674 H   0  0  0  0  0  0  0  0  0  0  0  0
  139.2839   69.1810  227.0051 H   0  0  0  0  0  0  0  0  0  0  0  0
  139.8590   70.1897  229.1853 H   0  0  0  0  0  0  0  0  0  0  0  0
  141.2233   72.2440  229.3563 H   0  0  0  0  0  0  0  0  0  0  0  0
  142.0573   73.3596  227.2743 H   0  0  0  0  0  0  0  0  0  0  0  0
  141.4830   72.3510  225.0931 H   0  0  0  0  0  0  0  0  0  0  0  0
  1  2  1  0
  2  3  1  0
  3  4  1  0
  4  5  2  0
  4  6  1  0
  6  7  1  0
  7  8  1  0
  8  9  2  0
  8 10  1  0
 10 11  2  0
 11 12  1  0
 12 13  2  0
 13 14  1  0
 14 15  2  0
 15 16  1  0
 16 17  1  0
 16 18  2  0
 18 19  1  0
 19 20  2  0
  2 21  1  0
 21 22  2  0
 22 23  1  0
 23 24  2  0
 24 25  1  0
 25 26  2  0
 20 10  1  0
 26 21  1  0
 19 13  1  0
  1 27  1  0
  1 28  1  0
  1 29  1  0
  2 30  1  6
  3 31  1  0
  6 32  1  0
  6 33  1  0
  7 34  1  0
 11 35  1  0
 12 36  1  0
 14 37  1  0
 15 38  1  0
 18 39  1  0
 22 40  1  0
 23 41  1  0
 24 42  1  0
 25 43  1  0
 26 44  1  0
M  END
>  <smiles>  (26) 
C[C@@H](NC(=O)CNC(=O)c1ccc2ccc(F)cc2n1)c1ccccc1

>  <score_type>  (26) 
oracle

>  <origin>  (26) 
autodockgpu

>  <m_score__min__energy>  (26) 
-8.6699999999999999

>  <m_primary>  (26) 
energy

>  <rmsd>  (26) 
9.996835120674442

>  <m_score__min__rmsd>  (26) 
9.996835120674442

>  <meeko>  (26) 
{"free_energy": -8.44, "intermolecular_energy": -9.93, "internal_energy": -1.08, "cluster_size": 11, "cluster_id": 1, "rank_in_cluster": 5}

>  <energy>  (26) 
-7.52

>  <cluster_rmsd>  (26) 
0.41

>  <cluster>  (26) 
2

$$$$

     RDKit          3D

 44 46  0  0  0  0  0  0  0  0999 V2000
  139.5480   67.7360  225.7500 C   0  0  0  0  0  0  0  0  0  0  0  0
  140.3320   68.9760  225.3740 C   0  0  1  0  0  0  0  0  0  0  0  0
  139.7190   69.5540  224.2010 N   0  0  0  0  0  0  0  0  0  0  0  0
  138.3580   69.9650  224.2320 C   0  0  0  0  0  0  0  0  0  0  0  0
  137.6880   69.8210  225.2900 O   0  0  0  0  0  0  0  0  0  0  0  0
  137.8020   70.5500  222.9870 C   0  0  0  0  0  0  0  0  0  0  0  0
  138.2760   71.9000  222.7630 N   0  0  0  0  0  0  0  0  0  0  0  0
  139.4990   72.0450  222.0490 C   0  0  0  0  0  0  0  0  0  0  0  0
  140.0630   70.9850  221.6750 O   0  0  0  0  0  0  0  0  0  0  0  0
  140.0610   73.3640  221.7730 C   0  0  0  0  0  0  0  0  0  0  0  0
  141.1150   73.4410  220.8790 C   0  0  0  0  0  0  0  0  0  0  0  0
  141.7150   74.6320  220.5490 C   0  0  0  0  0  0  0  0  0  0  0  0
  141.2330   75.7800  221.1420 C   0  0  0  0  0  0  0  0  0  0  0  0
  141.8040   76.9920  220.8410 C   0  0  0  0  0  0  0  0  0  0  0  0
  141.3320   78.1440  221.4270 C   0  0  0  0  0  0  0  0  0  0  0  0
  140.2820   78.0840  222.3200 C   0  0  0  0  0  0  0  0  0  0  0  0
  139.8230   79.2300  222.8930 F   0  0  0  0  0  0  0  0  0  0  0  0
  139.7180   76.8560  222.6130 C   0  0  0  0  0  0  0  0  0  0  0  0
  140.1740   75.6900  222.0380 C   0  0  0  0  0  0  0  0  0  0  0  0
  139.6300   74.4910  222.3190 N   0  0  0  0  0  0  0  0  0  0  0  0
  140.3370   69.9860  226.4400 C   0  0  0  0  0  0  0  0  0  0  0  0
  139.6140   69.7380  227.5910 C   0  0  0  0  0  0  0  0  0  0  0  0
  139.6400   70.7010  228.5670 C   0  0  0  0  0  0  0  0  0  0  0  0
  140.3540   71.8900  228.4380 C   0  0  0  0  0  0  0  0  0  0  0  0
  141.0750   72.1330  227.2850 C   0  0  0  0  0  0  0  0  0  0  0  0
  141.0500   71.1710  226.3080 C   0  0  0  0  0  0  0  0  0  0  0  0
  139.4958   67.6534  226.8457 H   0  0  0  0  0  0  0  0  0  0  0  0
  138.5303   67.8069  225.3387 H   0  0  0  0  0  0  0  0  0  0  0  0
  140.0485   66.8470  225.3387 H   0  0  0  0  0  0  0  0  0  0  0  0
  141.3751   68.6768  225.1940 H   0  0  0  0  0  0  0  0  0  0  0  0
  140.2930   69.6670  223.3260 H   0  0  0  0  0  0  0  0  0  0  0  0
  138.1020   69.9223  222.1349 H   0  0  0  0  0  0  0  0  0  0  0  0
  136.7073   70.5867  223.0883 H   0  0  0  0  0  0  0  0  0  0  0  0
  137.7560   72.7480  223.1040 H   0  0  0  0  0  0  0  0  0  0  0  0
  141.4857   72.5147  220.4159 H   0  0  0  0  0  0  0  0  0  0  0  0
  142.5517   74.6687  219.8358 H   0  0  0  0  0  0  0  0  0  0  0  0
  142.6412   77.0421  220.1293 H   0  0  0  0  0  0  0  0  0  0  0  0
  141.7919   79.1131  221.1834 H   0  0  0  0  0  0  0  0  0  0  0  0
  138.8813   76.8087  223.3256 H   0  0  0  0  0  0  0  0  0  0  0  0
  139.0417   68.8074  227.7191 H   0  0  0  0  0  0  0  0  0  0  0  0
  139.0719   70.5268  229.4927 H   0  0  0  0  0  0  0  0  0  0  0  0
  140.3438   72.6318  229.2502 H   0  0  0  0  0  0  0  0  0  0  0  0
  141.6476   73.0632  227.1554 H   0  0  0  0  0  0  0  0  0  0  0  0
  141.6177   71.3447  225.3820 H   0  0  0  0  0  0  0  0  0  0  0  0
  1  2  1  0
  2  3  1  0
  3  4  1  0
  4  5  2  0
  4  6  1  0
  6  7  1  0
  7  8  1  0
  8  9  2  0
  8 10  1  0
 10 11  2  0
 11 12  1  0
 12 13  2  0
 13 14  1  0
 14 15  2  0
 15 16  1  0
 16 17  1  0
 16 18  2  0
 18 19  1  0
 19 20  2  0
  2 21  1  0
 21 22  2  0
 22 23  1  0
 23 24  2  0
 24 25  1  0
 25 26  2  0
 20 10  1  0
 26 21  1  0
 19 13  1  0
  1 27  1  0
  1 28  1  0
  1 29  1  0
  2 30  1  6
  3 31  1  0
  6 32  1  0
  6 33  1  0
  7 34  1  0
 11 35  1  0
 12 36  1  0
 14 37  1  0
 15 38  1  0
 18 39  1  0
 22 40  1  0
 23 41  1  0
 24 42  1  0
 25 43  1  0
 26 44  1  0
M  END
>  <smiles>  (27) 
C[C@@H](NC(=O)CNC(=O)c1ccc2ccc(F)cc2n1)c1ccccc1

>  <score_type>  (27) 
oracle

>  <origin>  (27) 
autodockgpu

>  <m_score__min__energy>  (27) 
-8.6699999999999999

>  <m_primary>  (27) 
energy

>  <rmsd>  (27) 
9.894109471286967

>  <m_score__min__rmsd>  (27) 
9.894109471286967

>  <meeko>  (27) 
{"free_energy": -7.77, "intermolecular_energy": -9.26, "internal_energy": -1.96, "cluster_size": 23, "cluster_id": 3, "rank_in_cluster": 2}

>  <energy>  (27) 
-7.17

>  <cluster_rmsd>  (27) 
1.82

>  <cluster>  (27) 
2

$$$$

     RDKit          3D

 44 46  0  0  0  0  0  0  0  0999 V2000
  138.8670   69.3460  223.6380 C   0  0  0  0  0  0  0  0  0  0  0  0
  139.7280   70.5660  223.8850 C   0  0  1  0  0  0  0  0  0  0  0  0
  139.0030   71.7270  223.4250 N   0  0  0  0  0  0  0  0  0  0  0  0
  139.2460   72.2560  222.1270 C   0  0  0  0  0  0  0  0  0  0  0  0
  140.1000   71.7060  221.3800 O   0  0  0  0  0  0  0  0  0  0  0  0
  138.4610   73.4490  221.7280 C   0  0  0  0  0  0  0  0  0  0  0  0
  138.9870   74.6660  222.3110 N   0  0  0  0  0  0  0  0  0  0  0  0
  138.6930   75.8850  221.6370 C   0  0  0  0  0  0  0  0  0  0  0  0
  138.0000   75.7980  220.5900 O   0  0  0  0  0  0  0  0  0  0  0  0
  139.1780   77.1650  222.1430 C   0  0  0  0  0  0  0  0  0  0  0  0
  138.2370   78.1240  222.4780 C   0  0  0  0  0  0  0  0  0  0  0  0
  138.5880   79.3610  222.9640 C   0  0  0  0  0  0  0  0  0  0  0  0
  139.9300   79.6350  223.1150 C   0  0  0  0  0  0  0  0  0  0  0  0
  140.3240   80.8590  223.5970 C   0  0  0  0  0  0  0  0  0  0  0  0
  141.6620   81.1440  223.7520 C   0  0  0  0  0  0  0  0  0  0  0  0
  142.6120   80.1980  223.4230 C   0  0  0  0  0  0  0  0  0  0  0  0
  143.9310   80.4910  223.5810 F   0  0  0  0  0  0  0  0  0  0  0  0
  142.1990   78.9700  222.9390 C   0  0  0  0  0  0  0  0  0  0  0  0
  140.8650   78.6640  222.7760 C   0  0  0  0  0  0  0  0  0  0  0  0
  140.4560   77.4710  222.3050 N   0  0  0  0  0  0  0  0  0  0  0  0
  140.0500   70.7530  225.3060 C   0  0  0  0  0  0  0  0  0  0  0  0
  140.8280   71.8350  225.6720 C   0  0  0  0  0  0  0  0  0  0  0  0
  141.1100   71.9800  227.0060 C   0  0  0  0  0  0  0  0  0  0  0  0
  140.6480   71.0960  227.9790 C   0  0  0  0  0  0  0  0  0  0  0  0
  139.8700   70.0170  227.6070 C   0  0  0  0  0  0  0  0  0  0  0  0
  139.5870   69.8690  226.2730 C   0  0  0  0  0  0  0  0  0  0  0  0
  138.5608   68.9122  224.6014 H   0  0  0  0  0  0  0  0  0  0  0  0
  137.9734   69.6374  223.0666 H   0  0  0  0  0  0  0  0  0  0  0  0
  139.4410   68.6017  223.0666 H   0  0  0  0  0  0  0  0  0  0  0  0
  140.6759   70.4266  223.3446 H   0  0  0  0  0  0  0  0  0  0  0  0
  138.2930   72.1740  224.0610 H   0  0  0  0  0  0  0  0  0  0  0  0
  138.4867   73.5405  220.6321 H   0  0  0  0  0  0  0  0  0  0  0  0
  137.4319   73.3154  222.0927 H   0  0  0  0  0  0  0  0  0  0  0  0
  139.5620   74.6720  223.1900 H   0  0  0  0  0  0  0  0  0  0  0  0
  137.1703   77.8875  222.3506 H   0  0  0  0  0  0  0  0  0  0  0  0
  137.8229   80.1074  223.2238 H   0  0  0  0  0  0  0  0  0  0  0  0
  139.5684   81.6139  223.8600 H   0  0  0  0  0  0  0  0  0  0  0  0
  141.9741   82.1256  224.1380 H   0  0  0  0  0  0  0  0  0  0  0  0
  142.9563   78.2165  222.6768 H   0  0  0  0  0  0  0  0  0  0  0  0
  141.2049   72.5493  224.9251 H   0  0  0  0  0  0  0  0  0  0  0  0
  141.7288   72.8326  227.3223 H   0  0  0  0  0  0  0  0  0  0  0  0
  140.9014   71.2565  229.0373 H   0  0  0  0  0  0  0  0  0  0  0  0
  139.4913   69.3028  228.3530 H   0  0  0  0  0  0  0  0  0  0  0  0
  138.9687   69.0163  225.9560 H   0  0  0  0  0  0  0  0  0  0  0  0
  1  2  1  0
  2  3  1  0
  3  4  1  0
  4  5  2  0
  4  6  1  0
  6  7  1  0
  7  8  1  0
  8  9  2  0
  8 10  1  0
 10 11  2  0
 11 12  1  0
 12 13  2  0
 13 14  1  0
 14 15  2  0
 15 16  1  0
 16 17  1  0
 16 18  2  0
 18 19  1  0
 19 20  2  0
  2 21  1  0
 21 22  2  0
 22 23  1  0
 23 24  2  0
 24 25  1  0
 25 26  2  0
 20 10  1  0
 26 21  1  0
 19 13  1  0
  1 27  1  0
  1 28  1  0
  1 29  1  0
  2 30  1  6
  3 31  1  0
  6 32  1  0
  6 33  1  0
  7 34  1  0
 11 35  1  0
 12 36  1  0
 14 37  1  0
 15 38  1  0
 18 39  1  0
 22 40  1  0
 23 41  1  0
 24 42  1  0
 25 43  1  0
 26 44  1  0
M  END
>  <smiles>  (28) 
C[C@@H](NC(=O)CNC(=O)c1ccc2ccc(F)cc2n1)c1ccccc1

>  <score_type>  (28) 
oracle

>  <origin>  (28) 
autodockgpu

>  <m_score__min__energy>  (28) 
-8.6699999999999999

>  <m_primary>  (28) 
energy

>  <rmsd>  (28) 
10.053978549097712

>  <m_score__min__rmsd>  (28) 
10.053978549097712

>  <meeko>  (28) 
{"free_energy": -8.35, "intermolecular_energy": -9.84, "internal_energy": -0.91, "cluster_size": 11, "cluster_id": 1, "rank_in_cluster": 11}

>  <energy>  (28) 
-7.78

>  <cluster_rmsd>  (28) 
0.0

>  <cluster>  (28) 
3

$$$$

     RDKit          3D

 44 46  0  0  0  0  0  0  0  0999 V2000
  139.5540   67.9240  225.4770 C   0  0  0  0  0  0  0  0  0  0  0  0
  140.3360   69.1790  225.1510 C   0  0  1  0  0  0  0  0  0  0  0  0
  139.6970   69.8260  224.0290 N   0  0  0  0  0  0  0  0  0  0  0  0
  138.3180   70.1730  224.0920 C   0  0  0  0  0  0  0  0  0  0  0  0
  137.6570   69.9110  225.1330 O   0  0  0  0  0  0  0  0  0  0  0  0
  137.7360   70.8350  222.8990 C   0  0  0  0  0  0  0  0  0  0  0  0
  138.1890   72.2040  222.7630 N   0  0  0  0  0  0  0  0  0  0  0  0
  139.4020   72.4150  222.0490 C   0  0  0  0  0  0  0  0  0  0  0  0
  139.9770   71.3900  221.5990 O   0  0  0  0  0  0  0  0  0  0  0  0
  139.9430   73.7570  221.8580 C   0  0  0  0  0  0  0  0  0  0  0  0
  141.0990   73.8850  221.1070 C   0  0  0  0  0  0  0  0  0  0  0  0
  141.6900   75.1020  220.8670 C   0  0  0  0  0  0  0  0  0  0  0  0
  141.0920   76.2230  221.4020 C   0  0  0  0  0  0  0  0  0  0  0  0
  141.6490   77.4600  221.1860 C   0  0  0  0  0  0  0  0  0  0  0  0
  141.0610   78.5860  221.7160 C   0  0  0  0  0  0  0  0  0  0  0  0
  139.9070   78.4750  222.4660 C   0  0  0  0  0  0  0  0  0  0  0  0
  139.3350   79.5950  222.9840 F   0  0  0  0  0  0  0  0  0  0  0  0
  139.3590   77.2220  222.6740 C   0  0  0  0  0  0  0  0  0  0  0  0
  139.9310   76.0820  222.1540 C   0  0  0  0  0  0  0  0  0  0  0  0
  139.4020   74.8600  222.3520 N   0  0  0  0  0  0  0  0  0  0  0  0
  140.3770   70.1270  226.2720 C   0  0  0  0  0  0  0  0  0  0  0  0
  141.1190   71.2850  226.1330 C   0  0  0  0  0  0  0  0  0  0  0  0
  141.1360   72.1490  227.1980 C   0  0  0  0  0  0  0  0  0  0  0  0
  140.4480   71.9030  228.3840 C   0  0  0  0  0  0  0  0  0  0  0  0
  139.7080   70.7440  228.5170 C   0  0  0  0  0  0  0  0  0  0  0  0
  139.6890   69.8780  227.4530 C   0  0  0  0  0  0  0  0  0  0  0  0
  139.4827   67.8096  226.5687 H   0  0  0  0  0  0  0  0  0  0  0  0
  138.5433   68.0003  225.0496 H   0  0  0  0  0  0  0  0  0  0  0  0
  140.0679   67.0504  225.0496 H   0  0  0  0  0  0  0  0  0  0  0  0
  141.3718   68.8845  224.9266 H   0  0  0  0  0  0  0  0  0  0  0  0
  140.2640   70.0380  223.1680 H   0  0  0  0  0  0  0  0  0  0  0  0
  138.0314   70.2723  222.0011 H   0  0  0  0  0  0  0  0  0  0  0  0
  136.6425   70.8492  223.0179 H   0  0  0  0  0  0  0  0  0  0  0  0
  137.6610   73.0190  223.1650 H   0  0  0  0  0  0  0  0  0  0  0  0
  141.5612   72.9794  220.6871 H   0  0  0  0  0  0  0  0  0  0  0  0
  142.6094   75.1792  220.2681 H   0  0  0  0  0  0  0  0  0  0  0  0
  142.5676   77.5509  220.5878 H   0  0  0  0  0  0  0  0  0  0  0  0
  141.5106   79.5747  221.5420 H   0  0  0  0  0  0  0  0  0  0  0  0
  138.4399   77.1335  223.2719 H   0  0  0  0  0  0  0  0  0  0  0  0
  141.6722   71.5041  225.2078 H   0  0  0  0  0  0  0  0  0  0  0  0
  141.7190   73.0778  227.1118 H   0  0  0  0  0  0  0  0  0  0  0  0
  140.4937   72.6277  229.2103 H   0  0  0  0  0  0  0  0  0  0  0  0
  139.1545   70.5236  229.4417 H   0  0  0  0  0  0  0  0  0  0  0  0
  139.1057   68.9493  227.5385 H   0  0  0  0  0  0  0  0  0  0  0  0
  1  2  1  0
  2  3  1  0
  3  4  1  0
  4  5  2  0
  4  6  1  0
  6  7  1  0
  7  8  1  0
  8  9  2  0
  8 10  1  0
 10 11  2  0
 11 12  1  0
 12 13  2  0
 13 14  1  0
 14 15  2  0
 15 16  1  0
 16 17  1  0
 16 18  2  0
 18 19  1  0
 19 20  2  0
  2 21  1  0
 21 22  2  0
 22 23  1  0
 23 24  2  0
 24 25  1  0
 25 26  2  0
 20 10  1  0
 26 21  1  0
 19 13  1  0
  1 27  1  0
  1 28  1  0
  1 29  1  0
  2 30  1  6
  3 31  1  0
  6 32  1  0
  6 33  1  0
  7 34  1  0
 11 35  1  0
 12 36  1  0
 14 37  1  0
 15 38  1  0
 18 39  1  0
 22 40  1  0
 23 41  1  0
 24 42  1  0
 25 43  1  0
 26 44  1  0
M  END
>  <smiles>  (29) 
C[C@@H](NC(=O)CNC(=O)c1ccc2ccc(F)cc2n1)c1ccccc1

>  <score_type>  (29) 
oracle

>  <origin>  (29) 
autodockgpu

>  <m_score__min__energy>  (29) 
-8.6699999999999999

>  <m_primary>  (29) 
energy

>  <rmsd>  (29) 
9.998090858878353

>  <m_score__min__rmsd>  (29) 
9.998090858878353

>  <meeko>  (29) 
{"free_energy": -7.61, "intermolecular_energy": -9.1, "internal_energy": -1.97, "cluster_size": 23, "cluster_id": 3, "rank_in_cluster": 21}

>  <energy>  (29) 
-7.77

>  <cluster_rmsd>  (29) 
0.34

>  <cluster>  (29) 
3

$$$$

     RDKit          3D

 44 46  0  0  0  0  0  0  0  0999 V2000
  139.5170   67.7920  225.6170 C   0  0  0  0  0  0  0  0  0  0  0  0
  140.3090   69.0300  225.2520 C   0  0  1  0  0  0  0  0  0  0  0  0
  139.6850   69.6360  224.0990 N   0  0  0  0  0  0  0  0  0  0  0  0
  138.3270   70.0550  224.1560 C   0  0  0  0  0  0  0  0  0  0  0  0
  137.6700   69.8930  225.2200 O   0  0  0  0  0  0  0  0  0  0  0  0
  137.7590   70.6690  222.9310 C   0  0  0  0  0  0  0  0  0  0  0  0
  138.1760   72.0470  222.7710 N   0  0  0  0  0  0  0  0  0  0  0  0
  139.4020   72.2750  222.0850 C   0  0  0  0  0  0  0  0  0  0  0  0
  140.0190   71.2570  221.6770 O   0  0  0  0  0  0  0  0  0  0  0  0
  139.9100   73.6280  221.8730 C   0  0  0  0  0  0  0  0  0  0  0  0
  141.0650   73.7720  221.1250 C   0  0  0  0  0  0  0  0  0  0  0  0
  141.6250   75.0000  220.8660 C   0  0  0  0  0  0  0  0  0  0  0  0
  140.9970   76.1140  221.3810 C   0  0  0  0  0  0  0  0  0  0  0  0
  141.5230   77.3610  221.1460 C   0  0  0  0  0  0  0  0  0  0  0  0
  140.9050   78.4800  221.6560 C   0  0  0  0  0  0  0  0  0  0  0  0
  139.7520   78.3520  222.4030 C   0  0  0  0  0  0  0  0  0  0  0  0
  139.1490   79.4660  222.9010 F   0  0  0  0  0  0  0  0  0  0  0  0
  139.2350   77.0900  222.6310 C   0  0  0  0  0  0  0  0  0  0  0  0
  139.8370   75.9560  222.1310 C   0  0  0  0  0  0  0  0  0  0  0  0
  139.3390   74.7240  222.3480 N   0  0  0  0  0  0  0  0  0  0  0  0
  140.3420   70.0200  226.3360 C   0  0  0  0  0  0  0  0  0  0  0  0
  139.6640   69.7420  227.5080 C   0  0  0  0  0  0  0  0  0  0  0  0
  139.7150   70.6880  228.5000 C   0  0  0  0  0  0  0  0  0  0  0  0
  140.4110   71.8870  228.3680 C   0  0  0  0  0  0  0  0  0  0  0  0
  141.0870   72.1600  227.1940 C   0  0  0  0  0  0  0  0  0  0  0  0
  141.0370   71.2150  226.2000 C   0  0  0  0  0  0  0  0  0  0  0  0
  139.4599   67.7028  226.7119 H   0  0  0  0  0  0  0  0  0  0  0  0
  138.5013   67.8710  225.2021 H   0  0  0  0  0  0  0  0  0  0  0  0
  140.0144   66.9029  225.2021 H   0  0  0  0  0  0  0  0  0  0  0  0
  141.3459   68.7229  225.0508 H   0  0  0  0  0  0  0  0  0  0  0  0
  140.2490   69.7640  223.2190 H   0  0  0  0  0  0  0  0  0  0  0  0
  138.0948   70.0925  222.0564 H   0  0  0  0  0  0  0  0  0  0  0  0
  136.6628   70.6541  223.0205 H   0  0  0  0  0  0  0  0  0  0  0  0
  137.6140   72.8560  223.1380 H   0  0  0  0  0  0  0  0  0  0  0  0
  141.5524   72.8714  220.7233 H   0  0  0  0  0  0  0  0  0  0  0  0
  142.5436   75.0910  220.2678 H   0  0  0  0  0  0  0  0  0  0  0  0
  142.4407   77.4655  220.5485 H   0  0  0  0  0  0  0  0  0  0  0  0
  141.3304   79.4768  221.4680 H   0  0  0  0  0  0  0  0  0  0  0  0
  138.3170   76.9885  223.2285 H   0  0  0  0  0  0  0  0  0  0  0  0
  139.1074   68.8024  227.6396 H   0  0  0  0  0  0  0  0  0  0  0  0
  139.1823   70.4907  229.4420 H   0  0  0  0  0  0  0  0  0  0  0  0
  140.4226   72.6132  229.1941 H   0  0  0  0  0  0  0  0  0  0  0  0
  141.6441   73.0992  227.0612 H   0  0  0  0  0  0  0  0  0  0  0  0
  141.5688   71.4119  225.2574 H   0  0  0  0  0  0  0  0  0  0  0  0
  1  2  1  0
  2  3  1  0
  3  4  1  0
  4  5  2  0
  4  6  1  0
  6  7  1  0
  7  8  1  0
  8  9  2  0
  8 10  1  0
 10 11  2  0
 11 12  1  0
 12 13  2  0
 13 14  1  0
 14 15  2  0
 15 16  1  0
 16 17  1  0
 16 18  2  0
 18 19  1  0
 19 20  2  0
  2 21  1  0
 21 22  2  0
 22 23  1  0
 23 24  2  0
 24 25  1  0
 25 26  2  0
 20 10  1  0
 26 21  1  0
 19 13  1  0
  1 27  1  0
  1 28  1  0
  1 29  1  0
  2 30  1  6
  3 31  1  0
  6 32  1  0
  6 33  1  0
  7 34  1  0
 11 35  1  0
 12 36  1  0
 14 37  1  0
 15 38  1  0
 18 39  1  0
 22 40  1  0
 23 41  1  0
 24 42  1  0
 25 43  1  0
 26 44  1  0
M  END
>  <smiles>  (30) 
C[C@@H](NC(=O)CNC(=O)c1ccc2ccc(F)cc2n1)c1ccccc1

>  <score_type>  (30) 
oracle

>  <origin>  (30) 
autodockgpu

>  <m_score__min__energy>  (30) 
-8.6699999999999999

>  <m_primary>  (30) 
energy

>  <rmsd>  (30) 
9.854941181358914

>  <m_score__min__rmsd>  (30) 
9.854941181358914

>  <meeko>  (30) 
{"free_energy": -7.67, "intermolecular_energy": -9.16, "internal_energy": -1.99, "cluster_size": 23, "cluster_id": 3, "rank_in_cluster": 16}

>  <energy>  (30) 
-7.77

>  <cluster_rmsd>  (30) 
0.35

>  <cluster>  (30) 
3

$$$$

     RDKit          3D

 44 46  0  0  0  0  0  0  0  0999 V2000
  139.5290   67.8640  225.4870 C   0  0  0  0  0  0  0  0  0  0  0  0
  139.9250   69.2460  225.0100 C   0  0  1  0  0  0  0  0  0  0  0  0
  138.8160   69.7980  224.2670 N   0  0  0  0  0  0  0  0  0  0  0  0
  139.0470   70.7550  223.2400 C   0  0  0  0  0  0  0  0  0  0  0  0
  140.2260   71.1190  222.9820 O   0  0  0  0  0  0  0  0  0  0  0  0
  137.8570   71.2730  222.5230 C   0  0  0  0  0  0  0  0  0  0  0  0
  136.9530   71.9780  223.4090 N   0  0  0  0  0  0  0  0  0  0  0  0
  135.9380   71.2080  224.0420 C   0  0  0  0  0  0  0  0  0  0  0  0
  135.9140   69.9780  223.7770 O   0  0  0  0  0  0  0  0  0  0  0  0
  134.9780   71.8250  224.9520 C   0  0  0  0  0  0  0  0  0  0  0  0
  134.1590   70.9880  225.6900 C   0  0  0  0  0  0  0  0  0  0  0  0
  133.2220   71.4660  226.5740 C   0  0  0  0  0  0  0  0  0  0  0  0
  133.1120   72.8330  226.7160 C   0  0  0  0  0  0  0  0  0  0  0  0
  132.1880   73.3540  227.5890 C   0  0  0  0  0  0  0  0  0  0  0  0
  132.0690   74.7170  227.7380 C   0  0  0  0  0  0  0  0  0  0  0  0
  132.8780   75.5650  227.0100 C   0  0  0  0  0  0  0  0  0  0  0  0
  132.7510   76.9100  227.1670 F   0  0  0  0  0  0  0  0  0  0  0  0
  133.8030   75.0250  226.1350 C   0  0  0  0  0  0  0  0  0  0  0  0
  133.9400   73.6640  225.9700 C   0  0  0  0  0  0  0  0  0  0  0  0
  134.8380   73.1310  225.1200 N   0  0  0  0  0  0  0  0  0  0  0  0
  140.2410   70.1570  226.1170 C   0  0  0  0  0  0  0  0  0  0  0  0
  139.6690   69.9210  227.3530 C   0  0  0  0  0  0  0  0  0  0  0  0
  139.9850   70.7910  228.3650 C   0  0  0  0  0  0  0  0  0  0  0  0
  140.8420   71.8760  228.1920 C   0  0  0  0  0  0  0  0  0  0  0  0
  141.4110   72.1070  226.9540 C   0  0  0  0  0  0  0  0  0  0  0  0
  141.0960   71.2380  225.9400 C   0  0  0  0  0  0  0  0  0  0  0  0
  139.5231   67.8434  226.5868 H   0  0  0  0  0  0  0  0  0  0  0  0
  138.5248   67.6199  225.1103 H   0  0  0  0  0  0  0  0  0  0  0  0
  140.2516   67.1251  225.1103 H   0  0  0  0  0  0  0  0  0  0  0  0
  140.8302   69.1456  224.3932 H   0  0  0  0  0  0  0  0  0  0  0  0
  137.8380   69.4820  224.4950 H   0  0  0  0  0  0  0  0  0  0  0  0
  138.1905   71.9629  221.7338 H   0  0  0  0  0  0  0  0  0  0  0  0
  137.3158   70.4144  222.0988 H   0  0  0  0  0  0  0  0  0  0  0  0
  137.0260   73.0120  223.5880 H   0  0  0  0  0  0  0  0  0  0  0  0
  134.2621   69.9001  225.5641 H   0  0  0  0  0  0  0  0  0  0  0  0
  132.5813   70.7812  227.1490 H   0  0  0  0  0  0  0  0  0  0  0  0
  131.5416   72.6801  228.1704 H   0  0  0  0  0  0  0  0  0  0  0  0
  131.3282   75.1307  228.4381 H   0  0  0  0  0  0  0  0  0  0  0  0
  134.4476   75.7013  225.5543 H   0  0  0  0  0  0  0  0  0  0  0  0
  138.9895   69.0718  227.5179 H   0  0  0  0  0  0  0  0  0  0  0  0
  139.5419   70.6248  229.3580 H   0  0  0  0  0  0  0  0  0  0  0  0
  141.0644   72.5451  229.0363 H   0  0  0  0  0  0  0  0  0  0  0  0
  142.0909   72.9556  226.7878 H   0  0  0  0  0  0  0  0  0  0  0  0
  141.5383   71.4038  224.9466 H   0  0  0  0  0  0  0  0  0  0  0  0
  1  2  1  0
  2  3  1  0
  3  4  1  0
  4  5  2  0
  4  6  1  0
  6  7  1  0
  7  8  1  0
  8  9  2  0
  8 10  1  0
 10 11  2  0
 11 12  1  0
 12 13  2  0
 13 14  1  0
 14 15  2  0
 15 16  1  0
 16 17  1  0
 16 18  2  0
 18 19  1  0
 19 20  2  0
  2 21  1  0
 21 22  2  0
 22 23  1  0
 23 24  2  0
 24 25  1  0
 25 26  2  0
 20 10  1  0
 26 21  1  0
 19 13  1  0
  1 27  1  0
  1 28  1  0
  1 29  1  0
  2 30  1  6
  3 31  1  0
  6 32  1  0
  6 33  1  0
  7 34  1  0
 11 35  1  0
 12 36  1  0
 14 37  1  0
 15 38  1  0
 18 39  1  0
 22 40  1  0
 23 41  1  0
 24 42  1  0
 25 43  1  0
 26 44  1  0
M  END
>  <smiles>  (31) 
C[C@@H](NC(=O)CNC(=O)c1ccc2ccc(F)cc2n1)c1ccccc1

>  <score_type>  (31) 
oracle

>  <origin>  (31) 
autodockgpu

>  <m_score__min__energy>  (31) 
-8.6699999999999999

>  <m_primary>  (31) 
energy

>  <rmsd>  (31) 
9.902772802587894

>  <m_score__min__rmsd>  (31) 
9.902772802587894

>  <meeko>  (31) 
{"free_energy": -7.71, "intermolecular_energy": -9.2, "internal_energy": -2.02, "cluster_size": 16, "cluster_id": 2, "rank_in_cluster": 4}

>  <energy>  (31) 
-7.75

>  <cluster_rmsd>  (31) 
0.04

>  <cluster>  (31) 
3

$$$$

     RDKit          3D

 44 46  0  0  0  0  0  0  0  0999 V2000
  139.5180   67.8580  225.4660 C   0  0  0  0  0  0  0  0  0  0  0  0
  139.9310   69.2260  224.9650 C   0  0  1  0  0  0  0  0  0  0  0  0
  138.8280   69.7810  224.2170 N   0  0  0  0  0  0  0  0  0  0  0  0
  139.0640   70.7550  223.2080 C   0  0  0  0  0  0  0  0  0  0  0  0
  140.2440   71.1330  222.9710 O   0  0  0  0  0  0  0  0  0  0  0  0
  137.8790   71.2760  222.4830 C   0  0  0  0  0  0  0  0  0  0  0  0
  136.9620   71.9650  223.3670 N   0  0  0  0  0  0  0  0  0  0  0  0
  135.9860   71.1700  224.0320 C   0  0  0  0  0  0  0  0  0  0  0  0
  136.0060   69.9350  223.7930 O   0  0  0  0  0  0  0  0  0  0  0  0
  135.0150   71.7700  224.9420 C   0  0  0  0  0  0  0  0  0  0  0  0
  134.2190   70.9180  225.6880 C   0  0  0  0  0  0  0  0  0  0  0  0
  133.2750   71.3790  226.5730 C   0  0  0  0  0  0  0  0  0  0  0  0
  133.1330   72.7440  226.7080 C   0  0  0  0  0  0  0  0  0  0  0  0
  132.2010   73.2480  227.5820 C   0  0  0  0  0  0  0  0  0  0  0  0
  132.0500   74.6080  227.7240 C   0  0  0  0  0  0  0  0  0  0  0  0
  132.8370   75.4710  226.9880 C   0  0  0  0  0  0  0  0  0  0  0  0
  132.6800   76.8140  227.1380 F   0  0  0  0  0  0  0  0  0  0  0  0
  133.7710   74.9480  226.1120 C   0  0  0  0  0  0  0  0  0  0  0  0
  133.9380   73.5900  225.9540 C   0  0  0  0  0  0  0  0  0  0  0  0
  134.8460   73.0730  225.1030 N   0  0  0  0  0  0  0  0  0  0  0  0
  140.2630   70.1510  226.0570 C   0  0  0  0  0  0  0  0  0  0  0  0
  141.1530   71.1780  225.8060 C   0  0  0  0  0  0  0  0  0  0  0  0
  141.4420   72.0240  226.8460 C   0  0  0  0  0  0  0  0  0  0  0  0
  140.8810   71.8850  228.1140 C   0  0  0  0  0  0  0  0  0  0  0  0
  139.9910   70.8560  228.3580 C   0  0  0  0  0  0  0  0  0  0  0  0
  139.7020   70.0080  227.3190 C   0  0  0  0  0  0  0  0  0  0  0  0
  139.5172   67.8552  226.5660 H   0  0  0  0  0  0  0  0  0  0  0  0
  138.5086   67.6221  225.0980 H   0  0  0  0  0  0  0  0  0  0  0  0
  140.2282   67.1029  225.0980 H   0  0  0  0  0  0  0  0  0  0  0  0
  140.8325   69.1030  224.3468 H   0  0  0  0  0  0  0  0  0  0  0  0
  137.8490   69.4540  224.4270 H   0  0  0  0  0  0  0  0  0  0  0  0
  138.2179   71.9772  221.7062 H   0  0  0  0  0  0  0  0  0  0  0  0
  137.3472   70.4201  222.0418 H   0  0  0  0  0  0  0  0  0  0  0  0
  136.9960   73.0040  223.5230 H   0  0  0  0  0  0  0  0  0  0  0  0
  134.3471   69.8321  225.5677 H   0  0  0  0  0  0  0  0  0  0  0  0
  132.6531   70.6826  227.1546 H   0  0  0  0  0  0  0  0  0  0  0  0
  131.5735   72.5622  228.1701 H   0  0  0  0  0  0  0  0  0  0  0  0
  131.3019   75.0080  228.4243 H   0  0  0  0  0  0  0  0  0  0  0  0
  134.3977   75.6357  225.5253 H   0  0  0  0  0  0  0  0  0  0  0  0
  141.6101   71.3112  224.8144 H   0  0  0  0  0  0  0  0  0  0  0  0
  142.1482   72.8491  226.6714 H   0  0  0  0  0  0  0  0  0  0  0  0
  141.1449   72.5901  228.9160 H   0  0  0  0  0  0  0  0  0  0  0  0
  139.5315   70.7220  229.3484 H   0  0  0  0  0  0  0  0  0  0  0  0
  138.9974   69.1814  227.4928 H   0  0  0  0  0  0  0  0  0  0  0  0
  1  2  1  0
  2  3  1  0
  3  4  1  0
  4  5  2  0
  4  6  1  0
  6  7  1  0
  7  8  1  0
  8  9  2  0
  8 10  1  0
 10 11  2  0
 11 12  1  0
 12 13  2  0
 13 14  1  0
 14 15  2  0
 15 16  1  0
 16 17  1  0
 16 18  2  0
 18 19  1  0
 19 20  2  0
  2 21  1  0
 21 22  2  0
 22 23  1  0
 23 24  2  0
 24 25  1  0
 25 26  2  0
 20 10  1  0
 26 21  1  0
 19 13  1  0
  1 27  1  0
  1 28  1  0
  1 29  1  0
  2 30  1  6
  3 31  1  0
  6 32  1  0
  6 33  1  0
  7 34  1  0
 11 35  1  0
 12 36  1  0
 14 37  1  0
 15 38  1  0
 18 39  1  0
 22 40  1  0
 23 41  1  0
 24 42  1  0
 25 43  1  0
 26 44  1  0
M  END
>  <smiles>  (32) 
C[C@@H](NC(=O)CNC(=O)c1ccc2ccc(F)cc2n1)c1ccccc1

>  <score_type>  (32) 
oracle

>  <origin>  (32) 
autodockgpu

>  <m_score__min__energy>  (32) 
-8.6699999999999999

>  <m_primary>  (32) 
energy

>  <rmsd>  (32) 
10.066726052415266

>  <m_score__min__rmsd>  (32) 
10.066726052415266

>  <meeko>  (32) 
{"free_energy": -7.65, "intermolecular_energy": -9.15, "internal_energy": -2.01, "cluster_size": 16, "cluster_id": 2, "rank_in_cluster": 10}

>  <energy>  (32) 
-7.74

>  <cluster_rmsd>  (32) 
0.34

>  <cluster>  (32) 
3

$$$$

     RDKit          3D

 44 46  0  0  0  0  0  0  0  0999 V2000
  139.2480   68.7840  224.7500 C   0  0  0  0  0  0  0  0  0  0  0  0
  139.9970   70.0940  224.6250 C   0  0  1  0  0  0  0  0  0  0  0  0
  139.1470   71.0300  223.9250 N   0  0  0  0  0  0  0  0  0  0  0  0
  139.6980   71.9060  222.9490 C   0  0  0  0  0  0  0  0  0  0  0  0
  140.9330   71.8610  222.6980 O   0  0  0  0  0  0  0  0  0  0  0  0
  138.7610   72.8370  222.2740 C   0  0  0  0  0  0  0  0  0  0  0  0
  139.2130   74.2110  222.3460 N   0  0  0  0  0  0  0  0  0  0  0  0
  140.1580   74.6320  221.3690 C   0  0  0  0  0  0  0  0  0  0  0  0
  140.5190   73.7710  220.5250 O   0  0  0  0  0  0  0  0  0  0  0  0
  140.6760   75.9970  221.3570 C   0  0  0  0  0  0  0  0  0  0  0  0
  140.9360   76.5760  220.1270 C   0  0  0  0  0  0  0  0  0  0  0  0
  141.4240   77.8550  220.0040 C   0  0  0  0  0  0  0  0  0  0  0  0
  141.6570   78.5670  221.1610 C   0  0  0  0  0  0  0  0  0  0  0  0
  142.1460   79.8480  221.0840 C   0  0  0  0  0  0  0  0  0  0  0  0
  142.3830   80.5690  222.2330 C   0  0  0  0  0  0  0  0  0  0  0  0
  142.1290   80.0050  223.4670 C   0  0  0  0  0  0  0  0  0  0  0  0
  142.3660   80.7270  224.5950 F   0  0  0  0  0  0  0  0  0  0  0  0
  141.6370   78.7130  223.5270 C   0  0  0  0  0  0  0  0  0  0  0  0
  141.3930   77.9740  222.3900 C   0  0  0  0  0  0  0  0  0  0  0  0
  140.9140   76.7160  222.4420 N   0  0  0  0  0  0  0  0  0  0  0  0
  140.3480   70.6720  225.9290 C   0  0  0  0  0  0  0  0  0  0  0  0
  139.9100   70.0350  227.0740 C   0  0  0  0  0  0  0  0  0  0  0  0
  140.2550   70.6000  228.2760 C   0  0  0  0  0  0  0  0  0  0  0  0
  141.0130   71.7650  228.3740 C   0  0  0  0  0  0  0  0  0  0  0  0
  141.4470   72.3970  227.2260 C   0  0  0  0  0  0  0  0  0  0  0  0
  141.1030   71.8340  226.0230 C   0  0  0  0  0  0  0  0  0  0  0  0
  139.1091   68.5411  225.8138 H   0  0  0  0  0  0  0  0  0  0  0  0
  138.2657   68.8754  224.2635 H   0  0  0  0  0  0  0  0  0  0  0  0
  139.8251   67.9838  224.2635 H   0  0  0  0  0  0  0  0  0  0  0  0
  140.9350   69.8984  224.0848 H   0  0  0  0  0  0  0  0  0  0  0  0
  138.1180   71.0530  224.1470 H   0  0  0  0  0  0  0  0  0  0  0  0
  138.6732   72.5473  221.2165 H   0  0  0  0  0  0  0  0  0  0  0  0
  137.7902   72.7721  222.7871 H   0  0  0  0  0  0  0  0  0  0  0  0
  138.8720   74.8830  223.0790 H   0  0  0  0  0  0  0  0  0  0  0  0
  140.7452   75.9914  219.2149 H   0  0  0  0  0  0  0  0  0  0  0  0
  141.6219   78.2955  219.0157 H   0  0  0  0  0  0  0  0  0  0  0  0
  142.3489   80.2994  220.1016 H   0  0  0  0  0  0  0  0  0  0  0  0
  142.7749   81.5947  222.1675 H   0  0  0  0  0  0  0  0  0  0  0  0
  141.4350   78.2632  224.5103 H   0  0  0  0  0  0  0  0  0  0  0  0
  139.3103   69.1142  227.0243 H   0  0  0  0  0  0  0  0  0  0  0  0
  139.9185   70.1119  229.2026 H   0  0  0  0  0  0  0  0  0  0  0  0
  141.2644   72.1792  229.3615 H   0  0  0  0  0  0  0  0  0  0  0  0
  142.0465   73.3180  227.2739 H   0  0  0  0  0  0  0  0  0  0  0  0
  141.4385   72.3223  225.0962 H   0  0  0  0  0  0  0  0  0  0  0  0
  1  2  1  0
  2  3  1  0
  3  4  1  0
  4  5  2  0
  4  6  1  0
  6  7  1  0
  7  8  1  0
  8  9  2  0
  8 10  1  0
 10 11  2  0
 11 12  1  0
 12 13  2  0
 13 14  1  0
 14 15  2  0
 15 16  1  0
 16 17  1  0
 16 18  2  0
 18 19  1  0
 19 20  2  0
  2 21  1  0
 21 22  2  0
 22 23  1  0
 23 24  2  0
 24 25  1  0
 25 26  2  0
 20 10  1  0
 26 21  1  0
 19 13  1  0
  1 27  1  0
  1 28  1  0
  1 29  1  0
  2 30  1  6
  3 31  1  0
  6 32  1  0
  6 33  1  0
  7 34  1  0
 11 35  1  0
 12 36  1  0
 14 37  1  0
 15 38  1  0
 18 39  1  0
 22 40  1  0
 23 41  1  0
 24 42  1  0
 25 43  1  0
 26 44  1  0
M  END
>  <smiles>  (33) 
C[C@@H](NC(=O)CNC(=O)c1ccc2ccc(F)cc2n1)c1ccccc1

>  <score_type>  (33) 
oracle

>  <origin>  (33) 
autodockgpu

>  <m_score__min__energy>  (33) 
-8.6699999999999999

>  <m_primary>  (33) 
energy

>  <rmsd>  (33) 
9.99429694924012

>  <m_score__min__rmsd>  (33) 
9.99429694924012

>  <meeko>  (33) 
{"free_energy": -8.42, "intermolecular_energy": -9.91, "internal_energy": -1.06, "cluster_size": 11, "cluster_id": 1, "rank_in_cluster": 7}

>  <energy>  (33) 
-7.73

>  <cluster_rmsd>  (33) 
0.34

>  <cluster>  (33) 
3

$$$$

     RDKit          3D

 44 46  0  0  0  0  0  0  0  0999 V2000
  139.3840   67.7950  226.2950 C   0  0  0  0  0  0  0  0  0  0  0  0
  139.9000   68.9570  225.4720 C   0  0  1  0  0  0  0  0  0  0  0  0
  138.8400   69.3850  224.5890 N   0  0  0  0  0  0  0  0  0  0  0  0
  138.3300   68.4980  223.6000 C   0  0  0  0  0  0  0  0  0  0  0  0
  138.8090   67.3360  223.4990 O   0  0  0  0  0  0  0  0  0  0  0  0
  137.2420   69.0120  222.7320 C   0  0  0  0  0  0  0  0  0  0  0  0
  136.2330   69.7230  223.4890 N   0  0  0  0  0  0  0  0  0  0  0  0
  136.4460   71.1140  223.7010 C   0  0  0  0  0  0  0  0  0  0  0  0
  137.4950   71.6060  223.2100 O   0  0  0  0  0  0  0  0  0  0  0  0
  135.4870   71.9200  224.4520 C   0  0  0  0  0  0  0  0  0  0  0  0
  135.5460   73.2950  224.3040 C   0  0  0  0  0  0  0  0  0  0  0  0
  134.6910   74.1430  224.9650 C   0  0  0  0  0  0  0  0  0  0  0  0
  133.7480   73.5820  225.8000 C   0  0  0  0  0  0  0  0  0  0  0  0
  132.8730   74.3930  226.4800 C   0  0  0  0  0  0  0  0  0  0  0  0
  131.9280   73.8450  227.3170 C   0  0  0  0  0  0  0  0  0  0  0  0
  131.8570   72.4750  227.4740 C   0  0  0  0  0  0  0  0  0  0  0  0
  130.9180   71.9450  228.3030 F   0  0  0  0  0  0  0  0  0  0  0  0
  132.7450   71.6720  226.7820 C   0  0  0  0  0  0  0  0  0  0  0  0
  133.6990   72.2000  225.9400 C   0  0  0  0  0  0  0  0  0  0  0  0
  134.5670   71.4240  225.2630 N   0  0  0  0  0  0  0  0  0  0  0  0
  140.3030   70.1010  226.3010 C   0  0  0  0  0  0  0  0  0  0  0  0
  139.8980   70.1380  227.6210 C   0  0  0  0  0  0  0  0  0  0  0  0
  140.2920   71.2200  228.3670 C   0  0  0  0  0  0  0  0  0  0  0  0
  141.0670   72.2550  227.8490 C   0  0  0  0  0  0  0  0  0  0  0  0
  141.4690   72.2130  226.5280 C   0  0  0  0  0  0  0  0  0  0  0  0
  141.0760   71.1310  225.7800 C   0  0  0  0  0  0  0  0  0  0  0  0
  139.4878   68.0287  227.3649 H   0  0  0  0  0  0  0  0  0  0  0  0
  138.3239   67.6207  226.0589 H   0  0  0  0  0  0  0  0  0  0  0  0
  139.9656   66.8916  226.0589 H   0  0  0  0  0  0  0  0  0  0  0  0
  140.7885   68.6153  224.9209 H   0  0  0  0  0  0  0  0  0  0  0  0
  138.4520   70.3580  224.6870 H   0  0  0  0  0  0  0  0  0  0  0  0
  137.6751   69.6963  221.9876 H   0  0  0  0  0  0  0  0  0  0  0  0
  136.7587   68.1507  222.2477 H   0  0  0  0  0  0  0  0  0  0  0  0
  135.3760   69.2520  223.8740 H   0  0  0  0  0  0  0  0  0  0  0  0
  136.3048   73.7240  223.6330 H   0  0  0  0  0  0  0  0  0  0  0  0
  134.7564   75.2330  224.8326 H   0  0  0  0  0  0  0  0  0  0  0  0
  132.9276   75.4845  226.3552 H   0  0  0  0  0  0  0  0  0  0  0  0
  131.2295   74.4981  227.8607 H   0  0  0  0  0  0  0  0  0  0  0  0
  132.6880   70.5807  226.9074 H   0  0  0  0  0  0  0  0  0  0  0  0
  139.2856   69.3342  228.0557 H   0  0  0  0  0  0  0  0  0  0  0  0
  139.9821   71.2724  229.4211 H   0  0  0  0  0  0  0  0  0  0  0  0
  141.3575   73.1015  228.4886 H   0  0  0  0  0  0  0  0  0  0  0  0
  142.0810   73.0163  226.0919 H   0  0  0  0  0  0  0  0  0  0  0  0
  141.3856   71.0775  224.7258 H   0  0  0  0  0  0  0  0  0  0  0  0
  1  2  1  0
  2  3  1  0
  3  4  1  0
  4  5  2  0
  4  6  1  0
  6  7  1  0
  7  8  1  0
  8  9  2  0
  8 10  1  0
 10 11  2  0
 11 12  1  0
 12 13  2  0
 13 14  1  0
 14 15  2  0
 15 16  1  0
 16 17  1  0
 16 18  2  0
 18 19  1  0
 19 20  2  0
  2 21  1  0
 21 22  2  0
 22 23  1  0
 23 24  2  0
 24 25  1  0
 25 26  2  0
 20 10  1  0
 26 21  1  0
 19 13  1  0
  1 27  1  0
  1 28  1  0
  1 29  1  0
  2 30  1  6
  3 31  1  0
  6 32  1  0
  6 33  1  0
  7 34  1  0
 11 35  1  0
 12 36  1  0
 14 37  1  0
 15 38  1  0
 18 39  1  0
 22 40  1  0
 23 41  1  0
 24 42  1  0
 25 43  1  0
 26 44  1  0
M  END
>  <smiles>  (34) 
C[C@@H](NC(=O)CNC(=O)c1ccc2ccc(F)cc2n1)c1ccccc1

>  <score_type>  (34) 
oracle

>  <origin>  (34) 
autodockgpu

>  <m_score__min__energy>  (34) 
-8.6699999999999999

>  <m_primary>  (34) 
energy

>  <rmsd>  (34) 
10.000188449466812

>  <m_score__min__rmsd>  (34) 
10.000188449466812

>  <meeko>  (34) 
{"free_energy": -7.17, "intermolecular_energy": -8.66, "internal_energy": -1.9, "cluster_size": 16, "cluster_id": 2, "rank_in_cluster": 16}

>  <energy>  (34) 
-7.72

>  <cluster_rmsd>  (34) 
0.35

>  <cluster>  (34) 
3

$$$$

     RDKit          3D

 44 46  0  0  0  0  0  0  0  0999 V2000
  139.5020   67.8860  225.5310 C   0  0  0  0  0  0  0  0  0  0  0  0
  139.9170   69.2520  225.0270 C   0  0  1  0  0  0  0  0  0  0  0  0
  138.8110   69.8090  224.2820 N   0  0  0  0  0  0  0  0  0  0  0  0
  139.0490   70.7490  223.2410 C   0  0  0  0  0  0  0  0  0  0  0  0
  140.2310   71.0940  222.9720 O   0  0  0  0  0  0  0  0  0  0  0  0
  137.8620   71.2730  222.5230 C   0  0  0  0  0  0  0  0  0  0  0  0
  136.9560   71.9730  223.4100 N   0  0  0  0  0  0  0  0  0  0  0  0
  135.9430   71.1980  224.0430 C   0  0  0  0  0  0  0  0  0  0  0  0
  135.9240   69.9690  223.7750 O   0  0  0  0  0  0  0  0  0  0  0  0
  134.9810   71.8110  224.9540 C   0  0  0  0  0  0  0  0  0  0  0  0
  134.1690   70.9690  225.6940 C   0  0  0  0  0  0  0  0  0  0  0  0
  133.2310   71.4430  226.5790 C   0  0  0  0  0  0  0  0  0  0  0  0
  133.1120   72.8090  226.7190 C   0  0  0  0  0  0  0  0  0  0  0  0
  132.1870   73.3250  227.5940 C   0  0  0  0  0  0  0  0  0  0  0  0
  132.0590   74.6870  227.7420 C   0  0  0  0  0  0  0  0  0  0  0  0
  132.8620   75.5390  227.0110 C   0  0  0  0  0  0  0  0  0  0  0  0
  132.7270   76.8840  227.1670 F   0  0  0  0  0  0  0  0  0  0  0  0
  133.7880   75.0040  226.1350 C   0  0  0  0  0  0  0  0  0  0  0  0
  133.9330   73.6440  225.9710 C   0  0  0  0  0  0  0  0  0  0  0  0
  134.8330   73.1160  225.1200 N   0  0  0  0  0  0  0  0  0  0  0  0
  140.2550   70.1780  226.1160 C   0  0  0  0  0  0  0  0  0  0  0  0
  139.7000   69.9650  227.3630 C   0  0  0  0  0  0  0  0  0  0  0  0
  140.0370   70.8480  228.3570 C   0  0  0  0  0  0  0  0  0  0  0  0
  140.8980   71.9240  228.1550 C   0  0  0  0  0  0  0  0  0  0  0  0
  141.4500   72.1320  226.9060 C   0  0  0  0  0  0  0  0  0  0  0  0
  141.1150   71.2500  225.9090 C   0  0  0  0  0  0  0  0  0  0  0  0
  139.5019   67.8855  226.6310 H   0  0  0  0  0  0  0  0  0  0  0  0
  138.4919   67.6511  225.1641 H   0  0  0  0  0  0  0  0  0  0  0  0
  140.2107   67.1289  225.1641 H   0  0  0  0  0  0  0  0  0  0  0  0
  140.8162   69.1258  224.4061 H   0  0  0  0  0  0  0  0  0  0  0  0
  137.8300   69.5090  224.5200 H   0  0  0  0  0  0  0  0  0  0  0  0
  138.1990   71.9676  221.7394 H   0  0  0  0  0  0  0  0  0  0  0  0
  137.3214   70.4178  222.0913 H   0  0  0  0  0  0  0  0  0  0  0  0
  137.0240   73.0070  223.5910 H   0  0  0  0  0  0  0  0  0  0  0  0
  134.2786   69.8816  225.5691 H   0  0  0  0  0  0  0  0  0  0  0  0
  132.5961   70.7551  227.1566 H   0  0  0  0  0  0  0  0  0  0  0  0
  131.5468   72.6473  228.1779 H   0  0  0  0  0  0  0  0  0  0  0  0
  131.3168   75.0968  228.4429 H   0  0  0  0  0  0  0  0  0  0  0  0
  134.4272   75.6836  225.5523 H   0  0  0  0  0  0  0  0  0  0  0  0
  139.0171   69.1233  227.5507 H   0  0  0  0  0  0  0  0  0  0  0  0
  139.6079   70.6997  229.3589 H   0  0  0  0  0  0  0  0  0  0  0  0
  141.1371   72.6044  228.9856 H   0  0  0  0  0  0  0  0  0  0  0  0
  142.1329   72.9735  226.7173 H   0  0  0  0  0  0  0  0  0  0  0  0
  141.5440   71.3974  224.9069 H   0  0  0  0  0  0  0  0  0  0  0  0
  1  2  1  0
  2  3  1  0
  3  4  1  0
  4  5  2  0
  4  6  1  0
  6  7  1  0
  7  8  1  0
  8  9  2  0
  8 10  1  0
 10 11  2  0
 11 12  1  0
 12 13  2  0
 13 14  1  0
 14 15  2  0
 15 16  1  0
 16 17  1  0
 16 18  2  0
 18 19  1  0
 19 20  2  0
  2 21  1  0
 21 22  2  0
 22 23  1  0
 23 24  2  0
 24 25  1  0
 25 26  2  0
 20 10  1  0
 26 21  1  0
 19 13  1  0
  1 27  1  0
  1 28  1  0
  1 29  1  0
  2 30  1  6
  3 31  1  0
  6 32  1  0
  6 33  1  0
  7 34  1  0
 11 35  1  0
 12 36  1  0
 14 37  1  0
 15 38  1  0
 18 39  1  0
 22 40  1  0
 23 41  1  0
 24 42  1  0
 25 43  1  0
 26 44  1  0
M  END
>  <smiles>  (35) 
C[C@@H](NC(=O)CNC(=O)c1ccc2ccc(F)cc2n1)c1ccccc1

>  <score_type>  (35) 
oracle

>  <origin>  (35) 
autodockgpu

>  <m_score__min__energy>  (35) 
-8.6699999999999999

>  <m_primary>  (35) 
energy

>  <rmsd>  (35) 
9.888493371947266

>  <m_score__min__rmsd>  (35) 
9.888493371947266

>  <meeko>  (35) 
{"free_energy": -7.7, "intermolecular_energy": -9.2, "internal_energy": -2.01, "cluster_size": 16, "cluster_id": 2, "rank_in_cluster": 5}

>  <energy>  (35) 
-7.72

>  <cluster_rmsd>  (35) 
0.17

>  <cluster>  (35) 
3

$$$$

     RDKit          3D

 44 46  0  0  0  0  0  0  0  0999 V2000
  139.5690   67.7720  225.7380 C   0  0  0  0  0  0  0  0  0  0  0  0
  140.3380   69.0250  225.3740 C   0  0  1  0  0  0  0  0  0  0  0  0
  139.7100   69.6140  224.2140 N   0  0  0  0  0  0  0  0  0  0  0  0
  138.3260   69.9410  224.2360 C   0  0  0  0  0  0  0  0  0  0  0  0
  137.6490   69.7130  225.2750 O   0  0  0  0  0  0  0  0  0  0  0  0
  137.7560   70.5430  223.0060 C   0  0  0  0  0  0  0  0  0  0  0  0
  138.1690   71.9200  222.8340 N   0  0  0  0  0  0  0  0  0  0  0  0
  139.3910   72.1470  222.1400 C   0  0  0  0  0  0  0  0  0  0  0  0
  140.0080   71.1280  221.7350 O   0  0  0  0  0  0  0  0  0  0  0  0
  139.8940   73.4990  221.9160 C   0  0  0  0  0  0  0  0  0  0  0  0
  141.0650   73.6390  221.1920 C   0  0  0  0  0  0  0  0  0  0  0  0
  141.6230   74.8670  220.9250 C   0  0  0  0  0  0  0  0  0  0  0  0
  140.9750   75.9850  221.4050 C   0  0  0  0  0  0  0  0  0  0  0  0
  141.4980   77.2310  221.1610 C   0  0  0  0  0  0  0  0  0  0  0  0
  140.8600   78.3550  221.6350 C   0  0  0  0  0  0  0  0  0  0  0  0
  139.6910   78.2310  222.3580 C   0  0  0  0  0  0  0  0  0  0  0  0
  139.0690   79.3490  222.8210 F   0  0  0  0  0  0  0  0  0  0  0  0
  139.1770   76.9690  222.5950 C   0  0  0  0  0  0  0  0  0  0  0  0
  139.7990   75.8310  222.1300 C   0  0  0  0  0  0  0  0  0  0  0  0
  139.3040   74.5990  222.3570 N   0  0  0  0  0  0  0  0  0  0  0  0
  140.3420   70.0200  226.4550 C   0  0  0  0  0  0  0  0  0  0  0  0
  141.0840   71.1740  226.2890 C   0  0  0  0  0  0  0  0  0  0  0  0
  141.0660   72.0820  227.3170 C   0  0  0  0  0  0  0  0  0  0  0  0
  140.3430   71.8830  228.4910 C   0  0  0  0  0  0  0  0  0  0  0  0
  139.6020   70.7280  228.6500 C   0  0  0  0  0  0  0  0  0  0  0  0
  139.6190   69.8180  227.6240 C   0  0  0  0  0  0  0  0  0  0  0  0
  139.5132   67.6811  226.8328 H   0  0  0  0  0  0  0  0  0  0  0  0
  138.5522   67.8322  225.3228 H   0  0  0  0  0  0  0  0  0  0  0  0
  140.0831   66.8926  225.3228 H   0  0  0  0  0  0  0  0  0  0  0  0
  141.3825   68.7386  225.1816 H   0  0  0  0  0  0  0  0  0  0  0  0
  140.2910   69.7980  223.3550 H   0  0  0  0  0  0  0  0  0  0  0  0
  138.0930   69.9599  222.1363 H   0  0  0  0  0  0  0  0  0  0  0  0
  136.6598   70.5260  223.0961 H   0  0  0  0  0  0  0  0  0  0  0  0
  137.6070   72.7310  223.1980 H   0  0  0  0  0  0  0  0  0  0  0  0
  141.5675   72.7354  220.8166 H   0  0  0  0  0  0  0  0  0  0  0  0
  142.5553   74.9543  220.3477 H   0  0  0  0  0  0  0  0  0  0  0  0
  142.4297   77.3313  220.5849 H   0  0  0  0  0  0  0  0  0  0  0  0
  141.2818   79.3516  221.4376 H   0  0  0  0  0  0  0  0  0  0  0  0
  138.2451   76.8711  223.1711 H   0  0  0  0  0  0  0  0  0  0  0  0
  141.6639   71.3565  225.3723 H   0  0  0  0  0  0  0  0  0  0  0  0
  141.6486   73.0088  227.2095 H   0  0  0  0  0  0  0  0  0  0  0  0
  140.3620   72.6416  229.2873 H   0  0  0  0  0  0  0  0  0  0  0  0
  139.0201   70.5450  229.5653 H   0  0  0  0  0  0  0  0  0  0  0  0
  139.0367   68.8909  227.7310 H   0  0  0  0  0  0  0  0  0  0  0  0
  1  2  1  0
  2  3  1  0
  3  4  1  0
  4  5  2  0
  4  6  1  0
  6  7  1  0
  7  8  1  0
  8  9  2  0
  8 10  1  0
 10 11  2  0
 11 12  1  0
 12 13  2  0
 13 14  1  0
 14 15  2  0
 15 16  1  0
 16 17  1  0
 16 18  2  0
 18 19  1  0
 19 20  2  0
  2 21  1  0
 21 22  2  0
 22 23  1  0
 23 24  2  0
 24 25  1  0
 25 26  2  0
 20 10  1  0
 26 21  1  0
 19 13  1  0
  1 27  1  0
  1 28  1  0
  1 29  1  0
  2 30  1  6
  3 31  1  0
  6 32  1  0
  6 33  1  0
  7 34  1  0
 11 35  1  0
 12 36  1  0
 14 37  1  0
 15 38  1  0
 18 39  1  0
 22 40  1  0
 23 41  1  0
 24 42  1  0
 25 43  1  0
 26 44  1  0
M  END
>  <smiles>  (36) 
C[C@@H](NC(=O)CNC(=O)c1ccc2ccc(F)cc2n1)c1ccccc1

>  <score_type>  (36) 
oracle

>  <origin>  (36) 
autodockgpu

>  <m_score__min__energy>  (36) 
-8.6699999999999999

>  <m_primary>  (36) 
energy

>  <rmsd>  (36) 
10.061487072171609

>  <m_score__min__rmsd>  (36) 
10.061487072171609

>  <meeko>  (36) 
{"free_energy": -7.69, "intermolecular_energy": -9.18, "internal_energy": -1.97, "cluster_size": 23, "cluster_id": 3, "rank_in_cluster": 15}

>  <energy>  (36) 
-7.71

>  <cluster_rmsd>  (36) 
0.4

>  <cluster>  (36) 
3

$$$$

     RDKit          3D

 44 46  0  0  0  0  0  0  0  0999 V2000
  139.6540   67.3740  226.5240 C   0  0  0  0  0  0  0  0  0  0  0  0
  139.7720   68.5680  225.6000 C   0  0  1  0  0  0  0  0  0  0  0  0
  138.5000   68.7520  224.9420 N   0  0  0  0  0  0  0  0  0  0  0  0
  138.4480   69.2440  223.6080 C   0  0  0  0  0  0  0  0  0  0  0  0
  139.5190   69.5190  223.0040 O   0  0  0  0  0  0  0  0  0  0  0  0
  137.1030   69.4050  223.0020 C   0  0  0  0  0  0  0  0  0  0  0  0
  136.3450   70.4650  223.6350 N   0  0  0  0  0  0  0  0  0  0  0  0
  135.5070   70.0980  224.7250 C   0  0  0  0  0  0  0  0  0  0  0  0
  135.4980   68.8810  225.0450 O   0  0  0  0  0  0  0  0  0  0  0  0
  134.7020   71.0920  225.4280 C   0  0  0  0  0  0  0  0  0  0  0  0
  133.7800   70.6370  226.3550 C   0  0  0  0  0  0  0  0  0  0  0  0
  132.9740   71.4890  227.0700 C   0  0  0  0  0  0  0  0  0  0  0  0
  133.1050   72.8420  226.8410 C   0  0  0  0  0  0  0  0  0  0  0  0
  132.3190   73.7280  227.5350 C   0  0  0  0  0  0  0  0  0  0  0  0
  132.4410   75.0810  227.3140 C   0  0  0  0  0  0  0  0  0  0  0  0
  133.3560   75.5510  226.3930 C   0  0  0  0  0  0  0  0  0  0  0  0
  133.4670   76.8910  226.1840 F   0  0  0  0  0  0  0  0  0  0  0  0
  134.1400   74.6450  225.7030 C   0  0  0  0  0  0  0  0  0  0  0  0
  134.0340   73.2870  225.9080 C   0  0  0  0  0  0  0  0  0  0  0  0
  134.7950   72.3990  225.2390 N   0  0  0  0  0  0  0  0  0  0  0  0
  140.1080   69.8060  226.3160 C   0  0  0  0  0  0  0  0  0  0  0  0
  140.8740   70.7570  225.6700 C   0  0  0  0  0  0  0  0  0  0  0  0
  141.1700   71.9020  226.3650 C   0  0  0  0  0  0  0  0  0  0  0  0
  140.7330   72.1290  227.6680 C   0  0  0  0  0  0  0  0  0  0  0  0
  139.9680   71.1750  228.3100 C   0  0  0  0  0  0  0  0  0  0  0  0
  139.6710   70.0290  227.6160 C   0  0  0  0  0  0  0  0  0  0  0  0
  139.6877   67.7146  227.5694 H   0  0  0  0  0  0  0  0  0  0  0  0
  138.7005   66.8584  226.3369 H   0  0  0  0  0  0  0  0  0  0  0  0
  140.4881   66.6817  226.3369 H   0  0  0  0  0  0  0  0  0  0  0  0
  140.5841   68.3659  224.8861 H   0  0  0  0  0  0  0  0  0  0  0  0
  137.6150   68.5170  225.4620 H   0  0  0  0  0  0  0  0  0  0  0  0
  137.2208   69.6417  221.9342 H   0  0  0  0  0  0  0  0  0  0  0  0
  136.5523   68.4632  223.1429 H   0  0  0  0  0  0  0  0  0  0  0  0
  136.3960   71.4660  223.3180 H   0  0  0  0  0  0  0  0  0  0  0  0
  133.6896   69.5540  226.5251 H   0  0  0  0  0  0  0  0  0  0  0  0
  132.2479   71.1043  227.8013 H   0  0  0  0  0  0  0  0  0  0  0  0
  131.5898   73.3557  228.2696 H   0  0  0  0  0  0  0  0  0  0  0  0
  131.8092   75.7882  227.8714 H   0  0  0  0  0  0  0  0  0  0  0  0
  134.8692   75.0193  224.9694 H   0  0  0  0  0  0  0  0  0  0  0  0
  141.2316   70.6025  224.6413 H   0  0  0  0  0  0  0  0  0  0  0  0
  141.7788   72.6743  225.8721 H   0  0  0  0  0  0  0  0  0  0  0  0
  140.9962   73.0644  228.1836 H   0  0  0  0  0  0  0  0  0  0  0  0
  139.6103   71.3280  229.3389 H   0  0  0  0  0  0  0  0  0  0  0  0
  139.0627   69.2561  228.1085 H   0  0  0  0  0  0  0  0  0  0  0  0
  1  2  1  0
  2  3  1  0
  3  4  1  0
  4  5  2  0
  4  6  1  0
  6  7  1  0
  7  8  1  0
  8  9  2  0
  8 10  1  0
 10 11  2  0
 11 12  1  0
 12 13  2  0
 13 14  1  0
 14 15  2  0
 15 16  1  0
 16 17  1  0
 16 18  2  0
 18 19  1  0
 19 20  2  0
  2 21  1  0
 21 22  2  0
 22 23  1  0
 23 24  2  0
 24 25  1  0
 25 26  2  0
 20 10  1  0
 26 21  1  0
 19 13  1  0
  1 27  1  0
  1 28  1  0
  1 29  1  0
  2 30  1  6
  3 31  1  0
  6 32  1  0
  6 33  1  0
  7 34  1  0
 11 35  1  0
 12 36  1  0
 14 37  1  0
 15 38  1  0
 18 39  1  0
 22 40  1  0
 23 41  1  0
 24 42  1  0
 25 43  1  0
 26 44  1  0
M  END
>  <smiles>  (37) 
C[C@@H](NC(=O)CNC(=O)c1ccc2ccc(F)cc2n1)c1ccccc1

>  <score_type>  (37) 
oracle

>  <origin>  (37) 
autodockgpu

>  <m_score__min__energy>  (37) 
-8.6699999999999999

>  <m_primary>  (37) 
energy

>  <rmsd>  (37) 
10.492889798466278

>  <m_score__min__rmsd>  (37) 
10.492889798466278

>  <meeko>  (37) 
{"free_energy": -7.59, "intermolecular_energy": -9.08, "internal_energy": -2.01, "cluster_size": 16, "cluster_id": 2, "rank_in_cluster": 12}

>  <energy>  (37) 
-7.71

>  <cluster_rmsd>  (37) 
0.36

>  <cluster>  (37) 
3

$$$$

     RDKit          3D

 44 46  0  0  0  0  0  0  0  0999 V2000
  139.5960   67.7850  225.7910 C   0  0  0  0  0  0  0  0  0  0  0  0
  140.3470   69.0530  225.4430 C   0  0  1  0  0  0  0  0  0  0  0  0
  139.7140   69.6450  224.2870 N   0  0  0  0  0  0  0  0  0  0  0  0
  138.3240   69.9510  224.3090 C   0  0  0  0  0  0  0  0  0  0  0  0
  137.6480   69.7030  225.3440 O   0  0  0  0  0  0  0  0  0  0  0  0
  137.7490   70.5580  223.0840 C   0  0  0  0  0  0  0  0  0  0  0  0
  138.1740   71.9310  222.9060 N   0  0  0  0  0  0  0  0  0  0  0  0
  139.3740   72.1460  222.1710 C   0  0  0  0  0  0  0  0  0  0  0  0
  139.9620   71.1220  221.7380 O   0  0  0  0  0  0  0  0  0  0  0  0
  139.8860   73.4930  221.9380 C   0  0  0  0  0  0  0  0  0  0  0  0
  141.0560   73.6200  221.2090 C   0  0  0  0  0  0  0  0  0  0  0  0
  141.6220   74.8410  220.9330 C   0  0  0  0  0  0  0  0  0  0  0  0
  140.9850   75.9670  221.4100 C   0  0  0  0  0  0  0  0  0  0  0  0
  141.5170   77.2080  221.1580 C   0  0  0  0  0  0  0  0  0  0  0  0
  140.8910   78.3390  221.6290 C   0  0  0  0  0  0  0  0  0  0  0  0
  139.7230   78.2290  222.3570 C   0  0  0  0  0  0  0  0  0  0  0  0
  139.1120   79.3540  222.8170 F   0  0  0  0  0  0  0  0  0  0  0  0
  139.2000   76.9720  222.6030 C   0  0  0  0  0  0  0  0  0  0  0  0
  139.8110   75.8270  222.1410 C   0  0  0  0  0  0  0  0  0  0  0  0
  139.3080   74.6000  222.3760 N   0  0  0  0  0  0  0  0  0  0  0  0
  140.3330   70.0370  226.5340 C   0  0  0  0  0  0  0  0  0  0  0  0
  139.5870   69.7620  227.6640 C   0  0  0  0  0  0  0  0  0  0  0  0
  139.5950   70.7000  228.6640 C   0  0  0  0  0  0  0  0  0  0  0  0
  140.3140   71.8910  228.5780 C   0  0  0  0  0  0  0  0  0  0  0  0
  141.0580   72.1610  227.4460 C   0  0  0  0  0  0  0  0  0  0  0  0
  141.0510   71.2230  226.4440 C   0  0  0  0  0  0  0  0  0  0  0  0
  139.5356   67.6830  226.8846 H   0  0  0  0  0  0  0  0  0  0  0  0
  138.5806   67.8331  225.3706 H   0  0  0  0  0  0  0  0  0  0  0  0
  140.1262   66.9177  225.3706 H   0  0  0  0  0  0  0  0  0  0  0  0
  141.3962   68.7838  225.2514 H   0  0  0  0  0  0  0  0  0  0  0  0
  140.2930   69.8470  223.4320 H   0  0  0  0  0  0  0  0  0  0  0  0
  138.0720   69.9707  222.2118 H   0  0  0  0  0  0  0  0  0  0  0  0
  136.6537   70.5525  223.1850 H   0  0  0  0  0  0  0  0  0  0  0  0
  137.6360   72.7470  223.2950 H   0  0  0  0  0  0  0  0  0  0  0  0
  141.5504   72.7104  220.8373 H   0  0  0  0  0  0  0  0  0  0  0  0
  142.5522   74.9178  220.3509 H   0  0  0  0  0  0  0  0  0  0  0  0
  142.4470   77.2979  220.5775 H   0  0  0  0  0  0  0  0  0  0  0  0
  141.3210   79.3308  221.4256 H   0  0  0  0  0  0  0  0  0  0  0  0
  138.2700   76.8844  223.1839 H   0  0  0  0  0  0  0  0  0  0  0  0
  139.0108   68.8296  227.7574 H   0  0  0  0  0  0  0  0  0  0  0  0
  139.0085   70.5041  229.5737 H   0  0  0  0  0  0  0  0  0  0  0  0
  140.2890   72.6126  229.4079 H   0  0  0  0  0  0  0  0  0  0  0  0
  141.6346   73.0930  227.3511 H   0  0  0  0  0  0  0  0  0  0  0  0
  141.6370   71.4180  225.5337 H   0  0  0  0  0  0  0  0  0  0  0  0
  1  2  1  0
  2  3  1  0
  3  4  1  0
  4  5  2  0
  4  6  1  0
  6  7  1  0
  7  8  1  0
  8  9  2  0
  8 10  1  0
 10 11  2  0
 11 12  1  0
 12 13  2  0
 13 14  1  0
 14 15  2  0
 15 16  1  0
 16 17  1  0
 16 18  2  0
 18 19  1  0
 19 20  2  0
  2 21  1  0
 21 22  2  0
 22 23  1  0
 23 24  2  0
 24 25  1  0
 25 26  2  0
 20 10  1  0
 26 21  1  0
 19 13  1  0
  1 27  1  0
  1 28  1  0
  1 29  1  0
  2 30  1  6
  3 31  1  0
  6 32  1  0
  6 33  1  0
  7 34  1  0
 11 35  1  0
 12 36  1  0
 14 37  1  0
 15 38  1  0
 18 39  1  0
 22 40  1  0
 23 41  1  0
 24 42  1  0
 25 43  1  0
 26 44  1  0
M  END
>  <smiles>  (38) 
C[C@@H](NC(=O)CNC(=O)c1ccc2ccc(F)cc2n1)c1ccccc1

>  <score_type>  (38) 
oracle

>  <origin>  (38) 
autodockgpu

>  <m_score__min__energy>  (38) 
-8.6699999999999999

>  <m_primary>  (38) 
energy

>  <rmsd>  (38) 
9.87696742058062

>  <m_score__min__rmsd>  (38) 
9.87696742058062

>  <meeko>  (38) 
{"free_energy": -7.7, "intermolecular_energy": -9.19, "internal_energy": -1.95, "cluster_size": 23, "cluster_id": 3, "rank_in_cluster": 13}

>  <energy>  (38) 
-7.71

>  <cluster_rmsd>  (38) 
0.22

>  <cluster>  (38) 
3

$$$$

     RDKit          3D

 44 46  0  0  0  0  0  0  0  0999 V2000
  139.5470   67.7850  225.7240 C   0  0  0  0  0  0  0  0  0  0  0  0
  140.3270   69.0310  225.3600 C   0  0  1  0  0  0  0  0  0  0  0  0
  139.7110   69.6190  224.1930 N   0  0  0  0  0  0  0  0  0  0  0  0
  138.3460   70.0200  224.2270 C   0  0  0  0  0  0  0  0  0  0  0  0
  137.6770   69.8600  225.2830 O   0  0  0  0  0  0  0  0  0  0  0  0
  137.7880   70.6150  222.9890 C   0  0  0  0  0  0  0  0  0  0  0  0
  138.3550   71.9180  222.7090 N   0  0  0  0  0  0  0  0  0  0  0  0
  139.5250   71.9530  221.8990 C   0  0  0  0  0  0  0  0  0  0  0  0
  139.9660   70.8460  221.4970 O   0  0  0  0  0  0  0  0  0  0  0  0
  140.1730   73.2170  221.5610 C   0  0  0  0  0  0  0  0  0  0  0  0
  141.1590   73.1960  220.5890 C   0  0  0  0  0  0  0  0  0  0  0  0
  141.8300   74.3290  220.1970 C   0  0  0  0  0  0  0  0  0  0  0  0
  141.4920   75.5180  220.8060 C   0  0  0  0  0  0  0  0  0  0  0  0
  142.1380   76.6750  220.4440 C   0  0  0  0  0  0  0  0  0  0  0  0
  141.8100   77.8690  221.0460 C   0  0  0  0  0  0  0  0  0  0  0  0
  140.8290   77.9060  222.0160 C   0  0  0  0  0  0  0  0  0  0  0  0
  140.5130   79.0920  222.6030 F   0  0  0  0  0  0  0  0  0  0  0  0
  140.1880   76.7330  222.3690 C   0  0  0  0  0  0  0  0  0  0  0  0
  140.5010   75.5270  221.7800 C   0  0  0  0  0  0  0  0  0  0  0  0
  139.8810   74.3810  222.1190 N   0  0  0  0  0  0  0  0  0  0  0  0
  140.3290   70.0320  226.4360 C   0  0  0  0  0  0  0  0  0  0  0  0
  141.0810   71.1790  226.2710 C   0  0  0  0  0  0  0  0  0  0  0  0
  141.0620   72.0930  227.2940 C   0  0  0  0  0  0  0  0  0  0  0  0
  140.3280   71.9050  228.4630 C   0  0  0  0  0  0  0  0  0  0  0  0
  139.5790   70.7560  228.6220 C   0  0  0  0  0  0  0  0  0  0  0  0
  139.5960   69.8400  227.6000 C   0  0  0  0  0  0  0  0  0  0  0  0
  139.4904   67.6946  226.8188 H   0  0  0  0  0  0  0  0  0  0  0  0
  138.5307   67.8542  225.3088 H   0  0  0  0  0  0  0  0  0  0  0  0
  140.0533   66.9011  225.3088 H   0  0  0  0  0  0  0  0  0  0  0  0
  141.3709   68.7363  225.1771 H   0  0  0  0  0  0  0  0  0  0  0  0
  140.2850   69.7460  223.3190 H   0  0  0  0  0  0  0  0  0  0  0  0
  138.0045   69.9447  222.1441 H   0  0  0  0  0  0  0  0  0  0  0  0
  136.7043   70.7398  223.1309 H   0  0  0  0  0  0  0  0  0  0  0  0
  137.9370   72.8100  223.0770 H   0  0  0  0  0  0  0  0  0  0  0  0
  141.4143   72.2375  220.1135 H   0  0  0  0  0  0  0  0  0  0  0  0
  142.6107   74.2884  219.4231 H   0  0  0  0  0  0  0  0  0  0  0  0
  142.9198   76.6475  219.6707 H   0  0  0  0  0  0  0  0  0  0  0  0
  142.3298   78.7934  220.7539 H   0  0  0  0  0  0  0  0  0  0  0  0
  139.4059   76.7632  223.1420 H   0  0  0  0  0  0  0  0  0  0  0  0
  141.6700   71.3521  225.3582 H   0  0  0  0  0  0  0  0  0  0  0  0
  141.6524   73.0149  227.1864 H   0  0  0  0  0  0  0  0  0  0  0  0
  140.3450   72.6679  229.2552 H   0  0  0  0  0  0  0  0  0  0  0  0
  138.9901   70.5811  229.5345 H   0  0  0  0  0  0  0  0  0  0  0  0
  139.0060   68.9178  227.7070 H   0  0  0  0  0  0  0  0  0  0  0  0
  1  2  1  0
  2  3  1  0
  3  4  1  0
  4  5  2  0
  4  6  1  0
  6  7  1  0
  7  8  1  0
  8  9  2  0
  8 10  1  0
 10 11  2  0
 11 12  1  0
 12 13  2  0
 13 14  1  0
 14 15  2  0
 15 16  1  0
 16 17  1  0
 16 18  2  0
 18 19  1  0
 19 20  2  0
  2 21  1  0
 21 22  2  0
 22 23  1  0
 23 24  2  0
 24 25  1  0
 25 26  2  0
 20 10  1  0
 26 21  1  0
 19 13  1  0
  1 27  1  0
  1 28  1  0
  1 29  1  0
  2 30  1  6
  3 31  1  0
  6 32  1  0
  6 33  1  0
  7 34  1  0
 11 35  1  0
 12 36  1  0
 14 37  1  0
 15 38  1  0
 18 39  1  0
 22 40  1  0
 23 41  1  0
 24 42  1  0
 25 43  1  0
 26 44  1  0
M  END
>  <smiles>  (39) 
C[C@@H](NC(=O)CNC(=O)c1ccc2ccc(F)cc2n1)c1ccccc1

>  <score_type>  (39) 
oracle

>  <origin>  (39) 
autodockgpu

>  <m_score__min__energy>  (39) 
-8.6699999999999999

>  <m_primary>  (39) 
energy

>  <rmsd>  (39) 
10.082182406939925

>  <m_score__min__rmsd>  (39) 
10.082182406939925

>  <meeko>  (39) 
{"free_energy": -7.75, "intermolecular_energy": -9.24, "internal_energy": -1.95, "cluster_size": 23, "cluster_id": 3, "rank_in_cluster": 4}

>  <energy>  (39) 
-7.71

>  <cluster_rmsd>  (39) 
0.39

>  <cluster>  (39) 
3

$$$$

     RDKit          3D

 44 46  0  0  0  0  0  0  0  0999 V2000
  139.2540   69.2690  224.0410 C   0  0  0  0  0  0  0  0  0  0  0  0
  140.0780   70.5240  224.2400 C   0  0  1  0  0  0  0  0  0  0  0  0
  139.3650   71.6280  223.6400 N   0  0  0  0  0  0  0  0  0  0  0  0
  139.9350   72.3410  222.5490 C   0  0  0  0  0  0  0  0  0  0  0  0
  141.0680   72.0030  222.1080 O   0  0  0  0  0  0  0  0  0  0  0  0
  139.1410   73.4610  221.9880 C   0  0  0  0  0  0  0  0  0  0  0  0
  139.7600   74.7460  222.2400 N   0  0  0  0  0  0  0  0  0  0  0  0
  138.8890   75.8550  222.4340 C   0  0  0  0  0  0  0  0  0  0  0  0
  137.6540   75.6210  222.3690 O   0  0  0  0  0  0  0  0  0  0  0  0
  139.4140   77.1920  222.6940 C   0  0  0  0  0  0  0  0  0  0  0  0
  138.5040   78.2220  222.8560 C   0  0  0  0  0  0  0  0  0  0  0  0
  138.8930   79.5160  223.1040 C   0  0  0  0  0  0  0  0  0  0  0  0
  140.2440   79.7750  223.1910 C   0  0  0  0  0  0  0  0  0  0  0  0
  140.6770   81.0550  223.4380 C   0  0  0  0  0  0  0  0  0  0  0  0
  142.0230   81.3250  223.5260 C   0  0  0  0  0  0  0  0  0  0  0  0
  142.9440   80.3090  223.3670 C   0  0  0  0  0  0  0  0  0  0  0  0
  144.2720   80.5890  223.4580 F   0  0  0  0  0  0  0  0  0  0  0  0
  142.4920   79.0260  223.1190 C   0  0  0  0  0  0  0  0  0  0  0  0
  141.1490   78.7330  223.0270 C   0  0  0  0  0  0  0  0  0  0  0  0
  140.7020   77.4850  222.7850 N   0  0  0  0  0  0  0  0  0  0  0  0
  140.3040   70.8330  225.6580 C   0  0  0  0  0  0  0  0  0  0  0  0
  139.7080   70.0320  226.6130 C   0  0  0  0  0  0  0  0  0  0  0  0
  139.9390   70.3480  227.9280 C   0  0  0  0  0  0  0  0  0  0  0  0
  140.7340   71.4230  228.3200 C   0  0  0  0  0  0  0  0  0  0  0  0
  141.3280   72.2200  227.3600 C   0  0  0  0  0  0  0  0  0  0  0  0
  141.0980   71.9060  226.0450 C   0  0  0  0  0  0  0  0  0  0  0  0
  138.9797   68.8512  225.0209 H   0  0  0  0  0  0  0  0  0  0  0  0
  138.3411   69.5150  223.4788 H   0  0  0  0  0  0  0  0  0  0  0  0
  139.8427   68.5292  223.4788 H   0  0  0  0  0  0  0  0  0  0  0  0
  141.0612   70.3617  223.7742 H   0  0  0  0  0  0  0  0  0  0  0  0
  138.4210   71.8960  224.0200 H   0  0  0  0  0  0  0  0  0  0  0  0
  139.0465   73.3196  220.9012 H   0  0  0  0  0  0  0  0  0  0  0  0
  138.1559   73.4571  222.4775 H   0  0  0  0  0  0  0  0  0  0  0  0
  140.8020   74.8750  222.2810 H   0  0  0  0  0  0  0  0  0  0  0  0
  137.4298   77.9963  222.7835 H   0  0  0  0  0  0  0  0  0  0  0  0
  138.1512   80.3185  223.2290 H   0  0  0  0  0  0  0  0  0  0  0  0
  139.9454   81.8664  223.5658 H   0  0  0  0  0  0  0  0  0  0  0  0
  142.3658   82.3514  223.7232 H   0  0  0  0  0  0  0  0  0  0  0  0
  143.2256   78.2163  222.9916 H   0  0  0  0  0  0  0  0  0  0  0  0
  139.0753   69.1774  226.3311 H   0  0  0  0  0  0  0  0  0  0  0  0
  139.4760   69.7250  228.7074 H   0  0  0  0  0  0  0  0  0  0  0  0
  140.8880   71.6362  229.3881 H   0  0  0  0  0  0  0  0  0  0  0  0
  141.9617   73.0744  227.6401 H   0  0  0  0  0  0  0  0  0  0  0  0
  141.5607   72.5286  225.2650 H   0  0  0  0  0  0  0  0  0  0  0  0
  1  2  1  0
  2  3  1  0
  3  4  1  0
  4  5  2  0
  4  6  1  0
  6  7  1  0
  7  8  1  0
  8  9  2  0
  8 10  1  0
 10 11  2  0
 11 12  1  0
 12 13  2  0
 13 14  1  0
 14 15  2  0
 15 16  1  0
 16 17  1  0
 16 18  2  0
 18 19  1  0
 19 20  2  0
  2 21  1  0
 21 22  2  0
 22 23  1  0
 23 24  2  0
 24 25  1  0
 25 26  2  0
 20 10  1  0
 26 21  1  0
 19 13  1  0
  1 27  1  0
  1 28  1  0
  1 29  1  0
  2 30  1  6
  3 31  1  0
  6 32  1  0
  6 33  1  0
  7 34  1  0
 11 35  1  0
 12 36  1  0
 14 37  1  0
 15 38  1  0
 18 39  1  0
 22 40  1  0
 23 41  1  0
 24 42  1  0
 25 43  1  0
 26 44  1  0
M  END
>  <smiles>  (40) 
C[C@@H](NC(=O)CNC(=O)c1ccc2ccc(F)cc2n1)c1ccccc1

>  <score_type>  (40) 
oracle

>  <origin>  (40) 
autodockgpu

>  <m_score__min__energy>  (40) 
-8.6699999999999999

>  <m_primary>  (40) 
energy

>  <rmsd>  (40) 
9.919786380934237

>  <m_score__min__rmsd>  (40) 
9.919786380934237

>  <meeko>  (40) 
{"free_energy": -8.49, "intermolecular_energy": -9.98, "internal_energy": -1.15, "cluster_size": 11, "cluster_id": 1, "rank_in_cluster": 3}

>  <energy>  (40) 
-7.7

>  <cluster_rmsd>  (40) 
0.57

>  <cluster>  (40) 
3

$$$$

     RDKit          3D

 44 46  0  0  0  0  0  0  0  0999 V2000
  139.2450   68.1490  225.3020 C   0  0  0  0  0  0  0  0  0  0  0  0
  139.8250   69.4840  224.8830 C   0  0  1  0  0  0  0  0  0  0  0  0
  138.8100   70.2020  224.1470 N   0  0  0  0  0  0  0  0  0  0  0  0
  139.1430   70.8740  222.9380 C   0  0  0  0  0  0  0  0  0  0  0  0
  140.3290   70.8390  222.5120 O   0  0  0  0  0  0  0  0  0  0  0  0
  138.0450   71.5870  222.2400 C   0  0  0  0  0  0  0  0  0  0  0  0
  137.1590   72.2600  223.1680 N   0  0  0  0  0  0  0  0  0  0  0  0
  136.0940   71.4920  223.7170 C   0  0  0  0  0  0  0  0  0  0  0  0
  136.0150   70.2920  223.3470 O   0  0  0  0  0  0  0  0  0  0  0  0
  135.1470   72.0790  224.6600 C   0  0  0  0  0  0  0  0  0  0  0  0
  134.2940   71.2220  225.3340 C   0  0  0  0  0  0  0  0  0  0  0  0
  133.3660   71.6710  226.2420 C   0  0  0  0  0  0  0  0  0  0  0  0
  133.2990   73.0280  226.4740 C   0  0  0  0  0  0  0  0  0  0  0  0
  132.3860   73.5200  227.3740 C   0  0  0  0  0  0  0  0  0  0  0  0
  132.3100   74.8730  227.6140 C   0  0  0  0  0  0  0  0  0  0  0  0
  133.1540   75.7400  226.9500 C   0  0  0  0  0  0  0  0  0  0  0  0
  133.0700   77.0760  227.1960 F   0  0  0  0  0  0  0  0  0  0  0  0
  134.0680   75.2290  226.0470 C   0  0  0  0  0  0  0  0  0  0  0  0
  134.1610   73.8790  225.7920 C   0  0  0  0  0  0  0  0  0  0  0  0
  135.0490   73.3740  224.9130 N   0  0  0  0  0  0  0  0  0  0  0  0
  140.2370   70.3070  226.0280 C   0  0  0  0  0  0  0  0  0  0  0  0
  139.8020   69.9490  227.2900 C   0  0  0  0  0  0  0  0  0  0  0  0
  140.2050   70.7390  228.3380 C   0  0  0  0  0  0  0  0  0  0  0  0
  141.0160   71.8590  228.1730 C   0  0  0  0  0  0  0  0  0  0  0  0
  141.4470   72.2110  226.9090 C   0  0  0  0  0  0  0  0  0  0  0  0
  141.0460   71.4230  225.8600 C   0  0  0  0  0  0  0  0  0  0  0  0
  139.2189   68.0890  226.4001 H   0  0  0  0  0  0  0  0  0  0  0  0
  138.2237   68.0521  224.9051 H   0  0  0  0  0  0  0  0  0  0  0  0
  139.8712   67.3364  224.9051 H   0  0  0  0  0  0  0  0  0  0  0  0
  140.7205   69.2884  224.2749 H   0  0  0  0  0  0  0  0  0  0  0  0
  137.8250   70.2190  224.5160 H   0  0  0  0  0  0  0  0  0  0  0  0
  138.4818   72.3339  221.5609 H   0  0  0  0  0  0  0  0  0  0  0  0
  137.4547   70.8425  221.6857 H   0  0  0  0  0  0  0  0  0  0  0  0
  137.2790   73.2700  223.4360 H   0  0  0  0  0  0  0  0  0  0  0  0
  134.3617   70.1422  225.1353 H   0  0  0  0  0  0  0  0  0  0  0  0
  132.6988   70.9710  226.7663 H   0  0  0  0  0  0  0  0  0  0  0  0
  131.7132   72.8304  227.9048 H   0  0  0  0  0  0  0  0  0  0  0  0
  131.5767   75.2634  228.3350 H   0  0  0  0  0  0  0  0  0  0  0  0
  134.7398   75.9205  225.5173 H   0  0  0  0  0  0  0  0  0  0  0  0
  139.1607   69.0693  227.4479 H   0  0  0  0  0  0  0  0  0  0  0  0
  139.8726   70.4756  229.3530 H   0  0  0  0  0  0  0  0  0  0  0  0
  141.3119   72.4604  229.0452 H   0  0  0  0  0  0  0  0  0  0  0  0
  142.0880   73.0905  226.7493 H   0  0  0  0  0  0  0  0  0  0  0  0
  141.3787   71.6858  224.8450 H   0  0  0  0  0  0  0  0  0  0  0  0
  1  2  1  0
  2  3  1  0
  3  4  1  0
  4  5  2  0
  4  6  1  0
  6  7  1  0
  7  8  1  0
  8  9  2  0
  8 10  1  0
 10 11  2  0
 11 12  1  0
 12 13  2  0
 13 14  1  0
 14 15  2  0
 15 16  1  0
 16 17  1  0
 16 18  2  0
 18 19  1  0
 19 20  2  0
  2 21  1  0
 21 22  2  0
 22 23  1  0
 23 24  2  0
 24 25  1  0
 25 26  2  0
 20 10  1  0
 26 21  1  0
 19 13  1  0
  1 27  1  0
  1 28  1  0
  1 29  1  0
  2 30  1  6
  3 31  1  0
  6 32  1  0
  6 33  1  0
  7 34  1  0
 11 35  1  0
 12 36  1  0
 14 37  1  0
 15 38  1  0
 18 39  1  0
 22 40  1  0
 23 41  1  0
 24 42  1  0
 25 43  1  0
 26 44  1  0
M  END
>  <smiles>  (41) 
C[C@@H](NC(=O)CNC(=O)c1ccc2ccc(F)cc2n1)c1ccccc1

>  <score_type>  (41) 
oracle

>  <origin>  (41) 
autodockgpu

>  <m_score__min__energy>  (41) 
-8.6699999999999999

>  <m_primary>  (41) 
energy

>  <rmsd>  (41) 
9.741392389806258

>  <m_score__min__rmsd>  (41) 
9.741392389806258

>  <meeko>  (41) 
{"free_energy": -7.53, "intermolecular_energy": -9.02, "internal_energy": -1.97, "cluster_size": 16, "cluster_id": 2, "rank_in_cluster": 14}

>  <energy>  (41) 
-7.69

>  <cluster_rmsd>  (41) 
0.49

>  <cluster>  (41) 
3

$$$$

     RDKit          3D

 44 46  0  0  0  0  0  0  0  0999 V2000
  139.5090   67.8520  225.4950 C   0  0  0  0  0  0  0  0  0  0  0  0
  139.9310   69.2240  225.0120 C   0  0  1  0  0  0  0  0  0  0  0  0
  138.8390   69.7860  224.2520 N   0  0  0  0  0  0  0  0  0  0  0  0
  139.0910   70.7650  223.2510 C   0  0  0  0  0  0  0  0  0  0  0  0
  140.2750   71.1410  223.0320 O   0  0  0  0  0  0  0  0  0  0  0  0
  137.9180   71.2930  222.5130 C   0  0  0  0  0  0  0  0  0  0  0  0
  136.9840   71.9700  223.3900 N   0  0  0  0  0  0  0  0  0  0  0  0
  136.0170   71.1620  224.0510 C   0  0  0  0  0  0  0  0  0  0  0  0
  136.0580   69.9260  223.8160 O   0  0  0  0  0  0  0  0  0  0  0  0
  135.0320   71.7480  224.9550 C   0  0  0  0  0  0  0  0  0  0  0  0
  134.2300   70.8860  225.6820 C   0  0  0  0  0  0  0  0  0  0  0  0
  133.2720   71.3350  226.5590 C   0  0  0  0  0  0  0  0  0  0  0  0
  133.1220   72.6970  226.7040 C   0  0  0  0  0  0  0  0  0  0  0  0
  132.1770   73.1890  227.5710 C   0  0  0  0  0  0  0  0  0  0  0  0
  132.0180   74.5470  227.7240 C   0  0  0  0  0  0  0  0  0  0  0  0
  132.8100   75.4200  227.0060 C   0  0  0  0  0  0  0  0  0  0  0  0
  132.6440   76.7610  227.1660 F   0  0  0  0  0  0  0  0  0  0  0  0
  133.7570   74.9090  226.1370 C   0  0  0  0  0  0  0  0  0  0  0  0
  133.9330   73.5540  225.9690 C   0  0  0  0  0  0  0  0  0  0  0  0
  134.8540   73.0490  225.1250 N   0  0  0  0  0  0  0  0  0  0  0  0
  140.2460   70.1400  226.1160 C   0  0  0  0  0  0  0  0  0  0  0  0
  139.6630   69.9180  227.3490 C   0  0  0  0  0  0  0  0  0  0  0  0
  139.9790   70.7910  228.3580 C   0  0  0  0  0  0  0  0  0  0  0  0
  140.8460   71.8670  228.1840 C   0  0  0  0  0  0  0  0  0  0  0  0
  141.4270   72.0850  226.9500 C   0  0  0  0  0  0  0  0  0  0  0  0
  141.1120   71.2120  225.9390 C   0  0  0  0  0  0  0  0  0  0  0  0
  139.5041   67.8360  226.5949 H   0  0  0  0  0  0  0  0  0  0  0  0
  138.4998   67.6258  225.1205 H   0  0  0  0  0  0  0  0  0  0  0  0
  140.2167   67.0977  225.1205 H   0  0  0  0  0  0  0  0  0  0  0  0
  140.8422   69.1052  224.4073 H   0  0  0  0  0  0  0  0  0  0  0  0
  137.8570   69.4610  224.4470 H   0  0  0  0  0  0  0  0  0  0  0  0
  138.2688   72.0044  221.7509 H   0  0  0  0  0  0  0  0  0  0  0  0
  137.3953   70.4417  222.0525 H   0  0  0  0  0  0  0  0  0  0  0  0
  137.0020   73.0100  223.5440 H   0  0  0  0  0  0  0  0  0  0  0  0
  134.3642   69.8018  225.5532 H   0  0  0  0  0  0  0  0  0  0  0  0
  132.6459   70.6306  227.1263 H   0  0  0  0  0  0  0  0  0  0  0  0
  131.5453   72.4950  228.1448 H   0  0  0  0  0  0  0  0  0  0  0  0
  131.2595   74.9370  228.4187 H   0  0  0  0  0  0  0  0  0  0  0  0
  134.3873   75.6049  225.5639 H   0  0  0  0  0  0  0  0  0  0  0  0
  138.9743   69.0763  227.5141 H   0  0  0  0  0  0  0  0  0  0  0  0
  139.5277   70.6346  229.3489 H   0  0  0  0  0  0  0  0  0  0  0  0
  141.0670   72.5401  229.0255 H   0  0  0  0  0  0  0  0  0  0  0  0
  142.1159   72.9263  226.7839 H   0  0  0  0  0  0  0  0  0  0  0  0
  141.5636   71.3673  224.9481 H   0  0  0  0  0  0  0  0  0  0  0  0
  1  2  1  0
  2  3  1  0
  3  4  1  0
  4  5  2  0
  4  6  1  0
  6  7  1  0
  7  8  1  0
  8  9  2  0
  8 10  1  0
 10 11  2  0
 11 12  1  0
 12 13  2  0
 13 14  1  0
 14 15  2  0
 15 16  1  0
 16 17  1  0
 16 18  2  0
 18 19  1  0
 19 20  2  0
  2 21  1  0
 21 22  2  0
 22 23  1  0
 23 24  2  0
 24 25  1  0
 25 26  2  0
 20 10  1  0
 26 21  1  0
 19 13  1  0
  1 27  1  0
  1 28  1  0
  1 29  1  0
  2 30  1  6
  3 31  1  0
  6 32  1  0
  6 33  1  0
  7 34  1  0
 11 35  1  0
 12 36  1  0
 14 37  1  0
 15 38  1  0
 18 39  1  0
 22 40  1  0
 23 41  1  0
 24 42  1  0
 25 43  1  0
 26 44  1  0
M  END
>  <smiles>  (42) 
C[C@@H](NC(=O)CNC(=O)c1ccc2ccc(F)cc2n1)c1ccccc1

>  <score_type>  (42) 
oracle

>  <origin>  (42) 
autodockgpu

>  <m_score__min__energy>  (42) 
-8.6699999999999999

>  <m_primary>  (42) 
energy

>  <rmsd>  (42) 
9.890896506595377

>  <m_score__min__rmsd>  (42) 
9.890896506595377

>  <meeko>  (42) 
{"free_energy": -7.7, "intermolecular_energy": -9.19, "internal_energy": -2.03, "cluster_size": 16, "cluster_id": 2, "rank_in_cluster": 6}

>  <energy>  (42) 
-7.69

>  <cluster_rmsd>  (42) 
0.57

>  <cluster>  (42) 
3

$$$$

     RDKit          3D

 44 46  0  0  0  0  0  0  0  0999 V2000
  139.5980   67.7740  225.7640 C   0  0  0  0  0  0  0  0  0  0  0  0
  140.3550   69.0340  225.4000 C   0  0  1  0  0  0  0  0  0  0  0  0
  139.7220   69.6170  224.2400 N   0  0  0  0  0  0  0  0  0  0  0  0
  138.3390   69.9470  224.2680 C   0  0  0  0  0  0  0  0  0  0  0  0
  137.6670   69.7260  225.3130 O   0  0  0  0  0  0  0  0  0  0  0  0
  137.7630   70.5430  223.0380 C   0  0  0  0  0  0  0  0  0  0  0  0
  138.2480   71.8880  222.8070 N   0  0  0  0  0  0  0  0  0  0  0  0
  139.4640   72.0200  222.0780 C   0  0  0  0  0  0  0  0  0  0  0  0
  140.0110   70.9530  221.6960 O   0  0  0  0  0  0  0  0  0  0  0  0
  140.0360   73.3320  221.7940 C   0  0  0  0  0  0  0  0  0  0  0  0
  141.1120   73.3910  220.9240 C   0  0  0  0  0  0  0  0  0  0  0  0
  141.7230   74.5750  220.5900 C   0  0  0  0  0  0  0  0  0  0  0  0
  141.2320   75.7330  221.1530 C   0  0  0  0  0  0  0  0  0  0  0  0
  141.8140   76.9390  220.8460 C   0  0  0  0  0  0  0  0  0  0  0  0
  141.3320   78.1020  221.4030 C   0  0  0  0  0  0  0  0  0  0  0  0
  140.2600   78.0590  222.2710 C   0  0  0  0  0  0  0  0  0  0  0  0
  139.7920   79.2160  222.8140 F   0  0  0  0  0  0  0  0  0  0  0  0
  139.6850   76.8380  222.5700 C   0  0  0  0  0  0  0  0  0  0  0  0
  140.1510   75.6620  222.0250 C   0  0  0  0  0  0  0  0  0  0  0  0
  139.5960   74.4680  222.3110 N   0  0  0  0  0  0  0  0  0  0  0  0
  140.3510   70.0290  226.4800 C   0  0  0  0  0  0  0  0  0  0  0  0
  141.0950   71.1820  226.3210 C   0  0  0  0  0  0  0  0  0  0  0  0
  141.0700   72.0910  227.3480 C   0  0  0  0  0  0  0  0  0  0  0  0
  140.3370   71.8920  228.5160 C   0  0  0  0  0  0  0  0  0  0  0  0
  139.5950   70.7370  228.6700 C   0  0  0  0  0  0  0  0  0  0  0  0
  139.6190   69.8270  227.6440 C   0  0  0  0  0  0  0  0  0  0  0  0
  139.5431   67.6826  226.8588 H   0  0  0  0  0  0  0  0  0  0  0  0
  138.5806   67.8246  225.3488 H   0  0  0  0  0  0  0  0  0  0  0  0
  140.1204   66.8995  225.3488 H   0  0  0  0  0  0  0  0  0  0  0  0
  141.4020   68.7567  225.2078 H   0  0  0  0  0  0  0  0  0  0  0  0
  140.2980   69.7950  223.3760 H   0  0  0  0  0  0  0  0  0  0  0  0
  138.0362   69.9145  222.1775 H   0  0  0  0  0  0  0  0  0  0  0  0
  136.6714   70.5930  223.1643 H   0  0  0  0  0  0  0  0  0  0  0  0
  137.7430   72.7410  223.1550 H   0  0  0  0  0  0  0  0  0  0  0  0
  141.4908   72.4563  220.4848 H   0  0  0  0  0  0  0  0  0  0  0  0
  142.5761   74.5981  219.8960 H   0  0  0  0  0  0  0  0  0  0  0  0
  142.6676   76.9754  220.1531 H   0  0  0  0  0  0  0  0  0  0  0  0
  141.8014   79.0657  221.1562 H   0  0  0  0  0  0  0  0  0  0  0  0
  138.8312   76.8046  223.2628 H   0  0  0  0  0  0  0  0  0  0  0  0
  141.6828   71.3636  225.4091 H   0  0  0  0  0  0  0  0  0  0  0  0
  141.6541   73.0174  227.2449 H   0  0  0  0  0  0  0  0  0  0  0  0
  140.3491   72.6512  229.3120 H   0  0  0  0  0  0  0  0  0  0  0  0
  139.0069   70.5539  229.5814 H   0  0  0  0  0  0  0  0  0  0  0  0
  139.0355   68.9002  227.7466 H   0  0  0  0  0  0  0  0  0  0  0  0
  1  2  1  0
  2  3  1  0
  3  4  1  0
  4  5  2  0
  4  6  1  0
  6  7  1  0
  7  8  1  0
  8  9  2  0
  8 10  1  0
 10 11  2  0
 11 12  1  0
 12 13  2  0
 13 14  1  0
 14 15  2  0
 15 16  1  0
 16 17  1  0
 16 18  2  0
 18 19  1  0
 19 20  2  0
  2 21  1  0
 21 22  2  0
 22 23  1  0
 23 24  2  0
 24 25  1  0
 25 26  2  0
 20 10  1  0
 26 21  1  0
 19 13  1  0
  1 27  1  0
  1 28  1  0
  1 29  1  0
  2 30  1  6
  3 31  1  0
  6 32  1  0
  6 33  1  0
  7 34  1  0
 11 35  1  0
 12 36  1  0
 14 37  1  0
 15 38  1  0
 18 39  1  0
 22 40  1  0
 23 41  1  0
 24 42  1  0
 25 43  1  0
 26 44  1  0
M  END
>  <smiles>  (43) 
C[C@@H](NC(=O)CNC(=O)c1ccc2ccc(F)cc2n1)c1ccccc1

>  <score_type>  (43) 
oracle

>  <origin>  (43) 
autodockgpu

>  <m_score__min__energy>  (43) 
-8.6699999999999999

>  <m_primary>  (43) 
energy

>  <rmsd>  (43) 
10.07258732421015

>  <m_score__min__rmsd>  (43) 
10.07258732421015

>  <meeko>  (43) 
{"free_energy": -7.74, "intermolecular_energy": -9.24, "internal_energy": -1.96, "cluster_size": 23, "cluster_id": 3, "rank_in_cluster": 5}

>  <energy>  (43) 
-7.67

>  <cluster_rmsd>  (43) 
0.58

>  <cluster>  (43) 
3

$$$$

     RDKit          3D

 44 46  0  0  0  0  0  0  0  0999 V2000
  139.4370   67.7580  225.8310 C   0  0  0  0  0  0  0  0  0  0  0  0
  140.3120   68.8960  225.3510 C   0  0  1  0  0  0  0  0  0  0  0  0
  139.7020   69.4640  224.1720 N   0  0  0  0  0  0  0  0  0  0  0  0
  138.3850   69.9990  224.2330 C   0  0  0  0  0  0  0  0  0  0  0  0
  137.7530   69.9750  225.3240 O   0  0  0  0  0  0  0  0  0  0  0  0
  137.8290   70.5640  222.9790 C   0  0  0  0  0  0  0  0  0  0  0  0
  138.2910   71.9150  222.7400 N   0  0  0  0  0  0  0  0  0  0  0  0
  139.5430   72.0620  222.0790 C   0  0  0  0  0  0  0  0  0  0  0  0
  140.1400   71.0020  221.7590 O   0  0  0  0  0  0  0  0  0  0  0  0
  140.0960   73.3820  221.7930 C   0  0  0  0  0  0  0  0  0  0  0  0
  141.1690   73.4560  220.9210 C   0  0  0  0  0  0  0  0  0  0  0  0
  141.7630   74.6490  220.5840 C   0  0  0  0  0  0  0  0  0  0  0  0
  141.2560   75.8000  221.1470 C   0  0  0  0  0  0  0  0  0  0  0  0
  141.8200   77.0140  220.8380 C   0  0  0  0  0  0  0  0  0  0  0  0
  141.3230   78.1700  221.3950 C   0  0  0  0  0  0  0  0  0  0  0  0
  140.2530   78.1130  222.2650 C   0  0  0  0  0  0  0  0  0  0  0  0
  139.7700   79.2630  222.8090 F   0  0  0  0  0  0  0  0  0  0  0  0
  139.6970   76.8830  222.5670 C   0  0  0  0  0  0  0  0  0  0  0  0
  140.1790   75.7140  222.0210 C   0  0  0  0  0  0  0  0  0  0  0  0
  139.6410   74.5130  222.3100 N   0  0  0  0  0  0  0  0  0  0  0  0
  140.4590   69.9590  226.3550 C   0  0  0  0  0  0  0  0  0  0  0  0
  139.7870   69.8330  227.5560 C   0  0  0  0  0  0  0  0  0  0  0  0
  139.9450   70.8420  228.4710 C   0  0  0  0  0  0  0  0  0  0  0  0
  140.7400   71.9610  228.2340 C   0  0  0  0  0  0  0  0  0  0  0  0
  141.4090   72.0830  227.0310 C   0  0  0  0  0  0  0  0  0  0  0  0
  141.2520   71.0740  226.1140 C   0  0  0  0  0  0  0  0  0  0  0  0
  139.4255   67.7431  226.9308 H   0  0  0  0  0  0  0  0  0  0  0  0
  138.4128   67.8994  225.4555 H   0  0  0  0  0  0  0  0  0  0  0  0
  139.8368   66.8045  225.4555 H   0  0  0  0  0  0  0  0  0  0  0  0
  141.3137   68.4901  225.1466 H   0  0  0  0  0  0  0  0  0  0  0  0
  140.2440   69.4760  223.2690 H   0  0  0  0  0  0  0  0  0  0  0  0
  138.1382   69.9288  222.1358 H   0  0  0  0  0  0  0  0  0  0  0  0
  136.7336   70.5922  223.0760 H   0  0  0  0  0  0  0  0  0  0  0  0
  137.7430   72.7630  223.0340 H   0  0  0  0  0  0  0  0  0  0  0  0
  141.5603   72.5264  220.4820 H   0  0  0  0  0  0  0  0  0  0  0  0
  142.6144   74.6837  219.8883 H   0  0  0  0  0  0  0  0  0  0  0  0
  142.6715   77.0621  220.1432 H   0  0  0  0  0  0  0  0  0  0  0  0
  141.7787   79.1399  221.1468 H   0  0  0  0  0  0  0  0  0  0  0  0
  138.8461   76.8372  223.2627 H   0  0  0  0  0  0  0  0  0  0  0  0
  139.1522   68.9602  227.7689 H   0  0  0  0  0  0  0  0  0  0  0  0
  139.4207   70.7643  229.4349 H   0  0  0  0  0  0  0  0  0  0  0  0
  140.8348   72.7439  229.0009 H   0  0  0  0  0  0  0  0  0  0  0  0
  142.0433   72.9557  226.8165 H   0  0  0  0  0  0  0  0  0  0  0  0
  141.7751   71.1512  225.1494 H   0  0  0  0  0  0  0  0  0  0  0  0
  1  2  1  0
  2  3  1  0
  3  4  1  0
  4  5  2  0
  4  6  1  0
  6  7  1  0
  7  8  1  0
  8  9  2  0
  8 10  1  0
 10 11  2  0
 11 12  1  0
 12 13  2  0
 13 14  1  0
 14 15  2  0
 15 16  1  0
 16 17  1  0
 16 18  2  0
 18 19  1  0
 19 20  2  0
  2 21  1  0
 21 22  2  0
 22 23  1  0
 23 24  2  0
 24 25  1  0
 25 26  2  0
 20 10  1  0
 26 21  1  0
 19 13  1  0
  1 27  1  0
  1 28  1  0
  1 29  1  0
  2 30  1  6
  3 31  1  0
  6 32  1  0
  6 33  1  0
  7 34  1  0
 11 35  1  0
 12 36  1  0
 14 37  1  0
 15 38  1  0
 18 39  1  0
 22 40  1  0
 23 41  1  0
 24 42  1  0
 25 43  1  0
 26 44  1  0
M  END
>  <smiles>  (44) 
C[C@@H](NC(=O)CNC(=O)c1ccc2ccc(F)cc2n1)c1ccccc1

>  <score_type>  (44) 
oracle

>  <origin>  (44) 
autodockgpu

>  <m_score__min__energy>  (44) 
-8.6699999999999999

>  <m_primary>  (44) 
energy

>  <rmsd>  (44) 
9.881501670730987

>  <m_score__min__rmsd>  (44) 
9.881501670730987

>  <meeko>  (44) 
{"free_energy": -7.71, "intermolecular_energy": -9.2, "internal_energy": -1.99, "cluster_size": 23, "cluster_id": 3, "rank_in_cluster": 9}

>  <energy>  (44) 
-7.65

>  <cluster_rmsd>  (44) 
0.61

>  <cluster>  (44) 
3

$$$$

     RDKit          3D

 44 46  0  0  0  0  0  0  0  0999 V2000
  139.5570   67.9510  225.3570 C   0  0  0  0  0  0  0  0  0  0  0  0
  140.3110   69.2200  225.0220 C   0  0  1  0  0  0  0  0  0  0  0  0
  139.5910   69.9050  223.9740 N   0  0  0  0  0  0  0  0  0  0  0  0
  138.2180   70.2360  224.1460 C   0  0  0  0  0  0  0  0  0  0  0  0
  137.6330   69.9280  225.2190 O   0  0  0  0  0  0  0  0  0  0  0  0
  137.5490   70.9390  223.0240 C   0  0  0  0  0  0  0  0  0  0  0  0
  138.1450   72.2320  222.7600 N   0  0  0  0  0  0  0  0  0  0  0  0
  139.2940   72.2550  221.9210 C   0  0  0  0  0  0  0  0  0  0  0  0
  139.6940   71.1460  221.4800 O   0  0  0  0  0  0  0  0  0  0  0  0
  139.9680   73.5090  221.5960 C   0  0  0  0  0  0  0  0  0  0  0  0
  140.8120   73.5210  220.4990 C   0  0  0  0  0  0  0  0  0  0  0  0
  141.4940   74.6480  220.1080 C   0  0  0  0  0  0  0  0  0  0  0  0
  141.3160   75.7960  220.8490 C   0  0  0  0  0  0  0  0  0  0  0  0
  141.9780   76.9450  220.4930 C   0  0  0  0  0  0  0  0  0  0  0  0
  141.8090   78.0980  221.2260 C   0  0  0  0  0  0  0  0  0  0  0  0
  140.9700   78.1020  222.3220 C   0  0  0  0  0  0  0  0  0  0  0  0
  140.8100   79.2470  223.0390 F   0  0  0  0  0  0  0  0  0  0  0  0
  140.3110   76.9360  222.6680 C   0  0  0  0  0  0  0  0  0  0  0  0
  140.4660   75.7720  221.9490 C   0  0  0  0  0  0  0  0  0  0  0  0
  139.8260   74.6340  222.2800 N   0  0  0  0  0  0  0  0  0  0  0  0
  140.4310   70.1280  226.1710 C   0  0  0  0  0  0  0  0  0  0  0  0
  139.8800   69.7430  227.3780 C   0  0  0  0  0  0  0  0  0  0  0  0
  140.0090   70.6130  228.4310 C   0  0  0  0  0  0  0  0  0  0  0  0
  140.6620   71.8390  228.3240 C   0  0  0  0  0  0  0  0  0  0  0  0
  141.2110   72.2180  227.1150 C   0  0  0  0  0  0  0  0  0  0  0  0
  141.0830   71.3500  226.0600 C   0  0  0  0  0  0  0  0  0  0  0  0
  139.4916   67.8409  226.4495 H   0  0  0  0  0  0  0  0  0  0  0  0
  138.5436   68.0037  224.9325 H   0  0  0  0  0  0  0  0  0  0  0  0
  140.0879   67.0862  224.9325 H   0  0  0  0  0  0  0  0  0  0  0  0
  141.3284   68.9377  224.7133 H   0  0  0  0  0  0  0  0  0  0  0  0
  140.0950   70.1550  223.0840 H   0  0  0  0  0  0  0  0  0  0  0  0
  137.6296   70.3195  222.1186 H   0  0  0  0  0  0  0  0  0  0  0  0
  136.4976   71.1009  223.3039 H   0  0  0  0  0  0  0  0  0  0  0  0
  137.7620   73.1260  223.1610 H   0  0  0  0  0  0  0  0  0  0  0  0
  140.9414   72.5951  219.9194 H   0  0  0  0  0  0  0  0  0  0  0  0
  142.1599   74.6342  219.2326 H   0  0  0  0  0  0  0  0  0  0  0  0
  142.6458   76.9443  219.6189 H   0  0  0  0  0  0  0  0  0  0  0  0
  142.3425   79.0159  220.9383 H   0  0  0  0  0  0  0  0  0  0  0  0
  139.6440   76.9388  223.5427 H   0  0  0  0  0  0  0  0  0  0  0  0
  139.3601   68.7801  227.4900 H   0  0  0  0  0  0  0  0  0  0  0  0
  139.5778   70.3300  229.4026 H   0  0  0  0  0  0  0  0  0  0  0  0
  140.7399   72.5019  229.1984 H   0  0  0  0  0  0  0  0  0  0  0  0
  141.7318   73.1803  227.0018 H   0  0  0  0  0  0  0  0  0  0  0  0
  141.5135   71.6327  225.0880 H   0  0  0  0  0  0  0  0  0  0  0  0
  1  2  1  0
  2  3  1  0
  3  4  1  0
  4  5  2  0
  4  6  1  0
  6  7  1  0
  7  8  1  0
  8  9  2  0
  8 10  1  0
 10 11  2  0
 11 12  1  0
 12 13  2  0
 13 14  1  0
 14 15  2  0
 15 16  1  0
 16 17  1  0
 16 18  2  0
 18 19  1  0
 19 20  2  0
  2 21  1  0
 21 22  2  0
 22 23  1  0
 23 24  2  0
 24 25  1  0
 25 26  2  0
 20 10  1  0
 26 21  1  0
 19 13  1  0
  1 27  1  0
  1 28  1  0
  1 29  1  0
  2 30  1  6
  3 31  1  0
  6 32  1  0
  6 33  1  0
  7 34  1  0
 11 35  1  0
 12 36  1  0
 14 37  1  0
 15 38  1  0
 18 39  1  0
 22 40  1  0
 23 41  1  0
 24 42  1  0
 25 43  1  0
 26 44  1  0
M  END
>  <smiles>  (45) 
C[C@@H](NC(=O)CNC(=O)c1ccc2ccc(F)cc2n1)c1ccccc1

>  <score_type>  (45) 
oracle

>  <origin>  (45) 
autodockgpu

>  <m_score__min__energy>  (45) 
-8.6699999999999999

>  <m_primary>  (45) 
energy

>  <rmsd>  (45) 
9.823420078155575

>  <m_score__min__rmsd>  (45) 
9.823420078155575

>  <meeko>  (45) 
{"free_energy": -7.65, "intermolecular_energy": -9.14, "internal_energy": -1.94, "cluster_size": 23, "cluster_id": 3, "rank_in_cluster": 18}

>  <energy>  (45) 
-7.65

>  <cluster_rmsd>  (45) 
0.39

>  <cluster>  (45) 
3

$$$$

     RDKit          3D

 44 46  0  0  0  0  0  0  0  0999 V2000
  139.5270   67.8540  225.7170 C   0  0  0  0  0  0  0  0  0  0  0  0
  140.3430   69.0520  225.2800 C   0  0  1  0  0  0  0  0  0  0  0  0
  139.6850   69.6510  224.1430 N   0  0  0  0  0  0  0  0  0  0  0  0
  138.3430   70.1120  224.2520 C   0  0  0  0  0  0  0  0  0  0  0  0
  137.7310   69.9940  225.3470 O   0  0  0  0  0  0  0  0  0  0  0  0
  137.7380   70.7150  223.0390 C   0  0  0  0  0  0  0  0  0  0  0  0
  138.2950   72.0200  222.7460 N   0  0  0  0  0  0  0  0  0  0  0  0
  139.4920   72.0530  221.9760 C   0  0  0  0  0  0  0  0  0  0  0  0
  139.9630   70.9430  221.6170 O   0  0  0  0  0  0  0  0  0  0  0  0
  140.1320   73.3190  221.6280 C   0  0  0  0  0  0  0  0  0  0  0  0
  141.0060   73.3250  220.5550 C   0  0  0  0  0  0  0  0  0  0  0  0
  141.6590   74.4620  220.1450 C   0  0  0  0  0  0  0  0  0  0  0  0
  141.4210   75.6260  220.8420 C   0  0  0  0  0  0  0  0  0  0  0  0
  142.0540   76.7860  220.4660 C   0  0  0  0  0  0  0  0  0  0  0  0
  141.8250   77.9550  221.1550 C   0  0  0  0  0  0  0  0  0  0  0  0
  140.9560   77.9650  222.2280 C   0  0  0  0  0  0  0  0  0  0  0  0
  140.7360   79.1260  222.9010 F   0  0  0  0  0  0  0  0  0  0  0  0
  140.3270   76.7890  222.5940 C   0  0  0  0  0  0  0  0  0  0  0  0
  140.5420   75.6080  221.9180 C   0  0  0  0  0  0  0  0  0  0  0  0
  139.9320   74.4590  222.2700 N   0  0  0  0  0  0  0  0  0  0  0  0
  140.4650   70.0680  226.3340 C   0  0  0  0  0  0  0  0  0  0  0  0
  139.8020   69.8640  227.5300 C   0  0  0  0  0  0  0  0  0  0  0  0
  139.9360   70.8320  228.4930 C   0  0  0  0  0  0  0  0  0  0  0  0
  140.6990   71.9830  228.3080 C   0  0  0  0  0  0  0  0  0  0  0  0
  141.3590   72.1820  227.1110 C   0  0  0  0  0  0  0  0  0  0  0  0
  141.2260   71.2150  226.1460 C   0  0  0  0  0  0  0  0  0  0  0  0
  139.4979   67.8113  226.8158 H   0  0  0  0  0  0  0  0  0  0  0  0
  138.5028   67.9458  225.3264 H   0  0  0  0  0  0  0  0  0  0  0  0
  139.9874   66.9345  225.3264 H   0  0  0  0  0  0  0  0  0  0  0  0
  141.3569   68.7015  225.0369 H   0  0  0  0  0  0  0  0  0  0  0  0
  140.2110   69.7420  223.2350 H   0  0  0  0  0  0  0  0  0  0  0  0
  137.9219   70.0499  222.1823 H   0  0  0  0  0  0  0  0  0  0  0  0
  136.6605   70.8389  223.2225 H   0  0  0  0  0  0  0  0  0  0  0  0
  137.8520   72.9140  223.0780 H   0  0  0  0  0  0  0  0  0  0  0  0
  141.1842   72.3857  220.0109 H   0  0  0  0  0  0  0  0  0  0  0  0
  142.3490   74.4435  219.2885 H   0  0  0  0  0  0  0  0  0  0  0  0
  142.7463   76.7803  219.6112 H   0  0  0  0  0  0  0  0  0  0  0  0
  142.3342   78.8814  220.8510 H   0  0  0  0  0  0  0  0  0  0  0  0
  139.6353   76.7968  223.4493 H   0  0  0  0  0  0  0  0  0  0  0  0
  139.1932   68.9642  227.7021 H   0  0  0  0  0  0  0  0  0  0  0  0
  139.4182   70.6933  229.4535 H   0  0  0  0  0  0  0  0  0  0  0  0
  140.7755   72.7301  229.1118 H   0  0  0  0  0  0  0  0  0  0  0  0
  141.9681   73.0814  226.9377 H   0  0  0  0  0  0  0  0  0  0  0  0
  141.7428   71.3538  225.1850 H   0  0  0  0  0  0  0  0  0  0  0  0
  1  2  1  0
  2  3  1  0
  3  4  1  0
  4  5  2  0
  4  6  1  0
  6  7  1  0
  7  8  1  0
  8  9  2  0
  8 10  1  0
 10 11  2  0
 11 12  1  0
 12 13  2  0
 13 14  1  0
 14 15  2  0
 15 16  1  0
 16 17  1  0
 16 18  2  0
 18 19  1  0
 19 20  2  0
  2 21  1  0
 21 22  2  0
 22 23  1  0
 23 24  2  0
 24 25  1  0
 25 26  2  0
 20 10  1  0
 26 21  1  0
 19 13  1  0
  1 27  1  0
  1 28  1  0
  1 29  1  0
  2 30  1  6
  3 31  1  0
  6 32  1  0
  6 33  1  0
  7 34  1  0
 11 35  1  0
 12 36  1  0
 14 37  1  0
 15 38  1  0
 18 39  1  0
 22 40  1  0
 23 41  1  0
 24 42  1  0
 25 43  1  0
 26 44  1  0
M  END
>  <smiles>  (46) 
C[C@@H](NC(=O)CNC(=O)c1ccc2ccc(F)cc2n1)c1ccccc1

>  <score_type>  (46) 
oracle

>  <origin>  (46) 
autodockgpu

>  <m_score__min__energy>  (46) 
-8.6699999999999999

>  <m_primary>  (46) 
energy

>  <rmsd>  (46) 
9.858077233411338

>  <m_score__min__rmsd>  (46) 
9.858077233411338

>  <meeko>  (46) 
{"free_energy": -7.71, "intermolecular_energy": -9.2, "internal_energy": -1.96, "cluster_size": 23, "cluster_id": 3, "rank_in_cluster": 11}

>  <energy>  (46) 
-7.64

>  <cluster_rmsd>  (46) 
0.61

>  <cluster>  (46) 
3

$$$$

     RDKit          3D

 44 46  0  0  0  0  0  0  0  0999 V2000
  139.5680   67.7520  225.7260 C   0  0  0  0  0  0  0  0  0  0  0  0
  140.3400   69.0050  225.3690 C   0  0  1  0  0  0  0  0  0  0  0  0
  139.7260   69.5920  224.2010 N   0  0  0  0  0  0  0  0  0  0  0  0
  138.3620   69.9960  224.2350 C   0  0  0  0  0  0  0  0  0  0  0  0
  137.6920   69.8390  225.2910 O   0  0  0  0  0  0  0  0  0  0  0  0
  137.8050   70.5910  222.9950 C   0  0  0  0  0  0  0  0  0  0  0  0
  138.3700   71.8950  222.7170 N   0  0  0  0  0  0  0  0  0  0  0  0
  139.5460   71.9320  221.9160 C   0  0  0  0  0  0  0  0  0  0  0  0
  139.9930   70.8250  221.5180 O   0  0  0  0  0  0  0  0  0  0  0  0
  140.1920   73.1970  221.5790 C   0  0  0  0  0  0  0  0  0  0  0  0
  141.1890   73.1760  220.6190 C   0  0  0  0  0  0  0  0  0  0  0  0
  141.8590   74.3100  220.2300 C   0  0  0  0  0  0  0  0  0  0  0  0
  141.5100   75.5010  220.8300 C   0  0  0  0  0  0  0  0  0  0  0  0
  142.1550   76.6580  220.4700 C   0  0  0  0  0  0  0  0  0  0  0  0
  141.8150   77.8530  221.0630 C   0  0  0  0  0  0  0  0  0  0  0  0
  140.8230   77.8910  222.0210 C   0  0  0  0  0  0  0  0  0  0  0  0
  140.4950   79.0780  222.6000 F   0  0  0  0  0  0  0  0  0  0  0  0
  140.1830   76.7160  222.3720 C   0  0  0  0  0  0  0  0  0  0  0  0
  140.5070   75.5100  221.7920 C   0  0  0  0  0  0  0  0  0  0  0  0
  139.8880   74.3620  222.1290 N   0  0  0  0  0  0  0  0  0  0  0  0
  140.3320   70.0020  226.4480 C   0  0  0  0  0  0  0  0  0  0  0  0
  139.5960   69.7370  227.5870 C   0  0  0  0  0  0  0  0  0  0  0  0
  139.6100   70.6880  228.5760 C   0  0  0  0  0  0  0  0  0  0  0  0
  140.3220   71.8810  228.4690 C   0  0  0  0  0  0  0  0  0  0  0  0
  141.0560   72.1400  227.3280 C   0  0  0  0  0  0  0  0  0  0  0  0
  141.0440   71.1900  226.3380 C   0  0  0  0  0  0  0  0  0  0  0  0
  139.5093   67.6568  226.8203 H   0  0  0  0  0  0  0  0  0  0  0  0
  138.5523   67.8157  225.3085 H   0  0  0  0  0  0  0  0  0  0  0  0
  140.0816   66.8734  225.3085 H   0  0  0  0  0  0  0  0  0  0  0  0
  141.3866   68.7182  225.1893 H   0  0  0  0  0  0  0  0  0  0  0  0
  140.3000   69.7160  223.3270 H   0  0  0  0  0  0  0  0  0  0  0  0
  138.0246   69.9215  222.1503 H   0  0  0  0  0  0  0  0  0  0  0  0
  136.7208   70.7135  223.1346 H   0  0  0  0  0  0  0  0  0  0  0  0
  137.9470   72.7860  223.0810 H   0  0  0  0  0  0  0  0  0  0  0  0
  141.4542   72.2166  220.1509 H   0  0  0  0  0  0  0  0  0  0  0  0
  142.6482   74.2692  219.4648 H   0  0  0  0  0  0  0  0  0  0  0  0
  142.9456   76.6303  219.7057 H   0  0  0  0  0  0  0  0  0  0  0  0
  142.3346   78.7781  220.7728 H   0  0  0  0  0  0  0  0  0  0  0  0
  139.3925   76.7460  223.1364 H   0  0  0  0  0  0  0  0  0  0  0  0
  139.0236   68.8040  227.6962 H   0  0  0  0  0  0  0  0  0  0  0  0
  139.0337   70.5003  229.4939 H   0  0  0  0  0  0  0  0  0  0  0  0
  140.2996   72.6132  229.2896 H   0  0  0  0  0  0  0  0  0  0  0  0
  141.6286   73.0727  227.2171 H   0  0  0  0  0  0  0  0  0  0  0  0
  141.6213   71.3765  225.4204 H   0  0  0  0  0  0  0  0  0  0  0  0
  1  2  1  0
  2  3  1  0
  3  4  1  0
  4  5  2  0
  4  6  1  0
  6  7  1  0
  7  8  1  0
  8  9  2  0
  8 10  1  0
 10 11  2  0
 11 12  1  0
 12 13  2  0
 13 14  1  0
 14 15  2  0
 15 16  1  0
 16 17  1  0
 16 18  2  0
 18 19  1  0
 19 20  2  0
  2 21  1  0
 21 22  2  0
 22 23  1  0
 23 24  2  0
 24 25  1  0
 25 26  2  0
 20 10  1  0
 26 21  1  0
 19 13  1  0
  1 27  1  0
  1 28  1  0
  1 29  1  0
  2 30  1  6
  3 31  1  0
  6 32  1  0
  6 33  1  0
  7 34  1  0
 11 35  1  0
 12 36  1  0
 14 37  1  0
 15 38  1  0
 18 39  1  0
 22 40  1  0
 23 41  1  0
 24 42  1  0
 25 43  1  0
 26 44  1  0
M  END
>  <smiles>  (47) 
C[C@@H](NC(=O)CNC(=O)c1ccc2ccc(F)cc2n1)c1ccccc1

>  <score_type>  (47) 
oracle

>  <origin>  (47) 
autodockgpu

>  <m_score__min__energy>  (47) 
-8.6699999999999999

>  <m_primary>  (47) 
energy

>  <rmsd>  (47) 
9.901649617150657

>  <m_score__min__rmsd>  (47) 
9.901649617150657

>  <meeko>  (47) 
{"free_energy": -7.78, "intermolecular_energy": -9.27, "internal_energy": -1.94, "cluster_size": 23, "cluster_id": 3, "rank_in_cluster": 1}

>  <energy>  (47) 
-7.63

>  <cluster_rmsd>  (47) 
0.63

>  <cluster>  (47) 
3

$$$$

     RDKit          3D

 44 46  0  0  0  0  0  0  0  0999 V2000
  139.5740   67.7700  225.6220 C   0  0  0  0  0  0  0  0  0  0  0  0
  139.9520   69.1410  225.1030 C   0  0  1  0  0  0  0  0  0  0  0  0
  138.8440   69.6460  224.3260 N   0  0  0  0  0  0  0  0  0  0  0  0
  139.0350   70.7340  223.4280 C   0  0  0  0  0  0  0  0  0  0  0  0
  140.1780   71.2540  223.3150 O   0  0  0  0  0  0  0  0  0  0  0  0
  137.8490   71.1940  222.6660 C   0  0  0  0  0  0  0  0  0  0  0  0
  136.9330   71.9520  223.4920 N   0  0  0  0  0  0  0  0  0  0  0  0
  135.9270   71.2180  224.1830 C   0  0  0  0  0  0  0  0  0  0  0  0
  135.9230   69.9710  224.0140 O   0  0  0  0  0  0  0  0  0  0  0  0
  134.9550   71.8890  225.0400 C   0  0  0  0  0  0  0  0  0  0  0  0
  134.0770   71.0980  225.7610 C   0  0  0  0  0  0  0  0  0  0  0  0
  133.1240   71.6300  226.5960 C   0  0  0  0  0  0  0  0  0  0  0  0
  133.0590   73.0030  226.7050 C   0  0  0  0  0  0  0  0  0  0  0  0
  132.1220   73.5750  227.5300 C   0  0  0  0  0  0  0  0  0  0  0  0
  132.0480   74.9450  227.6470 C   0  0  0  0  0  0  0  0  0  0  0  0
  132.9170   75.7470  226.9350 C   0  0  0  0  0  0  0  0  0  0  0  0
  132.8340   77.0990  227.0590 F   0  0  0  0  0  0  0  0  0  0  0  0
  133.8550   75.1540  226.1090 C   0  0  0  0  0  0  0  0  0  0  0  0
  133.9470   73.7860  225.9770 C   0  0  0  0  0  0  0  0  0  0  0  0
  134.8580   73.2030  225.1750 N   0  0  0  0  0  0  0  0  0  0  0  0
  140.2360   70.0960  226.1820 C   0  0  0  0  0  0  0  0  0  0  0  0
  139.6090   69.9220  227.4020 C   0  0  0  0  0  0  0  0  0  0  0  0
  139.8960   70.8310  228.3880 C   0  0  0  0  0  0  0  0  0  0  0  0
  140.7750   71.8960  228.2040 C   0  0  0  0  0  0  0  0  0  0  0  0
  141.3980   72.0660  226.9820 C   0  0  0  0  0  0  0  0  0  0  0  0
  141.1130   71.1570  225.9940 C   0  0  0  0  0  0  0  0  0  0  0  0
  139.5770   67.7807  226.7219 H   0  0  0  0  0  0  0  0  0  0  0  0
  138.5694   67.5053  225.2606 H   0  0  0  0  0  0  0  0  0  0  0  0
  140.3010   67.0278  225.2606 H   0  0  0  0  0  0  0  0  0  0  0  0
  140.8678   69.0361  224.5028 H   0  0  0  0  0  0  0  0  0  0  0  0
  137.8970   69.2000  224.4320 H   0  0  0  0  0  0  0  0  0  0  0  0
  138.1863   71.8300  221.8343 H   0  0  0  0  0  0  0  0  0  0  0  0
  137.3168   70.3048  222.2972 H   0  0  0  0  0  0  0  0  0  0  0  0
  136.9890   72.9970  223.5910 H   0  0  0  0  0  0  0  0  0  0  0  0
  134.1446   70.0046  225.6620 H   0  0  0  0  0  0  0  0  0  0  0  0
  132.4359   70.9820  227.1587 H   0  0  0  0  0  0  0  0  0  0  0  0
  131.4291   72.9374  228.0986 H   0  0  0  0  0  0  0  0  0  0  0  0
  131.2961   75.4005  228.3082 H   0  0  0  0  0  0  0  0  0  0  0  0
  134.5472   75.7933  225.5413 H   0  0  0  0  0  0  0  0  0  0  0  0
  138.9100   69.0903  227.5743 H   0  0  0  0  0  0  0  0  0  0  0  0
  139.4104   70.7139  229.3680 H   0  0  0  0  0  0  0  0  0  0  0  0
  140.9723   72.5983  229.0273 H   0  0  0  0  0  0  0  0  0  0  0  0
  142.0958   72.8983  226.8079 H   0  0  0  0  0  0  0  0  0  0  0  0
  141.5985   71.2732  225.0138 H   0  0  0  0  0  0  0  0  0  0  0  0
  1  2  1  0
  2  3  1  0
  3  4  1  0
  4  5  2  0
  4  6  1  0
  6  7  1  0
  7  8  1  0
  8  9  2  0
  8 10  1  0
 10 11  2  0
 11 12  1  0
 12 13  2  0
 13 14  1  0
 14 15  2  0
 15 16  1  0
 16 17  1  0
 16 18  2  0
 18 19  1  0
 19 20  2  0
  2 21  1  0
 21 22  2  0
 22 23  1  0
 23 24  2  0
 24 25  1  0
 25 26  2  0
 20 10  1  0
 26 21  1  0
 19 13  1  0
  1 27  1  0
  1 28  1  0
  1 29  1  0
  2 30  1  6
  3 31  1  0
  6 32  1  0
  6 33  1  0
  7 34  1  0
 11 35  1  0
 12 36  1  0
 14 37  1  0
 15 38  1  0
 18 39  1  0
 22 40  1  0
 23 41  1  0
 24 42  1  0
 25 43  1  0
 26 44  1  0
M  END
>  <smiles>  (48) 
C[C@@H](NC(=O)CNC(=O)c1ccc2ccc(F)cc2n1)c1ccccc1

>  <score_type>  (48) 
oracle

>  <origin>  (48) 
autodockgpu

>  <m_score__min__energy>  (48) 
-8.6699999999999999

>  <m_primary>  (48) 
energy

>  <rmsd>  (48) 
9.97699719230437

>  <m_score__min__rmsd>  (48) 
9.97699719230437

>  <meeko>  (48) 
{"free_energy": -7.78, "intermolecular_energy": -9.27, "internal_energy": -1.97, "cluster_size": 16, "cluster_id": 2, "rank_in_cluster": 1}

>  <energy>  (48) 
-7.61

>  <cluster_rmsd>  (48) 
0.6

>  <cluster>  (48) 
3

$$$$

     RDKit          3D

 44 46  0  0  0  0  0  0  0  0999 V2000
  139.5150   67.8880  225.4550 C   0  0  0  0  0  0  0  0  0  0  0  0
  139.9280   69.2680  224.9880 C   0  0  1  0  0  0  0  0  0  0  0  0
  138.8360   69.8290  224.2280 N   0  0  0  0  0  0  0  0  0  0  0  0
  139.0920   70.7780  223.1990 C   0  0  0  0  0  0  0  0  0  0  0  0
  140.2780   71.1280  222.9550 O   0  0  0  0  0  0  0  0  0  0  0  0
  137.9170   71.3080  222.4640 C   0  0  0  0  0  0  0  0  0  0  0  0
  136.9810   71.9760  223.3440 N   0  0  0  0  0  0  0  0  0  0  0  0
  136.0220   71.1600  224.0080 C   0  0  0  0  0  0  0  0  0  0  0  0
  136.0720   69.9250  223.7720 O   0  0  0  0  0  0  0  0  0  0  0  0
  135.0350   71.7380  224.9150 C   0  0  0  0  0  0  0  0  0  0  0  0
  134.2450   70.8690  225.6470 C   0  0  0  0  0  0  0  0  0  0  0  0
  133.2870   71.3090  226.5280 C   0  0  0  0  0  0  0  0  0  0  0  0
  133.1250   72.6710  226.6720 C   0  0  0  0  0  0  0  0  0  0  0  0
  132.1790   73.1540  227.5420 C   0  0  0  0  0  0  0  0  0  0  0  0
  132.0070   74.5110  227.6940 C   0  0  0  0  0  0  0  0  0  0  0  0
  132.7880   75.3910  226.9720 C   0  0  0  0  0  0  0  0  0  0  0  0
  132.6100   76.7300  227.1320 F   0  0  0  0  0  0  0  0  0  0  0  0
  133.7360   74.8880  226.1000 C   0  0  0  0  0  0  0  0  0  0  0  0
  133.9240   73.5340  225.9320 C   0  0  0  0  0  0  0  0  0  0  0  0
  134.8460   73.0370  225.0850 N   0  0  0  0  0  0  0  0  0  0  0  0
  140.2320   70.1750  226.1030 C   0  0  0  0  0  0  0  0  0  0  0  0
  139.6430   69.9350  227.3300 C   0  0  0  0  0  0  0  0  0  0  0  0
  139.9480   70.8010  228.3500 C   0  0  0  0  0  0  0  0  0  0  0  0
  140.8080   71.8840  228.1920 C   0  0  0  0  0  0  0  0  0  0  0  0
  141.3940   72.1190  226.9630 C   0  0  0  0  0  0  0  0  0  0  0  0
  141.0910   71.2550  225.9410 C   0  0  0  0  0  0  0  0  0  0  0  0
  139.5067   67.8603  226.5546 H   0  0  0  0  0  0  0  0  0  0  0  0
  138.5087   67.6581  225.0748 H   0  0  0  0  0  0  0  0  0  0  0  0
  140.2296   67.1431  225.0748 H   0  0  0  0  0  0  0  0  0  0  0  0
  140.8427   69.1627  224.3861 H   0  0  0  0  0  0  0  0  0  0  0  0
  137.8510   69.5260  224.4440 H   0  0  0  0  0  0  0  0  0  0  0  0
  138.2662   72.0255  221.7068 H   0  0  0  0  0  0  0  0  0  0  0  0
  137.3969   70.4581  221.9980 H   0  0  0  0  0  0  0  0  0  0  0  0
  136.9910   73.0160  223.4990 H   0  0  0  0  0  0  0  0  0  0  0  0
  134.3894   69.7861  225.5188 H   0  0  0  0  0  0  0  0  0  0  0  0
  132.6703   70.5993  227.0990 H   0  0  0  0  0  0  0  0  0  0  0  0
  131.5567   72.4543  228.1193 H   0  0  0  0  0  0  0  0  0  0  0  0
  131.2471   74.8944  228.3909 H   0  0  0  0  0  0  0  0  0  0  0  0
  134.3577   75.5893  225.5241 H   0  0  0  0  0  0  0  0  0  0  0  0
  138.9595   69.0867  227.4824 H   0  0  0  0  0  0  0  0  0  0  0  0
  139.4924   70.6317  229.3368 H   0  0  0  0  0  0  0  0  0  0  0  0
  141.0201   72.5497  229.0416 H   0  0  0  0  0  0  0  0  0  0  0  0
  142.0778   72.9669  226.8096 H   0  0  0  0  0  0  0  0  0  0  0  0
  141.5463   71.4241  224.9541 H   0  0  0  0  0  0  0  0  0  0  0  0
  1  2  1  0
  2  3  1  0
  3  4  1  0
  4  5  2  0
  4  6  1  0
  6  7  1  0
  7  8  1  0
  8  9  2  0
  8 10  1  0
 10 11  2  0
 11 12  1  0
 12 13  2  0
 13 14  1  0
 14 15  2  0
 15 16  1  0
 16 17  1  0
 16 18  2  0
 18 19  1  0
 19 20  2  0
  2 21  1  0
 21 22  2  0
 22 23  1  0
 23 24  2  0
 24 25  1  0
 25 26  2  0
 20 10  1  0
 26 21  1  0
 19 13  1  0
  1 27  1  0
  1 28  1  0
  1 29  1  0
  2 30  1  6
  3 31  1  0
  6 32  1  0
  6 33  1  0
  7 34  1  0
 11 35  1  0
 12 36  1  0
 14 37  1  0
 15 38  1  0
 18 39  1  0
 22 40  1  0
 23 41  1  0
 24 42  1  0
 25 43  1  0
 26 44  1  0
M  END
>  <smiles>  (49) 
C[C@@H](NC(=O)CNC(=O)c1ccc2ccc(F)cc2n1)c1ccccc1

>  <score_type>  (49) 
oracle

>  <origin>  (49) 
autodockgpu

>  <m_score__min__energy>  (49) 
-8.6699999999999999

>  <m_primary>  (49) 
energy

>  <rmsd>  (49) 
9.863452399796861

>  <m_score__min__rmsd>  (49) 
9.863452399796861

>  <meeko>  (49) 
{"free_energy": -7.68, "intermolecular_energy": -9.17, "internal_energy": -2.03, "cluster_size": 16, "cluster_id": 2, "rank_in_cluster": 7}

>  <energy>  (49) 
-7.57

>  <cluster_rmsd>  (49) 
0.34

>  <cluster>  (49) 
3

$$$$

     RDKit          3D

 44 46  0  0  0  0  0  0  0  0999 V2000
  139.1790   68.9700  224.5410 C   0  0  0  0  0  0  0  0  0  0  0  0
  139.9900   70.2480  224.5120 C   0  0  1  0  0  0  0  0  0  0  0  0
  139.2000   71.2660  223.8580 N   0  0  0  0  0  0  0  0  0  0  0  0
  139.7470   72.0150  222.7790 C   0  0  0  0  0  0  0  0  0  0  0  0
  140.9270   71.7860  222.3970 O   0  0  0  0  0  0  0  0  0  0  0  0
  138.8730   73.0400  222.1600 C   0  0  0  0  0  0  0  0  0  0  0  0
  139.4160   74.3750  222.3030 N   0  0  0  0  0  0  0  0  0  0  0  0
  140.0080   74.9590  221.1480 C   0  0  0  0  0  0  0  0  0  0  0  0
  140.0080   74.2620  220.1010 O   0  0  0  0  0  0  0  0  0  0  0  0
  140.5840   76.3000  221.1900 C   0  0  0  0  0  0  0  0  0  0  0  0
  140.7960   76.9480  219.9850 C   0  0  0  0  0  0  0  0  0  0  0  0
  141.3320   78.2110  219.9130 C   0  0  0  0  0  0  0  0  0  0  0  0
  141.6640   78.8360  221.0960 C   0  0  0  0  0  0  0  0  0  0  0  0
  142.2030   80.0990  221.0690 C   0  0  0  0  0  0  0  0  0  0  0  0
  142.5380   80.7340  222.2440 C   0  0  0  0  0  0  0  0  0  0  0  0
  142.3320   80.1010  223.4530 C   0  0  0  0  0  0  0  0  0  0  0  0
  142.6670   80.7380  224.6070 F   0  0  0  0  0  0  0  0  0  0  0  0
  141.7890   78.8290  223.4630 C   0  0  0  0  0  0  0  0  0  0  0  0
  141.4460   78.1760  222.2990 C   0  0  0  0  0  0  0  0  0  0  0  0
  140.9170   76.9380  222.3010 N   0  0  0  0  0  0  0  0  0  0  0  0
  140.3410   70.7260  225.8560 C   0  0  0  0  0  0  0  0  0  0  0  0
  139.9040   70.0040  226.9500 C   0  0  0  0  0  0  0  0  0  0  0  0
  140.2490   70.4770  228.1910 C   0  0  0  0  0  0  0  0  0  0  0  0
  141.0060   71.6310  228.3770 C   0  0  0  0  0  0  0  0  0  0  0  0
  141.4400   72.3490  227.2800 C   0  0  0  0  0  0  0  0  0  0  0  0
  141.0960   71.8780  226.0380 C   0  0  0  0  0  0  0  0  0  0  0  0
  138.9932   68.6772  225.5849 H   0  0  0  0  0  0  0  0  0  0  0  0
  138.2189   69.1333  224.0296 H   0  0  0  0  0  0  0  0  0  0  0  0
  139.7356   68.1708  224.0296 H   0  0  0  0  0  0  0  0  0  0  0  0
  140.9283   70.0414  223.9764 H   0  0  0  0  0  0  0  0  0  0  0  0
  138.2170   71.4440  224.1900 H   0  0  0  0  0  0  0  0  0  0  0  0
  138.7642   72.8139  221.0890 H   0  0  0  0  0  0  0  0  0  0  0  0
  137.9007   73.0122  222.6737 H   0  0  0  0  0  0  0  0  0  0  0  0
  139.3850   74.9060  223.2100 H   0  0  0  0  0  0  0  0  0  0  0  0
  140.5255   76.4330  219.0514 H   0  0  0  0  0  0  0  0  0  0  0  0
  141.4909   78.7068  218.9440 H   0  0  0  0  0  0  0  0  0  0  0  0
  142.3675   80.6047  220.1061 H   0  0  0  0  0  0  0  0  0  0  0  0
  142.9696   81.7455  222.2191 H   0  0  0  0  0  0  0  0  0  0  0  0
  141.6264   78.3246  224.4269 H   0  0  0  0  0  0  0  0  0  0  0  0
  139.3051   69.0890  226.8312 H   0  0  0  0  0  0  0  0  0  0  0  0
  139.9128   69.9201  229.0780 H   0  0  0  0  0  0  0  0  0  0  0  0
  141.2571   71.9691  229.3932 H   0  0  0  0  0  0  0  0  0  0  0  0
  142.0390   73.2641  227.3975 H   0  0  0  0  0  0  0  0  0  0  0  0
  141.4315   72.4349  225.1507 H   0  0  0  0  0  0  0  0  0  0  0  0
  1  2  1  0
  2  3  1  0
  3  4  1  0
  4  5  2  0
  4  6  1  0
  6  7  1  0
  7  8  1  0
  8  9  2  0
  8 10  1  0
 10 11  2  0
 11 12  1  0
 12 13  2  0
 13 14  1  0
 14 15  2  0
 15 16  1  0
 16 17  1  0
 16 18  2  0
 18 19  1  0
 19 20  2  0
  2 21  1  0
 21 22  2  0
 22 23  1  0
 23 24  2  0
 24 25  1  0
 25 26  2  0
 20 10  1  0
 26 21  1  0
 19 13  1  0
  1 27  1  0
  1 28  1  0
  1 29  1  0
  2 30  1  6
  3 31  1  0
  6 32  1  0
  6 33  1  0
  7 34  1  0
 11 35  1  0
 12 36  1  0
 14 37  1  0
 15 38  1  0
 18 39  1  0
 22 40  1  0
 23 41  1  0
 24 42  1  0
 25 43  1  0
 26 44  1  0
M  END
>  <smiles>  (50) 
C[C@@H](NC(=O)CNC(=O)c1ccc2ccc(F)cc2n1)c1ccccc1

>  <score_type>  (50) 
oracle

>  <origin>  (50) 
autodockgpu

>  <m_score__min__energy>  (50) 
-8.6699999999999999

>  <m_primary>  (50) 
energy

>  <rmsd>  (50) 
10.030481813184801

>  <m_score__min__rmsd>  (50) 
10.030481813184801

>  <meeko>  (50) 
{"free_energy": -8.38, "intermolecular_energy": -9.88, "internal_energy": -1.09, "cluster_size": 11, "cluster_id": 1, "rank_in_cluster": 9}

>  <energy>  (50) 
-7.46

>  <cluster_rmsd>  (50) 
0.45

>  <cluster>  (50) 
3

$$$$
