
     RDKit          3D

 41 43  0  0  0  0  0  0  0  0999 V2000
  139.8790   72.4210  220.7040 O   0  0  0  0  0  0  0  0  0  0  0  0
  139.7880   72.8520  221.8810 C   0  0  0  0  0  0  0  0  0  0  0  0
  139.5980   74.2210  222.2020 N   0  0  0  0  0  0  0  0  0  0  0  0
  139.4960   75.2200  221.1870 C   0  0  0  0  0  0  0  0  0  0  0  0
  140.5190   76.2640  221.4550 C   0  0  0  0  0  0  0  0  0  0  0  0
  141.6100   76.2090  220.8080 O   0  0  0  0  0  0  0  0  0  0  0  0
  140.2910   77.2850  222.3990 N   0  0  0  0  0  0  0  0  0  0  0  0
  141.3810   77.9550  223.0710 C   0  0  0  0  0  0  0  0  0  0  0  0
  141.2050   79.4280  223.2290 C   0  0  0  0  0  0  0  0  0  0  0  0
  139.8020   79.7200  223.7130 C   0  0  0  0  0  0  0  0  0  0  0  0
  138.8780   79.1930  222.6100 C   0  0  2  0  0  0  0  0  0  0  0  0
  137.5960   79.6650  222.7920 F   0  0  0  0  0  0  0  0  0  0  0  0
  138.9320   77.6830  222.7130 C   0  0  0  0  0  0  0  0  0  0  0  0
  139.8810   71.8970  223.0040 C   0  0  0  0  0  0  0  0  0  0  0  0
  139.4840   70.5840  222.8650 C   0  0  0  0  0  0  0  0  0  0  0  0
  139.5520   69.6570  223.8810 C   0  0  0  0  0  0  0  0  0  0  0  0
  140.0490   70.0950  225.0990 C   0  0  0  0  0  0  0  0  0  0  0  0
  140.1360   69.1940  226.1540 C   0  0  0  0  0  0  0  0  0  0  0  0
  140.6370   69.6470  227.3690 C   0  0  0  0  0  0  0  0  0  0  0  0
  140.7460   68.5120  228.6990 Cl  0  0  0  0  0  0  0  0  0  0  0  0
  141.0430   70.9380  227.5560 C   0  0  0  0  0  0  0  0  0  0  0  0
  140.9470   71.8270  226.4840 C   0  0  0  0  0  0  0  0  0  0  0  0
  140.4490   71.4080  225.2480 C   0  0  0  0  0  0  0  0  0  0  0  0
  140.3560   72.2620  224.2090 N   0  0  0  0  0  0  0  0  0  0  0  0
  139.5310   74.5020  223.2220 H   0  0  0  0  0  0  0  0  0  0  0  0
  139.6758   74.7677  220.2006 H   0  0  0  0  0  0  0  0  0  0  0  0
  138.4900   75.6649  221.1930 H   0  0  0  0  0  0  0  0  0  0  0  0
  141.4891   77.5135  224.0727 H   0  0  0  0  0  0  0  0  0  0  0  0
  142.2695   77.8145  222.4378 H   0  0  0  0  0  0  0  0  0  0  0  0
  141.9320   79.8074  223.9621 H   0  0  0  0  0  0  0  0  0  0  0  0
  141.3686   79.9225  222.2601 H   0  0  0  0  0  0  0  0  0  0  0  0
  139.6054   79.1998  224.6620 H   0  0  0  0  0  0  0  0  0  0  0  0
  139.6471   80.7927  223.9010 H   0  0  0  0  0  0  0  0  0  0  0  0
  139.1944   79.5301  221.6119 H   0  0  0  0  0  0  0  0  0  0  0  0
  138.6711   77.3643  223.7330 H   0  0  0  0  0  0  0  0  0  0  0  0
  138.2162   77.2164  222.0202 H   0  0  0  0  0  0  0  0  0  0  0  0
  139.0918   70.2594  221.8899 H   0  0  0  0  0  0  0  0  0  0  0  0
  139.2269   68.6166  223.7330 H   0  0  0  0  0  0  0  0  0  0  0  0
  139.8164   68.1487  226.0305 H   0  0  0  0  0  0  0  0  0  0  0  0
  141.4363   71.2692  228.5284 H   0  0  0  0  0  0  0  0  0  0  0  0
  141.2677   72.8711  226.6143 H   0  0  0  0  0  0  0  0  0  0  0  0
  1  2  2  0
  2  3  1  0
  3  4  1  0
  4  5  1  0
  5  6  2  0
  5  7  1  0
  7  8  1  0
  8  9  1  0
  9 10  1  0
 10 11  1  0
 11 12  1  0
 11 13  1  0
  2 14  1  0
 14 15  2  0
 15 16  1  0
 16 17  2  0
 17 18  1  0
 18 19  2  0
 19 20  1  0
 19 21  1  0
 21 22  2  0
 22 23  1  0
 23 24  2  0
 13  7  1  0
 24 14  1  0
 23 17  1  0
  3 25  1  0
  4 26  1  0
  4 27  1  0
  8 28  1  0
  8 29  1  0
  9 30  1  0
  9 31  1  0
 10 32  1  0
 10 33  1  0
 11 34  1  6
 13 35  1  0
 13 36  1  0
 15 37  1  0
 16 38  1  0
 18 39  1  0
 21 40  1  0
 22 41  1  0
M  END
>  <smiles>  (1) 
O=C(NCC(=O)N1CCCC(F)C1)c1ccc2cc(Cl)ccc2n1

>  <score_type>  (1) 
oracle

>  <origin>  (1) 
autodockgpu

>  <m_score__min__energy>  (1) 
-7.3200000000000003

>  <m_primary>  (1) 
energy

>  <rmsd>  (1) 
3.369204704814632

>  <m_score__min__rmsd>  (1) 
3.369204704814632

>  <meeko>  (1) 
{"free_energy": -7.17, "intermolecular_energy": -8.37, "internal_energy": -0.99, "cluster_size": 13, "cluster_id": 1, "rank_in_cluster": 11}

>  <energy>  (1) 
-7.32

>  <cluster_rmsd>  (1) 
0.0

>  <cluster>  (1) 
1

$$$$

     RDKit          3D

 41 43  0  0  0  0  0  0  0  0999 V2000
  135.3540   68.5270  224.6560 O   0  0  0  0  0  0  0  0  0  0  0  0
  135.7900   69.6970  224.7980 C   0  0  0  0  0  0  0  0  0  0  0  0
  137.0870   70.1050  224.3940 N   0  0  0  0  0  0  0  0  0  0  0  0
  138.0020   69.1930  223.7850 C   0  0  0  0  0  0  0  0  0  0  0  0
  138.8730   68.6270  224.8470 C   0  0  0  0  0  0  0  0  0  0  0  0
  139.2000   67.4030  224.7600 O   0  0  0  0  0  0  0  0  0  0  0  0
  139.3260   69.4200  225.9210 N   0  0  0  0  0  0  0  0  0  0  0  0
  139.2980   68.9390  227.2830 C   0  0  0  0  0  0  0  0  0  0  0  0
  140.5000   69.2940  228.0930 C   0  0  0  0  0  0  0  0  0  0  0  0
  140.8470   70.7500  227.8730 C   0  0  0  0  0  0  0  0  0  0  0  0
  141.1640   70.8670  226.3790 C   0  0  2  0  0  0  0  0  0  0  0  0
  141.7790   72.0710  226.1110 F   0  0  0  0  0  0  0  0  0  0  0  0
  139.8330   70.7550  225.6640 C   0  0  0  0  0  0  0  0  0  0  0  0
  134.9200   70.7160  225.4190 C   0  0  0  0  0  0  0  0  0  0  0  0
  133.9060   70.3640  226.2850 C   0  0  0  0  0  0  0  0  0  0  0  0
  133.0690   71.2760  226.8890 C   0  0  0  0  0  0  0  0  0  0  0  0
  133.2800   72.6140  226.5900 C   0  0  0  0  0  0  0  0  0  0  0  0
  132.4590   73.5710  227.1770 C   0  0  0  0  0  0  0  0  0  0  0  0
  132.6810   74.9080  226.8690 C   0  0  0  0  0  0  0  0  0  0  0  0
  131.6470   76.1140  227.6060 Cl  0  0  0  0  0  0  0  0  0  0  0  0
  133.6720   75.3070  226.0170 C   0  0  0  0  0  0  0  0  0  0  0  0
  134.4840   74.3300  225.4390 C   0  0  0  0  0  0  0  0  0  0  0  0
  134.2910   72.9770  225.7240 C   0  0  0  0  0  0  0  0  0  0  0  0
  135.0750   72.0300  225.1700 N   0  0  0  0  0  0  0  0  0  0  0  0
  137.3780   71.1120  224.5510 H   0  0  0  0  0  0  0  0  0  0  0  0
  137.4459   68.3836  223.2894 H   0  0  0  0  0  0  0  0  0  0  0  0
  138.6120   69.7141  223.0324 H   0  0  0  0  0  0  0  0  0  0  0  0
  138.4127   69.3640  227.7786 H   0  0  0  0  0  0  0  0  0  0  0  0
  139.2750   67.8408  227.2249 H   0  0  0  0  0  0  0  0  0  0  0  0
  140.2863   69.1254  229.1588 H   0  0  0  0  0  0  0  0  0  0  0  0
  141.3480   68.6652  227.7840 H   0  0  0  0  0  0  0  0  0  0  0  0
  139.9952   71.3937  228.1380 H   0  0  0  0  0  0  0  0  0  0  0  0
  141.6933   71.0696  228.4987 H   0  0  0  0  0  0  0  0  0  0  0  0
  141.8578   70.0820  226.0436 H   0  0  0  0  0  0  0  0  0  0  0  0
  139.1307   71.5073  226.0524 H   0  0  0  0  0  0  0  0  0  0  0  0
  139.9507   70.9298  224.5844 H   0  0  0  0  0  0  0  0  0  0  0  0
  133.7576   69.2966  226.5054 H   0  0  0  0  0  0  0  0  0  0  0  0
  132.2709   70.9583  227.5761 H   0  0  0  0  0  0  0  0  0  0  0  0
  131.6546   73.2772  227.8674 H   0  0  0  0  0  0  0  0  0  0  0  0
  133.8261   76.3727  225.7921 H   0  0  0  0  0  0  0  0  0  0  0  0
  135.2869   74.6301  224.7496 H   0  0  0  0  0  0  0  0  0  0  0  0
  1  2  2  0
  2  3  1  0
  3  4  1  0
  4  5  1  0
  5  6  2  0
  5  7  1  0
  7  8  1  0
  8  9  1  0
  9 10  1  0
 10 11  1  0
 11 12  1  0
 11 13  1  0
  2 14  1  0
 14 15  2  0
 15 16  1  0
 16 17  2  0
 17 18  1  0
 18 19  2  0
 19 20  1  0
 19 21  1  0
 21 22  2  0
 22 23  1  0
 23 24  2  0
 13  7  1  0
 24 14  1  0
 23 17  1  0
  3 25  1  0
  4 26  1  0
  4 27  1  0
  8 28  1  0
  8 29  1  0
  9 30  1  0
  9 31  1  0
 10 32  1  0
 10 33  1  0
 11 34  1  6
 13 35  1  0
 13 36  1  0
 15 37  1  0
 16 38  1  0
 18 39  1  0
 21 40  1  0
 22 41  1  0
M  END
>  <smiles>  (2) 
O=C(NCC(=O)N1CCCC(F)C1)c1ccc2cc(Cl)ccc2n1

>  <score_type>  (2) 
oracle

>  <origin>  (2) 
autodockgpu

>  <m_score__min__energy>  (2) 
-7.3200000000000003

>  <m_primary>  (2) 
energy

>  <rmsd>  (2) 
8.378367453591315

>  <m_score__min__rmsd>  (2) 
8.378367453591315

>  <meeko>  (2) 
{"free_energy": -7.13, "intermolecular_energy": -8.32, "internal_energy": -1.16, "cluster_size": 6, "cluster_id": 2, "rank_in_cluster": 5}

>  <energy>  (2) 
-7.32

>  <cluster_rmsd>  (2) 
1.0

>  <cluster>  (2) 
1

$$$$

     RDKit          3D

 41 43  0  0  0  0  0  0  0  0999 V2000
  141.5260   71.8930  221.1090 O   0  0  0  0  0  0  0  0  0  0  0  0
  140.7790   72.6630  221.7640 C   0  0  0  0  0  0  0  0  0  0  0  0
  139.8090   72.2110  222.6950 N   0  0  0  0  0  0  0  0  0  0  0  0
  139.6150   70.8200  222.9560 C   0  0  0  0  0  0  0  0  0  0  0  0
  139.0620   70.6770  224.3280 C   0  0  0  0  0  0  0  0  0  0  0  0
  137.8000   70.6520  224.4610 O   0  0  0  0  0  0  0  0  0  0  0  0
  139.9080   70.5710  225.4500 N   0  0  0  0  0  0  0  0  0  0  0  0
  140.9270   71.5580  225.7280 C   0  0  0  0  0  0  0  0  0  0  0  0
  141.0650   71.9220  227.1680 C   0  0  0  0  0  0  0  0  0  0  0  0
  141.0610   70.6650  228.0100 C   0  0  0  0  0  0  0  0  0  0  0  0
  139.6970   70.0150  227.7580 C   0  0  2  0  0  0  0  0  0  0  0  0
  139.4560   69.0280  228.6900 F   0  0  0  0  0  0  0  0  0  0  0  0
  139.7630   69.4470  226.3560 C   0  0  0  0  0  0  0  0  0  0  0  0
  140.9020   74.1210  221.5650 C   0  0  0  0  0  0  0  0  0  0  0  0
  141.8480   74.6530  220.7140 C   0  0  0  0  0  0  0  0  0  0  0  0
  142.0020   76.0030  220.4950 C   0  0  0  0  0  0  0  0  0  0  0  0
  141.1460   76.8520  221.1810 C   0  0  0  0  0  0  0  0  0  0  0  0
  141.2640   78.2240  220.9920 C   0  0  0  0  0  0  0  0  0  0  0  0
  140.4000   79.0630  221.6860 C   0  0  0  0  0  0  0  0  0  0  0  0
  140.5480   80.7920  221.4480 Cl  0  0  0  0  0  0  0  0  0  0  0  0
  139.4460   78.5830  222.5390 C   0  0  0  0  0  0  0  0  0  0  0  0
  139.3440   77.2030  222.7150 C   0  0  0  0  0  0  0  0  0  0  0  0
  140.1960   76.3300  222.0350 C   0  0  0  0  0  0  0  0  0  0  0  0
  140.1000   74.9950  222.2010 N   0  0  0  0  0  0  0  0  0  0  0  0
  139.2190   72.9270  223.2060 H   0  0  0  0  0  0  0  0  0  0  0  0
  138.9096   70.3989  222.2245 H   0  0  0  0  0  0  0  0  0  0  0  0
  140.5706   70.2814  222.8737 H   0  0  0  0  0  0  0  0  0  0  0  0
  141.8924   71.1612  225.3807 H   0  0  0  0  0  0  0  0  0  0  0  0
  140.6226   72.4755  225.2031 H   0  0  0  0  0  0  0  0  0  0  0  0
  142.0111   72.4621  227.3204 H   0  0  0  0  0  0  0  0  0  0  0  0
  140.2232   72.5645  227.4655 H   0  0  0  0  0  0  0  0  0  0  0  0
  141.8726   69.9905  227.6995 H   0  0  0  0  0  0  0  0  0  0  0  0
  141.2203   70.8846  229.0760 H   0  0  0  0  0  0  0  0  0  0  0  0
  138.8734   70.7382  227.8507 H   0  0  0  0  0  0  0  0  0  0  0  0
  140.6265   68.7720  226.2620 H   0  0  0  0  0  0  0  0  0  0  0  0
  138.8564   68.8692  226.1232 H   0  0  0  0  0  0  0  0  0  0  0  0
  142.5161   73.9604  220.1811 H   0  0  0  0  0  0  0  0  0  0  0  0
  142.7684   76.3908  219.8078 H   0  0  0  0  0  0  0  0  0  0  0  0
  142.0225   78.6357  220.3100 H   0  0  0  0  0  0  0  0  0  0  0  0
  138.7738   79.2695  223.0746 H   0  0  0  0  0  0  0  0  0  0  0  0
  138.5830   76.7973  223.3979 H   0  0  0  0  0  0  0  0  0  0  0  0
  1  2  2  0
  2  3  1  0
  3  4  1  0
  4  5  1  0
  5  6  2  0
  5  7  1  0
  7  8  1  0
  8  9  1  0
  9 10  1  0
 10 11  1  0
 11 12  1  0
 11 13  1  0
  2 14  1  0
 14 15  2  0
 15 16  1  0
 16 17  2  0
 17 18  1  0
 18 19  2  0
 19 20  1  0
 19 21  1  0
 21 22  2  0
 22 23  1  0
 23 24  2  0
 13  7  1  0
 24 14  1  0
 23 17  1  0
  3 25  1  0
  4 26  1  0
  4 27  1  0
  8 28  1  0
  8 29  1  0
  9 30  1  0
  9 31  1  0
 10 32  1  0
 10 33  1  0
 11 34  1  6
 13 35  1  0
 13 36  1  0
 15 37  1  0
 16 38  1  0
 18 39  1  0
 21 40  1  0
 22 41  1  0
M  END
>  <smiles>  (3) 
O=C(NCC(=O)N1CCCC(F)C1)c1ccc2cc(Cl)ccc2n1

>  <score_type>  (3) 
oracle

>  <origin>  (3) 
autodockgpu

>  <m_score__min__energy>  (3) 
-7.3200000000000003

>  <m_primary>  (3) 
energy

>  <rmsd>  (3) 
8.334295107887106

>  <m_score__min__rmsd>  (3) 
8.334295107887106

>  <meeko>  (3) 
{"free_energy": -7.01, "intermolecular_energy": -8.2, "internal_energy": -1.19, "cluster_size": 31, "cluster_id": 3, "rank_in_cluster": 26}

>  <energy>  (3) 
-7.29

>  <cluster_rmsd>  (3) 
0.21

>  <cluster>  (3) 
1

$$$$

     RDKit          3D

 41 43  0  0  0  0  0  0  0  0999 V2000
  135.4380   68.5570  224.5400 O   0  0  0  0  0  0  0  0  0  0  0  0
  135.8640   69.7240  224.7270 C   0  0  0  0  0  0  0  0  0  0  0  0
  137.1680   70.1500  224.3650 N   0  0  0  0  0  0  0  0  0  0  0  0
  138.1020   69.2610  223.7500 C   0  0  0  0  0  0  0  0  0  0  0  0
  138.9160   68.6270  224.8190 C   0  0  0  0  0  0  0  0  0  0  0  0
  139.1680   67.3870  224.7190 O   0  0  0  0  0  0  0  0  0  0  0  0
  139.3950   69.3750  225.9140 N   0  0  0  0  0  0  0  0  0  0  0  0
  139.5130   68.7980  227.2330 C   0  0  0  0  0  0  0  0  0  0  0  0
  140.7470   69.1880  227.9750 C   0  0  0  0  0  0  0  0  0  0  0  0
  140.9690   70.6780  227.8420 C   0  0  0  0  0  0  0  0  0  0  0  0
  141.1550   70.9250  226.3410 C   0  0  2  0  0  0  0  0  0  0  0  0
  141.6570   72.1890  226.1210 F   0  0  0  0  0  0  0  0  0  0  0  0
  139.7820   70.7600  225.7230 C   0  0  0  0  0  0  0  0  0  0  0  0
  134.9750   70.7200  225.3570 C   0  0  0  0  0  0  0  0  0  0  0  0
  133.9950   70.3440  226.2520 C   0  0  0  0  0  0  0  0  0  0  0  0
  133.1420   71.2340  226.8660 C   0  0  0  0  0  0  0  0  0  0  0  0
  133.2990   72.5740  226.5470 C   0  0  0  0  0  0  0  0  0  0  0  0
  132.4600   73.5090  227.1430 C   0  0  0  0  0  0  0  0  0  0  0  0
  132.6280   74.8500  226.8140 C   0  0  0  0  0  0  0  0  0  0  0  0
  131.5710   76.0290  227.5640 Cl  0  0  0  0  0  0  0  0  0  0  0  0
  133.5840   75.2720  225.9340 C   0  0  0  0  0  0  0  0  0  0  0  0
  134.4150   74.3170  225.3480 C   0  0  0  0  0  0  0  0  0  0  0  0
  134.2760   72.9610  225.6530 C   0  0  0  0  0  0  0  0  0  0  0  0
  135.0780   72.0350  225.0900 N   0  0  0  0  0  0  0  0  0  0  0  0
  137.4500   71.1530  224.5580 H   0  0  0  0  0  0  0  0  0  0  0  0
  137.5621   68.4868  223.1851 H   0  0  0  0  0  0  0  0  0  0  0  0
  138.7521   69.8147  223.0566 H   0  0  0  0  0  0  0  0  0  0  0  0
  138.6421   69.1155  227.8252 H   0  0  0  0  0  0  0  0  0  0  0  0
  139.5660   67.7083  227.0922 H   0  0  0  0  0  0  0  0  0  0  0  0
  140.6327   68.9283  229.0378 H   0  0  0  0  0  0  0  0  0  0  0  0
  141.6106   68.6510  227.5557 H   0  0  0  0  0  0  0  0  0  0  0  0
  140.0972   71.2329  228.2190 H   0  0  0  0  0  0  0  0  0  0  0  0
  141.8378   71.0175  228.4249 H   0  0  0  0  0  0  0  0  0  0  0  0
  141.8745   70.2229  225.8945 H   0  0  0  0  0  0  0  0  0  0  0  0
  139.0613   71.4257  226.2204 H   0  0  0  0  0  0  0  0  0  0  0  0
  139.7987   71.0193  224.6541 H   0  0  0  0  0  0  0  0  0  0  0  0
  133.8890   69.2749  226.4882 H   0  0  0  0  0  0  0  0  0  0  0  0
  132.3723   70.8975  227.5761 H   0  0  0  0  0  0  0  0  0  0  0  0
  131.6833   73.1962  227.8564 H   0  0  0  0  0  0  0  0  0  0  0  0
  133.6958   76.3395  225.6933 H   0  0  0  0  0  0  0  0  0  0  0  0
  135.1903   74.6362  224.6360 H   0  0  0  0  0  0  0  0  0  0  0  0
  1  2  2  0
  2  3  1  0
  3  4  1  0
  4  5  1  0
  5  6  2  0
  5  7  1  0
  7  8  1  0
  8  9  1  0
  9 10  1  0
 10 11  1  0
 11 12  1  0
 11 13  1  0
  2 14  1  0
 14 15  2  0
 15 16  1  0
 16 17  2  0
 17 18  1  0
 18 19  2  0
 19 20  1  0
 19 21  1  0
 21 22  2  0
 22 23  1  0
 23 24  2  0
 13  7  1  0
 24 14  1  0
 23 17  1  0
  3 25  1  0
  4 26  1  0
  4 27  1  0
  8 28  1  0
  8 29  1  0
  9 30  1  0
  9 31  1  0
 10 32  1  0
 10 33  1  0
 11 34  1  6
 13 35  1  0
 13 36  1  0
 15 37  1  0
 16 38  1  0
 18 39  1  0
 21 40  1  0
 22 41  1  0
M  END
>  <smiles>  (4) 
O=C(NCC(=O)N1CCCC(F)C1)c1ccc2cc(Cl)ccc2n1

>  <score_type>  (4) 
oracle

>  <origin>  (4) 
autodockgpu

>  <m_score__min__energy>  (4) 
-7.3200000000000003

>  <m_primary>  (4) 
energy

>  <rmsd>  (4) 
8.358342740750606

>  <m_score__min__rmsd>  (4) 
8.358342740750606

>  <meeko>  (4) 
{"free_energy": -7.14, "intermolecular_energy": -8.33, "internal_energy": -1.11, "cluster_size": 6, "cluster_id": 2, "rank_in_cluster": 3}

>  <energy>  (4) 
-7.29

>  <cluster_rmsd>  (4) 
0.15

>  <cluster>  (4) 
1

$$$$

     RDKit          3D

 41 43  0  0  0  0  0  0  0  0999 V2000
  141.4500   71.6460  221.1290 O   0  0  0  0  0  0  0  0  0  0  0  0
  140.7560   72.4880  221.7520 C   0  0  0  0  0  0  0  0  0  0  0  0
  139.7430   72.1370  222.6800 N   0  0  0  0  0  0  0  0  0  0  0  0
  139.4390   70.7730  222.9750 C   0  0  0  0  0  0  0  0  0  0  0  0
  138.9430   70.6980  224.3740 C   0  0  0  0  0  0  0  0  0  0  0  0
  137.6900   70.7660  224.5660 O   0  0  0  0  0  0  0  0  0  0  0  0
  139.8330   70.5560  225.4580 N   0  0  0  0  0  0  0  0  0  0  0  0
  140.8620   71.5330  225.7280 C   0  0  0  0  0  0  0  0  0  0  0  0
  141.0570   71.8490  227.1730 C   0  0  0  0  0  0  0  0  0  0  0  0
  141.0850   70.5650  227.9730 C   0  0  0  0  0  0  0  0  0  0  0  0
  139.7110   69.9230  227.7530 C   0  0  2  0  0  0  0  0  0  0  0  0
  139.5060   68.9070  228.6600 F   0  0  0  0  0  0  0  0  0  0  0  0
  139.7220   69.4020  226.3310 C   0  0  0  0  0  0  0  0  0  0  0  0
  140.9930   73.9270  221.5170 C   0  0  0  0  0  0  0  0  0  0  0  0
  141.9290   74.3610  220.6020 C   0  0  0  0  0  0  0  0  0  0  0  0
  142.1860   75.6890  220.3470 C   0  0  0  0  0  0  0  0  0  0  0  0
  141.4510   76.6190  221.0650 C   0  0  0  0  0  0  0  0  0  0  0  0
  141.6760   77.9730  220.8420 C   0  0  0  0  0  0  0  0  0  0  0  0
  140.9320   78.8950  221.5690 C   0  0  0  0  0  0  0  0  0  0  0  0
  141.2160   80.6000  221.2880 Cl  0  0  0  0  0  0  0  0  0  0  0  0
  139.9930   78.5140  222.4870 C   0  0  0  0  0  0  0  0  0  0  0  0
  139.7830   77.1510  222.6960 C   0  0  0  0  0  0  0  0  0  0  0  0
  140.5120   76.1960  221.9840 C   0  0  0  0  0  0  0  0  0  0  0  0
  140.3110   74.8770  222.1820 N   0  0  0  0  0  0  0  0  0  0  0  0
  139.2030   72.9100  223.1640 H   0  0  0  0  0  0  0  0  0  0  0  0
  138.6641   70.4070  222.2854 H   0  0  0  0  0  0  0  0  0  0  0  0
  140.3380   70.1502  222.8575 H   0  0  0  0  0  0  0  0  0  0  0  0
  141.8126   71.1485  225.3299 H   0  0  0  0  0  0  0  0  0  0  0  0
  140.5378   72.4673  225.2464 H   0  0  0  0  0  0  0  0  0  0  0  0
  142.0089   72.3841  227.3057 H   0  0  0  0  0  0  0  0  0  0  0  0
  140.2279   72.4808  227.5243 H   0  0  0  0  0  0  0  0  0  0  0  0
  141.8833   69.9014  227.6092 H   0  0  0  0  0  0  0  0  0  0  0  0
  141.2862   70.7494  229.0386 H   0  0  0  0  0  0  0  0  0  0  0  0
  138.8919   70.6420  227.9015 H   0  0  0  0  0  0  0  0  0  0  0  0
  140.5805   68.7308  226.1811 H   0  0  0  0  0  0  0  0  0  0  0  0
  138.8065   68.8320  226.1143 H   0  0  0  0  0  0  0  0  0  0  0  0
  142.5016   73.6045  220.0454 H   0  0  0  0  0  0  0  0  0  0  0  0
  142.9397   75.9978  219.6077 H   0  0  0  0  0  0  0  0  0  0  0  0
  142.4245   78.3063  220.1081 H   0  0  0  0  0  0  0  0  0  0  0  0
  139.4167   79.2648  223.0475 H   0  0  0  0  0  0  0  0  0  0  0  0
  139.0332   76.8239  223.4314 H   0  0  0  0  0  0  0  0  0  0  0  0
  1  2  2  0
  2  3  1  0
  3  4  1  0
  4  5  1  0
  5  6  2  0
  5  7  1  0
  7  8  1  0
  8  9  1  0
  9 10  1  0
 10 11  1  0
 11 12  1  0
 11 13  1  0
  2 14  1  0
 14 15  2  0
 15 16  1  0
 16 17  2  0
 17 18  1  0
 18 19  2  0
 19 20  1  0
 19 21  1  0
 21 22  2  0
 22 23  1  0
 23 24  2  0
 13  7  1  0
 24 14  1  0
 23 17  1  0
  3 25  1  0
  4 26  1  0
  4 27  1  0
  8 28  1  0
  8 29  1  0
  9 30  1  0
  9 31  1  0
 10 32  1  0
 10 33  1  0
 11 34  1  6
 13 35  1  0
 13 36  1  0
 15 37  1  0
 16 38  1  0
 18 39  1  0
 21 40  1  0
 22 41  1  0
M  END
>  <smiles>  (5) 
O=C(NCC(=O)N1CCCC(F)C1)c1ccc2cc(Cl)ccc2n1

>  <score_type>  (5) 
oracle

>  <origin>  (5) 
autodockgpu

>  <m_score__min__energy>  (5) 
-7.3200000000000003

>  <m_primary>  (5) 
energy

>  <rmsd>  (5) 
8.293637696766163

>  <m_score__min__rmsd>  (5) 
8.293637696766163

>  <meeko>  (5) 
{"free_energy": -7.14, "intermolecular_energy": -8.34, "internal_energy": -1.2, "cluster_size": 31, "cluster_id": 3, "rank_in_cluster": 8}

>  <energy>  (5) 
-7.28

>  <cluster_rmsd>  (5) 
0.26

>  <cluster>  (5) 
1

$$$$

     RDKit          3D

 41 43  0  0  0  0  0  0  0  0999 V2000
  141.5140   71.6250  221.2370 O   0  0  0  0  0  0  0  0  0  0  0  0
  140.7710   72.4660  221.8030 C   0  0  0  0  0  0  0  0  0  0  0  0
  139.7060   72.1130  222.6710 N   0  0  0  0  0  0  0  0  0  0  0  0
  139.4030   70.7490  222.9670 C   0  0  0  0  0  0  0  0  0  0  0  0
  138.9260   70.6720  224.3710 C   0  0  0  0  0  0  0  0  0  0  0  0
  137.6790   70.7840  224.5830 O   0  0  0  0  0  0  0  0  0  0  0  0
  139.8250   70.4810  225.4400 N   0  0  0  0  0  0  0  0  0  0  0  0
  140.7410   71.5180  225.8550 C   0  0  0  0  0  0  0  0  0  0  0  0
  140.9000   71.6540  227.3320 C   0  0  0  0  0  0  0  0  0  0  0  0
  141.0680   70.2840  227.9510 C   0  0  0  0  0  0  0  0  0  0  0  0
  139.7730   69.5330  227.6260 C   0  0  2  0  0  0  0  0  0  0  0  0
  139.6800   68.3860  228.3840 F   0  0  0  0  0  0  0  0  0  0  0  0
  139.8410   69.2140  226.1470 C   0  0  0  0  0  0  0  0  0  0  0  0
  141.0030   73.9040  221.5610 C   0  0  0  0  0  0  0  0  0  0  0  0
  141.9410   74.3370  220.6480 C   0  0  0  0  0  0  0  0  0  0  0  0
  142.1940   75.6660  220.3880 C   0  0  0  0  0  0  0  0  0  0  0  0
  141.4500   76.5960  221.0970 C   0  0  0  0  0  0  0  0  0  0  0  0
  141.6710   77.9500  220.8680 C   0  0  0  0  0  0  0  0  0  0  0  0
  140.9180   78.8720  221.5860 C   0  0  0  0  0  0  0  0  0  0  0  0
  141.1960   80.5770  221.2980 Cl  0  0  0  0  0  0  0  0  0  0  0  0
  139.9770   78.4920  222.5010 C   0  0  0  0  0  0  0  0  0  0  0  0
  139.7720   77.1290  222.7160 C   0  0  0  0  0  0  0  0  0  0  0  0
  140.5090   76.1740  222.0140 C   0  0  0  0  0  0  0  0  0  0  0  0
  140.3130   74.8550  222.2180 N   0  0  0  0  0  0  0  0  0  0  0  0
  139.1260   72.8850  223.1080 H   0  0  0  0  0  0  0  0  0  0  0  0
  138.6182   70.3862  222.2870 H   0  0  0  0  0  0  0  0  0  0  0  0
  140.2990   70.1245  222.8361 H   0  0  0  0  0  0  0  0  0  0  0  0
  141.7280   71.2964  225.4230 H   0  0  0  0  0  0  0  0  0  0  0  0
  140.3166   72.4684  225.4991 H   0  0  0  0  0  0  0  0  0  0  0  0
  141.7877   72.2659  227.5501 H   0  0  0  0  0  0  0  0  0  0  0  0
  140.0069   72.1388  227.7531 H   0  0  0  0  0  0  0  0  0  0  0  0
  141.9341   69.7665  227.5126 H   0  0  0  0  0  0  0  0  0  0  0  0
  141.2477   70.3424  229.0347 H   0  0  0  0  0  0  0  0  0  0  0  0
  138.8805   70.1326  227.8585 H   0  0  0  0  0  0  0  0  0  0  0  0
  140.7678   68.6665  225.9206 H   0  0  0  0  0  0  0  0  0  0  0  0
  138.9936   68.5826  225.8416 H   0  0  0  0  0  0  0  0  0  0  0  0
  142.5187   73.5801  220.0972 H   0  0  0  0  0  0  0  0  0  0  0  0
  142.9511   75.9747  219.6521 H   0  0  0  0  0  0  0  0  0  0  0  0
  142.4227   78.2829  220.1372 H   0  0  0  0  0  0  0  0  0  0  0  0
  139.3949   79.2431  223.0550 H   0  0  0  0  0  0  0  0  0  0  0  0
  139.0193   76.8025  223.4487 H   0  0  0  0  0  0  0  0  0  0  0  0
  1  2  2  0
  2  3  1  0
  3  4  1  0
  4  5  1  0
  5  6  2  0
  5  7  1  0
  7  8  1  0
  8  9  1  0
  9 10  1  0
 10 11  1  0
 11 12  1  0
 11 13  1  0
  2 14  1  0
 14 15  2  0
 15 16  1  0
 16 17  2  0
 17 18  1  0
 18 19  2  0
 19 20  1  0
 19 21  1  0
 21 22  2  0
 22 23  1  0
 23 24  2  0
 13  7  1  0
 24 14  1  0
 23 17  1  0
  3 25  1  0
  4 26  1  0
  4 27  1  0
  8 28  1  0
  8 29  1  0
  9 30  1  0
  9 31  1  0
 10 32  1  0
 10 33  1  0
 11 34  1  6
 13 35  1  0
 13 36  1  0
 15 37  1  0
 16 38  1  0
 18 39  1  0
 21 40  1  0
 22 41  1  0
M  END
>  <smiles>  (6) 
O=C(NCC(=O)N1CCCC(F)C1)c1ccc2cc(Cl)ccc2n1

>  <score_type>  (6) 
oracle

>  <origin>  (6) 
autodockgpu

>  <m_score__min__energy>  (6) 
-7.3200000000000003

>  <m_primary>  (6) 
energy

>  <rmsd>  (6) 
8.323566570365704

>  <m_score__min__rmsd>  (6) 
8.323566570365704

>  <meeko>  (6) 
{"free_energy": -7.12, "intermolecular_energy": -8.31, "internal_energy": -1.19, "cluster_size": 31, "cluster_id": 3, "rank_in_cluster": 23}

>  <energy>  (6) 
-7.26

>  <cluster_rmsd>  (6) 
0.2

>  <cluster>  (6) 
1

$$$$

     RDKit          3D

 41 43  0  0  0  0  0  0  0  0999 V2000
  135.1810   68.5050  224.7360 O   0  0  0  0  0  0  0  0  0  0  0  0
  135.6570   69.6560  224.9020 C   0  0  0  0  0  0  0  0  0  0  0  0
  136.9850   70.0130  224.5520 N   0  0  0  0  0  0  0  0  0  0  0  0
  137.8860   69.0670  223.9740 C   0  0  0  0  0  0  0  0  0  0  0  0
  138.8200   68.6060  225.0340 C   0  0  0  0  0  0  0  0  0  0  0  0
  139.2080   67.3980  225.0000 O   0  0  0  0  0  0  0  0  0  0  0  0
  139.2640   69.4790  226.0480 N   0  0  0  0  0  0  0  0  0  0  0  0
  139.1990   69.1140  227.4450 C   0  0  0  0  0  0  0  0  0  0  0  0
  140.3900   69.5150  228.2490 C   0  0  0  0  0  0  0  0  0  0  0  0
  140.7670   70.9420  227.9160 C   0  0  0  0  0  0  0  0  0  0  0  0
  141.1170   70.9290  226.4250 C   0  0  2  0  0  0  0  0  0  0  0  0
  141.7580   72.0970  226.0720 F   0  0  0  0  0  0  0  0  0  0  0  0
  139.8000   70.7790  225.6930 C   0  0  0  0  0  0  0  0  0  0  0  0
  134.8050   70.7070  225.4930 C   0  0  0  0  0  0  0  0  0  0  0  0
  133.7320   70.3920  226.3000 C   0  0  0  0  0  0  0  0  0  0  0  0
  132.9080   71.3340  226.8740 C   0  0  0  0  0  0  0  0  0  0  0  0
  133.1960   72.6640  226.6090 C   0  0  0  0  0  0  0  0  0  0  0  0
  132.3920   73.6510  227.1670 C   0  0  0  0  0  0  0  0  0  0  0  0
  132.6920   74.9810  226.8920 C   0  0  0  0  0  0  0  0  0  0  0  0
  131.6780   76.2250  227.5950 Cl  0  0  0  0  0  0  0  0  0  0  0  0
  133.7440   75.3430  226.0990 C   0  0  0  0  0  0  0  0  0  0  0  0
  134.5390   74.3370  225.5490 C   0  0  0  0  0  0  0  0  0  0  0  0
  134.2670   72.9910  225.8020 C   0  0  0  0  0  0  0  0  0  0  0  0
  135.0340   72.0150  225.2730 N   0  0  0  0  0  0  0  0  0  0  0  0
  137.3090   71.0070  224.7250 H   0  0  0  0  0  0  0  0  0  0  0  0
  137.3218   68.2103  223.5768 H   0  0  0  0  0  0  0  0  0  0  0  0
  138.4470   69.5318  223.1498 H   0  0  0  0  0  0  0  0  0  0  0  0
  138.3118   69.5938  227.8838 H   0  0  0  0  0  0  0  0  0  0  0  0
  139.1569   68.0153  227.4780 H   0  0  0  0  0  0  0  0  0  0  0  0
  140.1515   69.4393  229.3202 H   0  0  0  0  0  0  0  0  0  0  0  0
  141.2328   68.8487  228.0127 H   0  0  0  0  0  0  0  0  0  0  0  0
  139.9213   71.6188  228.1075 H   0  0  0  0  0  0  0  0  0  0  0  0
  141.6058   71.2993  228.5315 H   0  0  0  0  0  0  0  0  0  0  0  0
  141.8038   70.1081  226.1712 H   0  0  0  0  0  0  0  0  0  0  0  0
  139.1034   71.5722  226.0021 H   0  0  0  0  0  0  0  0  0  0  0  0
  139.9434   70.8611  224.6055 H   0  0  0  0  0  0  0  0  0  0  0  0
  133.5230   69.3300  226.4959 H   0  0  0  0  0  0  0  0  0  0  0  0
  132.0607   71.0448  227.5130 H   0  0  0  0  0  0  0  0  0  0  0  0
  131.5396   73.3868  227.8102 H   0  0  0  0  0  0  0  0  0  0  0  0
  133.9592   76.4030  225.8988 H   0  0  0  0  0  0  0  0  0  0  0  0
  135.3909   74.6076  224.9079 H   0  0  0  0  0  0  0  0  0  0  0  0
  1  2  2  0
  2  3  1  0
  3  4  1  0
  4  5  1  0
  5  6  2  0
  5  7  1  0
  7  8  1  0
  8  9  1  0
  9 10  1  0
 10 11  1  0
 11 12  1  0
 11 13  1  0
  2 14  1  0
 14 15  2  0
 15 16  1  0
 16 17  2  0
 17 18  1  0
 18 19  2  0
 19 20  1  0
 19 21  1  0
 21 22  2  0
 22 23  1  0
 23 24  2  0
 13  7  1  0
 24 14  1  0
 23 17  1  0
  3 25  1  0
  4 26  1  0
  4 27  1  0
  8 28  1  0
  8 29  1  0
  9 30  1  0
  9 31  1  0
 10 32  1  0
 10 33  1  0
 11 34  1  1
 13 35  1  0
 13 36  1  0
 15 37  1  0
 16 38  1  0
 18 39  1  0
 21 40  1  0
 22 41  1  0
M  END
>  <smiles>  (7) 
O=C(NCC(=O)N1CCCC(F)C1)c1ccc2cc(Cl)ccc2n1

>  <score_type>  (7) 
oracle

>  <origin>  (7) 
autodockgpu

>  <m_score__min__energy>  (7) 
-7.3200000000000003

>  <m_primary>  (7) 
energy

>  <rmsd>  (7) 
8.430133190121031

>  <m_score__min__rmsd>  (7) 
8.430133190121031

>  <meeko>  (7) 
{"free_energy": -7.16, "intermolecular_energy": -8.35, "internal_energy": -1.16, "cluster_size": 6, "cluster_id": 2, "rank_in_cluster": 2}

>  <energy>  (7) 
-7.26

>  <cluster_rmsd>  (7) 
0.31

>  <cluster>  (7) 
1

$$$$

     RDKit          3D

 41 43  0  0  0  0  0  0  0  0999 V2000
  135.5320   68.8900  224.6120 O   0  0  0  0  0  0  0  0  0  0  0  0
  135.8900   70.0880  224.7420 C   0  0  0  0  0  0  0  0  0  0  0  0
  137.1480   70.5820  224.3100 N   0  0  0  0  0  0  0  0  0  0  0  0
  138.1100   69.7330  223.6830 C   0  0  0  0  0  0  0  0  0  0  0  0
  138.8540   69.0080  224.7450 C   0  0  0  0  0  0  0  0  0  0  0  0
  139.0550   67.7640  224.5880 O   0  0  0  0  0  0  0  0  0  0  0  0
  139.3240   69.6760  225.8940 N   0  0  0  0  0  0  0  0  0  0  0  0
  139.2960   69.0530  227.1980 C   0  0  0  0  0  0  0  0  0  0  0  0
  140.5070   69.3010  228.0330 C   0  0  0  0  0  0  0  0  0  0  0  0
  140.8760   70.7670  227.9660 C   0  0  0  0  0  0  0  0  0  0  0  0
  141.1880   71.0370  226.4900 C   0  0  2  0  0  0  0  0  0  0  0  0
  141.8200   72.2530  226.3480 F   0  0  0  0  0  0  0  0  0  0  0  0
  139.8520   71.0220  225.7770 C   0  0  0  0  0  0  0  0  0  0  0  0
  134.9660   71.0470  225.3790 C   0  0  0  0  0  0  0  0  0  0  0  0
  133.9480   70.6220  226.2070 C   0  0  0  0  0  0  0  0  0  0  0  0
  133.0610   71.4760  226.8240 C   0  0  0  0  0  0  0  0  0  0  0  0
  133.2230   72.8310  226.5810 C   0  0  0  0  0  0  0  0  0  0  0  0
  132.3510   73.7320  227.1820 C   0  0  0  0  0  0  0  0  0  0  0  0
  132.5250   75.0880  226.9300 C   0  0  0  0  0  0  0  0  0  0  0  0
  131.4270   76.2230  227.6870 Cl  0  0  0  0  0  0  0  0  0  0  0  0
  133.5190   75.5580  226.1170 C   0  0  0  0  0  0  0  0  0  0  0  0
  134.3830   74.6370  225.5240 C   0  0  0  0  0  0  0  0  0  0  0  0
  134.2380   73.2670  225.7540 C   0  0  0  0  0  0  0  0  0  0  0  0
  135.0720   72.3740  225.1830 N   0  0  0  0  0  0  0  0  0  0  0  0
  137.3720   71.6070  224.4580 H   0  0  0  0  0  0  0  0  0  0  0  0
  137.5990   69.0118  223.0282 H   0  0  0  0  0  0  0  0  0  0  0  0
  138.8042   70.3312  223.0745 H   0  0  0  0  0  0  0  0  0  0  0  0
  138.4202   69.4362  227.7421 H   0  0  0  0  0  0  0  0  0  0  0  0
  139.2559   67.9677  227.0232 H   0  0  0  0  0  0  0  0  0  0  0  0
  140.2958   69.0236  229.0763 H   0  0  0  0  0  0  0  0  0  0  0  0
  141.3433   68.6953  227.6540 H   0  0  0  0  0  0  0  0  0  0  0  0
  140.0358   71.3918  228.3030 H   0  0  0  0  0  0  0  0  0  0  0  0
  141.7303   71.0056  228.6166 H   0  0  0  0  0  0  0  0  0  0  0  0
  141.8677   70.2820  226.0681 H   0  0  0  0  0  0  0  0  0  0  0  0
  139.1643   71.7398  226.2480 H   0  0  0  0  0  0  0  0  0  0  0  0
  139.9673   71.3081  224.7211 H   0  0  0  0  0  0  0  0  0  0  0  0
  133.8386   69.5419  226.3842 H   0  0  0  0  0  0  0  0  0  0  0  0
  132.2612   71.1003  227.4791 H   0  0  0  0  0  0  0  0  0  0  0  0
  131.5433   73.3804  227.8407 H   0  0  0  0  0  0  0  0  0  0  0  0
  133.6346   76.6366  225.9349 H   0  0  0  0  0  0  0  0  0  0  0  0
  135.1892   74.9946  224.8665 H   0  0  0  0  0  0  0  0  0  0  0  0
  1  2  2  0
  2  3  1  0
  3  4  1  0
  4  5  1  0
  5  6  2  0
  5  7  1  0
  7  8  1  0
  8  9  1  0
  9 10  1  0
 10 11  1  0
 11 12  1  0
 11 13  1  0
  2 14  1  0
 14 15  2  0
 15 16  1  0
 16 17  2  0
 17 18  1  0
 18 19  2  0
 19 20  1  0
 19 21  1  0
 21 22  2  0
 22 23  1  0
 23 24  2  0
 13  7  1  0
 24 14  1  0
 23 17  1  0
  3 25  1  0
  4 26  1  0
  4 27  1  0
  8 28  1  0
  8 29  1  0
  9 30  1  0
  9 31  1  0
 10 32  1  0
 10 33  1  0
 11 34  1  6
 13 35  1  0
 13 36  1  0
 15 37  1  0
 16 38  1  0
 18 39  1  0
 21 40  1  0
 22 41  1  0
M  END
>  <smiles>  (8) 
O=C(NCC(=O)N1CCCC(F)C1)c1ccc2cc(Cl)ccc2n1

>  <score_type>  (8) 
oracle

>  <origin>  (8) 
autodockgpu

>  <m_score__min__energy>  (8) 
-7.3200000000000003

>  <m_primary>  (8) 
energy

>  <rmsd>  (8) 
8.345599672857748

>  <m_score__min__rmsd>  (8) 
8.345599672857748

>  <meeko>  (8) 
{"free_energy": -6.94, "intermolecular_energy": -8.14, "internal_energy": -1.2, "cluster_size": 6, "cluster_id": 2, "rank_in_cluster": 6}

>  <energy>  (8) 
-7.26

>  <cluster_rmsd>  (8) 
0.28

>  <cluster>  (8) 
1

$$$$

     RDKit          3D

 41 43  0  0  0  0  0  0  0  0999 V2000
  141.6570   72.0940  220.8990 O   0  0  0  0  0  0  0  0  0  0  0  0
  141.0050   72.9140  221.5930 C   0  0  0  0  0  0  0  0  0  0  0  0
  140.0860   72.5300  222.6030 N   0  0  0  0  0  0  0  0  0  0  0  0
  139.8380   71.1570  222.9070 C   0  0  0  0  0  0  0  0  0  0  0  0
  139.2640   71.0780  224.2740 C   0  0  0  0  0  0  0  0  0  0  0  0
  138.0270   71.3260  224.4160 O   0  0  0  0  0  0  0  0  0  0  0  0
  140.0640   70.7380  225.3840 N   0  0  0  0  0  0  0  0  0  0  0  0
  140.8720   71.7220  226.0670 C   0  0  0  0  0  0  0  0  0  0  0  0
  140.8760   71.6020  227.5540 C   0  0  0  0  0  0  0  0  0  0  0  0
  141.0640   70.1520  227.9440 C   0  0  0  0  0  0  0  0  0  0  0  0
  139.8530   69.4180  227.3580 C   0  0  2  0  0  0  0  0  0  0  0  0
  139.7540   68.1520  227.8940 F   0  0  0  0  0  0  0  0  0  0  0  0
  140.0850   69.3680  225.8620 C   0  0  0  0  0  0  0  0  0  0  0  0
  141.1900   74.3600  221.3560 C   0  0  0  0  0  0  0  0  0  0  0  0
  142.0070   74.8240  220.3470 C   0  0  0  0  0  0  0  0  0  0  0  0
  142.2110   76.1610  220.0870 C   0  0  0  0  0  0  0  0  0  0  0  0
  141.5480   77.0670  220.9010 C   0  0  0  0  0  0  0  0  0  0  0  0
  141.7240   78.4270  220.6750 C   0  0  0  0  0  0  0  0  0  0  0  0
  141.0540   79.3250  221.4990 C   0  0  0  0  0  0  0  0  0  0  0  0
  141.2760   81.0390  221.2160 Cl  0  0  0  0  0  0  0  0  0  0  0  0
  140.2330   78.9140  222.5110 C   0  0  0  0  0  0  0  0  0  0  0  0
  140.0700   77.5440  222.7200 C   0  0  0  0  0  0  0  0  0  0  0  0
  140.7290   76.6130  221.9140 C   0  0  0  0  0  0  0  0  0  0  0  0
  140.5730   75.2880  222.1110 N   0  0  0  0  0  0  0  0  0  0  0  0
  139.5760   73.2860  223.1440 H   0  0  0  0  0  0  0  0  0  0  0  0
  139.1266   70.7378  222.1802 H   0  0  0  0  0  0  0  0  0  0  0  0
  140.7747   70.5825  222.8557 H   0  0  0  0  0  0  0  0  0  0  0  0
  141.9083   71.6204  225.7123 H   0  0  0  0  0  0  0  0  0  0  0  0
  140.4295   72.7021  225.8356 H   0  0  0  0  0  0  0  0  0  0  0  0
  141.6995   72.2025  227.9678 H   0  0  0  0  0  0  0  0  0  0  0  0
  139.9183   71.9673  227.9533 H   0  0  0  0  0  0  0  0  0  0  0  0
  141.9980   69.7561  227.5186 H   0  0  0  0  0  0  0  0  0  0  0  0
  141.1334   70.0253  229.0345 H   0  0  0  0  0  0  0  0  0  0  0  0
  138.9082   69.9303  227.5926 H   0  0  0  0  0  0  0  0  0  0  0  0
  141.0603   68.9073  225.6460 H   0  0  0  0  0  0  0  0  0  0  0  0
  139.3103   68.7664  225.3642 H   0  0  0  0  0  0  0  0  0  0  0  0
  142.5239   74.0864  219.7155 H   0  0  0  0  0  0  0  0  0  0  0  0
  142.8694   76.4947  219.2714 H   0  0  0  0  0  0  0  0  0  0  0  0
  142.3768   78.7841  219.8648 H   0  0  0  0  0  0  0  0  0  0  0  0
  139.7127   79.6461  223.1461 H   0  0  0  0  0  0  0  0  0  0  0  0
  139.4140   77.1927  223.5301 H   0  0  0  0  0  0  0  0  0  0  0  0
  1  2  2  0
  2  3  1  0
  3  4  1  0
  4  5  1  0
  5  6  2  0
  5  7  1  0
  7  8  1  0
  8  9  1  0
  9 10  1  0
 10 11  1  0
 11 12  1  0
 11 13  1  0
  2 14  1  0
 14 15  2  0
 15 16  1  0
 16 17  2  0
 17 18  1  0
 18 19  2  0
 19 20  1  0
 19 21  1  0
 21 22  2  0
 22 23  1  0
 23 24  2  0
 13  7  1  0
 24 14  1  0
 23 17  1  0
  3 25  1  0
  4 26  1  0
  4 27  1  0
  8 28  1  0
  8 29  1  0
  9 30  1  0
  9 31  1  0
 10 32  1  0
 10 33  1  0
 11 34  1  6
 13 35  1  0
 13 36  1  0
 15 37  1  0
 16 38  1  0
 18 39  1  0
 21 40  1  0
 22 41  1  0
M  END
>  <smiles>  (9) 
O=C(NCC(=O)N1CCCC(F)C1)c1ccc2cc(Cl)ccc2n1

>  <score_type>  (9) 
oracle

>  <origin>  (9) 
autodockgpu

>  <m_score__min__energy>  (9) 
-7.3200000000000003

>  <m_primary>  (9) 
energy

>  <rmsd>  (9) 
8.48156304156873

>  <m_score__min__rmsd>  (9) 
8.48156304156873

>  <meeko>  (9) 
{"free_energy": -7.15, "intermolecular_energy": -8.35, "internal_energy": -1.18, "cluster_size": 31, "cluster_id": 3, "rank_in_cluster": 1}

>  <energy>  (9) 
-7.25

>  <cluster_rmsd>  (9) 
0.31

>  <cluster>  (9) 
1

$$$$

     RDKit          3D

 41 43  0  0  0  0  0  0  0  0999 V2000
  140.2260   72.6230  220.8170 O   0  0  0  0  0  0  0  0  0  0  0  0
  139.9460   72.9740  221.9900 C   0  0  0  0  0  0  0  0  0  0  0  0
  139.5860   74.2990  222.3470 N   0  0  0  0  0  0  0  0  0  0  0  0
  139.5160   75.3430  221.3750 C   0  0  0  0  0  0  0  0  0  0  0  0
  139.5150   76.6460  222.0890 C   0  0  0  0  0  0  0  0  0  0  0  0
  138.5240   76.9140  222.8360 O   0  0  0  0  0  0  0  0  0  0  0  0
  140.5790   77.5590  221.9450 N   0  0  0  0  0  0  0  0  0  0  0  0
  141.0890   77.9310  220.6450 C   0  0  0  0  0  0  0  0  0  0  0  0
  141.4190   79.3780  220.4960 C   0  0  0  0  0  0  0  0  0  0  0  0
  142.1890   79.8490  221.7110 C   0  0  0  0  0  0  0  0  0  0  0  0
  141.2390   79.6440  222.8950 C   0  0  2  0  0  0  0  0  0  0  0  0
  141.7090   80.3070  224.0080 F   0  0  0  0  0  0  0  0  0  0  0  0
  141.1840   78.1480  223.1250 C   0  0  0  0  0  0  0  0  0  0  0  0
  139.9900   71.9680  223.0700 C   0  0  0  0  0  0  0  0  0  0  0  0
  139.5430   70.6790  222.8680 C   0  0  0  0  0  0  0  0  0  0  0  0
  139.5630   69.7050  223.8420 C   0  0  0  0  0  0  0  0  0  0  0  0
  140.0630   70.0700  225.0830 C   0  0  0  0  0  0  0  0  0  0  0  0
  140.1030   69.1200  226.0980 C   0  0  0  0  0  0  0  0  0  0  0  0
  140.6070   69.4980  227.3370 C   0  0  0  0  0  0  0  0  0  0  0  0
  140.6560   68.3020  228.6160 Cl  0  0  0  0  0  0  0  0  0  0  0  0
  141.0610   70.7630  227.5850 C   0  0  0  0  0  0  0  0  0  0  0  0
  141.0120   71.7010  226.5540 C   0  0  0  0  0  0  0  0  0  0  0  0
  140.5120   71.3570  225.2950 C   0  0  0  0  0  0  0  0  0  0  0  0
  140.4640   72.2600  224.2950 N   0  0  0  0  0  0  0  0  0  0  0  0
  139.3650   74.5130  223.3610 H   0  0  0  0  0  0  0  0  0  0  0  0
  140.3868   75.2866  220.7052 H   0  0  0  0  0  0  0  0  0  0  0  0
  138.6009   75.2399  220.7733 H   0  0  0  0  0  0  0  0  0  0  0  0
  142.0037   77.3497  220.4565 H   0  0  0  0  0  0  0  0  0  0  0  0
  140.2858   77.7195  219.9238 H   0  0  0  0  0  0  0  0  0  0  0  0
  142.0325   79.5230  219.5945 H   0  0  0  0  0  0  0  0  0  0  0  0
  140.4889   79.9581  220.4045 H   0  0  0  0  0  0  0  0  0  0  0  0
  143.1036   79.2523  221.8429 H   0  0  0  0  0  0  0  0  0  0  0  0
  142.5050   80.8983  221.6153 H   0  0  0  0  0  0  0  0  0  0  0  0
  140.2361   80.0482  222.6928 H   0  0  0  0  0  0  0  0  0  0  0  0
  142.1996   77.7502  223.2673 H   0  0  0  0  0  0  0  0  0  0  0  0
  140.5991   77.9107  224.0259 H   0  0  0  0  0  0  0  0  0  0  0  0
  139.1492   70.4144  221.8756 H   0  0  0  0  0  0  0  0  0  0  0  0
  139.1995   68.6857  223.6447 H   0  0  0  0  0  0  0  0  0  0  0  0
  139.7446   68.0946  225.9245 H   0  0  0  0  0  0  0  0  0  0  0  0
  141.4560   71.0351  228.5749 H   0  0  0  0  0  0  0  0  0  0  0  0
  141.3715   72.7249  226.7341 H   0  0  0  0  0  0  0  0  0  0  0  0
  1  2  2  0
  2  3  1  0
  3  4  1  0
  4  5  1  0
  5  6  2  0
  5  7  1  0
  7  8  1  0
  8  9  1  0
  9 10  1  0
 10 11  1  0
 11 12  1  0
 11 13  1  0
  2 14  1  0
 14 15  2  0
 15 16  1  0
 16 17  2  0
 17 18  1  0
 18 19  2  0
 19 20  1  0
 19 21  1  0
 21 22  2  0
 22 23  1  0
 23 24  2  0
 13  7  1  0
 24 14  1  0
 23 17  1  0
  3 25  1  0
  4 26  1  0
  4 27  1  0
  8 28  1  0
  8 29  1  0
  9 30  1  0
  9 31  1  0
 10 32  1  0
 10 33  1  0
 11 34  1  6
 13 35  1  0
 13 36  1  0
 15 37  1  0
 16 38  1  0
 18 39  1  0
 21 40  1  0
 22 41  1  0
M  END
>  <smiles>  (10) 
O=C(NCC(=O)N1CCCC(F)C1)c1ccc2cc(Cl)ccc2n1

>  <score_type>  (10) 
oracle

>  <origin>  (10) 
autodockgpu

>  <m_score__min__energy>  (10) 
-7.3200000000000003

>  <m_primary>  (10) 
energy

>  <rmsd>  (10) 
3.2029677193810384

>  <m_score__min__rmsd>  (10) 
3.2029677193810384

>  <meeko>  (10) 
{"free_energy": -7.28, "intermolecular_energy": -8.48, "internal_energy": -1.06, "cluster_size": 13, "cluster_id": 1, "rank_in_cluster": 5}

>  <energy>  (10) 
-7.24

>  <cluster_rmsd>  (10) 
0.16

>  <cluster>  (10) 
1

$$$$

     RDKit          3D

 41 43  0  0  0  0  0  0  0  0999 V2000
  141.2630   71.4840  221.0770 O   0  0  0  0  0  0  0  0  0  0  0  0
  140.6190   72.3330  221.7430 C   0  0  0  0  0  0  0  0  0  0  0  0
  139.6260   71.9930  222.6970 N   0  0  0  0  0  0  0  0  0  0  0  0
  139.2860   70.6330  222.9710 C   0  0  0  0  0  0  0  0  0  0  0  0
  138.8350   70.5410  224.3830 C   0  0  0  0  0  0  0  0  0  0  0  0
  137.5860   70.5060  224.6090 O   0  0  0  0  0  0  0  0  0  0  0  0
  139.7620   70.4930  225.4450 N   0  0  0  0  0  0  0  0  0  0  0  0
  140.7320   71.5430  225.6520 C   0  0  0  0  0  0  0  0  0  0  0  0
  140.9460   71.9210  227.0800 C   0  0  0  0  0  0  0  0  0  0  0  0
  141.0790   70.6700  227.9190 C   0  0  0  0  0  0  0  0  0  0  0  0
  139.7450   69.9340  227.7620 C   0  0  2  0  0  0  0  0  0  0  0  0
  139.6310   68.9380  228.7070 F   0  0  0  0  0  0  0  0  0  0  0  0
  139.7500   69.3660  226.3580 C   0  0  0  0  0  0  0  0  0  0  0  0
  140.8970   73.7690  221.5330 C   0  0  0  0  0  0  0  0  0  0  0  0
  141.8960   74.1900  220.6820 C   0  0  0  0  0  0  0  0  0  0  0  0
  142.1930   75.5150  220.4530 C   0  0  0  0  0  0  0  0  0  0  0  0
  141.4300   76.4550  221.1300 C   0  0  0  0  0  0  0  0  0  0  0  0
  141.6940   77.8050  220.9300 C   0  0  0  0  0  0  0  0  0  0  0  0
  140.9220   78.7370  221.6150 C   0  0  0  0  0  0  0  0  0  0  0  0
  141.2540   80.4380  221.3640 Cl  0  0  0  0  0  0  0  0  0  0  0  0
  139.9200   78.3680  222.4690 C   0  0  0  0  0  0  0  0  0  0  0  0
  139.6720   77.0080  222.6550 C   0  0  0  0  0  0  0  0  0  0  0  0
  140.4280   76.0430  221.9840 C   0  0  0  0  0  0  0  0  0  0  0  0
  140.1910   74.7280  222.1600 N   0  0  0  0  0  0  0  0  0  0  0  0
  139.1290   72.7710  223.2170 H   0  0  0  0  0  0  0  0  0  0  0  0
  138.4766   70.3095  222.3001 H   0  0  0  0  0  0  0  0  0  0  0  0
  140.1590   69.9838  222.8087 H   0  0  0  0  0  0  0  0  0  0  0  0
  141.6943   71.2070  225.2385 H   0  0  0  0  0  0  0  0  0  0  0  0
  140.3341   72.4372  225.1499 H   0  0  0  0  0  0  0  0  0  0  0  0
  141.8645   72.5199  227.1669 H   0  0  0  0  0  0  0  0  0  0  0  0
  140.0882   72.5108  227.4353 H   0  0  0  0  0  0  0  0  0  0  0  0
  141.9082   70.0469  227.5528 H   0  0  0  0  0  0  0  0  0  0  0  0
  141.2970   70.9035  228.9716 H   0  0  0  0  0  0  0  0  0  0  0  0
  138.8858   70.6042  227.9124 H   0  0  0  0  0  0  0  0  0  0  0  0
  140.6455   68.7459  226.2045 H   0  0  0  0  0  0  0  0  0  0  0  0
  138.8673   68.7320  226.1877 H   0  0  0  0  0  0  0  0  0  0  0  0
  142.4883   73.4260  220.1572 H   0  0  0  0  0  0  0  0  0  0  0  0
  142.9978   75.8140  219.7653 H   0  0  0  0  0  0  0  0  0  0  0  0
  142.4935   78.1280  220.2470 H   0  0  0  0  0  0  0  0  0  0  0  0
  139.3232   79.1262  222.9972 H   0  0  0  0  0  0  0  0  0  0  0  0
  138.8708   76.6909  223.3388 H   0  0  0  0  0  0  0  0  0  0  0  0
  1  2  2  0
  2  3  1  0
  3  4  1  0
  4  5  1  0
  5  6  2  0
  5  7  1  0
  7  8  1  0
  8  9  1  0
  9 10  1  0
 10 11  1  0
 11 12  1  0
 11 13  1  0
  2 14  1  0
 14 15  2  0
 15 16  1  0
 16 17  2  0
 17 18  1  0
 18 19  2  0
 19 20  1  0
 19 21  1  0
 21 22  2  0
 22 23  1  0
 23 24  2  0
 13  7  1  0
 24 14  1  0
 23 17  1  0
  3 25  1  0
  4 26  1  0
  4 27  1  0
  8 28  1  0
  8 29  1  0
  9 30  1  0
  9 31  1  0
 10 32  1  0
 10 33  1  0
 11 34  1  6
 13 35  1  0
 13 36  1  0
 15 37  1  0
 16 38  1  0
 18 39  1  0
 21 40  1  0
 22 41  1  0
M  END
>  <smiles>  (11) 
O=C(NCC(=O)N1CCCC(F)C1)c1ccc2cc(Cl)ccc2n1

>  <score_type>  (11) 
oracle

>  <origin>  (11) 
autodockgpu

>  <m_score__min__energy>  (11) 
-7.3200000000000003

>  <m_primary>  (11) 
energy

>  <rmsd>  (11) 
8.22408395438059

>  <m_score__min__rmsd>  (11) 
8.22408395438059

>  <meeko>  (11) 
{"free_energy": -7.1, "intermolecular_energy": -8.3, "internal_energy": -1.2, "cluster_size": 31, "cluster_id": 3, "rank_in_cluster": 24}

>  <energy>  (11) 
-7.17

>  <cluster_rmsd>  (11) 
1.36

>  <cluster>  (11) 
1

$$$$

     RDKit          3D

 41 43  0  0  0  0  0  0  0  0999 V2000
  141.6760   72.1730  220.8750 O   0  0  0  0  0  0  0  0  0  0  0  0
  141.0150   72.9850  221.5710 C   0  0  0  0  0  0  0  0  0  0  0  0
  140.0960   72.5890  222.5760 N   0  0  0  0  0  0  0  0  0  0  0  0
  139.8570   71.2120  222.8710 C   0  0  0  0  0  0  0  0  0  0  0  0
  139.2570   71.1240  224.2270 C   0  0  0  0  0  0  0  0  0  0  0  0
  138.0460   71.4800  224.3670 O   0  0  0  0  0  0  0  0  0  0  0  0
  140.0040   70.6600  225.3290 N   0  0  0  0  0  0  0  0  0  0  0  0
  140.7810   71.5590  226.1510 C   0  0  0  0  0  0  0  0  0  0  0  0
  140.7170   71.2770  227.6150 C   0  0  0  0  0  0  0  0  0  0  0  0
  140.8840   69.7920  227.8520 C   0  0  0  0  0  0  0  0  0  0  0  0
  139.7010   69.1330  227.1350 C   0  0  2  0  0  0  0  0  0  0  0  0
  139.5760   67.8170  227.5240 F   0  0  0  0  0  0  0  0  0  0  0  0
  140.0010   69.2460  225.6540 C   0  0  0  0  0  0  0  0  0  0  0  0
  141.1900   74.4330  221.3420 C   0  0  0  0  0  0  0  0  0  0  0  0
  142.0190   74.9080  220.3480 C   0  0  0  0  0  0  0  0  0  0  0  0
  142.2150   76.2480  220.0960 C   0  0  0  0  0  0  0  0  0  0  0  0
  141.5310   77.1450  220.9020 C   0  0  0  0  0  0  0  0  0  0  0  0
  141.6980   78.5080  220.6840 C   0  0  0  0  0  0  0  0  0  0  0  0
  141.0060   79.3960  221.5000 C   0  0  0  0  0  0  0  0  0  0  0  0
  141.2160   81.1130  221.2270 Cl  0  0  0  0  0  0  0  0  0  0  0  0
  140.1730   78.9740  222.4980 C   0  0  0  0  0  0  0  0  0  0  0  0
  140.0200   77.6020  222.7000 C   0  0  0  0  0  0  0  0  0  0  0  0
  140.6990   76.6790  221.9000 C   0  0  0  0  0  0  0  0  0  0  0  0
  140.5530   75.3530  222.0910 N   0  0  0  0  0  0  0  0  0  0  0  0
  139.5780   73.3380  223.1190 H   0  0  0  0  0  0  0  0  0  0  0  0
  139.1645   70.7873  222.1294 H   0  0  0  0  0  0  0  0  0  0  0  0
  140.8003   70.6472  222.8360 H   0  0  0  0  0  0  0  0  0  0  0  0
  141.8323   71.4907  225.8344 H   0  0  0  0  0  0  0  0  0  0  0  0
  140.3506   72.5612  226.0083 H   0  0  0  0  0  0  0  0  0  0  0  0
  141.5220   71.8228  228.1288 H   0  0  0  0  0  0  0  0  0  0  0  0
  139.7428   71.6031  228.0083 H   0  0  0  0  0  0  0  0  0  0  0  0
  141.8361   69.4389  227.4291 H   0  0  0  0  0  0  0  0  0  0  0  0
  140.9019   69.5471  228.9243 H   0  0  0  0  0  0  0  0  0  0  0  0
  138.7468   69.6217  227.3814 H   0  0  0  0  0  0  0  0  0  0  0  0
  140.9844   68.8054  225.4330 H   0  0  0  0  0  0  0  0  0  0  0  0
  139.2488   68.7077  225.0587 H   0  0  0  0  0  0  0  0  0  0  0  0
  142.5527   74.1774  219.7224 H   0  0  0  0  0  0  0  0  0  0  0  0
  142.8834   76.5906  219.2923 H   0  0  0  0  0  0  0  0  0  0  0  0
  142.3608   78.8745  219.8862 H   0  0  0  0  0  0  0  0  0  0  0  0
  139.6359   79.6990  223.1272 H   0  0  0  0  0  0  0  0  0  0  0  0
  139.3560   77.2420  223.4997 H   0  0  0  0  0  0  0  0  0  0  0  0
  1  2  2  0
  2  3  1  0
  3  4  1  0
  4  5  1  0
  5  6  2  0
  5  7  1  0
  7  8  1  0
  8  9  1  0
  9 10  1  0
 10 11  1  0
 11 12  1  0
 11 13  1  0
  2 14  1  0
 14 15  2  0
 15 16  1  0
 16 17  2  0
 17 18  1  0
 18 19  2  0
 19 20  1  0
 19 21  1  0
 21 22  2  0
 22 23  1  0
 23 24  2  0
 13  7  1  0
 24 14  1  0
 23 17  1  0
  3 25  1  0
  4 26  1  0
  4 27  1  0
  8 28  1  0
  8 29  1  0
  9 30  1  0
  9 31  1  0
 10 32  1  0
 10 33  1  0
 11 34  1  6
 13 35  1  0
 13 36  1  0
 15 37  1  0
 16 38  1  0
 18 39  1  0
 21 40  1  0
 22 41  1  0
M  END
>  <smiles>  (12) 
O=C(NCC(=O)N1CCCC(F)C1)c1ccc2cc(Cl)ccc2n1

>  <score_type>  (12) 
oracle

>  <origin>  (12) 
autodockgpu

>  <m_score__min__energy>  (12) 
-7.3200000000000003

>  <m_primary>  (12) 
energy

>  <rmsd>  (12) 
8.532630256812427

>  <m_score__min__rmsd>  (12) 
8.532630256812427

>  <meeko>  (12) 
{"free_energy": -7.13, "intermolecular_energy": -8.33, "internal_energy": -1.2, "cluster_size": 31, "cluster_id": 3, "rank_in_cluster": 17}

>  <energy>  (12) 
-7.12

>  <cluster_rmsd>  (12) 
1.0

>  <cluster>  (12) 
1

$$$$

     RDKit          3D

 41 43  0  0  0  0  0  0  0  0999 V2000
  141.6240   72.0730  220.8880 O   0  0  0  0  0  0  0  0  0  0  0  0
  140.9810   72.8940  221.5900 C   0  0  0  0  0  0  0  0  0  0  0  0
  140.0700   72.5120  222.6080 N   0  0  0  0  0  0  0  0  0  0  0  0
  139.8190   71.1380  222.9100 C   0  0  0  0  0  0  0  0  0  0  0  0
  139.2480   71.0590  224.2790 C   0  0  0  0  0  0  0  0  0  0  0  0
  138.0100   71.3030  224.4230 O   0  0  0  0  0  0  0  0  0  0  0  0
  140.0510   70.7250  225.3880 N   0  0  0  0  0  0  0  0  0  0  0  0
  140.8580   71.7130  226.0660 C   0  0  0  0  0  0  0  0  0  0  0  0
  140.8660   71.5970  227.5540 C   0  0  0  0  0  0  0  0  0  0  0  0
  141.0580   70.1490  227.9470 C   0  0  0  0  0  0  0  0  0  0  0  0
  139.8480   69.4090  227.3660 C   0  0  2  0  0  0  0  0  0  0  0  0
  139.7540   68.1450  227.9050 F   0  0  0  0  0  0  0  0  0  0  0  0
  140.0770   69.3560  225.8700 C   0  0  0  0  0  0  0  0  0  0  0  0
  141.1690   74.3400  221.3550 C   0  0  0  0  0  0  0  0  0  0  0  0
  141.9950   74.8030  220.3530 C   0  0  0  0  0  0  0  0  0  0  0  0
  142.2030   76.1390  220.0940 C   0  0  0  0  0  0  0  0  0  0  0  0
  141.5340   77.0460  220.9020 C   0  0  0  0  0  0  0  0  0  0  0  0
  141.7140   78.4070  220.6780 C   0  0  0  0  0  0  0  0  0  0  0  0
  141.0370   79.3050  221.4960 C   0  0  0  0  0  0  0  0  0  0  0  0
  141.2630   81.0190  221.2150 Cl  0  0  0  0  0  0  0  0  0  0  0  0
  140.2070   78.8950  222.5010 C   0  0  0  0  0  0  0  0  0  0  0  0
  140.0410   77.5250  222.7090 C   0  0  0  0  0  0  0  0  0  0  0  0
  140.7050   76.5930  221.9080 C   0  0  0  0  0  0  0  0  0  0  0  0
  140.5470   75.2690  222.1040 N   0  0  0  0  0  0  0  0  0  0  0  0
  139.5670   73.2680  223.1540 H   0  0  0  0  0  0  0  0  0  0  0  0
  139.1046   70.7220  222.1843 H   0  0  0  0  0  0  0  0  0  0  0  0
  140.7537   70.5606  222.8549 H   0  0  0  0  0  0  0  0  0  0  0  0
  141.8936   71.6132  225.7089 H   0  0  0  0  0  0  0  0  0  0  0  0
  140.4124   72.6913  225.8329 H   0  0  0  0  0  0  0  0  0  0  0  0
  141.6893   72.2003  227.9642 H   0  0  0  0  0  0  0  0  0  0  0  0
  139.9086   71.9614  227.9548 H   0  0  0  0  0  0  0  0  0  0  0  0
  141.9922   69.7546  227.5207 H   0  0  0  0  0  0  0  0  0  0  0  0
  141.1293   70.0259  229.0378 H   0  0  0  0  0  0  0  0  0  0  0  0
  138.9021   69.9185  227.6018 H   0  0  0  0  0  0  0  0  0  0  0  0
  141.0532   68.8977  225.6532 H   0  0  0  0  0  0  0  0  0  0  0  0
  139.3028   68.7509  225.3755 H   0  0  0  0  0  0  0  0  0  0  0  0
  142.5163   74.0646  219.7262 H   0  0  0  0  0  0  0  0  0  0  0  0
  142.8688   76.4715  219.2840 H   0  0  0  0  0  0  0  0  0  0  0  0
  142.3750   78.7638  219.8744 H   0  0  0  0  0  0  0  0  0  0  0  0
  139.6819   79.6277  223.1314 H   0  0  0  0  0  0  0  0  0  0  0  0
  139.3786   77.1746  223.5142 H   0  0  0  0  0  0  0  0  0  0  0  0
  1  2  2  0
  2  3  1  0
  3  4  1  0
  4  5  1  0
  5  6  2  0
  5  7  1  0
  7  8  1  0
  8  9  1  0
  9 10  1  0
 10 11  1  0
 11 12  1  0
 11 13  1  0
  2 14  1  0
 14 15  2  0
 15 16  1  0
 16 17  2  0
 17 18  1  0
 18 19  2  0
 19 20  1  0
 19 21  1  0
 21 22  2  0
 22 23  1  0
 23 24  2  0
 13  7  1  0
 24 14  1  0
 23 17  1  0
  3 25  1  0
  4 26  1  0
  4 27  1  0
  8 28  1  0
  8 29  1  0
  9 30  1  0
  9 31  1  0
 10 32  1  0
 10 33  1  0
 11 34  1  6
 13 35  1  0
 13 36  1  0
 15 37  1  0
 16 38  1  0
 18 39  1  0
 21 40  1  0
 22 41  1  0
M  END
>  <smiles>  (13) 
O=C(NCC(=O)N1CCCC(F)C1)c1ccc2cc(Cl)ccc2n1

>  <score_type>  (13) 
oracle

>  <origin>  (13) 
autodockgpu

>  <m_score__min__energy>  (13) 
-7.3200000000000003

>  <m_primary>  (13) 
energy

>  <rmsd>  (13) 
8.477462482570981

>  <m_score__min__rmsd>  (13) 
8.477462482570981

>  <meeko>  (13) 
{"free_energy": -7.15, "intermolecular_energy": -8.35, "internal_energy": -1.18, "cluster_size": 31, "cluster_id": 3, "rank_in_cluster": 2}

>  <energy>  (13) 
-6.84

>  <cluster_rmsd>  (13) 
1.3

>  <cluster>  (13) 
1

$$$$

     RDKit          3D

 41 43  0  0  0  0  0  0  0  0999 V2000
  140.2740   71.3470  221.4550 O   0  0  0  0  0  0  0  0  0  0  0  0
  139.6700   72.2950  222.0150 C   0  0  0  0  0  0  0  0  0  0  0  0
  138.5280   72.1200  222.8390 N   0  0  0  0  0  0  0  0  0  0  0  0
  137.9810   70.8250  223.0930 C   0  0  0  0  0  0  0  0  0  0  0  0
  139.0240   70.0000  223.7540 C   0  0  0  0  0  0  0  0  0  0  0  0
  139.5750   69.0800  223.0730 O   0  0  0  0  0  0  0  0  0  0  0  0
  139.3950   70.2260  225.0950 N   0  0  0  0  0  0  0  0  0  0  0  0
  139.1690   69.2340  226.1220 C   0  0  0  0  0  0  0  0  0  0  0  0
  140.2840   69.0870  227.1020 C   0  0  0  0  0  0  0  0  0  0  0  0
  140.7530   70.4560  227.5430 C   0  0  0  0  0  0  0  0  0  0  0  0
  141.2570   71.1400  226.2680 C   0  0  2  0  0  0  0  0  0  0  0  0
  141.9800   72.2700  226.5830 F   0  0  0  0  0  0  0  0  0  0  0  0
  140.0190   71.4810  225.4650 C   0  0  0  0  0  0  0  0  0  0  0  0
  140.1580   73.6750  221.8150 C   0  0  0  0  0  0  0  0  0  0  0  0
  141.2970   73.9340  221.0830 C   0  0  0  0  0  0  0  0  0  0  0  0
  141.7920   75.2010  220.8680 C   0  0  0  0  0  0  0  0  0  0  0  0
  141.0870   76.2540  221.4310 C   0  0  0  0  0  0  0  0  0  0  0  0
  141.5500   77.5510  221.2410 C   0  0  0  0  0  0  0  0  0  0  0  0
  140.8330   78.5970  221.8120 C   0  0  0  0  0  0  0  0  0  0  0  0
  141.4160   80.2320  221.5730 Cl  0  0  0  0  0  0  0  0  0  0  0  0
  139.6990   78.3910  222.5450 C   0  0  0  0  0  0  0  0  0  0  0  0
  139.2520   77.0810  222.7240 C   0  0  0  0  0  0  0  0  0  0  0  0
  139.9460   76.0050  222.1670 C   0  0  0  0  0  0  0  0  0  0  0  0
  139.5170   74.7380  222.3360 N   0  0  0  0  0  0  0  0  0  0  0  0
  138.0770   72.9740  223.2750 H   0  0  0  0  0  0  0  0  0  0  0  0
  137.1044   70.9141  223.7516 H   0  0  0  0  0  0  0  0  0  0  0  0
  137.6669   70.3545  222.1496 H   0  0  0  0  0  0  0  0  0  0  0  0
  138.2608   69.5146  226.6756 H   0  0  0  0  0  0  0  0  0  0  0  0
  139.0793   68.2668  225.6057 H   0  0  0  0  0  0  0  0  0  0  0  0
  139.9308   68.5212  227.9768 H   0  0  0  0  0  0  0  0  0  0  0  0
  141.1186   68.5487  226.6291 H   0  0  0  0  0  0  0  0  0  0  0  0
  139.9208   71.0254  227.9827 H   0  0  0  0  0  0  0  0  0  0  0  0
  141.5368   70.3932  228.3123 H   0  0  0  0  0  0  0  0  0  0  0  0
  141.9320   70.4899  225.6920 H   0  0  0  0  0  0  0  0  0  0  0  0
  139.3274   72.0817  226.0739 H   0  0  0  0  0  0  0  0  0  0  0  0
  140.2796   72.0682  224.5721 H   0  0  0  0  0  0  0  0  0  0  0  0
  141.8399   73.0825  220.6469 H   0  0  0  0  0  0  0  0  0  0  0  0
  142.7043   75.3699  220.2771 H   0  0  0  0  0  0  0  0  0  0  0  0
  142.4600   77.7449  220.6542 H   0  0  0  0  0  0  0  0  0  0  0  0
  139.1509   79.2377  222.9839 H   0  0  0  0  0  0  0  0  0  0  0  0
  138.3411   76.8938  223.3115 H   0  0  0  0  0  0  0  0  0  0  0  0
  1  2  2  0
  2  3  1  0
  3  4  1  0
  4  5  1  0
  5  6  2  0
  5  7  1  0
  7  8  1  0
  8  9  1  0
  9 10  1  0
 10 11  1  0
 11 12  1  0
 11 13  1  0
  2 14  1  0
 14 15  2  0
 15 16  1  0
 16 17  2  0
 17 18  1  0
 18 19  2  0
 19 20  1  0
 19 21  1  0
 21 22  2  0
 22 23  1  0
 23 24  2  0
 13  7  1  0
 24 14  1  0
 23 17  1  0
  3 25  1  0
  4 26  1  0
  4 27  1  0
  8 28  1  0
  8 29  1  0
  9 30  1  0
  9 31  1  0
 10 32  1  0
 10 33  1  0
 11 34  1  6
 13 35  1  0
 13 36  1  0
 15 37  1  0
 16 38  1  0
 18 39  1  0
 21 40  1  0
 22 41  1  0
M  END
>  <smiles>  (14) 
O=C(NCC(=O)N1CCCC(F)C1)c1ccc2cc(Cl)ccc2n1

>  <score_type>  (14) 
oracle

>  <origin>  (14) 
autodockgpu

>  <m_score__min__energy>  (14) 
-7.3200000000000003

>  <m_primary>  (14) 
energy

>  <rmsd>  (14) 
8.148104740237663

>  <m_score__min__rmsd>  (14) 
8.148104740237663

>  <meeko>  (14) 
{"free_energy": -6.68, "intermolecular_energy": -7.87, "internal_energy": -1.25, "cluster_size": 31, "cluster_id": 3, "rank_in_cluster": 31}

>  <energy>  (14) 
-7.2

>  <cluster_rmsd>  (14) 
0.0

>  <cluster>  (14) 
2

$$$$

     RDKit          3D

 41 43  0  0  0  0  0  0  0  0999 V2000
  140.6960   72.6620  220.9330 O   0  0  0  0  0  0  0  0  0  0  0  0
  140.1970   72.9890  222.0390 C   0  0  0  0  0  0  0  0  0  0  0  0
  139.6740   74.2790  222.3130 N   0  0  0  0  0  0  0  0  0  0  0  0
  139.6780   75.3130  221.3270 C   0  0  0  0  0  0  0  0  0  0  0  0
  139.5900   76.6210  222.0250 C   0  0  0  0  0  0  0  0  0  0  0  0
  138.5660   76.8470  222.7410 O   0  0  0  0  0  0  0  0  0  0  0  0
  140.6100   77.5870  221.8990 N   0  0  0  0  0  0  0  0  0  0  0  0
  141.0440   78.0680  220.6080 C   0  0  0  0  0  0  0  0  0  0  0  0
  141.3100   79.5350  220.5460 C   0  0  0  0  0  0  0  0  0  0  0  0
  142.1170   79.9530  221.7550 C   0  0  0  0  0  0  0  0  0  0  0  0
  141.2330   79.6270  222.9630 C   0  0  2  0  0  0  0  0  0  0  0  0
  141.7280   80.2320  224.0980 F   0  0  0  0  0  0  0  0  0  0  0  0
  141.2470   78.1180  223.0890 C   0  0  0  0  0  0  0  0  0  0  0  0
  140.1460   71.9900  223.1260 C   0  0  0  0  0  0  0  0  0  0  0  0
  139.5970   70.7410  222.9270 C   0  0  0  0  0  0  0  0  0  0  0  0
  139.5260   69.7760  223.9070 C   0  0  0  0  0  0  0  0  0  0  0  0
  140.0410   70.1070  225.1510 C   0  0  0  0  0  0  0  0  0  0  0  0
  139.9910   69.1640  226.1720 C   0  0  0  0  0  0  0  0  0  0  0  0
  140.5110   69.5090  227.4150 C   0  0  0  0  0  0  0  0  0  0  0  0
  140.4480   68.3220  228.7010 Cl  0  0  0  0  0  0  0  0  0  0  0  0
  141.0650   70.7340  227.6600 C   0  0  0  0  0  0  0  0  0  0  0  0
  141.1050   71.6650  226.6220 C   0  0  0  0  0  0  0  0  0  0  0  0
  140.5920   71.3550  225.3610 C   0  0  0  0  0  0  0  0  0  0  0  0
  140.6290   72.2510  224.3540 N   0  0  0  0  0  0  0  0  0  0  0  0
  139.2700   74.4730  223.2740 H   0  0  0  0  0  0  0  0  0  0  0  0
  140.6079   75.2654  220.7414 H   0  0  0  0  0  0  0  0  0  0  0  0
  138.8250   75.1892  220.6435 H   0  0  0  0  0  0  0  0  0  0  0  0
  141.9710   77.5401  220.3397 H   0  0  0  0  0  0  0  0  0  0  0  0
  140.2169   77.8726  219.9097 H   0  0  0  0  0  0  0  0  0  0  0  0
  141.8742   79.7669  219.6306 H   0  0  0  0  0  0  0  0  0  0  0  0
  140.3549   80.0806  220.5364 H   0  0  0  0  0  0  0  0  0  0  0  0
  143.0595   79.3878  221.8034 H   0  0  0  0  0  0  0  0  0  0  0  0
  142.3867   81.0188  221.7197 H   0  0  0  0  0  0  0  0  0  0  0  0
  140.2066   80.0012  222.8346 H   0  0  0  0  0  0  0  0  0  0  0  0
  142.2829   77.7542  223.1572 H   0  0  0  0  0  0  0  0  0  0  0  0
  140.7153   77.7949  223.9962 H   0  0  0  0  0  0  0  0  0  0  0  0
  139.1939   70.5024  221.9317 H   0  0  0  0  0  0  0  0  0  0  0  0
  139.0815   68.7889  223.7119 H   0  0  0  0  0  0  0  0  0  0  0  0
  139.5513   68.1704  226.0008 H   0  0  0  0  0  0  0  0  0  0  0  0
  141.4700   70.9801  228.6527 H   0  0  0  0  0  0  0  0  0  0  0  0
  141.5466   72.6567  226.7993 H   0  0  0  0  0  0  0  0  0  0  0  0
  1  2  2  0
  2  3  1  0
  3  4  1  0
  4  5  1  0
  5  6  2  0
  5  7  1  0
  7  8  1  0
  8  9  1  0
  9 10  1  0
 10 11  1  0
 11 12  1  0
 11 13  1  0
  2 14  1  0
 14 15  2  0
 15 16  1  0
 16 17  2  0
 17 18  1  0
 18 19  2  0
 19 20  1  0
 19 21  1  0
 21 22  2  0
 22 23  1  0
 23 24  2  0
 13  7  1  0
 24 14  1  0
 23 17  1  0
  3 25  1  0
  4 26  1  0
  4 27  1  0
  8 28  1  0
  8 29  1  0
  9 30  1  0
  9 31  1  0
 10 32  1  0
 10 33  1  0
 11 34  1  6
 13 35  1  0
 13 36  1  0
 15 37  1  0
 16 38  1  0
 18 39  1  0
 21 40  1  0
 22 41  1  0
M  END
>  <smiles>  (15) 
O=C(NCC(=O)N1CCCC(F)C1)c1ccc2cc(Cl)ccc2n1

>  <score_type>  (15) 
oracle

>  <origin>  (15) 
autodockgpu

>  <m_score__min__energy>  (15) 
-7.3200000000000003

>  <m_primary>  (15) 
energy

>  <rmsd>  (15) 
3.2447247190728357

>  <m_score__min__rmsd>  (15) 
3.2447247190728357

>  <meeko>  (15) 
{"free_energy": -7.29, "intermolecular_energy": -8.48, "internal_energy": -1.05, "cluster_size": 13, "cluster_id": 1, "rank_in_cluster": 4}

>  <energy>  (15) 
-7.16

>  <cluster_rmsd>  (15) 
0.04

>  <cluster>  (15) 
2

$$$$

     RDKit          3D

 41 43  0  0  0  0  0  0  0  0999 V2000
  141.6980   72.1970  220.8630 O   0  0  0  0  0  0  0  0  0  0  0  0
  141.0230   72.9970  221.5600 C   0  0  0  0  0  0  0  0  0  0  0  0
  140.1070   72.5840  222.5610 N   0  0  0  0  0  0  0  0  0  0  0  0
  139.8870   71.2030  222.8510 C   0  0  0  0  0  0  0  0  0  0  0  0
  139.2780   71.1010  224.2020 C   0  0  0  0  0  0  0  0  0  0  0  0
  138.0660   71.4520  224.3360 O   0  0  0  0  0  0  0  0  0  0  0  0
  140.0190   70.6290  225.3040 N   0  0  0  0  0  0  0  0  0  0  0  0
  140.7960   71.5220  226.1340 C   0  0  0  0  0  0  0  0  0  0  0  0
  140.7240   71.2340  227.5960 C   0  0  0  0  0  0  0  0  0  0  0  0
  140.8860   69.7470  227.8260 C   0  0  0  0  0  0  0  0  0  0  0  0
  139.7040   69.0960  227.1020 C   0  0  2  0  0  0  0  0  0  0  0  0
  139.5720   67.7790  227.4840 F   0  0  0  0  0  0  0  0  0  0  0  0
  140.0100   69.2140  225.6230 C   0  0  0  0  0  0  0  0  0  0  0  0
  141.1790   74.4480  221.3380 C   0  0  0  0  0  0  0  0  0  0  0  0
  142.0010   74.9390  220.3450 C   0  0  0  0  0  0  0  0  0  0  0  0
  142.1780   76.2820  220.0990 C   0  0  0  0  0  0  0  0  0  0  0  0
  141.4820   77.1660  220.9090 C   0  0  0  0  0  0  0  0  0  0  0  0
  141.6300   78.5320  220.6970 C   0  0  0  0  0  0  0  0  0  0  0  0
  140.9260   79.4080  221.5160 C   0  0  0  0  0  0  0  0  0  0  0  0
  141.1120   81.1290  221.2500 Cl  0  0  0  0  0  0  0  0  0  0  0  0
  140.0990   78.9690  222.5130 C   0  0  0  0  0  0  0  0  0  0  0  0
  139.9650   77.5950  222.7080 C   0  0  0  0  0  0  0  0  0  0  0  0
  140.6570   76.6850  221.9050 C   0  0  0  0  0  0  0  0  0  0  0  0
  140.5290   75.3560  222.0900 N   0  0  0  0  0  0  0  0  0  0  0  0
  139.5770   73.3230  223.1050 H   0  0  0  0  0  0  0  0  0  0  0  0
  139.2069   70.7697  222.1028 H   0  0  0  0  0  0  0  0  0  0  0  0
  140.8395   70.6535  222.8223 H   0  0  0  0  0  0  0  0  0  0  0  0
  141.8485   71.4510  225.8221 H   0  0  0  0  0  0  0  0  0  0  0  0
  140.3702   72.5265  225.9936 H   0  0  0  0  0  0  0  0  0  0  0  0
  141.5280   71.7752  228.1163 H   0  0  0  0  0  0  0  0  0  0  0  0
  139.7491   71.5613  227.9865 H   0  0  0  0  0  0  0  0  0  0  0  0
  141.8384   69.3933  227.4044 H   0  0  0  0  0  0  0  0  0  0  0  0
  140.8999   69.4964  228.8970 H   0  0  0  0  0  0  0  0  0  0  0  0
  138.7511   69.5876  227.3475 H   0  0  0  0  0  0  0  0  0  0  0  0
  140.9927   68.7710  225.4039 H   0  0  0  0  0  0  0  0  0  0  0  0
  139.2583   68.6807  225.0226 H   0  0  0  0  0  0  0  0  0  0  0  0
  142.5444   74.2187  219.7158 H   0  0  0  0  0  0  0  0  0  0  0  0
  142.8412   76.6373  219.2966 H   0  0  0  0  0  0  0  0  0  0  0  0
  142.2879   78.9106  219.9009 H   0  0  0  0  0  0  0  0  0  0  0  0
  139.5524   79.6833  223.1462 H   0  0  0  0  0  0  0  0  0  0  0  0
  139.3052   77.2222  223.5053 H   0  0  0  0  0  0  0  0  0  0  0  0
  1  2  2  0
  2  3  1  0
  3  4  1  0
  4  5  1  0
  5  6  2  0
  5  7  1  0
  7  8  1  0
  8  9  1  0
  9 10  1  0
 10 11  1  0
 11 12  1  0
 11 13  1  0
  2 14  1  0
 14 15  2  0
 15 16  1  0
 16 17  2  0
 17 18  1  0
 18 19  2  0
 19 20  1  0
 19 21  1  0
 21 22  2  0
 22 23  1  0
 23 24  2  0
 13  7  1  0
 24 14  1  0
 23 17  1  0
  3 25  1  0
  4 26  1  0
  4 27  1  0
  8 28  1  0
  8 29  1  0
  9 30  1  0
  9 31  1  0
 10 32  1  0
 10 33  1  0
 11 34  1  6
 13 35  1  0
 13 36  1  0
 15 37  1  0
 16 38  1  0
 18 39  1  0
 21 40  1  0
 22 41  1  0
M  END
>  <smiles>  (16) 
O=C(NCC(=O)N1CCCC(F)C1)c1ccc2cc(Cl)ccc2n1

>  <score_type>  (16) 
oracle

>  <origin>  (16) 
autodockgpu

>  <m_score__min__energy>  (16) 
-7.3200000000000003

>  <m_primary>  (16) 
energy

>  <rmsd>  (16) 
8.536122014601938

>  <m_score__min__rmsd>  (16) 
8.536122014601938

>  <meeko>  (16) 
{"free_energy": -7.13, "intermolecular_energy": -8.32, "internal_energy": -1.2, "cluster_size": 31, "cluster_id": 3, "rank_in_cluster": 18}

>  <energy>  (16) 
-7.14

>  <cluster_rmsd>  (16) 
0.29

>  <cluster>  (16) 
2

$$$$

     RDKit          3D

 41 43  0  0  0  0  0  0  0  0999 V2000
  141.6630   72.1720  220.8600 O   0  0  0  0  0  0  0  0  0  0  0  0
  140.9960   72.9740  221.5620 C   0  0  0  0  0  0  0  0  0  0  0  0
  140.0850   72.5640  222.5690 N   0  0  0  0  0  0  0  0  0  0  0  0
  139.8630   71.1830  222.8600 C   0  0  0  0  0  0  0  0  0  0  0  0
  139.2620   71.0840  224.2150 C   0  0  0  0  0  0  0  0  0  0  0  0
  138.0490   71.4320  224.3560 O   0  0  0  0  0  0  0  0  0  0  0  0
  140.0110   70.6180  225.3140 N   0  0  0  0  0  0  0  0  0  0  0  0
  140.7860   71.5160  226.1400 C   0  0  0  0  0  0  0  0  0  0  0  0
  140.7220   71.2280  227.6030 C   0  0  0  0  0  0  0  0  0  0  0  0
  140.8950   69.7420  227.8330 C   0  0  0  0  0  0  0  0  0  0  0  0
  139.7130   69.0830  227.1140 C   0  0  2  0  0  0  0  0  0  0  0  0
  139.5920   67.7650  227.4980 F   0  0  0  0  0  0  0  0  0  0  0  0
  140.0130   69.2030  225.6340 C   0  0  0  0  0  0  0  0  0  0  0  0
  141.1550   74.4250  221.3390 C   0  0  0  0  0  0  0  0  0  0  0  0
  141.9730   74.9130  220.3420 C   0  0  0  0  0  0  0  0  0  0  0  0
  142.1530   76.2560  220.0940 C   0  0  0  0  0  0  0  0  0  0  0  0
  141.4630   77.1420  220.9070 C   0  0  0  0  0  0  0  0  0  0  0  0
  141.6150   78.5070  220.6940 C   0  0  0  0  0  0  0  0  0  0  0  0
  140.9180   79.3850  221.5170 C   0  0  0  0  0  0  0  0  0  0  0  0
  141.1080   81.1050  221.2500 Cl  0  0  0  0  0  0  0  0  0  0  0  0
  140.0950   78.9500  222.5180 C   0  0  0  0  0  0  0  0  0  0  0  0
  139.9570   77.5750  222.7140 C   0  0  0  0  0  0  0  0  0  0  0  0
  140.6430   76.6640  221.9080 C   0  0  0  0  0  0  0  0  0  0  0  0
  140.5110   75.3350  222.0940 N   0  0  0  0  0  0  0  0  0  0  0  0
  139.5610   73.3050  223.1170 H   0  0  0  0  0  0  0  0  0  0  0  0
  139.1771   70.7515  222.1162 H   0  0  0  0  0  0  0  0  0  0  0  0
  140.8133   70.6302  222.8250 H   0  0  0  0  0  0  0  0  0  0  0  0
  141.8375   71.4514  225.8236 H   0  0  0  0  0  0  0  0  0  0  0  0
  140.3535   72.5178  226.0010 H   0  0  0  0  0  0  0  0  0  0  0  0
  141.5245   71.7748  228.1197 H   0  0  0  0  0  0  0  0  0  0  0  0
  139.7466   71.5488  227.9974 H   0  0  0  0  0  0  0  0  0  0  0  0
  141.8478   69.3943  227.4072 H   0  0  0  0  0  0  0  0  0  0  0  0
  140.9157   69.4917  228.9039 H   0  0  0  0  0  0  0  0  0  0  0  0
  138.7573   69.5677  227.3624 H   0  0  0  0  0  0  0  0  0  0  0  0
  140.9981   68.7668  225.4117 H   0  0  0  0  0  0  0  0  0  0  0  0
  139.2627   68.6644  225.0365 H   0  0  0  0  0  0  0  0  0  0  0  0
  142.5110   74.1907  219.7104 H   0  0  0  0  0  0  0  0  0  0  0  0
  142.8135   76.6090  219.2883 H   0  0  0  0  0  0  0  0  0  0  0  0
  142.2702   78.8834  219.8946 H   0  0  0  0  0  0  0  0  0  0  0  0
  139.5544   79.6665  223.1539 H   0  0  0  0  0  0  0  0  0  0  0  0
  139.2992   77.2041  223.5139 H   0  0  0  0  0  0  0  0  0  0  0  0
  1  2  2  0
  2  3  1  0
  3  4  1  0
  4  5  1  0
  5  6  2  0
  5  7  1  0
  7  8  1  0
  8  9  1  0
  9 10  1  0
 10 11  1  0
 11 12  1  0
 11 13  1  0
  2 14  1  0
 14 15  2  0
 15 16  1  0
 16 17  2  0
 17 18  1  0
 18 19  2  0
 19 20  1  0
 19 21  1  0
 21 22  2  0
 22 23  1  0
 23 24  2  0
 13  7  1  0
 24 14  1  0
 23 17  1  0
  3 25  1  0
  4 26  1  0
  4 27  1  0
  8 28  1  0
  8 29  1  0
  9 30  1  0
  9 31  1  0
 10 32  1  0
 10 33  1  0
 11 34  1  6
 13 35  1  0
 13 36  1  0
 15 37  1  0
 16 38  1  0
 18 39  1  0
 21 40  1  0
 22 41  1  0
M  END
>  <smiles>  (17) 
O=C(NCC(=O)N1CCCC(F)C1)c1ccc2cc(Cl)ccc2n1

>  <score_type>  (17) 
oracle

>  <origin>  (17) 
autodockgpu

>  <m_score__min__energy>  (17) 
-7.3200000000000003

>  <m_primary>  (17) 
energy

>  <rmsd>  (17) 
8.531060375793404

>  <m_score__min__rmsd>  (17) 
8.531060375793404

>  <meeko>  (17) 
{"free_energy": -7.13, "intermolecular_energy": -8.32, "internal_energy": -1.2, "cluster_size": 31, "cluster_id": 3, "rank_in_cluster": 19}

>  <energy>  (17) 
-7.13

>  <cluster_rmsd>  (17) 
0.26

>  <cluster>  (17) 
2

$$$$

     RDKit          3D

 41 43  0  0  0  0  0  0  0  0999 V2000
  141.0440   73.6370  220.6160 O   0  0  0  0  0  0  0  0  0  0  0  0
  140.3710   73.7380  221.6730 C   0  0  0  0  0  0  0  0  0  0  0  0
  139.8640   74.9680  222.1660 N   0  0  0  0  0  0  0  0  0  0  0  0
  140.0880   76.1990  221.4770 C   0  0  0  0  0  0  0  0  0  0  0  0
  139.5690   77.3060  222.3210 C   0  0  0  0  0  0  0  0  0  0  0  0
  138.5160   77.0940  222.9980 O   0  0  0  0  0  0  0  0  0  0  0  0
  140.2210   78.5540  222.3710 N   0  0  0  0  0  0  0  0  0  0  0  0
  140.7550   79.0820  223.6070 C   0  0  0  0  0  0  0  0  0  0  0  0
  142.0820   79.7520  223.4760 C   0  0  0  0  0  0  0  0  0  0  0  0
  142.0690   80.6680  222.2720 C   0  0  0  0  0  0  0  0  0  0  0  0
  141.8200   79.7510  221.0700 C   0  0  2  0  0  0  0  0  0  0  0  0
  142.0820   80.4200  219.8940 F   0  0  0  0  0  0  0  0  0  0  0  0
  140.3660   79.3390  221.1600 C   0  0  0  0  0  0  0  0  0  0  0  0
  140.0850   72.5210  222.4590 C   0  0  0  0  0  0  0  0  0  0  0  0
  139.1940   71.5690  222.0100 C   0  0  0  0  0  0  0  0  0  0  0  0
  138.8930   70.4190  222.7050 C   0  0  0  0  0  0  0  0  0  0  0  0
  139.5350   70.2350  223.9200 C   0  0  0  0  0  0  0  0  0  0  0  0
  139.2630   69.0890  224.6580 C   0  0  0  0  0  0  0  0  0  0  0  0
  139.9130   68.9170  225.8750 C   0  0  0  0  0  0  0  0  0  0  0  0
  139.5700   67.4730  226.8050 Cl  0  0  0  0  0  0  0  0  0  0  0  0
  140.8040   69.8320  226.3620 C   0  0  0  0  0  0  0  0  0  0  0  0
  141.0630   70.9760  225.6060 C   0  0  0  0  0  0  0  0  0  0  0  0
  140.4280   71.1820  224.3800 C   0  0  0  0  0  0  0  0  0  0  0  0
  140.6760   72.2860  223.6450 N   0  0  0  0  0  0  0  0  0  0  0  0
  139.3060   74.9660  223.0660 H   0  0  0  0  0  0  0  0  0  0  0  0
  141.1653   76.3373  221.3030 H   0  0  0  0  0  0  0  0  0  0  0  0
  139.5726   76.1891  220.5053 H   0  0  0  0  0  0  0  0  0  0  0  0
  140.0382   79.8157  224.0044 H   0  0  0  0  0  0  0  0  0  0  0  0
  140.9060   78.2203  224.2739 H   0  0  0  0  0  0  0  0  0  0  0  0
  142.2862   80.3409  224.3823 H   0  0  0  0  0  0  0  0  0  0  0  0
  142.8656   78.9907  223.3485 H   0  0  0  0  0  0  0  0  0  0  0  0
  141.2639   81.4121  222.3625 H   0  0  0  0  0  0  0  0  0  0  0  0
  143.0102   81.2285  222.1726 H   0  0  0  0  0  0  0  0  0  0  0  0
  142.4793   78.8705  221.0802 H   0  0  0  0  0  0  0  0  0  0  0  0
  139.7233   80.2304  221.2086 H   0  0  0  0  0  0  0  0  0  0  0  0
  140.0683   78.7555  220.2763 H   0  0  0  0  0  0  0  0  0  0  0  0
  138.6964   71.7376  221.0436 H   0  0  0  0  0  0  0  0  0  0  0  0
  138.1768   69.6810  222.3146 H   0  0  0  0  0  0  0  0  0  0  0  0
  138.5509   68.3365  224.2883 H   0  0  0  0  0  0  0  0  0  0  0  0
  141.3054   69.6703  227.3277 H   0  0  0  0  0  0  0  0  0  0  0  0
  141.7764   71.7247  225.9808 H   0  0  0  0  0  0  0  0  0  0  0  0
  1  2  2  0
  2  3  1  0
  3  4  1  0
  4  5  1  0
  5  6  2  0
  5  7  1  0
  7  8  1  0
  8  9  1  0
  9 10  1  0
 10 11  1  0
 11 12  1  0
 11 13  1  0
  2 14  1  0
 14 15  2  0
 15 16  1  0
 16 17  2  0
 17 18  1  0
 18 19  2  0
 19 20  1  0
 19 21  1  0
 21 22  2  0
 22 23  1  0
 23 24  2  0
 13  7  1  0
 24 14  1  0
 23 17  1  0
  3 25  1  0
  4 26  1  0
  4 27  1  0
  8 28  1  0
  8 29  1  0
  9 30  1  0
  9 31  1  0
 10 32  1  0
 10 33  1  0
 11 34  1  1
 13 35  1  0
 13 36  1  0
 15 37  1  0
 16 38  1  0
 18 39  1  0
 21 40  1  0
 22 41  1  0
M  END
>  <smiles>  (18) 
O=C(NCC(=O)N1CCCC(F)C1)c1ccc2cc(Cl)ccc2n1

>  <score_type>  (18) 
oracle

>  <origin>  (18) 
autodockgpu

>  <m_score__min__energy>  (18) 
-7.3200000000000003

>  <m_primary>  (18) 
energy

>  <rmsd>  (18) 
3.930851784620839

>  <m_score__min__rmsd>  (18) 
3.930851784620839

>  <meeko>  (18) 
{"free_energy": -6.84, "intermolecular_energy": -8.03, "internal_energy": -1.25, "cluster_size": 13, "cluster_id": 1, "rank_in_cluster": 13}

>  <energy>  (18) 
-7.13

>  <cluster_rmsd>  (18) 
0.19

>  <cluster>  (18) 
2

$$$$

     RDKit          3D

 41 43  0  0  0  0  0  0  0  0999 V2000
  141.0210   71.8620  220.8910 O   0  0  0  0  0  0  0  0  0  0  0  0
  140.7250   72.7880  221.6880 C   0  0  0  0  0  0  0  0  0  0  0  0
  140.1270   72.5700  222.9560 N   0  0  0  0  0  0  0  0  0  0  0  0
  139.8170   71.2550  223.4200 C   0  0  0  0  0  0  0  0  0  0  0  0
  140.2580   71.1440  224.8340 C   0  0  0  0  0  0  0  0  0  0  0  0
  141.0450   72.0340  225.2840 O   0  0  0  0  0  0  0  0  0  0  0  0
  139.8210   70.0860  225.6560 N   0  0  0  0  0  0  0  0  0  0  0  0
  139.1640   68.9220  225.1080 C   0  0  0  0  0  0  0  0  0  0  0  0
  139.5770   67.6260  225.7230 C   0  0  0  0  0  0  0  0  0  0  0  0
  139.6080   67.7680  227.2290 C   0  0  0  0  0  0  0  0  0  0  0  0
  140.6590   68.8460  227.5110 C   0  0  2  0  0  0  0  0  0  0  0  0
  140.9920   68.8540  228.8480 F   0  0  0  0  0  0  0  0  0  0  0  0
  140.0300   70.1570  227.0900 C   0  0  0  0  0  0  0  0  0  0  0  0
  141.0060   74.1850  221.3010 C   0  0  0  0  0  0  0  0  0  0  0  0
  141.5940   74.4910  220.0920 C   0  0  0  0  0  0  0  0  0  0  0  0
  141.8760   75.7760  219.6850 C   0  0  0  0  0  0  0  0  0  0  0  0
  141.5410   76.7980  220.5600 C   0  0  0  0  0  0  0  0  0  0  0  0
  141.8070   78.1120  220.1920 C   0  0  0  0  0  0  0  0  0  0  0  0
  141.4660   79.1280  221.0790 C   0  0  0  0  0  0  0  0  0  0  0  0
  141.8010   80.7830  220.6160 Cl  0  0  0  0  0  0  0  0  0  0  0  0
  140.8810   78.8750  222.2880 C   0  0  0  0  0  0  0  0  0  0  0  0
  140.6230   77.5490  222.6370 C   0  0  0  0  0  0  0  0  0  0  0  0
  140.9530   76.5030  221.7730 C   0  0  0  0  0  0  0  0  0  0  0  0
  140.7040   75.2200  222.1060 N   0  0  0  0  0  0  0  0  0  0  0  0
  139.9090   73.4060  223.5690 H   0  0  0  0  0  0  0  0  0  0  0  0
  138.7325   71.0832  223.3539 H   0  0  0  0  0  0  0  0  0  0  0  0
  140.3311   70.5039  222.8023 H   0  0  0  0  0  0  0  0  0  0  0  0
  138.0800   69.0402  225.2530 H   0  0  0  0  0  0  0  0  0  0  0  0
  139.4555   68.8703  224.0486 H   0  0  0  0  0  0  0  0  0  0  0  0
  138.8576   66.8421  225.4436 H   0  0  0  0  0  0  0  0  0  0  0  0
  140.5786   67.3515  225.3605 H   0  0  0  0  0  0  0  0  0  0  0  0
  138.6236   68.0812  227.6070 H   0  0  0  0  0  0  0  0  0  0  0  0
  139.8516   66.8174  227.7259 H   0  0  0  0  0  0  0  0  0  0  0  0
  141.5929   68.6635  226.9592 H   0  0  0  0  0  0  0  0  0  0  0  0
  139.0684   70.2974  227.6054 H   0  0  0  0  0  0  0  0  0  0  0  0
  140.6796   71.0056  227.3505 H   0  0  0  0  0  0  0  0  0  0  0  0
  141.8521   73.6631  219.4153 H   0  0  0  0  0  0  0  0  0  0  0  0
  142.3450   75.9819  218.7115 H   0  0  0  0  0  0  0  0  0  0  0  0
  142.2754   78.3425  219.2238 H   0  0  0  0  0  0  0  0  0  0  0  0
  140.6197   79.6976  222.9700 H   0  0  0  0  0  0  0  0  0  0  0  0
  140.1532   77.3246  223.6060 H   0  0  0  0  0  0  0  0  0  0  0  0
  1  2  2  0
  2  3  1  0
  3  4  1  0
  4  5  1  0
  5  6  2  0
  5  7  1  0
  7  8  1  0
  8  9  1  0
  9 10  1  0
 10 11  1  0
 11 12  1  0
 11 13  1  0
  2 14  1  0
 14 15  2  0
 15 16  1  0
 16 17  2  0
 17 18  1  0
 18 19  2  0
 19 20  1  0
 19 21  1  0
 21 22  2  0
 22 23  1  0
 23 24  2  0
 13  7  1  0
 24 14  1  0
 23 17  1  0
  3 25  1  0
  4 26  1  0
  4 27  1  0
  8 28  1  0
  8 29  1  0
  9 30  1  0
  9 31  1  0
 10 32  1  0
 10 33  1  0
 11 34  1  6
 13 35  1  0
 13 36  1  0
 15 37  1  0
 16 38  1  0
 18 39  1  0
 21 40  1  0
 22 41  1  0
M  END
>  <smiles>  (19) 
O=C(NCC(=O)N1CCCC(F)C1)c1ccc2cc(Cl)ccc2n1

>  <score_type>  (19) 
oracle

>  <origin>  (19) 
autodockgpu

>  <m_score__min__energy>  (19) 
-7.3200000000000003

>  <m_primary>  (19) 
energy

>  <rmsd>  (19) 
8.849699270627791

>  <m_score__min__rmsd>  (19) 
8.849699270627791

>  <meeko>  (19) 
{"free_energy": -6.81, "intermolecular_energy": -8.0, "internal_energy": -1.34, "cluster_size": 31, "cluster_id": 3, "rank_in_cluster": 29}

>  <energy>  (19) 
-6.94

>  <cluster_rmsd>  (19) 
0.42

>  <cluster>  (19) 
2

$$$$

     RDKit          3D

 41 43  0  0  0  0  0  0  0  0999 V2000
  140.0070   72.4240  220.6980 O   0  0  0  0  0  0  0  0  0  0  0  0
  139.8430   72.8500  221.8690 C   0  0  0  0  0  0  0  0  0  0  0  0
  139.5840   74.2100  222.1800 N   0  0  0  0  0  0  0  0  0  0  0  0
  139.4890   75.2050  221.1600 C   0  0  0  0  0  0  0  0  0  0  0  0
  138.8470   76.4100  221.7440 C   0  0  0  0  0  0  0  0  0  0  0  0
  137.5870   76.5270  221.6340 O   0  0  0  0  0  0  0  0  0  0  0  0
  139.6070   77.3980  222.4020 N   0  0  0  0  0  0  0  0  0  0  0  0
  141.0520   77.3620  222.4110 C   0  0  0  0  0  0  0  0  0  0  0  0
  141.7090   78.6900  222.2350 C   0  0  0  0  0  0  0  0  0  0  0  0
  141.0300   79.7120  223.1200 C   0  0  0  0  0  0  0  0  0  0  0  0
  139.5800   79.7710  222.6280 C   0  0  2  0  0  0  0  0  0  0  0  0
  138.9390   80.8720  223.1540 F   0  0  0  0  0  0  0  0  0  0  0  0
  138.9340   78.4820  223.0920 C   0  0  0  0  0  0  0  0  0  0  0  0
  139.9230   71.8990  222.9950 C   0  0  0  0  0  0  0  0  0  0  0  0
  139.5110   70.5900  222.8610 C   0  0  0  0  0  0  0  0  0  0  0  0
  139.5650   69.6660  223.8800 C   0  0  0  0  0  0  0  0  0  0  0  0
  140.0650   70.1030  225.0970 C   0  0  0  0  0  0  0  0  0  0  0  0
  140.1390   69.2050  226.1560 C   0  0  0  0  0  0  0  0  0  0  0  0
  140.6420   69.6570  227.3710 C   0  0  0  0  0  0  0  0  0  0  0  0
  140.7350   68.5260  228.7050 Cl  0  0  0  0  0  0  0  0  0  0  0  0
  141.0630   70.9440  227.5530 C   0  0  0  0  0  0  0  0  0  0  0  0
  140.9810   71.8290  226.4780 C   0  0  0  0  0  0  0  0  0  0  0  0
  140.4800   71.4110  225.2430 C   0  0  0  0  0  0  0  0  0  0  0  0
  140.3990   72.2630  224.2000 N   0  0  0  0  0  0  0  0  0  0  0  0
  139.4580   74.4870  223.1950 H   0  0  0  0  0  0  0  0  0  0  0  0
  140.4945   75.4596  220.7937 H   0  0  0  0  0  0  0  0  0  0  0  0
  138.8919   74.8280  220.3166 H   0  0  0  0  0  0  0  0  0  0  0  0
  141.3785   76.9430  223.3742 H   0  0  0  0  0  0  0  0  0  0  0  0
  141.3533   76.7492  221.5486 H   0  0  0  0  0  0  0  0  0  0  0  0
  142.7707   78.6131  222.5123 H   0  0  0  0  0  0  0  0  0  0  0  0
  141.6253   79.0031  221.1838 H   0  0  0  0  0  0  0  0  0  0  0  0
  141.0673   79.3958  224.1729 H   0  0  0  0  0  0  0  0  0  0  0  0
  141.5224   80.6941  223.0657 H   0  0  0  0  0  0  0  0  0  0  0  0
  139.5207   79.8694  221.5340 H   0  0  0  0  0  0  0  0  0  0  0  0
  139.0538   78.3696  224.1797 H   0  0  0  0  0  0  0  0  0  0  0  0
  137.8568   78.4804  222.8691 H   0  0  0  0  0  0  0  0  0  0  0  0
  139.1175   70.2662  221.8862 H   0  0  0  0  0  0  0  0  0  0  0  0
  139.2272   68.6292  223.7354 H   0  0  0  0  0  0  0  0  0  0  0  0
  139.8079   68.1630  226.0356 H   0  0  0  0  0  0  0  0  0  0  0  0
  141.4576   71.2747  228.5251 H   0  0  0  0  0  0  0  0  0  0  0  0
  141.3151   72.8694  226.6044 H   0  0  0  0  0  0  0  0  0  0  0  0
  1  2  2  0
  2  3  1  0
  3  4  1  0
  4  5  1  0
  5  6  2  0
  5  7  1  0
  7  8  1  0
  8  9  1  0
  9 10  1  0
 10 11  1  0
 11 12  1  0
 11 13  1  0
  2 14  1  0
 14 15  2  0
 15 16  1  0
 16 17  2  0
 17 18  1  0
 18 19  2  0
 19 20  1  0
 19 21  1  0
 21 22  2  0
 22 23  1  0
 23 24  2  0
 13  7  1  0
 24 14  1  0
 23 17  1  0
  3 25  1  0
  4 26  1  0
  4 27  1  0
  8 28  1  0
  8 29  1  0
  9 30  1  0
  9 31  1  0
 10 32  1  0
 10 33  1  0
 11 34  1  6
 13 35  1  0
 13 36  1  0
 15 37  1  0
 16 38  1  0
 18 39  1  0
 21 40  1  0
 22 41  1  0
M  END
>  <smiles>  (20) 
O=C(NCC(=O)N1CCCC(F)C1)c1ccc2cc(Cl)ccc2n1

>  <score_type>  (20) 
oracle

>  <origin>  (20) 
autodockgpu

>  <m_score__min__energy>  (20) 
-7.3200000000000003

>  <m_primary>  (20) 
energy

>  <rmsd>  (20) 
3.3377534668057303

>  <m_score__min__rmsd>  (20) 
3.3377534668057303

>  <meeko>  (20) 
{"free_energy": -7.12, "intermolecular_energy": -8.31, "internal_energy": -0.96, "cluster_size": 13, "cluster_id": 1, "rank_in_cluster": 12}

>  <energy>  (20) 
-7.15

>  <cluster_rmsd>  (20) 
0.0

>  <cluster>  (20) 
3

$$$$

     RDKit          3D

 41 43  0  0  0  0  0  0  0  0999 V2000
  135.1160   68.5170  224.6970 O   0  0  0  0  0  0  0  0  0  0  0  0
  135.6190   69.6510  224.9020 C   0  0  0  0  0  0  0  0  0  0  0  0
  136.9620   69.9810  224.5900 N   0  0  0  0  0  0  0  0  0  0  0  0
  137.8520   69.0270  224.0080 C   0  0  0  0  0  0  0  0  0  0  0  0
  138.8100   68.5850  225.0530 C   0  0  0  0  0  0  0  0  0  0  0  0
  139.2240   67.3850  225.0130 O   0  0  0  0  0  0  0  0  0  0  0  0
  139.2500   69.4660  226.0620 N   0  0  0  0  0  0  0  0  0  0  0  0
  139.2140   69.0980  227.4590 C   0  0  0  0  0  0  0  0  0  0  0  0
  140.4080   69.5260  228.2460 C   0  0  0  0  0  0  0  0  0  0  0  0
  140.7480   70.9610  227.9090 C   0  0  0  0  0  0  0  0  0  0  0  0
  141.0760   70.9580  226.4130 C   0  0  2  0  0  0  0  0  0  0  0  0
  141.6850   72.1390  226.0520 F   0  0  0  0  0  0  0  0  0  0  0  0
  139.7510   70.7780  225.7000 C   0  0  0  0  0  0  0  0  0  0  0  0
  134.7800   70.7090  225.5020 C   0  0  0  0  0  0  0  0  0  0  0  0
  133.7250   70.4030  226.3340 C   0  0  0  0  0  0  0  0  0  0  0  0
  132.9150   71.3520  226.9170 C   0  0  0  0  0  0  0  0  0  0  0  0
  133.1990   72.6790  226.6330 C   0  0  0  0  0  0  0  0  0  0  0  0
  132.4080   73.6730  227.1980 C   0  0  0  0  0  0  0  0  0  0  0  0
  132.7040   74.9990  226.9050 C   0  0  0  0  0  0  0  0  0  0  0  0
  131.7080   76.2510  227.6170 Cl  0  0  0  0  0  0  0  0  0  0  0  0
  133.7400   75.3520  226.0860 C   0  0  0  0  0  0  0  0  0  0  0  0
  134.5210   74.3400  225.5290 C   0  0  0  0  0  0  0  0  0  0  0  0
  134.2530   72.9960  225.8000 C   0  0  0  0  0  0  0  0  0  0  0  0
  135.0070   72.0140  225.2650 N   0  0  0  0  0  0  0  0  0  0  0  0
  137.3080   70.9620  224.7950 H   0  0  0  0  0  0  0  0  0  0  0  0
  137.2807   68.1630  223.6377 H   0  0  0  0  0  0  0  0  0  0  0  0
  138.3937   69.4795  223.1643 H   0  0  0  0  0  0  0  0  0  0  0  0
  138.3225   69.5566  227.9116 H   0  0  0  0  0  0  0  0  0  0  0  0
  139.1976   67.9986  227.4911 H   0  0  0  0  0  0  0  0  0  0  0  0
  140.1871   69.4444  229.3205 H   0  0  0  0  0  0  0  0  0  0  0  0
  141.2620   68.8792  227.9964 H   0  0  0  0  0  0  0  0  0  0  0  0
  139.8903   71.6185  228.1141 H   0  0  0  0  0  0  0  0  0  0  0  0
  141.5879   71.3360  228.5122 H   0  0  0  0  0  0  0  0  0  0  0  0
  141.7778   70.1535  226.1479 H   0  0  0  0  0  0  0  0  0  0  0  0
  139.0412   71.5550  226.0199 H   0  0  0  0  0  0  0  0  0  0  0  0
  139.8765   70.8636  224.6105 H   0  0  0  0  0  0  0  0  0  0  0  0
  133.5186   69.3431  226.5439 H   0  0  0  0  0  0  0  0  0  0  0  0
  132.0815   71.0703  227.5773 H   0  0  0  0  0  0  0  0  0  0  0  0
  131.5684   73.4163  227.8607 H   0  0  0  0  0  0  0  0  0  0  0  0
  133.9526   76.4097  225.8714 H   0  0  0  0  0  0  0  0  0  0  0  0
  135.3593   74.6035  224.8674 H   0  0  0  0  0  0  0  0  0  0  0  0
  1  2  2  0
  2  3  1  0
  3  4  1  0
  4  5  1  0
  5  6  2  0
  5  7  1  0
  7  8  1  0
  8  9  1  0
  9 10  1  0
 10 11  1  0
 11 12  1  0
 11 13  1  0
  2 14  1  0
 14 15  2  0
 15 16  1  0
 16 17  2  0
 17 18  1  0
 18 19  2  0
 19 20  1  0
 19 21  1  0
 21 22  2  0
 22 23  1  0
 23 24  2  0
 13  7  1  0
 24 14  1  0
 23 17  1  0
  3 25  1  0
  4 26  1  0
  4 27  1  0
  8 28  1  0
  8 29  1  0
  9 30  1  0
  9 31  1  0
 10 32  1  0
 10 33  1  0
 11 34  1  1
 13 35  1  0
 13 36  1  0
 15 37  1  0
 16 38  1  0
 18 39  1  0
 21 40  1  0
 22 41  1  0
M  END
>  <smiles>  (21) 
O=C(NCC(=O)N1CCCC(F)C1)c1ccc2cc(Cl)ccc2n1

>  <score_type>  (21) 
oracle

>  <origin>  (21) 
autodockgpu

>  <m_score__min__energy>  (21) 
-7.3200000000000003

>  <m_primary>  (21) 
energy

>  <rmsd>  (21) 
8.440230846541986

>  <m_score__min__rmsd>  (21) 
8.440230846541986

>  <meeko>  (21) 
{"free_energy": -7.2, "intermolecular_energy": -8.39, "internal_energy": -1.13, "cluster_size": 6, "cluster_id": 2, "rank_in_cluster": 1}

>  <energy>  (21) 
-7.15

>  <cluster_rmsd>  (21) 
0.03

>  <cluster>  (21) 
3

$$$$

     RDKit          3D

 41 43  0  0  0  0  0  0  0  0999 V2000
  141.6650   72.0800  220.9140 O   0  0  0  0  0  0  0  0  0  0  0  0
  141.0070   72.9040  221.5980 C   0  0  0  0  0  0  0  0  0  0  0  0
  140.0790   72.5270  222.6020 N   0  0  0  0  0  0  0  0  0  0  0  0
  139.8280   71.1540  222.9100 C   0  0  0  0  0  0  0  0  0  0  0  0
  139.2520   71.0820  224.2770 C   0  0  0  0  0  0  0  0  0  0  0  0
  138.0150   71.3290  224.4160 O   0  0  0  0  0  0  0  0  0  0  0  0
  140.0510   70.7490  225.3900 N   0  0  0  0  0  0  0  0  0  0  0  0
  140.9170   71.7200  226.0200 C   0  0  0  0  0  0  0  0  0  0  0  0
  140.9380   71.6620  227.5100 C   0  0  0  0  0  0  0  0  0  0  0  0
  141.0600   70.2220  227.9580 C   0  0  0  0  0  0  0  0  0  0  0  0
  139.8060   69.5250  227.4200 C   0  0  2  0  0  0  0  0  0  0  0  0
  139.6530   68.2890  228.0110 F   0  0  0  0  0  0  0  0  0  0  0  0
  140.0120   69.4020  225.9250 C   0  0  0  0  0  0  0  0  0  0  0  0
  141.1950   74.3490  221.3560 C   0  0  0  0  0  0  0  0  0  0  0  0
  142.0110   74.8070  220.3430 C   0  0  0  0  0  0  0  0  0  0  0  0
  142.2180   76.1430  220.0770 C   0  0  0  0  0  0  0  0  0  0  0  0
  141.5590   77.0530  220.8890 C   0  0  0  0  0  0  0  0  0  0  0  0
  141.7390   78.4120  220.6590 C   0  0  0  0  0  0  0  0  0  0  0  0
  141.0730   79.3150  221.4810 C   0  0  0  0  0  0  0  0  0  0  0  0
  141.2980   81.0270  221.1910 Cl  0  0  0  0  0  0  0  0  0  0  0  0
  140.2540   78.9090  222.4970 C   0  0  0  0  0  0  0  0  0  0  0  0
  140.0880   77.5410  222.7110 C   0  0  0  0  0  0  0  0  0  0  0  0
  140.7420   76.6050  221.9060 C   0  0  0  0  0  0  0  0  0  0  0  0
  140.5830   75.2810  222.1090 N   0  0  0  0  0  0  0  0  0  0  0  0
  139.5650   73.2850  223.1340 H   0  0  0  0  0  0  0  0  0  0  0  0
  139.1167   70.7336  222.1838 H   0  0  0  0  0  0  0  0  0  0  0  0
  140.7632   70.5769  222.8613 H   0  0  0  0  0  0  0  0  0  0  0  0
  141.9415   71.5526  225.6561 H   0  0  0  0  0  0  0  0  0  0  0  0
  140.5195   72.7103  225.7531 H   0  0  0  0  0  0  0  0  0  0  0  0
  141.7965   72.2371  227.8871 H   0  0  0  0  0  0  0  0  0  0  0  0
  140.0060   72.0912  227.9064 H   0  0  0  0  0  0  0  0  0  0  0  0
  141.9668   69.7629  227.5373 H   0  0  0  0  0  0  0  0  0  0  0  0
  141.1394   70.1376  229.0519 H   0  0  0  0  0  0  0  0  0  0  0  0
  138.8909   70.0924  227.6452 H   0  0  0  0  0  0  0  0  0  0  0  0
  140.9600   68.8848  225.7156 H   0  0  0  0  0  0  0  0  0  0  0  0
  139.2007   68.8198  225.4636 H   0  0  0  0  0  0  0  0  0  0  0  0
  142.5245   74.0656  219.7132 H   0  0  0  0  0  0  0  0  0  0  0  0
  142.8753   76.4721  219.2587 H   0  0  0  0  0  0  0  0  0  0  0  0
  142.3920   78.7646  219.8470 H   0  0  0  0  0  0  0  0  0  0  0  0
  139.7376   79.6444  223.1314 H   0  0  0  0  0  0  0  0  0  0  0  0
  139.4335   77.1943  223.5243 H   0  0  0  0  0  0  0  0  0  0  0  0
  1  2  2  0
  2  3  1  0
  3  4  1  0
  4  5  1  0
  5  6  2  0
  5  7  1  0
  7  8  1  0
  8  9  1  0
  9 10  1  0
 10 11  1  0
 11 12  1  0
 11 13  1  0
  2 14  1  0
 14 15  2  0
 15 16  1  0
 16 17  2  0
 17 18  1  0
 18 19  2  0
 19 20  1  0
 19 21  1  0
 21 22  2  0
 22 23  1  0
 23 24  2  0
 13  7  1  0
 24 14  1  0
 23 17  1  0
  3 25  1  0
  4 26  1  0
  4 27  1  0
  8 28  1  0
  8 29  1  0
  9 30  1  0
  9 31  1  0
 10 32  1  0
 10 33  1  0
 11 34  1  6
 13 35  1  0
 13 36  1  0
 15 37  1  0
 16 38  1  0
 18 39  1  0
 21 40  1  0
 22 41  1  0
M  END
>  <smiles>  (22) 
O=C(NCC(=O)N1CCCC(F)C1)c1ccc2cc(Cl)ccc2n1

>  <score_type>  (22) 
oracle

>  <origin>  (22) 
autodockgpu

>  <m_score__min__energy>  (22) 
-7.3200000000000003

>  <m_primary>  (22) 
energy

>  <rmsd>  (22) 
8.470831209212657

>  <m_score__min__rmsd>  (22) 
8.470831209212657

>  <meeko>  (22) 
{"free_energy": -7.15, "intermolecular_energy": -8.34, "internal_energy": -1.18, "cluster_size": 31, "cluster_id": 3, "rank_in_cluster": 7}

>  <energy>  (22) 
-7.15

>  <cluster_rmsd>  (22) 
0.02

>  <cluster>  (22) 
3

$$$$

     RDKit          3D

 41 43  0  0  0  0  0  0  0  0999 V2000
  141.6780   72.0850  220.8770 O   0  0  0  0  0  0  0  0  0  0  0  0
  141.0210   72.9100  221.5610 C   0  0  0  0  0  0  0  0  0  0  0  0
  140.0880   72.5320  222.5610 N   0  0  0  0  0  0  0  0  0  0  0  0
  139.8280   71.1600  222.8620 C   0  0  0  0  0  0  0  0  0  0  0  0
  139.2410   71.0860  224.2250 C   0  0  0  0  0  0  0  0  0  0  0  0
  138.0340   71.4500  224.3730 O   0  0  0  0  0  0  0  0  0  0  0  0
  139.9960   70.6270  225.3230 N   0  0  0  0  0  0  0  0  0  0  0  0
  140.7780   71.5290  226.1370 C   0  0  0  0  0  0  0  0  0  0  0  0
  140.7240   71.2520  227.6020 C   0  0  0  0  0  0  0  0  0  0  0  0
  140.8950   69.7680  227.8420 C   0  0  0  0  0  0  0  0  0  0  0  0
  139.7080   69.1060  227.1350 C   0  0  2  0  0  0  0  0  0  0  0  0
  139.5860   67.7910  227.5300 F   0  0  0  0  0  0  0  0  0  0  0  0
  139.9970   69.2140  225.6530 C   0  0  0  0  0  0  0  0  0  0  0  0
  141.2170   74.3540  221.3250 C   0  0  0  0  0  0  0  0  0  0  0  0
  142.0380   74.8120  220.3160 C   0  0  0  0  0  0  0  0  0  0  0  0
  142.2530   76.1470  220.0560 C   0  0  0  0  0  0  0  0  0  0  0  0
  141.5960   77.0580  220.8700 C   0  0  0  0  0  0  0  0  0  0  0  0
  141.7830   78.4170  220.6450 C   0  0  0  0  0  0  0  0  0  0  0  0
  141.1190   79.3200  221.4690 C   0  0  0  0  0  0  0  0  0  0  0  0
  141.3540   81.0330  221.1860 Cl  0  0  0  0  0  0  0  0  0  0  0  0
  140.2950   78.9150  222.4810 C   0  0  0  0  0  0  0  0  0  0  0  0
  140.1220   77.5470  222.6900 C   0  0  0  0  0  0  0  0  0  0  0  0
  140.7730   76.6100  221.8830 C   0  0  0  0  0  0  0  0  0  0  0  0
  140.6070   75.2870  222.0800 N   0  0  0  0  0  0  0  0  0  0  0  0
  139.5750   73.2910  223.0930 H   0  0  0  0  0  0  0  0  0  0  0  0
  139.1202   70.7458  222.1289 H   0  0  0  0  0  0  0  0  0  0  0  0
  140.7607   70.5784  222.8183 H   0  0  0  0  0  0  0  0  0  0  0  0
  141.8272   71.4601  225.8137 H   0  0  0  0  0  0  0  0  0  0  0  0
  140.3460   72.5305  225.9939 H   0  0  0  0  0  0  0  0  0  0  0  0
  141.5315   71.8007  228.1088 H   0  0  0  0  0  0  0  0  0  0  0  0
  139.7521   71.5781  228.0010 H   0  0  0  0  0  0  0  0  0  0  0  0
  141.8446   69.4151  227.4134 H   0  0  0  0  0  0  0  0  0  0  0  0
  140.9211   69.5259  228.9147 H   0  0  0  0  0  0  0  0  0  0  0  0
  138.7553   69.5953  227.3858 H   0  0  0  0  0  0  0  0  0  0  0  0
  140.9793   68.7738  225.4265 H   0  0  0  0  0  0  0  0  0  0  0  0
  139.2412   68.6728  225.0650 H   0  0  0  0  0  0  0  0  0  0  0  0
  142.5490   74.0704  219.6844 H   0  0  0  0  0  0  0  0  0  0  0  0
  142.9147   76.4756  219.2411 H   0  0  0  0  0  0  0  0  0  0  0  0
  142.4395   78.7695  219.8358 H   0  0  0  0  0  0  0  0  0  0  0  0
  139.7801   79.6509  223.1161 H   0  0  0  0  0  0  0  0  0  0  0  0
  139.4643   77.2009  223.5009 H   0  0  0  0  0  0  0  0  0  0  0  0
  1  2  2  0
  2  3  1  0
  3  4  1  0
  4  5  1  0
  5  6  2  0
  5  7  1  0
  7  8  1  0
  8  9  1  0
  9 10  1  0
 10 11  1  0
 11 12  1  0
 11 13  1  0
  2 14  1  0
 14 15  2  0
 15 16  1  0
 16 17  2  0
 17 18  1  0
 18 19  2  0
 19 20  1  0
 19 21  1  0
 21 22  2  0
 22 23  1  0
 23 24  2  0
 13  7  1  0
 24 14  1  0
 23 17  1  0
  3 25  1  0
  4 26  1  0
  4 27  1  0
  8 28  1  0
  8 29  1  0
  9 30  1  0
  9 31  1  0
 10 32  1  0
 10 33  1  0
 11 34  1  6
 13 35  1  0
 13 36  1  0
 15 37  1  0
 16 38  1  0
 18 39  1  0
 21 40  1  0
 22 41  1  0
M  END
>  <smiles>  (23) 
O=C(NCC(=O)N1CCCC(F)C1)c1ccc2cc(Cl)ccc2n1

>  <score_type>  (23) 
oracle

>  <origin>  (23) 
autodockgpu

>  <m_score__min__energy>  (23) 
-7.3200000000000003

>  <m_primary>  (23) 
energy

>  <rmsd>  (23) 
8.515698701757357

>  <m_score__min__rmsd>  (23) 
8.515698701757357

>  <meeko>  (23) 
{"free_energy": -7.14, "intermolecular_energy": -8.33, "internal_energy": -1.2, "cluster_size": 31, "cluster_id": 3, "rank_in_cluster": 14}

>  <energy>  (23) 
-7.15

>  <cluster_rmsd>  (23) 
0.03

>  <cluster>  (23) 
3

$$$$

     RDKit          3D

 41 43  0  0  0  0  0  0  0  0999 V2000
  141.4530   71.6430  221.1780 O   0  0  0  0  0  0  0  0  0  0  0  0
  140.7460   72.4850  221.7870 C   0  0  0  0  0  0  0  0  0  0  0  0
  139.7180   72.1350  222.6990 N   0  0  0  0  0  0  0  0  0  0  0  0
  139.4130   70.7700  222.9940 C   0  0  0  0  0  0  0  0  0  0  0  0
  138.9260   70.6940  224.3950 C   0  0  0  0  0  0  0  0  0  0  0  0
  137.6740   70.7520  224.5940 O   0  0  0  0  0  0  0  0  0  0  0  0
  139.8230   70.5620  225.4740 N   0  0  0  0  0  0  0  0  0  0  0  0
  140.8460   71.5490  225.7360 C   0  0  0  0  0  0  0  0  0  0  0  0
  141.0470   71.8710  227.1790 C   0  0  0  0  0  0  0  0  0  0  0  0
  141.0900   70.5890  227.9820 C   0  0  0  0  0  0  0  0  0  0  0  0
  139.7210   69.9350  227.7720 C   0  0  2  0  0  0  0  0  0  0  0  0
  139.5290   68.9190  228.6820 F   0  0  0  0  0  0  0  0  0  0  0  0
  139.7270   69.4110  226.3510 C   0  0  0  0  0  0  0  0  0  0  0  0
  140.9830   73.9240  221.5500 C   0  0  0  0  0  0  0  0  0  0  0  0
  141.9270   74.3570  220.6430 C   0  0  0  0  0  0  0  0  0  0  0  0
  142.1840   75.6850  220.3880 C   0  0  0  0  0  0  0  0  0  0  0  0
  141.4400   76.6160  221.0960 C   0  0  0  0  0  0  0  0  0  0  0  0
  141.6650   77.9690  220.8720 C   0  0  0  0  0  0  0  0  0  0  0  0
  140.9110   78.8920  221.5890 C   0  0  0  0  0  0  0  0  0  0  0  0
  141.1950   80.5970  221.3070 Cl  0  0  0  0  0  0  0  0  0  0  0  0
  139.9640   78.5120  222.4980 C   0  0  0  0  0  0  0  0  0  0  0  0
  139.7540   77.1490  222.7080 C   0  0  0  0  0  0  0  0  0  0  0  0
  140.4930   76.1930  222.0070 C   0  0  0  0  0  0  0  0  0  0  0  0
  140.2920   74.8750  222.2060 N   0  0  0  0  0  0  0  0  0  0  0  0
  139.1670   72.9080  223.1710 H   0  0  0  0  0  0  0  0  0  0  0  0
  138.6331   70.4065  222.3087 H   0  0  0  0  0  0  0  0  0  0  0  0
  140.3100   70.1455  222.8699 H   0  0  0  0  0  0  0  0  0  0  0  0
  141.7975   71.1714  225.3335 H   0  0  0  0  0  0  0  0  0  0  0  0
  140.5108   72.4792  225.2540 H   0  0  0  0  0  0  0  0  0  0  0  0
  141.9953   72.4141  227.3046 H   0  0  0  0  0  0  0  0  0  0  0  0
  140.2153   72.4974  227.5337 H   0  0  0  0  0  0  0  0  0  0  0  0
  141.8917   69.9312  227.6151 H   0  0  0  0  0  0  0  0  0  0  0  0
  141.2955   70.7780  229.0460 H   0  0  0  0  0  0  0  0  0  0  0  0
  138.8974   70.6481  227.9245 H   0  0  0  0  0  0  0  0  0  0  0  0
  140.5898   68.7462  226.1973 H   0  0  0  0  0  0  0  0  0  0  0  0
  138.8142   68.8338  226.1420 H   0  0  0  0  0  0  0  0  0  0  0  0
  142.5060   73.6002  220.0935 H   0  0  0  0  0  0  0  0  0  0  0  0
  142.9449   75.9934  219.6559 H   0  0  0  0  0  0  0  0  0  0  0  0
  142.4209   78.3018  220.1454 H   0  0  0  0  0  0  0  0  0  0  0  0
  139.3811   79.2632  223.0511 H   0  0  0  0  0  0  0  0  0  0  0  0
  138.9962   76.8226  223.4354 H   0  0  0  0  0  0  0  0  0  0  0  0
  1  2  2  0
  2  3  1  0
  3  4  1  0
  4  5  1  0
  5  6  2  0
  5  7  1  0
  7  8  1  0
  8  9  1  0
  9 10  1  0
 10 11  1  0
 11 12  1  0
 11 13  1  0
  2 14  1  0
 14 15  2  0
 15 16  1  0
 16 17  2  0
 17 18  1  0
 18 19  2  0
 19 20  1  0
 19 21  1  0
 21 22  2  0
 22 23  1  0
 23 24  2  0
 13  7  1  0
 24 14  1  0
 23 17  1  0
  3 25  1  0
  4 26  1  0
  4 27  1  0
  8 28  1  0
  8 29  1  0
  9 30  1  0
  9 31  1  0
 10 32  1  0
 10 33  1  0
 11 34  1  6
 13 35  1  0
 13 36  1  0
 15 37  1  0
 16 38  1  0
 18 39  1  0
 21 40  1  0
 22 41  1  0
M  END
>  <smiles>  (24) 
O=C(NCC(=O)N1CCCC(F)C1)c1ccc2cc(Cl)ccc2n1

>  <score_type>  (24) 
oracle

>  <origin>  (24) 
autodockgpu

>  <m_score__min__energy>  (24) 
-7.3200000000000003

>  <m_primary>  (24) 
energy

>  <rmsd>  (24) 
8.289640818350332

>  <m_score__min__rmsd>  (24) 
8.289640818350332

>  <meeko>  (24) 
{"free_energy": -7.14, "intermolecular_energy": -8.33, "internal_energy": -1.2, "cluster_size": 31, "cluster_id": 3, "rank_in_cluster": 13}

>  <energy>  (24) 
-7.15

>  <cluster_rmsd>  (24) 
0.04

>  <cluster>  (24) 
3

$$$$

     RDKit          3D

 41 43  0  0  0  0  0  0  0  0999 V2000
  139.9840   72.5210  220.7730 O   0  0  0  0  0  0  0  0  0  0  0  0
  139.8470   72.9160  221.9580 C   0  0  0  0  0  0  0  0  0  0  0  0
  139.6190   74.2710  222.3110 N   0  0  0  0  0  0  0  0  0  0  0  0
  139.5250   75.2970  221.3210 C   0  0  0  0  0  0  0  0  0  0  0  0
  139.4930   76.6100  222.0130 C   0  0  0  0  0  0  0  0  0  0  0  0
  138.4740   76.8890  222.7170 O   0  0  0  0  0  0  0  0  0  0  0  0
  140.5600   77.5250  221.8950 N   0  0  0  0  0  0  0  0  0  0  0  0
  141.1190   77.8770  220.6100 C   0  0  0  0  0  0  0  0  0  0  0  0
  141.4510   79.3230  220.4510 C   0  0  0  0  0  0  0  0  0  0  0  0
  142.1730   79.8150  221.6860 C   0  0  0  0  0  0  0  0  0  0  0  0
  141.1800   79.6250  222.8370 C   0  0  2  0  0  0  0  0  0  0  0  0
  141.6050   80.3060  223.9560 F   0  0  0  0  0  0  0  0  0  0  0  0
  141.1190   78.1330  223.0880 C   0  0  0  0  0  0  0  0  0  0  0  0
  139.9280   71.9320  223.0570 C   0  0  0  0  0  0  0  0  0  0  0  0
  139.5160   70.6280  222.8840 C   0  0  0  0  0  0  0  0  0  0  0  0
  139.5700   69.6740  223.8760 C   0  0  0  0  0  0  0  0  0  0  0  0
  140.0710   70.0760  225.1050 C   0  0  0  0  0  0  0  0  0  0  0  0
  140.1450   69.1480  226.1370 C   0  0  0  0  0  0  0  0  0  0  0  0
  140.6490   69.5640  227.3650 C   0  0  0  0  0  0  0  0  0  0  0  0
  140.7420   68.3950  228.6650 Cl  0  0  0  0  0  0  0  0  0  0  0  0
  141.0700   70.8450  227.5840 C   0  0  0  0  0  0  0  0  0  0  0  0
  140.9860   71.7610  226.5360 C   0  0  0  0  0  0  0  0  0  0  0  0
  140.4850   71.3800  225.2890 C   0  0  0  0  0  0  0  0  0  0  0  0
  140.4040   72.2610  224.2720 N   0  0  0  0  0  0  0  0  0  0  0  0
  139.5140   74.5220  223.3350 H   0  0  0  0  0  0  0  0  0  0  0  0
  140.3972   75.2499  220.6524 H   0  0  0  0  0  0  0  0  0  0  0  0
  138.6132   75.1624  220.7206 H   0  0  0  0  0  0  0  0  0  0  0  0
  142.0417   77.2955  220.4665 H   0  0  0  0  0  0  0  0  0  0  0  0
  140.3452   77.6511  219.8615 H   0  0  0  0  0  0  0  0  0  0  0  0
  142.0978   79.4558  219.5712 H   0  0  0  0  0  0  0  0  0  0  0  0
  140.5235   79.8987  220.3155 H   0  0  0  0  0  0  0  0  0  0  0  0
  143.0838   79.2236  221.8612 H   0  0  0  0  0  0  0  0  0  0  0  0
  142.4891   80.8638  221.5859 H   0  0  0  0  0  0  0  0  0  0  0  0
  140.1847   80.0233  222.5905 H   0  0  0  0  0  0  0  0  0  0  0  0
  142.1292   77.7397  223.2747 H   0  0  0  0  0  0  0  0  0  0  0  0
  140.5011   77.9081  223.9698 H   0  0  0  0  0  0  0  0  0  0  0  0
  139.1226   70.3332  221.9000 H   0  0  0  0  0  0  0  0  0  0  0  0
  139.2317   68.6420  223.7016 H   0  0  0  0  0  0  0  0  0  0  0  0
  139.8132   68.1101  225.9864 H   0  0  0  0  0  0  0  0  0  0  0  0
  141.4663   71.1470  228.5647 H   0  0  0  0  0  0  0  0  0  0  0  0
  141.3187   72.7976  226.6934 H   0  0  0  0  0  0  0  0  0  0  0  0
  1  2  2  0
  2  3  1  0
  3  4  1  0
  4  5  1  0
  5  6  2  0
  5  7  1  0
  7  8  1  0
  8  9  1  0
  9 10  1  0
 10 11  1  0
 11 12  1  0
 11 13  1  0
  2 14  1  0
 14 15  2  0
 15 16  1  0
 16 17  2  0
 17 18  1  0
 18 19  2  0
 19 20  1  0
 19 21  1  0
 21 22  2  0
 22 23  1  0
 23 24  2  0
 13  7  1  0
 24 14  1  0
 23 17  1  0
  3 25  1  0
  4 26  1  0
  4 27  1  0
  8 28  1  0
  8 29  1  0
  9 30  1  0
  9 31  1  0
 10 32  1  0
 10 33  1  0
 11 34  1  6
 13 35  1  0
 13 36  1  0
 15 37  1  0
 16 38  1  0
 18 39  1  0
 21 40  1  0
 22 41  1  0
M  END
>  <smiles>  (25) 
O=C(NCC(=O)N1CCCC(F)C1)c1ccc2cc(Cl)ccc2n1

>  <score_type>  (25) 
oracle

>  <origin>  (25) 
autodockgpu

>  <m_score__min__energy>  (25) 
-7.3200000000000003

>  <m_primary>  (25) 
energy

>  <rmsd>  (25) 
3.161380270421629

>  <m_score__min__rmsd>  (25) 
3.161380270421629

>  <meeko>  (25) 
{"free_energy": -7.26, "intermolecular_energy": -8.45, "internal_energy": -1.07, "cluster_size": 13, "cluster_id": 1, "rank_in_cluster": 7}

>  <energy>  (25) 
-7.15

>  <cluster_rmsd>  (25) 
0.06

>  <cluster>  (25) 
3

$$$$

     RDKit          3D

 41 43  0  0  0  0  0  0  0  0999 V2000
  140.9710   72.7170  220.9890 O   0  0  0  0  0  0  0  0  0  0  0  0
  140.3060   72.9920  222.0190 C   0  0  0  0  0  0  0  0  0  0  0  0
  139.6130   74.2160  222.2010 N   0  0  0  0  0  0  0  0  0  0  0  0
  139.6240   75.2380  221.2030 C   0  0  0  0  0  0  0  0  0  0  0  0
  139.5300   76.5550  221.8830 C   0  0  0  0  0  0  0  0  0  0  0  0
  138.4610   76.8240  222.5140 O   0  0  0  0  0  0  0  0  0  0  0  0
  140.5900   77.4820  221.8330 N   0  0  0  0  0  0  0  0  0  0  0  0
  141.1190   77.9640  220.5780 C   0  0  0  0  0  0  0  0  0  0  0  0
  141.4430   79.4200  220.5550 C   0  0  0  0  0  0  0  0  0  0  0  0
  142.1920   79.7900  221.8170 C   0  0  0  0  0  0  0  0  0  0  0  0
  141.2250   79.4820  222.9640 C   0  0  2  0  0  0  0  0  0  0  0  0
  141.6740   80.0520  224.1360 F   0  0  0  0  0  0  0  0  0  0  0  0
  141.1740   77.9720  223.0670 C   0  0  0  0  0  0  0  0  0  0  0  0
  140.2310   72.0010  223.1110 C   0  0  0  0  0  0  0  0  0  0  0  0
  139.6790   70.7530  222.9110 C   0  0  0  0  0  0  0  0  0  0  0  0
  139.5860   69.7950  223.8960 C   0  0  0  0  0  0  0  0  0  0  0  0
  140.0820   70.1310  225.1460 C   0  0  0  0  0  0  0  0  0  0  0  0
  140.0110   69.1950  226.1720 C   0  0  0  0  0  0  0  0  0  0  0  0
  140.5120   69.5450  227.4210 C   0  0  0  0  0  0  0  0  0  0  0  0
  140.4210   68.3660  228.7130 Cl  0  0  0  0  0  0  0  0  0  0  0  0
  141.0680   70.7680  227.6670 C   0  0  0  0  0  0  0  0  0  0  0  0
  141.1300   71.6930  226.6250 C   0  0  0  0  0  0  0  0  0  0  0  0
  140.6360   71.3770  225.3570 C   0  0  0  0  0  0  0  0  0  0  0  0
  140.6960   72.2670  224.3450 N   0  0  0  0  0  0  0  0  0  0  0  0
  139.0740   74.3700  223.1000 H   0  0  0  0  0  0  0  0  0  0  0  0
  140.5584   75.1836  220.6252 H   0  0  0  0  0  0  0  0  0  0  0  0
  138.7758   75.1052  220.5153 H   0  0  0  0  0  0  0  0  0  0  0  0
  142.0401   77.4047  220.3573 H   0  0  0  0  0  0  0  0  0  0  0  0
  140.3285   77.8102  219.8287 H   0  0  0  0  0  0  0  0  0  0  0  0
  142.0691   79.6425  219.6784 H   0  0  0  0  0  0  0  0  0  0  0  0
  140.5114   80.0021  220.4974 H   0  0  0  0  0  0  0  0  0  0  0  0
  143.1076   79.1879  221.9125 H   0  0  0  0  0  0  0  0  0  0  0  0
  142.5042   80.8448  221.8150 H   0  0  0  0  0  0  0  0  0  0  0  0
  140.2230   79.8970  222.7803 H   0  0  0  0  0  0  0  0  0  0  0  0
  142.1893   77.5674  223.1912 H   0  0  0  0  0  0  0  0  0  0  0  0
  140.5768   77.6578  223.9357 H   0  0  0  0  0  0  0  0  0  0  0  0
  139.2920   70.5096  221.9105 H   0  0  0  0  0  0  0  0  0  0  0  0
  139.1390   68.8092  223.6999 H   0  0  0  0  0  0  0  0  0  0  0  0
  139.5695   68.2023  225.9998 H   0  0  0  0  0  0  0  0  0  0  0  0
  141.4582   71.0179  228.6647 H   0  0  0  0  0  0  0  0  0  0  0  0
  141.5734   72.6837  226.8038 H   0  0  0  0  0  0  0  0  0  0  0  0
  1  2  2  0
  2  3  1  0
  3  4  1  0
  4  5  1  0
  5  6  2  0
  5  7  1  0
  7  8  1  0
  8  9  1  0
  9 10  1  0
 10 11  1  0
 11 12  1  0
 11 13  1  0
  2 14  1  0
 14 15  2  0
 15 16  1  0
 16 17  2  0
 17 18  1  0
 18 19  2  0
 19 20  1  0
 19 21  1  0
 21 22  2  0
 22 23  1  0
 23 24  2  0
 13  7  1  0
 24 14  1  0
 23 17  1  0
  3 25  1  0
  4 26  1  0
  4 27  1  0
  8 28  1  0
  8 29  1  0
  9 30  1  0
  9 31  1  0
 10 32  1  0
 10 33  1  0
 11 34  1  6
 13 35  1  0
 13 36  1  0
 15 37  1  0
 16 38  1  0
 18 39  1  0
 21 40  1  0
 22 41  1  0
M  END
>  <smiles>  (26) 
O=C(NCC(=O)N1CCCC(F)C1)c1ccc2cc(Cl)ccc2n1

>  <score_type>  (26) 
oracle

>  <origin>  (26) 
autodockgpu

>  <m_score__min__energy>  (26) 
-7.3200000000000003

>  <m_primary>  (26) 
energy

>  <rmsd>  (26) 
3.199395177467404

>  <m_score__min__rmsd>  (26) 
3.199395177467404

>  <meeko>  (26) 
{"free_energy": -7.32, "intermolecular_energy": -8.52, "internal_energy": -0.98, "cluster_size": 13, "cluster_id": 1, "rank_in_cluster": 1}

>  <energy>  (26) 
-7.15

>  <cluster_rmsd>  (26) 
0.06

>  <cluster>  (26) 
3

$$$$

     RDKit          3D

 41 43  0  0  0  0  0  0  0  0999 V2000
  141.6160   72.1110  220.8790 O   0  0  0  0  0  0  0  0  0  0  0  0
  140.9720   72.9240  221.5900 C   0  0  0  0  0  0  0  0  0  0  0  0
  140.0740   72.5290  222.6150 N   0  0  0  0  0  0  0  0  0  0  0  0
  139.8390   71.1520  222.9130 C   0  0  0  0  0  0  0  0  0  0  0  0
  139.2590   71.0640  224.2780 C   0  0  0  0  0  0  0  0  0  0  0  0
  138.0180   71.3000  224.4140 O   0  0  0  0  0  0  0  0  0  0  0  0
  140.0560   70.7290  225.3910 N   0  0  0  0  0  0  0  0  0  0  0  0
  140.8710   71.7140  226.0640 C   0  0  0  0  0  0  0  0  0  0  0  0
  140.8750   71.6090  227.5520 C   0  0  0  0  0  0  0  0  0  0  0  0
  141.0510   70.1610  227.9560 C   0  0  0  0  0  0  0  0  0  0  0  0
  139.8350   69.4300  227.3780 C   0  0  2  0  0  0  0  0  0  0  0  0
  139.7260   68.1710  227.9260 F   0  0  0  0  0  0  0  0  0  0  0  0
  140.0660   69.3640  225.8820 C   0  0  0  0  0  0  0  0  0  0  0  0
  141.1460   74.3720  221.3600 C   0  0  0  0  0  0  0  0  0  0  0  0
  141.9690   74.8470  220.3600 C   0  0  0  0  0  0  0  0  0  0  0  0
  142.1630   76.1860  220.1060 C   0  0  0  0  0  0  0  0  0  0  0  0
  141.4830   77.0840  220.9160 C   0  0  0  0  0  0  0  0  0  0  0  0
  141.6480   78.4460  220.6970 C   0  0  0  0  0  0  0  0  0  0  0  0
  140.9610   79.3350  221.5160 C   0  0  0  0  0  0  0  0  0  0  0  0
  141.1690   81.0520  221.2400 Cl  0  0  0  0  0  0  0  0  0  0  0  0
  140.1340   78.9130  222.5190 C   0  0  0  0  0  0  0  0  0  0  0  0
  139.9820   77.5410  222.7220 C   0  0  0  0  0  0  0  0  0  0  0  0
  140.6570   76.6190  221.9190 C   0  0  0  0  0  0  0  0  0  0  0  0
  140.5120   75.2920  222.1110 N   0  0  0  0  0  0  0  0  0  0  0  0
  139.5700   73.2780  223.1690 H   0  0  0  0  0  0  0  0  0  0  0  0
  139.1355   70.7277  222.1816 H   0  0  0  0  0  0  0  0  0  0  0  0
  140.7814   70.5868  222.8638 H   0  0  0  0  0  0  0  0  0  0  0  0
  141.9064   71.6017  225.7099 H   0  0  0  0  0  0  0  0  0  0  0  0
  140.4349   72.6947  225.8231 H   0  0  0  0  0  0  0  0  0  0  0  0
  141.7039   72.2065  227.9594 H   0  0  0  0  0  0  0  0  0  0  0  0
  139.9209   71.9865  227.9484 H   0  0  0  0  0  0  0  0  0  0  0  0
  141.9818   69.7537  227.5344 H   0  0  0  0  0  0  0  0  0  0  0  0
  141.1188   70.0449  229.0477 H   0  0  0  0  0  0  0  0  0  0  0  0
  138.8942   69.9513  227.6083 H   0  0  0  0  0  0  0  0  0  0  0  0
  141.0374   68.8933  225.6701 H   0  0  0  0  0  0  0  0  0  0  0  0
  139.2860   68.7641  225.3903 H   0  0  0  0  0  0  0  0  0  0  0  0
  142.4990   74.1162  219.7315 H   0  0  0  0  0  0  0  0  0  0  0  0
  142.8265   76.5282  219.2981 H   0  0  0  0  0  0  0  0  0  0  0  0
  142.3061   78.8121  219.8952 H   0  0  0  0  0  0  0  0  0  0  0  0
  139.6007   79.6381  223.1514 H   0  0  0  0  0  0  0  0  0  0  0  0
  139.3220   77.1808  223.5249 H   0  0  0  0  0  0  0  0  0  0  0  0
  1  2  2  0
  2  3  1  0
  3  4  1  0
  4  5  1  0
  5  6  2  0
  5  7  1  0
  7  8  1  0
  8  9  1  0
  9 10  1  0
 10 11  1  0
 11 12  1  0
 11 13  1  0
  2 14  1  0
 14 15  2  0
 15 16  1  0
 16 17  2  0
 17 18  1  0
 18 19  2  0
 19 20  1  0
 19 21  1  0
 21 22  2  0
 22 23  1  0
 23 24  2  0
 13  7  1  0
 24 14  1  0
 23 17  1  0
  3 25  1  0
  4 26  1  0
  4 27  1  0
  8 28  1  0
  8 29  1  0
  9 30  1  0
  9 31  1  0
 10 32  1  0
 10 33  1  0
 11 34  1  6
 13 35  1  0
 13 36  1  0
 15 37  1  0
 16 38  1  0
 18 39  1  0
 21 40  1  0
 22 41  1  0
M  END
>  <smiles>  (27) 
O=C(NCC(=O)N1CCCC(F)C1)c1ccc2cc(Cl)ccc2n1

>  <score_type>  (27) 
oracle

>  <origin>  (27) 
autodockgpu

>  <m_score__min__energy>  (27) 
-7.3200000000000003

>  <m_primary>  (27) 
energy

>  <rmsd>  (27) 
8.483503566330214

>  <m_score__min__rmsd>  (27) 
8.483503566330214

>  <meeko>  (27) 
{"free_energy": -7.15, "intermolecular_energy": -8.34, "internal_energy": -1.18, "cluster_size": 31, "cluster_id": 3, "rank_in_cluster": 6}

>  <energy>  (27) 
-7.14

>  <cluster_rmsd>  (27) 
0.55

>  <cluster>  (27) 
3

$$$$

     RDKit          3D

 41 43  0  0  0  0  0  0  0  0999 V2000
  141.6610   72.1330  220.8700 O   0  0  0  0  0  0  0  0  0  0  0  0
  141.0040   72.9450  221.5690 C   0  0  0  0  0  0  0  0  0  0  0  0
  140.0840   72.5490  222.5730 N   0  0  0  0  0  0  0  0  0  0  0  0
  139.8400   71.1720  222.8640 C   0  0  0  0  0  0  0  0  0  0  0  0
  139.2450   71.0800  224.2220 C   0  0  0  0  0  0  0  0  0  0  0  0
  138.0340   71.4350  224.3660 O   0  0  0  0  0  0  0  0  0  0  0  0
  139.9960   70.6160  225.3200 N   0  0  0  0  0  0  0  0  0  0  0  0
  140.7770   71.5140  226.1390 C   0  0  0  0  0  0  0  0  0  0  0  0
  140.7190   71.2320  227.6030 C   0  0  0  0  0  0  0  0  0  0  0  0
  140.8860   69.7470  227.8390 C   0  0  0  0  0  0  0  0  0  0  0  0
  139.6990   69.0900  227.1270 C   0  0  2  0  0  0  0  0  0  0  0  0
  139.5740   67.7740  227.5170 F   0  0  0  0  0  0  0  0  0  0  0  0
  139.9930   69.2020  225.6460 C   0  0  0  0  0  0  0  0  0  0  0  0
  141.1840   74.3930  221.3450 C   0  0  0  0  0  0  0  0  0  0  0  0
  142.0090   74.8690  220.3480 C   0  0  0  0  0  0  0  0  0  0  0  0
  142.2100   76.2080  220.1000 C   0  0  0  0  0  0  0  0  0  0  0  0
  141.5340   77.1050  220.9140 C   0  0  0  0  0  0  0  0  0  0  0  0
  141.7060   78.4680  220.7010 C   0  0  0  0  0  0  0  0  0  0  0  0
  141.0220   79.3560  221.5240 C   0  0  0  0  0  0  0  0  0  0  0  0
  141.2380   81.0740  221.2560 Cl  0  0  0  0  0  0  0  0  0  0  0  0
  140.1930   78.9330  222.5240 C   0  0  0  0  0  0  0  0  0  0  0  0
  140.0350   77.5610  222.7210 C   0  0  0  0  0  0  0  0  0  0  0  0
  140.7060   76.6390  221.9150 C   0  0  0  0  0  0  0  0  0  0  0  0
  140.5550   75.3120  222.1010 N   0  0  0  0  0  0  0  0  0  0  0  0
  139.5690   73.2980  223.1180 H   0  0  0  0  0  0  0  0  0  0  0  0
  139.1427   70.7533  222.1234 H   0  0  0  0  0  0  0  0  0  0  0  0
  140.7810   70.6038  222.8235 H   0  0  0  0  0  0  0  0  0  0  0  0
  141.8269   71.4449  225.8181 H   0  0  0  0  0  0  0  0  0  0  0  0
  140.3466   72.5165  225.9984 H   0  0  0  0  0  0  0  0  0  0  0  0
  141.5266   71.7772  228.1134 H   0  0  0  0  0  0  0  0  0  0  0  0
  139.7468   71.5588  228.0005 H   0  0  0  0  0  0  0  0  0  0  0  0
  141.8358   69.3931  227.4117 H   0  0  0  0  0  0  0  0  0  0  0  0
  140.9090   69.5015  228.9110 H   0  0  0  0  0  0  0  0  0  0  0  0
  138.7466   69.5803  227.3770 H   0  0  0  0  0  0  0  0  0  0  0  0
  140.9751   68.7604  225.4213 H   0  0  0  0  0  0  0  0  0  0  0  0
  139.2378   68.6642  225.0540 H   0  0  0  0  0  0  0  0  0  0  0  0
  142.5355   74.1386  219.7161 H   0  0  0  0  0  0  0  0  0  0  0  0
  142.8756   76.5507  219.2940 H   0  0  0  0  0  0  0  0  0  0  0  0
  142.3665   78.8348  219.9015 H   0  0  0  0  0  0  0  0  0  0  0  0
  139.6623   79.6575  223.1592 H   0  0  0  0  0  0  0  0  0  0  0  0
  139.3729   77.2006  223.5221 H   0  0  0  0  0  0  0  0  0  0  0  0
  1  2  2  0
  2  3  1  0
  3  4  1  0
  4  5  1  0
  5  6  2  0
  5  7  1  0
  7  8  1  0
  8  9  1  0
  9 10  1  0
 10 11  1  0
 11 12  1  0
 11 13  1  0
  2 14  1  0
 14 15  2  0
 15 16  1  0
 16 17  2  0
 17 18  1  0
 18 19  2  0
 19 20  1  0
 19 21  1  0
 21 22  2  0
 22 23  1  0
 23 24  2  0
 13  7  1  0
 24 14  1  0
 23 17  1  0
  3 25  1  0
  4 26  1  0
  4 27  1  0
  8 28  1  0
  8 29  1  0
  9 30  1  0
  9 31  1  0
 10 32  1  0
 10 33  1  0
 11 34  1  6
 13 35  1  0
 13 36  1  0
 15 37  1  0
 16 38  1  0
 18 39  1  0
 21 40  1  0
 22 41  1  0
M  END
>  <smiles>  (28) 
O=C(NCC(=O)N1CCCC(F)C1)c1ccc2cc(Cl)ccc2n1

>  <score_type>  (28) 
oracle

>  <origin>  (28) 
autodockgpu

>  <m_score__min__energy>  (28) 
-7.3200000000000003

>  <m_primary>  (28) 
energy

>  <rmsd>  (28) 
8.521910912034631

>  <m_score__min__rmsd>  (28) 
8.521910912034631

>  <meeko>  (28) 
{"free_energy": -7.14, "intermolecular_energy": -8.33, "internal_energy": -1.2, "cluster_size": 31, "cluster_id": 3, "rank_in_cluster": 10}

>  <energy>  (28) 
-7.14

>  <cluster_rmsd>  (28) 
0.19

>  <cluster>  (28) 
3

$$$$

     RDKit          3D

 41 43  0  0  0  0  0  0  0  0999 V2000
  140.3720   72.5750  220.8400 O   0  0  0  0  0  0  0  0  0  0  0  0
  140.0430   72.9360  221.9970 C   0  0  0  0  0  0  0  0  0  0  0  0
  139.6540   74.2600  222.3250 N   0  0  0  0  0  0  0  0  0  0  0  0
  139.6080   75.2920  221.3380 C   0  0  0  0  0  0  0  0  0  0  0  0
  139.5490   76.6020  222.0360 C   0  0  0  0  0  0  0  0  0  0  0  0
  138.5240   76.8550  222.7420 O   0  0  0  0  0  0  0  0  0  0  0  0
  140.5950   77.5390  221.9210 N   0  0  0  0  0  0  0  0  0  0  0  0
  140.9990   78.0730  220.6400 C   0  0  0  0  0  0  0  0  0  0  0  0
  141.3120   79.5320  220.6440 C   0  0  0  0  0  0  0  0  0  0  0  0
  142.1760   79.8600  221.8420 C   0  0  0  0  0  0  0  0  0  0  0  0
  141.3250   79.5000  223.0640 C   0  0  2  0  0  0  0  0  0  0  0  0
  141.8810   80.0280  224.2090 F   0  0  0  0  0  0  0  0  0  0  0  0
  141.2920   77.9870  223.1120 C   0  0  0  0  0  0  0  0  0  0  0  0
  140.0580   71.9430  223.0900 C   0  0  0  0  0  0  0  0  0  0  0  0
  139.5860   70.6610  222.9020 C   0  0  0  0  0  0  0  0  0  0  0  0
  139.5780   69.7000  223.8880 C   0  0  0  0  0  0  0  0  0  0  0  0
  140.0780   70.0690  225.1280 C   0  0  0  0  0  0  0  0  0  0  0  0
  140.0910   69.1320  226.1540 C   0  0  0  0  0  0  0  0  0  0  0  0
  140.5940   69.5160  227.3930 C   0  0  0  0  0  0  0  0  0  0  0  0
  140.6100   68.3350  228.6860 Cl  0  0  0  0  0  0  0  0  0  0  0  0
  141.0740   70.7740  227.6270 C   0  0  0  0  0  0  0  0  0  0  0  0
  141.0520   71.6990  226.5840 C   0  0  0  0  0  0  0  0  0  0  0  0
  140.5530   71.3500  225.3270 C   0  0  0  0  0  0  0  0  0  0  0  0
  140.5310   72.2410  224.3150 N   0  0  0  0  0  0  0  0  0  0  0  0
  139.3910   74.4830  223.3270 H   0  0  0  0  0  0  0  0  0  0  0  0
  140.5093   75.2458  220.7091 H   0  0  0  0  0  0  0  0  0  0  0  0
  138.7237   75.1640  220.6965 H   0  0  0  0  0  0  0  0  0  0  0  0
  141.8975   77.5306  220.3105 H   0  0  0  0  0  0  0  0  0  0  0  0
  140.1417   77.9408  219.9636 H   0  0  0  0  0  0  0  0  0  0  0  0
  141.8503   79.7939  219.7212 H   0  0  0  0  0  0  0  0  0  0  0  0
  140.3760   80.1073  220.6988 H   0  0  0  0  0  0  0  0  0  0  0  0
  143.0997   79.2628  221.8261 H   0  0  0  0  0  0  0  0  0  0  0  0
  142.4808   80.9169  221.8511 H   0  0  0  0  0  0  0  0  0  0  0  0
  140.3081   79.9135  222.9935 H   0  0  0  0  0  0  0  0  0  0  0  0
  142.3167   77.5871  223.1227 H   0  0  0  0  0  0  0  0  0  0  0  0
  140.7821   77.6345  224.0207 H   0  0  0  0  0  0  0  0  0  0  0  0
  139.1945   70.3914  221.9100 H   0  0  0  0  0  0  0  0  0  0  0  0
  139.1930   68.6867  223.7010 H   0  0  0  0  0  0  0  0  0  0  0  0
  139.7130   68.1120  225.9907 H   0  0  0  0  0  0  0  0  0  0  0  0
  141.4688   71.0505  228.6158 H   0  0  0  0  0  0  0  0  0  0  0  0
  141.4327   72.7171  226.7533 H   0  0  0  0  0  0  0  0  0  0  0  0
  1  2  2  0
  2  3  1  0
  3  4  1  0
  4  5  1  0
  5  6  2  0
  5  7  1  0
  7  8  1  0
  8  9  1  0
  9 10  1  0
 10 11  1  0
 11 12  1  0
 11 13  1  0
  2 14  1  0
 14 15  2  0
 15 16  1  0
 16 17  2  0
 17 18  1  0
 18 19  2  0
 19 20  1  0
 19 21  1  0
 21 22  2  0
 22 23  1  0
 23 24  2  0
 13  7  1  0
 24 14  1  0
 23 17  1  0
  3 25  1  0
  4 26  1  0
  4 27  1  0
  8 28  1  0
  8 29  1  0
  9 30  1  0
  9 31  1  0
 10 32  1  0
 10 33  1  0
 11 34  1  6
 13 35  1  0
 13 36  1  0
 15 37  1  0
 16 38  1  0
 18 39  1  0
 21 40  1  0
 22 41  1  0
M  END
>  <smiles>  (29) 
O=C(NCC(=O)N1CCCC(F)C1)c1ccc2cc(Cl)ccc2n1

>  <score_type>  (29) 
oracle

>  <origin>  (29) 
autodockgpu

>  <m_score__min__energy>  (29) 
-7.3200000000000003

>  <m_primary>  (29) 
energy

>  <rmsd>  (29) 
3.2312958969962287

>  <m_score__min__rmsd>  (29) 
3.2312958969962287

>  <meeko>  (29) 
{"free_energy": -7.29, "intermolecular_energy": -8.48, "internal_energy": -1.06, "cluster_size": 13, "cluster_id": 1, "rank_in_cluster": 3}

>  <energy>  (29) 
-7.14

>  <cluster_rmsd>  (29) 
0.21

>  <cluster>  (29) 
3

$$$$

     RDKit          3D

 41 43  0  0  0  0  0  0  0  0999 V2000
  140.0820   72.5440  220.7350 O   0  0  0  0  0  0  0  0  0  0  0  0
  139.9080   72.9320  221.9180 C   0  0  0  0  0  0  0  0  0  0  0  0
  139.6520   74.2810  222.2710 N   0  0  0  0  0  0  0  0  0  0  0  0
  139.5720   75.3110  221.2840 C   0  0  0  0  0  0  0  0  0  0  0  0
  139.5220   76.6210  221.9810 C   0  0  0  0  0  0  0  0  0  0  0  0
  138.4910   76.8890  222.6720 O   0  0  0  0  0  0  0  0  0  0  0  0
  140.5840   77.5430  221.8820 N   0  0  0  0  0  0  0  0  0  0  0  0
  141.0080   78.0790  220.6090 C   0  0  0  0  0  0  0  0  0  0  0  0
  141.3430   79.5320  220.6250 C   0  0  0  0  0  0  0  0  0  0  0  0
  142.2010   79.8400  221.8320 C   0  0  0  0  0  0  0  0  0  0  0  0
  141.3330   79.4850  223.0440 C   0  0  2  0  0  0  0  0  0  0  0  0
  141.8860   79.9980  224.1970 F   0  0  0  0  0  0  0  0  0  0  0  0
  141.2770   77.9720  223.0820 C   0  0  0  0  0  0  0  0  0  0  0  0
  139.9720   71.9430  223.0130 C   0  0  0  0  0  0  0  0  0  0  0  0
  139.5580   70.6400  222.8300 C   0  0  0  0  0  0  0  0  0  0  0  0
  139.5970   69.6830  223.8180 C   0  0  0  0  0  0  0  0  0  0  0  0
  140.0830   70.0780  225.0560 C   0  0  0  0  0  0  0  0  0  0  0  0
  140.1410   69.1450  226.0850 C   0  0  0  0  0  0  0  0  0  0  0  0
  140.6300   69.5540  227.3200 C   0  0  0  0  0  0  0  0  0  0  0  0
  140.7040   68.3790  228.6170 Cl  0  0  0  0  0  0  0  0  0  0  0  0
  141.0520   70.8330  227.5500 C   0  0  0  0  0  0  0  0  0  0  0  0
  140.9850   71.7540  226.5050 C   0  0  0  0  0  0  0  0  0  0  0  0
  140.4990   71.3790  225.2500 C   0  0  0  0  0  0  0  0  0  0  0  0
  140.4340   72.2650  224.2360 N   0  0  0  0  0  0  0  0  0  0  0  0
  139.5170   74.5250  223.2940 H   0  0  0  0  0  0  0  0  0  0  0  0
  140.4565   75.2704  220.6313 H   0  0  0  0  0  0  0  0  0  0  0  0
  138.6718   75.1754  220.6665 H   0  0  0  0  0  0  0  0  0  0  0  0
  141.9011   77.5250  220.2844 H   0  0  0  0  0  0  0  0  0  0  0  0
  140.1549   77.9644  219.9241 H   0  0  0  0  0  0  0  0  0  0  0  0
  141.8933   79.7912  219.7085 H   0  0  0  0  0  0  0  0  0  0  0  0
  140.4153   80.1209  220.6755 H   0  0  0  0  0  0  0  0  0  0  0  0
  143.1159   79.2293  221.8208 H   0  0  0  0  0  0  0  0  0  0  0  0
  142.5218   80.8920  221.8504 H   0  0  0  0  0  0  0  0  0  0  0  0
  140.3229   79.9137  222.9669 H   0  0  0  0  0  0  0  0  0  0  0  0
  142.2954   77.5566  223.0991 H   0  0  0  0  0  0  0  0  0  0  0  0
  140.7542   77.6210  223.9839 H   0  0  0  0  0  0  0  0  0  0  0  0
  139.1758   70.3501  221.8401 H   0  0  0  0  0  0  0  0  0  0  0  0
  139.2585   68.6525  223.6347 H   0  0  0  0  0  0  0  0  0  0  0  0
  139.8081   68.1087  225.9257 H   0  0  0  0  0  0  0  0  0  0  0  0
  141.4360   71.1296  228.5372 H   0  0  0  0  0  0  0  0  0  0  0  0
  141.3190   72.7888  226.6710 H   0  0  0  0  0  0  0  0  0  0  0  0
  1  2  2  0
  2  3  1  0
  3  4  1  0
  4  5  1  0
  5  6  2  0
  5  7  1  0
  7  8  1  0
  8  9  1  0
  9 10  1  0
 10 11  1  0
 11 12  1  0
 11 13  1  0
  2 14  1  0
 14 15  2  0
 15 16  1  0
 16 17  2  0
 17 18  1  0
 18 19  2  0
 19 20  1  0
 19 21  1  0
 21 22  2  0
 22 23  1  0
 23 24  2  0
 13  7  1  0
 24 14  1  0
 23 17  1  0
  3 25  1  0
  4 26  1  0
  4 27  1  0
  8 28  1  0
  8 29  1  0
  9 30  1  0
  9 31  1  0
 10 32  1  0
 10 33  1  0
 11 34  1  6
 13 35  1  0
 13 36  1  0
 15 37  1  0
 16 38  1  0
 18 39  1  0
 21 40  1  0
 22 41  1  0
M  END
>  <smiles>  (30) 
O=C(NCC(=O)N1CCCC(F)C1)c1ccc2cc(Cl)ccc2n1

>  <score_type>  (30) 
oracle

>  <origin>  (30) 
autodockgpu

>  <m_score__min__energy>  (30) 
-7.3200000000000003

>  <m_primary>  (30) 
energy

>  <rmsd>  (30) 
3.2165023521642815

>  <m_score__min__rmsd>  (30) 
3.2165023521642815

>  <meeko>  (30) 
{"free_energy": -7.26, "intermolecular_energy": -8.45, "internal_energy": -1.07, "cluster_size": 13, "cluster_id": 1, "rank_in_cluster": 8}

>  <energy>  (30) 
-7.14

>  <cluster_rmsd>  (30) 
0.21

>  <cluster>  (30) 
3

$$$$

     RDKit          3D

 41 43  0  0  0  0  0  0  0  0999 V2000
  141.7040   72.1010  220.9210 O   0  0  0  0  0  0  0  0  0  0  0  0
  141.0360   72.9260  221.5930 C   0  0  0  0  0  0  0  0  0  0  0  0
  140.0960   72.5490  222.5870 N   0  0  0  0  0  0  0  0  0  0  0  0
  139.8430   71.1780  222.8960 C   0  0  0  0  0  0  0  0  0  0  0  0
  139.2710   71.1060  224.2650 C   0  0  0  0  0  0  0  0  0  0  0  0
  138.0380   71.3760  224.4090 O   0  0  0  0  0  0  0  0  0  0  0  0
  140.0660   70.7510  225.3720 N   0  0  0  0  0  0  0  0  0  0  0  0
  140.8820   71.7240  226.0640 C   0  0  0  0  0  0  0  0  0  0  0  0
  140.8830   71.5910  227.5500 C   0  0  0  0  0  0  0  0  0  0  0  0
  141.0590   70.1370  227.9280 C   0  0  0  0  0  0  0  0  0  0  0  0
  139.8430   69.4170  227.3350 C   0  0  2  0  0  0  0  0  0  0  0  0
  139.7330   68.1480  227.8610 F   0  0  0  0  0  0  0  0  0  0  0  0
  140.0760   69.3780  225.8390 C   0  0  0  0  0  0  0  0  0  0  0  0
  141.2240   74.3710  221.3490 C   0  0  0  0  0  0  0  0  0  0  0  0
  142.0310   74.8270  220.3290 C   0  0  0  0  0  0  0  0  0  0  0  0
  142.2380   76.1620  220.0610 C   0  0  0  0  0  0  0  0  0  0  0  0
  141.5880   77.0740  220.8780 C   0  0  0  0  0  0  0  0  0  0  0  0
  141.7670   78.4330  220.6460 C   0  0  0  0  0  0  0  0  0  0  0  0
  141.1090   79.3360  221.4730 C   0  0  0  0  0  0  0  0  0  0  0  0
  141.3350   81.0490  221.1810 Cl  0  0  0  0  0  0  0  0  0  0  0  0
  140.2990   78.9330  222.4970 C   0  0  0  0  0  0  0  0  0  0  0  0
  140.1330   77.5650  222.7130 C   0  0  0  0  0  0  0  0  0  0  0  0
  140.7780   76.6270  221.9030 C   0  0  0  0  0  0  0  0  0  0  0  0
  140.6190   75.3040  222.1070 N   0  0  0  0  0  0  0  0  0  0  0  0
  139.5730   73.3080  223.1090 H   0  0  0  0  0  0  0  0  0  0  0  0
  139.1286   70.7593  222.1719 H   0  0  0  0  0  0  0  0  0  0  0  0
  140.7772   70.5995  222.8448 H   0  0  0  0  0  0  0  0  0  0  0  0
  141.9178   71.6171  225.7095 H   0  0  0  0  0  0  0  0  0  0  0  0
  140.4482   72.7097  225.8400 H   0  0  0  0  0  0  0  0  0  0  0  0
  141.7106   72.1815  227.9701 H   0  0  0  0  0  0  0  0  0  0  0  0
  139.9275   71.9601  227.9510 H   0  0  0  0  0  0  0  0  0  0  0  0
  141.9903   69.7373  227.5002 H   0  0  0  0  0  0  0  0  0  0  0  0
  141.1261   70.0009  229.0175 H   0  0  0  0  0  0  0  0  0  0  0  0
  138.9018   69.9343  227.5728 H   0  0  0  0  0  0  0  0  0  0  0  0
  141.0479   68.9117  225.6202 H   0  0  0  0  0  0  0  0  0  0  0  0
  139.2968   68.7867  225.3358 H   0  0  0  0  0  0  0  0  0  0  0  0
  142.5372   74.0845  219.6946 H   0  0  0  0  0  0  0  0  0  0  0  0
  142.8889   76.4894  219.2369 H   0  0  0  0  0  0  0  0  0  0  0  0
  142.4132   78.7850  219.8284 H   0  0  0  0  0  0  0  0  0  0  0  0
  139.7900   79.6698  223.1358 H   0  0  0  0  0  0  0  0  0  0  0  0
  139.4853   77.2199  223.5324 H   0  0  0  0  0  0  0  0  0  0  0  0
  1  2  2  0
  2  3  1  0
  3  4  1  0
  4  5  1  0
  5  6  2  0
  5  7  1  0
  7  8  1  0
  8  9  1  0
  9 10  1  0
 10 11  1  0
 11 12  1  0
 11 13  1  0
  2 14  1  0
 14 15  2  0
 15 16  1  0
 16 17  2  0
 17 18  1  0
 18 19  2  0
 19 20  1  0
 19 21  1  0
 21 22  2  0
 22 23  1  0
 23 24  2  0
 13  7  1  0
 24 14  1  0
 23 17  1  0
  3 25  1  0
  4 26  1  0
  4 27  1  0
  8 28  1  0
  8 29  1  0
  9 30  1  0
  9 31  1  0
 10 32  1  0
 10 33  1  0
 11 34  1  6
 13 35  1  0
 13 36  1  0
 15 37  1  0
 16 38  1  0
 18 39  1  0
 21 40  1  0
 22 41  1  0
M  END
>  <smiles>  (31) 
O=C(NCC(=O)N1CCCC(F)C1)c1ccc2cc(Cl)ccc2n1

>  <score_type>  (31) 
oracle

>  <origin>  (31) 
autodockgpu

>  <m_score__min__energy>  (31) 
-7.3200000000000003

>  <m_primary>  (31) 
energy

>  <rmsd>  (31) 
8.48515886944449

>  <m_score__min__rmsd>  (31) 
8.48515886944449

>  <meeko>  (31) 
{"free_energy": -7.15, "intermolecular_energy": -8.34, "internal_energy": -1.18, "cluster_size": 31, "cluster_id": 3, "rank_in_cluster": 5}

>  <energy>  (31) 
-7.14

>  <cluster_rmsd>  (31) 
0.2

>  <cluster>  (31) 
3

$$$$

     RDKit          3D

 41 43  0  0  0  0  0  0  0  0999 V2000
  135.4320   68.5480  224.5960 O   0  0  0  0  0  0  0  0  0  0  0  0
  135.8610   69.7170  224.7590 C   0  0  0  0  0  0  0  0  0  0  0  0
  137.1600   70.1370  224.3740 N   0  0  0  0  0  0  0  0  0  0  0  0
  138.0860   69.2370  223.7610 C   0  0  0  0  0  0  0  0  0  0  0  0
  138.9260   68.6340  224.8270 C   0  0  0  0  0  0  0  0  0  0  0  0
  139.2170   67.4020  224.7300 O   0  0  0  0  0  0  0  0  0  0  0  0
  139.3880   69.4020  225.9150 N   0  0  0  0  0  0  0  0  0  0  0  0
  139.4790   68.8500  227.2480 C   0  0  0  0  0  0  0  0  0  0  0  0
  140.7020   69.2490  228.0050 C   0  0  0  0  0  0  0  0  0  0  0  0
  140.9310   70.7360  227.8470 C   0  0  0  0  0  0  0  0  0  0  0  0
  141.1460   70.9530  226.3450 C   0  0  2  0  0  0  0  0  0  0  0  0
  141.6570   72.2110  226.1100 F   0  0  0  0  0  0  0  0  0  0  0  0
  139.7840   70.7810  225.7050 C   0  0  0  0  0  0  0  0  0  0  0  0
  134.9810   70.7240  225.3860 C   0  0  0  0  0  0  0  0  0  0  0  0
  133.9800   70.3570  226.2610 C   0  0  0  0  0  0  0  0  0  0  0  0
  133.1340   71.2570  226.8710 C   0  0  0  0  0  0  0  0  0  0  0  0
  133.3210   72.5970  226.5680 C   0  0  0  0  0  0  0  0  0  0  0  0
  132.4900   73.5420  227.1600 C   0  0  0  0  0  0  0  0  0  0  0  0
  132.6880   74.8830  226.8480 C   0  0  0  0  0  0  0  0  0  0  0  0
  131.6410   76.0730  227.5930 Cl  0  0  0  0  0  0  0  0  0  0  0  0
  133.6660   75.2950  225.9870 C   0  0  0  0  0  0  0  0  0  0  0  0
  134.4880   74.3310  225.4040 C   0  0  0  0  0  0  0  0  0  0  0  0
  134.3190   72.9750  225.6930 C   0  0  0  0  0  0  0  0  0  0  0  0
  135.1120   72.0390  225.1330 N   0  0  0  0  0  0  0  0  0  0  0  0
  137.4450   71.1430  224.5470 H   0  0  0  0  0  0  0  0  0  0  0  0
  137.5383   68.4463  223.2273 H   0  0  0  0  0  0  0  0  0  0  0  0
  138.7181   69.7765  223.0403 H   0  0  0  0  0  0  0  0  0  0  0  0
  138.5991   69.1832  227.8179 H   0  0  0  0  0  0  0  0  0  0  0  0
  139.5289   67.7575  227.1296 H   0  0  0  0  0  0  0  0  0  0  0  0
  140.5679   69.0099  229.0703 H   0  0  0  0  0  0  0  0  0  0  0  0
  141.5710   68.7007  227.6124 H   0  0  0  0  0  0  0  0  0  0  0  0
  140.0540   71.3005  228.1965 H   0  0  0  0  0  0  0  0  0  0  0  0
  141.7897   71.0846  228.4395 H   0  0  0  0  0  0  0  0  0  0  0  0
  141.8709   70.2399  225.9256 H   0  0  0  0  0  0  0  0  0  0  0  0
  139.0569   71.4588  226.1762 H   0  0  0  0  0  0  0  0  0  0  0  0
  139.8216   71.0195  224.6318 H   0  0  0  0  0  0  0  0  0  0  0  0
  133.8501   69.2877  226.4839 H   0  0  0  0  0  0  0  0  0  0  0  0
  132.3472   70.9280  227.5658 H   0  0  0  0  0  0  0  0  0  0  0  0
  131.6961   73.2367  227.8575 H   0  0  0  0  0  0  0  0  0  0  0  0
  133.8017   76.3625  225.7590 H   0  0  0  0  0  0  0  0  0  0  0  0
  135.2801   74.6427  224.7073 H   0  0  0  0  0  0  0  0  0  0  0  0
  1  2  2  0
  2  3  1  0
  3  4  1  0
  4  5  1  0
  5  6  2  0
  5  7  1  0
  7  8  1  0
  8  9  1  0
  9 10  1  0
 10 11  1  0
 11 12  1  0
 11 13  1  0
  2 14  1  0
 14 15  2  0
 15 16  1  0
 16 17  2  0
 17 18  1  0
 18 19  2  0
 19 20  1  0
 19 21  1  0
 21 22  2  0
 22 23  1  0
 23 24  2  0
 13  7  1  0
 24 14  1  0
 23 17  1  0
  3 25  1  0
  4 26  1  0
  4 27  1  0
  8 28  1  0
  8 29  1  0
  9 30  1  0
  9 31  1  0
 10 32  1  0
 10 33  1  0
 11 34  1  6
 13 35  1  0
 13 36  1  0
 15 37  1  0
 16 38  1  0
 18 39  1  0
 21 40  1  0
 22 41  1  0
M  END
>  <smiles>  (32) 
O=C(NCC(=O)N1CCCC(F)C1)c1ccc2cc(Cl)ccc2n1

>  <score_type>  (32) 
oracle

>  <origin>  (32) 
autodockgpu

>  <m_score__min__energy>  (32) 
-7.3200000000000003

>  <m_primary>  (32) 
energy

>  <rmsd>  (32) 
8.346003767043548

>  <m_score__min__rmsd>  (32) 
8.346003767043548

>  <meeko>  (32) 
{"free_energy": -7.13, "intermolecular_energy": -8.32, "internal_energy": -1.13, "cluster_size": 6, "cluster_id": 2, "rank_in_cluster": 4}

>  <energy>  (32) 
-7.14

>  <cluster_rmsd>  (32) 
0.56

>  <cluster>  (32) 
3

$$$$

     RDKit          3D

 41 43  0  0  0  0  0  0  0  0999 V2000
  141.6840   72.1150  220.8760 O   0  0  0  0  0  0  0  0  0  0  0  0
  141.0200   72.9300  221.5640 C   0  0  0  0  0  0  0  0  0  0  0  0
  140.0900   72.5390  222.5610 N   0  0  0  0  0  0  0  0  0  0  0  0
  139.8430   71.1630  222.8560 C   0  0  0  0  0  0  0  0  0  0  0  0
  139.2430   71.0780  224.2120 C   0  0  0  0  0  0  0  0  0  0  0  0
  138.0330   71.4350  224.3520 O   0  0  0  0  0  0  0  0  0  0  0  0
  139.9900   70.6150  225.3150 N   0  0  0  0  0  0  0  0  0  0  0  0
  140.7650   71.5160  226.1380 C   0  0  0  0  0  0  0  0  0  0  0  0
  140.6990   71.2340  227.6010 C   0  0  0  0  0  0  0  0  0  0  0  0
  140.8690   69.7500  227.8390 C   0  0  0  0  0  0  0  0  0  0  0  0
  139.6880   69.0890  227.1210 C   0  0  2  0  0  0  0  0  0  0  0  0
  139.5640   67.7730  227.5100 F   0  0  0  0  0  0  0  0  0  0  0  0
  139.9890   69.2020  225.6410 C   0  0  0  0  0  0  0  0  0  0  0  0
  141.2020   74.3780  221.3360 C   0  0  0  0  0  0  0  0  0  0  0  0
  142.0350   74.8480  220.3420 C   0  0  0  0  0  0  0  0  0  0  0  0
  142.2380   76.1870  220.0900 C   0  0  0  0  0  0  0  0  0  0  0  0
  141.5560   77.0870  220.8940 C   0  0  0  0  0  0  0  0  0  0  0  0
  141.7300   78.4490  220.6760 C   0  0  0  0  0  0  0  0  0  0  0  0
  141.0410   79.3410  221.4900 C   0  0  0  0  0  0  0  0  0  0  0  0
  141.2600   81.0570  221.2160 Cl  0  0  0  0  0  0  0  0  0  0  0  0
  140.2050   78.9230  222.4870 C   0  0  0  0  0  0  0  0  0  0  0  0
  140.0440   77.5520  222.6890 C   0  0  0  0  0  0  0  0  0  0  0  0
  140.7210   76.6270  221.8910 C   0  0  0  0  0  0  0  0  0  0  0  0
  140.5680   75.3000  222.0820 N   0  0  0  0  0  0  0  0  0  0  0  0
  139.5690   73.2910  223.0980 H   0  0  0  0  0  0  0  0  0  0  0  0
  139.1478   70.7424  222.1145 H   0  0  0  0  0  0  0  0  0  0  0  0
  140.7830   70.5928  222.8207 H   0  0  0  0  0  0  0  0  0  0  0  0
  141.8168   71.4492  225.8230 H   0  0  0  0  0  0  0  0  0  0  0  0
  140.3338   72.5177  225.9943 H   0  0  0  0  0  0  0  0  0  0  0  0
  141.5018   71.7819  228.1162 H   0  0  0  0  0  0  0  0  0  0  0  0
  139.7232   71.5576  227.9921 H   0  0  0  0  0  0  0  0  0  0  0  0
  141.8222   69.3986  227.4173 H   0  0  0  0  0  0  0  0  0  0  0  0
  140.8867   69.5054  228.9113 H   0  0  0  0  0  0  0  0  0  0  0  0
  138.7330   69.5765  227.3666 H   0  0  0  0  0  0  0  0  0  0  0  0
  140.9733   68.7629  225.4211 H   0  0  0  0  0  0  0  0  0  0  0  0
  139.2379   68.6624  225.0454 H   0  0  0  0  0  0  0  0  0  0  0  0
  142.5655   74.1144  219.7172 H   0  0  0  0  0  0  0  0  0  0  0  0
  142.9101   76.5263  219.2880 H   0  0  0  0  0  0  0  0  0  0  0  0
  142.3961   78.8118  219.8794 H   0  0  0  0  0  0  0  0  0  0  0  0
  139.6713   79.6508  223.1158 H   0  0  0  0  0  0  0  0  0  0  0  0
  139.3757   77.1952  223.4865 H   0  0  0  0  0  0  0  0  0  0  0  0
  1  2  2  0
  2  3  1  0
  3  4  1  0
  4  5  1  0
  5  6  2  0
  5  7  1  0
  7  8  1  0
  8  9  1  0
  9 10  1  0
 10 11  1  0
 11 12  1  0
 11 13  1  0
  2 14  1  0
 14 15  2  0
 15 16  1  0
 16 17  2  0
 17 18  1  0
 18 19  2  0
 19 20  1  0
 19 21  1  0
 21 22  2  0
 22 23  1  0
 23 24  2  0
 13  7  1  0
 24 14  1  0
 23 17  1  0
  3 25  1  0
  4 26  1  0
  4 27  1  0
  8 28  1  0
  8 29  1  0
  9 30  1  0
  9 31  1  0
 10 32  1  0
 10 33  1  0
 11 34  1  6
 13 35  1  0
 13 36  1  0
 15 37  1  0
 16 38  1  0
 18 39  1  0
 21 40  1  0
 22 41  1  0
M  END
>  <smiles>  (33) 
O=C(NCC(=O)N1CCCC(F)C1)c1ccc2cc(Cl)ccc2n1

>  <score_type>  (33) 
oracle

>  <origin>  (33) 
autodockgpu

>  <m_score__min__energy>  (33) 
-7.3200000000000003

>  <m_primary>  (33) 
energy

>  <rmsd>  (33) 
8.522056431693121

>  <m_score__min__rmsd>  (33) 
8.522056431693121

>  <meeko>  (33) 
{"free_energy": -7.14, "intermolecular_energy": -8.33, "internal_energy": -1.2, "cluster_size": 31, "cluster_id": 3, "rank_in_cluster": 15}

>  <energy>  (33) 
-7.14

>  <cluster_rmsd>  (33) 
0.2

>  <cluster>  (33) 
3

$$$$

     RDKit          3D

 41 43  0  0  0  0  0  0  0  0999 V2000
  141.4360   71.9370  221.2760 O   0  0  0  0  0  0  0  0  0  0  0  0
  140.8530   72.8560  221.9040 C   0  0  0  0  0  0  0  0  0  0  0  0
  139.9580   72.6250  222.9800 N   0  0  0  0  0  0  0  0  0  0  0  0
  139.6560   71.3030  223.4310 C   0  0  0  0  0  0  0  0  0  0  0  0
  140.2090   71.1410  224.8000 C   0  0  0  0  0  0  0  0  0  0  0  0
  141.0670   71.9870  225.2000 O   0  0  0  0  0  0  0  0  0  0  0  0
  139.7970   70.0820  225.6340 N   0  0  0  0  0  0  0  0  0  0  0  0
  139.1450   68.9070  225.1030 C   0  0  0  0  0  0  0  0  0  0  0  0
  139.5830   67.6200  225.7160 C   0  0  0  0  0  0  0  0  0  0  0  0
  139.6360   67.7690  227.2210 C   0  0  0  0  0  0  0  0  0  0  0  0
  140.6800   68.8600  227.4810 C   0  0  2  0  0  0  0  0  0  0  0  0
  141.0340   68.8780  228.8120 F   0  0  0  0  0  0  0  0  0  0  0  0
  140.0290   70.1620  227.0640 C   0  0  0  0  0  0  0  0  0  0  0  0
  141.0980   74.2590  221.5140 C   0  0  0  0  0  0  0  0  0  0  0  0
  141.9080   74.5760  220.4440 C   0  0  0  0  0  0  0  0  0  0  0  0
  142.1670   75.8670  220.0410 C   0  0  0  0  0  0  0  0  0  0  0  0
  141.5680   76.8840  220.7700 C   0  0  0  0  0  0  0  0  0  0  0  0
  141.8010   78.2030  220.4000 C   0  0  0  0  0  0  0  0  0  0  0  0
  141.1950   79.2130  221.1400 C   0  0  0  0  0  0  0  0  0  0  0  0
  141.4880   80.8760  220.6750 Cl  0  0  0  0  0  0  0  0  0  0  0  0
  140.3840   78.9490  222.2080 C   0  0  0  0  0  0  0  0  0  0  0  0
  140.1640   77.6180  222.5620 C   0  0  0  0  0  0  0  0  0  0  0  0
  140.7570   76.5770  221.8430 C   0  0  0  0  0  0  0  0  0  0  0  0
  140.5450   75.2890  222.1810 N   0  0  0  0  0  0  0  0  0  0  0  0
  139.5070   73.4560  223.4570 H   0  0  0  0  0  0  0  0  0  0  0  0
  138.5660   71.1562  223.4501 H   0  0  0  0  0  0  0  0  0  0  0  0
  140.0995   70.5598  222.7521 H   0  0  0  0  0  0  0  0  0  0  0  0
  138.0623   69.0130  225.2658 H   0  0  0  0  0  0  0  0  0  0  0  0
  139.4198   68.8535  224.0392 H   0  0  0  0  0  0  0  0  0  0  0  0
  138.8689   66.8263  225.4513 H   0  0  0  0  0  0  0  0  0  0  0  0
  140.5820   67.3560  225.3388 H   0  0  0  0  0  0  0  0  0  0  0  0
  138.6544   68.0733  227.6132 H   0  0  0  0  0  0  0  0  0  0  0  0
  139.8974   66.8234  227.7185 H   0  0  0  0  0  0  0  0  0  0  0  0
  141.6071   68.6854  226.9153 H   0  0  0  0  0  0  0  0  0  0  0  0
  139.0745   70.2940  227.5947 H   0  0  0  0  0  0  0  0  0  0  0  0
  140.6733   71.0191  227.3096 H   0  0  0  0  0  0  0  0  0  0  0  0
  142.3726   73.7526  219.8817 H   0  0  0  0  0  0  0  0  0  0  0  0
  142.8185   76.0819  219.1811 H   0  0  0  0  0  0  0  0  0  0  0  0
  142.4483   78.4424  219.5435 H   0  0  0  0  0  0  0  0  0  0  0  0
  139.9158   79.7671  222.7750 H   0  0  0  0  0  0  0  0  0  0  0  0
  139.5149   77.3846  223.4188 H   0  0  0  0  0  0  0  0  0  0  0  0
  1  2  2  0
  2  3  1  0
  3  4  1  0
  4  5  1  0
  5  6  2  0
  5  7  1  0
  7  8  1  0
  8  9  1  0
  9 10  1  0
 10 11  1  0
 11 12  1  0
 11 13  1  0
  2 14  1  0
 14 15  2  0
 15 16  1  0
 16 17  2  0
 17 18  1  0
 18 19  2  0
 19 20  1  0
 19 21  1  0
 21 22  2  0
 22 23  1  0
 23 24  2  0
 13  7  1  0
 24 14  1  0
 23 17  1  0
  3 25  1  0
  4 26  1  0
  4 27  1  0
  8 28  1  0
  8 29  1  0
  9 30  1  0
  9 31  1  0
 10 32  1  0
 10 33  1  0
 11 34  1  6
 13 35  1  0
 13 36  1  0
 15 37  1  0
 16 38  1  0
 18 39  1  0
 21 40  1  0
 22 41  1  0
M  END
>  <smiles>  (34) 
O=C(NCC(=O)N1CCCC(F)C1)c1ccc2cc(Cl)ccc2n1

>  <score_type>  (34) 
oracle

>  <origin>  (34) 
autodockgpu

>  <m_score__min__energy>  (34) 
-7.3200000000000003

>  <m_primary>  (34) 
energy

>  <rmsd>  (34) 
8.861311491762823

>  <m_score__min__rmsd>  (34) 
8.861311491762823

>  <meeko>  (34) 
{"free_energy": -6.96, "intermolecular_energy": -8.15, "internal_energy": -1.18, "cluster_size": 31, "cluster_id": 3, "rank_in_cluster": 27}

>  <energy>  (34) 
-7.14

>  <cluster_rmsd>  (34) 
0.21

>  <cluster>  (34) 
3

$$$$

     RDKit          3D

 41 43  0  0  0  0  0  0  0  0999 V2000
  140.8590   71.3000  221.2690 O   0  0  0  0  0  0  0  0  0  0  0  0
  140.1630   72.1630  221.8620 C   0  0  0  0  0  0  0  0  0  0  0  0
  139.0560   71.8430  222.6890 N   0  0  0  0  0  0  0  0  0  0  0  0
  138.6520   70.4910  222.9090 C   0  0  0  0  0  0  0  0  0  0  0  0
  138.3970   70.3110  224.3620 C   0  0  0  0  0  0  0  0  0  0  0  0
  137.1910   70.2280  224.7490 O   0  0  0  0  0  0  0  0  0  0  0  0
  139.4580   70.2360  225.2870 N   0  0  0  0  0  0  0  0  0  0  0  0
  140.3810   71.3330  225.4740 C   0  0  0  0  0  0  0  0  0  0  0  0
  140.7590   71.5930  226.8930 C   0  0  0  0  0  0  0  0  0  0  0  0
  141.0820   70.2840  227.5790 C   0  0  0  0  0  0  0  0  0  0  0  0
  139.7860   69.4680  227.5190 C   0  0  2  0  0  0  0  0  0  0  0  0
  139.8630   68.3830  228.3660 F   0  0  0  0  0  0  0  0  0  0  0  0
  139.6390   69.0330  226.0760 C   0  0  0  0  0  0  0  0  0  0  0  0
  140.4980   73.5920  221.6980 C   0  0  0  0  0  0  0  0  0  0  0  0
  141.6110   73.9910  220.9880 C   0  0  0  0  0  0  0  0  0  0  0  0
  141.9660   75.3090  220.8070 C   0  0  0  0  0  0  0  0  0  0  0  0
  141.1430   76.2650  221.3830 C   0  0  0  0  0  0  0  0  0  0  0  0
  141.4620   77.6090  221.2270 C   0  0  0  0  0  0  0  0  0  0  0  0
  140.6280   78.5570  221.8090 C   0  0  0  0  0  0  0  0  0  0  0  0
  141.0300   80.2510  221.6140 Cl  0  0  0  0  0  0  0  0  0  0  0  0
  139.5150   78.2110  222.5220 C   0  0  0  0  0  0  0  0  0  0  0  0
  139.2130   76.8570  222.6660 C   0  0  0  0  0  0  0  0  0  0  0  0
  140.0270   75.8760  222.0960 C   0  0  0  0  0  0  0  0  0  0  0  0
  139.7390   74.5660  222.2320 N   0  0  0  0  0  0  0  0  0  0  0  0
  138.5200   72.6310  223.1530 H   0  0  0  0  0  0  0  0  0  0  0  0
  137.7338   70.2801  222.3412 H   0  0  0  0  0  0  0  0  0  0  0  0
  139.4401   69.8006  222.5740 H   0  0  0  0  0  0  0  0  0  0  0  0
  141.2986   71.1089  224.9103 H   0  0  0  0  0  0  0  0  0  0  0  0
  139.8655   72.2374  225.1186 H   0  0  0  0  0  0  0  0  0  0  0  0
  141.6411   72.2495  226.9227 H   0  0  0  0  0  0  0  0  0  0  0  0
  139.9202   72.0805  227.4115 H   0  0  0  0  0  0  0  0  0  0  0  0
  141.8920   69.7608  227.0497 H   0  0  0  0  0  0  0  0  0  0  0  0
  141.4247   70.4356  228.6132 H   0  0  0  0  0  0  0  0  0  0  0  0
  138.9143   70.0553  227.8434 H   0  0  0  0  0  0  0  0  0  0  0  0
  140.5431   68.4989  225.7485 H   0  0  0  0  0  0  0  0  0  0  0  0
  138.7831   68.3525  225.9563 H   0  0  0  0  0  0  0  0  0  0  0  0
  142.2497   73.2143  220.5422 H   0  0  0  0  0  0  0  0  0  0  0  0
  142.8607   75.5905  220.2323 H   0  0  0  0  0  0  0  0  0  0  0  0
  142.3520   77.9148  220.6574 H   0  0  0  0  0  0  0  0  0  0  0  0
  138.8723   78.9821  222.9718 H   0  0  0  0  0  0  0  0  0  0  0  0
  138.3213   76.5578  223.2364 H   0  0  0  0  0  0  0  0  0  0  0  0
  1  2  2  0
  2  3  1  0
  3  4  1  0
  4  5  1  0
  5  6  2  0
  5  7  1  0
  7  8  1  0
  8  9  1  0
  9 10  1  0
 10 11  1  0
 11 12  1  0
 11 13  1  0
  2 14  1  0
 14 15  2  0
 15 16  1  0
 16 17  2  0
 17 18  1  0
 18 19  2  0
 19 20  1  0
 19 21  1  0
 21 22  2  0
 22 23  1  0
 23 24  2  0
 13  7  1  0
 24 14  1  0
 23 17  1  0
  3 25  1  0
  4 26  1  0
  4 27  1  0
  8 28  1  0
  8 29  1  0
  9 30  1  0
  9 31  1  0
 10 32  1  0
 10 33  1  0
 11 34  1  1
 13 35  1  0
 13 36  1  0
 15 37  1  0
 16 38  1  0
 18 39  1  0
 21 40  1  0
 22 41  1  0
M  END
>  <smiles>  (35) 
O=C(NCC(=O)N1CCCC(F)C1)c1ccc2cc(Cl)ccc2n1

>  <score_type>  (35) 
oracle

>  <origin>  (35) 
autodockgpu

>  <m_score__min__energy>  (35) 
-7.3200000000000003

>  <m_primary>  (35) 
energy

>  <rmsd>  (35) 
8.119847312309648

>  <m_score__min__rmsd>  (35) 
8.119847312309648

>  <meeko>  (35) 
{"free_energy": -6.85, "intermolecular_energy": -8.05, "internal_energy": -1.23, "cluster_size": 31, "cluster_id": 3, "rank_in_cluster": 28}

>  <energy>  (35) 
-7.14

>  <cluster_rmsd>  (35) 
0.19

>  <cluster>  (35) 
3

$$$$

     RDKit          3D

 41 43  0  0  0  0  0  0  0  0999 V2000
  141.6620   72.0930  220.9030 O   0  0  0  0  0  0  0  0  0  0  0  0
  141.0070   72.9100  221.5990 C   0  0  0  0  0  0  0  0  0  0  0  0
  140.0960   72.5220  222.6140 N   0  0  0  0  0  0  0  0  0  0  0  0
  139.8580   71.1470  222.9200 C   0  0  0  0  0  0  0  0  0  0  0  0
  139.2770   71.0670  224.2850 C   0  0  0  0  0  0  0  0  0  0  0  0
  138.0400   71.3170  224.4210 O   0  0  0  0  0  0  0  0  0  0  0  0
  140.0710   70.7260  225.3980 N   0  0  0  0  0  0  0  0  0  0  0  0
  140.8960   71.7040  226.0710 C   0  0  0  0  0  0  0  0  0  0  0  0
  140.8980   71.5990  227.5590 C   0  0  0  0  0  0  0  0  0  0  0  0
  141.0610   70.1500  227.9640 C   0  0  0  0  0  0  0  0  0  0  0  0
  139.8390   69.4300  227.3850 C   0  0  2  0  0  0  0  0  0  0  0  0
  139.7180   68.1720  227.9340 F   0  0  0  0  0  0  0  0  0  0  0  0
  140.0690   69.3610  225.8900 C   0  0  0  0  0  0  0  0  0  0  0  0
  141.1820   74.3570  221.3590 C   0  0  0  0  0  0  0  0  0  0  0  0
  142.0040   74.8250  220.3560 C   0  0  0  0  0  0  0  0  0  0  0  0
  142.2000   76.1630  220.0940 C   0  0  0  0  0  0  0  0  0  0  0  0
  141.5210   77.0650  220.8980 C   0  0  0  0  0  0  0  0  0  0  0  0
  141.6870   78.4270  220.6700 C   0  0  0  0  0  0  0  0  0  0  0  0
  141.0010   79.3210  221.4840 C   0  0  0  0  0  0  0  0  0  0  0  0
  141.2100   81.0360  221.1980 Cl  0  0  0  0  0  0  0  0  0  0  0  0
  140.1740   78.9060  222.4900 C   0  0  0  0  0  0  0  0  0  0  0  0
  140.0210   77.5350  222.7020 C   0  0  0  0  0  0  0  0  0  0  0  0
  140.6950   76.6070  221.9050 C   0  0  0  0  0  0  0  0  0  0  0  0
  140.5490   75.2820  222.1050 N   0  0  0  0  0  0  0  0  0  0  0  0
  139.5830   73.2750  223.1550 H   0  0  0  0  0  0  0  0  0  0  0  0
  139.1541   70.7200  222.1905 H   0  0  0  0  0  0  0  0  0  0  0  0
  140.7996   70.5801  222.8749 H   0  0  0  0  0  0  0  0  0  0  0  0
  141.9304   71.5814  225.7174 H   0  0  0  0  0  0  0  0  0  0  0  0
  140.4702   72.6890  225.8294 H   0  0  0  0  0  0  0  0  0  0  0  0
  141.7317   72.1894  227.9668 H   0  0  0  0  0  0  0  0  0  0  0  0
  139.9467   71.9846  227.9543 H   0  0  0  0  0  0  0  0  0  0  0  0
  141.9885   69.7342  227.5436 H   0  0  0  0  0  0  0  0  0  0  0  0
  141.1270   70.0337  229.0558 H   0  0  0  0  0  0  0  0  0  0  0  0
  138.9031   69.9606  227.6141 H   0  0  0  0  0  0  0  0  0  0  0  0
  141.0361   68.8816  225.6782 H   0  0  0  0  0  0  0  0  0  0  0  0
  139.2837   68.7677  225.3988 H   0  0  0  0  0  0  0  0  0  0  0  0
  142.5321   74.0899  219.7309 H   0  0  0  0  0  0  0  0  0  0  0  0
  142.8643   76.4999  219.2846 H   0  0  0  0  0  0  0  0  0  0  0  0
  142.3448   78.7878  219.8655 H   0  0  0  0  0  0  0  0  0  0  0  0
  139.6415   79.6355  223.1179 H   0  0  0  0  0  0  0  0  0  0  0  0
  139.3609   77.1807  223.5074 H   0  0  0  0  0  0  0  0  0  0  0  0
  1  2  2  0
  2  3  1  0
  3  4  1  0
  4  5  1  0
  5  6  2  0
  5  7  1  0
  7  8  1  0
  8  9  1  0
  9 10  1  0
 10 11  1  0
 11 12  1  0
 11 13  1  0
  2 14  1  0
 14 15  2  0
 15 16  1  0
 16 17  2  0
 17 18  1  0
 18 19  2  0
 19 20  1  0
 19 21  1  0
 21 22  2  0
 22 23  1  0
 23 24  2  0
 13  7  1  0
 24 14  1  0
 23 17  1  0
  3 25  1  0
  4 26  1  0
  4 27  1  0
  8 28  1  0
  8 29  1  0
  9 30  1  0
  9 31  1  0
 10 32  1  0
 10 33  1  0
 11 34  1  6
 13 35  1  0
 13 36  1  0
 15 37  1  0
 16 38  1  0
 18 39  1  0
 21 40  1  0
 22 41  1  0
M  END
>  <smiles>  (36) 
O=C(NCC(=O)N1CCCC(F)C1)c1ccc2cc(Cl)ccc2n1

>  <score_type>  (36) 
oracle

>  <origin>  (36) 
autodockgpu

>  <m_score__min__energy>  (36) 
-7.3200000000000003

>  <m_primary>  (36) 
energy

>  <rmsd>  (36) 
8.488858672700829

>  <m_score__min__rmsd>  (36) 
8.488858672700829

>  <meeko>  (36) 
{"free_energy": -7.15, "intermolecular_energy": -8.34, "internal_energy": -1.18, "cluster_size": 31, "cluster_id": 3, "rank_in_cluster": 4}

>  <energy>  (36) 
-7.13

>  <cluster_rmsd>  (36) 
0.2

>  <cluster>  (36) 
3

$$$$

     RDKit          3D

 41 43  0  0  0  0  0  0  0  0999 V2000
  141.6900   72.1370  220.8810 O   0  0  0  0  0  0  0  0  0  0  0  0
  141.0280   72.9530  221.5700 C   0  0  0  0  0  0  0  0  0  0  0  0
  140.0960   72.5630  222.5660 N   0  0  0  0  0  0  0  0  0  0  0  0
  139.8460   71.1880  222.8590 C   0  0  0  0  0  0  0  0  0  0  0  0
  139.2520   71.1010  224.2180 C   0  0  0  0  0  0  0  0  0  0  0  0
  138.0420   71.4590  224.3630 O   0  0  0  0  0  0  0  0  0  0  0  0
  140.0040   70.6370  225.3160 N   0  0  0  0  0  0  0  0  0  0  0  0
  140.7850   71.5360  226.1350 C   0  0  0  0  0  0  0  0  0  0  0  0
  140.7270   71.2550  227.5990 C   0  0  0  0  0  0  0  0  0  0  0  0
  140.8940   69.7700  227.8350 C   0  0  0  0  0  0  0  0  0  0  0  0
  139.7080   69.1120  227.1240 C   0  0  2  0  0  0  0  0  0  0  0  0
  139.5830   67.7960  227.5140 F   0  0  0  0  0  0  0  0  0  0  0  0
  140.0010   69.2240  225.6420 C   0  0  0  0  0  0  0  0  0  0  0  0
  141.2140   74.4010  221.3440 C   0  0  0  0  0  0  0  0  0  0  0  0
  142.0420   74.8710  220.3460 C   0  0  0  0  0  0  0  0  0  0  0  0
  142.2480   76.2090  220.0950 C   0  0  0  0  0  0  0  0  0  0  0  0
  141.5760   77.1100  220.9070 C   0  0  0  0  0  0  0  0  0  0  0  0
  141.7530   78.4720  220.6910 C   0  0  0  0  0  0  0  0  0  0  0  0
  141.0730   79.3650  221.5120 C   0  0  0  0  0  0  0  0  0  0  0  0
  141.2970   81.0800  221.2410 Cl  0  0  0  0  0  0  0  0  0  0  0  0
  140.2430   78.9470  222.5140 C   0  0  0  0  0  0  0  0  0  0  0  0
  140.0780   77.5760  222.7130 C   0  0  0  0  0  0  0  0  0  0  0  0
  140.7460   76.6500  221.9090 C   0  0  0  0  0  0  0  0  0  0  0  0
  140.5890   75.3240  222.0970 N   0  0  0  0  0  0  0  0  0  0  0  0
  139.5780   73.3150  223.1030 H   0  0  0  0  0  0  0  0  0  0  0  0
  139.1459   70.7715  222.1198 H   0  0  0  0  0  0  0  0  0  0  0  0
  140.7842   70.6152  222.8181 H   0  0  0  0  0  0  0  0  0  0  0  0
  141.8349   71.4670  225.8142 H   0  0  0  0  0  0  0  0  0  0  0  0
  140.3543   72.5383  225.9938 H   0  0  0  0  0  0  0  0  0  0  0  0
  141.5346   71.8004  228.1092 H   0  0  0  0  0  0  0  0  0  0  0  0
  139.7550   71.5822  227.9967 H   0  0  0  0  0  0  0  0  0  0  0  0
  141.8439   69.4164  227.4077 H   0  0  0  0  0  0  0  0  0  0  0  0
  140.9166   69.5251  228.9072 H   0  0  0  0  0  0  0  0  0  0  0  0
  138.7556   69.6019  227.3748 H   0  0  0  0  0  0  0  0  0  0  0  0
  140.9829   68.7822  225.4166 H   0  0  0  0  0  0  0  0  0  0  0  0
  139.2452   68.6863  225.0507 H   0  0  0  0  0  0  0  0  0  0  0  0
  142.5662   74.1370  219.7164 H   0  0  0  0  0  0  0  0  0  0  0  0
  142.9145   76.5474  219.2880 H   0  0  0  0  0  0  0  0  0  0  0  0
  142.4146   78.8343  219.8904 H   0  0  0  0  0  0  0  0  0  0  0  0
  139.7170   79.6749  223.1492 H   0  0  0  0  0  0  0  0  0  0  0  0
  139.4131   77.2198  223.5136 H   0  0  0  0  0  0  0  0  0  0  0  0
  1  2  2  0
  2  3  1  0
  3  4  1  0
  4  5  1  0
  5  6  2  0
  5  7  1  0
  7  8  1  0
  8  9  1  0
  9 10  1  0
 10 11  1  0
 11 12  1  0
 11 13  1  0
  2 14  1  0
 14 15  2  0
 15 16  1  0
 16 17  2  0
 17 18  1  0
 18 19  2  0
 19 20  1  0
 19 21  1  0
 21 22  2  0
 22 23  1  0
 23 24  2  0
 13  7  1  0
 24 14  1  0
 23 17  1  0
  3 25  1  0
  4 26  1  0
  4 27  1  0
  8 28  1  0
  8 29  1  0
  9 30  1  0
  9 31  1  0
 10 32  1  0
 10 33  1  0
 11 34  1  6
 13 35  1  0
 13 36  1  0
 15 37  1  0
 16 38  1  0
 18 39  1  0
 21 40  1  0
 22 41  1  0
M  END
>  <smiles>  (37) 
O=C(NCC(=O)N1CCCC(F)C1)c1ccc2cc(Cl)ccc2n1

>  <score_type>  (37) 
oracle

>  <origin>  (37) 
autodockgpu

>  <m_score__min__energy>  (37) 
-7.3200000000000003

>  <m_primary>  (37) 
energy

>  <rmsd>  (37) 
8.52167920307454

>  <m_score__min__rmsd>  (37) 
8.52167920307454

>  <meeko>  (37) 
{"free_energy": -7.14, "intermolecular_energy": -8.33, "internal_energy": -1.2, "cluster_size": 31, "cluster_id": 3, "rank_in_cluster": 12}

>  <energy>  (37) 
-7.13

>  <cluster_rmsd>  (37) 
0.23

>  <cluster>  (37) 
3

$$$$

     RDKit          3D

 41 43  0  0  0  0  0  0  0  0999 V2000
  141.6800   72.1850  220.8510 O   0  0  0  0  0  0  0  0  0  0  0  0
  141.0070   72.9810  221.5520 C   0  0  0  0  0  0  0  0  0  0  0  0
  140.0940   72.5640  222.5550 N   0  0  0  0  0  0  0  0  0  0  0  0
  139.8760   71.1810  222.8400 C   0  0  0  0  0  0  0  0  0  0  0  0
  139.2640   71.0750  224.1890 C   0  0  0  0  0  0  0  0  0  0  0  0
  138.0760   71.5000  224.3390 O   0  0  0  0  0  0  0  0  0  0  0  0
  139.9740   70.5200  225.2730 N   0  0  0  0  0  0  0  0  0  0  0  0
  140.7070   71.3480  226.2030 C   0  0  0  0  0  0  0  0  0  0  0  0
  140.5900   70.9340  227.6310 C   0  0  0  0  0  0  0  0  0  0  0  0
  140.7680   69.4360  227.7400 C   0  0  0  0  0  0  0  0  0  0  0  0
  139.6220   68.8340  226.9200 C   0  0  2  0  0  0  0  0  0  0  0  0
  139.4990   67.4870  227.1840 F   0  0  0  0  0  0  0  0  0  0  0  0
  139.9770   69.0830  225.4690 C   0  0  0  0  0  0  0  0  0  0  0  0
  141.1600   74.4340  221.3350 C   0  0  0  0  0  0  0  0  0  0  0  0
  141.9910   74.9290  220.3520 C   0  0  0  0  0  0  0  0  0  0  0  0
  142.1680   76.2730  220.1100 C   0  0  0  0  0  0  0  0  0  0  0  0
  141.4590   77.1530  220.9140 C   0  0  0  0  0  0  0  0  0  0  0  0
  141.6050   78.5200  220.7070 C   0  0  0  0  0  0  0  0  0  0  0  0
  140.8890   79.3920  221.5200 C   0  0  0  0  0  0  0  0  0  0  0  0
  141.0740   81.1140  221.2590 Cl  0  0  0  0  0  0  0  0  0  0  0  0
  140.0530   78.9490  222.5060 C   0  0  0  0  0  0  0  0  0  0  0  0
  139.9210   77.5740  222.6980 C   0  0  0  0  0  0  0  0  0  0  0  0
  140.6250   76.6680  221.9010 C   0  0  0  0  0  0  0  0  0  0  0  0
  140.4990   75.3380  222.0810 N   0  0  0  0  0  0  0  0  0  0  0  0
  139.5650   73.3010  223.1020 H   0  0  0  0  0  0  0  0  0  0  0  0
  139.1986   70.7485  222.0890 H   0  0  0  0  0  0  0  0  0  0  0  0
  140.8293   70.6328  222.8116 H   0  0  0  0  0  0  0  0  0  0  0  0
  141.7705   71.3185  225.9236 H   0  0  0  0  0  0  0  0  0  0  0  0
  140.2697   72.3550  226.1343 H   0  0  0  0  0  0  0  0  0  0  0  0
  141.3668   71.4393  228.2237 H   0  0  0  0  0  0  0  0  0  0  0  0
  139.5967   71.2130  228.0125 H   0  0  0  0  0  0  0  0  0  0  0  0
  141.7403   69.1320  227.3250 H   0  0  0  0  0  0  0  0  0  0  0  0
  140.7485   69.0949  228.7856 H   0  0  0  0  0  0  0  0  0  0  0  0
  138.6529   69.2899  227.1711 H   0  0  0  0  0  0  0  0  0  0  0  0
  140.9738   68.6736  225.2482 H   0  0  0  0  0  0  0  0  0  0  0  0
  139.2553   68.5936  224.7984 H   0  0  0  0  0  0  0  0  0  0  0  0
  142.5425   74.2111  219.7272 H   0  0  0  0  0  0  0  0  0  0  0  0
  142.8400   76.6317  219.3165 H   0  0  0  0  0  0  0  0  0  0  0  0
  142.2707   78.9026  219.9193 H   0  0  0  0  0  0  0  0  0  0  0  0
  139.4969   79.6607  223.1339 H   0  0  0  0  0  0  0  0  0  0  0  0
  139.2537   77.1978  223.4875 H   0  0  0  0  0  0  0  0  0  0  0  0
  1  2  2  0
  2  3  1  0
  3  4  1  0
  4  5  1  0
  5  6  2  0
  5  7  1  0
  7  8  1  0
  8  9  1  0
  9 10  1  0
 10 11  1  0
 11 12  1  0
 11 13  1  0
  2 14  1  0
 14 15  2  0
 15 16  1  0
 16 17  2  0
 17 18  1  0
 18 19  2  0
 19 20  1  0
 19 21  1  0
 21 22  2  0
 22 23  1  0
 23 24  2  0
 13  7  1  0
 24 14  1  0
 23 17  1  0
  3 25  1  0
  4 26  1  0
  4 27  1  0
  8 28  1  0
  8 29  1  0
  9 30  1  0
  9 31  1  0
 10 32  1  0
 10 33  1  0
 11 34  1  1
 13 35  1  0
 13 36  1  0
 15 37  1  0
 16 38  1  0
 18 39  1  0
 21 40  1  0
 22 41  1  0
M  END
>  <smiles>  (38) 
O=C(NCC(=O)N1CCCC(F)C1)c1ccc2cc(Cl)ccc2n1

>  <score_type>  (38) 
oracle

>  <origin>  (38) 
autodockgpu

>  <m_score__min__energy>  (38) 
-7.3200000000000003

>  <m_primary>  (38) 
energy

>  <rmsd>  (38) 
8.56213649727266

>  <m_score__min__rmsd>  (38) 
8.56213649727266

>  <meeko>  (38) 
{"free_energy": -7.06, "intermolecular_energy": -8.25, "internal_energy": -1.23, "cluster_size": 31, "cluster_id": 3, "rank_in_cluster": 25}

>  <energy>  (38) 
-7.13

>  <cluster_rmsd>  (38) 
0.22

>  <cluster>  (38) 
3

$$$$

     RDKit          3D

 41 43  0  0  0  0  0  0  0  0999 V2000
  141.7060   72.0980  220.9170 O   0  0  0  0  0  0  0  0  0  0  0  0
  141.0330   72.9210  221.5870 C   0  0  0  0  0  0  0  0  0  0  0  0
  140.0920   72.5420  222.5790 N   0  0  0  0  0  0  0  0  0  0  0  0
  139.8440   71.1700  222.8890 C   0  0  0  0  0  0  0  0  0  0  0  0
  139.2630   71.0990  224.2540 C   0  0  0  0  0  0  0  0  0  0  0  0
  138.0610   71.4750  224.4110 O   0  0  0  0  0  0  0  0  0  0  0  0
  140.0200   70.6280  225.3470 N   0  0  0  0  0  0  0  0  0  0  0  0
  140.8000   71.5230  226.1710 C   0  0  0  0  0  0  0  0  0  0  0  0
  140.7470   71.2300  227.6330 C   0  0  0  0  0  0  0  0  0  0  0  0
  140.9200   69.7440  227.8570 C   0  0  0  0  0  0  0  0  0  0  0  0
  139.7340   69.0880  227.1430 C   0  0  2  0  0  0  0  0  0  0  0  0
  139.6150   67.7680  227.5230 F   0  0  0  0  0  0  0  0  0  0  0  0
  140.0230   69.2120  225.6620 C   0  0  0  0  0  0  0  0  0  0  0  0
  141.2160   74.3660  221.3420 C   0  0  0  0  0  0  0  0  0  0  0  0
  142.0100   74.8240  220.3120 C   0  0  0  0  0  0  0  0  0  0  0  0
  142.2120   76.1600  220.0430 C   0  0  0  0  0  0  0  0  0  0  0  0
  141.5710   77.0700  220.8690 C   0  0  0  0  0  0  0  0  0  0  0  0
  141.7450   78.4300  220.6350 C   0  0  0  0  0  0  0  0  0  0  0  0
  141.0960   79.3320  221.4700 C   0  0  0  0  0  0  0  0  0  0  0  0
  141.3160   81.0440  221.1770 Cl  0  0  0  0  0  0  0  0  0  0  0  0
  140.2990   78.9260  222.5030 C   0  0  0  0  0  0  0  0  0  0  0  0
  140.1370   77.5580  222.7210 C   0  0  0  0  0  0  0  0  0  0  0  0
  140.7740   76.6220  221.9020 C   0  0  0  0  0  0  0  0  0  0  0  0
  140.6190   75.2980  222.1080 N   0  0  0  0  0  0  0  0  0  0  0  0
  139.5650   73.3000  223.1000 H   0  0  0  0  0  0  0  0  0  0  0  0
  139.1367   70.7460  222.1610 H   0  0  0  0  0  0  0  0  0  0  0  0
  140.7812   70.5957  222.8452 H   0  0  0  0  0  0  0  0  0  0  0  0
  141.8493   71.4602  225.8468 H   0  0  0  0  0  0  0  0  0  0  0  0
  140.3654   72.5248  226.0390 H   0  0  0  0  0  0  0  0  0  0  0  0
  141.5540   71.7743  228.1454 H   0  0  0  0  0  0  0  0  0  0  0  0
  139.7748   71.5504  228.0357 H   0  0  0  0  0  0  0  0  0  0  0  0
  141.8701   69.3970  227.4247 H   0  0  0  0  0  0  0  0  0  0  0  0
  140.9464   69.4904  228.9270 H   0  0  0  0  0  0  0  0  0  0  0  0
  138.7807   69.5732  227.3996 H   0  0  0  0  0  0  0  0  0  0  0  0
  141.0059   68.7756  225.4310 H   0  0  0  0  0  0  0  0  0  0  0  0
  139.2680   68.6759  225.0682 H   0  0  0  0  0  0  0  0  0  0  0  0
  142.5090   74.0828  219.6705 H   0  0  0  0  0  0  0  0  0  0  0  0
  142.8523   76.4892  219.2113 H   0  0  0  0  0  0  0  0  0  0  0  0
  142.3805   78.7830  219.8095 H   0  0  0  0  0  0  0  0  0  0  0  0
  139.7964   79.6616  223.1482 H   0  0  0  0  0  0  0  0  0  0  0  0
  139.4998   77.2115  223.5480 H   0  0  0  0  0  0  0  0  0  0  0  0
  1  2  2  0
  2  3  1  0
  3  4  1  0
  4  5  1  0
  5  6  2  0
  5  7  1  0
  7  8  1  0
  8  9  1  0
  9 10  1  0
 10 11  1  0
 11 12  1  0
 11 13  1  0
  2 14  1  0
 14 15  2  0
 15 16  1  0
 16 17  2  0
 17 18  1  0
 18 19  2  0
 19 20  1  0
 19 21  1  0
 21 22  2  0
 22 23  1  0
 23 24  2  0
 13  7  1  0
 24 14  1  0
 23 17  1  0
  3 25  1  0
  4 26  1  0
  4 27  1  0
  8 28  1  0
  8 29  1  0
  9 30  1  0
  9 31  1  0
 10 32  1  0
 10 33  1  0
 11 34  1  6
 13 35  1  0
 13 36  1  0
 15 37  1  0
 16 38  1  0
 18 39  1  0
 21 40  1  0
 22 41  1  0
M  END
>  <smiles>  (39) 
O=C(NCC(=O)N1CCCC(F)C1)c1ccc2cc(Cl)ccc2n1

>  <score_type>  (39) 
oracle

>  <origin>  (39) 
autodockgpu

>  <m_score__min__energy>  (39) 
-7.3200000000000003

>  <m_primary>  (39) 
energy

>  <rmsd>  (39) 
8.526472980803106

>  <m_score__min__rmsd>  (39) 
8.526472980803106

>  <meeko>  (39) 
{"free_energy": -7.13, "intermolecular_energy": -8.32, "internal_energy": -1.2, "cluster_size": 31, "cluster_id": 3, "rank_in_cluster": 20}

>  <energy>  (39) 
-7.13

>  <cluster_rmsd>  (39) 
0.2

>  <cluster>  (39) 
3

$$$$

     RDKit          3D

 41 43  0  0  0  0  0  0  0  0999 V2000
  141.6720   72.1540  220.8690 O   0  0  0  0  0  0  0  0  0  0  0  0
  141.0140   72.9690  221.5640 C   0  0  0  0  0  0  0  0  0  0  0  0
  140.0920   72.5770  222.5680 N   0  0  0  0  0  0  0  0  0  0  0  0
  139.8470   71.2010  222.8630 C   0  0  0  0  0  0  0  0  0  0  0  0
  139.2520   71.1150  224.2220 C   0  0  0  0  0  0  0  0  0  0  0  0
  138.0420   71.4700  224.3650 O   0  0  0  0  0  0  0  0  0  0  0  0
  140.0040   70.6540  225.3210 N   0  0  0  0  0  0  0  0  0  0  0  0
  140.7850   71.5550  226.1380 C   0  0  0  0  0  0  0  0  0  0  0  0
  140.7260   71.2770  227.6030 C   0  0  0  0  0  0  0  0  0  0  0  0
  140.8940   69.7930  227.8430 C   0  0  0  0  0  0  0  0  0  0  0  0
  139.7080   69.1330  227.1330 C   0  0  2  0  0  0  0  0  0  0  0  0
  139.5840   67.8180  227.5260 F   0  0  0  0  0  0  0  0  0  0  0  0
  140.0020   69.2410  225.6510 C   0  0  0  0  0  0  0  0  0  0  0  0
  141.1950   74.4170  221.3350 C   0  0  0  0  0  0  0  0  0  0  0  0
  142.0180   74.8880  220.3340 C   0  0  0  0  0  0  0  0  0  0  0  0
  142.2200   76.2270  220.0810 C   0  0  0  0  0  0  0  0  0  0  0  0
  141.5470   77.1270  220.8940 C   0  0  0  0  0  0  0  0  0  0  0  0
  141.7200   78.4890  220.6770 C   0  0  0  0  0  0  0  0  0  0  0  0
  141.0410   79.3800  221.5000 C   0  0  0  0  0  0  0  0  0  0  0  0
  141.2580   81.0960  221.2260 Cl  0  0  0  0  0  0  0  0  0  0  0  0
  140.2150   78.9610  222.5040 C   0  0  0  0  0  0  0  0  0  0  0  0
  140.0550   77.5900  222.7060 C   0  0  0  0  0  0  0  0  0  0  0  0
  140.7220   76.6650  221.9000 C   0  0  0  0  0  0  0  0  0  0  0  0
  140.5700   75.3390  222.0900 N   0  0  0  0  0  0  0  0  0  0  0  0
  139.5770   73.3280  223.1100 H   0  0  0  0  0  0  0  0  0  0  0  0
  139.1492   70.7805  222.1239 H   0  0  0  0  0  0  0  0  0  0  0  0
  140.7871   70.6313  222.8237 H   0  0  0  0  0  0  0  0  0  0  0  0
  141.8351   71.4850  225.8178 H   0  0  0  0  0  0  0  0  0  0  0  0
  140.3550   72.5572  225.9941 H   0  0  0  0  0  0  0  0  0  0  0  0
  141.5327   71.8243  228.1126 H   0  0  0  0  0  0  0  0  0  0  0  0
  139.7532   71.6041  227.9989 H   0  0  0  0  0  0  0  0  0  0  0  0
  141.8442   69.4387  227.4168 H   0  0  0  0  0  0  0  0  0  0  0  0
  140.9169   69.5506  228.9157 H   0  0  0  0  0  0  0  0  0  0  0  0
  138.7553   69.6233  227.3821 H   0  0  0  0  0  0  0  0  0  0  0  0
  140.9844   68.7994  225.4276 H   0  0  0  0  0  0  0  0  0  0  0  0
  139.2472   68.7010  225.0606 H   0  0  0  0  0  0  0  0  0  0  0  0
  142.5417   74.1547  219.7032 H   0  0  0  0  0  0  0  0  0  0  0  0
  142.8838   76.5665  219.2722 H   0  0  0  0  0  0  0  0  0  0  0  0
  142.3779   78.8527  219.8740 H   0  0  0  0  0  0  0  0  0  0  0  0
  139.6878   79.6883  223.1389 H   0  0  0  0  0  0  0  0  0  0  0  0
  139.3950   77.2330  223.5104 H   0  0  0  0  0  0  0  0  0  0  0  0
  1  2  2  0
  2  3  1  0
  3  4  1  0
  4  5  1  0
  5  6  2  0
  5  7  1  0
  7  8  1  0
  8  9  1  0
  9 10  1  0
 10 11  1  0
 11 12  1  0
 11 13  1  0
  2 14  1  0
 14 15  2  0
 15 16  1  0
 16 17  2  0
 17 18  1  0
 18 19  2  0
 19 20  1  0
 19 21  1  0
 21 22  2  0
 22 23  1  0
 23 24  2  0
 13  7  1  0
 24 14  1  0
 23 17  1  0
  3 25  1  0
  4 26  1  0
  4 27  1  0
  8 28  1  0
  8 29  1  0
  9 30  1  0
  9 31  1  0
 10 32  1  0
 10 33  1  0
 11 34  1  6
 13 35  1  0
 13 36  1  0
 15 37  1  0
 16 38  1  0
 18 39  1  0
 21 40  1  0
 22 41  1  0
M  END
>  <smiles>  (40) 
O=C(NCC(=O)N1CCCC(F)C1)c1ccc2cc(Cl)ccc2n1

>  <score_type>  (40) 
oracle

>  <origin>  (40) 
autodockgpu

>  <m_score__min__energy>  (40) 
-7.3200000000000003

>  <m_primary>  (40) 
energy

>  <rmsd>  (40) 
8.525124347921794

>  <m_score__min__rmsd>  (40) 
8.525124347921794

>  <meeko>  (40) 
{"free_energy": -7.14, "intermolecular_energy": -8.33, "internal_energy": -1.2, "cluster_size": 31, "cluster_id": 3, "rank_in_cluster": 16}

>  <energy>  (40) 
-7.13

>  <cluster_rmsd>  (40) 
0.32

>  <cluster>  (40) 
3

$$$$

     RDKit          3D

 41 43  0  0  0  0  0  0  0  0999 V2000
  140.3980   72.4830  220.7740 O   0  0  0  0  0  0  0  0  0  0  0  0
  140.1090   72.8820  221.9300 C   0  0  0  0  0  0  0  0  0  0  0  0
  139.7850   74.2290  222.2370 N   0  0  0  0  0  0  0  0  0  0  0  0
  139.7650   75.2420  221.2300 C   0  0  0  0  0  0  0  0  0  0  0  0
  139.6140   76.5600  221.8980 C   0  0  0  0  0  0  0  0  0  0  0  0
  138.5270   76.7970  222.5100 O   0  0  0  0  0  0  0  0  0  0  0  0
  140.6430   77.5220  221.8580 N   0  0  0  0  0  0  0  0  0  0  0  0
  141.1950   77.9910  220.6070 C   0  0  0  0  0  0  0  0  0  0  0  0
  141.4700   79.4570  220.5580 C   0  0  0  0  0  0  0  0  0  0  0  0
  142.1640   79.8840  221.8330 C   0  0  0  0  0  0  0  0  0  0  0  0
  141.1720   79.5700  222.9570 C   0  0  2  0  0  0  0  0  0  0  0  0
  141.5630   80.1830  224.1270 F   0  0  0  0  0  0  0  0  0  0  0  0
  141.1710   78.0620  223.0970 C   0  0  0  0  0  0  0  0  0  0  0  0
  140.1020   71.9110  223.0430 C   0  0  0  0  0  0  0  0  0  0  0  0
  139.6090   70.6340  222.8790 C   0  0  0  0  0  0  0  0  0  0  0  0
  139.5810   69.6930  223.8840 C   0  0  0  0  0  0  0  0  0  0  0  0
  140.0810   70.0790  225.1180 C   0  0  0  0  0  0  0  0  0  0  0  0
  140.0730   69.1630  226.1640 C   0  0  0  0  0  0  0  0  0  0  0  0
  140.5770   69.5630  227.3960 C   0  0  0  0  0  0  0  0  0  0  0  0
  140.5670   68.4090  228.7140 Cl  0  0  0  0  0  0  0  0  0  0  0  0
  141.0760   70.8170  227.6080 C   0  0  0  0  0  0  0  0  0  0  0  0
  141.0750   71.7220  226.5460 C   0  0  0  0  0  0  0  0  0  0  0  0
  140.5760   71.3550  225.2940 C   0  0  0  0  0  0  0  0  0  0  0  0
  140.5740   72.2260  224.2640 N   0  0  0  0  0  0  0  0  0  0  0  0
  139.5530   74.4830  223.2400 H   0  0  0  0  0  0  0  0  0  0  0  0
  140.7058   75.2191  220.6605 H   0  0  0  0  0  0  0  0  0  0  0  0
  138.9288   75.0705  220.5362 H   0  0  0  0  0  0  0  0  0  0  0  0
  142.1410   77.4587  220.4288 H   0  0  0  0  0  0  0  0  0  0  0  0
  140.4348   77.7913  219.8374 H   0  0  0  0  0  0  0  0  0  0  0  0
  142.1166   79.6800  219.6965 H   0  0  0  0  0  0  0  0  0  0  0  0
  140.5213   80.0044  220.4565 H   0  0  0  0  0  0  0  0  0  0  0  0
  143.0965   79.3175  221.9725 H   0  0  0  0  0  0  0  0  0  0  0  0
  142.4388   80.9490  221.8138 H   0  0  0  0  0  0  0  0  0  0  0  0
  140.1627   79.9448  222.7315 H   0  0  0  0  0  0  0  0  0  0  0  0
  142.1955   77.6971  223.2620 H   0  0  0  0  0  0  0  0  0  0  0  0
  140.5588   77.7475  223.9551 H   0  0  0  0  0  0  0  0  0  0  0  0
  139.2164   70.3513  221.8911 H   0  0  0  0  0  0  0  0  0  0  0  0
  139.1806   68.6824  223.7155 H   0  0  0  0  0  0  0  0  0  0  0  0
  139.6775   68.1467  226.0200 H   0  0  0  0  0  0  0  0  0  0  0  0
  141.4696   71.1066  228.5935 H   0  0  0  0  0  0  0  0  0  0  0  0
  141.4720   72.7368  226.6965 H   0  0  0  0  0  0  0  0  0  0  0  0
  1  2  2  0
  2  3  1  0
  3  4  1  0
  4  5  1  0
  5  6  2  0
  5  7  1  0
  7  8  1  0
  8  9  1  0
  9 10  1  0
 10 11  1  0
 11 12  1  0
 11 13  1  0
  2 14  1  0
 14 15  2  0
 15 16  1  0
 16 17  2  0
 17 18  1  0
 18 19  2  0
 19 20  1  0
 19 21  1  0
 21 22  2  0
 22 23  1  0
 23 24  2  0
 13  7  1  0
 24 14  1  0
 23 17  1  0
  3 25  1  0
  4 26  1  0
  4 27  1  0
  8 28  1  0
  8 29  1  0
  9 30  1  0
  9 31  1  0
 10 32  1  0
 10 33  1  0
 11 34  1  6
 13 35  1  0
 13 36  1  0
 15 37  1  0
 16 38  1  0
 18 39  1  0
 21 40  1  0
 22 41  1  0
M  END
>  <smiles>  (41) 
O=C(NCC(=O)N1CCCC(F)C1)c1ccc2cc(Cl)ccc2n1

>  <score_type>  (41) 
oracle

>  <origin>  (41) 
autodockgpu

>  <m_score__min__energy>  (41) 
-7.3200000000000003

>  <m_primary>  (41) 
energy

>  <rmsd>  (41) 
3.207636549851088

>  <m_score__min__rmsd>  (41) 
3.207636549851088

>  <meeko>  (41) 
{"free_energy": -7.26, "intermolecular_energy": -8.46, "internal_energy": -1.04, "cluster_size": 13, "cluster_id": 1, "rank_in_cluster": 6}

>  <energy>  (41) 
-7.12

>  <cluster_rmsd>  (41) 
0.49

>  <cluster>  (41) 
3

$$$$

     RDKit          3D

 41 43  0  0  0  0  0  0  0  0999 V2000
  140.3070   70.9340  221.8240 O   0  0  0  0  0  0  0  0  0  0  0  0
  139.7180   71.9550  222.2600 C   0  0  0  0  0  0  0  0  0  0  0  0
  138.5700   71.9040  223.0910 N   0  0  0  0  0  0  0  0  0  0  0  0
  137.9960   70.6610  223.4980 C   0  0  0  0  0  0  0  0  0  0  0  0
  139.0350   69.8820  224.2190 C   0  0  0  0  0  0  0  0  0  0  0  0
  139.5740   68.9050  223.6130 O   0  0  0  0  0  0  0  0  0  0  0  0
  139.4150   70.2120  225.5360 N   0  0  0  0  0  0  0  0  0  0  0  0
  139.2310   69.2890  226.6320 C   0  0  0  0  0  0  0  0  0  0  0  0
  140.3610   69.2430  227.6050 C   0  0  0  0  0  0  0  0  0  0  0  0
  140.7950   70.6530  227.9430 C   0  0  0  0  0  0  0  0  0  0  0  0
  141.2630   71.2600  226.6160 C   0  0  2  0  0  0  0  0  0  0  0  0
  141.9560   72.4290  226.8410 F   0  0  0  0  0  0  0  0  0  0  0  0
  140.0060   71.5080  225.8090 C   0  0  0  0  0  0  0  0  0  0  0  0
  140.2340   73.2900  221.8960 C   0  0  0  0  0  0  0  0  0  0  0  0
  141.3660   73.4360  221.1220 C   0  0  0  0  0  0  0  0  0  0  0  0
  141.8860   74.6570  220.7560 C   0  0  0  0  0  0  0  0  0  0  0  0
  141.2150   75.7850  221.2050 C   0  0  0  0  0  0  0  0  0  0  0  0
  141.7040   77.0400  220.8600 C   0  0  0  0  0  0  0  0  0  0  0  0
  141.0220   78.1620  221.3180 C   0  0  0  0  0  0  0  0  0  0  0  0
  141.6370   79.7440  220.8840 Cl  0  0  0  0  0  0  0  0  0  0  0  0
  139.8960   78.0690  222.0870 C   0  0  0  0  0  0  0  0  0  0  0  0
  139.4220   76.8000  222.4210 C   0  0  0  0  0  0  0  0  0  0  0  0
  140.0820   75.6500  221.9810 C   0  0  0  0  0  0  0  0  0  0  0  0
  139.6270   74.4210  222.3000 N   0  0  0  0  0  0  0  0  0  0  0  0
  138.1330   72.8130  223.4160 H   0  0  0  0  0  0  0  0  0  0  0  0
  137.1408   70.8466  224.1645 H   0  0  0  0  0  0  0  0  0  0  0  0
  137.6432   70.1006  222.6197 H   0  0  0  0  0  0  0  0  0  0  0  0
  138.3213   69.5813  227.1770 H   0  0  0  0  0  0  0  0  0  0  0  0
  139.1647   68.2859  226.1855 H   0  0  0  0  0  0  0  0  0  0  0  0
  140.0345   68.7304  228.5218 H   0  0  0  0  0  0  0  0  0  0  0  0
  141.2056   68.6967  227.1597 H   0  0  0  0  0  0  0  0  0  0  0  0
  139.9519   71.2278  228.3537 H   0  0  0  0  0  0  0  0  0  0  0  0
  141.5896   70.6667  228.7036 H   0  0  0  0  0  0  0  0  0  0  0  0
  141.9498   70.5907  226.0771 H   0  0  0  0  0  0  0  0  0  0  0  0
  139.3042   72.1296  226.3844 H   0  0  0  0  0  0  0  0  0  0  0  0
  140.2381   72.0385  224.8738 H   0  0  0  0  0  0  0  0  0  0  0  0
  141.8816   72.5272  220.7783 H   0  0  0  0  0  0  0  0  0  0  0  0
  142.7915   74.7345  220.1363 H   0  0  0  0  0  0  0  0  0  0  0  0
  142.6072   77.1427  220.2406 H   0  0  0  0  0  0  0  0  0  0  0  0
  139.3755   78.9736  222.4345 H   0  0  0  0  0  0  0  0  0  0  0  0
  138.5169   76.7038  223.0388 H   0  0  0  0  0  0  0  0  0  0  0  0
  1  2  2  0
  2  3  1  0
  3  4  1  0
  4  5  1  0
  5  6  2  0
  5  7  1  0
  7  8  1  0
  8  9  1  0
  9 10  1  0
 10 11  1  0
 11 12  1  0
 11 13  1  0
  2 14  1  0
 14 15  2  0
 15 16  1  0
 16 17  2  0
 17 18  1  0
 18 19  2  0
 19 20  1  0
 19 21  1  0
 21 22  2  0
 22 23  1  0
 23 24  2  0
 13  7  1  0
 24 14  1  0
 23 17  1  0
  3 25  1  0
  4 26  1  0
  4 27  1  0
  8 28  1  0
  8 29  1  0
  9 30  1  0
  9 31  1  0
 10 32  1  0
 10 33  1  0
 11 34  1  6
 13 35  1  0
 13 36  1  0
 15 37  1  0
 16 38  1  0
 18 39  1  0
 21 40  1  0
 22 41  1  0
M  END
>  <smiles>  (42) 
O=C(NCC(=O)N1CCCC(F)C1)c1ccc2cc(Cl)ccc2n1

>  <score_type>  (42) 
oracle

>  <origin>  (42) 
autodockgpu

>  <m_score__min__energy>  (42) 
-7.3200000000000003

>  <m_primary>  (42) 
energy

>  <rmsd>  (42) 
8.21248730957596

>  <m_score__min__rmsd>  (42) 
8.21248730957596

>  <meeko>  (42) 
{"free_energy": -6.71, "intermolecular_energy": -7.9, "internal_energy": -1.24, "cluster_size": 31, "cluster_id": 3, "rank_in_cluster": 30}

>  <energy>  (42) 
-7.12

>  <cluster_rmsd>  (42) 
0.5

>  <cluster>  (42) 
3

$$$$

     RDKit          3D

 41 43  0  0  0  0  0  0  0  0999 V2000
  141.6350   72.0740  220.8950 O   0  0  0  0  0  0  0  0  0  0  0  0
  140.9910   72.8980  221.5920 C   0  0  0  0  0  0  0  0  0  0  0  0
  140.0760   72.5200  222.6090 N   0  0  0  0  0  0  0  0  0  0  0  0
  139.8230   71.1480  222.9140 C   0  0  0  0  0  0  0  0  0  0  0  0
  139.2520   71.0730  224.2830 C   0  0  0  0  0  0  0  0  0  0  0  0
  138.0150   71.3200  224.4280 O   0  0  0  0  0  0  0  0  0  0  0  0
  140.0550   70.7390  225.3930 N   0  0  0  0  0  0  0  0  0  0  0  0
  140.8560   71.7290  226.0760 C   0  0  0  0  0  0  0  0  0  0  0  0
  140.8620   71.6080  227.5630 C   0  0  0  0  0  0  0  0  0  0  0  0
  141.0610   70.1590  227.9510 C   0  0  0  0  0  0  0  0  0  0  0  0
  139.8570   69.4150  227.3650 C   0  0  2  0  0  0  0  0  0  0  0  0
  139.7680   68.1490  227.9000 F   0  0  0  0  0  0  0  0  0  0  0  0
  140.0880   69.3690  225.8690 C   0  0  0  0  0  0  0  0  0  0  0  0
  141.1820   74.3430  221.3540 C   0  0  0  0  0  0  0  0  0  0  0  0
  142.0040   74.8020  220.3470 C   0  0  0  0  0  0  0  0  0  0  0  0
  142.2150   76.1370  220.0850 C   0  0  0  0  0  0  0  0  0  0  0  0
  141.5530   77.0480  220.8950 C   0  0  0  0  0  0  0  0  0  0  0  0
  141.7350   78.4070  220.6680 C   0  0  0  0  0  0  0  0  0  0  0  0
  141.0650   79.3090  221.4880 C   0  0  0  0  0  0  0  0  0  0  0  0
  141.2950   81.0210  221.2020 Cl  0  0  0  0  0  0  0  0  0  0  0  0
  140.2400   78.9030  222.4980 C   0  0  0  0  0  0  0  0  0  0  0  0
  140.0710   77.5340  222.7090 C   0  0  0  0  0  0  0  0  0  0  0  0
  140.7280   76.5990  221.9060 C   0  0  0  0  0  0  0  0  0  0  0  0
  140.5670   75.2750  222.1060 N   0  0  0  0  0  0  0  0  0  0  0  0
  139.5730   73.2780  223.1510 H   0  0  0  0  0  0  0  0  0  0  0  0
  139.1080   70.7315  222.1893 H   0  0  0  0  0  0  0  0  0  0  0  0
  140.7568   70.5691  222.8603 H   0  0  0  0  0  0  0  0  0  0  0  0
  141.8928   71.6357  225.7204 H   0  0  0  0  0  0  0  0  0  0  0  0
  140.4058   72.7058  225.8455 H   0  0  0  0  0  0  0  0  0  0  0  0
  141.6814   72.2141  227.9768 H   0  0  0  0  0  0  0  0  0  0  0  0
  139.9022   71.9661  227.9636 H   0  0  0  0  0  0  0  0  0  0  0  0
  141.9982   69.7712  227.5251 H   0  0  0  0  0  0  0  0  0  0  0  0
  141.1306   70.0321  229.0414 H   0  0  0  0  0  0  0  0  0  0  0  0
  138.9079   69.9188  227.6005 H   0  0  0  0  0  0  0  0  0  0  0  0
  141.0669   68.9169  225.6515 H   0  0  0  0  0  0  0  0  0  0  0  0
  139.3179   68.7615  225.3711 H   0  0  0  0  0  0  0  0  0  0  0  0
  142.5195   74.0610  219.7184 H   0  0  0  0  0  0  0  0  0  0  0  0
  142.8778   76.4660  219.2711 H   0  0  0  0  0  0  0  0  0  0  0  0
  142.3925   78.7605  219.8601 H   0  0  0  0  0  0  0  0  0  0  0  0
  139.7208   79.6382  223.1304 H   0  0  0  0  0  0  0  0  0  0  0  0
  139.4118   77.1867  223.5182 H   0  0  0  0  0  0  0  0  0  0  0  0
  1  2  2  0
  2  3  1  0
  3  4  1  0
  4  5  1  0
  5  6  2  0
  5  7  1  0
  7  8  1  0
  8  9  1  0
  9 10  1  0
 10 11  1  0
 11 12  1  0
 11 13  1  0
  2 14  1  0
 14 15  2  0
 15 16  1  0
 16 17  2  0
 17 18  1  0
 18 19  2  0
 19 20  1  0
 19 21  1  0
 21 22  2  0
 22 23  1  0
 23 24  2  0
 13  7  1  0
 24 14  1  0
 23 17  1  0
  3 25  1  0
  4 26  1  0
  4 27  1  0
  8 28  1  0
  8 29  1  0
  9 30  1  0
  9 31  1  0
 10 32  1  0
 10 33  1  0
 11 34  1  6
 13 35  1  0
 13 36  1  0
 15 37  1  0
 16 38  1  0
 18 39  1  0
 21 40  1  0
 22 41  1  0
M  END
>  <smiles>  (43) 
O=C(NCC(=O)N1CCCC(F)C1)c1ccc2cc(Cl)ccc2n1

>  <score_type>  (43) 
oracle

>  <origin>  (43) 
autodockgpu

>  <m_score__min__energy>  (43) 
-7.3200000000000003

>  <m_primary>  (43) 
energy

>  <rmsd>  (43) 
8.479020196531971

>  <m_score__min__rmsd>  (43) 
8.479020196531971

>  <meeko>  (43) 
{"free_energy": -7.15, "intermolecular_energy": -8.35, "internal_energy": -1.18, "cluster_size": 31, "cluster_id": 3, "rank_in_cluster": 3}

>  <energy>  (43) 
-7.1

>  <cluster_rmsd>  (43) 
0.69

>  <cluster>  (43) 
3

$$$$

     RDKit          3D

 41 43  0  0  0  0  0  0  0  0999 V2000
  140.0650   72.5100  220.8000 O   0  0  0  0  0  0  0  0  0  0  0  0
  139.9050   72.9050  221.9820 C   0  0  0  0  0  0  0  0  0  0  0  0
  139.6670   74.2590  222.3310 N   0  0  0  0  0  0  0  0  0  0  0  0
  139.5920   75.2850  221.3390 C   0  0  0  0  0  0  0  0  0  0  0  0
  139.5360   76.5980  222.0310 C   0  0  0  0  0  0  0  0  0  0  0  0
  138.5160   76.8540  222.7420 O   0  0  0  0  0  0  0  0  0  0  0  0
  140.5810   77.5360  221.9040 N   0  0  0  0  0  0  0  0  0  0  0  0
  141.1630   77.8550  220.6210 C   0  0  0  0  0  0  0  0  0  0  0  0
  141.4620   79.3020  220.4140 C   0  0  0  0  0  0  0  0  0  0  0  0
  142.1390   79.8600  221.6470 C   0  0  0  0  0  0  0  0  0  0  0  0
  141.1210   79.6870  222.7790 C   0  0  2  0  0  0  0  0  0  0  0  0
  141.4990   80.4220  223.8810 F   0  0  0  0  0  0  0  0  0  0  0  0
  141.0930   78.2040  223.0860 C   0  0  0  0  0  0  0  0  0  0  0  0
  139.9650   71.9210  223.0820 C   0  0  0  0  0  0  0  0  0  0  0  0
  139.5340   70.6230  222.9080 C   0  0  0  0  0  0  0  0  0  0  0  0
  139.5700   69.6690  223.9010 C   0  0  0  0  0  0  0  0  0  0  0  0
  140.0690   70.0650  225.1330 C   0  0  0  0  0  0  0  0  0  0  0  0
  140.1250   69.1360  226.1660 C   0  0  0  0  0  0  0  0  0  0  0  0
  140.6280   69.5460  227.3960 C   0  0  0  0  0  0  0  0  0  0  0  0
  140.6970   68.3770  228.6980 Cl  0  0  0  0  0  0  0  0  0  0  0  0
  141.0660   70.8210  227.6160 C   0  0  0  0  0  0  0  0  0  0  0  0
  141.0020   71.7370  226.5660 C   0  0  0  0  0  0  0  0  0  0  0  0
  140.5020   71.3620  225.3170 C   0  0  0  0  0  0  0  0  0  0  0  0
  140.4400   72.2440  224.2990 N   0  0  0  0  0  0  0  0  0  0  0  0
  139.5420   74.5100  223.3530 H   0  0  0  0  0  0  0  0  0  0  0  0
  140.4807   75.2429  220.6921 H   0  0  0  0  0  0  0  0  0  0  0  0
  138.6961   75.1458  220.7161 H   0  0  0  0  0  0  0  0  0  0  0  0
  142.1036   77.2933  220.5224 H   0  0  0  0  0  0  0  0  0  0  0  0
  140.4138   77.5813  219.8635 H   0  0  0  0  0  0  0  0  0  0  0  0
  142.1279   79.4181  219.5462 H   0  0  0  0  0  0  0  0  0  0  0  0
  140.5241   79.8474  220.2329 H   0  0  0  0  0  0  0  0  0  0  0  0
  143.0599   79.3003  221.8678 H   0  0  0  0  0  0  0  0  0  0  0  0
  142.4308   80.9123  221.5145 H   0  0  0  0  0  0  0  0  0  0  0  0
  140.1222   80.0480  222.4926 H   0  0  0  0  0  0  0  0  0  0  0  0
  142.1081   77.8458  223.3125 H   0  0  0  0  0  0  0  0  0  0  0  0
  140.4588   77.9959  223.9604 H   0  0  0  0  0  0  0  0  0  0  0  0
  139.1399   70.3335  221.9227 H   0  0  0  0  0  0  0  0  0  0  0  0
  139.2194   68.6413  223.7251 H   0  0  0  0  0  0  0  0  0  0  0  0
  139.7801   68.1026  226.0141 H   0  0  0  0  0  0  0  0  0  0  0  0
  141.4602   71.1186  228.5989 H   0  0  0  0  0  0  0  0  0  0  0  0
  141.3500   72.7685  226.7238 H   0  0  0  0  0  0  0  0  0  0  0  0
  1  2  2  0
  2  3  1  0
  3  4  1  0
  4  5  1  0
  5  6  2  0
  5  7  1  0
  7  8  1  0
  8  9  1  0
  9 10  1  0
 10 11  1  0
 11 12  1  0
 11 13  1  0
  2 14  1  0
 14 15  2  0
 15 16  1  0
 16 17  2  0
 17 18  1  0
 18 19  2  0
 19 20  1  0
 19 21  1  0
 21 22  2  0
 22 23  1  0
 23 24  2  0
 13  7  1  0
 24 14  1  0
 23 17  1  0
  3 25  1  0
  4 26  1  0
  4 27  1  0
  8 28  1  0
  8 29  1  0
  9 30  1  0
  9 31  1  0
 10 32  1  0
 10 33  1  0
 11 34  1  6
 13 35  1  0
 13 36  1  0
 15 37  1  0
 16 38  1  0
 18 39  1  0
 21 40  1  0
 22 41  1  0
M  END
>  <smiles>  (44) 
O=C(NCC(=O)N1CCCC(F)C1)c1ccc2cc(Cl)ccc2n1

>  <score_type>  (44) 
oracle

>  <origin>  (44) 
autodockgpu

>  <m_score__min__energy>  (44) 
-7.3200000000000003

>  <m_primary>  (44) 
energy

>  <rmsd>  (44) 
3.161523138519826

>  <m_score__min__rmsd>  (44) 
3.161523138519826

>  <meeko>  (44) 
{"free_energy": -7.25, "intermolecular_energy": -8.44, "internal_energy": -1.08, "cluster_size": 13, "cluster_id": 1, "rank_in_cluster": 9}

>  <energy>  (44) 
-7.06

>  <cluster_rmsd>  (44) 
0.38

>  <cluster>  (44) 
3

$$$$

     RDKit          3D

 41 43  0  0  0  0  0  0  0  0999 V2000
  140.0120   72.5060  220.7740 O   0  0  0  0  0  0  0  0  0  0  0  0
  139.8240   72.9020  221.9510 C   0  0  0  0  0  0  0  0  0  0  0  0
  139.5480   74.2510  222.2900 N   0  0  0  0  0  0  0  0  0  0  0  0
  139.4620   75.2700  221.2920 C   0  0  0  0  0  0  0  0  0  0  0  0
  140.6500   76.1520  221.4230 C   0  0  0  0  0  0  0  0  0  0  0  0
  141.7940   75.6470  221.2000 O   0  0  0  0  0  0  0  0  0  0  0  0
  140.5190   77.5080  221.7840 N   0  0  0  0  0  0  0  0  0  0  0  0
  139.2740   78.0420  222.2880 C   0  0  0  0  0  0  0  0  0  0  0  0
  139.4220   79.0050  223.4180 C   0  0  0  0  0  0  0  0  0  0  0  0
  140.5270   79.9890  223.1020 C   0  0  0  0  0  0  0  0  0  0  0  0
  141.7950   79.1400  222.9630 C   0  0  2  0  0  0  0  0  0  0  0  0
  142.9140   79.9430  222.9720 F   0  0  0  0  0  0  0  0  0  0  0  0
  141.6540   78.4000  221.6490 C   0  0  0  0  0  0  0  0  0  0  0  0
  139.8920   71.9250  223.0570 C   0  0  0  0  0  0  0  0  0  0  0  0
  139.4450   70.6300  222.8990 C   0  0  0  0  0  0  0  0  0  0  0  0
  139.4870   69.6830  223.8970 C   0  0  0  0  0  0  0  0  0  0  0  0
  140.0120   70.0810  225.1180 C   0  0  0  0  0  0  0  0  0  0  0  0
  140.0750   69.1580  226.1560 C   0  0  0  0  0  0  0  0  0  0  0  0
  140.6030   69.5710  227.3740 C   0  0  0  0  0  0  0  0  0  0  0  0
  140.6820   68.4090  228.6830 Cl  0  0  0  0  0  0  0  0  0  0  0  0
  141.0600   70.8420  227.5790 C   0  0  0  0  0  0  0  0  0  0  0  0
  140.9870   71.7520  226.5240 C   0  0  0  0  0  0  0  0  0  0  0  0
  140.4620   71.3740  225.2860 C   0  0  0  0  0  0  0  0  0  0  0  0
  140.3920   72.2500  224.2630 N   0  0  0  0  0  0  0  0  0  0  0  0
  139.4020   74.5030  223.3090 H   0  0  0  0  0  0  0  0  0  0  0  0
  139.4476   74.8113  220.2923 H   0  0  0  0  0  0  0  0  0  0  0  0
  138.5395   75.8542  221.4251 H   0  0  0  0  0  0  0  0  0  0  0  0
  138.7631   78.5585  221.4620 H   0  0  0  0  0  0  0  0  0  0  0  0
  138.7048   77.1866  222.6807 H   0  0  0  0  0  0  0  0  0  0  0  0
  138.4769   79.5491  223.5620 H   0  0  0  0  0  0  0  0  0  0  0  0
  139.6729   78.4553  224.3372 H   0  0  0  0  0  0  0  0  0  0  0  0
  140.3135   80.5198  222.1625 H   0  0  0  0  0  0  0  0  0  0  0  0
  140.6299   80.7559  223.8839 H   0  0  0  0  0  0  0  0  0  0  0  0
  141.9125   78.4356  223.7997 H   0  0  0  0  0  0  0  0  0  0  0  0
  141.4783   79.1137  220.8306 H   0  0  0  0  0  0  0  0  0  0  0  0
  142.5698   77.8371  221.4155 H   0  0  0  0  0  0  0  0  0  0  0  0
  139.0324   70.3379  221.9221 H   0  0  0  0  0  0  0  0  0  0  0  0
  139.1214   68.6584  223.7341 H   0  0  0  0  0  0  0  0  0  0  0  0
  139.7163   68.1275  226.0171 H   0  0  0  0  0  0  0  0  0  0  0  0
  141.4756   71.1408  228.5526 H   0  0  0  0  0  0  0  0  0  0  0  0
  141.3477   72.7810  226.6691 H   0  0  0  0  0  0  0  0  0  0  0  0
  1  2  2  0
  2  3  1  0
  3  4  1  0
  4  5  1  0
  5  6  2  0
  5  7  1  0
  7  8  1  0
  8  9  1  0
  9 10  1  0
 10 11  1  0
 11 12  1  0
 11 13  1  0
  2 14  1  0
 14 15  2  0
 15 16  1  0
 16 17  2  0
 17 18  1  0
 18 19  2  0
 19 20  1  0
 19 21  1  0
 21 22  2  0
 22 23  1  0
 23 24  2  0
 13  7  1  0
 24 14  1  0
 23 17  1  0
  3 25  1  0
  4 26  1  0
  4 27  1  0
  8 28  1  0
  8 29  1  0
  9 30  1  0
  9 31  1  0
 10 32  1  0
 10 33  1  0
 11 34  1  1
 13 35  1  0
 13 36  1  0
 15 37  1  0
 16 38  1  0
 18 39  1  0
 21 40  1  0
 22 41  1  0
M  END
>  <smiles>  (45) 
O=C(NCC(=O)N1CCCC(F)C1)c1ccc2cc(Cl)ccc2n1

>  <score_type>  (45) 
oracle

>  <origin>  (45) 
autodockgpu

>  <m_score__min__energy>  (45) 
-7.3200000000000003

>  <m_primary>  (45) 
energy

>  <rmsd>  (45) 
3.549189066252947

>  <m_score__min__rmsd>  (45) 
3.549189066252947

>  <meeko>  (45) 
{"free_energy": -7.32, "intermolecular_energy": -8.51, "internal_energy": -0.94, "cluster_size": 13, "cluster_id": 1, "rank_in_cluster": 2}

>  <energy>  (45) 
-7.01

>  <cluster_rmsd>  (45) 
0.61

>  <cluster>  (45) 
3

$$$$

     RDKit          3D

 41 43  0  0  0  0  0  0  0  0999 V2000
  141.5510   71.8420  221.0380 O   0  0  0  0  0  0  0  0  0  0  0  0
  140.8600   72.6560  221.7010 C   0  0  0  0  0  0  0  0  0  0  0  0
  139.8880   72.2650  222.6570 N   0  0  0  0  0  0  0  0  0  0  0  0
  139.6260   70.8880  222.9360 C   0  0  0  0  0  0  0  0  0  0  0  0
  139.0930   70.7870  224.3190 C   0  0  0  0  0  0  0  0  0  0  0  0
  137.8440   70.9440  224.4890 O   0  0  0  0  0  0  0  0  0  0  0  0
  139.9430   70.5260  225.4130 N   0  0  0  0  0  0  0  0  0  0  0  0
  140.8370   71.5340  225.9370 C   0  0  0  0  0  0  0  0  0  0  0  0
  140.9270   71.5740  227.4250 C   0  0  0  0  0  0  0  0  0  0  0  0
  141.0700   70.1660  227.9610 C   0  0  0  0  0  0  0  0  0  0  0  0
  139.7930   69.4390  227.5290 C   0  0  2  0  0  0  0  0  0  0  0  0
  139.6670   68.2450  228.2060 F   0  0  0  0  0  0  0  0  0  0  0  0
  139.9290   69.2170  226.0370 C   0  0  0  0  0  0  0  0  0  0  0  0
  141.0560   74.1040  221.4850 C   0  0  0  0  0  0  0  0  0  0  0  0
  141.9790   74.5760  220.5760 C   0  0  0  0  0  0  0  0  0  0  0  0
  142.1980   75.9150  220.3390 C   0  0  0  0  0  0  0  0  0  0  0  0
  141.4360   76.8140  221.0690 C   0  0  0  0  0  0  0  0  0  0  0  0
  141.6220   78.1760  220.8630 C   0  0  0  0  0  0  0  0  0  0  0  0
  140.8510   79.0670  221.6020 C   0  0  0  0  0  0  0  0  0  0  0  0
  141.0860   80.7840  221.3440 Cl  0  0  0  0  0  0  0  0  0  0  0  0
  139.9230   78.6480  222.5130 C   0  0  0  0  0  0  0  0  0  0  0  0
  139.7520   77.2770  222.7040 C   0  0  0  0  0  0  0  0  0  0  0  0
  140.5090   76.3520  221.9810 C   0  0  0  0  0  0  0  0  0  0  0  0
  140.3460   75.0260  222.1620 N   0  0  0  0  0  0  0  0  0  0  0  0
  139.3480   73.0160  223.1740 H   0  0  0  0  0  0  0  0  0  0  0  0
  138.8854   70.4980  222.2223 H   0  0  0  0  0  0  0  0  0  0  0  0
  140.5502   70.2990  222.8414 H   0  0  0  0  0  0  0  0  0  0  0  0
  141.8436   71.3402  225.5379 H   0  0  0  0  0  0  0  0  0  0  0  0
  140.4273   72.5057  225.6242 H   0  0  0  0  0  0  0  0  0  0  0  0
  141.8019   72.1703  227.7233 H   0  0  0  0  0  0  0  0  0  0  0  0
  140.0142   72.0308  227.8349 H   0  0  0  0  0  0  0  0  0  0  0  0
  141.9563   69.6775  227.5299 H   0  0  0  0  0  0  0  0  0  0  0  0
  141.2001   70.1536  229.0532 H   0  0  0  0  0  0  0  0  0  0  0  0
  138.8898   70.0232  227.7590 H   0  0  0  0  0  0  0  0  0  0  0  0
  140.8662   68.6842  225.8183 H   0  0  0  0  0  0  0  0  0  0  0  0
  139.0971   68.6082  225.6533 H   0  0  0  0  0  0  0  0  0  0  0  0
  142.5726   73.8435  220.0094 H   0  0  0  0  0  0  0  0  0  0  0  0
  142.9429   76.2552  219.6046 H   0  0  0  0  0  0  0  0  0  0  0  0
  142.3606   78.5401  220.1337 H   0  0  0  0  0  0  0  0  0  0  0  0
  139.3249   79.3747  223.0823 H   0  0  0  0  0  0  0  0  0  0  0  0
  139.0109   76.9192  223.4339 H   0  0  0  0  0  0  0  0  0  0  0  0
  1  2  2  0
  2  3  1  0
  3  4  1  0
  4  5  1  0
  5  6  2  0
  5  7  1  0
  7  8  1  0
  8  9  1  0
  9 10  1  0
 10 11  1  0
 11 12  1  0
 11 13  1  0
  2 14  1  0
 14 15  2  0
 15 16  1  0
 16 17  2  0
 17 18  1  0
 18 19  2  0
 19 20  1  0
 19 21  1  0
 21 22  2  0
 22 23  1  0
 23 24  2  0
 13  7  1  0
 24 14  1  0
 23 17  1  0
  3 25  1  0
  4 26  1  0
  4 27  1  0
  8 28  1  0
  8 29  1  0
  9 30  1  0
  9 31  1  0
 10 32  1  0
 10 33  1  0
 11 34  1  6
 13 35  1  0
 13 36  1  0
 15 37  1  0
 16 38  1  0
 18 39  1  0
 21 40  1  0
 22 41  1  0
M  END
>  <smiles>  (46) 
O=C(NCC(=O)N1CCCC(F)C1)c1ccc2cc(Cl)ccc2n1

>  <score_type>  (46) 
oracle

>  <origin>  (46) 
autodockgpu

>  <m_score__min__energy>  (46) 
-7.3200000000000003

>  <m_primary>  (46) 
energy

>  <rmsd>  (46) 
8.401255945175206

>  <m_score__min__rmsd>  (46) 
8.401255945175206

>  <meeko>  (46) 
{"free_energy": -7.13, "intermolecular_energy": -8.32, "internal_energy": -1.18, "cluster_size": 31, "cluster_id": 3, "rank_in_cluster": 21}

>  <energy>  (46) 
-6.96

>  <cluster_rmsd>  (46) 
1.03

>  <cluster>  (46) 
3

$$$$

     RDKit          3D

 41 43  0  0  0  0  0  0  0  0999 V2000
  141.5060   71.6220  221.2160 O   0  0  0  0  0  0  0  0  0  0  0  0
  140.7730   72.4630  221.7950 C   0  0  0  0  0  0  0  0  0  0  0  0
  139.7190   72.1100  222.6760 N   0  0  0  0  0  0  0  0  0  0  0  0
  139.4160   70.7450  222.9710 C   0  0  0  0  0  0  0  0  0  0  0  0
  138.9380   70.6670  224.3750 C   0  0  0  0  0  0  0  0  0  0  0  0
  137.6920   70.7850  224.5880 O   0  0  0  0  0  0  0  0  0  0  0  0
  139.8360   70.4690  225.4430 N   0  0  0  0  0  0  0  0  0  0  0  0
  140.7180   71.5200  225.8990 C   0  0  0  0  0  0  0  0  0  0  0  0
  140.8630   71.6120  227.3810 C   0  0  0  0  0  0  0  0  0  0  0  0
  141.0700   70.2280  227.9560 C   0  0  0  0  0  0  0  0  0  0  0  0
  139.8000   69.4490  227.5980 C   0  0  2  0  0  0  0  0  0  0  0  0
  139.7380   68.2750  228.3170 F   0  0  0  0  0  0  0  0  0  0  0  0
  139.8870   69.1810  226.1090 C   0  0  0  0  0  0  0  0  0  0  0  0
  141.0060   73.9010  221.5560 C   0  0  0  0  0  0  0  0  0  0  0  0
  141.9600   74.3350  220.6600 C   0  0  0  0  0  0  0  0  0  0  0  0
  142.2140   75.6640  220.4020 C   0  0  0  0  0  0  0  0  0  0  0  0
  141.4550   76.5940  221.0970 C   0  0  0  0  0  0  0  0  0  0  0  0
  141.6760   77.9470  220.8690 C   0  0  0  0  0  0  0  0  0  0  0  0
  140.9090   78.8690  221.5730 C   0  0  0  0  0  0  0  0  0  0  0  0
  141.1880   80.5750  221.2870 Cl  0  0  0  0  0  0  0  0  0  0  0  0
  139.9520   78.4880  222.4710 C   0  0  0  0  0  0  0  0  0  0  0  0
  139.7460   77.1250  222.6840 C   0  0  0  0  0  0  0  0  0  0  0  0
  140.4980   76.1700  221.9960 C   0  0  0  0  0  0  0  0  0  0  0  0
  140.3020   74.8510  222.1980 N   0  0  0  0  0  0  0  0  0  0  0  0
  139.1470   72.8810  223.1240 H   0  0  0  0  0  0  0  0  0  0  0  0
  138.6317   70.3825  222.2902 H   0  0  0  0  0  0  0  0  0  0  0  0
  140.3122   70.1208  222.8402 H   0  0  0  0  0  0  0  0  0  0  0  0
  141.7142   71.3428  225.4675 H   0  0  0  0  0  0  0  0  0  0  0  0
  140.2672   72.4683  225.5712 H   0  0  0  0  0  0  0  0  0  0  0  0
  141.7295   72.2438  227.6258 H   0  0  0  0  0  0  0  0  0  0  0  0
  139.9524   72.0545  227.8110 H   0  0  0  0  0  0  0  0  0  0  0  0
  141.9539   69.7520  227.5064 H   0  0  0  0  0  0  0  0  0  0  0  0
  141.2422   70.2560  229.0421 H   0  0  0  0  0  0  0  0  0  0  0  0
  138.8883   70.0130  227.8442 H   0  0  0  0  0  0  0  0  0  0  0  0
  140.8317   68.6700  225.8716 H   0  0  0  0  0  0  0  0  0  0  0  0
  139.0612   68.5344  225.7774 H   0  0  0  0  0  0  0  0  0  0  0  0
  142.5504   73.5787  220.1220 H   0  0  0  0  0  0  0  0  0  0  0  0
  142.9828   75.9733  219.6786 H   0  0  0  0  0  0  0  0  0  0  0  0
  142.4385   78.2803  220.1497 H   0  0  0  0  0  0  0  0  0  0  0  0
  139.3581   79.2386  223.0131 H   0  0  0  0  0  0  0  0  0  0  0  0
  138.9810   76.7978  223.4035 H   0  0  0  0  0  0  0  0  0  0  0  0
  1  2  2  0
  2  3  1  0
  3  4  1  0
  4  5  1  0
  5  6  2  0
  5  7  1  0
  7  8  1  0
  8  9  1  0
  9 10  1  0
 10 11  1  0
 11 12  1  0
 11 13  1  0
  2 14  1  0
 14 15  2  0
 15 16  1  0
 16 17  2  0
 17 18  1  0
 18 19  2  0
 19 20  1  0
 19 21  1  0
 21 22  2  0
 22 23  1  0
 23 24  2  0
 13  7  1  0
 24 14  1  0
 23 17  1  0
  3 25  1  0
  4 26  1  0
  4 27  1  0
  8 28  1  0
  8 29  1  0
  9 30  1  0
  9 31  1  0
 10 32  1  0
 10 33  1  0
 11 34  1  6
 13 35  1  0
 13 36  1  0
 15 37  1  0
 16 38  1  0
 18 39  1  0
 21 40  1  0
 22 41  1  0
M  END
>  <smiles>  (47) 
O=C(NCC(=O)N1CCCC(F)C1)c1ccc2cc(Cl)ccc2n1

>  <score_type>  (47) 
oracle

>  <origin>  (47) 
autodockgpu

>  <m_score__min__energy>  (47) 
-7.3200000000000003

>  <m_primary>  (47) 
energy

>  <rmsd>  (47) 
8.338130657284399

>  <m_score__min__rmsd>  (47) 
8.338130657284399

>  <meeko>  (47) 
{"free_energy": -7.12, "intermolecular_energy": -8.31, "internal_energy": -1.19, "cluster_size": 31, "cluster_id": 3, "rank_in_cluster": 22}

>  <energy>  (47) 
-6.85

>  <cluster_rmsd>  (47) 
0.95

>  <cluster>  (47) 
3

$$$$

     RDKit          3D

 41 43  0  0  0  0  0  0  0  0999 V2000
  141.0910   72.8560  221.1590 O   0  0  0  0  0  0  0  0  0  0  0  0
  140.2920   73.0310  222.1130 C   0  0  0  0  0  0  0  0  0  0  0  0
  139.4420   74.1610  222.2260 N   0  0  0  0  0  0  0  0  0  0  0  0
  139.4370   75.1950  221.2410 C   0  0  0  0  0  0  0  0  0  0  0  0
  139.3830   76.5040  221.9410 C   0  0  0  0  0  0  0  0  0  0  0  0
  138.3500   76.7690  222.6300 O   0  0  0  0  0  0  0  0  0  0  0  0
  140.4430   77.4290  221.8450 N   0  0  0  0  0  0  0  0  0  0  0  0
  140.8470   77.9910  220.5770 C   0  0  0  0  0  0  0  0  0  0  0  0
  141.1830   79.4450  220.6190 C   0  0  0  0  0  0  0  0  0  0  0  0
  142.0590   79.7270  221.8200 C   0  0  0  0  0  0  0  0  0  0  0  0
  141.2090   79.3460  223.0370 C   0  0  2  0  0  0  0  0  0  0  0  0
  141.7800   79.8340  224.1920 F   0  0  0  0  0  0  0  0  0  0  0  0
  141.1540   77.8330  223.0440 C   0  0  0  0  0  0  0  0  0  0  0  0
  140.2220   72.0180  223.1850 C   0  0  0  0  0  0  0  0  0  0  0  0
  139.6680   70.7740  222.9630 C   0  0  0  0  0  0  0  0  0  0  0  0
  139.5790   69.7970  223.9280 C   0  0  0  0  0  0  0  0  0  0  0  0
  140.0810   70.1070  225.1830 C   0  0  0  0  0  0  0  0  0  0  0  0
  140.0130   69.1510  226.1900 C   0  0  0  0  0  0  0  0  0  0  0  0
  140.5190   69.4750  227.4440 C   0  0  0  0  0  0  0  0  0  0  0  0
  140.4340   68.2710  228.7130 Cl  0  0  0  0  0  0  0  0  0  0  0  0
  141.0770   70.6930  227.7130 C   0  0  0  0  0  0  0  0  0  0  0  0
  141.1360   71.6380  226.6880 C   0  0  0  0  0  0  0  0  0  0  0  0
  140.6360   71.3480  225.4160 C   0  0  0  0  0  0  0  0  0  0  0  0
  140.6920   72.2590  224.4230 N   0  0  0  0  0  0  0  0  0  0  0  0
  138.7970   74.2330  223.0640 H   0  0  0  0  0  0  0  0  0  0  0  0
  140.3523   75.1351  220.6339 H   0  0  0  0  0  0  0  0  0  0  0  0
  138.5666   75.0831  220.5777 H   0  0  0  0  0  0  0  0  0  0  0  0
  141.7347   77.4439  220.2268 H   0  0  0  0  0  0  0  0  0  0  0  0
  139.9836   77.8905  219.9029 H   0  0  0  0  0  0  0  0  0  0  0  0
  141.7199   79.7237  219.7003 H   0  0  0  0  0  0  0  0  0  0  0  0
  140.2564   80.0328  220.6956 H   0  0  0  0  0  0  0  0  0  0  0  0
  142.9734   79.1167  221.7821 H   0  0  0  0  0  0  0  0  0  0  0  0
  142.3802   80.7784  221.8563 H   0  0  0  0  0  0  0  0  0  0  0  0
  140.1979   79.7759  222.9840 H   0  0  0  0  0  0  0  0  0  0  0  0
  142.1726   77.4179  223.0372 H   0  0  0  0  0  0  0  0  0  0  0  0
  140.6448   77.4627  223.9460 H   0  0  0  0  0  0  0  0  0  0  0  0
  139.2760   70.5510  221.9597 H   0  0  0  0  0  0  0  0  0  0  0  0
  139.1305   68.8157  223.7138 H   0  0  0  0  0  0  0  0  0  0  0  0
  139.5698   68.1624  225.9995 H   0  0  0  0  0  0  0  0  0  0  0  0
  141.4705   70.9231  228.7141 H   0  0  0  0  0  0  0  0  0  0  0  0
  141.5820   72.6242  226.8840 H   0  0  0  0  0  0  0  0  0  0  0  0
  1  2  2  0
  2  3  1  0
  3  4  1  0
  4  5  1  0
  5  6  2  0
  5  7  1  0
  7  8  1  0
  8  9  1  0
  9 10  1  0
 10 11  1  0
 11 12  1  0
 11 13  1  0
  2 14  1  0
 14 15  2  0
 15 16  1  0
 16 17  2  0
 17 18  1  0
 18 19  2  0
 19 20  1  0
 19 21  1  0
 21 22  2  0
 22 23  1  0
 23 24  2  0
 13  7  1  0
 24 14  1  0
 23 17  1  0
  3 25  1  0
  4 26  1  0
  4 27  1  0
  8 28  1  0
  8 29  1  0
  9 30  1  0
  9 31  1  0
 10 32  1  0
 10 33  1  0
 11 34  1  6
 13 35  1  0
 13 36  1  0
 15 37  1  0
 16 38  1  0
 18 39  1  0
 21 40  1  0
 22 41  1  0
M  END
>  <smiles>  (48) 
O=C(NCC(=O)N1CCCC(F)C1)c1ccc2cc(Cl)ccc2n1

>  <score_type>  (48) 
oracle

>  <origin>  (48) 
autodockgpu

>  <m_score__min__energy>  (48) 
-7.3200000000000003

>  <m_primary>  (48) 
energy

>  <rmsd>  (48) 
3.177784798029299

>  <m_score__min__rmsd>  (48) 
3.177784798029299

>  <meeko>  (48) 
{"free_energy": -7.24, "intermolecular_energy": -8.44, "internal_energy": -0.96, "cluster_size": 13, "cluster_id": 1, "rank_in_cluster": 10}

>  <energy>  (48) 
-6.81

>  <cluster_rmsd>  (48) 
1.08

>  <cluster>  (48) 
3

$$$$

     RDKit          3D

 41 43  0  0  0  0  0  0  0  0999 V2000
  141.6330   72.1240  220.8460 O   0  0  0  0  0  0  0  0  0  0  0  0
  140.9900   72.9400  221.5530 C   0  0  0  0  0  0  0  0  0  0  0  0
  140.0760   72.5510  222.5640 N   0  0  0  0  0  0  0  0  0  0  0  0
  139.8200   71.1750  222.8530 C   0  0  0  0  0  0  0  0  0  0  0  0
  139.2290   71.0870  224.2130 C   0  0  0  0  0  0  0  0  0  0  0  0
  138.0150   71.4310  224.3580 O   0  0  0  0  0  0  0  0  0  0  0  0
  139.9870   70.6350  225.3120 N   0  0  0  0  0  0  0  0  0  0  0  0
  140.7620   71.5460  226.1240 C   0  0  0  0  0  0  0  0  0  0  0  0
  140.7100   71.2710  227.5900 C   0  0  0  0  0  0  0  0  0  0  0  0
  140.8910   69.7890  227.8340 C   0  0  0  0  0  0  0  0  0  0  0  0
  139.7090   69.1170  227.1280 C   0  0  2  0  0  0  0  0  0  0  0  0
  139.5970   67.8020  227.5260 F   0  0  0  0  0  0  0  0  0  0  0  0
  139.9980   69.2240  225.6450 C   0  0  0  0  0  0  0  0  0  0  0  0
  141.1840   74.3880  221.3320 C   0  0  0  0  0  0  0  0  0  0  0  0
  142.0180   74.8570  220.3400 C   0  0  0  0  0  0  0  0  0  0  0  0
  142.2320   76.1960  220.0950 C   0  0  0  0  0  0  0  0  0  0  0  0
  141.5590   77.0970  220.9060 C   0  0  0  0  0  0  0  0  0  0  0  0
  141.7430   78.4590  220.6960 C   0  0  0  0  0  0  0  0  0  0  0  0
  141.0630   79.3510  221.5170 C   0  0  0  0  0  0  0  0  0  0  0  0
  141.2950   81.0670  221.2520 Cl  0  0  0  0  0  0  0  0  0  0  0  0
  140.2260   78.9340  222.5130 C   0  0  0  0  0  0  0  0  0  0  0  0
  140.0550   77.5640  222.7070 C   0  0  0  0  0  0  0  0  0  0  0  0
  140.7220   76.6370  221.9020 C   0  0  0  0  0  0  0  0  0  0  0  0
  140.5590   75.3110  222.0860 N   0  0  0  0  0  0  0  0  0  0  0  0
  139.5740   73.3030  223.1170 H   0  0  0  0  0  0  0  0  0  0  0  0
  139.1162   70.7643  222.1141 H   0  0  0  0  0  0  0  0  0  0  0  0
  140.7551   70.5975  222.8077 H   0  0  0  0  0  0  0  0  0  0  0  0
  141.8117   71.4853  225.8007 H   0  0  0  0  0  0  0  0  0  0  0  0
  140.3222   72.5437  225.9786 H   0  0  0  0  0  0  0  0  0  0  0  0
  141.5138   71.8263  228.0956 H   0  0  0  0  0  0  0  0  0  0  0  0
  139.7356   71.5908  227.9878 H   0  0  0  0  0  0  0  0  0  0  0  0
  141.8433   69.4415  227.4070 H   0  0  0  0  0  0  0  0  0  0  0  0
  140.9180   69.5499  228.9074 H   0  0  0  0  0  0  0  0  0  0  0  0
  138.7525   69.5997  227.3772 H   0  0  0  0  0  0  0  0  0  0  0  0
  140.9835   68.7904  225.4199 H   0  0  0  0  0  0  0  0  0  0  0  0
  139.2462   68.6761  225.0579 H   0  0  0  0  0  0  0  0  0  0  0  0
  142.5411   74.1227  219.7098 H   0  0  0  0  0  0  0  0  0  0  0  0
  142.9052   76.5343  219.2935 H   0  0  0  0  0  0  0  0  0  0  0  0
  142.4100   78.8216  219.9000 H   0  0  0  0  0  0  0  0  0  0  0  0
  139.6992   79.6623  223.1472 H   0  0  0  0  0  0  0  0  0  0  0  0
  139.3861   77.2082  223.5044 H   0  0  0  0  0  0  0  0  0  0  0  0
  1  2  2  0
  2  3  1  0
  3  4  1  0
  4  5  1  0
  5  6  2  0
  5  7  1  0
  7  8  1  0
  8  9  1  0
  9 10  1  0
 10 11  1  0
 11 12  1  0
 11 13  1  0
  2 14  1  0
 14 15  2  0
 15 16  1  0
 16 17  2  0
 17 18  1  0
 18 19  2  0
 19 20  1  0
 19 21  1  0
 21 22  2  0
 22 23  1  0
 23 24  2  0
 13  7  1  0
 24 14  1  0
 23 17  1  0
  3 25  1  0
  4 26  1  0
  4 27  1  0
  8 28  1  0
  8 29  1  0
  9 30  1  0
  9 31  1  0
 10 32  1  0
 10 33  1  0
 11 34  1  6
 13 35  1  0
 13 36  1  0
 15 37  1  0
 16 38  1  0
 18 39  1  0
 21 40  1  0
 22 41  1  0
M  END
>  <smiles>  (49) 
O=C(NCC(=O)N1CCCC(F)C1)c1ccc2cc(Cl)ccc2n1

>  <score_type>  (49) 
oracle

>  <origin>  (49) 
autodockgpu

>  <m_score__min__energy>  (49) 
-7.3200000000000003

>  <m_primary>  (49) 
energy

>  <rmsd>  (49) 
8.512673386402165

>  <m_score__min__rmsd>  (49) 
8.512673386402165

>  <meeko>  (49) 
{"free_energy": -7.14, "intermolecular_energy": -8.33, "internal_energy": -1.2, "cluster_size": 31, "cluster_id": 3, "rank_in_cluster": 9}

>  <energy>  (49) 
-6.71

>  <cluster_rmsd>  (49) 
1.6

>  <cluster>  (49) 
3

$$$$

     RDKit          3D

 41 43  0  0  0  0  0  0  0  0999 V2000
  141.6640   72.1280  220.8750 O   0  0  0  0  0  0  0  0  0  0  0  0
  141.0050   72.9430  221.5680 C   0  0  0  0  0  0  0  0  0  0  0  0
  140.0790   72.5540  222.5690 N   0  0  0  0  0  0  0  0  0  0  0  0
  139.8300   71.1780  222.8630 C   0  0  0  0  0  0  0  0  0  0  0  0
  139.2390   71.0920  224.2230 C   0  0  0  0  0  0  0  0  0  0  0  0
  138.0310   71.4570  224.3710 O   0  0  0  0  0  0  0  0  0  0  0  0
  139.9900   70.6210  225.3190 N   0  0  0  0  0  0  0  0  0  0  0  0
  140.7700   71.5150  226.1440 C   0  0  0  0  0  0  0  0  0  0  0  0
  140.7110   71.2240  227.6060 C   0  0  0  0  0  0  0  0  0  0  0  0
  140.8780   69.7380  227.8340 C   0  0  0  0  0  0  0  0  0  0  0  0
  139.6920   69.0850  227.1170 C   0  0  2  0  0  0  0  0  0  0  0  0
  139.5670   67.7670  227.4990 F   0  0  0  0  0  0  0  0  0  0  0  0
  139.9870   69.2060  225.6370 C   0  0  0  0  0  0  0  0  0  0  0  0
  141.1900   74.3910  221.3400 C   0  0  0  0  0  0  0  0  0  0  0  0
  142.0100   74.8610  220.3360 C   0  0  0  0  0  0  0  0  0  0  0  0
  142.2150   76.1990  220.0840 C   0  0  0  0  0  0  0  0  0  0  0  0
  141.5490   77.1000  220.9010 C   0  0  0  0  0  0  0  0  0  0  0  0
  141.7250   78.4620  220.6840 C   0  0  0  0  0  0  0  0  0  0  0  0
  141.0510   79.3550  221.5100 C   0  0  0  0  0  0  0  0  0  0  0  0
  141.2730   81.0710  221.2380 Cl  0  0  0  0  0  0  0  0  0  0  0  0
  140.2280   78.9380  222.5180 C   0  0  0  0  0  0  0  0  0  0  0  0
  140.0650   77.5670  222.7180 C   0  0  0  0  0  0  0  0  0  0  0  0
  140.7260   76.6400  221.9090 C   0  0  0  0  0  0  0  0  0  0  0  0
  140.5700   75.3140  222.0980 N   0  0  0  0  0  0  0  0  0  0  0  0
  139.5630   73.3060  223.1090 H   0  0  0  0  0  0  0  0  0  0  0  0
  139.1286   70.7609  222.1254 H   0  0  0  0  0  0  0  0  0  0  0  0
  140.7681   70.6052  222.8202 H   0  0  0  0  0  0  0  0  0  0  0  0
  141.8202   71.4486  225.8234 H   0  0  0  0  0  0  0  0  0  0  0  0
  140.3392   72.5181  226.0090 H   0  0  0  0  0  0  0  0  0  0  0  0
  141.5181   71.7664  228.1202 H   0  0  0  0  0  0  0  0  0  0  0  0
  139.7382   71.5479  228.0043 H   0  0  0  0  0  0  0  0  0  0  0  0
  141.8284   69.3866  227.4059 H   0  0  0  0  0  0  0  0  0  0  0  0
  140.8998   69.4866  228.9047 H   0  0  0  0  0  0  0  0  0  0  0  0
  138.7392   69.5736  227.3691 H   0  0  0  0  0  0  0  0  0  0  0  0
  140.9694   68.7659  225.4105 H   0  0  0  0  0  0  0  0  0  0  0  0
  139.2321   68.6717  225.0415 H   0  0  0  0  0  0  0  0  0  0  0  0
  142.5286   74.1270  219.7018 H   0  0  0  0  0  0  0  0  0  0  0  0
  142.8761   76.5374  219.2726 H   0  0  0  0  0  0  0  0  0  0  0  0
  142.3812   78.8243  219.8789 H   0  0  0  0  0  0  0  0  0  0  0  0
  139.7064   79.6661  223.1566 H   0  0  0  0  0  0  0  0  0  0  0  0
  139.4067   77.2111  223.5242 H   0  0  0  0  0  0  0  0  0  0  0  0
  1  2  2  0
  2  3  1  0
  3  4  1  0
  4  5  1  0
  5  6  2  0
  5  7  1  0
  7  8  1  0
  8  9  1  0
  9 10  1  0
 10 11  1  0
 11 12  1  0
 11 13  1  0
  2 14  1  0
 14 15  2  0
 15 16  1  0
 16 17  2  0
 17 18  1  0
 18 19  2  0
 19 20  1  0
 19 21  1  0
 21 22  2  0
 22 23  1  0
 23 24  2  0
 13  7  1  0
 24 14  1  0
 23 17  1  0
  3 25  1  0
  4 26  1  0
  4 27  1  0
  8 28  1  0
  8 29  1  0
  9 30  1  0
  9 31  1  0
 10 32  1  0
 10 33  1  0
 11 34  1  6
 13 35  1  0
 13 36  1  0
 15 37  1  0
 16 38  1  0
 18 39  1  0
 21 40  1  0
 22 41  1  0
M  END
>  <smiles>  (50) 
O=C(NCC(=O)N1CCCC(F)C1)c1ccc2cc(Cl)ccc2n1

>  <score_type>  (50) 
oracle

>  <origin>  (50) 
autodockgpu

>  <m_score__min__energy>  (50) 
-7.3200000000000003

>  <m_primary>  (50) 
energy

>  <rmsd>  (50) 
8.522198075372996

>  <m_score__min__rmsd>  (50) 
8.522198075372996

>  <meeko>  (50) 
{"free_energy": -7.14, "intermolecular_energy": -8.33, "internal_energy": -1.2, "cluster_size": 31, "cluster_id": 3, "rank_in_cluster": 11}

>  <energy>  (50) 
-6.68

>  <cluster_rmsd>  (50) 
1.55

>  <cluster>  (50) 
3

$$$$

     RDKit          3D

 41 43  0  0  0  0  0  0  0  0999 V2000
  140.2720   72.7650  220.8300 O   0  0  0  0  0  0  0  0  0  0  0  0
  139.9290   73.0570  221.9880 C   0  0  0  0  0  0  0  0  0  0  0  0
  139.5180   74.3490  222.3530 N   0  0  0  0  0  0  0  0  0  0  0  0
  139.4650   75.4370  221.3860 C   0  0  0  0  0  0  0  0  0  0  0  0
  140.7160   76.2360  221.4110 C   0  0  0  0  0  0  0  0  0  0  0  0
  141.8050   75.6860  221.1050 O   0  0  0  0  0  0  0  0  0  0  0  0
  140.6040   77.6030  221.7870 N   0  0  0  0  0  0  0  0  0  0  0  0
  141.5440   78.6240  221.3600 C   0  0  0  0  0  0  0  0  0  0  0  0
  142.2230   79.2740  222.5510 C   0  0  0  0  0  0  0  0  0  0  0  0
  141.4340   78.9960  223.8140 C   0  0  0  0  0  0  0  0  0  0  0  0
  139.9700   79.2030  223.4410 C   0  0  1  0  0  0  0  0  0  0  0  0
  139.9200   80.3610  222.6730 F   0  0  0  0  0  0  0  0  0  0  0  0
  139.5010   78.0120  222.6400 C   0  0  0  0  0  0  0  0  0  0  0  0
  139.9590   71.9990  223.0180 C   0  0  0  0  0  0  0  0  0  0  0  0
  139.5170   70.7190  222.7320 C   0  0  0  0  0  0  0  0  0  0  0  0
  139.5460   69.7320  223.6960 C   0  0  0  0  0  0  0  0  0  0  0  0
  140.0210   70.0270  224.9610 C   0  0  0  0  0  0  0  0  0  0  0  0
  140.0880   69.1160  225.9780 C   0  0  0  0  0  0  0  0  0  0  0  0
  140.5830   69.5060  227.2200 C   0  0  0  0  0  0  0  0  0  0  0  0
  140.6780   68.3550  228.5410 Cl  0  0  0  0  0  0  0  0  0  0  0  0
  141.0090   70.7850  227.4570 C   0  0  0  0  0  0  0  0  0  0  0  0
  140.9410   71.6950  226.4320 C   0  0  0  0  0  0  0  0  0  0  0  0
  140.4470   71.3040  225.1970 C   0  0  0  0  0  0  0  0  0  0  0  0
  140.4080   72.2440  224.2420 N   0  0  0  0  0  0  0  0  0  0  0  0
  139.2430   74.5220  223.3510 H   0  0  0  0  0  0  0  0  0  0  0  0
  139.3276   75.0162  220.3790 H   0  0  0  0  0  0  0  0  0  0  0  0
  138.6242   76.0962  221.6477 H   0  0  0  0  0  0  0  0  0  0  0  0
  142.3089   78.1623  220.7183 H   0  0  0  0  0  0  0  0  0  0  0  0
  140.9916   79.3982  220.8074 H   0  0  0  0  0  0  0  0  0  0  0  0
  143.2386   78.8654  222.6588 H   0  0  0  0  0  0  0  0  0  0  0  0
  142.2728   80.3608  222.3888 H   0  0  0  0  0  0  0  0  0  0  0  0
  141.6013   77.9623  224.1509 H   0  0  0  0  0  0  0  0  0  0  0  0
  141.7403   79.6578  224.6375 H   0  0  0  0  0  0  0  0  0  0  0  0
  139.3228   79.2997  224.3252 H   0  0  0  0  0  0  0  0  0  0  0  0
  139.2230   77.1898  223.3158 H   0  0  0  0  0  0  0  0  0  0  0  0
  138.6182   78.2715  222.0372 H   0  0  0  0  0  0  0  0  0  0  0  0
  139.1386   70.4860  221.7257 H   0  0  0  0  0  0  0  0  0  0  0  0
  139.1936   68.7171  223.4598 H   0  0  0  0  0  0  0  0  0  0  0  0
  139.7529   68.0808  225.8163 H   0  0  0  0  0  0  0  0  0  0  0  0
  141.3963   71.0762  228.4445 H   0  0  0  0  0  0  0  0  0  0  0  0
  141.2771   72.7305  226.5897 H   0  0  0  0  0  0  0  0  0  0  0  0
  1  2  2  0
  2  3  1  0
  3  4  1  0
  4  5  1  0
  5  6  2  0
  5  7  1  0
  7  8  1  0
  8  9  1  0
  9 10  1  0
 10 11  1  0
 11 12  1  0
 11 13  1  0
  2 14  1  0
 14 15  2  0
 15 16  1  0
 16 17  2  0
 17 18  1  0
 18 19  2  0
 19 20  1  0
 19 21  1  0
 21 22  2  0
 22 23  1  0
 23 24  2  0
 13  7  1  0
 24 14  1  0
 23 17  1  0
  3 25  1  0
  4 26  1  0
  4 27  1  0
  8 28  1  0
  8 29  1  0
  9 30  1  0
  9 31  1  0
 10 32  1  0
 10 33  1  0
 11 34  1  1
 13 35  1  0
 13 36  1  0
 15 37  1  0
 16 38  1  0
 18 39  1  0
 21 40  1  0
 22 41  1  0
M  END
>  <smiles>  (51) 
O=C(NCC(=O)N1CCCC(F)C1)c1ccc2cc(Cl)ccc2n1

>  <score_type>  (51) 
oracle

>  <origin>  (51) 
autodockgpu

>  <m_score__min__energy>  (51) 
-7.4400000000000004

>  <m_primary>  (51) 
energy

>  <rmsd>  (51) 
3.4077793551943216

>  <m_score__min__rmsd>  (51) 
3.4077793551943216

>  <meeko>  (51) 
{"free_energy": -7.4, "intermolecular_energy": -8.59, "internal_energy": -0.91, "cluster_size": 23, "cluster_id": 1, "rank_in_cluster": 5}

>  <energy>  (51) 
-7.44

>  <cluster_rmsd>  (51) 
0.0

>  <cluster>  (51) 
1

$$$$

     RDKit          3D

 41 43  0  0  0  0  0  0  0  0999 V2000
  141.0490   73.7310  220.7670 O   0  0  0  0  0  0  0  0  0  0  0  0
  140.3270   73.8090  221.7740 C   0  0  0  0  0  0  0  0  0  0  0  0
  139.8100   75.0270  222.2440 N   0  0  0  0  0  0  0  0  0  0  0  0
  140.0900   76.2870  221.5710 C   0  0  0  0  0  0  0  0  0  0  0  0
  139.5600   77.4380  222.3460 C   0  0  0  0  0  0  0  0  0  0  0  0
  138.5460   77.2760  223.0730 O   0  0  0  0  0  0  0  0  0  0  0  0
  140.2450   78.6770  222.2160 N   0  0  0  0  0  0  0  0  0  0  0  0
  141.5780   78.7920  221.6550 C   0  0  0  0  0  0  0  0  0  0  0  0
  142.5470   79.3790  222.6650 C   0  0  0  0  0  0  0  0  0  0  0  0
  141.7840   80.0660  223.7790 C   0  0  0  0  0  0  0  0  0  0  0  0
  140.6730   80.8550  223.0940 C   0  0  1  0  0  0  0  0  0  0  0  0
  141.2520   81.4680  221.9880 F   0  0  0  0  0  0  0  0  0  0  0  0
  139.5900   79.8950  222.6640 C   0  0  0  0  0  0  0  0  0  0  0  0
  140.0040   72.5660  222.5050 C   0  0  0  0  0  0  0  0  0  0  0  0
  139.0620   71.6800  222.0130 C   0  0  0  0  0  0  0  0  0  0  0  0
  138.7620   70.5200  222.6960 C   0  0  0  0  0  0  0  0  0  0  0  0
  139.4100   70.2410  223.8870 C   0  0  0  0  0  0  0  0  0  0  0  0
  139.1790   69.1200  224.6320 C   0  0  0  0  0  0  0  0  0  0  0  0
  139.8810   68.9250  225.8190 C   0  0  0  0  0  0  0  0  0  0  0  0
  139.6020   67.4920  226.7930 Cl  0  0  0  0  0  0  0  0  0  0  0  0
  140.8040   69.8310  226.2670 C   0  0  0  0  0  0  0  0  0  0  0  0
  141.0330   70.9550  225.5140 C   0  0  0  0  0  0  0  0  0  0  0  0
  140.3320   71.1460  224.3330 C   0  0  0  0  0  0  0  0  0  0  0  0
  140.6040   72.2660  223.6490 N   0  0  0  0  0  0  0  0  0  0  0  0
  139.2070   75.0150  223.1030 H   0  0  0  0  0  0  0  0  0  0  0  0
  141.1784   76.4002  221.4592 H   0  0  0  0  0  0  0  0  0  0  0  0
  139.5989   76.2734  220.5868 H   0  0  0  0  0  0  0  0  0  0  0  0
  141.9301   77.7932  221.3578 H   0  0  0  0  0  0  0  0  0  0  0  0
  141.5337   79.4615  220.7833 H   0  0  0  0  0  0  0  0  0  0  0  0
  143.1632   78.5727  223.0894 H   0  0  0  0  0  0  0  0  0  0  0  0
  143.1902   80.1156  222.1613 H   0  0  0  0  0  0  0  0  0  0  0  0
  141.3572   79.3215  224.4672 H   0  0  0  0  0  0  0  0  0  0  0  0
  142.4376   80.7198  224.3751 H   0  0  0  0  0  0  0  0  0  0  0  0
  140.2223   81.6062  223.7592 H   0  0  0  0  0  0  0  0  0  0  0  0
  138.9242   79.6745  223.5114 H   0  0  0  0  0  0  0  0  0  0  0  0
  138.9821   80.3298  221.8569 H   0  0  0  0  0  0  0  0  0  0  0  0
  138.5469   71.9032  221.0670 H   0  0  0  0  0  0  0  0  0  0  0  0
  138.0124   69.8208  222.2968 H   0  0  0  0  0  0  0  0  0  0  0  0
  138.4425   68.3751  224.2964 H   0  0  0  0  0  0  0  0  0  0  0  0
  141.3488   69.6622  227.2076 H   0  0  0  0  0  0  0  0  0  0  0  0
  141.7697   71.7015  225.8459 H   0  0  0  0  0  0  0  0  0  0  0  0
  1  2  2  0
  2  3  1  0
  3  4  1  0
  4  5  1  0
  5  6  2  0
  5  7  1  0
  7  8  1  0
  8  9  1  0
  9 10  1  0
 10 11  1  0
 11 12  1  0
 11 13  1  0
  2 14  1  0
 14 15  2  0
 15 16  1  0
 16 17  2  0
 17 18  1  0
 18 19  2  0
 19 20  1  0
 19 21  1  0
 21 22  2  0
 22 23  1  0
 23 24  2  0
 13  7  1  0
 24 14  1  0
 23 17  1  0
  3 25  1  0
  4 26  1  0
  4 27  1  0
  8 28  1  0
  8 29  1  0
  9 30  1  0
  9 31  1  0
 10 32  1  0
 10 33  1  0
 11 34  1  1
 13 35  1  0
 13 36  1  0
 15 37  1  0
 16 38  1  0
 18 39  1  0
 21 40  1  0
 22 41  1  0
M  END
>  <smiles>  (52) 
O=C(NCC(=O)N1CCCC(F)C1)c1ccc2cc(Cl)ccc2n1

>  <score_type>  (52) 
oracle

>  <origin>  (52) 
autodockgpu

>  <m_score__min__energy>  (52) 
-7.4400000000000004

>  <m_primary>  (52) 
energy

>  <rmsd>  (52) 
4.16832538032337

>  <m_score__min__rmsd>  (52) 
4.16832538032337

>  <meeko>  (52) 
{"free_energy": -6.99, "intermolecular_energy": -8.18, "internal_energy": -1.15, "cluster_size": 23, "cluster_id": 1, "rank_in_cluster": 16}

>  <energy>  (52) 
-7.43

>  <cluster_rmsd>  (52) 
0.17

>  <cluster>  (52) 
1

$$$$

     RDKit          3D

 41 43  0  0  0  0  0  0  0  0999 V2000
  140.2210   72.8690  220.7720 O   0  0  0  0  0  0  0  0  0  0  0  0
  139.8880   73.1280  221.9400 C   0  0  0  0  0  0  0  0  0  0  0  0
  139.4690   74.4050  222.3440 N   0  0  0  0  0  0  0  0  0  0  0  0
  139.3970   75.5180  221.4090 C   0  0  0  0  0  0  0  0  0  0  0  0
  138.8670   76.7390  222.0680 C   0  0  0  0  0  0  0  0  0  0  0  0
  137.7510   76.6910  222.6460 O   0  0  0  0  0  0  0  0  0  0  0  0
  139.6700   77.9100  222.0040 N   0  0  0  0  0  0  0  0  0  0  0  0
  141.1220   77.8800  222.0200 C   0  0  0  0  0  0  0  0  0  0  0  0
  141.6700   78.6440  223.2110 C   0  0  0  0  0  0  0  0  0  0  0  0
  140.6060   79.5610  223.7750 C   0  0  0  0  0  0  0  0  0  0  0  0
  139.9390   80.2140  222.5680 C   0  0  1  0  0  0  0  0  0  0  0  0
  140.9650   80.5720  221.7000 F   0  0  0  0  0  0  0  0  0  0  0  0
  139.0200   79.2070  221.9190 C   0  0  0  0  0  0  0  0  0  0  0  0
  139.9370   72.0420  222.9410 C   0  0  0  0  0  0  0  0  0  0  0  0
  139.5030   70.7660  222.6250 C   0  0  0  0  0  0  0  0  0  0  0  0
  139.5510   69.7540  223.5600 C   0  0  0  0  0  0  0  0  0  0  0  0
  140.0370   70.0180  224.8290 C   0  0  0  0  0  0  0  0  0  0  0  0
  140.1220   69.0810  225.8200 C   0  0  0  0  0  0  0  0  0  0  0  0
  140.6260   69.4410  227.0670 C   0  0  0  0  0  0  0  0  0  0  0  0
  140.7450   68.2550  228.3550 Cl  0  0  0  0  0  0  0  0  0  0  0  0
  141.0440   70.7170  227.3340 C   0  0  0  0  0  0  0  0  0  0  0  0
  140.9570   71.6540  226.3350 C   0  0  0  0  0  0  0  0  0  0  0  0
  140.4540   71.2920  225.0950 C   0  0  0  0  0  0  0  0  0  0  0  0
  140.3970   72.2580  224.1670 N   0  0  0  0  0  0  0  0  0  0  0  0
  139.2030   74.5480  223.3500 H   0  0  0  0  0  0  0  0  0  0  0  0
  140.4052   75.7277  221.0224 H   0  0  0  0  0  0  0  0  0  0  0  0
  138.7174   75.2413  220.5895 H   0  0  0  0  0  0  0  0  0  0  0  0
  141.4593   76.8346  222.0775 H   0  0  0  0  0  0  0  0  0  0  0  0
  141.4919   78.3550  221.0994 H   0  0  0  0  0  0  0  0  0  0  0  0
  141.9845   77.9309  223.9873 H   0  0  0  0  0  0  0  0  0  0  0  0
  142.5304   79.2476  222.8866 H   0  0  0  0  0  0  0  0  0  0  0  0
  139.8700   78.9836  224.3538 H   0  0  0  0  0  0  0  0  0  0  0  0
  141.0363   80.3108  224.4552 H   0  0  0  0  0  0  0  0  0  0  0  0
  139.3427   81.0959  222.8448 H   0  0  0  0  0  0  0  0  0  0  0  0
  138.0565   79.1805  222.4490 H   0  0  0  0  0  0  0  0  0  0  0  0
  138.8255   79.4768  220.8705 H   0  0  0  0  0  0  0  0  0  0  0  0
  139.1156   70.5573  221.6169 H   0  0  0  0  0  0  0  0  0  0  0  0
  139.2052   68.7429  223.2992 H   0  0  0  0  0  0  0  0  0  0  0  0
  139.7939   68.0477  225.6336 H   0  0  0  0  0  0  0  0  0  0  0  0
  141.4398   70.9847  228.3248 H   0  0  0  0  0  0  0  0  0  0  0  0
  141.2850   72.6880  226.5175 H   0  0  0  0  0  0  0  0  0  0  0  0
  1  2  2  0
  2  3  1  0
  3  4  1  0
  4  5  1  0
  5  6  2  0
  5  7  1  0
  7  8  1  0
  8  9  1  0
  9 10  1  0
 10 11  1  0
 11 12  1  0
 11 13  1  0
  2 14  1  0
 14 15  2  0
 15 16  1  0
 16 17  2  0
 17 18  1  0
 18 19  2  0
 19 20  1  0
 19 21  1  0
 21 22  2  0
 22 23  1  0
 23 24  2  0
 13  7  1  0
 24 14  1  0
 23 17  1  0
  3 25  1  0
  4 26  1  0
  4 27  1  0
  8 28  1  0
  8 29  1  0
  9 30  1  0
  9 31  1  0
 10 32  1  0
 10 33  1  0
 11 34  1  1
 13 35  1  0
 13 36  1  0
 15 37  1  0
 16 38  1  0
 18 39  1  0
 21 40  1  0
 22 41  1  0
M  END
>  <smiles>  (53) 
O=C(NCC(=O)N1CCCC(F)C1)c1ccc2cc(Cl)ccc2n1

>  <score_type>  (53) 
oracle

>  <origin>  (53) 
autodockgpu

>  <m_score__min__energy>  (53) 
-7.4400000000000004

>  <m_primary>  (53) 
energy

>  <rmsd>  (53) 
3.564190390137889

>  <m_score__min__rmsd>  (53) 
3.564190390137889

>  <meeko>  (53) 
{"free_energy": -7.13, "intermolecular_energy": -8.32, "internal_energy": -1.02, "cluster_size": 23, "cluster_id": 1, "rank_in_cluster": 9}

>  <energy>  (53) 
-7.43

>  <cluster_rmsd>  (53) 
0.19

>  <cluster>  (53) 
1

$$$$

     RDKit          3D

 41 43  0  0  0  0  0  0  0  0999 V2000
  141.3270   71.7120  221.1420 O   0  0  0  0  0  0  0  0  0  0  0  0
  140.6610   72.5630  221.7550 C   0  0  0  0  0  0  0  0  0  0  0  0
  139.6600   72.2210  222.6770 N   0  0  0  0  0  0  0  0  0  0  0  0
  139.3370   70.8340  222.9780 C   0  0  0  0  0  0  0  0  0  0  0  0
  138.5130   70.7300  224.2090 C   0  0  0  0  0  0  0  0  0  0  0  0
  137.2680   70.8930  224.1320 O   0  0  0  0  0  0  0  0  0  0  0  0
  139.1950   70.4460  225.4230 N   0  0  0  0  0  0  0  0  0  0  0  0
  140.2330   71.3000  225.9700 C   0  0  0  0  0  0  0  0  0  0  0  0
  141.5470   70.5510  226.0940 C   0  0  0  0  0  0  0  0  0  0  0  0
  141.3020   69.0580  226.0340 C   0  0  0  0  0  0  0  0  0  0  0  0
  140.0800   68.8030  226.9120 C   0  0  1  0  0  0  0  0  0  0  0  0
  140.2570   69.5670  228.0610 F   0  0  0  0  0  0  0  0  0  0  0  0
  138.8450   69.2450  226.1640 C   0  0  0  0  0  0  0  0  0  0  0  0
  140.9380   73.9910  221.4970 C   0  0  0  0  0  0  0  0  0  0  0  0
  141.8800   74.3710  220.5560 C   0  0  0  0  0  0  0  0  0  0  0  0
  142.1370   75.7050  220.3170 C   0  0  0  0  0  0  0  0  0  0  0  0
  141.4460   76.6720  221.0250 C   0  0  0  0  0  0  0  0  0  0  0  0
  141.6320   78.0150  220.8570 C   0  0  0  0  0  0  0  0  0  0  0  0
  140.8890   78.9140  221.6170 C   0  0  0  0  0  0  0  0  0  0  0  0
  141.1110   80.6440  221.4180 Cl  0  0  0  0  0  0  0  0  0  0  0  0
  139.9680   78.4910  222.5370 C   0  0  0  0  0  0  0  0  0  0  0  0
  139.7840   77.1410  222.7010 C   0  0  0  0  0  0  0  0  0  0  0  0
  140.5260   76.2490  221.9440 C   0  0  0  0  0  0  0  0  0  0  0  0
  140.2960   74.9450  222.1570 N   0  0  0  0  0  0  0  0  0  0  0  0
  139.1370   72.9960  223.1570 H   0  0  0  0  0  0  0  0  0  0  0  0
  138.7772   70.4046  222.1341 H   0  0  0  0  0  0  0  0  0  0  0  0
  140.2762   70.2846  223.1398 H   0  0  0  0  0  0  0  0  0  0  0  0
  140.3738   72.1651  225.3054 H   0  0  0  0  0  0  0  0  0  0  0  0
  139.9224   71.6294  226.9725 H   0  0  0  0  0  0  0  0  0  0  0  0
  142.2122   70.8441  225.2684 H   0  0  0  0  0  0  0  0  0  0  0  0
  142.0145   70.8009  227.0578 H   0  0  0  0  0  0  0  0  0  0  0  0
  141.1026   68.7436  224.9989 H   0  0  0  0  0  0  0  0  0  0  0  0
  142.1770   68.4893  226.3818 H   0  0  0  0  0  0  0  0  0  0  0  0
  139.9641   67.7399  227.1698 H   0  0  0  0  0  0  0  0  0  0  0  0
  138.5224   68.4550  225.4698 H   0  0  0  0  0  0  0  0  0  0  0  0
  138.0180   69.4448  226.8613 H   0  0  0  0  0  0  0  0  0  0  0  0
  142.4289   73.6014  219.9934 H   0  0  0  0  0  0  0  0  0  0  0  0
  142.8871   75.9982  219.5677 H   0  0  0  0  0  0  0  0  0  0  0  0
  142.3652   78.3841  220.1248 H   0  0  0  0  0  0  0  0  0  0  0  0
  139.3899   79.2150  223.1300 H   0  0  0  0  0  0  0  0  0  0  0  0
  139.0501   76.7685  223.4308 H   0  0  0  0  0  0  0  0  0  0  0  0
  1  2  2  0
  2  3  1  0
  3  4  1  0
  4  5  1  0
  5  6  2  0
  5  7  1  0
  7  8  1  0
  8  9  1  0
  9 10  1  0
 10 11  1  0
 11 12  1  0
 11 13  1  0
  2 14  1  0
 14 15  2  0
 15 16  1  0
 16 17  2  0
 17 18  1  0
 18 19  2  0
 19 20  1  0
 19 21  1  0
 21 22  2  0
 22 23  1  0
 23 24  2  0
 13  7  1  0
 24 14  1  0
 23 17  1  0
  3 25  1  0
  4 26  1  0
  4 27  1  0
  8 28  1  0
  8 29  1  0
  9 30  1  0
  9 31  1  0
 10 32  1  0
 10 33  1  0
 11 34  1  1
 13 35  1  0
 13 36  1  0
 15 37  1  0
 16 38  1  0
 18 39  1  0
 21 40  1  0
 22 41  1  0
M  END
>  <smiles>  (54) 
O=C(NCC(=O)N1CCCC(F)C1)c1ccc2cc(Cl)ccc2n1

>  <score_type>  (54) 
oracle

>  <origin>  (54) 
autodockgpu

>  <m_score__min__energy>  (54) 
-7.4400000000000004

>  <m_primary>  (54) 
energy

>  <rmsd>  (54) 
8.270754322527809

>  <m_score__min__rmsd>  (54) 
8.270754322527809

>  <meeko>  (54) 
{"free_energy": -6.51, "intermolecular_energy": -7.7, "internal_energy": -1.17, "cluster_size": 18, "cluster_id": 2, "rank_in_cluster": 16}

>  <energy>  (54) 
-7.41

>  <cluster_rmsd>  (54) 
0.1

>  <cluster>  (54) 
1

$$$$

     RDKit          3D

 41 43  0  0  0  0  0  0  0  0999 V2000
  134.8500   68.5150  224.9870 O   0  0  0  0  0  0  0  0  0  0  0  0
  135.3560   69.6490  225.0320 C   0  0  0  0  0  0  0  0  0  0  0  0
  136.6310   69.9320  224.5180 N   0  0  0  0  0  0  0  0  0  0  0  0
  137.4490   68.9030  223.8930 C   0  0  0  0  0  0  0  0  0  0  0  0
  138.6550   68.6080  224.7080 C   0  0  0  0  0  0  0  0  0  0  0  0
  139.1790   67.4660  224.6400 O   0  0  0  0  0  0  0  0  0  0  0  0
  139.1530   69.6540  225.5310 N   0  0  0  0  0  0  0  0  0  0  0  0
  139.5090   70.9650  225.0210 C   0  0  0  0  0  0  0  0  0  0  0  0
  140.9730   71.2720  225.2770 C   0  0  0  0  0  0  0  0  0  0  0  0
  141.5180   70.3470  226.3450 C   0  0  0  0  0  0  0  0  0  0  0  0
  140.4480   70.2930  227.4320 C   0  0  1  0  0  0  0  0  0  0  0  0
  140.0090   71.5990  227.6140 F   0  0  0  0  0  0  0  0  0  0  0  0
  139.3180   69.4130  226.9550 C   0  0  0  0  0  0  0  0  0  0  0  0
  134.5780   70.7410  225.6540 C   0  0  0  0  0  0  0  0  0  0  0  0
  133.5630   70.4640  226.5540 C   0  0  0  0  0  0  0  0  0  0  0  0
  132.8390   71.4840  227.1340 C   0  0  0  0  0  0  0  0  0  0  0  0
  133.1300   72.7980  226.8110 C   0  0  0  0  0  0  0  0  0  0  0  0
  132.4670   73.8730  227.3340 C   0  0  0  0  0  0  0  0  0  0  0  0
  132.8310   75.1600  226.9490 C   0  0  0  0  0  0  0  0  0  0  0  0
  131.9960   76.5560  227.6060 Cl  0  0  0  0  0  0  0  0  0  0  0  0
  133.8430   75.3860  226.0540 C   0  0  0  0  0  0  0  0  0  0  0  0
  134.5060   74.3030  225.5330 C   0  0  0  0  0  0  0  0  0  0  0  0
  134.1400   73.0220  225.9180 C   0  0  0  0  0  0  0  0  0  0  0  0
  134.8280   72.0120  225.3690 N   0  0  0  0  0  0  0  0  0  0  0  0
  136.9930   70.9150  224.5930 H   0  0  0  0  0  0  0  0  0  0  0  0
  136.8527   67.9845  223.7888 H   0  0  0  0  0  0  0  0  0  0  0  0
  137.7748   69.2674  222.9076 H   0  0  0  0  0  0  0  0  0  0  0  0
  139.3203   70.9924  223.9376 H   0  0  0  0  0  0  0  0  0  0  0  0
  138.8982   71.7190  225.5391 H   0  0  0  0  0  0  0  0  0  0  0  0
  141.5429   71.1300  224.3469 H   0  0  0  0  0  0  0  0  0  0  0  0
  141.0689   72.3133  225.6184 H   0  0  0  0  0  0  0  0  0  0  0  0
  141.6936   69.3436  225.9298 H   0  0  0  0  0  0  0  0  0  0  0  0
  142.4796   70.7063  226.7402 H   0  0  0  0  0  0  0  0  0  0  0  0
  140.8307   69.8800  228.3770 H   0  0  0  0  0  0  0  0  0  0  0  0
  139.5642   68.3556  227.1316 H   0  0  0  0  0  0  0  0  0  0  0  0
  138.3897   69.6427  227.4987 H   0  0  0  0  0  0  0  0  0  0  0  0
  133.3318   69.4192  226.8090 H   0  0  0  0  0  0  0  0  0  0  0  0
  132.0351   71.2549  227.8490 H   0  0  0  0  0  0  0  0  0  0  0  0
  131.6503   73.7217  228.0552 H   0  0  0  0  0  0  0  0  0  0  0  0
  134.1175   76.4099  225.7601 H   0  0  0  0  0  0  0  0  0  0  0  0
  135.3244   74.4506  224.8130 H   0  0  0  0  0  0  0  0  0  0  0  0
  1  2  2  0
  2  3  1  0
  3  4  1  0
  4  5  1  0
  5  6  2  0
  5  7  1  0
  7  8  1  0
  8  9  1  0
  9 10  1  0
 10 11  1  0
 11 12  1  0
 11 13  1  0
  2 14  1  0
 14 15  2  0
 15 16  1  0
 16 17  2  0
 17 18  1  0
 18 19  2  0
 19 20  1  0
 19 21  1  0
 21 22  2  0
 22 23  1  0
 23 24  2  0
 13  7  1  0
 24 14  1  0
 23 17  1  0
  3 25  1  0
  4 26  1  0
  4 27  1  0
  8 28  1  0
  8 29  1  0
  9 30  1  0
  9 31  1  0
 10 32  1  0
 10 33  1  0
 11 34  1  1
 13 35  1  0
 13 36  1  0
 15 37  1  0
 16 38  1  0
 18 39  1  0
 21 40  1  0
 22 41  1  0
M  END
>  <smiles>  (55) 
O=C(NCC(=O)N1CCCC(F)C1)c1ccc2cc(Cl)ccc2n1

>  <score_type>  (55) 
oracle

>  <origin>  (55) 
autodockgpu

>  <m_score__min__energy>  (55) 
-7.4400000000000004

>  <m_primary>  (55) 
energy

>  <rmsd>  (55) 
8.112703864897938

>  <m_score__min__rmsd>  (55) 
8.112703864897938

>  <meeko>  (55) 
{"free_energy": -6.78, "intermolecular_energy": -7.97, "internal_energy": -1.17, "cluster_size": 5, "cluster_id": 3, "rank_in_cluster": 4}

>  <energy>  (55) 
-7.4

>  <cluster_rmsd>  (55) 
0.22

>  <cluster>  (55) 
1

$$$$

     RDKit          3D

 41 43  0  0  0  0  0  0  0  0999 V2000
  139.9740   70.0280  222.0910 O   0  0  0  0  0  0  0  0  0  0  0  0
  139.6300   71.1010  222.6140 C   0  0  0  0  0  0  0  0  0  0  0  0
  138.7220   71.1670  223.6820 N   0  0  0  0  0  0  0  0  0  0  0  0
  138.1220   69.9680  224.2510 C   0  0  0  0  0  0  0  0  0  0  0  0
  139.1500   69.1020  224.8810 C   0  0  0  0  0  0  0  0  0  0  0  0
  139.1930   67.8810  224.5830 O   0  0  0  0  0  0  0  0  0  0  0  0
  140.0410   69.7180  225.8020 N   0  0  0  0  0  0  0  0  0  0  0  0
  141.0570   68.9860  226.5360 C   0  0  0  0  0  0  0  0  0  0  0  0
  140.8410   69.1040  228.0330 C   0  0  0  0  0  0  0  0  0  0  0  0
  139.9270   70.2730  228.3350 C   0  0  0  0  0  0  0  0  0  0  0  0
  140.4050   71.4140  227.4420 C   0  0  1  0  0  0  0  0  0  0  0  0
  141.7930   71.4110  227.5110 F   0  0  0  0  0  0  0  0  0  0  0  0
  139.9410   71.1500  226.0300 C   0  0  0  0  0  0  0  0  0  0  0  0
  140.2030   72.3560  222.0840 C   0  0  0  0  0  0  0  0  0  0  0  0
  141.3070   72.3350  221.2500 C   0  0  0  0  0  0  0  0  0  0  0  0
  141.8400   73.5070  220.7570 C   0  0  0  0  0  0  0  0  0  0  0  0
  141.2630   74.7170  221.1000 C   0  0  0  0  0  0  0  0  0  0  0  0
  141.7200   75.9280  220.6610 C   0  0  0  0  0  0  0  0  0  0  0  0
  141.0740   77.0940  221.0610 C   0  0  0  0  0  0  0  0  0  0  0  0
  141.6420   78.6610  220.5100 Cl  0  0  0  0  0  0  0  0  0  0  0  0
  139.9830   77.0670  221.8880 C   0  0  0  0  0  0  0  0  0  0  0  0
  139.5280   75.8480  222.3250 C   0  0  0  0  0  0  0  0  0  0  0  0
  140.1740   74.6890  221.9260 C   0  0  0  0  0  0  0  0  0  0  0  0
  139.6770   73.5340  222.3920 N   0  0  0  0  0  0  0  0  0  0  0  0
  138.4780   72.1100  224.0730 H   0  0  0  0  0  0  0  0  0  0  0  0
  137.3847   70.2622  225.0125 H   0  0  0  0  0  0  0  0  0  0  0  0
  137.6378   69.4023  223.4414 H   0  0  0  0  0  0  0  0  0  0  0  0
  141.0129   67.9250  226.2492 H   0  0  0  0  0  0  0  0  0  0  0  0
  142.0408   69.4124  226.2903 H   0  0  0  0  0  0  0  0  0  0  0  0
  140.3830   68.1772  228.4089 H   0  0  0  0  0  0  0  0  0  0  0  0
  141.8109   69.2680  228.5255 H   0  0  0  0  0  0  0  0  0  0  0  0
  138.8838   70.0143  228.1010 H   0  0  0  0  0  0  0  0  0  0  0  0
  139.9606   70.5496  229.3991 H   0  0  0  0  0  0  0  0  0  0  0  0
  140.0064   72.3891  227.7587 H   0  0  0  0  0  0  0  0  0  0  0  0
  138.8981   71.4784  225.9090 H   0  0  0  0  0  0  0  0  0  0  0  0
  140.5590   71.7032  225.3075 H   0  0  0  0  0  0  0  0  0  0  0  0
  141.7644   71.3725  220.9773 H   0  0  0  0  0  0  0  0  0  0  0  0
  142.7183   73.4804  220.0953 H   0  0  0  0  0  0  0  0  0  0  0  0
  142.5939   75.9808  219.9950 H   0  0  0  0  0  0  0  0  0  0  0  0
  139.4840   77.9983  222.1943 H   0  0  0  0  0  0  0  0  0  0  0  0
  138.6534   75.7914  222.9898 H   0  0  0  0  0  0  0  0  0  0  0  0
  1  2  2  0
  2  3  1  0
  3  4  1  0
  4  5  1  0
  5  6  2  0
  5  7  1  0
  7  8  1  0
  8  9  1  0
  9 10  1  0
 10 11  1  0
 11 12  1  0
 11 13  1  0
  2 14  1  0
 14 15  2  0
 15 16  1  0
 16 17  2  0
 17 18  1  0
 18 19  2  0
 19 20  1  0
 19 21  1  0
 21 22  2  0
 22 23  1  0
 23 24  2  0
 13  7  1  0
 24 14  1  0
 23 17  1  0
  3 25  1  0
  4 26  1  0
  4 27  1  0
  8 28  1  0
  8 29  1  0
  9 30  1  0
  9 31  1  0
 10 32  1  0
 10 33  1  0
 11 34  1  1
 13 35  1  0
 13 36  1  0
 15 37  1  0
 16 38  1  0
 18 39  1  0
 21 40  1  0
 22 41  1  0
M  END
>  <smiles>  (56) 
O=C(NCC(=O)N1CCCC(F)C1)c1ccc2cc(Cl)ccc2n1

>  <score_type>  (56) 
oracle

>  <origin>  (56) 
autodockgpu

>  <m_score__min__energy>  (56) 
-7.4400000000000004

>  <m_primary>  (56) 
energy

>  <rmsd>  (56) 
8.199097862307804

>  <m_score__min__rmsd>  (56) 
8.199097862307804

>  <meeko>  (56) 
{"free_energy": -6.94, "intermolecular_energy": -8.14, "internal_energy": -0.95, "cluster_size": 18, "cluster_id": 2, "rank_in_cluster": 5}

>  <energy>  (56) 
-7.39

>  <cluster_rmsd>  (56) 
0.21

>  <cluster>  (56) 
1

$$$$

     RDKit          3D

 41 43  0  0  0  0  0  0  0  0999 V2000
  139.2710   71.9800  220.7480 O   0  0  0  0  0  0  0  0  0  0  0  0
  139.4150   72.4310  221.8970 C   0  0  0  0  0  0  0  0  0  0  0  0
  139.4410   73.8070  222.1740 N   0  0  0  0  0  0  0  0  0  0  0  0
  139.2980   74.8020  221.1210 C   0  0  0  0  0  0  0  0  0  0  0  0
  140.3380   75.8550  221.2340 C   0  0  0  0  0  0  0  0  0  0  0  0
  140.6820   76.2600  222.3740 O   0  0  0  0  0  0  0  0  0  0  0  0
  140.8920   76.3520  220.0230 N   0  0  0  0  0  0  0  0  0  0  0  0
  141.1580   75.5140  218.8680 C   0  0  0  0  0  0  0  0  0  0  0  0
  142.6330   75.5310  218.5100 C   0  0  0  0  0  0  0  0  0  0  0  0
  143.3110   76.7210  219.1570 C   0  0  0  0  0  0  0  0  0  0  0  0
  142.3630   77.8990  218.9540 C   0  0  1  0  0  0  0  0  0  0  0  0
  141.9120   77.8170  217.6410 F   0  0  0  0  0  0  0  0  0  0  0  0
  141.2120   77.7670  219.9220 C   0  0  0  0  0  0  0  0  0  0  0  0
  139.5650   71.4740  223.0130 C   0  0  0  0  0  0  0  0  0  0  0  0
  139.1110   70.1720  222.8970 C   0  0  0  0  0  0  0  0  0  0  0  0
  139.2520   69.2810  223.9400 C   0  0  0  0  0  0  0  0  0  0  0  0
  139.8540   69.6950  225.1150 C   0  0  0  0  0  0  0  0  0  0  0  0
  140.0370   68.8840  226.2000 C   0  0  0  0  0  0  0  0  0  0  0  0
  140.6540   69.3910  227.3410 C   0  0  0  0  0  0  0  0  0  0  0  0
  140.9010   68.3690  228.7470 Cl  0  0  0  0  0  0  0  0  0  0  0  0
  141.0880   70.6870  227.4110 C   0  0  0  0  0  0  0  0  0  0  0  0
  140.9020   71.4960  226.3180 C   0  0  0  0  0  0  0  0  0  0  0  0
  140.2870   70.9890  225.1840 C   0  0  0  0  0  0  0  0  0  0  0  0
  140.1360   71.8350  224.1550 N   0  0  0  0  0  0  0  0  0  0  0  0
  139.5660   74.1130  223.1700 H   0  0  0  0  0  0  0  0  0  0  0  0
  139.3935   74.3065  220.1436 H   0  0  0  0  0  0  0  0  0  0  0  0
  138.3101   75.2755  221.2204 H   0  0  0  0  0  0  0  0  0  0  0  0
  140.8553   74.4813  219.0958 H   0  0  0  0  0  0  0  0  0  0  0  0
  140.5860   75.9044  218.0133 H   0  0  0  0  0  0  0  0  0  0  0  0
  143.1051   74.6041  218.8678 H   0  0  0  0  0  0  0  0  0  0  0  0
  142.7379   75.6064  217.4176 H   0  0  0  0  0  0  0  0  0  0  0  0
  143.4682   76.5360  220.2299 H   0  0  0  0  0  0  0  0  0  0  0  0
  144.2991   76.9148  218.7141 H   0  0  0  0  0  0  0  0  0  0  0  0
  142.8535   78.8672  219.1331 H   0  0  0  0  0  0  0  0  0  0  0  0
  141.5026   78.1585  220.9080 H   0  0  0  0  0  0  0  0  0  0  0  0
  140.3405   78.3393  219.5712 H   0  0  0  0  0  0  0  0  0  0  0  0
  138.6323   69.8441  221.9625 H   0  0  0  0  0  0  0  0  0  0  0  0
  138.8882   68.2479  223.8385 H   0  0  0  0  0  0  0  0  0  0  0  0
  139.6991   67.8376  226.1721 H   0  0  0  0  0  0  0  0  0  0  0  0
  141.5737   71.0707  228.3203 H   0  0  0  0  0  0  0  0  0  0  0  0
  141.2396   72.5426  226.3418 H   0  0  0  0  0  0  0  0  0  0  0  0
  1  2  2  0
  2  3  1  0
  3  4  1  0
  4  5  1  0
  5  6  2  0
  5  7  1  0
  7  8  1  0
  8  9  1  0
  9 10  1  0
 10 11  1  0
 11 12  1  0
 11 13  1  0
  2 14  1  0
 14 15  2  0
 15 16  1  0
 16 17  2  0
 17 18  1  0
 18 19  2  0
 19 20  1  0
 19 21  1  0
 21 22  2  0
 22 23  1  0
 23 24  2  0
 13  7  1  0
 24 14  1  0
 23 17  1  0
  3 25  1  0
  4 26  1  0
  4 27  1  0
  8 28  1  0
  8 29  1  0
  9 30  1  0
  9 31  1  0
 10 32  1  0
 10 33  1  0
 11 34  1  6
 13 35  1  0
 13 36  1  0
 15 37  1  0
 16 38  1  0
 18 39  1  0
 21 40  1  0
 22 41  1  0
M  END
>  <smiles>  (57) 
O=C(NCC(=O)N1CCCC(F)C1)c1ccc2cc(Cl)ccc2n1

>  <score_type>  (57) 
oracle

>  <origin>  (57) 
autodockgpu

>  <m_score__min__energy>  (57) 
-7.4400000000000004

>  <m_primary>  (57) 
energy

>  <rmsd>  (57) 
2.1387257987005355

>  <m_score__min__rmsd>  (57) 
2.1387257987005355

>  <meeko>  (57) 
{"free_energy": -6.45, "intermolecular_energy": -7.64, "internal_energy": -1.25, "cluster_size": 23, "cluster_id": 1, "rank_in_cluster": 23}

>  <energy>  (57) 
-7.13

>  <cluster_rmsd>  (57) 
1.14

>  <cluster>  (57) 
1

$$$$

     RDKit          3D

 41 43  0  0  0  0  0  0  0  0999 V2000
  140.8590   71.6660  221.1790 O   0  0  0  0  0  0  0  0  0  0  0  0
  140.1740   72.5780  221.6710 C   0  0  0  0  0  0  0  0  0  0  0  0
  138.9950   72.3360  222.3930 N   0  0  0  0  0  0  0  0  0  0  0  0
  138.4970   70.9860  222.6140 C   0  0  0  0  0  0  0  0  0  0  0  0
  138.3380   70.7030  224.0630 C   0  0  0  0  0  0  0  0  0  0  0  0
  137.1940   70.7670  224.5810 O   0  0  0  0  0  0  0  0  0  0  0  0
  139.5130   70.3720  224.7910 N   0  0  0  0  0  0  0  0  0  0  0  0
  139.6490   69.1530  225.5680 C   0  0  0  0  0  0  0  0  0  0  0  0
  139.9020   69.4640  227.0320 C   0  0  0  0  0  0  0  0  0  0  0  0
  140.3670   70.8970  227.1860 C   0  0  0  0  0  0  0  0  0  0  0  0
  141.3830   71.1250  226.0700 C   0  0  1  0  0  0  0  0  0  0  0  0
  142.1890   69.9930  226.0380 F   0  0  0  0  0  0  0  0  0  0  0  0
  140.6410   71.2880  224.7650 C   0  0  0  0  0  0  0  0  0  0  0  0
  140.6230   73.9730  221.4840 C   0  0  0  0  0  0  0  0  0  0  0  0
  141.6700   74.2720  220.6290 C   0  0  0  0  0  0  0  0  0  0  0  0
  142.0880   75.5750  220.4550 C   0  0  0  0  0  0  0  0  0  0  0  0
  141.4530   76.5930  221.1450 C   0  0  0  0  0  0  0  0  0  0  0  0
  141.7970   77.9110  221.0380 C   0  0  0  0  0  0  0  0  0  0  0  0
  141.1000   78.8670  221.7730 C   0  0  0  0  0  0  0  0  0  0  0  0
  141.5230   80.5660  221.6510 Cl  0  0  0  0  0  0  0  0  0  0  0  0
  140.0700   78.5240  222.6070 C   0  0  0  0  0  0  0  0  0  0  0  0
  139.7290   77.1990  222.7100 C   0  0  0  0  0  0  0  0  0  0  0  0
  140.4260   76.2500  221.9780 C   0  0  0  0  0  0  0  0  0  0  0  0
  140.0400   74.9750  222.1280 N   0  0  0  0  0  0  0  0  0  0  0  0
  138.4680   73.1580  222.7790 H   0  0  0  0  0  0  0  0  0  0  0  0
  137.5211   70.8778  222.1181 H   0  0  0  0  0  0  0  0  0  0  0  0
  139.2246   70.2737  222.1977 H   0  0  0  0  0  0  0  0  0  0  0  0
  138.7230   68.5657  225.4802 H   0  0  0  0  0  0  0  0  0  0  0  0
  140.5059   68.5839  225.1784 H   0  0  0  0  0  0  0  0  0  0  0  0
  138.9715   69.3202  227.6007 H   0  0  0  0  0  0  0  0  0  0  0  0
  140.6819   68.7890  227.4142 H   0  0  0  0  0  0  0  0  0  0  0  0
  139.5186   71.5889  227.0792 H   0  0  0  0  0  0  0  0  0  0  0  0
  140.8073   71.0761  228.1780 H   0  0  0  0  0  0  0  0  0  0  0  0
  141.9911   72.0267  226.2345 H   0  0  0  0  0  0  0  0  0  0  0  0
  140.2830   72.3230  224.6625 H   0  0  0  0  0  0  0  0  0  0  0  0
  141.3006   71.0689  223.9124 H   0  0  0  0  0  0  0  0  0  0  0  0
  142.1742   73.4615  220.0823 H   0  0  0  0  0  0  0  0  0  0  0  0
  142.9201   75.8034  219.7727 H   0  0  0  0  0  0  0  0  0  0  0  0
  142.6201   78.2155  220.3748 H   0  0  0  0  0  0  0  0  0  0  0  0
  139.5293   79.2915  223.1802 H   0  0  0  0  0  0  0  0  0  0  0  0
  138.9056   76.8907  223.3710 H   0  0  0  0  0  0  0  0  0  0  0  0
  1  2  2  0
  2  3  1  0
  3  4  1  0
  4  5  1  0
  5  6  2  0
  5  7  1  0
  7  8  1  0
  8  9  1  0
  9 10  1  0
 10 11  1  0
 11 12  1  0
 11 13  1  0
  2 14  1  0
 14 15  2  0
 15 16  1  0
 16 17  2  0
 17 18  1  0
 18 19  2  0
 19 20  1  0
 19 21  1  0
 21 22  2  0
 22 23  1  0
 23 24  2  0
 13  7  1  0
 24 14  1  0
 23 17  1  0
  3 25  1  0
  4 26  1  0
  4 27  1  0
  8 28  1  0
  8 29  1  0
  9 30  1  0
  9 31  1  0
 10 32  1  0
 10 33  1  0
 11 34  1  1
 13 35  1  0
 13 36  1  0
 15 37  1  0
 16 38  1  0
 18 39  1  0
 21 40  1  0
 22 41  1  0
M  END
>  <smiles>  (58) 
O=C(NCC(=O)N1CCCC(F)C1)c1ccc2cc(Cl)ccc2n1

>  <score_type>  (58) 
oracle

>  <origin>  (58) 
autodockgpu

>  <m_score__min__energy>  (58) 
-7.4400000000000004

>  <m_primary>  (58) 
energy

>  <rmsd>  (58) 
8.145942391371873

>  <m_score__min__rmsd>  (58) 
8.145942391371873

>  <meeko>  (58) 
{"free_energy": -6.65, "intermolecular_energy": -7.85, "internal_energy": -1.21, "cluster_size": 18, "cluster_id": 2, "rank_in_cluster": 11}

>  <energy>  (58) 
-7.13

>  <cluster_rmsd>  (58) 
1.18

>  <cluster>  (58) 
1

$$$$

     RDKit          3D

 41 43  0  0  0  0  0  0  0  0999 V2000
  140.6720   71.7000  221.1300 O   0  0  0  0  0  0  0  0  0  0  0  0
  140.0280   72.6260  221.6500 C   0  0  0  0  0  0  0  0  0  0  0  0
  138.8540   72.4120  222.3880 N   0  0  0  0  0  0  0  0  0  0  0  0
  138.3120   71.0770  222.5940 C   0  0  0  0  0  0  0  0  0  0  0  0
  138.2380   70.7460  224.0400 C   0  0  0  0  0  0  0  0  0  0  0  0
  137.1190   70.7410  224.6140 O   0  0  0  0  0  0  0  0  0  0  0  0
  139.4610   70.4490  224.7000 N   0  0  0  0  0  0  0  0  0  0  0  0
  139.7370   69.1670  225.3240 C   0  0  0  0  0  0  0  0  0  0  0  0
  140.0040   69.3290  226.8090 C   0  0  0  0  0  0  0  0  0  0  0  0
  140.3340   70.7730  227.1230 C   0  0  0  0  0  0  0  0  0  0  0  0
  141.2890   71.2280  226.0240 C   0  0  1  0  0  0  0  0  0  0  0  0
  142.1980   70.1920  225.8410 F   0  0  0  0  0  0  0  0  0  0  0  0
  140.4950   71.4690  224.7620 C   0  0  0  0  0  0  0  0  0  0  0  0
  140.5240   74.0080  221.4790 C   0  0  0  0  0  0  0  0  0  0  0  0
  141.5890   74.2800  220.6390 C   0  0  0  0  0  0  0  0  0  0  0  0
  142.0500   75.5700  220.4810 C   0  0  0  0  0  0  0  0  0  0  0  0
  141.4400   76.6030  221.1710 C   0  0  0  0  0  0  0  0  0  0  0  0
  141.8270   77.9100  221.0790 C   0  0  0  0  0  0  0  0  0  0  0  0
  141.1510   78.8810  221.8130 C   0  0  0  0  0  0  0  0  0  0  0  0
  141.6290   80.5670  221.7110 Cl  0  0  0  0  0  0  0  0  0  0  0  0
  140.1020   78.5650  222.6330 C   0  0  0  0  0  0  0  0  0  0  0  0
  139.7170   77.2510  222.7220 C   0  0  0  0  0  0  0  0  0  0  0  0
  140.3920   76.2860  221.9900 C   0  0  0  0  0  0  0  0  0  0  0  0
  139.9650   75.0230  222.1250 N   0  0  0  0  0  0  0  0  0  0  0  0
  138.3630   73.2450  222.7980 H   0  0  0  0  0  0  0  0  0  0  0  0
  137.3013   71.0293  222.1626 H   0  0  0  0  0  0  0  0  0  0  0  0
  138.9770   70.3509  222.1035 H   0  0  0  0  0  0  0  0  0  0  0  0
  138.8692   68.5054  225.1850 H   0  0  0  0  0  0  0  0  0  0  0  0
  140.6320   68.7344  224.8530 H   0  0  0  0  0  0  0  0  0  0  0  0
  139.1095   69.0288  227.3745 H   0  0  0  0  0  0  0  0  0  0  0  0
  140.8564   68.6945  227.0932 H   0  0  0  0  0  0  0  0  0  0  0  0
  139.4204   71.3855  227.1147 H   0  0  0  0  0  0  0  0  0  0  0  0
  140.7847   70.8781  228.1209 H   0  0  0  0  0  0  0  0  0  0  0  0
  141.8137   72.1592  226.2839 H   0  0  0  0  0  0  0  0  0  0  0  0
  140.0365   72.4685  224.7909 H   0  0  0  0  0  0  0  0  0  0  0  0
  141.1459   71.4178  223.8768 H   0  0  0  0  0  0  0  0  0  0  0  0
  142.0734   73.4583  220.0911 H   0  0  0  0  0  0  0  0  0  0  0  0
  142.8973   75.7767  219.8107 H   0  0  0  0  0  0  0  0  0  0  0  0
  142.6677   78.1936  220.4288 H   0  0  0  0  0  0  0  0  0  0  0  0
  139.5803   79.3452  223.2067 H   0  0  0  0  0  0  0  0  0  0  0  0
  138.8765   76.9644  223.3712 H   0  0  0  0  0  0  0  0  0  0  0  0
  1  2  2  0
  2  3  1  0
  3  4  1  0
  4  5  1  0
  5  6  2  0
  5  7  1  0
  7  8  1  0
  8  9  1  0
  9 10  1  0
 10 11  1  0
 11 12  1  0
 11 13  1  0
  2 14  1  0
 14 15  2  0
 15 16  1  0
 16 17  2  0
 17 18  1  0
 18 19  2  0
 19 20  1  0
 19 21  1  0
 21 22  2  0
 22 23  1  0
 23 24  2  0
 13  7  1  0
 24 14  1  0
 23 17  1  0
  3 25  1  0
  4 26  1  0
  4 27  1  0
  8 28  1  0
  8 29  1  0
  9 30  1  0
  9 31  1  0
 10 32  1  0
 10 33  1  0
 11 34  1  1
 13 35  1  0
 13 36  1  0
 15 37  1  0
 16 38  1  0
 18 39  1  0
 21 40  1  0
 22 41  1  0
M  END
>  <smiles>  (59) 
O=C(NCC(=O)N1CCCC(F)C1)c1ccc2cc(Cl)ccc2n1

>  <score_type>  (59) 
oracle

>  <origin>  (59) 
autodockgpu

>  <m_score__min__energy>  (59) 
-7.4400000000000004

>  <m_primary>  (59) 
energy

>  <rmsd>  (59) 
8.102640978231793

>  <m_score__min__rmsd>  (59) 
8.102640978231793

>  <meeko>  (59) 
{"free_energy": -6.65, "intermolecular_energy": -7.84, "internal_energy": -1.21, "cluster_size": 18, "cluster_id": 2, "rank_in_cluster": 12}

>  <energy>  (59) 
-7.13

>  <cluster_rmsd>  (59) 
1.18

>  <cluster>  (59) 
1

$$$$

     RDKit          3D

 41 43  0  0  0  0  0  0  0  0999 V2000
  140.4620   72.8990  220.8310 O   0  0  0  0  0  0  0  0  0  0  0  0
  140.0390   73.1490  221.9720 C   0  0  0  0  0  0  0  0  0  0  0  0
  139.5740   74.4190  222.3470 N   0  0  0  0  0  0  0  0  0  0  0  0
  139.5580   75.5350  221.4120 C   0  0  0  0  0  0  0  0  0  0  0  0
  138.9400   76.7390  222.0240 C   0  0  0  0  0  0  0  0  0  0  0  0
  137.7930   76.6520  222.5310 O   0  0  0  0  0  0  0  0  0  0  0  0
  139.7000   77.9400  221.9990 N   0  0  0  0  0  0  0  0  0  0  0  0
  141.1480   77.9620  221.8950 C   0  0  0  0  0  0  0  0  0  0  0  0
  141.7720   78.6410  223.1010 C   0  0  0  0  0  0  0  0  0  0  0  0
  140.7310   79.4670  223.8280 C   0  0  0  0  0  0  0  0  0  0  0  0
  139.9470   80.1960  222.7410 C   0  0  1  0  0  0  0  0  0  0  0  0
  140.8850   80.6650  221.8280 F   0  0  0  0  0  0  0  0  0  0  0  0
  139.0070   79.2150  222.0820 C   0  0  0  0  0  0  0  0  0  0  0  0
  140.0270   72.0600  222.9710 C   0  0  0  0  0  0  0  0  0  0  0  0
  139.5280   70.8090  222.6500 C   0  0  0  0  0  0  0  0  0  0  0  0
  139.5190   69.7940  223.5840 C   0  0  0  0  0  0  0  0  0  0  0  0
  140.0130   70.0300  224.8550 C   0  0  0  0  0  0  0  0  0  0  0  0
  140.0440   69.0880  225.8440 C   0  0  0  0  0  0  0  0  0  0  0  0
  140.5610   69.4190  227.0940 C   0  0  0  0  0  0  0  0  0  0  0  0
  140.6120   68.2270  228.3800 Cl  0  0  0  0  0  0  0  0  0  0  0  0
  141.0440   70.6710  227.3660 C   0  0  0  0  0  0  0  0  0  0  0  0
  141.0100   71.6130  226.3680 C   0  0  0  0  0  0  0  0  0  0  0  0
  140.4940   71.2810  225.1250 C   0  0  0  0  0  0  0  0  0  0  0  0
  140.4920   72.2490  224.1990 N   0  0  0  0  0  0  0  0  0  0  0  0
  139.2310   74.5550  223.3300 H   0  0  0  0  0  0  0  0  0  0  0  0
  140.5912   75.7719  221.1182 H   0  0  0  0  0  0  0  0  0  0  0  0
  138.9621   75.2455  220.5339 H   0  0  0  0  0  0  0  0  0  0  0  0
  141.5195   76.9285  221.8323 H   0  0  0  0  0  0  0  0  0  0  0  0
  141.4251   78.5276  220.9932 H   0  0  0  0  0  0  0  0  0  0  0  0
  142.1714   77.8762  223.7833 H   0  0  0  0  0  0  0  0  0  0  0  0
  142.5845   79.3010  222.7630 H   0  0  0  0  0  0  0  0  0  0  0  0
  140.0632   78.8154  224.4106 H   0  0  0  0  0  0  0  0  0  0  0  0
  141.1938   80.1710  224.5352 H   0  0  0  0  0  0  0  0  0  0  0  0
  139.3506   81.0287  223.1420 H   0  0  0  0  0  0  0  0  0  0  0  0
  138.0926   79.1077  222.6839 H   0  0  0  0  0  0  0  0  0  0  0  0
  138.7174   79.5663  221.0806 H   0  0  0  0  0  0  0  0  0  0  0  0
  139.1347   70.6226  221.6398 H   0  0  0  0  0  0  0  0  0  0  0  0
  139.1215   68.8028  223.3201 H   0  0  0  0  0  0  0  0  0  0  0  0
  139.6628   68.0738  225.6540 H   0  0  0  0  0  0  0  0  0  0  0  0
  141.4490   70.9158  228.3590 H   0  0  0  0  0  0  0  0  0  0  0  0
  141.3910   72.6280  226.5541 H   0  0  0  0  0  0  0  0  0  0  0  0
  1  2  2  0
  2  3  1  0
  3  4  1  0
  4  5  1  0
  5  6  2  0
  5  7  1  0
  7  8  1  0
  8  9  1  0
  9 10  1  0
 10 11  1  0
 11 12  1  0
 11 13  1  0
  2 14  1  0
 14 15  2  0
 15 16  1  0
 16 17  2  0
 17 18  1  0
 18 19  2  0
 19 20  1  0
 19 21  1  0
 21 22  2  0
 22 23  1  0
 23 24  2  0
 13  7  1  0
 24 14  1  0
 23 17  1  0
  3 25  1  0
  4 26  1  0
  4 27  1  0
  8 28  1  0
  8 29  1  0
  9 30  1  0
  9 31  1  0
 10 32  1  0
 10 33  1  0
 11 34  1  1
 13 35  1  0
 13 36  1  0
 15 37  1  0
 16 38  1  0
 18 39  1  0
 21 40  1  0
 22 41  1  0
M  END
>  <smiles>  (60) 
O=C(NCC(=O)N1CCCC(F)C1)c1ccc2cc(Cl)ccc2n1

>  <score_type>  (60) 
oracle

>  <origin>  (60) 
autodockgpu

>  <m_score__min__energy>  (60) 
-7.4400000000000004

>  <m_primary>  (60) 
energy

>  <rmsd>  (60) 
3.594294740892679

>  <m_score__min__rmsd>  (60) 
3.594294740892679

>  <meeko>  (60) 
{"free_energy": -7.13, "intermolecular_energy": -8.32, "internal_energy": -1.0, "cluster_size": 23, "cluster_id": 1, "rank_in_cluster": 7}

>  <energy>  (60) 
-7.12

>  <cluster_rmsd>  (60) 
1.18

>  <cluster>  (60) 
1

$$$$

     RDKit          3D

 41 43  0  0  0  0  0  0  0  0999 V2000
  134.9620   68.5230  224.9920 O   0  0  0  0  0  0  0  0  0  0  0  0
  135.3720   69.6950  224.9800 C   0  0  0  0  0  0  0  0  0  0  0  0
  136.5890   70.0670  224.3880 N   0  0  0  0  0  0  0  0  0  0  0  0
  137.4550   69.0900  223.7420 C   0  0  0  0  0  0  0  0  0  0  0  0
  138.5470   68.6590  224.6510 C   0  0  0  0  0  0  0  0  0  0  0  0
  138.9550   67.4710  224.6030 O   0  0  0  0  0  0  0  0  0  0  0  0
  139.0760   69.6360  225.5380 N   0  0  0  0  0  0  0  0  0  0  0  0
  139.5010   70.9550  225.1050 C   0  0  0  0  0  0  0  0  0  0  0  0
  140.9720   71.1790  225.4020 C   0  0  0  0  0  0  0  0  0  0  0  0
  141.4540   70.1750  226.4280 C   0  0  0  0  0  0  0  0  0  0  0  0
  140.3620   70.1130  227.4920 C   0  0  1  0  0  0  0  0  0  0  0  0
  139.9790   71.4270  227.7360 F   0  0  0  0  0  0  0  0  0  0  0  0
  139.2020   69.3130  226.9490 C   0  0  0  0  0  0  0  0  0  0  0  0
  134.5400   70.7370  225.6180 C   0  0  0  0  0  0  0  0  0  0  0  0
  133.5020   70.3940  226.4660 C   0  0  0  0  0  0  0  0  0  0  0  0
  132.7280   71.3680  227.0610 C   0  0  0  0  0  0  0  0  0  0  0  0
  132.9920   72.7020  226.8050 C   0  0  0  0  0  0  0  0  0  0  0  0
  132.2800   73.7350  227.3480 C   0  0  0  0  0  0  0  0  0  0  0  0
  132.6200   75.0470  227.0310 C   0  0  0  0  0  0  0  0  0  0  0  0
  131.7210   76.3900  227.7150 Cl  0  0  0  0  0  0  0  0  0  0  0  0
  133.6570   75.3390  226.1860 C   0  0  0  0  0  0  0  0  0  0  0  0
  134.3690   74.2980  225.6450 C   0  0  0  0  0  0  0  0  0  0  0  0
  134.0270   72.9920  225.9610 C   0  0  0  0  0  0  0  0  0  0  0  0
  134.7640   72.0260  225.3960 N   0  0  0  0  0  0  0  0  0  0  0  0
  136.8710   71.0780  224.4170 H   0  0  0  0  0  0  0  0  0  0  0  0
  136.8565   68.2118  223.4580 H   0  0  0  0  0  0  0  0  0  0  0  0
  137.9045   69.5560  222.8527 H   0  0  0  0  0  0  0  0  0  0  0  0
  139.3348   71.0485  224.0217 H   0  0  0  0  0  0  0  0  0  0  0  0
  138.9151   71.7083  225.6521 H   0  0  0  0  0  0  0  0  0  0  0  0
  141.5526   71.0597  224.4754 H   0  0  0  0  0  0  0  0  0  0  0  0
  141.1084   72.1951  225.8006 H   0  0  0  0  0  0  0  0  0  0  0  0
  141.5923   69.1879  225.9627 H   0  0  0  0  0  0  0  0  0  0  0  0
  142.4229   70.4684  226.8582 H   0  0  0  0  0  0  0  0  0  0  0  0
  140.7072   69.6330  228.4196 H   0  0  0  0  0  0  0  0  0  0  0  0
  139.3960   68.2374  227.0729 H   0  0  0  0  0  0  0  0  0  0  0  0
  138.2748   69.5571  227.4883 H   0  0  0  0  0  0  0  0  0  0  0  0
  133.2919   69.3333  226.6677 H   0  0  0  0  0  0  0  0  0  0  0  0
  131.9057   71.0862  227.7351 H   0  0  0  0  0  0  0  0  0  0  0  0
  131.4429   73.5305  228.0317 H   0  0  0  0  0  0  0  0  0  0  0  0
  133.9130   76.3817  225.9468 H   0  0  0  0  0  0  0  0  0  0  0  0
  135.2083   74.4990  224.9629 H   0  0  0  0  0  0  0  0  0  0  0  0
  1  2  2  0
  2  3  1  0
  3  4  1  0
  4  5  1  0
  5  6  2  0
  5  7  1  0
  7  8  1  0
  8  9  1  0
  9 10  1  0
 10 11  1  0
 11 12  1  0
 11 13  1  0
  2 14  1  0
 14 15  2  0
 15 16  1  0
 16 17  2  0
 17 18  1  0
 18 19  2  0
 19 20  1  0
 19 21  1  0
 21 22  2  0
 22 23  1  0
 23 24  2  0
 13  7  1  0
 24 14  1  0
 23 17  1  0
  3 25  1  0
  4 26  1  0
  4 27  1  0
  8 28  1  0
  8 29  1  0
  9 30  1  0
  9 31  1  0
 10 32  1  0
 10 33  1  0
 11 34  1  1
 13 35  1  0
 13 36  1  0
 15 37  1  0
 16 38  1  0
 18 39  1  0
 21 40  1  0
 22 41  1  0
M  END
>  <smiles>  (61) 
O=C(NCC(=O)N1CCCC(F)C1)c1ccc2cc(Cl)ccc2n1

>  <score_type>  (61) 
oracle

>  <origin>  (61) 
autodockgpu

>  <m_score__min__energy>  (61) 
-7.4400000000000004

>  <m_primary>  (61) 
energy

>  <rmsd>  (61) 
8.149505980819898

>  <m_score__min__rmsd>  (61) 
8.149505980819898

>  <meeko>  (61) 
{"free_energy": -6.73, "intermolecular_energy": -7.93, "internal_energy": -1.22, "cluster_size": 5, "cluster_id": 3, "rank_in_cluster": 5}

>  <energy>  (61) 
-7.08

>  <cluster_rmsd>  (61) 
1.12

>  <cluster>  (61) 
1

$$$$

     RDKit          3D

 41 43  0  0  0  0  0  0  0  0999 V2000
  139.9390   69.8650  222.2100 O   0  0  0  0  0  0  0  0  0  0  0  0
  139.6000   70.9500  222.7100 C   0  0  0  0  0  0  0  0  0  0  0  0
  138.6800   71.0430  223.7660 N   0  0  0  0  0  0  0  0  0  0  0  0
  138.0620   69.8610  224.3490 C   0  0  0  0  0  0  0  0  0  0  0  0
  139.0860   68.9280  224.8830 C   0  0  0  0  0  0  0  0  0  0  0  0
  139.1780   67.7710  224.3990 O   0  0  0  0  0  0  0  0  0  0  0  0
  139.9180   69.4100  225.9300 N   0  0  0  0  0  0  0  0  0  0  0  0
  140.7030   68.5400  226.7860 C   0  0  0  0  0  0  0  0  0  0  0  0
  140.2980   68.6920  228.2400 C   0  0  0  0  0  0  0  0  0  0  0  0
  139.5280   69.9820  228.4320 C   0  0  0  0  0  0  0  0  0  0  0  0
  140.2870   71.0400  227.6360 C   0  0  1  0  0  0  0  0  0  0  0  0
  141.6370   70.8340  227.8990 F   0  0  0  0  0  0  0  0  0  0  0  0
  139.9950   70.8420  226.1680 C   0  0  0  0  0  0  0  0  0  0  0  0
  140.1910   72.1900  222.1650 C   0  0  0  0  0  0  0  0  0  0  0  0
  141.3020   72.1430  221.3420 C   0  0  0  0  0  0  0  0  0  0  0  0
  141.8520   73.3010  220.8340 C   0  0  0  0  0  0  0  0  0  0  0  0
  141.2860   74.5230  221.1530 C   0  0  0  0  0  0  0  0  0  0  0  0
  141.7610   75.7210  220.6990 C   0  0  0  0  0  0  0  0  0  0  0  0
  141.1240   76.9010  221.0750 C   0  0  0  0  0  0  0  0  0  0  0  0
  141.7140   78.4520  220.5040 Cl  0  0  0  0  0  0  0  0  0  0  0  0
  140.0260   76.8990  221.8930 C   0  0  0  0  0  0  0  0  0  0  0  0
  139.5530   75.6930  222.3450 C   0  0  0  0  0  0  0  0  0  0  0  0
  140.1900   74.5200  221.9700 C   0  0  0  0  0  0  0  0  0  0  0  0
  139.6760   73.3790  222.4500 N   0  0  0  0  0  0  0  0  0  0  0  0
  138.4400   71.9960  224.1370 H   0  0  0  0  0  0  0  0  0  0  0  0
  137.3969   70.1710  225.1685 H   0  0  0  0  0  0  0  0  0  0  0  0
  137.4934   69.3418  223.5634 H   0  0  0  0  0  0  0  0  0  0  0  0
  140.5465   67.4960  226.4770 H   0  0  0  0  0  0  0  0  0  0  0  0
  141.7627   68.8182  226.6882 H   0  0  0  0  0  0  0  0  0  0  0  0
  139.6634   67.8423  228.5320 H   0  0  0  0  0  0  0  0  0  0  0  0
  141.2023   68.7152  228.8658 H   0  0  0  0  0  0  0  0  0  0  0  0
  138.5022   69.8768  228.0489 H   0  0  0  0  0  0  0  0  0  0  0  0
  139.4499   70.2531  229.4952 H   0  0  0  0  0  0  0  0  0  0  0  0
  139.9924   72.0634  227.9113 H   0  0  0  0  0  0  0  0  0  0  0  0
  139.0385   71.3186  225.9072 H   0  0  0  0  0  0  0  0  0  0  0  0
  140.7833   71.2968  225.5501 H   0  0  0  0  0  0  0  0  0  0  0  0
  141.7516   71.1712  221.0901 H   0  0  0  0  0  0  0  0  0  0  0  0
  142.7348   73.2538  220.1795 H   0  0  0  0  0  0  0  0  0  0  0  0
  142.6414   75.7533  220.0404 H   0  0  0  0  0  0  0  0  0  0  0  0
  139.5354   77.8406  222.1806 H   0  0  0  0  0  0  0  0  0  0  0  0
  138.6718   75.6569  223.0024 H   0  0  0  0  0  0  0  0  0  0  0  0
  1  2  2  0
  2  3  1  0
  3  4  1  0
  4  5  1  0
  5  6  2  0
  5  7  1  0
  7  8  1  0
  8  9  1  0
  9 10  1  0
 10 11  1  0
 11 12  1  0
 11 13  1  0
  2 14  1  0
 14 15  2  0
 15 16  1  0
 16 17  2  0
 17 18  1  0
 18 19  2  0
 19 20  1  0
 19 21  1  0
 21 22  2  0
 22 23  1  0
 23 24  2  0
 13  7  1  0
 24 14  1  0
 23 17  1  0
  3 25  1  0
  4 26  1  0
  4 27  1  0
  8 28  1  0
  8 29  1  0
  9 30  1  0
  9 31  1  0
 10 32  1  0
 10 33  1  0
 11 34  1  1
 13 35  1  0
 13 36  1  0
 15 37  1  0
 16 38  1  0
 18 39  1  0
 21 40  1  0
 22 41  1  0
M  END
>  <smiles>  (62) 
O=C(NCC(=O)N1CCCC(F)C1)c1ccc2cc(Cl)ccc2n1

>  <score_type>  (62) 
oracle

>  <origin>  (62) 
autodockgpu

>  <m_score__min__energy>  (62) 
-7.4400000000000004

>  <m_primary>  (62) 
energy

>  <rmsd>  (62) 
8.320613614894642

>  <m_score__min__rmsd>  (62) 
8.320613614894642

>  <meeko>  (62) 
{"free_energy": -6.87, "intermolecular_energy": -8.07, "internal_energy": -1.04, "cluster_size": 18, "cluster_id": 2, "rank_in_cluster": 6}

>  <energy>  (62) 
-7.07

>  <cluster_rmsd>  (62) 
0.68

>  <cluster>  (62) 
1

$$$$

     RDKit          3D

 41 43  0  0  0  0  0  0  0  0999 V2000
  140.9780   72.8710  221.0580 O   0  0  0  0  0  0  0  0  0  0  0  0
  140.2160   73.0750  222.0180 C   0  0  0  0  0  0  0  0  0  0  0  0
  139.4440   74.2410  222.1380 N   0  0  0  0  0  0  0  0  0  0  0  0
  139.4890   75.2950  221.1350 C   0  0  0  0  0  0  0  0  0  0  0  0
  140.7230   76.1100  221.2680 C   0  0  0  0  0  0  0  0  0  0  0  0
  141.8410   75.5710  221.0700 O   0  0  0  0  0  0  0  0  0  0  0  0
  140.5610   77.4780  221.6190 N   0  0  0  0  0  0  0  0  0  0  0  0
  141.4290   78.5330  221.1260 C   0  0  0  0  0  0  0  0  0  0  0  0
  142.1290   79.2430  222.2700 C   0  0  0  0  0  0  0  0  0  0  0  0
  141.4140   78.9580  223.5740 C   0  0  0  0  0  0  0  0  0  0  0  0
  139.9250   79.0850  223.2660 C   0  0  1  0  0  0  0  0  0  0  0  0
  139.7830   80.2200  222.4760 F   0  0  0  0  0  0  0  0  0  0  0  0
  139.4790   77.8540  222.5140 C   0  0  0  0  0  0  0  0  0  0  0  0
  140.1230   72.0440  223.0720 C   0  0  0  0  0  0  0  0  0  0  0  0
  139.5310   70.8200  222.8160 C   0  0  0  0  0  0  0  0  0  0  0  0
  139.4450   69.8590  223.8020 C   0  0  0  0  0  0  0  0  0  0  0  0
  139.9570   70.1230  225.0600 C   0  0  0  0  0  0  0  0  0  0  0  0
  139.9170   69.2350  226.0970 C   0  0  0  0  0  0  0  0  0  0  0  0
  140.4590   69.5910  227.3300 C   0  0  0  0  0  0  0  0  0  0  0  0
  140.4210   68.4670  228.6770 Cl  0  0  0  0  0  0  0  0  0  0  0  0
  141.0350   70.8150  227.5370 C   0  0  0  0  0  0  0  0  0  0  0  0
  141.0720   71.7030  226.4920 C   0  0  0  0  0  0  0  0  0  0  0  0
  140.5320   71.3460  225.2660 C   0  0  0  0  0  0  0  0  0  0  0  0
  140.6010   72.2620  224.2900 N   0  0  0  0  0  0  0  0  0  0  0  0
  138.8230   74.3440  222.9780 H   0  0  0  0  0  0  0  0  0  0  0  0
  139.4661   74.8392  220.1341 H   0  0  0  0  0  0  0  0  0  0  0  0
  138.6195   75.9527  221.2814 H   0  0  0  0  0  0  0  0  0  0  0  0
  142.1855   78.0937  220.4591 H   0  0  0  0  0  0  0  0  0  0  0  0
  140.8145   79.2663  220.5832 H   0  0  0  0  0  0  0  0  0  0  0  0
  143.1673   78.8863  222.3388 H   0  0  0  0  0  0  0  0  0  0  0  0
  142.1175   80.3268  222.0823 H   0  0  0  0  0  0  0  0  0  0  0  0
  141.6475   77.9421  223.9252 H   0  0  0  0  0  0  0  0  0  0  0  0
  141.7248   79.6536  224.3674 H   0  0  0  0  0  0  0  0  0  0  0  0
  139.3152   79.1715  224.1774 H   0  0  0  0  0  0  0  0  0  0  0  0
  139.2729   77.0359  223.2198 H   0  0  0  0  0  0  0  0  0  0  0  0
  138.5579   78.0562  221.9477 H   0  0  0  0  0  0  0  0  0  0  0  0
  139.1245   70.6109  221.8155 H   0  0  0  0  0  0  0  0  0  0  0  0
  138.9723   68.8888  223.5894 H   0  0  0  0  0  0  0  0  0  0  0  0
  139.4594   68.2442  225.9594 H   0  0  0  0  0  0  0  0  0  0  0  0
  141.4579   71.0803  228.5172 H   0  0  0  0  0  0  0  0  0  0  0  0
  141.5285   72.6948  226.6263 H   0  0  0  0  0  0  0  0  0  0  0  0
  1  2  2  0
  2  3  1  0
  3  4  1  0
  4  5  1  0
  5  6  2  0
  5  7  1  0
  7  8  1  0
  8  9  1  0
  9 10  1  0
 10 11  1  0
 11 12  1  0
 11 13  1  0
  2 14  1  0
 14 15  2  0
 15 16  1  0
 16 17  2  0
 17 18  1  0
 18 19  2  0
 19 20  1  0
 19 21  1  0
 21 22  2  0
 22 23  1  0
 23 24  2  0
 13  7  1  0
 24 14  1  0
 23 17  1  0
  3 25  1  0
  4 26  1  0
  4 27  1  0
  8 28  1  0
  8 29  1  0
  9 30  1  0
  9 31  1  0
 10 32  1  0
 10 33  1  0
 11 34  1  1
 13 35  1  0
 13 36  1  0
 15 37  1  0
 16 38  1  0
 18 39  1  0
 21 40  1  0
 22 41  1  0
M  END
>  <smiles>  (63) 
O=C(NCC(=O)N1CCCC(F)C1)c1ccc2cc(Cl)ccc2n1

>  <score_type>  (63) 
oracle

>  <origin>  (63) 
autodockgpu

>  <m_score__min__energy>  (63) 
-7.4400000000000004

>  <m_primary>  (63) 
energy

>  <rmsd>  (63) 
3.3042216690142667

>  <m_score__min__rmsd>  (63) 
3.3042216690142667

>  <meeko>  (63) 
{"free_energy": -7.41, "intermolecular_energy": -8.61, "internal_energy": -0.81, "cluster_size": 23, "cluster_id": 1, "rank_in_cluster": 4}

>  <energy>  (63) 
-7.06

>  <cluster_rmsd>  (63) 
1.12

>  <cluster>  (63) 
1

$$$$

     RDKit          3D

 41 43  0  0  0  0  0  0  0  0999 V2000
  139.9360   72.3000  220.6690 O   0  0  0  0  0  0  0  0  0  0  0  0
  139.7670   72.7130  221.8280 C   0  0  0  0  0  0  0  0  0  0  0  0
  139.5260   74.0640  222.1240 N   0  0  0  0  0  0  0  0  0  0  0  0
  139.4560   75.0750  221.0790 C   0  0  0  0  0  0  0  0  0  0  0  0
  140.7990   75.6390  220.7890 C   0  0  0  0  0  0  0  0  0  0  0  0
  141.5930   74.9930  220.0580 O   0  0  0  0  0  0  0  0  0  0  0  0
  141.1110   76.9000  221.3660 N   0  0  0  0  0  0  0  0  0  0  0  0
  140.7420   77.2660  222.7210 C   0  0  0  0  0  0  0  0  0  0  0  0
  139.8380   78.4850  222.7300 C   0  0  0  0  0  0  0  0  0  0  0  0
  139.9340   79.2130  221.4060 C   0  0  0  0  0  0  0  0  0  0  0  0
  141.4190   79.2470  221.0590 C   0  0  1  0  0  0  0  0  0  0  0  0
  142.0880   79.5740  222.2330 F   0  0  0  0  0  0  0  0  0  0  0  0
  141.8350   77.8790  220.5720 C   0  0  0  0  0  0  0  0  0  0  0  0
  139.8240   71.7380  222.9370 C   0  0  0  0  0  0  0  0  0  0  0  0
  139.3450   70.4500  222.7730 C   0  0  0  0  0  0  0  0  0  0  0  0
  139.4000   69.5410  223.8090 C   0  0  0  0  0  0  0  0  0  0  0  0
  139.9390   69.9230  225.0250 C   0  0  0  0  0  0  0  0  0  0  0  0
  140.0360   69.0930  226.1070 C   0  0  0  0  0  0  0  0  0  0  0  0
  140.5940   69.5680  227.2910 C   0  0  0  0  0  0  0  0  0  0  0  0
  140.7290   68.5220  228.6930 Cl  0  0  0  0  0  0  0  0  0  0  0  0
  141.0550   70.8510  227.4060 C   0  0  0  0  0  0  0  0  0  0  0  0
  140.9570   71.6800  226.3170 C   0  0  0  0  0  0  0  0  0  0  0  0
  140.3990   71.2050  225.1400 C   0  0  0  0  0  0  0  0  0  0  0  0
  140.3340   72.0680  224.1160 N   0  0  0  0  0  0  0  0  0  0  0  0
  139.3930   74.3390  223.1280 H   0  0  0  0  0  0  0  0  0  0  0  0
  139.0531   74.6177  220.1633 H   0  0  0  0  0  0  0  0  0  0  0  0
  138.8024   75.8895  221.4245 H   0  0  0  0  0  0  0  0  0  0  0  0
  140.2132   76.4229  223.1896 H   0  0  0  0  0  0  0  0  0  0  0  0
  141.6583   77.5061  223.2802 H   0  0  0  0  0  0  0  0  0  0  0  0
  138.7984   78.1659  222.8953 H   0  0  0  0  0  0  0  0  0  0  0  0
  140.1542   79.1621  223.5372 H   0  0  0  0  0  0  0  0  0  0  0  0
  139.3713   78.6732  220.6301 H   0  0  0  0  0  0  0  0  0  0  0  0
  139.5088   80.2256  221.4683 H   0  0  0  0  0  0  0  0  0  0  0  0
  141.6477   79.9773  220.2688 H   0  0  0  0  0  0  0  0  0  0  0  0
  141.5797   77.7642  219.5082 H   0  0  0  0  0  0  0  0  0  0  0  0
  142.9211   77.7409  220.6784 H   0  0  0  0  0  0  0  0  0  0  0  0
  138.9159   70.1480  221.8062 H   0  0  0  0  0  0  0  0  0  0  0  0
  139.0179   68.5190  223.6695 H   0  0  0  0  0  0  0  0  0  0  0  0
  139.6753   68.0558  226.0426 H   0  0  0  0  0  0  0  0  0  0  0  0
  141.4937   71.2094  228.3489 H   0  0  0  0  0  0  0  0  0  0  0  0
  141.3195   72.7168  226.3775 H   0  0  0  0  0  0  0  0  0  0  0  0
  1  2  2  0
  2  3  1  0
  3  4  1  0
  4  5  1  0
  5  6  2  0
  5  7  1  0
  7  8  1  0
  8  9  1  0
  9 10  1  0
 10 11  1  0
 11 12  1  0
 11 13  1  0
  2 14  1  0
 14 15  2  0
 15 16  1  0
 16 17  2  0
 17 18  1  0
 18 19  2  0
 19 20  1  0
 19 21  1  0
 21 22  2  0
 22 23  1  0
 23 24  2  0
 13  7  1  0
 24 14  1  0
 23 17  1  0
  3 25  1  0
  4 26  1  0
  4 27  1  0
  8 28  1  0
  8 29  1  0
  9 30  1  0
  9 31  1  0
 10 32  1  0
 10 33  1  0
 11 34  1  6
 13 35  1  0
 13 36  1  0
 15 37  1  0
 16 38  1  0
 18 39  1  0
 21 40  1  0
 22 41  1  0
M  END
>  <smiles>  (64) 
O=C(NCC(=O)N1CCCC(F)C1)c1ccc2cc(Cl)ccc2n1

>  <score_type>  (64) 
oracle

>  <origin>  (64) 
autodockgpu

>  <m_score__min__energy>  (64) 
-7.4400000000000004

>  <m_primary>  (64) 
energy

>  <rmsd>  (64) 
2.957566788311131

>  <m_score__min__rmsd>  (64) 
2.957566788311131

>  <meeko>  (64) 
{"free_energy": -6.79, "intermolecular_energy": -7.98, "internal_energy": -0.97, "cluster_size": 23, "cluster_id": 1, "rank_in_cluster": 22}

>  <energy>  (64) 
-7.05

>  <cluster_rmsd>  (64) 
1.25

>  <cluster>  (64) 
1

$$$$

     RDKit          3D

 41 43  0  0  0  0  0  0  0  0999 V2000
  141.5340   72.0690  220.8640 O   0  0  0  0  0  0  0  0  0  0  0  0
  141.0080   72.9090  221.6130 C   0  0  0  0  0  0  0  0  0  0  0  0
  140.2070   72.5500  222.7090 N   0  0  0  0  0  0  0  0  0  0  0  0
  139.9410   71.1570  223.0390 C   0  0  0  0  0  0  0  0  0  0  0  0
  138.8950   71.0450  224.0860 C   0  0  0  0  0  0  0  0  0  0  0  0
  137.7310   71.4530  223.8400 O   0  0  0  0  0  0  0  0  0  0  0  0
  139.2790   70.4710  225.3290 N   0  0  0  0  0  0  0  0  0  0  0  0
  140.2280   71.0950  226.2320 C   0  0  0  0  0  0  0  0  0  0  0  0
  141.4340   70.2020  226.4600 C   0  0  0  0  0  0  0  0  0  0  0  0
  141.1120   68.7800  226.0510 C   0  0  0  0  0  0  0  0  0  0  0  0
  139.7170   68.4970  226.5990 C   0  0  1  0  0  0  0  0  0  0  0  0
  139.6910   69.0120  227.8900 F   0  0  0  0  0  0  0  0  0  0  0  0
  138.7020   69.1970  225.7260 C   0  0  0  0  0  0  0  0  0  0  0  0
  141.2370   74.3410  221.3340 C   0  0  0  0  0  0  0  0  0  0  0  0
  142.0460   74.7380  220.2830 C   0  0  0  0  0  0  0  0  0  0  0  0
  142.2580   76.0760  220.0240 C   0  0  0  0  0  0  0  0  0  0  0  0
  141.6570   77.0310  220.8250 C   0  0  0  0  0  0  0  0  0  0  0  0
  141.8090   78.3770  220.6460 C   0  0  0  0  0  0  0  0  0  0  0  0
  141.1630   79.2630  221.5040 C   0  0  0  0  0  0  0  0  0  0  0  0
  141.3420   80.9960  221.2940 Cl  0  0  0  0  0  0  0  0  0  0  0  0
  140.3720   78.8240  222.5310 C   0  0  0  0  0  0  0  0  0  0  0  0
  140.2220   77.4720  222.7060 C   0  0  0  0  0  0  0  0  0  0  0  0
  140.8670   76.5920  221.8510 C   0  0  0  0  0  0  0  0  0  0  0  0
  140.6780   75.2850  222.0800 N   0  0  0  0  0  0  0  0  0  0  0  0
  139.7950   73.3150  223.2980 H   0  0  0  0  0  0  0  0  0  0  0  0
  139.6008   70.6323  222.1340 H   0  0  0  0  0  0  0  0  0  0  0  0
  140.8682   70.7062  223.4225 H   0  0  0  0  0  0  0  0  0  0  0  0
  140.5638   72.0482  225.7976 H   0  0  0  0  0  0  0  0  0  0  0  0
  139.7310   71.2643  227.1986 H   0  0  0  0  0  0  0  0  0  0  0  0
  142.2788   70.5710  225.8599 H   0  0  0  0  0  0  0  0  0  0  0  0
  141.6984   70.2189  227.5276 H   0  0  0  0  0  0  0  0  0  0  0  0
  141.1197   68.6853  224.9551 H   0  0  0  0  0  0  0  0  0  0  0  0
  141.8534   68.0679  226.4424 H   0  0  0  0  0  0  0  0  0  0  0  0
  139.4809   67.4227  226.6079 H   0  0  0  0  0  0  0  0  0  0  0  0
  138.4868   68.5875  224.8360 H   0  0  0  0  0  0  0  0  0  0  0  0
  137.7587   69.3495  226.2709 H   0  0  0  0  0  0  0  0  0  0  0  0
  142.5248   73.9782  219.6478 H   0  0  0  0  0  0  0  0  0  0  0  0
  142.9010   76.3821  219.1857 H   0  0  0  0  0  0  0  0  0  0  0  0
  142.4383   78.7586  219.8285 H   0  0  0  0  0  0  0  0  0  0  0  0
  139.8689   79.5380  223.1997 H   0  0  0  0  0  0  0  0  0  0  0  0
  139.5922   77.0874  223.5218 H   0  0  0  0  0  0  0  0  0  0  0  0
  1  2  2  0
  2  3  1  0
  3  4  1  0
  4  5  1  0
  5  6  2  0
  5  7  1  0
  7  8  1  0
  8  9  1  0
  9 10  1  0
 10 11  1  0
 11 12  1  0
 11 13  1  0
  2 14  1  0
 14 15  2  0
 15 16  1  0
 16 17  2  0
 17 18  1  0
 18 19  2  0
 19 20  1  0
 19 21  1  0
 21 22  2  0
 22 23  1  0
 23 24  2  0
 13  7  1  0
 24 14  1  0
 23 17  1  0
  3 25  1  0
  4 26  1  0
  4 27  1  0
  8 28  1  0
  8 29  1  0
  9 30  1  0
  9 31  1  0
 10 32  1  0
 10 33  1  0
 11 34  1  1
 13 35  1  0
 13 36  1  0
 15 37  1  0
 16 38  1  0
 18 39  1  0
 21 40  1  0
 22 41  1  0
M  END
>  <smiles>  (65) 
O=C(NCC(=O)N1CCCC(F)C1)c1ccc2cc(Cl)ccc2n1

>  <score_type>  (65) 
oracle

>  <origin>  (65) 
autodockgpu

>  <m_score__min__energy>  (65) 
-7.4400000000000004

>  <m_primary>  (65) 
energy

>  <rmsd>  (65) 
8.46309368429011

>  <m_score__min__rmsd>  (65) 
8.46309368429011

>  <meeko>  (65) 
{"free_energy": -6.52, "intermolecular_energy": -7.71, "internal_energy": -1.13, "cluster_size": 18, "cluster_id": 2, "rank_in_cluster": 15}

>  <energy>  (65) 
-7.01

>  <cluster_rmsd>  (65) 
1.43

>  <cluster>  (65) 
1

$$$$

     RDKit          3D

 41 43  0  0  0  0  0  0  0  0999 V2000
  139.0640   71.6260  220.9340 O   0  0  0  0  0  0  0  0  0  0  0  0
  139.3000   72.0930  222.0600 C   0  0  0  0  0  0  0  0  0  0  0  0
  139.3860   73.4730  222.3060 N   0  0  0  0  0  0  0  0  0  0  0  0
  139.2000   74.4520  221.2450 C   0  0  0  0  0  0  0  0  0  0  0  0
  140.2380   75.5120  221.3070 C   0  0  0  0  0  0  0  0  0  0  0  0
  140.2410   76.3150  222.2750 O   0  0  0  0  0  0  0  0  0  0  0  0
  141.1830   75.5560  220.2460 N   0  0  0  0  0  0  0  0  0  0  0  0
  141.3930   74.4560  219.3220 C   0  0  0  0  0  0  0  0  0  0  0  0
  142.8230   73.9520  219.3880 C   0  0  0  0  0  0  0  0  0  0  0  0
  143.7090   74.9880  220.0480 C   0  0  0  0  0  0  0  0  0  0  0  0
  143.2960   76.3290  219.4470 C   0  0  1  0  0  0  0  0  0  0  0  0
  143.1470   76.1170  218.0810 F   0  0  0  0  0  0  0  0  0  0  0  0
  141.9860   76.7540  220.0660 C   0  0  0  0  0  0  0  0  0  0  0  0
  139.4980   71.1530  223.1830 C   0  0  0  0  0  0  0  0  0  0  0  0
  139.1080   69.8300  223.0770 C   0  0  0  0  0  0  0  0  0  0  0  0
  139.2940   68.9540  224.1260 C   0  0  0  0  0  0  0  0  0  0  0  0
  139.8760   69.4050  225.2970 C   0  0  0  0  0  0  0  0  0  0  0  0
  140.1000   68.6130  226.3880 C   0  0  0  0  0  0  0  0  0  0  0  0
  140.6930   69.1570  227.5240 C   0  0  0  0  0  0  0  0  0  0  0  0
  140.9920   68.1600  228.9370 Cl  0  0  0  0  0  0  0  0  0  0  0  0
  141.0630   70.4740  227.5840 C   0  0  0  0  0  0  0  0  0  0  0  0
  140.8360   71.2650  226.4860 C   0  0  0  0  0  0  0  0  0  0  0  0
  140.2450   70.7200  225.3560 C   0  0  0  0  0  0  0  0  0  0  0  0
  140.0520   71.5500  224.3210 N   0  0  0  0  0  0  0  0  0  0  0  0
  139.5890   73.7940  223.2850 H   0  0  0  0  0  0  0  0  0  0  0  0
  139.2638   73.9434  220.2717 H   0  0  0  0  0  0  0  0  0  0  0  0
  138.2134   74.9216  221.3722 H   0  0  0  0  0  0  0  0  0  0  0  0
  140.7100   73.6337  219.5814 H   0  0  0  0  0  0  0  0  0  0  0  0
  141.1960   74.8150  218.3011 H   0  0  0  0  0  0  0  0  0  0  0  0
  142.8541   73.0208  219.9727 H   0  0  0  0  0  0  0  0  0  0  0  0
  143.1866   73.7646  218.3669 H   0  0  0  0  0  0  0  0  0  0  0  0
  143.5505   74.9906  221.1365 H   0  0  0  0  0  0  0  0  0  0  0  0
  144.7752   74.7780  219.8773 H   0  0  0  0  0  0  0  0  0  0  0  0
  144.0381   77.1188  219.6354 H   0  0  0  0  0  0  0  0  0  0  0  0
  142.1678   77.2347  221.0386 H   0  0  0  0  0  0  0  0  0  0  0  0
  141.4667   77.4768  219.4196 H   0  0  0  0  0  0  0  0  0  0  0  0
  138.6444   69.4726  222.1457 H   0  0  0  0  0  0  0  0  0  0  0  0
  138.9815   67.9035  224.0320 H   0  0  0  0  0  0  0  0  0  0  0  0
  139.8132   67.5512  226.3686 H   0  0  0  0  0  0  0  0  0  0  0  0
  141.5305   70.8875  228.4898 H   0  0  0  0  0  0  0  0  0  0  0  0
  141.1217   72.3271  226.5020 H   0  0  0  0  0  0  0  0  0  0  0  0
  1  2  2  0
  2  3  1  0
  3  4  1  0
  4  5  1  0
  5  6  2  0
  5  7  1  0
  7  8  1  0
  8  9  1  0
  9 10  1  0
 10 11  1  0
 11 12  1  0
 11 13  1  0
  2 14  1  0
 14 15  2  0
 15 16  1  0
 16 17  2  0
 17 18  1  0
 18 19  2  0
 19 20  1  0
 19 21  1  0
 21 22  2  0
 22 23  1  0
 23 24  2  0
 13  7  1  0
 24 14  1  0
 23 17  1  0
  3 25  1  0
  4 26  1  0
  4 27  1  0
  8 28  1  0
  8 29  1  0
  9 30  1  0
  9 31  1  0
 10 32  1  0
 10 33  1  0
 11 34  1  6
 13 35  1  0
 13 36  1  0
 15 37  1  0
 16 38  1  0
 18 39  1  0
 21 40  1  0
 22 41  1  0
M  END
>  <smiles>  (66) 
O=C(NCC(=O)N1CCCC(F)C1)c1ccc2cc(Cl)ccc2n1

>  <score_type>  (66) 
oracle

>  <origin>  (66) 
autodockgpu

>  <m_score__min__energy>  (66) 
-7.4400000000000004

>  <m_primary>  (66) 
energy

>  <rmsd>  (66) 
2.3564813301578815

>  <m_score__min__rmsd>  (66) 
2.3564813301578815

>  <meeko>  (66) 
{"free_energy": -6.59, "intermolecular_energy": -7.79, "internal_energy": -1.23, "cluster_size": 4, "cluster_id": 4, "rank_in_cluster": 3}

>  <energy>  (66) 
-6.99

>  <cluster_rmsd>  (66) 
1.38

>  <cluster>  (66) 
1

$$$$

     RDKit          3D

 41 43  0  0  0  0  0  0  0  0999 V2000
  140.2980   74.1390  222.2680 O   0  0  0  0  0  0  0  0  0  0  0  0
  140.3840   72.9380  221.9630 C   0  0  0  0  0  0  0  0  0  0  0  0
  140.5970   72.5040  220.6450 N   0  0  0  0  0  0  0  0  0  0  0  0
  140.7330   73.4440  219.5430 C   0  0  0  0  0  0  0  0  0  0  0  0
  141.8140   74.4270  219.8060 C   0  0  0  0  0  0  0  0  0  0  0  0
  141.5120   75.5990  220.1470 O   0  0  0  0  0  0  0  0  0  0  0  0
  143.1530   73.9730  219.6550 N   0  0  0  0  0  0  0  0  0  0  0  0
  143.4960   72.6980  219.0520 C   0  0  0  0  0  0  0  0  0  0  0  0
  144.2490   71.8160  220.0310 C   0  0  0  0  0  0  0  0  0  0  0  0
  144.7980   72.6530  221.1670 C   0  0  0  0  0  0  0  0  0  0  0  0
  145.3780   73.9050  220.5170 C   0  0  1  0  0  0  0  0  0  0  0  0
  146.0760   73.4770  219.3940 F   0  0  0  0  0  0  0  0  0  0  0  0
  144.2410   74.8170  220.1220 C   0  0  0  0  0  0  0  0  0  0  0  0
  140.2560   71.9300  223.0360 C   0  0  0  0  0  0  0  0  0  0  0  0
  139.6830   70.6950  222.7830 C   0  0  0  0  0  0  0  0  0  0  0  0
  139.5650   69.7560  223.7860 C   0  0  0  0  0  0  0  0  0  0  0  0
  140.0230   70.0520  225.0580 C   0  0  0  0  0  0  0  0  0  0  0  0
  139.9480   69.1860  226.1120 C   0  0  0  0  0  0  0  0  0  0  0  0
  140.4370   69.5730  227.3570 C   0  0  0  0  0  0  0  0  0  0  0  0
  140.3520   68.4790  228.7260 Cl  0  0  0  0  0  0  0  0  0  0  0  0
  140.9960   70.8060  227.5600 C   0  0  0  0  0  0  0  0  0  0  0  0
  141.0690   71.6710  226.4980 C   0  0  0  0  0  0  0  0  0  0  0  0
  140.5810   71.2830  225.2590 C   0  0  0  0  0  0  0  0  0  0  0  0
  140.6840   72.1780  224.2670 N   0  0  0  0  0  0  0  0  0  0  0  0
  140.6580   71.4710  220.4640 H   0  0  0  0  0  0  0  0  0  0  0  0
  140.9697   72.8877  218.6240 H   0  0  0  0  0  0  0  0  0  0  0  0
  139.7848   73.9904  219.4323 H   0  0  0  0  0  0  0  0  0  0  0  0
  142.5724   72.1860  218.7441 H   0  0  0  0  0  0  0  0  0  0  0  0
  144.1423   72.8854  218.1819 H   0  0  0  0  0  0  0  0  0  0  0  0
  143.5652   71.0557  220.4364 H   0  0  0  0  0  0  0  0  0  0  0  0
  145.0836   71.3267  219.5075 H   0  0  0  0  0  0  0  0  0  0  0  0
  143.9940   72.9224  221.8678 H   0  0  0  0  0  0  0  0  0  0  0  0
  145.5590   72.1056  221.7426 H   0  0  0  0  0  0  0  0  0  0  0  0
  146.0435   74.4586  221.1957 H   0  0  0  0  0  0  0  0  0  0  0  0
  143.9133   75.4079  220.9900 H   0  0  0  0  0  0  0  0  0  0  0  0
  144.5578   75.5161  219.3340 H   0  0  0  0  0  0  0  0  0  0  0  0
  139.3184   70.4607  221.7720 H   0  0  0  0  0  0  0  0  0  0  0  0
  139.1093   68.7770  223.5762 H   0  0  0  0  0  0  0  0  0  0  0  0
  139.5038   68.1886  225.9779 H   0  0  0  0  0  0  0  0  0  0  0  0
  141.3772   71.0959  228.5503 H   0  0  0  0  0  0  0  0  0  0  0  0
  141.5130   72.6689  226.6285 H   0  0  0  0  0  0  0  0  0  0  0  0
  1  2  2  0
  2  3  1  0
  3  4  1  0
  4  5  1  0
  5  6  2  0
  5  7  1  0
  7  8  1  0
  8  9  1  0
  9 10  1  0
 10 11  1  0
 11 12  1  0
 11 13  1  0
  2 14  1  0
 14 15  2  0
 15 16  1  0
 16 17  2  0
 17 18  1  0
 18 19  2  0
 19 20  1  0
 19 21  1  0
 21 22  2  0
 22 23  1  0
 23 24  2  0
 13  7  1  0
 24 14  1  0
 23 17  1  0
  3 25  1  0
  4 26  1  0
  4 27  1  0
  8 28  1  0
  8 29  1  0
  9 30  1  0
  9 31  1  0
 10 32  1  0
 10 33  1  0
 11 34  1  1
 13 35  1  0
 13 36  1  0
 15 37  1  0
 16 38  1  0
 18 39  1  0
 21 40  1  0
 22 41  1  0
M  END
>  <smiles>  (67) 
O=C(NCC(=O)N1CCCC(F)C1)c1ccc2cc(Cl)ccc2n1

>  <score_type>  (67) 
oracle

>  <origin>  (67) 
autodockgpu

>  <m_score__min__energy>  (67) 
-7.4400000000000004

>  <m_primary>  (67) 
energy

>  <rmsd>  (67) 
3.8450808702520276

>  <m_score__min__rmsd>  (67) 
3.8450808702520276

>  <meeko>  (67) 
{"free_energy": -6.85, "intermolecular_energy": -8.04, "internal_energy": -1.01, "cluster_size": 4, "cluster_id": 4, "rank_in_cluster": 2}

>  <energy>  (67) 
-6.98

>  <cluster_rmsd>  (67) 
1.33

>  <cluster>  (67) 
1

$$$$

     RDKit          3D

 41 43  0  0  0  0  0  0  0  0999 V2000
  140.3270   72.6610  220.8310 O   0  0  0  0  0  0  0  0  0  0  0  0
  139.9760   73.0000  221.9740 C   0  0  0  0  0  0  0  0  0  0  0  0
  139.5700   74.3060  222.2870 N   0  0  0  0  0  0  0  0  0  0  0  0
  139.5320   75.3570  221.2800 C   0  0  0  0  0  0  0  0  0  0  0  0
  140.6890   76.2770  221.4210 C   0  0  0  0  0  0  0  0  0  0  0  0
  141.7950   75.9570  220.9140 O   0  0  0  0  0  0  0  0  0  0  0  0
  140.4720   77.4870  222.1340 N   0  0  0  0  0  0  0  0  0  0  0  0
  139.3080   78.3310  221.9320 C   0  0  0  0  0  0  0  0  0  0  0  0
  139.7130   79.7180  221.4690 C   0  0  0  0  0  0  0  0  0  0  0  0
  141.1790   79.9570  221.7660 C   0  0  0  0  0  0  0  0  0  0  0  0
  141.4080   79.4200  223.1760 C   0  0  1  0  0  0  0  0  0  0  0  0
  140.3280   79.8490  223.9390 F   0  0  0  0  0  0  0  0  0  0  0  0
  141.4540   77.9120  223.1180 C   0  0  0  0  0  0  0  0  0  0  0  0
  139.9910   71.9810  223.0440 C   0  0  0  0  0  0  0  0  0  0  0  0
  139.5160   70.7020  222.8120 C   0  0  0  0  0  0  0  0  0  0  0  0
  139.5310   69.7520  223.8120 C   0  0  0  0  0  0  0  0  0  0  0  0
  140.0270   70.0830  225.0610 C   0  0  0  0  0  0  0  0  0  0  0  0
  140.0810   69.2110  226.1110 C   0  0  0  0  0  0  0  0  0  0  0  0
  140.5980   69.6360  227.3330 C   0  0  0  0  0  0  0  0  0  0  0  0
  140.6790   68.5340  228.6960 Cl  0  0  0  0  0  0  0  0  0  0  0  0
  141.0570   70.9120  227.5160 C   0  0  0  0  0  0  0  0  0  0  0  0
  141.0000   71.7840  226.4580 C   0  0  0  0  0  0  0  0  0  0  0  0
  140.4850   71.3580  225.2430 C   0  0  0  0  0  0  0  0  0  0  0  0
  140.4580   72.2620  224.2540 N   0  0  0  0  0  0  0  0  0  0  0  0
  139.2880   74.5190  223.2760 H   0  0  0  0  0  0  0  0  0  0  0  0
  139.5583   74.8978  220.2808 H   0  0  0  0  0  0  0  0  0  0  0  0
  138.6071   75.9367  221.4159 H   0  0  0  0  0  0  0  0  0  0  0  0
  138.6599   77.8729  221.1704 H   0  0  0  0  0  0  0  0  0  0  0  0
  138.7736   78.4242  222.8889 H   0  0  0  0  0  0  0  0  0  0  0  0
  139.5422   79.8046  220.3858 H   0  0  0  0  0  0  0  0  0  0  0  0
  139.1100   80.4669  222.0033 H   0  0  0  0  0  0  0  0  0  0  0  0
  141.8095   79.4182  221.0434 H   0  0  0  0  0  0  0  0  0  0  0  0
  141.4399   81.0229  221.6904 H   0  0  0  0  0  0  0  0  0  0  0  0
  142.3529   79.7766  223.6118 H   0  0  0  0  0  0  0  0  0  0  0  0
  142.4577   77.5773  222.8170 H   0  0  0  0  0  0  0  0  0  0  0  0
  141.2309   77.4774  224.1036 H   0  0  0  0  0  0  0  0  0  0  0  0
  139.1221   70.4400  221.8189 H   0  0  0  0  0  0  0  0  0  0  0  0
  139.1513   68.7380  223.6180 H   0  0  0  0  0  0  0  0  0  0  0  0
  139.7184   68.1793  225.9925 H   0  0  0  0  0  0  0  0  0  0  0  0
  141.4619   71.2311  228.4877 H   0  0  0  0  0  0  0  0  0  0  0  0
  141.3613   72.8166  226.5732 H   0  0  0  0  0  0  0  0  0  0  0  0
  1  2  2  0
  2  3  1  0
  3  4  1  0
  4  5  1  0
  5  6  2  0
  5  7  1  0
  7  8  1  0
  8  9  1  0
  9 10  1  0
 10 11  1  0
 11 12  1  0
 11 13  1  0
  2 14  1  0
 14 15  2  0
 15 16  1  0
 16 17  2  0
 17 18  1  0
 18 19  2  0
 19 20  1  0
 19 21  1  0
 21 22  2  0
 22 23  1  0
 23 24  2  0
 13  7  1  0
 24 14  1  0
 23 17  1  0
  3 25  1  0
  4 26  1  0
  4 27  1  0
  8 28  1  0
  8 29  1  0
  9 30  1  0
  9 31  1  0
 10 32  1  0
 10 33  1  0
 11 34  1  1
 13 35  1  0
 13 36  1  0
 15 37  1  0
 16 38  1  0
 18 39  1  0
 21 40  1  0
 22 41  1  0
M  END
>  <smiles>  (68) 
O=C(NCC(=O)N1CCCC(F)C1)c1ccc2cc(Cl)ccc2n1

>  <score_type>  (68) 
oracle

>  <origin>  (68) 
autodockgpu

>  <m_score__min__energy>  (68) 
-7.4400000000000004

>  <m_primary>  (68) 
energy

>  <rmsd>  (68) 
3.4441409278192503

>  <m_score__min__rmsd>  (68) 
3.4441409278192503

>  <meeko>  (68) 
{"free_energy": -7.07, "intermolecular_energy": -8.27, "internal_energy": -0.91, "cluster_size": 23, "cluster_id": 1, "rank_in_cluster": 12}

>  <energy>  (68) 
-6.91

>  <cluster_rmsd>  (68) 
1.43

>  <cluster>  (68) 
1

$$$$

     RDKit          3D

 41 43  0  0  0  0  0  0  0  0999 V2000
  140.8930   71.6780  221.2780 O   0  0  0  0  0  0  0  0  0  0  0  0
  140.1730   72.5930  221.7090 C   0  0  0  0  0  0  0  0  0  0  0  0
  138.9630   72.3540  222.3800 N   0  0  0  0  0  0  0  0  0  0  0  0
  138.4730   71.0040  222.6150 C   0  0  0  0  0  0  0  0  0  0  0  0
  138.3240   70.7330  224.0670 C   0  0  0  0  0  0  0  0  0  0  0  0
  137.1820   70.7950  224.5910 O   0  0  0  0  0  0  0  0  0  0  0  0
  139.5050   70.4140  224.7920 N   0  0  0  0  0  0  0  0  0  0  0  0
  139.6660   69.1860  225.5480 C   0  0  0  0  0  0  0  0  0  0  0  0
  139.9100   69.4770  227.0170 C   0  0  0  0  0  0  0  0  0  0  0  0
  140.3440   70.9170  227.1960 C   0  0  0  0  0  0  0  0  0  0  0  0
  141.3560   71.1850  226.0860 C   0  0  1  0  0  0  0  0  0  0  0  0
  142.1870   70.0710  226.0360 F   0  0  0  0  0  0  0  0  0  0  0  0
  140.6130   71.3550  224.7830 C   0  0  0  0  0  0  0  0  0  0  0  0
  140.6130   73.9890  221.5050 C   0  0  0  0  0  0  0  0  0  0  0  0
  141.6470   74.2860  220.6340 C   0  0  0  0  0  0  0  0  0  0  0  0
  142.0560   75.5890  220.4440 C   0  0  0  0  0  0  0  0  0  0  0  0
  141.4240   76.6100  221.1320 C   0  0  0  0  0  0  0  0  0  0  0  0
  141.7600   77.9290  221.0090 C   0  0  0  0  0  0  0  0  0  0  0  0
  141.0660   78.8880  221.7430 C   0  0  0  0  0  0  0  0  0  0  0  0
  141.4780   80.5880  221.6020 Cl  0  0  0  0  0  0  0  0  0  0  0  0
  140.0480   78.5470  222.5930 C   0  0  0  0  0  0  0  0  0  0  0  0
  139.7150   77.2210  222.7120 C   0  0  0  0  0  0  0  0  0  0  0  0
  140.4080   76.2690  221.9800 C   0  0  0  0  0  0  0  0  0  0  0  0
  140.0310   74.9940  222.1470 N   0  0  0  0  0  0  0  0  0  0  0  0
  138.4070   73.1790  222.7160 H   0  0  0  0  0  0  0  0  0  0  0  0
  137.4948   70.8869  222.1258 H   0  0  0  0  0  0  0  0  0  0  0  0
  139.2013   70.2916  222.2003 H   0  0  0  0  0  0  0  0  0  0  0  0
  138.7530   68.5805  225.4485 H   0  0  0  0  0  0  0  0  0  0  0  0
  140.5357   68.6423  225.1504 H   0  0  0  0  0  0  0  0  0  0  0  0
  138.9820   69.3036  227.5815 H   0  0  0  0  0  0  0  0  0  0  0  0
  140.7035   68.8124  227.3892 H   0  0  0  0  0  0  0  0  0  0  0  0
  139.4811   71.5923  227.0994 H   0  0  0  0  0  0  0  0  0  0  0  0
  140.7789   71.0889  228.1917 H   0  0  0  0  0  0  0  0  0  0  0  0
  141.9446   72.0965  226.2671 H   0  0  0  0  0  0  0  0  0  0  0  0
  140.2327   72.3837  224.6978 H   0  0  0  0  0  0  0  0  0  0  0  0
  141.2781   71.1657  223.9275 H   0  0  0  0  0  0  0  0  0  0  0  0
  142.1480   73.4735  220.0873 H   0  0  0  0  0  0  0  0  0  0  0  0
  142.8791   75.8154  219.7503 H   0  0  0  0  0  0  0  0  0  0  0  0
  142.5741   78.2316  220.3340 H   0  0  0  0  0  0  0  0  0  0  0  0
  139.5105   79.3168  223.1662 H   0  0  0  0  0  0  0  0  0  0  0  0
  138.9012   76.9145  223.3857 H   0  0  0  0  0  0  0  0  0  0  0  0
  1  2  2  0
  2  3  1  0
  3  4  1  0
  4  5  1  0
  5  6  2  0
  5  7  1  0
  7  8  1  0
  8  9  1  0
  9 10  1  0
 10 11  1  0
 11 12  1  0
 11 13  1  0
  2 14  1  0
 14 15  2  0
 15 16  1  0
 16 17  2  0
 17 18  1  0
 18 19  2  0
 19 20  1  0
 19 21  1  0
 21 22  2  0
 22 23  1  0
 23 24  2  0
 13  7  1  0
 24 14  1  0
 23 17  1  0
  3 25  1  0
  4 26  1  0
  4 27  1  0
  8 28  1  0
  8 29  1  0
  9 30  1  0
  9 31  1  0
 10 32  1  0
 10 33  1  0
 11 34  1  1
 13 35  1  0
 13 36  1  0
 15 37  1  0
 16 38  1  0
 18 39  1  0
 21 40  1  0
 22 41  1  0
M  END
>  <smiles>  (69) 
O=C(NCC(=O)N1CCCC(F)C1)c1ccc2cc(Cl)ccc2n1

>  <score_type>  (69) 
oracle

>  <origin>  (69) 
autodockgpu

>  <m_score__min__energy>  (69) 
-7.4400000000000004

>  <m_primary>  (69) 
energy

>  <rmsd>  (69) 
8.144317546982554

>  <m_score__min__rmsd>  (69) 
8.144317546982554

>  <meeko>  (69) 
{"free_energy": -6.64, "intermolecular_energy": -7.83, "internal_energy": -1.21, "cluster_size": 18, "cluster_id": 2, "rank_in_cluster": 13}

>  <energy>  (69) 
-6.91

>  <cluster_rmsd>  (69) 
1.44

>  <cluster>  (69) 
1

$$$$

     RDKit          3D

 41 43  0  0  0  0  0  0  0  0999 V2000
  141.4660   72.0600  220.9340 O   0  0  0  0  0  0  0  0  0  0  0  0
  141.0110   72.9360  221.6880 C   0  0  0  0  0  0  0  0  0  0  0  0
  140.3100   72.6330  222.8660 N   0  0  0  0  0  0  0  0  0  0  0  0
  140.0730   71.2590  223.2830 C   0  0  0  0  0  0  0  0  0  0  0  0
  140.3960   71.0710  224.7210 C   0  0  0  0  0  0  0  0  0  0  0  0
  140.5790   72.0810  225.4470 O   0  0  0  0  0  0  0  0  0  0  0  0
  140.4800   69.7350  225.1970 N   0  0  0  0  0  0  0  0  0  0  0  0
  139.5140   68.7070  224.8540 C   0  0  0  0  0  0  0  0  0  0  0  0
  138.8310   68.1640  226.0960 C   0  0  0  0  0  0  0  0  0  0  0  0
  139.6370   68.5170  227.3290 C   0  0  0  0  0  0  0  0  0  0  0  0
  141.0930   68.2490  226.9620 C   0  0  1  0  0  0  0  0  0  0  0  0
  141.1100   67.0360  226.2820 F   0  0  0  0  0  0  0  0  0  0  0  0
  141.5820   69.3650  226.0710 C   0  0  0  0  0  0  0  0  0  0  0  0
  141.2170   74.3530  221.3240 C   0  0  0  0  0  0  0  0  0  0  0  0
  141.8710   74.6960  220.1530 C   0  0  0  0  0  0  0  0  0  0  0  0
  142.0620   76.0190  219.8140 C   0  0  0  0  0  0  0  0  0  0  0  0
  141.5950   77.0140  220.6550 C   0  0  0  0  0  0  0  0  0  0  0  0
  141.7380   78.3490  220.4040 C   0  0  0  0  0  0  0  0  0  0  0  0
  141.2340   79.2780  221.3100 C   0  0  0  0  0  0  0  0  0  0  0  0
  141.4050   80.9990  221.0090 Cl  0  0  0  0  0  0  0  0  0  0  0  0
  140.5930   78.8920  222.4570 C   0  0  0  0  0  0  0  0  0  0  0  0
  140.4520   77.5500  222.7040 C   0  0  0  0  0  0  0  0  0  0  0  0
  140.9560   76.6270  221.8000 C   0  0  0  0  0  0  0  0  0  0  0  0
  140.7830   75.3340  222.1050 N   0  0  0  0  0  0  0  0  0  0  0  0
  139.9540   73.4270  223.4540 H   0  0  0  0  0  0  0  0  0  0  0  0
  139.0141   71.0114  223.1177 H   0  0  0  0  0  0  0  0  0  0  0  0
  140.7227   70.5980  222.6906 H   0  0  0  0  0  0  0  0  0  0  0  0
  138.7541   69.1368  224.1848 H   0  0  0  0  0  0  0  0  0  0  0  0
  140.0438   67.8811  224.3568 H   0  0  0  0  0  0  0  0  0  0  0  0
  137.8260   68.6032  226.1801 H   0  0  0  0  0  0  0  0  0  0  0  0
  138.7553   67.0695  226.0162 H   0  0  0  0  0  0  0  0  0  0  0  0
  139.4959   69.5765  227.5889 H   0  0  0  0  0  0  0  0  0  0  0  0
  139.3232   67.9256  228.2018 H   0  0  0  0  0  0  0  0  0  0  0  0
  141.7453   68.2038  227.8466 H   0  0  0  0  0  0  0  0  0  0  0  0
  141.8848   70.2287  226.6812 H   0  0  0  0  0  0  0  0  0  0  0  0
  142.4533   69.0406  225.4831 H   0  0  0  0  0  0  0  0  0  0  0  0
  142.2424   73.9044  219.4856 H   0  0  0  0  0  0  0  0  0  0  0  0
  142.5822   76.2818  218.8811 H   0  0  0  0  0  0  0  0  0  0  0  0
  142.2488   78.6883  219.4908 H   0  0  0  0  0  0  0  0  0  0  0  0
  140.2010   79.6393  223.1626 H   0  0  0  0  0  0  0  0  0  0  0  0
  139.9410   77.2073  223.6158 H   0  0  0  0  0  0  0  0  0  0  0  0
  1  2  2  0
  2  3  1  0
  3  4  1  0
  4  5  1  0
  5  6  2  0
  5  7  1  0
  7  8  1  0
  8  9  1  0
  9 10  1  0
 10 11  1  0
 11 12  1  0
 11 13  1  0
  2 14  1  0
 14 15  2  0
 15 16  1  0
 16 17  2  0
 17 18  1  0
 18 19  2  0
 19 20  1  0
 19 21  1  0
 21 22  2  0
 22 23  1  0
 23 24  2  0
 13  7  1  0
 24 14  1  0
 23 17  1  0
  3 25  1  0
  4 26  1  0
  4 27  1  0
  8 28  1  0
  8 29  1  0
  9 30  1  0
  9 31  1  0
 10 32  1  0
 10 33  1  0
 11 34  1  1
 13 35  1  0
 13 36  1  0
 15 37  1  0
 16 38  1  0
 18 39  1  0
 21 40  1  0
 22 41  1  0
M  END
>  <smiles>  (70) 
O=C(NCC(=O)N1CCCC(F)C1)c1ccc2cc(Cl)ccc2n1

>  <score_type>  (70) 
oracle

>  <origin>  (70) 
autodockgpu

>  <m_score__min__energy>  (70) 
-7.4400000000000004

>  <m_primary>  (70) 
energy

>  <rmsd>  (70) 
8.874120892650048

>  <m_score__min__rmsd>  (70) 
8.874120892650048

>  <meeko>  (70) 
{"free_energy": -6.43, "intermolecular_energy": -7.62, "internal_energy": -1.31, "cluster_size": 18, "cluster_id": 2, "rank_in_cluster": 18}

>  <energy>  (70) 
-6.84

>  <cluster_rmsd>  (70) 
1.28

>  <cluster>  (70) 
1

$$$$

     RDKit          3D

 41 43  0  0  0  0  0  0  0  0999 V2000
  140.2440   72.8750  220.7820 O   0  0  0  0  0  0  0  0  0  0  0  0
  139.9030   73.1340  221.9480 C   0  0  0  0  0  0  0  0  0  0  0  0
  139.4860   74.4130  222.3500 N   0  0  0  0  0  0  0  0  0  0  0  0
  139.4240   75.5260  221.4140 C   0  0  0  0  0  0  0  0  0  0  0  0
  138.8560   76.7370  222.0580 C   0  0  0  0  0  0  0  0  0  0  0  0
  137.7260   76.6700  222.6070 O   0  0  0  0  0  0  0  0  0  0  0  0
  139.6390   77.9230  222.0150 N   0  0  0  0  0  0  0  0  0  0  0  0
  141.0900   77.9150  221.9790 C   0  0  0  0  0  0  0  0  0  0  0  0
  141.6690   78.6390  223.1810 C   0  0  0  0  0  0  0  0  0  0  0  0
  140.6120   79.5160  223.8180 C   0  0  0  0  0  0  0  0  0  0  0  0
  139.8940   80.2060  222.6630 C   0  0  1  0  0  0  0  0  0  0  0  0
  140.8830   80.6160  221.7750 F   0  0  0  0  0  0  0  0  0  0  0  0
  138.9670   79.2120  222.0050 C   0  0  0  0  0  0  0  0  0  0  0  0
  139.9420   72.0480  222.9490 C   0  0  0  0  0  0  0  0  0  0  0  0
  139.5020   70.7750  222.6310 C   0  0  0  0  0  0  0  0  0  0  0  0
  139.5400   69.7620  223.5670 C   0  0  0  0  0  0  0  0  0  0  0  0
  140.0220   70.0240  224.8370 C   0  0  0  0  0  0  0  0  0  0  0  0
  140.0970   69.0860  225.8280 C   0  0  0  0  0  0  0  0  0  0  0  0
  140.5980   69.4440  227.0780 C   0  0  0  0  0  0  0  0  0  0  0  0
  140.7050   68.2570  228.3660 Cl  0  0  0  0  0  0  0  0  0  0  0  0
  141.0220   70.7170  227.3470 C   0  0  0  0  0  0  0  0  0  0  0  0
  140.9450   71.6540  226.3480 C   0  0  0  0  0  0  0  0  0  0  0  0
  140.4450   71.2960  225.1050 C   0  0  0  0  0  0  0  0  0  0  0  0
  140.3980   72.2610  224.1770 N   0  0  0  0  0  0  0  0  0  0  0  0
  139.2140   74.5570  223.3530 H   0  0  0  0  0  0  0  0  0  0  0  0
  140.4397   75.7520  221.0573 H   0  0  0  0  0  0  0  0  0  0  0  0
  138.7733   75.2398  220.5746 H   0  0  0  0  0  0  0  0  0  0  0  0
  141.4440   76.8735  221.9818 H   0  0  0  0  0  0  0  0  0  0  0  0
  141.4203   78.4324  221.0662 H   0  0  0  0  0  0  0  0  0  0  0  0
  142.0205   77.9002  223.9163 H   0  0  0  0  0  0  0  0  0  0  0  0
  142.5092   79.2683  222.8523 H   0  0  0  0  0  0  0  0  0  0  0  0
  139.9052   78.9043  224.3978 H   0  0  0  0  0  0  0  0  0  0  0  0
  141.0551   80.2447  224.5127 H   0  0  0  0  0  0  0  0  0  0  0  0
  139.2952   81.0662  222.9969 H   0  0  0  0  0  0  0  0  0  0  0  0
  138.0230   79.1489  222.5661 H   0  0  0  0  0  0  0  0  0  0  0  0
  138.7315   79.5208  220.9758 H   0  0  0  0  0  0  0  0  0  0  0  0
  139.1178   70.5686  221.6211 H   0  0  0  0  0  0  0  0  0  0  0  0
  139.1894   68.7528  223.3052 H   0  0  0  0  0  0  0  0  0  0  0  0
  139.7639   68.0546  225.6401 H   0  0  0  0  0  0  0  0  0  0  0  0
  141.4148   70.9823  228.3396 H   0  0  0  0  0  0  0  0  0  0  0  0
  141.2787   72.6858  226.5323 H   0  0  0  0  0  0  0  0  0  0  0  0
  1  2  2  0
  2  3  1  0
  3  4  1  0
  4  5  1  0
  5  6  2  0
  5  7  1  0
  7  8  1  0
  8  9  1  0
  9 10  1  0
 10 11  1  0
 11 12  1  0
 11 13  1  0
  2 14  1  0
 14 15  2  0
 15 16  1  0
 16 17  2  0
 17 18  1  0
 18 19  2  0
 19 20  1  0
 19 21  1  0
 21 22  2  0
 22 23  1  0
 23 24  2  0
 13  7  1  0
 24 14  1  0
 23 17  1  0
  3 25  1  0
  4 26  1  0
  4 27  1  0
  8 28  1  0
  8 29  1  0
  9 30  1  0
  9 31  1  0
 10 32  1  0
 10 33  1  0
 11 34  1  1
 13 35  1  0
 13 36  1  0
 15 37  1  0
 16 38  1  0
 18 39  1  0
 21 40  1  0
 22 41  1  0
M  END
>  <smiles>  (71) 
O=C(NCC(=O)N1CCCC(F)C1)c1ccc2cc(Cl)ccc2n1

>  <score_type>  (71) 
oracle

>  <origin>  (71) 
autodockgpu

>  <m_score__min__energy>  (71) 
-7.4400000000000004

>  <m_primary>  (71) 
energy

>  <rmsd>  (71) 
3.5804337456514097

>  <m_score__min__rmsd>  (71) 
3.5804337456514097

>  <meeko>  (71) 
{"free_energy": -7.13, "intermolecular_energy": -8.32, "internal_energy": -1.02, "cluster_size": 23, "cluster_id": 1, "rank_in_cluster": 8}

>  <energy>  (71) 
-6.8

>  <cluster_rmsd>  (71) 
1.36

>  <cluster>  (71) 
1

$$$$

     RDKit          3D

 41 43  0  0  0  0  0  0  0  0999 V2000
  140.1650   72.6470  220.8370 O   0  0  0  0  0  0  0  0  0  0  0  0
  139.9040   72.9920  222.0020 C   0  0  0  0  0  0  0  0  0  0  0  0
  139.5680   74.3120  222.3440 N   0  0  0  0  0  0  0  0  0  0  0  0
  139.5030   75.3680  221.3450 C   0  0  0  0  0  0  0  0  0  0  0  0
  140.7330   76.2000  221.3640 C   0  0  0  0  0  0  0  0  0  0  0  0
  141.8330   75.6800  221.0480 O   0  0  0  0  0  0  0  0  0  0  0  0
  140.5880   77.5620  221.7450 N   0  0  0  0  0  0  0  0  0  0  0  0
  141.4650   78.6170  221.2710 C   0  0  0  0  0  0  0  0  0  0  0  0
  142.1780   79.2950  222.4270 C   0  0  0  0  0  0  0  0  0  0  0  0
  141.4660   78.9890  223.7270 C   0  0  0  0  0  0  0  0  0  0  0  0
  139.9770   79.1400  223.4290 C   0  0  1  0  0  0  0  0  0  0  0  0
  139.8450   80.2930  222.6650 F   0  0  0  0  0  0  0  0  0  0  0  0
  139.5140   77.9300  222.6530 C   0  0  0  0  0  0  0  0  0  0  0  0
  139.9520   71.9680  223.0650 C   0  0  0  0  0  0  0  0  0  0  0  0
  139.5160   70.6760  222.8250 C   0  0  0  0  0  0  0  0  0  0  0  0
  139.5620   69.7210  223.8190 C   0  0  0  0  0  0  0  0  0  0  0  0
  140.0480   70.0600  225.0700 C   0  0  0  0  0  0  0  0  0  0  0  0
  140.1310   69.1830  226.1150 C   0  0  0  0  0  0  0  0  0  0  0  0
  140.6350   69.6160  227.3380 C   0  0  0  0  0  0  0  0  0  0  0  0
  140.7520   68.5090  228.6950 Cl  0  0  0  0  0  0  0  0  0  0  0  0
  141.0550   70.9050  227.5300 C   0  0  0  0  0  0  0  0  0  0  0  0
  140.9700   71.7810  226.4770 C   0  0  0  0  0  0  0  0  0  0  0  0
  140.4670   71.3470  225.2600 C   0  0  0  0  0  0  0  0  0  0  0  0
  140.4110   72.2560  224.2760 N   0  0  0  0  0  0  0  0  0  0  0  0
  139.3610   74.5290  223.3500 H   0  0  0  0  0  0  0  0  0  0  0  0
  139.3920   74.9139  220.3493 H   0  0  0  0  0  0  0  0  0  0  0  0
  138.6420   76.0129  221.5746 H   0  0  0  0  0  0  0  0  0  0  0  0
  142.2137   78.1837  220.5915 H   0  0  0  0  0  0  0  0  0  0  0  0
  140.8563   79.3684  220.7467 H   0  0  0  0  0  0  0  0  0  0  0  0
  143.2128   78.9262  222.4831 H   0  0  0  0  0  0  0  0  0  0  0  0
  142.1773   80.3827  222.2629 H   0  0  0  0  0  0  0  0  0  0  0  0
  141.6894   77.9628  224.0541 H   0  0  0  0  0  0  0  0  0  0  0  0
  141.7884   79.6629  224.5344 H   0  0  0  0  0  0  0  0  0  0  0  0
  139.3717   79.2142  224.3445 H   0  0  0  0  0  0  0  0  0  0  0  0
  139.3024   77.0992  223.3421 H   0  0  0  0  0  0  0  0  0  0  0  0
  138.5924   78.1539  222.0958 H   0  0  0  0  0  0  0  0  0  0  0  0
  139.1288   70.4083  221.8308 H   0  0  0  0  0  0  0  0  0  0  0  0
  139.2147   68.6966  223.6190 H   0  0  0  0  0  0  0  0  0  0  0  0
  139.8014   68.1410  225.9902 H   0  0  0  0  0  0  0  0  0  0  0  0
  141.4505   71.2302  228.5036 H   0  0  0  0  0  0  0  0  0  0  0  0
  141.2997   72.8234  226.5980 H   0  0  0  0  0  0  0  0  0  0  0  0
  1  2  2  0
  2  3  1  0
  3  4  1  0
  4  5  1  0
  5  6  2  0
  5  7  1  0
  7  8  1  0
  8  9  1  0
  9 10  1  0
 10 11  1  0
 11 12  1  0
 11 13  1  0
  2 14  1  0
 14 15  2  0
 15 16  1  0
 16 17  2  0
 17 18  1  0
 18 19  2  0
 19 20  1  0
 19 21  1  0
 21 22  2  0
 22 23  1  0
 23 24  2  0
 13  7  1  0
 24 14  1  0
 23 17  1  0
  3 25  1  0
  4 26  1  0
  4 27  1  0
  8 28  1  0
  8 29  1  0
  9 30  1  0
  9 31  1  0
 10 32  1  0
 10 33  1  0
 11 34  1  1
 13 35  1  0
 13 36  1  0
 15 37  1  0
 16 38  1  0
 18 39  1  0
 21 40  1  0
 22 41  1  0
M  END
>  <smiles>  (72) 
O=C(NCC(=O)N1CCCC(F)C1)c1ccc2cc(Cl)ccc2n1

>  <score_type>  (72) 
oracle

>  <origin>  (72) 
autodockgpu

>  <m_score__min__energy>  (72) 
-7.4400000000000004

>  <m_primary>  (72) 
energy

>  <rmsd>  (72) 
3.3660387903138025

>  <m_score__min__rmsd>  (72) 
3.3660387903138025

>  <meeko>  (72) 
{"free_energy": -7.39, "intermolecular_energy": -8.59, "internal_energy": -0.94, "cluster_size": 23, "cluster_id": 1, "rank_in_cluster": 6}

>  <energy>  (72) 
-6.79

>  <cluster_rmsd>  (72) 
0.83

>  <cluster>  (72) 
1

$$$$

     RDKit          3D

 41 43  0  0  0  0  0  0  0  0999 V2000
  140.1990   72.8460  220.7820 O   0  0  0  0  0  0  0  0  0  0  0  0
  139.8750   73.1170  221.9500 C   0  0  0  0  0  0  0  0  0  0  0  0
  139.4680   74.4010  222.3460 N   0  0  0  0  0  0  0  0  0  0  0  0
  139.3980   75.5070  221.4010 C   0  0  0  0  0  0  0  0  0  0  0  0
  138.8510   76.7280  222.0450 C   0  0  0  0  0  0  0  0  0  0  0  0
  137.7260   76.6770  222.6060 O   0  0  0  0  0  0  0  0  0  0  0  0
  139.6480   77.9030  221.9870 N   0  0  0  0  0  0  0  0  0  0  0  0
  141.0990   77.8810  222.0020 C   0  0  0  0  0  0  0  0  0  0  0  0
  141.6440   78.6420  223.1970 C   0  0  0  0  0  0  0  0  0  0  0  0
  140.5750   79.5510  223.7660 C   0  0  0  0  0  0  0  0  0  0  0  0
  139.9050   80.2060  222.5620 C   0  0  1  0  0  0  0  0  0  0  0  0
  140.9280   80.5740  221.6960 F   0  0  0  0  0  0  0  0  0  0  0  0
  138.9910   79.1980  221.9080 C   0  0  0  0  0  0  0  0  0  0  0  0
  139.9240   72.0400  222.9600 C   0  0  0  0  0  0  0  0  0  0  0  0
  139.4930   70.7610  222.6530 C   0  0  0  0  0  0  0  0  0  0  0  0
  139.5390   69.7560  223.5970 C   0  0  0  0  0  0  0  0  0  0  0  0
  140.0210   70.0320  224.8650 C   0  0  0  0  0  0  0  0  0  0  0  0
  140.1040   69.1030  225.8630 C   0  0  0  0  0  0  0  0  0  0  0  0
  140.6040   69.4740  227.1090 C   0  0  0  0  0  0  0  0  0  0  0  0
  140.7210   68.2990  228.4070 Cl  0  0  0  0  0  0  0  0  0  0  0  0
  141.0200   70.7530  227.3670 C   0  0  0  0  0  0  0  0  0  0  0  0
  140.9340   71.6810  226.3600 C   0  0  0  0  0  0  0  0  0  0  0  0
  140.4350   71.3090  225.1210 C   0  0  0  0  0  0  0  0  0  0  0  0
  140.3790   72.2660  224.1850 N   0  0  0  0  0  0  0  0  0  0  0  0
  139.2100   74.5550  223.3520 H   0  0  0  0  0  0  0  0  0  0  0  0
  140.4089   75.7219  221.0243 H   0  0  0  0  0  0  0  0  0  0  0  0
  138.7303   75.2189  220.5756 H   0  0  0  0  0  0  0  0  0  0  0  0
  141.4421   76.8372  222.0537 H   0  0  0  0  0  0  0  0  0  0  0  0
  141.4656   78.3630  221.0837 H   0  0  0  0  0  0  0  0  0  0  0  0
  141.9624   77.9267  223.9696 H   0  0  0  0  0  0  0  0  0  0  0  0
  142.5014   79.2515  222.8754 H   0  0  0  0  0  0  0  0  0  0  0  0
  139.8420   78.9671  224.3420 H   0  0  0  0  0  0  0  0  0  0  0  0
  141.0011   80.2996  224.4501 H   0  0  0  0  0  0  0  0  0  0  0  0
  139.3043   81.0834  222.8436 H   0  0  0  0  0  0  0  0  0  0  0  0
  138.0275   79.1642  222.4377 H   0  0  0  0  0  0  0  0  0  0  0  0
  138.7951   79.4719  220.8608 H   0  0  0  0  0  0  0  0  0  0  0  0
  139.1096   70.5435  221.6452 H   0  0  0  0  0  0  0  0  0  0  0  0
  139.1950   68.7423  223.3438 H   0  0  0  0  0  0  0  0  0  0  0  0
  139.7779   68.0679  225.6837 H   0  0  0  0  0  0  0  0  0  0  0  0
  141.4131   71.0294  228.3565 H   0  0  0  0  0  0  0  0  0  0  0  0
  141.2599   72.7169  226.5351 H   0  0  0  0  0  0  0  0  0  0  0  0
  1  2  2  0
  2  3  1  0
  3  4  1  0
  4  5  1  0
  5  6  2  0
  5  7  1  0
  7  8  1  0
  8  9  1  0
  9 10  1  0
 10 11  1  0
 11 12  1  0
 11 13  1  0
  2 14  1  0
 14 15  2  0
 15 16  1  0
 16 17  2  0
 17 18  1  0
 18 19  2  0
 19 20  1  0
 19 21  1  0
 21 22  2  0
 22 23  1  0
 23 24  2  0
 13  7  1  0
 24 14  1  0
 23 17  1  0
  3 25  1  0
  4 26  1  0
  4 27  1  0
  8 28  1  0
  8 29  1  0
  9 30  1  0
  9 31  1  0
 10 32  1  0
 10 33  1  0
 11 34  1  1
 13 35  1  0
 13 36  1  0
 15 37  1  0
 16 38  1  0
 18 39  1  0
 21 40  1  0
 22 41  1  0
M  END
>  <smiles>  (73) 
O=C(NCC(=O)N1CCCC(F)C1)c1ccc2cc(Cl)ccc2n1

>  <score_type>  (73) 
oracle

>  <origin>  (73) 
autodockgpu

>  <m_score__min__energy>  (73) 
-7.4400000000000004

>  <m_primary>  (73) 
energy

>  <rmsd>  (73) 
3.554274402717455

>  <m_score__min__rmsd>  (73) 
3.554274402717455

>  <meeko>  (73) 
{"free_energy": -7.12, "intermolecular_energy": -8.31, "internal_energy": -1.02, "cluster_size": 23, "cluster_id": 1, "rank_in_cluster": 10}

>  <energy>  (73) 
-6.45

>  <cluster_rmsd>  (73) 
1.88

>  <cluster>  (73) 
1

$$$$

     RDKit          3D

 41 43  0  0  0  0  0  0  0  0999 V2000
  141.4850   71.6290  221.1210 O   0  0  0  0  0  0  0  0  0  0  0  0
  140.8430   72.5070  221.7200 C   0  0  0  0  0  0  0  0  0  0  0  0
  139.8700   72.2090  222.6870 N   0  0  0  0  0  0  0  0  0  0  0  0
  139.5520   70.8360  223.0530 C   0  0  0  0  0  0  0  0  0  0  0  0
  138.6470   70.7920  224.2300 C   0  0  0  0  0  0  0  0  0  0  0  0
  137.4500   71.1560  224.1000 O   0  0  0  0  0  0  0  0  0  0  0  0
  139.2000   70.3310  225.4560 N   0  0  0  0  0  0  0  0  0  0  0  0
  140.1060   71.1250  226.2660 C   0  0  0  0  0  0  0  0  0  0  0  0
  141.4440   70.4280  226.4290 C   0  0  0  0  0  0  0  0  0  0  0  0
  141.3110   68.9590  226.0870 C   0  0  0  0  0  0  0  0  0  0  0  0
  140.0150   68.4970  226.7470 C   0  0  1  0  0  0  0  0  0  0  0  0
  140.0040   69.0540  228.0210 F   0  0  0  0  0  0  0  0  0  0  0  0
  138.8490   69.0040  225.9330 C   0  0  0  0  0  0  0  0  0  0  0  0
  141.1180   73.9230  221.3960 C   0  0  0  0  0  0  0  0  0  0  0  0
  142.0140   74.2600  220.3970 C   0  0  0  0  0  0  0  0  0  0  0  0
  142.2690   75.5810  220.0960 C   0  0  0  0  0  0  0  0  0  0  0  0
  141.6210   76.5800  220.8010 C   0  0  0  0  0  0  0  0  0  0  0  0
  141.8090   77.9140  220.5740 C   0  0  0  0  0  0  0  0  0  0  0  0
  141.1110   78.8480  221.3360 C   0  0  0  0  0  0  0  0  0  0  0  0
  141.3350   80.5660  221.0630 Cl  0  0  0  0  0  0  0  0  0  0  0  0
  140.2330   78.4670  222.3150 C   0  0  0  0  0  0  0  0  0  0  0  0
  140.0470   77.1260  222.5380 C   0  0  0  0  0  0  0  0  0  0  0  0
  140.7450   76.1990  221.7780 C   0  0  0  0  0  0  0  0  0  0  0  0
  140.5160   74.9070  222.0510 N   0  0  0  0  0  0  0  0  0  0  0  0
  139.3670   73.0050  223.1520 H   0  0  0  0  0  0  0  0  0  0  0  0
  139.0593   70.3424  222.2024 H   0  0  0  0  0  0  0  0  0  0  0  0
  140.4872   70.3180  223.3119 H   0  0  0  0  0  0  0  0  0  0  0  0
  140.2647   72.0984  225.7788 H   0  0  0  0  0  0  0  0  0  0  0  0
  139.6582   71.2603  227.2616 H   0  0  0  0  0  0  0  0  0  0  0  0
  142.1805   70.8927  225.7569 H   0  0  0  0  0  0  0  0  0  0  0  0
  141.7758   70.5258  227.4732 H   0  0  0  0  0  0  0  0  0  0  0  0
  141.2561   68.8224  224.9969 H   0  0  0  0  0  0  0  0  0  0  0  0
  142.1762   68.3796  226.4417 H   0  0  0  0  0  0  0  0  0  0  0  0
  139.9422   67.4010  226.8055 H   0  0  0  0  0  0  0  0  0  0  0  0
  138.6654   68.3338  225.0803 H   0  0  0  0  0  0  0  0  0  0  0  0
  137.9340   69.0385  226.5426 H   0  0  0  0  0  0  0  0  0  0  0  0
  142.5285   73.4653  219.8369 H   0  0  0  0  0  0  0  0  0  0  0  0
  142.9832   75.8393  219.3003 H   0  0  0  0  0  0  0  0  0  0  0  0
  142.5080   78.2488  219.7935 H   0  0  0  0  0  0  0  0  0  0  0  0
  139.6901   79.2175  222.9082 H   0  0  0  0  0  0  0  0  0  0  0  0
  139.3472   76.7874  223.3163 H   0  0  0  0  0  0  0  0  0  0  0  0
  1  2  2  0
  2  3  1  0
  3  4  1  0
  4  5  1  0
  5  6  2  0
  5  7  1  0
  7  8  1  0
  8  9  1  0
  9 10  1  0
 10 11  1  0
 11 12  1  0
 11 13  1  0
  2 14  1  0
 14 15  2  0
 15 16  1  0
 16 17  2  0
 17 18  1  0
 18 19  2  0
 19 20  1  0
 19 21  1  0
 21 22  2  0
 22 23  1  0
 23 24  2  0
 13  7  1  0
 24 14  1  0
 23 17  1  0
  3 25  1  0
  4 26  1  0
  4 27  1  0
  8 28  1  0
  8 29  1  0
  9 30  1  0
  9 31  1  0
 10 32  1  0
 10 33  1  0
 11 34  1  1
 13 35  1  0
 13 36  1  0
 15 37  1  0
 16 38  1  0
 18 39  1  0
 21 40  1  0
 22 41  1  0
M  END
>  <smiles>  (74) 
O=C(NCC(=O)N1CCCC(F)C1)c1ccc2cc(Cl)ccc2n1

>  <score_type>  (74) 
oracle

>  <origin>  (74) 
autodockgpu

>  <m_score__min__energy>  (74) 
-7.4400000000000004

>  <m_primary>  (74) 
energy

>  <rmsd>  (74) 
8.357002945838174

>  <m_score__min__rmsd>  (74) 
8.357002945838174

>  <meeko>  (74) 
{"free_energy": -6.54, "intermolecular_energy": -7.74, "internal_energy": -1.16, "cluster_size": 18, "cluster_id": 2, "rank_in_cluster": 14}

>  <energy>  (74) 
-7.23

>  <cluster_rmsd>  (74) 
0.0

>  <cluster>  (74) 
2

$$$$

     RDKit          3D

 41 43  0  0  0  0  0  0  0  0999 V2000
  135.4390   68.5740  224.6010 O   0  0  0  0  0  0  0  0  0  0  0  0
  135.8510   69.7130  224.8770 C   0  0  0  0  0  0  0  0  0  0  0  0
  137.1710   70.1220  224.6290 N   0  0  0  0  0  0  0  0  0  0  0  0
  138.1480   69.2280  224.0240 C   0  0  0  0  0  0  0  0  0  0  0  0
  139.0260   68.6180  225.0550 C   0  0  0  0  0  0  0  0  0  0  0  0
  138.9000   67.3960  225.3250 O   0  0  0  0  0  0  0  0  0  0  0  0
  139.9740   69.4690  225.6850 N   0  0  0  0  0  0  0  0  0  0  0  0
  141.0480   68.9750  226.5270 C   0  0  0  0  0  0  0  0  0  0  0  0
  140.9400   69.5330  227.9340 C   0  0  0  0  0  0  0  0  0  0  0  0
  140.0370   70.7480  227.9430 C   0  0  0  0  0  0  0  0  0  0  0  0
  140.4360   71.5700  226.7200 C   0  0  1  0  0  0  0  0  0  0  0  0
  141.8260   71.5720  226.6870 F   0  0  0  0  0  0  0  0  0  0  0  0
  139.8750   70.9050  225.4860 C   0  0  0  0  0  0  0  0  0  0  0  0
  134.9100   70.6710  225.4930 C   0  0  0  0  0  0  0  0  0  0  0  0
  133.8600   70.2270  226.2790 C   0  0  0  0  0  0  0  0  0  0  0  0
  132.9830   71.1220  226.8530 C   0  0  0  0  0  0  0  0  0  0  0  0
  133.1540   72.4790  226.6410 C   0  0  0  0  0  0  0  0  0  0  0  0
  132.3370   73.4390  227.1680 C   0  0  0  0  0  0  0  0  0  0  0  0
  132.5900   74.7820  226.8980 C   0  0  0  0  0  0  0  0  0  0  0  0
  131.5540   76.0330  227.5630 Cl  0  0  0  0  0  0  0  0  0  0  0  0
  133.6410   75.1740  226.1150 C   0  0  0  0  0  0  0  0  0  0  0  0
  134.4590   74.2060  225.5890 C   0  0  0  0  0  0  0  0  0  0  0  0
  134.2050   72.8700  225.8590 C   0  0  0  0  0  0  0  0  0  0  0  0
  135.0430   71.9780  225.3120 N   0  0  0  0  0  0  0  0  0  0  0  0
  137.4480   71.1010  224.8900 H   0  0  0  0  0  0  0  0  0  0  0  0
  137.6181   68.4288  223.4850 H   0  0  0  0  0  0  0  0  0  0  0  0
  138.7742   69.8114  223.3330 H   0  0  0  0  0  0  0  0  0  0  0  0
  140.9942   67.8772  226.5708 H   0  0  0  0  0  0  0  0  0  0  0  0
  142.0069   69.2982  226.0957 H   0  0  0  0  0  0  0  0  0  0  0  0
  140.5216   68.7636  228.5996 H   0  0  0  0  0  0  0  0  0  0  0  0
  141.9411   69.8254  228.2835 H   0  0  0  0  0  0  0  0  0  0  0  0
  138.9827   70.4425  227.8721 H   0  0  0  0  0  0  0  0  0  0  0  0
  140.1444   71.3261  228.8727 H   0  0  0  0  0  0  0  0  0  0  0  0
  140.0498   72.5991  226.7620 H   0  0  0  0  0  0  0  0  0  0  0  0
  138.8226   71.1941  225.3482 H   0  0  0  0  0  0  0  0  0  0  0  0
  140.4338   71.2130  224.5900 H   0  0  0  0  0  0  0  0  0  0  0  0
  133.7244   69.1484  226.4471 H   0  0  0  0  0  0  0  0  0  0  0  0
  132.1519   70.7599  227.4760 H   0  0  0  0  0  0  0  0  0  0  0  0
  131.4846   73.1531  227.8017 H   0  0  0  0  0  0  0  0  0  0  0  0
  133.8259   76.2392  225.9120 H   0  0  0  0  0  0  0  0  0  0  0  0
  135.3128   74.4888  224.9557 H   0  0  0  0  0  0  0  0  0  0  0  0
  1  2  2  0
  2  3  1  0
  3  4  1  0
  4  5  1  0
  5  6  2  0
  5  7  1  0
  7  8  1  0
  8  9  1  0
  9 10  1  0
 10 11  1  0
 11 12  1  0
 11 13  1  0
  2 14  1  0
 14 15  2  0
 15 16  1  0
 16 17  2  0
 17 18  1  0
 18 19  2  0
 19 20  1  0
 19 21  1  0
 21 22  2  0
 22 23  1  0
 23 24  2  0
 13  7  1  0
 24 14  1  0
 23 17  1  0
  3 25  1  0
  4 26  1  0
  4 27  1  0
  8 28  1  0
  8 29  1  0
  9 30  1  0
  9 31  1  0
 10 32  1  0
 10 33  1  0
 11 34  1  1
 13 35  1  0
 13 36  1  0
 15 37  1  0
 16 38  1  0
 18 39  1  0
 21 40  1  0
 22 41  1  0
M  END
>  <smiles>  (75) 
O=C(NCC(=O)N1CCCC(F)C1)c1ccc2cc(Cl)ccc2n1

>  <score_type>  (75) 
oracle

>  <origin>  (75) 
autodockgpu

>  <m_score__min__energy>  (75) 
-7.4400000000000004

>  <m_primary>  (75) 
energy

>  <rmsd>  (75) 
8.273153005883557

>  <m_score__min__rmsd>  (75) 
8.273153005883557

>  <meeko>  (75) 
{"free_energy": -7.06, "intermolecular_energy": -8.26, "internal_energy": -1.07, "cluster_size": 5, "cluster_id": 3, "rank_in_cluster": 1}

>  <energy>  (75) 
-7.2

>  <cluster_rmsd>  (75) 
0.13

>  <cluster>  (75) 
2

$$$$

     RDKit          3D

 41 43  0  0  0  0  0  0  0  0999 V2000
  140.7590   71.7250  221.0710 O   0  0  0  0  0  0  0  0  0  0  0  0
  140.1190   72.6310  221.6290 C   0  0  0  0  0  0  0  0  0  0  0  0
  138.9730   72.3840  222.4020 N   0  0  0  0  0  0  0  0  0  0  0  0
  138.4600   71.0360  222.6020 C   0  0  0  0  0  0  0  0  0  0  0  0
  138.3180   70.7250  224.0470 C   0  0  0  0  0  0  0  0  0  0  0  0
  137.1780   70.7650  224.5760 O   0  0  0  0  0  0  0  0  0  0  0  0
  139.5040   70.3960  224.7580 N   0  0  0  0  0  0  0  0  0  0  0  0
  139.6760   69.1480  225.4810 C   0  0  0  0  0  0  0  0  0  0  0  0
  139.9240   69.4020  226.9560 C   0  0  0  0  0  0  0  0  0  0  0  0
  140.3490   70.8400  227.1720 C   0  0  0  0  0  0  0  0  0  0  0  0
  141.3550   71.1440  226.0660 C   0  0  1  0  0  0  0  0  0  0  0  0
  142.1930   70.0380  225.9830 F   0  0  0  0  0  0  0  0  0  0  0  0
  140.6060   71.3440  224.7710 C   0  0  0  0  0  0  0  0  0  0  0  0
  140.5860   74.0240  221.4680 C   0  0  0  0  0  0  0  0  0  0  0  0
  141.6500   74.3220  220.6350 C   0  0  0  0  0  0  0  0  0  0  0  0
  142.0840   75.6220  220.4850 C   0  0  0  0  0  0  0  0  0  0  0  0
  141.4490   76.6390  221.1770 C   0  0  0  0  0  0  0  0  0  0  0  0
  141.8080   77.9540  221.0920 C   0  0  0  0  0  0  0  0  0  0  0  0
  141.1070   78.9080  221.8270 C   0  0  0  0  0  0  0  0  0  0  0  0
  141.5500   80.6040  221.7340 Cl  0  0  0  0  0  0  0  0  0  0  0  0
  140.0600   78.5660  222.6380 C   0  0  0  0  0  0  0  0  0  0  0  0
  139.7030   77.2430  222.7190 C   0  0  0  0  0  0  0  0  0  0  0  0
  140.4030   76.2960  221.9870 C   0  0  0  0  0  0  0  0  0  0  0  0
  140.0010   75.0230  222.1140 N   0  0  0  0  0  0  0  0  0  0  0  0
  138.4830   73.2010  222.8430 H   0  0  0  0  0  0  0  0  0  0  0  0
  137.4758   70.9511  222.1182 H   0  0  0  0  0  0  0  0  0  0  0  0
  139.1718   70.3231  222.1603 H   0  0  0  0  0  0  0  0  0  0  0  0
  138.7665   68.5395  225.3690 H   0  0  0  0  0  0  0  0  0  0  0  0
  140.5473   68.6204  225.0656 H   0  0  0  0  0  0  0  0  0  0  0  0
  138.9994   69.2073  227.5193 H   0  0  0  0  0  0  0  0  0  0  0  0
  140.7238   68.7334  227.3071 H   0  0  0  0  0  0  0  0  0  0  0  0
  139.4813   71.5118  227.0964 H   0  0  0  0  0  0  0  0  0  0  0  0
  140.7862   70.9884  228.1704 H   0  0  0  0  0  0  0  0  0  0  0  0
  141.9384   72.0541  226.2694 H   0  0  0  0  0  0  0  0  0  0  0  0
  140.2188   72.3721  224.7150 H   0  0  0  0  0  0  0  0  0  0  0  0
  141.2693   71.1819  223.9085 H   0  0  0  0  0  0  0  0  0  0  0  0
  142.1549   73.5131  220.0866 H   0  0  0  0  0  0  0  0  0  0  0  0
  142.9297   75.8497  219.8195 H   0  0  0  0  0  0  0  0  0  0  0  0
  142.6456   78.2582  220.4471 H   0  0  0  0  0  0  0  0  0  0  0  0
  139.5174   79.3322  223.2112 H   0  0  0  0  0  0  0  0  0  0  0  0
  138.8651   76.9354  223.3619 H   0  0  0  0  0  0  0  0  0  0  0  0
  1  2  2  0
  2  3  1  0
  3  4  1  0
  4  5  1  0
  5  6  2  0
  5  7  1  0
  7  8  1  0
  8  9  1  0
  9 10  1  0
 10 11  1  0
 11 12  1  0
 11 13  1  0
  2 14  1  0
 14 15  2  0
 15 16  1  0
 16 17  2  0
 17 18  1  0
 18 19  2  0
 19 20  1  0
 19 21  1  0
 21 22  2  0
 22 23  1  0
 23 24  2  0
 13  7  1  0
 24 14  1  0
 23 17  1  0
  3 25  1  0
  4 26  1  0
  4 27  1  0
  8 28  1  0
  8 29  1  0
  9 30  1  0
  9 31  1  0
 10 32  1  0
 10 33  1  0
 11 34  1  1
 13 35  1  0
 13 36  1  0
 15 37  1  0
 16 38  1  0
 18 39  1  0
 21 40  1  0
 22 41  1  0
M  END
>  <smiles>  (76) 
O=C(NCC(=O)N1CCCC(F)C1)c1ccc2cc(Cl)ccc2n1

>  <score_type>  (76) 
oracle

>  <origin>  (76) 
autodockgpu

>  <m_score__min__energy>  (76) 
-7.4400000000000004

>  <m_primary>  (76) 
energy

>  <rmsd>  (76) 
8.144417790763757

>  <m_score__min__rmsd>  (76) 
8.144417790763757

>  <meeko>  (76) 
{"free_energy": -6.67, "intermolecular_energy": -7.86, "internal_energy": -1.21, "cluster_size": 18, "cluster_id": 2, "rank_in_cluster": 10}

>  <energy>  (76) 
-7.16

>  <cluster_rmsd>  (76) 
0.2

>  <cluster>  (76) 
2

$$$$

     RDKit          3D

 41 43  0  0  0  0  0  0  0  0999 V2000
  134.8400   68.5240  224.9410 O   0  0  0  0  0  0  0  0  0  0  0  0
  135.3440   69.6580  224.9850 C   0  0  0  0  0  0  0  0  0  0  0  0
  136.6210   69.9400  224.4740 N   0  0  0  0  0  0  0  0  0  0  0  0
  137.4400   68.9110  223.8510 C   0  0  0  0  0  0  0  0  0  0  0  0
  138.6080   68.5690  224.7020 C   0  0  0  0  0  0  0  0  0  0  0  0
  139.1050   67.4150  224.6310 O   0  0  0  0  0  0  0  0  0  0  0  0
  139.1040   69.5860  225.5620 N   0  0  0  0  0  0  0  0  0  0  0  0
  139.5240   70.8930  225.0870 C   0  0  0  0  0  0  0  0  0  0  0  0
  140.9850   71.1470  225.4100 C   0  0  0  0  0  0  0  0  0  0  0  0
  141.4540   70.1890  226.4860 C   0  0  0  0  0  0  0  0  0  0  0  0
  140.3370   70.1550  227.5250 C   0  0  1  0  0  0  0  0  0  0  0  0
  139.9330   71.4730  227.7090 F   0  0  0  0  0  0  0  0  0  0  0  0
  139.2000   69.3200  226.9870 C   0  0  0  0  0  0  0  0  0  0  0  0
  134.5650   70.7500  225.6040 C   0  0  0  0  0  0  0  0  0  0  0  0
  133.5360   70.4730  226.4880 C   0  0  0  0  0  0  0  0  0  0  0  0
  132.8100   71.4940  227.0650 C   0  0  0  0  0  0  0  0  0  0  0  0
  133.1130   72.8080  226.7550 C   0  0  0  0  0  0  0  0  0  0  0  0
  132.4500   73.8830  227.2760 C   0  0  0  0  0  0  0  0  0  0  0  0
  132.8280   75.1710  226.9050 C   0  0  0  0  0  0  0  0  0  0  0  0
  131.9920   76.5680  227.5610 Cl  0  0  0  0  0  0  0  0  0  0  0  0
  133.8530   75.3960  226.0270 C   0  0  0  0  0  0  0  0  0  0  0  0
  134.5160   74.3130  225.5070 C   0  0  0  0  0  0  0  0  0  0  0  0
  134.1370   73.0320  225.8780 C   0  0  0  0  0  0  0  0  0  0  0  0
  134.8270   72.0210  225.3320 N   0  0  0  0  0  0  0  0  0  0  0  0
  136.9820   70.9240  224.5470 H   0  0  0  0  0  0  0  0  0  0  0  0
  136.8294   68.0087  223.6996 H   0  0  0  0  0  0  0  0  0  0  0  0
  137.8095   69.2940  222.8883 H   0  0  0  0  0  0  0  0  0  0  0  0
  139.3831   70.9417  223.9972 H   0  0  0  0  0  0  0  0  0  0  0  0
  138.9162   71.6598  225.5896 H   0  0  0  0  0  0  0  0  0  0  0  0
  141.5893   70.9994  224.5028 H   0  0  0  0  0  0  0  0  0  0  0  0
  141.0997   72.1794  225.7719 H   0  0  0  0  0  0  0  0  0  0  0  0
  141.6149   69.1864  226.0631 H   0  0  0  0  0  0  0  0  0  0  0  0
  142.4089   70.5105  226.9273 H   0  0  0  0  0  0  0  0  0  0  0  0
  140.6653   69.7157  228.4785 H   0  0  0  0  0  0  0  0  0  0  0  0
  139.4036   68.2526  227.1576 H   0  0  0  0  0  0  0  0  0  0  0  0
  138.2574   69.5732  227.4944 H   0  0  0  0  0  0  0  0  0  0  0  0
  133.2950   69.4280  226.7327 H   0  0  0  0  0  0  0  0  0  0  0  0
  131.9950   71.2650  227.7674 H   0  0  0  0  0  0  0  0  0  0  0  0
  131.6222   73.7320  227.9845 H   0  0  0  0  0  0  0  0  0  0  0  0
  134.1386   76.4201  225.7448 H   0  0  0  0  0  0  0  0  0  0  0  0
  135.3447   74.4605  224.7988 H   0  0  0  0  0  0  0  0  0  0  0  0
  1  2  2  0
  2  3  1  0
  3  4  1  0
  4  5  1  0
  5  6  2  0
  5  7  1  0
  7  8  1  0
  8  9  1  0
  9 10  1  0
 10 11  1  0
 11 12  1  0
 11 13  1  0
  2 14  1  0
 14 15  2  0
 15 16  1  0
 16 17  2  0
 17 18  1  0
 18 19  2  0
 19 20  1  0
 19 21  1  0
 21 22  2  0
 22 23  1  0
 23 24  2  0
 13  7  1  0
 24 14  1  0
 23 17  1  0
  3 25  1  0
  4 26  1  0
  4 27  1  0
  8 28  1  0
  8 29  1  0
  9 30  1  0
  9 31  1  0
 10 32  1  0
 10 33  1  0
 11 34  1  1
 13 35  1  0
 13 36  1  0
 15 37  1  0
 16 38  1  0
 18 39  1  0
 21 40  1  0
 22 41  1  0
M  END
>  <smiles>  (77) 
O=C(NCC(=O)N1CCCC(F)C1)c1ccc2cc(Cl)ccc2n1

>  <score_type>  (77) 
oracle

>  <origin>  (77) 
autodockgpu

>  <m_score__min__energy>  (77) 
-7.4400000000000004

>  <m_primary>  (77) 
energy

>  <rmsd>  (77) 
8.162652162335254

>  <m_score__min__rmsd>  (77) 
8.162652162335254

>  <meeko>  (77) 
{"free_energy": -6.83, "intermolecular_energy": -8.02, "internal_energy": -1.19, "cluster_size": 5, "cluster_id": 3, "rank_in_cluster": 3}

>  <energy>  (77) 
-7.02

>  <cluster_rmsd>  (77) 
0.18

>  <cluster>  (77) 
2

$$$$

     RDKit          3D

 41 43  0  0  0  0  0  0  0  0999 V2000
  140.2310   72.6630  220.8600 O   0  0  0  0  0  0  0  0  0  0  0  0
  139.9140   73.0030  222.0120 C   0  0  0  0  0  0  0  0  0  0  0  0
  139.5340   74.3150  222.3380 N   0  0  0  0  0  0  0  0  0  0  0  0
  139.4860   75.3690  221.3360 C   0  0  0  0  0  0  0  0  0  0  0  0
  140.7170   76.1990  221.3710 C   0  0  0  0  0  0  0  0  0  0  0  0
  141.8210   75.6760  221.0720 O   0  0  0  0  0  0  0  0  0  0  0  0
  140.5690   77.5610  221.7500 N   0  0  0  0  0  0  0  0  0  0  0  0
  141.4420   78.6180  221.2720 C   0  0  0  0  0  0  0  0  0  0  0  0
  142.1550   79.2990  222.4250 C   0  0  0  0  0  0  0  0  0  0  0  0
  141.4460   78.9950  223.7280 C   0  0  0  0  0  0  0  0  0  0  0  0
  139.9560   79.1400  223.4320 C   0  0  1  0  0  0  0  0  0  0  0  0
  139.8200   80.2920  222.6650 F   0  0  0  0  0  0  0  0  0  0  0  0
  139.4950   77.9280  222.6590 C   0  0  0  0  0  0  0  0  0  0  0  0
  139.9410   71.9810  223.0790 C   0  0  0  0  0  0  0  0  0  0  0  0
  139.4610   70.7030  222.8480 C   0  0  0  0  0  0  0  0  0  0  0  0
  139.4870   69.7500  223.8440 C   0  0  0  0  0  0  0  0  0  0  0  0
  139.9980   70.0760  225.0880 C   0  0  0  0  0  0  0  0  0  0  0  0
  140.0650   69.2000  226.1350 C   0  0  0  0  0  0  0  0  0  0  0  0
  140.5970   69.6200  227.3510 C   0  0  0  0  0  0  0  0  0  0  0  0
  140.6930   68.5130  228.7100 Cl  0  0  0  0  0  0  0  0  0  0  0  0
  141.0600   70.8950  227.5330 C   0  0  0  0  0  0  0  0  0  0  0  0
  140.9910   71.7700  226.4790 C   0  0  0  0  0  0  0  0  0  0  0  0
  140.4600   71.3500  225.2690 C   0  0  0  0  0  0  0  0  0  0  0  0
  140.4230   72.2570  224.2830 N   0  0  0  0  0  0  0  0  0  0  0  0
  139.2790   74.5270  223.3340 H   0  0  0  0  0  0  0  0  0  0  0  0
  139.3888   74.9129  220.3397 H   0  0  0  0  0  0  0  0  0  0  0  0
  138.6231   76.0161  221.5519 H   0  0  0  0  0  0  0  0  0  0  0  0
  142.1904   78.1859  220.5914 H   0  0  0  0  0  0  0  0  0  0  0  0
  140.8302   79.3668  220.7477 H   0  0  0  0  0  0  0  0  0  0  0  0
  143.1905   78.9320  222.4801 H   0  0  0  0  0  0  0  0  0  0  0  0
  142.1515   80.3863  222.2585 H   0  0  0  0  0  0  0  0  0  0  0  0
  141.6734   77.9707  224.0583 H   0  0  0  0  0  0  0  0  0  0  0  0
  141.7676   79.6728  224.5325 H   0  0  0  0  0  0  0  0  0  0  0  0
  139.3519   79.2132  224.3484 H   0  0  0  0  0  0  0  0  0  0  0  0
  139.2863   77.0978  223.3498 H   0  0  0  0  0  0  0  0  0  0  0  0
  138.5721   78.1487  222.1026 H   0  0  0  0  0  0  0  0  0  0  0  0
  139.0544   70.4452  221.8590 H   0  0  0  0  0  0  0  0  0  0  0  0
  139.1040   68.7370  223.6510 H   0  0  0  0  0  0  0  0  0  0  0  0
  139.7006   68.1688  226.0175 H   0  0  0  0  0  0  0  0  0  0  0  0
  141.4772   71.2103  228.5008 H   0  0  0  0  0  0  0  0  0  0  0  0
  141.3557   72.8015  226.5933 H   0  0  0  0  0  0  0  0  0  0  0  0
  1  2  2  0
  2  3  1  0
  3  4  1  0
  4  5  1  0
  5  6  2  0
  5  7  1  0
  7  8  1  0
  8  9  1  0
  9 10  1  0
 10 11  1  0
 11 12  1  0
 11 13  1  0
  2 14  1  0
 14 15  2  0
 15 16  1  0
 16 17  2  0
 17 18  1  0
 18 19  2  0
 19 20  1  0
 19 21  1  0
 21 22  2  0
 22 23  1  0
 23 24  2  0
 13  7  1  0
 24 14  1  0
 23 17  1  0
  3 25  1  0
  4 26  1  0
  4 27  1  0
  8 28  1  0
  8 29  1  0
  9 30  1  0
  9 31  1  0
 10 32  1  0
 10 33  1  0
 11 34  1  1
 13 35  1  0
 13 36  1  0
 15 37  1  0
 16 38  1  0
 18 39  1  0
 21 40  1  0
 22 41  1  0
M  END
>  <smiles>  (78) 
O=C(NCC(=O)N1CCCC(F)C1)c1ccc2cc(Cl)ccc2n1

>  <score_type>  (78) 
oracle

>  <origin>  (78) 
autodockgpu

>  <m_score__min__energy>  (78) 
-7.4400000000000004

>  <m_primary>  (78) 
energy

>  <rmsd>  (78) 
3.3652203524623214

>  <m_score__min__rmsd>  (78) 
3.3652203524623214

>  <meeko>  (78) 
{"free_energy": -7.43, "intermolecular_energy": -8.62, "internal_energy": -0.91, "cluster_size": 23, "cluster_id": 1, "rank_in_cluster": 3}

>  <energy>  (78) 
-6.94

>  <cluster_rmsd>  (78) 
1.89

>  <cluster>  (78) 
2

$$$$

     RDKit          3D

 41 43  0  0  0  0  0  0  0  0999 V2000
  140.1220   72.6600  220.6440 O   0  0  0  0  0  0  0  0  0  0  0  0
  139.9030   73.0180  221.8140 C   0  0  0  0  0  0  0  0  0  0  0  0
  139.6380   74.3520  222.1610 N   0  0  0  0  0  0  0  0  0  0  0  0
  139.6000   75.4100  221.1620 C   0  0  0  0  0  0  0  0  0  0  0  0
  138.8740   76.6010  221.6700 C   0  0  0  0  0  0  0  0  0  0  0  0
  137.6610   76.7560  221.3750 O   0  0  0  0  0  0  0  0  0  0  0  0
  139.6090   77.5130  222.4750 N   0  0  0  0  0  0  0  0  0  0  0  0
  139.0120   78.6760  223.1060 C   0  0  0  0  0  0  0  0  0  0  0  0
  139.6670   79.9570  222.6230 C   0  0  0  0  0  0  0  0  0  0  0  0
  141.0030   79.6470  221.9810 C   0  0  0  0  0  0  0  0  0  0  0  0
  141.6770   78.6300  222.8980 C   0  0  1  0  0  0  0  0  0  0  0  0
  141.4660   79.0750  224.1980 F   0  0  0  0  0  0  0  0  0  0  0  0
  141.0290   77.2830  222.6860 C   0  0  0  0  0  0  0  0  0  0  0  0
  139.9260   71.9930  222.8780 C   0  0  0  0  0  0  0  0  0  0  0  0
  139.4290   70.7220  222.6490 C   0  0  0  0  0  0  0  0  0  0  0  0
  139.4520   69.7670  223.6440 C   0  0  0  0  0  0  0  0  0  0  0  0
  139.9770   70.0840  224.8840 C   0  0  0  0  0  0  0  0  0  0  0  0
  140.0420   69.2060  225.9280 C   0  0  0  0  0  0  0  0  0  0  0  0
  140.5890   69.6170  227.1410 C   0  0  0  0  0  0  0  0  0  0  0  0
  140.6830   68.5070  228.4970 Cl  0  0  0  0  0  0  0  0  0  0  0  0
  141.0690   70.8860  227.3220 C   0  0  0  0  0  0  0  0  0  0  0  0
  141.0020   71.7640  226.2690 C   0  0  0  0  0  0  0  0  0  0  0  0
  140.4560   71.3520  225.0630 C   0  0  0  0  0  0  0  0  0  0  0  0
  140.4220   72.2610  224.0790 N   0  0  0  0  0  0  0  0  0  0  0  0
  139.4630   74.5790  223.1710 H   0  0  0  0  0  0  0  0  0  0  0  0
  140.6300   75.6995  220.9064 H   0  0  0  0  0  0  0  0  0  0  0  0
  139.0720   75.0323  220.2740 H   0  0  0  0  0  0  0  0  0  0  0  0
  137.9399   78.7065  222.8616 H   0  0  0  0  0  0  0  0  0  0  0  0
  139.1589   78.5972  224.1933 H   0  0  0  0  0  0  0  0  0  0  0  0
  139.0129   80.4445  221.8851 H   0  0  0  0  0  0  0  0  0  0  0  0
  139.8261   80.6263  223.4813 H   0  0  0  0  0  0  0  0  0  0  0  0
  140.8564   79.2205  220.9777 H   0  0  0  0  0  0  0  0  0  0  0  0
  141.6152   80.5530  221.8608 H   0  0  0  0  0  0  0  0  0  0  0  0
  142.7533   78.5308  222.6939 H   0  0  0  0  0  0  0  0  0  0  0  0
  141.4653   76.7903  221.8046 H   0  0  0  0  0  0  0  0  0  0  0  0
  141.1921   76.6317  223.5573 H   0  0  0  0  0  0  0  0  0  0  0  0
  139.0112   70.4706  221.6630 H   0  0  0  0  0  0  0  0  0  0  0  0
  139.0551   68.7591  223.4526 H   0  0  0  0  0  0  0  0  0  0  0  0
  139.6643   68.1795  225.8114 H   0  0  0  0  0  0  0  0  0  0  0  0
  141.4976   71.1944  228.2870 H   0  0  0  0  0  0  0  0  0  0  0  0
  141.3801   72.7908  226.3816 H   0  0  0  0  0  0  0  0  0  0  0  0
  1  2  2  0
  2  3  1  0
  3  4  1  0
  4  5  1  0
  5  6  2  0
  5  7  1  0
  7  8  1  0
  8  9  1  0
  9 10  1  0
 10 11  1  0
 11 12  1  0
 11 13  1  0
  2 14  1  0
 14 15  2  0
 15 16  1  0
 16 17  2  0
 17 18  1  0
 18 19  2  0
 19 20  1  0
 19 21  1  0
 21 22  2  0
 22 23  1  0
 23 24  2  0
 13  7  1  0
 24 14  1  0
 23 17  1  0
  3 25  1  0
  4 26  1  0
  4 27  1  0
  8 28  1  0
  8 29  1  0
  9 30  1  0
  9 31  1  0
 10 32  1  0
 10 33  1  0
 11 34  1  6
 13 35  1  0
 13 36  1  0
 15 37  1  0
 16 38  1  0
 18 39  1  0
 21 40  1  0
 22 41  1  0
M  END
>  <smiles>  (79) 
O=C(NCC(=O)N1CCCC(F)C1)c1ccc2cc(Cl)ccc2n1

>  <score_type>  (79) 
oracle

>  <origin>  (79) 
autodockgpu

>  <m_score__min__energy>  (79) 
-7.4400000000000004

>  <m_primary>  (79) 
energy

>  <rmsd>  (79) 
3.5021861809493746

>  <m_score__min__rmsd>  (79) 
3.5021861809493746

>  <meeko>  (79) 
{"free_energy": -7.05, "intermolecular_energy": -8.24, "internal_energy": -0.93, "cluster_size": 23, "cluster_id": 1, "rank_in_cluster": 14}

>  <energy>  (79) 
-6.87

>  <cluster_rmsd>  (79) 
1.87

>  <cluster>  (79) 
2

$$$$

     RDKit          3D

 41 43  0  0  0  0  0  0  0  0999 V2000
  141.1340   73.8270  221.0220 O   0  0  0  0  0  0  0  0  0  0  0  0
  140.3010   73.9110  221.9400 C   0  0  0  0  0  0  0  0  0  0  0  0
  139.6930   75.1230  222.3040 N   0  0  0  0  0  0  0  0  0  0  0  0
  140.0020   76.3700  221.6180 C   0  0  0  0  0  0  0  0  0  0  0  0
  139.4800   77.5390  222.3700 C   0  0  0  0  0  0  0  0  0  0  0  0
  138.4370   77.4100  223.0610 O   0  0  0  0  0  0  0  0  0  0  0  0
  140.2050   78.7560  222.2600 N   0  0  0  0  0  0  0  0  0  0  0  0
  141.5250   78.8440  221.6640 C   0  0  0  0  0  0  0  0  0  0  0  0
  142.5420   79.3630  222.6640 C   0  0  0  0  0  0  0  0  0  0  0  0
  141.8360   80.0390  223.8200 C   0  0  0  0  0  0  0  0  0  0  0  0
  140.7350   80.8890  223.1930 C   0  0  1  0  0  0  0  0  0  0  0  0
  141.3050   81.5170  222.0910 F   0  0  0  0  0  0  0  0  0  0  0  0
  139.6070   79.9820  222.7650 C   0  0  0  0  0  0  0  0  0  0  0  0
  139.9420   72.6820  222.6780 C   0  0  0  0  0  0  0  0  0  0  0  0
  138.8360   71.9350  222.3130 C   0  0  0  0  0  0  0  0  0  0  0  0
  138.5020   70.7880  223.0030 C   0  0  0  0  0  0  0  0  0  0  0  0
  139.2830   70.3810  224.0710 C   0  0  0  0  0  0  0  0  0  0  0  0
  139.0310   69.2610  224.8120 C   0  0  0  0  0  0  0  0  0  0  0  0
  139.8740   68.9320  225.8700 C   0  0  0  0  0  0  0  0  0  0  0  0
  139.5710   67.4990  226.8360 Cl  0  0  0  0  0  0  0  0  0  0  0  0
  140.9580   69.7020  226.1940 C   0  0  0  0  0  0  0  0  0  0  0  0
  141.2070   70.8260  225.4460 C   0  0  0  0  0  0  0  0  0  0  0  0
  140.3650   71.1510  224.3940 C   0  0  0  0  0  0  0  0  0  0  0  0
  140.6660   72.2620  223.7070 N   0  0  0  0  0  0  0  0  0  0  0  0
  138.9990   75.1170  223.0910 H   0  0  0  0  0  0  0  0  0  0  0  0
  141.0935   76.4647  221.5197 H   0  0  0  0  0  0  0  0  0  0  0  0
  139.5240   76.3508  220.6274 H   0  0  0  0  0  0  0  0  0  0  0  0
  141.8332   77.8443  221.3240 H   0  0  0  0  0  0  0  0  0  0  0  0
  141.4799   79.5435  220.8163 H   0  0  0  0  0  0  0  0  0  0  0  0
  143.1401   78.5219  223.0446 H   0  0  0  0  0  0  0  0  0  0  0  0
  143.1972   80.0927  222.1657 H   0  0  0  0  0  0  0  0  0  0  0  0
  141.4021   79.2877  224.4962 H   0  0  0  0  0  0  0  0  0  0  0  0
  142.5292   80.6496  224.4172 H   0  0  0  0  0  0  0  0  0  0  0  0
  140.3300   81.6336  223.8941 H   0  0  0  0  0  0  0  0  0  0  0  0
  138.9576   79.7579  223.6241 H   0  0  0  0  0  0  0  0  0  0  0  0
  138.9930   80.4637  221.9897 H   0  0  0  0  0  0  0  0  0  0  0  0
  138.2165   72.2591  221.4638 H   0  0  0  0  0  0  0  0  0  0  0  0
  137.6206   70.2005  222.7064 H   0  0  0  0  0  0  0  0  0  0  0  0
  138.1671   68.6230  224.5740 H   0  0  0  0  0  0  0  0  0  0  0  0
  141.6138   69.4271  227.0333 H   0  0  0  0  0  0  0  0  0  0  0  0
  142.0707   71.4656  225.6804 H   0  0  0  0  0  0  0  0  0  0  0  0
  1  2  2  0
  2  3  1  0
  3  4  1  0
  4  5  1  0
  5  6  2  0
  5  7  1  0
  7  8  1  0
  8  9  1  0
  9 10  1  0
 10 11  1  0
 11 12  1  0
 11 13  1  0
  2 14  1  0
 14 15  2  0
 15 16  1  0
 16 17  2  0
 17 18  1  0
 18 19  2  0
 19 20  1  0
 19 21  1  0
 21 22  2  0
 22 23  1  0
 23 24  2  0
 13  7  1  0
 24 14  1  0
 23 17  1  0
  3 25  1  0
  4 26  1  0
  4 27  1  0
  8 28  1  0
  8 29  1  0
  9 30  1  0
  9 31  1  0
 10 32  1  0
 10 33  1  0
 11 34  1  1
 13 35  1  0
 13 36  1  0
 15 37  1  0
 16 38  1  0
 18 39  1  0
 21 40  1  0
 22 41  1  0
M  END
>  <smiles>  (80) 
O=C(NCC(=O)N1CCCC(F)C1)c1ccc2cc(Cl)ccc2n1

>  <score_type>  (80) 
oracle

>  <origin>  (80) 
autodockgpu

>  <m_score__min__energy>  (80) 
-7.4400000000000004

>  <m_primary>  (80) 
energy

>  <rmsd>  (80) 
4.236726622727351

>  <m_score__min__rmsd>  (80) 
4.236726622727351

>  <meeko>  (80) 
{"free_energy": -7.01, "intermolecular_energy": -8.2, "internal_energy": -1.13, "cluster_size": 23, "cluster_id": 1, "rank_in_cluster": 15}

>  <energy>  (80) 
-6.82

>  <cluster_rmsd>  (80) 
1.86

>  <cluster>  (80) 
2

$$$$

     RDKit          3D

 41 43  0  0  0  0  0  0  0  0999 V2000
  141.3830   71.6860  220.9290 O   0  0  0  0  0  0  0  0  0  0  0  0
  140.9410   72.5520  221.7020 C   0  0  0  0  0  0  0  0  0  0  0  0
  140.2170   72.2340  222.8620 N   0  0  0  0  0  0  0  0  0  0  0  0
  139.9370   70.8540  223.2350 C   0  0  0  0  0  0  0  0  0  0  0  0
  139.2310   70.7850  224.5390 C   0  0  0  0  0  0  0  0  0  0  0  0
  138.0000   71.0400  224.5870 O   0  0  0  0  0  0  0  0  0  0  0  0
  140.0040   70.4260  225.6770 N   0  0  0  0  0  0  0  0  0  0  0  0
  140.4870   69.0780  225.9160 C   0  0  0  0  0  0  0  0  0  0  0  0
  139.9410   68.5260  227.2210 C   0  0  0  0  0  0  0  0  0  0  0  0
  139.4280   69.6570  228.0880 C   0  0  0  0  0  0  0  0  0  0  0  0
  140.4760   70.7610  227.9930 C   0  0  1  0  0  0  0  0  0  0  0  0
  141.7130   70.1370  228.0960 F   0  0  0  0  0  0  0  0  0  0  0  0
  140.3360   71.4480  226.6550 C   0  0  0  0  0  0  0  0  0  0  0  0
  141.1900   73.9730  221.3830 C   0  0  0  0  0  0  0  0  0  0  0  0
  142.0100   74.3280  220.3260 C   0  0  0  0  0  0  0  0  0  0  0  0
  142.2420   75.6550  220.0300 C   0  0  0  0  0  0  0  0  0  0  0  0
  141.6470   76.6410  220.7980 C   0  0  0  0  0  0  0  0  0  0  0  0
  141.8180   77.9790  220.5800 C   0  0  0  0  0  0  0  0  0  0  0  0
  141.1780   78.8980  221.4080 C   0  0  0  0  0  0  0  0  0  0  0  0
  141.3810   80.6220  221.1480 Cl  0  0  0  0  0  0  0  0  0  0  0  0
  140.3750   78.4990  222.4420 C   0  0  0  0  0  0  0  0  0  0  0  0
  140.2070   77.1540  222.6560 C   0  0  0  0  0  0  0  0  0  0  0  0
  140.8460   76.2420  221.8310 C   0  0  0  0  0  0  0  0  0  0  0  0
  140.6380   74.9450  222.0980 N   0  0  0  0  0  0  0  0  0  0  0  0
  139.8750   73.0190  223.4690 H   0  0  0  0  0  0  0  0  0  0  0  0
  139.3063   70.3935  222.4603 H   0  0  0  0  0  0  0  0  0  0  0  0
  140.8923   70.3163  223.3263 H   0  0  0  0  0  0  0  0  0  0  0  0
  140.1650   68.4288  225.0884 H   0  0  0  0  0  0  0  0  0  0  0  0
  141.5848   69.1060  225.9802 H   0  0  0  0  0  0  0  0  0  0  0  0
  139.1171   67.8297  227.0055 H   0  0  0  0  0  0  0  0  0  0  0  0
  140.7455   67.9986  227.7545 H   0  0  0  0  0  0  0  0  0  0  0  0
  138.4579   70.0165  227.7143 H   0  0  0  0  0  0  0  0  0  0  0  0
  139.2744   69.3327  229.1278 H   0  0  0  0  0  0  0  0  0  0  0  0
  140.3595   71.5179  228.7827 H   0  0  0  0  0  0  0  0  0  0  0  0
  139.5347   72.2002  226.7001 H   0  0  0  0  0  0  0  0  0  0  0  0
  141.2699   71.9605  226.3809 H   0  0  0  0  0  0  0  0  0  0  0  0
  142.4816   73.5437  219.7157 H   0  0  0  0  0  0  0  0  0  0  0  0
  142.8959   75.9281  219.1887 H   0  0  0  0  0  0  0  0  0  0  0  0
  142.4572   78.3281  219.7556 H   0  0  0  0  0  0  0  0  0  0  0  0
  139.8764   79.2385  223.0859 H   0  0  0  0  0  0  0  0  0  0  0  0
  139.5679   76.8012  223.4789 H   0  0  0  0  0  0  0  0  0  0  0  0
  1  2  2  0
  2  3  1  0
  3  4  1  0
  4  5  1  0
  5  6  2  0
  5  7  1  0
  7  8  1  0
  8  9  1  0
  9 10  1  0
 10 11  1  0
 11 12  1  0
 11 13  1  0
  2 14  1  0
 14 15  2  0
 15 16  1  0
 16 17  2  0
 17 18  1  0
 18 19  2  0
 19 20  1  0
 19 21  1  0
 21 22  2  0
 22 23  1  0
 23 24  2  0
 13  7  1  0
 24 14  1  0
 23 17  1  0
  3 25  1  0
  4 26  1  0
  4 27  1  0
  8 28  1  0
  8 29  1  0
  9 30  1  0
  9 31  1  0
 10 32  1  0
 10 33  1  0
 11 34  1  1
 13 35  1  0
 13 36  1  0
 15 37  1  0
 16 38  1  0
 18 39  1  0
 21 40  1  0
 22 41  1  0
M  END
>  <smiles>  (81) 
O=C(NCC(=O)N1CCCC(F)C1)c1ccc2cc(Cl)ccc2n1

>  <score_type>  (81) 
oracle

>  <origin>  (81) 
autodockgpu

>  <m_score__min__energy>  (81) 
-7.4400000000000004

>  <m_primary>  (81) 
energy

>  <rmsd>  (81) 
8.70731422866755

>  <m_score__min__rmsd>  (81) 
8.70731422866755

>  <meeko>  (81) 
{"free_energy": -6.75, "intermolecular_energy": -7.94, "internal_energy": -1.09, "cluster_size": 18, "cluster_id": 2, "rank_in_cluster": 9}

>  <energy>  (81) 
-6.82

>  <cluster_rmsd>  (81) 
1.86

>  <cluster>  (81) 
2

$$$$

     RDKit          3D

 41 43  0  0  0  0  0  0  0  0999 V2000
  140.8150   72.7600  220.9500 O   0  0  0  0  0  0  0  0  0  0  0  0
  140.1840   73.0290  221.9850 C   0  0  0  0  0  0  0  0  0  0  0  0
  139.5370   74.2600  222.1810 N   0  0  0  0  0  0  0  0  0  0  0  0
  139.5660   75.3080  221.1710 C   0  0  0  0  0  0  0  0  0  0  0  0
  140.7910   76.1380  221.2950 C   0  0  0  0  0  0  0  0  0  0  0  0
  141.9130   75.6190  221.0590 O   0  0  0  0  0  0  0  0  0  0  0  0
  140.6180   77.4950  221.6800 N   0  0  0  0  0  0  0  0  0  0  0  0
  141.4740   78.5700  221.2110 C   0  0  0  0  0  0  0  0  0  0  0  0
  142.1720   79.2580  222.3700 C   0  0  0  0  0  0  0  0  0  0  0  0
  141.4640   78.9340  223.6690 C   0  0  0  0  0  0  0  0  0  0  0  0
  139.9730   79.0550  223.3690 C   0  0  1  0  0  0  0  0  0  0  0  0
  139.8180   80.2080  222.6080 F   0  0  0  0  0  0  0  0  0  0  0  0
  139.5360   77.8390  222.5880 C   0  0  0  0  0  0  0  0  0  0  0  0
  140.1150   72.0080  223.0510 C   0  0  0  0  0  0  0  0  0  0  0  0
  139.5460   70.7700  222.8100 C   0  0  0  0  0  0  0  0  0  0  0  0
  139.4830   69.8180  223.8060 C   0  0  0  0  0  0  0  0  0  0  0  0
  139.9930   70.1060  225.0600 C   0  0  0  0  0  0  0  0  0  0  0  0
  139.9750   69.2280  226.1060 C   0  0  0  0  0  0  0  0  0  0  0  0
  140.5130   69.6080  227.3330 C   0  0  0  0  0  0  0  0  0  0  0  0
  140.5010   68.4980  228.6920 Cl  0  0  0  0  0  0  0  0  0  0  0  0
  141.0660   70.8450  227.5250 C   0  0  0  0  0  0  0  0  0  0  0  0
  141.0820   71.7230  226.4700 C   0  0  0  0  0  0  0  0  0  0  0  0
  140.5440   71.3420  225.2500 C   0  0  0  0  0  0  0  0  0  0  0  0
  140.5930   72.2480  224.2650 N   0  0  0  0  0  0  0  0  0  0  0  0
  139.0230   74.4160  223.0830 H   0  0  0  0  0  0  0  0  0  0  0  0
  139.5451   74.8456  220.1731 H   0  0  0  0  0  0  0  0  0  0  0  0
  138.6893   75.9563  221.3158 H   0  0  0  0  0  0  0  0  0  0  0  0
  142.2320   78.1548  220.5305 H   0  0  0  0  0  0  0  0  0  0  0  0
  140.8503   79.3109  220.6893 H   0  0  0  0  0  0  0  0  0  0  0  0
  143.2137   78.9092  222.4264 H   0  0  0  0  0  0  0  0  0  0  0  0
  142.1503   80.3460  222.2093 H   0  0  0  0  0  0  0  0  0  0  0  0
  141.7080   77.9118  223.9940 H   0  0  0  0  0  0  0  0  0  0  0  0
  141.7712   79.6124  224.4785 H   0  0  0  0  0  0  0  0  0  0  0  0
  139.3654   79.1133  224.2841 H   0  0  0  0  0  0  0  0  0  0  0  0
  139.3400   77.0017  223.2740 H   0  0  0  0  0  0  0  0  0  0  0  0
  138.6112   78.0470  222.0299 H   0  0  0  0  0  0  0  0  0  0  0  0
  139.1396   70.5426  221.8134 H   0  0  0  0  0  0  0  0  0  0  0  0
  139.0302   68.8359  223.6049 H   0  0  0  0  0  0  0  0  0  0  0  0
  139.5381   68.2264  225.9800 H   0  0  0  0  0  0  0  0  0  0  0  0
  141.4873   71.1287  228.5007 H   0  0  0  0  0  0  0  0  0  0  0  0
  141.5198   72.7247  226.5918 H   0  0  0  0  0  0  0  0  0  0  0  0
  1  2  2  0
  2  3  1  0
  3  4  1  0
  4  5  1  0
  5  6  2  0
  5  7  1  0
  7  8  1  0
  8  9  1  0
  9 10  1  0
 10 11  1  0
 11 12  1  0
 11 13  1  0
  2 14  1  0
 14 15  2  0
 15 16  1  0
 16 17  2  0
 17 18  1  0
 18 19  2  0
 19 20  1  0
 19 21  1  0
 21 22  2  0
 22 23  1  0
 23 24  2  0
 13  7  1  0
 24 14  1  0
 23 17  1  0
  3 25  1  0
  4 26  1  0
  4 27  1  0
  8 28  1  0
  8 29  1  0
  9 30  1  0
  9 31  1  0
 10 32  1  0
 10 33  1  0
 11 34  1  1
 13 35  1  0
 13 36  1  0
 15 37  1  0
 16 38  1  0
 18 39  1  0
 21 40  1  0
 22 41  1  0
M  END
>  <smiles>  (82) 
O=C(NCC(=O)N1CCCC(F)C1)c1ccc2cc(Cl)ccc2n1

>  <score_type>  (82) 
oracle

>  <origin>  (82) 
autodockgpu

>  <m_score__min__energy>  (82) 
-7.4400000000000004

>  <m_primary>  (82) 
energy

>  <rmsd>  (82) 
3.3399895770016097

>  <m_score__min__rmsd>  (82) 
3.3399895770016097

>  <meeko>  (82) 
{"free_energy": -7.44, "intermolecular_energy": -8.63, "internal_energy": -0.84, "cluster_size": 23, "cluster_id": 1, "rank_in_cluster": 1}

>  <energy>  (82) 
-6.75

>  <cluster_rmsd>  (82) 
1.3

>  <cluster>  (82) 
2

$$$$

     RDKit          3D

 41 43  0  0  0  0  0  0  0  0999 V2000
  140.3750   72.9020  220.7970 O   0  0  0  0  0  0  0  0  0  0  0  0
  139.9800   73.1480  221.9480 C   0  0  0  0  0  0  0  0  0  0  0  0
  139.5330   74.4200  222.3400 N   0  0  0  0  0  0  0  0  0  0  0  0
  139.5040   75.5410  221.4120 C   0  0  0  0  0  0  0  0  0  0  0  0
  138.7250   76.6770  221.9670 C   0  0  0  0  0  0  0  0  0  0  0  0
  137.5370   76.4890  222.3330 O   0  0  0  0  0  0  0  0  0  0  0  0
  139.3850   77.9330  222.0530 N   0  0  0  0  0  0  0  0  0  0  0  0
  140.4500   78.3350  221.1520 C   0  0  0  0  0  0  0  0  0  0  0  0
  141.7330   78.6120  221.9130 C   0  0  0  0  0  0  0  0  0  0  0  0
  141.4320   78.8160  223.3830 C   0  0  0  0  0  0  0  0  0  0  0  0
  140.1940   79.7050  223.4330 C   0  0  1  0  0  0  0  0  0  0  0  0
  140.3890   80.7020  222.4830 F   0  0  0  0  0  0  0  0  0  0  0  0
  138.9830   78.8710  223.0890 C   0  0  0  0  0  0  0  0  0  0  0  0
  139.9830   72.0540  222.9410 C   0  0  0  0  0  0  0  0  0  0  0  0
  139.4890   70.8020  222.6180 C   0  0  0  0  0  0  0  0  0  0  0  0
  139.4940   69.7820  223.5460 C   0  0  0  0  0  0  0  0  0  0  0  0
  139.9960   70.0140  224.8140 C   0  0  0  0  0  0  0  0  0  0  0  0
  140.0410   69.0670  225.7980 C   0  0  0  0  0  0  0  0  0  0  0  0
  140.5670   69.3950  227.0450 C   0  0  0  0  0  0  0  0  0  0  0  0
  140.6360   68.1950  228.3250 Cl  0  0  0  0  0  0  0  0  0  0  0  0
  141.0440   70.6480  227.3200 C   0  0  0  0  0  0  0  0  0  0  0  0
  140.9970   71.5950  226.3280 C   0  0  0  0  0  0  0  0  0  0  0  0
  140.4730   71.2660  225.0870 C   0  0  0  0  0  0  0  0  0  0  0  0
  140.4570   72.2400  224.1660 N   0  0  0  0  0  0  0  0  0  0  0  0
  139.2140   74.5530  223.3320 H   0  0  0  0  0  0  0  0  0  0  0  0
  140.5346   75.8732  221.2182 H   0  0  0  0  0  0  0  0  0  0  0  0
  139.0218   75.2099  220.4804 H   0  0  0  0  0  0  0  0  0  0  0  0
  140.6299   77.5286  220.4258 H   0  0  0  0  0  0  0  0  0  0  0  0
  140.1429   79.2572  220.6370 H   0  0  0  0  0  0  0  0  0  0  0  0
  142.4167   77.7582  221.7966 H   0  0  0  0  0  0  0  0  0  0  0  0
  142.2005   79.5231  221.5113 H   0  0  0  0  0  0  0  0  0  0  0  0
  141.2306   77.8507  223.8705 H   0  0  0  0  0  0  0  0  0  0  0  0
  142.2815   79.2740  223.9109 H   0  0  0  0  0  0  0  0  0  0  0  0
  140.0357   80.1463  224.4281 H   0  0  0  0  0  0  0  0  0  0  0  0
  138.6374   78.3241  223.9786 H   0  0  0  0  0  0  0  0  0  0  0  0
  138.1576   79.5082  222.7389 H   0  0  0  0  0  0  0  0  0  0  0  0
  139.0881   70.6187  221.6102 H   0  0  0  0  0  0  0  0  0  0  0  0
  139.1011   68.7897  223.2795 H   0  0  0  0  0  0  0  0  0  0  0  0
  139.6640   68.0516  225.6063 H   0  0  0  0  0  0  0  0  0  0  0  0
  141.4548   70.8899  228.3114 H   0  0  0  0  0  0  0  0  0  0  0  0
  141.3735   72.6112  226.5165 H   0  0  0  0  0  0  0  0  0  0  0  0
  1  2  2  0
  2  3  1  0
  3  4  1  0
  4  5  1  0
  5  6  2  0
  5  7  1  0
  7  8  1  0
  8  9  1  0
  9 10  1  0
 10 11  1  0
 11 12  1  0
 11 13  1  0
  2 14  1  0
 14 15  2  0
 15 16  1  0
 16 17  2  0
 17 18  1  0
 18 19  2  0
 19 20  1  0
 19 21  1  0
 21 22  2  0
 22 23  1  0
 23 24  2  0
 13  7  1  0
 24 14  1  0
 23 17  1  0
  3 25  1  0
  4 26  1  0
  4 27  1  0
  8 28  1  0
  8 29  1  0
  9 30  1  0
  9 31  1  0
 10 32  1  0
 10 33  1  0
 11 34  1  1
 13 35  1  0
 13 36  1  0
 15 37  1  0
 16 38  1  0
 18 39  1  0
 21 40  1  0
 22 41  1  0
M  END
>  <smiles>  (83) 
O=C(NCC(=O)N1CCCC(F)C1)c1ccc2cc(Cl)ccc2n1

>  <score_type>  (83) 
oracle

>  <origin>  (83) 
autodockgpu

>  <m_score__min__energy>  (83) 
-7.4400000000000004

>  <m_primary>  (83) 
energy

>  <rmsd>  (83) 
3.5378837011017685

>  <m_score__min__rmsd>  (83) 
3.5378837011017685

>  <meeko>  (83) 
{"free_energy": -7.08, "intermolecular_energy": -8.27, "internal_energy": -0.96, "cluster_size": 23, "cluster_id": 1, "rank_in_cluster": 11}

>  <energy>  (83) 
-6.67

>  <cluster_rmsd>  (83) 
1.55

>  <cluster>  (83) 
2

$$$$

     RDKit          3D

 41 43  0  0  0  0  0  0  0  0999 V2000
  140.9780   71.3520  221.2260 O   0  0  0  0  0  0  0  0  0  0  0  0
  140.7610   72.3350  221.9530 C   0  0  0  0  0  0  0  0  0  0  0  0
  140.2090   72.2200  223.2380 N   0  0  0  0  0  0  0  0  0  0  0  0
  139.8540   70.9270  223.8060 C   0  0  0  0  0  0  0  0  0  0  0  0
  140.0260   70.9230  225.2810 C   0  0  0  0  0  0  0  0  0  0  0  0
  140.4510   71.9590  225.8530 O   0  0  0  0  0  0  0  0  0  0  0  0
  139.6930   69.7250  225.9690 N   0  0  0  0  0  0  0  0  0  0  0  0
  139.5430   69.6520  227.4110 C   0  0  0  0  0  0  0  0  0  0  0  0
  140.5330   68.6730  228.0140 C   0  0  0  0  0  0  0  0  0  0  0  0
  141.0740   67.7520  226.9390 C   0  0  0  0  0  0  0  0  0  0  0  0
  139.8680   67.3480  226.0960 C   0  0  1  0  0  0  0  0  0  0  0  0
  138.8430   67.0620  226.9910 F   0  0  0  0  0  0  0  0  0  0  0  0
  139.4900   68.5060  225.2040 C   0  0  0  0  0  0  0  0  0  0  0  0
  141.0990   73.6780  221.4380 C   0  0  0  0  0  0  0  0  0  0  0  0
  141.8650   73.8270  220.2950 C   0  0  0  0  0  0  0  0  0  0  0  0
  142.1790   75.0810  219.8160 C   0  0  0  0  0  0  0  0  0  0  0  0
  141.7230   76.2020  220.4860 C   0  0  0  0  0  0  0  0  0  0  0  0
  141.9830   77.4830  220.0870 C   0  0  0  0  0  0  0  0  0  0  0  0
  141.4800   78.5500  220.8270 C   0  0  0  0  0  0  0  0  0  0  0  0
  141.8010   80.2040  220.3350 Cl  0  0  0  0  0  0  0  0  0  0  0  0
  140.7260   78.3550  221.9520 C   0  0  0  0  0  0  0  0  0  0  0  0
  140.4670   77.0670  222.3480 C   0  0  0  0  0  0  0  0  0  0  0  0
  140.9700   76.0060  221.6100 C   0  0  0  0  0  0  0  0  0  0  0  0
  140.6790   74.7760  222.0540 N   0  0  0  0  0  0  0  0  0  0  0  0
  140.0530   73.0960  223.7950 H   0  0  0  0  0  0  0  0  0  0  0  0
  138.8033   70.7062  223.5667 H   0  0  0  0  0  0  0  0  0  0  0  0
  140.5185   70.1632  223.3757 H   0  0  0  0  0  0  0  0  0  0  0  0
  139.7165   70.6494  227.8412 H   0  0  0  0  0  0  0  0  0  0  0  0
  138.5246   69.3045  227.6393 H   0  0  0  0  0  0  0  0  0  0  0  0
  141.3653   69.2305  228.4684 H   0  0  0  0  0  0  0  0  0  0  0  0
  140.0232   68.0713  228.7809 H   0  0  0  0  0  0  0  0  0  0  0  0
  141.8154   68.2787  226.3202 H   0  0  0  0  0  0  0  0  0  0  0  0
  141.5788   66.8756  227.3716 H   0  0  0  0  0  0  0  0  0  0  0  0
  140.0759   66.4767  225.4575 H   0  0  0  0  0  0  0  0  0  0  0  0
  140.1270   68.5139  224.3072 H   0  0  0  0  0  0  0  0  0  0  0  0
  138.4429   68.4207  224.8778 H   0  0  0  0  0  0  0  0  0  0  0  0
  142.2273   72.9350  219.7629 H   0  0  0  0  0  0  0  0  0  0  0  0
  142.7884   75.1895  218.9067 H   0  0  0  0  0  0  0  0  0  0  0  0
  142.5862   77.6701  219.1864 H   0  0  0  0  0  0  0  0  0  0  0  0
  140.3370   79.2097  222.5249 H   0  0  0  0  0  0  0  0  0  0  0  0
  139.8628   76.8768  223.2473 H   0  0  0  0  0  0  0  0  0  0  0  0
  1  2  2  0
  2  3  1  0
  3  4  1  0
  4  5  1  0
  5  6  2  0
  5  7  1  0
  7  8  1  0
  8  9  1  0
  9 10  1  0
 10 11  1  0
 11 12  1  0
 11 13  1  0
  2 14  1  0
 14 15  2  0
 15 16  1  0
 16 17  2  0
 17 18  1  0
 18 19  2  0
 19 20  1  0
 19 21  1  0
 21 22  2  0
 22 23  1  0
 23 24  2  0
 13  7  1  0
 24 14  1  0
 23 17  1  0
  3 25  1  0
  4 26  1  0
  4 27  1  0
  8 28  1  0
  8 29  1  0
  9 30  1  0
  9 31  1  0
 10 32  1  0
 10 33  1  0
 11 34  1  6
 13 35  1  0
 13 36  1  0
 15 37  1  0
 16 38  1  0
 18 39  1  0
 21 40  1  0
 22 41  1  0
M  END
>  <smiles>  (84) 
O=C(NCC(=O)N1CCCC(F)C1)c1ccc2cc(Cl)ccc2n1

>  <score_type>  (84) 
oracle

>  <origin>  (84) 
autodockgpu

>  <m_score__min__energy>  (84) 
-7.4400000000000004

>  <m_primary>  (84) 
energy

>  <rmsd>  (84) 
8.795965847216099

>  <m_score__min__rmsd>  (84) 
8.795965847216099

>  <meeko>  (84) 
{"free_energy": -7.02, "intermolecular_energy": -8.22, "internal_energy": -1.4, "cluster_size": 18, "cluster_id": 2, "rank_in_cluster": 4}

>  <energy>  (84) 
-6.65

>  <cluster_rmsd>  (84) 
1.53

>  <cluster>  (84) 
2

$$$$

     RDKit          3D

 41 43  0  0  0  0  0  0  0  0999 V2000
  141.4020   71.6210  221.1660 O   0  0  0  0  0  0  0  0  0  0  0  0
  140.7340   72.5050  221.7280 C   0  0  0  0  0  0  0  0  0  0  0  0
  139.7050   72.2160  222.6370 N   0  0  0  0  0  0  0  0  0  0  0  0
  139.3520   70.8470  222.9840 C   0  0  0  0  0  0  0  0  0  0  0  0
  138.5350   70.8010  224.2230 C   0  0  0  0  0  0  0  0  0  0  0  0
  137.3030   71.0470  224.1570 O   0  0  0  0  0  0  0  0  0  0  0  0
  139.2080   70.4760  225.4320 N   0  0  0  0  0  0  0  0  0  0  0  0
  140.2500   71.3050  226.0080 C   0  0  0  0  0  0  0  0  0  0  0  0
  141.5570   70.5420  226.1170 C   0  0  0  0  0  0  0  0  0  0  0  0
  141.3000   69.0530  226.0120 C   0  0  0  0  0  0  0  0  0  0  0  0
  140.0720   68.7830  226.8760 C   0  0  1  0  0  0  0  0  0  0  0  0
  140.2490   69.5120  228.0480 F   0  0  0  0  0  0  0  0  0  0  0  0
  138.8440   69.2570  226.1360 C   0  0  0  0  0  0  0  0  0  0  0  0
  141.0410   73.9180  221.4210 C   0  0  0  0  0  0  0  0  0  0  0  0
  141.9140   74.2480  220.3990 C   0  0  0  0  0  0  0  0  0  0  0  0
  142.1980   75.5670  220.1130 C   0  0  0  0  0  0  0  0  0  0  0  0
  141.6050   76.5700  220.8590 C   0  0  0  0  0  0  0  0  0  0  0  0
  141.8260   77.9020  220.6500 C   0  0  0  0  0  0  0  0  0  0  0  0
  141.1820   78.8410  221.4520 C   0  0  0  0  0  0  0  0  0  0  0  0
  141.4500   80.5570  221.2030 Cl  0  0  0  0  0  0  0  0  0  0  0  0
  140.3260   78.4680  222.4530 C   0  0  0  0  0  0  0  0  0  0  0  0
  140.1070   77.1290  222.6570 C   0  0  0  0  0  0  0  0  0  0  0  0
  140.7500   76.1960  221.8580 C   0  0  0  0  0  0  0  0  0  0  0  0
  140.4910   74.9070  222.1140 N   0  0  0  0  0  0  0  0  0  0  0  0
  139.1830   73.0170  223.0720 H   0  0  0  0  0  0  0  0  0  0  0  0
  138.7762   70.4045  222.1578 H   0  0  0  0  0  0  0  0  0  0  0  0
  140.2794   70.2812  223.1569 H   0  0  0  0  0  0  0  0  0  0  0  0
  140.4014   72.1875  225.3690 H   0  0  0  0  0  0  0  0  0  0  0  0
  139.9370   71.6082  227.0180 H   0  0  0  0  0  0  0  0  0  0  0  0
  142.2292   70.8535  225.3039 H   0  0  0  0  0  0  0  0  0  0  0  0
  142.0213   70.7598  227.0902 H   0  0  0  0  0  0  0  0  0  0  0  0
  141.1032   68.7707  224.9672 H   0  0  0  0  0  0  0  0  0  0  0  0
  142.1685   68.4669  226.3471 H   0  0  0  0  0  0  0  0  0  0  0  0
  139.9467   67.7137  227.1017 H   0  0  0  0  0  0  0  0  0  0  0  0
  138.5179   68.4904  225.4177 H   0  0  0  0  0  0  0  0  0  0  0  0
  138.0154   69.4433  226.8351 H   0  0  0  0  0  0  0  0  0  0  0  0
  142.3866   73.4494  219.8083 H   0  0  0  0  0  0  0  0  0  0  0  0
  142.8913   75.8198  219.2973 H   0  0  0  0  0  0  0  0  0  0  0  0
  142.5088   78.2309  219.8527 H   0  0  0  0  0  0  0  0  0  0  0  0
  139.8263   79.2227  223.0781 H   0  0  0  0  0  0  0  0  0  0  0  0
  139.4233   76.7967  223.4521 H   0  0  0  0  0  0  0  0  0  0  0  0
  1  2  2  0
  2  3  1  0
  3  4  1  0
  4  5  1  0
  5  6  2  0
  5  7  1  0
  7  8  1  0
  8  9  1  0
  9 10  1  0
 10 11  1  0
 11 12  1  0
 11 13  1  0
  2 14  1  0
 14 15  2  0
 15 16  1  0
 16 17  2  0
 17 18  1  0
 18 19  2  0
 19 20  1  0
 19 21  1  0
 21 22  2  0
 22 23  1  0
 23 24  2  0
 13  7  1  0
 24 14  1  0
 23 17  1  0
  3 25  1  0
  4 26  1  0
  4 27  1  0
  8 28  1  0
  8 29  1  0
  9 30  1  0
  9 31  1  0
 10 32  1  0
 10 33  1  0
 11 34  1  1
 13 35  1  0
 13 36  1  0
 15 37  1  0
 16 38  1  0
 18 39  1  0
 21 40  1  0
 22 41  1  0
M  END
>  <smiles>  (85) 
O=C(NCC(=O)N1CCCC(F)C1)c1ccc2cc(Cl)ccc2n1

>  <score_type>  (85) 
oracle

>  <origin>  (85) 
autodockgpu

>  <m_score__min__energy>  (85) 
-7.4400000000000004

>  <m_primary>  (85) 
energy

>  <rmsd>  (85) 
8.268255705695706

>  <m_score__min__rmsd>  (85) 
8.268255705695706

>  <meeko>  (85) 
{"free_energy": -6.5, "intermolecular_energy": -7.7, "internal_energy": -1.17, "cluster_size": 18, "cluster_id": 2, "rank_in_cluster": 17}

>  <energy>  (85) 
-6.65

>  <cluster_rmsd>  (85) 
1.59

>  <cluster>  (85) 
2

$$$$

     RDKit          3D

 41 43  0  0  0  0  0  0  0  0999 V2000
  140.6210   73.5990  220.5800 O   0  0  0  0  0  0  0  0  0  0  0  0
  140.0500   73.7170  221.6770 C   0  0  0  0  0  0  0  0  0  0  0  0
  139.5870   74.9500  222.1620 N   0  0  0  0  0  0  0  0  0  0  0  0
  139.7470   76.1800  221.3990 C   0  0  0  0  0  0  0  0  0  0  0  0
  139.6070   77.3740  222.2720 C   0  0  0  0  0  0  0  0  0  0  0  0
  138.6230   77.4540  223.0510 O   0  0  0  0  0  0  0  0  0  0  0  0
  140.6130   78.3720  222.1710 N   0  0  0  0  0  0  0  0  0  0  0  0
  141.7600   78.4360  223.0580 C   0  0  0  0  0  0  0  0  0  0  0  0
  141.7880   79.7480  223.8220 C   0  0  0  0  0  0  0  0  0  0  0  0
  140.8940   80.7640  223.1410 C   0  0  0  0  0  0  0  0  0  0  0  0
  141.1790   80.6320  221.6480 C   0  0  1  0  0  0  0  0  0  0  0  0
  142.5600   80.5270  221.5210 F   0  0  0  0  0  0  0  0  0  0  0  0
  140.5020   79.3840  221.1340 C   0  0  0  0  0  0  0  0  0  0  0  0
  139.8550   72.5060  222.5020 C   0  0  0  0  0  0  0  0  0  0  0  0
  139.0140   71.4910  222.0820 C   0  0  0  0  0  0  0  0  0  0  0  0
  138.8340   70.3620  222.8530 C   0  0  0  0  0  0  0  0  0  0  0  0
  139.5010   70.2440  224.0590 C   0  0  0  0  0  0  0  0  0  0  0  0
  139.3850   69.1650  224.8890 C   0  0  0  0  0  0  0  0  0  0  0  0
  140.0970   69.1360  226.0850 C   0  0  0  0  0  0  0  0  0  0  0  0
  139.9650   67.7610  227.1670 Cl  0  0  0  0  0  0  0  0  0  0  0  0
  140.9190   70.1650  226.4600 C   0  0  0  0  0  0  0  0  0  0  0  0
  141.0320   71.2470  225.6220 C   0  0  0  0  0  0  0  0  0  0  0  0
  140.3210   71.2720  224.4320 C   0  0  0  0  0  0  0  0  0  0  0  0
  140.4780   72.3590  223.6640 N   0  0  0  0  0  0  0  0  0  0  0  0
  139.1150   74.9730  223.0990 H   0  0  0  0  0  0  0  0  0  0  0  0
  140.7450   76.1884  220.9364 H   0  0  0  0  0  0  0  0  0  0  0  0
  138.9629   76.2172  220.6284 H   0  0  0  0  0  0  0  0  0  0  0  0
  141.7063   77.6037  223.7752 H   0  0  0  0  0  0  0  0  0  0  0  0
  142.6749   78.3654  222.4515 H   0  0  0  0  0  0  0  0  0  0  0  0
  141.4312   79.5792  224.8487 H   0  0  0  0  0  0  0  0  0  0  0  0
  142.8189   80.1313  223.8433 H   0  0  0  0  0  0  0  0  0  0  0  0
  139.8365   80.5451  223.3501 H   0  0  0  0  0  0  0  0  0  0  0  0
  141.0908   81.7840  223.5026 H   0  0  0  0  0  0  0  0  0  0  0  0
  140.8024   81.4904  221.0724 H   0  0  0  0  0  0  0  0  0  0  0  0
  139.4426   79.5908  220.9221 H   0  0  0  0  0  0  0  0  0  0  0  0
  140.9759   79.0401  220.2028 H   0  0  0  0  0  0  0  0  0  0  0  0
  138.4834   71.5855  221.1231 H   0  0  0  0  0  0  0  0  0  0  0  0
  138.1637   69.5597  222.5109 H   0  0  0  0  0  0  0  0  0  0  0  0
  138.7323   68.3234  224.6137 H   0  0  0  0  0  0  0  0  0  0  0  0
  141.4747   70.1259  227.4085 H   0  0  0  0  0  0  0  0  0  0  0  0
  141.6839   72.0903  225.8937 H   0  0  0  0  0  0  0  0  0  0  0  0
  1  2  2  0
  2  3  1  0
  3  4  1  0
  4  5  1  0
  5  6  2  0
  5  7  1  0
  7  8  1  0
  8  9  1  0
  9 10  1  0
 10 11  1  0
 11 12  1  0
 11 13  1  0
  2 14  1  0
 14 15  2  0
 15 16  1  0
 16 17  2  0
 17 18  1  0
 18 19  2  0
 19 20  1  0
 19 21  1  0
 21 22  2  0
 22 23  1  0
 23 24  2  0
 13  7  1  0
 24 14  1  0
 23 17  1  0
  3 25  1  0
  4 26  1  0
  4 27  1  0
  8 28  1  0
  8 29  1  0
  9 30  1  0
  9 31  1  0
 10 32  1  0
 10 33  1  0
 11 34  1  6
 13 35  1  0
 13 36  1  0
 15 37  1  0
 16 38  1  0
 18 39  1  0
 21 40  1  0
 22 41  1  0
M  END
>  <smiles>  (86) 
O=C(NCC(=O)N1CCCC(F)C1)c1ccc2cc(Cl)ccc2n1

>  <score_type>  (86) 
oracle

>  <origin>  (86) 
autodockgpu

>  <m_score__min__energy>  (86) 
-7.4400000000000004

>  <m_primary>  (86) 
energy

>  <rmsd>  (86) 
3.9375048866869644

>  <m_score__min__rmsd>  (86) 
3.9375048866869644

>  <meeko>  (86) 
{"free_energy": -6.91, "intermolecular_energy": -8.1, "internal_energy": -1.0, "cluster_size": 23, "cluster_id": 1, "rank_in_cluster": 19}

>  <energy>  (86) 
-6.64

>  <cluster_rmsd>  (86) 
1.54

>  <cluster>  (86) 
2

$$$$

     RDKit          3D

 41 43  0  0  0  0  0  0  0  0999 V2000
  140.8040   73.7250  220.7540 O   0  0  0  0  0  0  0  0  0  0  0  0
  140.1200   73.7520  221.7900 C   0  0  0  0  0  0  0  0  0  0  0  0
  139.5760   74.9370  222.3100 N   0  0  0  0  0  0  0  0  0  0  0  0
  139.7810   76.2220  221.6580 C   0  0  0  0  0  0  0  0  0  0  0  0
  139.1630   77.3240  222.4390 C   0  0  0  0  0  0  0  0  0  0  0  0
  138.1170   77.0980  223.1000 O   0  0  0  0  0  0  0  0  0  0  0  0
  139.8030   78.5920  222.3900 N   0  0  0  0  0  0  0  0  0  0  0  0
  140.3380   79.1650  221.1680 C   0  0  0  0  0  0  0  0  0  0  0  0
  141.8310   79.4090  221.2880 C   0  0  0  0  0  0  0  0  0  0  0  0
  142.2440   79.4010  222.7450 C   0  0  0  0  0  0  0  0  0  0  0  0
  141.1800   80.2090  223.4810 C   0  0  1  0  0  0  0  0  0  0  0  0
  140.9280   81.3300  222.6990 F   0  0  0  0  0  0  0  0  0  0  0  0
  139.9360   79.3630  223.6150 C   0  0  0  0  0  0  0  0  0  0  0  0
  139.8730   72.4800  222.5020 C   0  0  0  0  0  0  0  0  0  0  0  0
  139.1360   71.4690  221.9100 C   0  0  0  0  0  0  0  0  0  0  0  0
  138.9070   70.2830  222.5750 C   0  0  0  0  0  0  0  0  0  0  0  0
  139.4180   70.1040  223.8480 C   0  0  0  0  0  0  0  0  0  0  0  0
  139.2430   68.9650  224.5840 C   0  0  0  0  0  0  0  0  0  0  0  0
  139.7960   68.8770  225.8580 C   0  0  0  0  0  0  0  0  0  0  0  0
  139.5850   67.4250  226.8220 Cl  0  0  0  0  0  0  0  0  0  0  0  0
  140.5180   69.9040  226.4030 C   0  0  0  0  0  0  0  0  0  0  0  0
  140.6920   71.0450  225.6600 C   0  0  0  0  0  0  0  0  0  0  0  0
  140.1390   71.1300  224.3920 C   0  0  0  0  0  0  0  0  0  0  0  0
  140.3470   72.2730  223.7230 N   0  0  0  0  0  0  0  0  0  0  0  0
  139.0080   74.8820  223.1910 H   0  0  0  0  0  0  0  0  0  0  0  0
  140.8610   76.4094  221.5654 H   0  0  0  0  0  0  0  0  0  0  0  0
  139.3072   76.1893  220.6658 H   0  0  0  0  0  0  0  0  0  0  0  0
  140.1530   78.4712  220.3347 H   0  0  0  0  0  0  0  0  0  0  0  0
  139.8396   80.1286  220.9861 H   0  0  0  0  0  0  0  0  0  0  0  0
  142.3735   78.6165  220.7517 H   0  0  0  0  0  0  0  0  0  0  0  0
  142.0720   80.3892  220.8508 H   0  0  0  0  0  0  0  0  0  0  0  0
  142.2765   78.3706  223.1286 H   0  0  0  0  0  0  0  0  0  0  0  0
  143.2474   79.8295  222.8845 H   0  0  0  0  0  0  0  0  0  0  0  0
  141.5039   80.5075  224.4889 H   0  0  0  0  0  0  0  0  0  0  0  0
  140.0321   78.6864  224.4770 H   0  0  0  0  0  0  0  0  0  0  0  0
  139.0504   79.9956  223.7748 H   0  0  0  0  0  0  0  0  0  0  0  0
  138.7287   71.6132  220.8984 H   0  0  0  0  0  0  0  0  0  0  0  0
  138.3216   69.4842  222.0962 H   0  0  0  0  0  0  0  0  0  0  0  0
  138.6682   68.1228  224.1713 H   0  0  0  0  0  0  0  0  0  0  0  0
  140.9483   69.8172  227.4116 H   0  0  0  0  0  0  0  0  0  0  0  0
  141.2678   71.8882  226.0692 H   0  0  0  0  0  0  0  0  0  0  0  0
  1  2  2  0
  2  3  1  0
  3  4  1  0
  4  5  1  0
  5  6  2  0
  5  7  1  0
  7  8  1  0
  8  9  1  0
  9 10  1  0
 10 11  1  0
 11 12  1  0
 11 13  1  0
  2 14  1  0
 14 15  2  0
 15 16  1  0
 16 17  2  0
 17 18  1  0
 18 19  2  0
 19 20  1  0
 19 21  1  0
 21 22  2  0
 22 23  1  0
 23 24  2  0
 13  7  1  0
 24 14  1  0
 23 17  1  0
  3 25  1  0
  4 26  1  0
  4 27  1  0
  8 28  1  0
  8 29  1  0
  9 30  1  0
  9 31  1  0
 10 32  1  0
 10 33  1  0
 11 34  1  1
 13 35  1  0
 13 36  1  0
 15 37  1  0
 16 38  1  0
 18 39  1  0
 21 40  1  0
 22 41  1  0
M  END
>  <smiles>  (87) 
O=C(NCC(=O)N1CCCC(F)C1)c1ccc2cc(Cl)ccc2n1

>  <score_type>  (87) 
oracle

>  <origin>  (87) 
autodockgpu

>  <m_score__min__energy>  (87) 
-7.4400000000000004

>  <m_primary>  (87) 
energy

>  <rmsd>  (87) 
3.9924545717419404

>  <m_score__min__rmsd>  (87) 
3.9924545717419404

>  <meeko>  (87) 
{"free_energy": -6.8, "intermolecular_energy": -7.99, "internal_energy": -1.14, "cluster_size": 23, "cluster_id": 1, "rank_in_cluster": 21}

>  <energy>  (87) 
-6.54

>  <cluster_rmsd>  (87) 
1.22

>  <cluster>  (87) 
2

$$$$

     RDKit          3D

 41 43  0  0  0  0  0  0  0  0999 V2000
  140.5800   73.8500  220.4100 O   0  0  0  0  0  0  0  0  0  0  0  0
  140.0680   73.9130  221.5400 C   0  0  0  0  0  0  0  0  0  0  0  0
  139.6550   75.1230  222.1200 N   0  0  0  0  0  0  0  0  0  0  0  0
  139.8020   76.3930  221.4240 C   0  0  0  0  0  0  0  0  0  0  0  0
  139.4360   77.5320  222.3050 C   0  0  0  0  0  0  0  0  0  0  0  0
  138.4880   77.3990  223.1210 O   0  0  0  0  0  0  0  0  0  0  0  0
  140.1940   78.7260  222.1680 N   0  0  0  0  0  0  0  0  0  0  0  0
  141.5570   78.7490  221.6690 C   0  0  0  0  0  0  0  0  0  0  0  0
  142.5090   79.3190  222.7060 C   0  0  0  0  0  0  0  0  0  0  0  0
  141.7330   80.0850  223.7570 C   0  0  0  0  0  0  0  0  0  0  0  0
  140.7020   80.9080  222.9930 C   0  0  1  0  0  0  0  0  0  0  0  0
  141.3650   81.4490  221.8970 F   0  0  0  0  0  0  0  0  0  0  0  0
  139.5880   79.9930  222.5420 C   0  0  0  0  0  0  0  0  0  0  0  0
  139.8890   72.6580  222.3010 C   0  0  0  0  0  0  0  0  0  0  0  0
  139.2180   71.5830  221.7470 C   0  0  0  0  0  0  0  0  0  0  0  0
  139.0530   70.4130  222.4580 C   0  0  0  0  0  0  0  0  0  0  0  0
  139.5630   70.3150  223.7410 C   0  0  0  0  0  0  0  0  0  0  0  0
  139.4490   69.1990  224.5210 C   0  0  0  0  0  0  0  0  0  0  0  0
  139.9960   69.1950  225.8010 C   0  0  0  0  0  0  0  0  0  0  0  0
  139.8610   67.7730  226.8220 Cl  0  0  0  0  0  0  0  0  0  0  0  0
  140.6510   70.2840  226.3090 C   0  0  0  0  0  0  0  0  0  0  0  0
  140.7640   71.4020  225.5210 C   0  0  0  0  0  0  0  0  0  0  0  0
  140.2180   71.4040  224.2460 C   0  0  0  0  0  0  0  0  0  0  0  0
  140.3640   72.5290  223.5330 N   0  0  0  0  0  0  0  0  0  0  0  0
  139.2310   75.0980  223.0800 H   0  0  0  0  0  0  0  0  0  0  0  0
  140.8481   76.5082  221.1040 H   0  0  0  0  0  0  0  0  0  0  0  0
  139.1289   76.3943  220.5540 H   0  0  0  0  0  0  0  0  0  0  0  0
  141.8668   77.7227  221.4225 H   0  0  0  0  0  0  0  0  0  0  0  0
  141.5910   79.3883  220.7745 H   0  0  0  0  0  0  0  0  0  0  0  0
  143.0588   78.4964  223.1867 H   0  0  0  0  0  0  0  0  0  0  0  0
  143.2156   80.0012  222.2107 H   0  0  0  0  0  0  0  0  0  0  0  0
  141.2330   79.3894  224.4470 H   0  0  0  0  0  0  0  0  0  0  0  0
  142.3928   80.7234  224.3629 H   0  0  0  0  0  0  0  0  0  0  0  0
  140.2637   81.7058  223.6106 H   0  0  0  0  0  0  0  0  0  0  0  0
  138.8713   79.8399  223.3623 H   0  0  0  0  0  0  0  0  0  0  0  0
  139.0446   80.4308  221.6917 H   0  0  0  0  0  0  0  0  0  0  0  0
  138.8114   71.6622  220.7280 H   0  0  0  0  0  0  0  0  0  0  0  0
  138.5193   69.5628  222.0082 H   0  0  0  0  0  0  0  0  0  0  0  0
  138.9278   68.3086  224.1395 H   0  0  0  0  0  0  0  0  0  0  0  0
  141.0762   70.2637  227.3233 H   0  0  0  0  0  0  0  0  0  0  0  0
  141.2858   72.2934  225.8993 H   0  0  0  0  0  0  0  0  0  0  0  0
  1  2  2  0
  2  3  1  0
  3  4  1  0
  4  5  1  0
  5  6  2  0
  5  7  1  0
  7  8  1  0
  8  9  1  0
  9 10  1  0
 10 11  1  0
 11 12  1  0
 11 13  1  0
  2 14  1  0
 14 15  2  0
 15 16  1  0
 16 17  2  0
 17 18  1  0
 18 19  2  0
 19 20  1  0
 19 21  1  0
 21 22  2  0
 22 23  1  0
 23 24  2  0
 13  7  1  0
 24 14  1  0
 23 17  1  0
  3 25  1  0
  4 26  1  0
  4 27  1  0
  8 28  1  0
  8 29  1  0
  9 30  1  0
  9 31  1  0
 10 32  1  0
 10 33  1  0
 11 34  1  1
 13 35  1  0
 13 36  1  0
 15 37  1  0
 16 38  1  0
 18 39  1  0
 21 40  1  0
 22 41  1  0
M  END
>  <smiles>  (88) 
O=C(NCC(=O)N1CCCC(F)C1)c1ccc2cc(Cl)ccc2n1

>  <score_type>  (88) 
oracle

>  <origin>  (88) 
autodockgpu

>  <m_score__min__energy>  (88) 
-7.4400000000000004

>  <m_primary>  (88) 
energy

>  <rmsd>  (88) 
4.1513195429245195

>  <m_score__min__rmsd>  (88) 
4.1513195429245195

>  <meeko>  (88) 
{"free_energy": -6.91, "intermolecular_energy": -8.11, "internal_energy": -1.16, "cluster_size": 23, "cluster_id": 1, "rank_in_cluster": 18}

>  <energy>  (88) 
-6.52

>  <cluster_rmsd>  (88) 
1.23

>  <cluster>  (88) 
2

$$$$

     RDKit          3D

 41 43  0  0  0  0  0  0  0  0999 V2000
  139.9430   69.8590  222.3580 O   0  0  0  0  0  0  0  0  0  0  0  0
  139.6140   70.9630  222.8240 C   0  0  0  0  0  0  0  0  0  0  0  0
  138.6990   71.0990  223.8790 N   0  0  0  0  0  0  0  0  0  0  0  0
  138.0720   69.9420  224.5020 C   0  0  0  0  0  0  0  0  0  0  0  0
  139.0900   68.9680  224.9700 C   0  0  0  0  0  0  0  0  0  0  0  0
  139.1820   67.8510  224.4000 O   0  0  0  0  0  0  0  0  0  0  0  0
  139.9150   69.3650  226.0580 N   0  0  0  0  0  0  0  0  0  0  0  0
  140.6420   68.4240  226.8890 C   0  0  0  0  0  0  0  0  0  0  0  0
  140.2080   68.5270  228.3400 C   0  0  0  0  0  0  0  0  0  0  0  0
  139.4880   69.8390  228.5740 C   0  0  0  0  0  0  0  0  0  0  0  0
  140.3100   70.8980  227.8450 C   0  0  1  0  0  0  0  0  0  0  0  0
  141.6430   70.6230  228.1290 F   0  0  0  0  0  0  0  0  0  0  0  0
  140.0460   70.7800  226.3630 C   0  0  0  0  0  0  0  0  0  0  0  0
  140.2140   72.1790  222.2370 C   0  0  0  0  0  0  0  0  0  0  0  0
  141.3220   72.0950  221.4120 C   0  0  0  0  0  0  0  0  0  0  0  0
  141.8810   73.2310  220.8650 C   0  0  0  0  0  0  0  0  0  0  0  0
  141.3270   74.4680  221.1460 C   0  0  0  0  0  0  0  0  0  0  0  0
  141.8110   75.6460  220.6520 C   0  0  0  0  0  0  0  0  0  0  0  0
  141.1860   76.8440  220.9910 C   0  0  0  0  0  0  0  0  0  0  0  0
  141.7890   78.3700  220.3680 Cl  0  0  0  0  0  0  0  0  0  0  0  0
  140.0920   76.8780  221.8130 C   0  0  0  0  0  0  0  0  0  0  0  0
  139.6100   75.6920  222.3060 C   0  0  0  0  0  0  0  0  0  0  0  0
  140.2340   74.5010  221.9670 C   0  0  0  0  0  0  0  0  0  0  0  0
  139.7110   73.3810  222.4850 N   0  0  0  0  0  0  0  0  0  0  0  0
  138.4690   72.0650  224.2200 H   0  0  0  0  0  0  0  0  0  0  0  0
  137.4740   70.2775  225.3621 H   0  0  0  0  0  0  0  0  0  0  0  0
  137.4333   69.4473  223.7555 H   0  0  0  0  0  0  0  0  0  0  0  0
  140.4495   67.4029  226.5281 H   0  0  0  0  0  0  0  0  0  0  0  0
  141.7146   68.6602  226.8277 H   0  0  0  0  0  0  0  0  0  0  0  0
  139.5315   67.6929  228.5779 H   0  0  0  0  0  0  0  0  0  0  0  0
  141.0968   68.4828  228.9865 H   0  0  0  0  0  0  0  0  0  0  0  0
  138.4684   69.7953  228.1634 H   0  0  0  0  0  0  0  0  0  0  0  0
  139.3951   70.0650  229.6465 H   0  0  0  0  0  0  0  0  0  0  0  0
  140.0517   71.9196  228.1605 H   0  0  0  0  0  0  0  0  0  0  0  0
  139.1170   71.3086  226.1030 H   0  0  0  0  0  0  0  0  0  0  0  0
  140.8672   71.2284  225.7845 H   0  0  0  0  0  0  0  0  0  0  0  0
  141.7617   71.1114  221.1901 H   0  0  0  0  0  0  0  0  0  0  0  0
  142.7612   73.1545  220.2098 H   0  0  0  0  0  0  0  0  0  0  0  0
  142.6895   75.6486  219.9901 H   0  0  0  0  0  0  0  0  0  0  0  0
  139.6111   77.8329  222.0719 H   0  0  0  0  0  0  0  0  0  0  0  0
  138.7315   75.6858  222.9680 H   0  0  0  0  0  0  0  0  0  0  0  0
  1  2  2  0
  2  3  1  0
  3  4  1  0
  4  5  1  0
  5  6  2  0
  5  7  1  0
  7  8  1  0
  8  9  1  0
  9 10  1  0
 10 11  1  0
 11 12  1  0
 11 13  1  0
  2 14  1  0
 14 15  2  0
 15 16  1  0
 16 17  2  0
 17 18  1  0
 18 19  2  0
 19 20  1  0
 19 21  1  0
 21 22  2  0
 22 23  1  0
 23 24  2  0
 13  7  1  0
 24 14  1  0
 23 17  1  0
  3 25  1  0
  4 26  1  0
  4 27  1  0
  8 28  1  0
  8 29  1  0
  9 30  1  0
  9 31  1  0
 10 32  1  0
 10 33  1  0
 11 34  1  1
 13 35  1  0
 13 36  1  0
 15 37  1  0
 16 38  1  0
 18 39  1  0
 21 40  1  0
 22 41  1  0
M  END
>  <smiles>  (89) 
O=C(NCC(=O)N1CCCC(F)C1)c1ccc2cc(Cl)ccc2n1

>  <score_type>  (89) 
oracle

>  <origin>  (89) 
autodockgpu

>  <m_score__min__energy>  (89) 
-7.4400000000000004

>  <m_primary>  (89) 
energy

>  <rmsd>  (89) 
8.405367531535074

>  <m_score__min__rmsd>  (89) 
8.405367531535074

>  <meeko>  (89) 
{"free_energy": -6.82, "intermolecular_energy": -8.02, "internal_energy": -1.08, "cluster_size": 18, "cluster_id": 2, "rank_in_cluster": 7}

>  <energy>  (89) 
-6.51

>  <cluster_rmsd>  (89) 
1.34

>  <cluster>  (89) 
2

$$$$

     RDKit          3D

 41 43  0  0  0  0  0  0  0  0999 V2000
  140.3120   72.6730  220.8800 O   0  0  0  0  0  0  0  0  0  0  0  0
  139.9540   73.0000  222.0240 C   0  0  0  0  0  0  0  0  0  0  0  0
  139.5360   74.3010  222.3450 N   0  0  0  0  0  0  0  0  0  0  0  0
  139.4940   75.3590  221.3460 C   0  0  0  0  0  0  0  0  0  0  0  0
  140.7250   76.1890  221.3930 C   0  0  0  0  0  0  0  0  0  0  0  0
  141.8310   75.6680  221.0980 O   0  0  0  0  0  0  0  0  0  0  0  0
  140.5740   77.5500  221.7750 N   0  0  0  0  0  0  0  0  0  0  0  0
  141.4400   78.6110  221.2930 C   0  0  0  0  0  0  0  0  0  0  0  0
  142.1590   79.2930  222.4430 C   0  0  0  0  0  0  0  0  0  0  0  0
  141.4600   78.9830  223.7500 C   0  0  0  0  0  0  0  0  0  0  0  0
  139.9670   79.1230  223.4650 C   0  0  1  0  0  0  0  0  0  0  0  0
  139.8210   80.2760  222.7010 F   0  0  0  0  0  0  0  0  0  0  0  0
  139.5060   77.9110  222.6920 C   0  0  0  0  0  0  0  0  0  0  0  0
  139.9720   71.9730  223.0860 C   0  0  0  0  0  0  0  0  0  0  0  0
  139.4760   70.7020  222.8510 C   0  0  0  0  0  0  0  0  0  0  0  0
  139.4940   69.7450  223.8440 C   0  0  0  0  0  0  0  0  0  0  0  0
  140.0120   70.0600  225.0870 C   0  0  0  0  0  0  0  0  0  0  0  0
  140.0720   69.1790  226.1300 C   0  0  0  0  0  0  0  0  0  0  0  0
  140.6120   69.5870  227.3470 C   0  0  0  0  0  0  0  0  0  0  0  0
  140.7000   68.4740  228.7010 Cl  0  0  0  0  0  0  0  0  0  0  0  0
  141.0910   70.8560  227.5330 C   0  0  0  0  0  0  0  0  0  0  0  0
  141.0300   71.7360  226.4820 C   0  0  0  0  0  0  0  0  0  0  0  0
  140.4900   71.3270  225.2720 C   0  0  0  0  0  0  0  0  0  0  0  0
  140.4610   72.2380  224.2900 N   0  0  0  0  0  0  0  0  0  0  0  0
  139.2470   74.5030  223.3340 H   0  0  0  0  0  0  0  0  0  0  0  0
  139.4038   74.9066  220.3474 H   0  0  0  0  0  0  0  0  0  0  0  0
  138.6292   76.0049  221.5578 H   0  0  0  0  0  0  0  0  0  0  0  0
  142.1852   78.1828  220.6065 H   0  0  0  0  0  0  0  0  0  0  0  0
  140.8219   79.3586  220.7743 H   0  0  0  0  0  0  0  0  0  0  0  0
  143.1963   78.9301  222.4901 H   0  0  0  0  0  0  0  0  0  0  0  0
  142.1504   80.3807  222.2789 H   0  0  0  0  0  0  0  0  0  0  0  0
  141.6936   77.9587  224.0760 H   0  0  0  0  0  0  0  0  0  0  0  0
  141.7845   79.6602  224.5538 H   0  0  0  0  0  0  0  0  0  0  0  0
  139.3692   79.1920  224.3858 H   0  0  0  0  0  0  0  0  0  0  0  0
  139.3054   77.0784  223.3823 H   0  0  0  0  0  0  0  0  0  0  0  0
  138.5787   78.1298  222.1423 H   0  0  0  0  0  0  0  0  0  0  0  0
  139.0633   70.4529  221.8622 H   0  0  0  0  0  0  0  0  0  0  0  0
  139.0987   68.7373  223.6485 H   0  0  0  0  0  0  0  0  0  0  0  0
  139.6956   68.1525  226.0088 H   0  0  0  0  0  0  0  0  0  0  0  0
  141.5142   71.1625  228.5010 H   0  0  0  0  0  0  0  0  0  0  0  0
  141.4081   72.7623  226.5988 H   0  0  0  0  0  0  0  0  0  0  0  0
  1  2  2  0
  2  3  1  0
  3  4  1  0
  4  5  1  0
  5  6  2  0
  5  7  1  0
  7  8  1  0
  8  9  1  0
  9 10  1  0
 10 11  1  0
 11 12  1  0
 11 13  1  0
  2 14  1  0
 14 15  2  0
 15 16  1  0
 16 17  2  0
 17 18  1  0
 18 19  2  0
 19 20  1  0
 19 21  1  0
 21 22  2  0
 22 23  1  0
 23 24  2  0
 13  7  1  0
 24 14  1  0
 23 17  1  0
  3 25  1  0
  4 26  1  0
  4 27  1  0
  8 28  1  0
  8 29  1  0
  9 30  1  0
  9 31  1  0
 10 32  1  0
 10 33  1  0
 11 34  1  1
 13 35  1  0
 13 36  1  0
 15 37  1  0
 16 38  1  0
 18 39  1  0
 21 40  1  0
 22 41  1  0
M  END
>  <smiles>  (90) 
O=C(NCC(=O)N1CCCC(F)C1)c1ccc2cc(Cl)ccc2n1

>  <score_type>  (90) 
oracle

>  <origin>  (90) 
autodockgpu

>  <m_score__min__energy>  (90) 
-7.4400000000000004

>  <m_primary>  (90) 
energy

>  <rmsd>  (90) 
3.3732482059053464

>  <m_score__min__rmsd>  (90) 
3.3732482059053464

>  <meeko>  (90) 
{"free_energy": -7.43, "intermolecular_energy": -8.63, "internal_energy": -0.9, "cluster_size": 23, "cluster_id": 1, "rank_in_cluster": 2}

>  <energy>  (90) 
-6.5

>  <cluster_rmsd>  (90) 
1.29

>  <cluster>  (90) 
2

$$$$

     RDKit          3D

 41 43  0  0  0  0  0  0  0  0999 V2000
  140.0280   74.1900  222.2460 O   0  0  0  0  0  0  0  0  0  0  0  0
  140.3200   73.0170  221.9580 C   0  0  0  0  0  0  0  0  0  0  0  0
  140.7300   72.6310  220.6720 N   0  0  0  0  0  0  0  0  0  0  0  0
  140.8410   73.5920  219.5840 C   0  0  0  0  0  0  0  0  0  0  0  0
  141.9640   74.5360  219.8160 C   0  0  0  0  0  0  0  0  0  0  0  0
  141.7120   75.7210  220.1520 O   0  0  0  0  0  0  0  0  0  0  0  0
  143.2810   74.0320  219.6390 N   0  0  0  0  0  0  0  0  0  0  0  0
  143.5650   72.7470  219.0250 C   0  0  0  0  0  0  0  0  0  0  0  0
  144.3000   71.8320  219.9870 C   0  0  0  0  0  0  0  0  0  0  0  0
  144.9010   72.6420  221.1170 C   0  0  0  0  0  0  0  0  0  0  0  0
  145.5170   73.8740  220.4620 C   0  0  1  0  0  0  0  0  0  0  0  0
  146.1780   73.4240  219.3240 F   0  0  0  0  0  0  0  0  0  0  0  0
  144.4090   74.8300  220.0900 C   0  0  0  0  0  0  0  0  0  0  0  0
  140.2290   71.9910  223.0170 C   0  0  0  0  0  0  0  0  0  0  0  0
  139.6770   70.7490  222.7550 C   0  0  0  0  0  0  0  0  0  0  0  0
  139.5940   69.7920  223.7450 C   0  0  0  0  0  0  0  0  0  0  0  0
  140.0660   70.0790  225.0140 C   0  0  0  0  0  0  0  0  0  0  0  0
  140.0260   69.1960  226.0560 C   0  0  0  0  0  0  0  0  0  0  0  0
  140.5260   69.5750  227.2990 C   0  0  0  0  0  0  0  0  0  0  0  0
  140.4860   68.4590  228.6530 Cl  0  0  0  0  0  0  0  0  0  0  0  0
  141.0640   70.8150  227.5120 C   0  0  0  0  0  0  0  0  0  0  0  0
  141.1030   71.6980  226.4610 C   0  0  0  0  0  0  0  0  0  0  0  0
  140.6030   71.3180  225.2250 C   0  0  0  0  0  0  0  0  0  0  0  0
  140.6720   72.2290  224.2450 N   0  0  0  0  0  0  0  0  0  0  0  0
  140.9600   71.6210  220.5040 H   0  0  0  0  0  0  0  0  0  0  0  0
  141.0159   73.0503  218.6428 H   0  0  0  0  0  0  0  0  0  0  0  0
  139.9057   74.1685  219.5307 H   0  0  0  0  0  0  0  0  0  0  0  0
  142.6174   72.2722  218.7308 H   0  0  0  0  0  0  0  0  0  0  0  0
  144.2035   72.9139  218.1450 H   0  0  0  0  0  0  0  0  0  0  0  0
  143.5943   71.0968  220.4012 H   0  0  0  0  0  0  0  0  0  0  0  0
  145.1057   71.3132  219.4469 H   0  0  0  0  0  0  0  0  0  0  0  0
  144.1205   72.9386  221.8332 H   0  0  0  0  0  0  0  0  0  0  0  0
  145.6505   72.0631  221.6766 H   0  0  0  0  0  0  0  0  0  0  0  0
  146.2148   74.3988  221.1311 H   0  0  0  0  0  0  0  0  0  0  0  0
  144.1195   75.4294  220.9657 H   0  0  0  0  0  0  0  0  0  0  0  0
  144.7392   75.5188  219.2985 H   0  0  0  0  0  0  0  0  0  0  0  0
  139.3005   70.5227  221.7465 H   0  0  0  0  0  0  0  0  0  0  0  0
  139.1554   68.8070  223.5272 H   0  0  0  0  0  0  0  0  0  0  0  0
  139.6012   68.1914  225.9136 H   0  0  0  0  0  0  0  0  0  0  0  0
  141.4555   71.0975  228.5004 H   0  0  0  0  0  0  0  0  0  0  0  0
  141.5292   72.7026  226.5992 H   0  0  0  0  0  0  0  0  0  0  0  0
  1  2  2  0
  2  3  1  0
  3  4  1  0
  4  5  1  0
  5  6  2  0
  5  7  1  0
  7  8  1  0
  8  9  1  0
  9 10  1  0
 10 11  1  0
 11 12  1  0
 11 13  1  0
  2 14  1  0
 14 15  2  0
 15 16  1  0
 16 17  2  0
 17 18  1  0
 18 19  2  0
 19 20  1  0
 19 21  1  0
 21 22  2  0
 22 23  1  0
 23 24  2  0
 13  7  1  0
 24 14  1  0
 23 17  1  0
  3 25  1  0
  4 26  1  0
  4 27  1  0
  8 28  1  0
  8 29  1  0
  9 30  1  0
  9 31  1  0
 10 32  1  0
 10 33  1  0
 11 34  1  1
 13 35  1  0
 13 36  1  0
 15 37  1  0
 16 38  1  0
 18 39  1  0
 21 40  1  0
 22 41  1  0
M  END
>  <smiles>  (91) 
O=C(NCC(=O)N1CCCC(F)C1)c1ccc2cc(Cl)ccc2n1

>  <score_type>  (91) 
oracle

>  <origin>  (91) 
autodockgpu

>  <m_score__min__energy>  (91) 
-7.4400000000000004

>  <m_primary>  (91) 
energy

>  <rmsd>  (91) 
3.892569569235976

>  <m_score__min__rmsd>  (91) 
3.892569569235976

>  <meeko>  (91) 
{"free_energy": -6.92, "intermolecular_energy": -8.11, "internal_energy": -1.0, "cluster_size": 4, "cluster_id": 4, "rank_in_cluster": 1}

>  <energy>  (91) 
-6.43

>  <cluster_rmsd>  (91) 
0.91

>  <cluster>  (91) 
2

$$$$

     RDKit          3D

 41 43  0  0  0  0  0  0  0  0999 V2000
  134.8140   68.5090  224.9270 O   0  0  0  0  0  0  0  0  0  0  0  0
  135.3330   69.6350  225.0090 C   0  0  0  0  0  0  0  0  0  0  0  0
  136.6210   69.9130  224.5250 N   0  0  0  0  0  0  0  0  0  0  0  0
  137.4380   68.8880  223.8910 C   0  0  0  0  0  0  0  0  0  0  0  0
  138.6320   68.5690  224.7140 C   0  0  0  0  0  0  0  0  0  0  0  0
  139.1500   67.4260  224.6290 O   0  0  0  0  0  0  0  0  0  0  0  0
  139.1260   69.5950  225.5640 N   0  0  0  0  0  0  0  0  0  0  0  0
  139.5420   70.8980  225.0780 C   0  0  0  0  0  0  0  0  0  0  0  0
  141.0030   71.1590  225.3960 C   0  0  0  0  0  0  0  0  0  0  0  0
  141.4760   70.2120  226.4780 C   0  0  0  0  0  0  0  0  0  0  0  0
  140.3620   70.1840  227.5200 C   0  0  1  0  0  0  0  0  0  0  0  0
  139.9540   71.5020  227.6940 F   0  0  0  0  0  0  0  0  0  0  0  0
  139.2260   69.3410  226.9920 C   0  0  0  0  0  0  0  0  0  0  0  0
  134.5570   70.7210  225.6420 C   0  0  0  0  0  0  0  0  0  0  0  0
  133.5810   70.4400  226.5820 C   0  0  0  0  0  0  0  0  0  0  0  0
  132.8580   71.4560  227.1720 C   0  0  0  0  0  0  0  0  0  0  0  0
  133.1120   72.7690  226.8190 C   0  0  0  0  0  0  0  0  0  0  0  0
  132.4480   73.8400  227.3490 C   0  0  0  0  0  0  0  0  0  0  0  0
  132.7740   75.1280  226.9310 C   0  0  0  0  0  0  0  0  0  0  0  0
  131.9360   76.5180  227.5980 Cl  0  0  0  0  0  0  0  0  0  0  0  0
  133.7480   75.3580  225.9980 C   0  0  0  0  0  0  0  0  0  0  0  0
  134.4120   74.2790  225.4700 C   0  0  0  0  0  0  0  0  0  0  0  0
  134.0850   72.9980  225.8870 C   0  0  0  0  0  0  0  0  0  0  0  0
  134.7730   71.9920  225.3290 N   0  0  0  0  0  0  0  0  0  0  0  0
  136.9940   70.8890  224.6300 H   0  0  0  0  0  0  0  0  0  0  0  0
  136.8356   67.9764  223.7641 H   0  0  0  0  0  0  0  0  0  0  0  0
  137.7778   69.2668  222.9158 H   0  0  0  0  0  0  0  0  0  0  0  0
  139.3990   70.9373  223.9880 H   0  0  0  0  0  0  0  0  0  0  0  0
  138.9333   71.6672  225.5758 H   0  0  0  0  0  0  0  0  0  0  0  0
  141.6060   71.0056  224.4889 H   0  0  0  0  0  0  0  0  0  0  0  0
  141.1156   72.1947  225.7490 H   0  0  0  0  0  0  0  0  0  0  0  0
  141.6381   69.2062  226.0631 H   0  0  0  0  0  0  0  0  0  0  0  0
  142.4311   70.5396  226.9143 H   0  0  0  0  0  0  0  0  0  0  0  0
  140.6945   69.7542  228.4764 H   0  0  0  0  0  0  0  0  0  0  0  0
  139.4331   68.2756  227.1712 H   0  0  0  0  0  0  0  0  0  0  0  0
  138.2839   69.5955  227.4995 H   0  0  0  0  0  0  0  0  0  0  0  0
  133.3796   69.3954  226.8617 H   0  0  0  0  0  0  0  0  0  0  0  0
  132.0843   71.2234  227.9185 H   0  0  0  0  0  0  0  0  0  0  0  0
  131.6606   73.6854  228.1014 H   0  0  0  0  0  0  0  0  0  0  0  0
  133.9928   76.3819  225.6791 H   0  0  0  0  0  0  0  0  0  0  0  0
  135.2009   74.4302  224.7185 H   0  0  0  0  0  0  0  0  0  0  0  0
  1  2  2  0
  2  3  1  0
  3  4  1  0
  4  5  1  0
  5  6  2  0
  5  7  1  0
  7  8  1  0
  8  9  1  0
  9 10  1  0
 10 11  1  0
 11 12  1  0
 11 13  1  0
  2 14  1  0
 14 15  2  0
 15 16  1  0
 16 17  2  0
 17 18  1  0
 18 19  2  0
 19 20  1  0
 19 21  1  0
 21 22  2  0
 22 23  1  0
 23 24  2  0
 13  7  1  0
 24 14  1  0
 23 17  1  0
  3 25  1  0
  4 26  1  0
  4 27  1  0
  8 28  1  0
  8 29  1  0
  9 30  1  0
  9 31  1  0
 10 32  1  0
 10 33  1  0
 11 34  1  1
 13 35  1  0
 13 36  1  0
 15 37  1  0
 16 38  1  0
 18 39  1  0
 21 40  1  0
 22 41  1  0
M  END
>  <smiles>  (92) 
O=C(NCC(=O)N1CCCC(F)C1)c1ccc2cc(Cl)ccc2n1

>  <score_type>  (92) 
oracle

>  <origin>  (92) 
autodockgpu

>  <m_score__min__energy>  (92) 
-7.4400000000000004

>  <m_primary>  (92) 
energy

>  <rmsd>  (92) 
8.171634445237874

>  <m_score__min__rmsd>  (92) 
8.171634445237874

>  <meeko>  (92) 
{"free_energy": -6.85, "intermolecular_energy": -8.04, "internal_energy": -1.15, "cluster_size": 5, "cluster_id": 3, "rank_in_cluster": 2}

>  <energy>  (92) 
-7.06

>  <cluster_rmsd>  (92) 
0.0

>  <cluster>  (92) 
3

$$$$

     RDKit          3D

 41 43  0  0  0  0  0  0  0  0999 V2000
  140.2040   72.8790  220.7510 O   0  0  0  0  0  0  0  0  0  0  0  0
  139.9180   73.1450  221.9300 C   0  0  0  0  0  0  0  0  0  0  0  0
  139.5640   74.4370  222.3500 N   0  0  0  0  0  0  0  0  0  0  0  0
  139.5080   75.5560  221.4210 C   0  0  0  0  0  0  0  0  0  0  0  0
  138.7660   76.7020  222.0050 C   0  0  0  0  0  0  0  0  0  0  0  0
  137.5870   76.5310  222.4080 O   0  0  0  0  0  0  0  0  0  0  0  0
  139.4480   77.9470  222.0760 N   0  0  0  0  0  0  0  0  0  0  0  0
  140.5400   78.3060  221.1890 C   0  0  0  0  0  0  0  0  0  0  0  0
  141.8120   78.5760  221.9710 C   0  0  0  0  0  0  0  0  0  0  0  0
  141.4840   78.8210  223.4290 C   0  0  0  0  0  0  0  0  0  0  0  0
  140.2630   79.7350  223.4310 C   0  0  1  0  0  0  0  0  0  0  0  0
  140.4980   80.7050  222.4620 F   0  0  0  0  0  0  0  0  0  0  0  0
  139.0440   78.9170  223.0800 C   0  0  0  0  0  0  0  0  0  0  0  0
  139.9550   72.0540  222.9260 C   0  0  0  0  0  0  0  0  0  0  0  0
  139.5180   70.7820  222.5990 C   0  0  0  0  0  0  0  0  0  0  0  0
  139.5540   69.7650  223.5300 C   0  0  0  0  0  0  0  0  0  0  0  0
  140.0300   70.0210  224.8040 C   0  0  0  0  0  0  0  0  0  0  0  0
  140.1030   69.0790  225.7910 C   0  0  0  0  0  0  0  0  0  0  0  0
  140.5980   69.4310  227.0440 C   0  0  0  0  0  0  0  0  0  0  0  0
  140.7010   68.2380  228.3270 Cl  0  0  0  0  0  0  0  0  0  0  0  0
  141.0190   70.7030  227.3210 C   0  0  0  0  0  0  0  0  0  0  0  0
  140.9440   71.6450  226.3260 C   0  0  0  0  0  0  0  0  0  0  0  0
  140.4500   71.2920  225.0800 C   0  0  0  0  0  0  0  0  0  0  0  0
  140.4050   72.2620  224.1560 N   0  0  0  0  0  0  0  0  0  0  0  0
  139.3350   74.5870  223.3640 H   0  0  0  0  0  0  0  0  0  0  0  0
  140.5330   75.8762  221.1827 H   0  0  0  0  0  0  0  0  0  0  0  0
  138.9829   75.2280  220.5118 H   0  0  0  0  0  0  0  0  0  0  0  0
  140.7189   77.4789  220.4863 H   0  0  0  0  0  0  0  0  0  0  0  0
  140.2626   79.2214  220.6457 H   0  0  0  0  0  0  0  0  0  0  0  0
  142.4807   77.7064  221.8896 H   0  0  0  0  0  0  0  0  0  0  0  0
  142.3061   79.4678  221.5582 H   0  0  0  0  0  0  0  0  0  0  0  0
  141.2530   77.8718  223.9346 H   0  0  0  0  0  0  0  0  0  0  0  0
  142.3310   79.2749  223.9643 H   0  0  0  0  0  0  0  0  0  0  0  0
  140.0924   80.2029  224.4118 H   0  0  0  0  0  0  0  0  0  0  0  0
  138.6684   78.3985  223.9745 H   0  0  0  0  0  0  0  0  0  0  0  0
  138.2398   79.5620  222.6965 H   0  0  0  0  0  0  0  0  0  0  0  0
  139.1382   70.5802  221.5866 H   0  0  0  0  0  0  0  0  0  0  0  0
  139.2064   68.7565  223.2615 H   0  0  0  0  0  0  0  0  0  0  0  0
  139.7725   68.0480  225.5968 H   0  0  0  0  0  0  0  0  0  0  0  0
  141.4078   70.9640  228.3163 H   0  0  0  0  0  0  0  0  0  0  0  0
  141.2748   72.6766  226.5166 H   0  0  0  0  0  0  0  0  0  0  0  0
  1  2  2  0
  2  3  1  0
  3  4  1  0
  4  5  1  0
  5  6  2  0
  5  7  1  0
  7  8  1  0
  8  9  1  0
  9 10  1  0
 10 11  1  0
 11 12  1  0
 11 13  1  0
  2 14  1  0
 14 15  2  0
 15 16  1  0
 16 17  2  0
 17 18  1  0
 18 19  2  0
 19 20  1  0
 19 21  1  0
 21 22  2  0
 22 23  1  0
 23 24  2  0
 13  7  1  0
 24 14  1  0
 23 17  1  0
  3 25  1  0
  4 26  1  0
  4 27  1  0
  8 28  1  0
  8 29  1  0
  9 30  1  0
  9 31  1  0
 10 32  1  0
 10 33  1  0
 11 34  1  1
 13 35  1  0
 13 36  1  0
 15 37  1  0
 16 38  1  0
 18 39  1  0
 21 40  1  0
 22 41  1  0
M  END
>  <smiles>  (93) 
O=C(NCC(=O)N1CCCC(F)C1)c1ccc2cc(Cl)ccc2n1

>  <score_type>  (93) 
oracle

>  <origin>  (93) 
autodockgpu

>  <m_score__min__energy>  (93) 
-7.4400000000000004

>  <m_primary>  (93) 
energy

>  <rmsd>  (93) 
3.549819047574925

>  <m_score__min__rmsd>  (93) 
3.549819047574925

>  <meeko>  (93) 
{"free_energy": -7.06, "intermolecular_energy": -8.26, "internal_energy": -0.99, "cluster_size": 23, "cluster_id": 1, "rank_in_cluster": 13}

>  <energy>  (93) 
-6.85

>  <cluster_rmsd>  (93) 
0.83

>  <cluster>  (93) 
3

$$$$

     RDKit          3D

 41 43  0  0  0  0  0  0  0  0999 V2000
  141.1200   71.4470  221.3850 O   0  0  0  0  0  0  0  0  0  0  0  0
  140.7300   72.4490  222.0070 C   0  0  0  0  0  0  0  0  0  0  0  0
  139.9730   72.3630  223.1860 N   0  0  0  0  0  0  0  0  0  0  0  0
  139.5950   71.0800  223.7600 C   0  0  0  0  0  0  0  0  0  0  0  0
  140.0850   70.9530  225.1560 C   0  0  0  0  0  0  0  0  0  0  0  0
  140.7710   71.8820  225.6550 O   0  0  0  0  0  0  0  0  0  0  0  0
  139.7420   69.7650  225.8580 N   0  0  0  0  0  0  0  0  0  0  0  0
  139.5810   69.7120  227.2990 C   0  0  0  0  0  0  0  0  0  0  0  0
  140.5620   68.7370  227.9230 C   0  0  0  0  0  0  0  0  0  0  0  0
  141.1070   67.8000  226.8650 C   0  0  0  0  0  0  0  0  0  0  0  0
  139.9070   67.3890  226.0180 C   0  0  1  0  0  0  0  0  0  0  0  0
  138.8730   67.1190  226.9080 F   0  0  0  0  0  0  0  0  0  0  0  0
  139.5400   68.5360  225.1080 C   0  0  0  0  0  0  0  0  0  0  0  0
  141.0790   73.7840  221.4770 C   0  0  0  0  0  0  0  0  0  0  0  0
  141.8570   73.9140  220.3400 C   0  0  0  0  0  0  0  0  0  0  0  0
  142.1820   75.1600  219.8480 C   0  0  0  0  0  0  0  0  0  0  0  0
  141.7250   76.2930  220.4990 C   0  0  0  0  0  0  0  0  0  0  0  0
  141.9950   77.5670  220.0860 C   0  0  0  0  0  0  0  0  0  0  0  0
  141.4900   78.6460  220.8070 C   0  0  0  0  0  0  0  0  0  0  0  0
  141.8230   80.2910  220.2970 Cl  0  0  0  0  0  0  0  0  0  0  0  0
  140.7240   78.4690  221.9280 C   0  0  0  0  0  0  0  0  0  0  0  0
  140.4550   77.1870  222.3370 C   0  0  0  0  0  0  0  0  0  0  0  0
  140.9600   76.1150  221.6180 C   0  0  0  0  0  0  0  0  0  0  0  0
  140.6590   74.8910  222.0750 N   0  0  0  0  0  0  0  0  0  0  0  0
  139.6780   73.2540  223.6560 H   0  0  0  0  0  0  0  0  0  0  0  0
  138.4984   70.9934  223.7550 H   0  0  0  0  0  0  0  0  0  0  0  0
  140.0490   70.2802  223.1565 H   0  0  0  0  0  0  0  0  0  0  0  0
  139.7557   70.7143  227.7171 H   0  0  0  0  0  0  0  0  0  0  0  0
  138.5594   69.3717  227.5240 H   0  0  0  0  0  0  0  0  0  0  0  0
  141.3932   69.2970  228.3764 H   0  0  0  0  0  0  0  0  0  0  0  0
  140.0437   68.1479  228.6939 H   0  0  0  0  0  0  0  0  0  0  0  0
  141.8552   68.3156  226.2450 H   0  0  0  0  0  0  0  0  0  0  0  0
  141.6046   66.9275  227.3136 H   0  0  0  0  0  0  0  0  0  0  0  0
  140.1177   66.5084  225.3934 H   0  0  0  0  0  0  0  0  0  0  0  0
  140.1835   68.5294  224.2159 H   0  0  0  0  0  0  0  0  0  0  0  0
  138.4950   68.4501  224.7755 H   0  0  0  0  0  0  0  0  0  0  0  0
  142.2200   73.0133  219.8232 H   0  0  0  0  0  0  0  0  0  0  0  0
  142.8009   75.2534  218.9434 H   0  0  0  0  0  0  0  0  0  0  0  0
  142.6078   77.7394  219.1890 H   0  0  0  0  0  0  0  0  0  0  0  0
  140.3341   79.3326  222.4866 H   0  0  0  0  0  0  0  0  0  0  0  0
  139.8408   77.0107  223.2323 H   0  0  0  0  0  0  0  0  0  0  0  0
  1  2  2  0
  2  3  1  0
  3  4  1  0
  4  5  1  0
  5  6  2  0
  5  7  1  0
  7  8  1  0
  8  9  1  0
  9 10  1  0
 10 11  1  0
 11 12  1  0
 11 13  1  0
  2 14  1  0
 14 15  2  0
 15 16  1  0
 16 17  2  0
 17 18  1  0
 18 19  2  0
 19 20  1  0
 19 21  1  0
 21 22  2  0
 22 23  1  0
 23 24  2  0
 13  7  1  0
 24 14  1  0
 23 17  1  0
  3 25  1  0
  4 26  1  0
  4 27  1  0
  8 28  1  0
  8 29  1  0
  9 30  1  0
  9 31  1  0
 10 32  1  0
 10 33  1  0
 11 34  1  6
 13 35  1  0
 13 36  1  0
 15 37  1  0
 16 38  1  0
 18 39  1  0
 21 40  1  0
 22 41  1  0
M  END
>  <smiles>  (94) 
O=C(NCC(=O)N1CCCC(F)C1)c1ccc2cc(Cl)ccc2n1

>  <score_type>  (94) 
oracle

>  <origin>  (94) 
autodockgpu

>  <m_score__min__energy>  (94) 
-7.4400000000000004

>  <m_primary>  (94) 
energy

>  <rmsd>  (94) 
8.767943204150663

>  <m_score__min__rmsd>  (94) 
8.767943204150663

>  <meeko>  (94) 
{"free_energy": -7.23, "intermolecular_energy": -8.42, "internal_energy": -1.21, "cluster_size": 18, "cluster_id": 2, "rank_in_cluster": 1}

>  <energy>  (94) 
-6.83

>  <cluster_rmsd>  (94) 
0.84

>  <cluster>  (94) 
3

$$$$

     RDKit          3D

 41 43  0  0  0  0  0  0  0  0999 V2000
  140.8850   73.1010  221.4750 O   0  0  0  0  0  0  0  0  0  0  0  0
  139.9540   73.0210  222.2940 C   0  0  0  0  0  0  0  0  0  0  0  0
  138.8720   73.9160  222.3020 N   0  0  0  0  0  0  0  0  0  0  0  0
  138.7730   75.0050  221.3410 C   0  0  0  0  0  0  0  0  0  0  0  0
  138.6850   76.3190  222.0270 C   0  0  0  0  0  0  0  0  0  0  0  0
  137.6930   76.5660  222.7590 O   0  0  0  0  0  0  0  0  0  0  0  0
  139.7480   77.2370  221.8090 N   0  0  0  0  0  0  0  0  0  0  0  0
  141.0670   77.0780  222.3950 C   0  0  0  0  0  0  0  0  0  0  0  0
  141.4150   78.2590  223.2830 C   0  0  0  0  0  0  0  0  0  0  0  0
  140.5110   79.4320  222.9670 C   0  0  0  0  0  0  0  0  0  0  0  0
  140.4320   79.4950  221.4440 C   0  0  1  0  0  0  0  0  0  0  0  0
  141.7270   79.2990  220.9770 F   0  0  0  0  0  0  0  0  0  0  0  0
  139.5190   78.3940  220.9600 C   0  0  0  0  0  0  0  0  0  0  0  0
  139.9920   71.9380  223.2980 C   0  0  0  0  0  0  0  0  0  0  0  0
  139.5550   70.6630  222.9820 C   0  0  0  0  0  0  0  0  0  0  0  0
  139.5930   69.6530  223.9200 C   0  0  0  0  0  0  0  0  0  0  0  0
  140.0710   69.9180  225.1910 C   0  0  0  0  0  0  0  0  0  0  0  0
  140.1460   68.9830  226.1840 C   0  0  0  0  0  0  0  0  0  0  0  0
  140.6430   69.3440  227.4340 C   0  0  0  0  0  0  0  0  0  0  0  0
  140.7490   68.1610  228.7260 Cl  0  0  0  0  0  0  0  0  0  0  0  0
  141.0640   70.6190  227.7010 C   0  0  0  0  0  0  0  0  0  0  0  0
  140.9880   71.5540  226.6990 C   0  0  0  0  0  0  0  0  0  0  0  0
  140.4920   71.1910  225.4560 C   0  0  0  0  0  0  0  0  0  0  0  0
  140.4440   72.1550  224.5260 N   0  0  0  0  0  0  0  0  0  0  0  0
  138.1220   73.7860  223.0250 H   0  0  0  0  0  0  0  0  0  0  0  0
  139.6635   74.9961  220.6953 H   0  0  0  0  0  0  0  0  0  0  0  0
  137.8603   74.8614  220.7441 H   0  0  0  0  0  0  0  0  0  0  0  0
  141.0842   76.1578  222.9975 H   0  0  0  0  0  0  0  0  0  0  0  0
  141.8064   77.0212  221.5825 H   0  0  0  0  0  0  0  0  0  0  0  0
  141.2843   77.9726  224.3370 H   0  0  0  0  0  0  0  0  0  0  0  0
  142.4599   78.5506  223.1011 H   0  0  0  0  0  0  0  0  0  0  0  0
  139.5110   79.2720  223.3965 H   0  0  0  0  0  0  0  0  0  0  0  0
  140.8991   80.3693  223.3922 H   0  0  0  0  0  0  0  0  0  0  0  0
  140.0334   80.4551  221.0843 H   0  0  0  0  0  0  0  0  0  0  0  0
  138.4696   78.7147  221.0361 H   0  0  0  0  0  0  0  0  0  0  0  0
  139.7263   78.1513  219.9073 H   0  0  0  0  0  0  0  0  0  0  0  0
  139.1734   70.4534  221.9718 H   0  0  0  0  0  0  0  0  0  0  0  0
  139.2453   68.6425  223.6593 H   0  0  0  0  0  0  0  0  0  0  0  0
  139.8156   67.9505  225.9974 H   0  0  0  0  0  0  0  0  0  0  0  0
  141.4536   70.8875  228.6940 H   0  0  0  0  0  0  0  0  0  0  0  0
  141.3192   72.5870  226.8813 H   0  0  0  0  0  0  0  0  0  0  0  0
  1  2  2  0
  2  3  1  0
  3  4  1  0
  4  5  1  0
  5  6  2  0
  5  7  1  0
  7  8  1  0
  8  9  1  0
  9 10  1  0
 10 11  1  0
 11 12  1  0
 11 13  1  0
  2 14  1  0
 14 15  2  0
 15 16  1  0
 16 17  2  0
 17 18  1  0
 18 19  2  0
 19 20  1  0
 19 21  1  0
 21 22  2  0
 22 23  1  0
 23 24  2  0
 13  7  1  0
 24 14  1  0
 23 17  1  0
  3 25  1  0
  4 26  1  0
  4 27  1  0
  8 28  1  0
  8 29  1  0
  9 30  1  0
  9 31  1  0
 10 32  1  0
 10 33  1  0
 11 34  1  1
 13 35  1  0
 13 36  1  0
 15 37  1  0
 16 38  1  0
 18 39  1  0
 21 40  1  0
 22 41  1  0
M  END
>  <smiles>  (95) 
O=C(NCC(=O)N1CCCC(F)C1)c1ccc2cc(Cl)ccc2n1

>  <score_type>  (95) 
oracle

>  <origin>  (95) 
autodockgpu

>  <m_score__min__energy>  (95) 
-7.4400000000000004

>  <m_primary>  (95) 
energy

>  <rmsd>  (95) 
3.1182621915452007

>  <m_score__min__rmsd>  (95) 
3.1182621915452007

>  <meeko>  (95) 
{"free_energy": -6.98, "intermolecular_energy": -8.18, "internal_energy": -0.92, "cluster_size": 23, "cluster_id": 1, "rank_in_cluster": 17}

>  <energy>  (95) 
-6.78

>  <cluster_rmsd>  (95) 
0.83

>  <cluster>  (95) 
3

$$$$

     RDKit          3D

 41 43  0  0  0  0  0  0  0  0999 V2000
  139.8420   74.2860  222.3000 O   0  0  0  0  0  0  0  0  0  0  0  0
  140.1870   73.1450  221.9490 C   0  0  0  0  0  0  0  0  0  0  0  0
  140.6020   72.8470  220.6420 N   0  0  0  0  0  0  0  0  0  0  0  0
  140.6560   73.8670  219.6050 C   0  0  0  0  0  0  0  0  0  0  0  0
  141.9180   74.6450  219.6840 C   0  0  0  0  0  0  0  0  0  0  0  0
  141.8640   75.8930  219.8360 O   0  0  0  0  0  0  0  0  0  0  0  0
  143.1350   73.9180  219.5820 N   0  0  0  0  0  0  0  0  0  0  0  0
  143.3200   72.8020  218.6740 C   0  0  0  0  0  0  0  0  0  0  0  0
  143.6600   71.5310  219.4320 C   0  0  0  0  0  0  0  0  0  0  0  0
  144.1310   71.8710  220.8300 C   0  0  0  0  0  0  0  0  0  0  0  0
  145.0770   73.0570  220.6720 C   0  0  1  0  0  0  0  0  0  0  0  0
  145.8820   72.7720  219.5750 F   0  0  0  0  0  0  0  0  0  0  0  0
  144.2580   74.3010  220.4230 C   0  0  0  0  0  0  0  0  0  0  0  0
  140.1550   72.0620  222.9540 C   0  0  0  0  0  0  0  0  0  0  0  0
  139.6530   70.8120  222.6330 C   0  0  0  0  0  0  0  0  0  0  0  0
  139.6250   69.8020  223.5720 C   0  0  0  0  0  0  0  0  0  0  0  0
  140.1040   70.0430  224.8480 C   0  0  0  0  0  0  0  0  0  0  0  0
  140.1170   69.1060  225.8420 C   0  0  0  0  0  0  0  0  0  0  0  0
  140.6190   69.4400  227.0970 C   0  0  0  0  0  0  0  0  0  0  0  0
  140.6470   68.2540  228.3900 Cl  0  0  0  0  0  0  0  0  0  0  0  0
  141.1060   70.6910  227.3690 C   0  0  0  0  0  0  0  0  0  0  0  0
  141.0920   71.6270  226.3660 C   0  0  0  0  0  0  0  0  0  0  0  0
  140.5900   71.2910  225.1180 C   0  0  0  0  0  0  0  0  0  0  0  0
  140.6050   72.2550  224.1860 N   0  0  0  0  0  0  0  0  0  0  0  0
  140.8780   71.8590  220.4190 H   0  0  0  0  0  0  0  0  0  0  0  0
  140.5948   73.3812  218.6200 H   0  0  0  0  0  0  0  0  0  0  0  0
  139.8114   74.5567  219.7498 H   0  0  0  0  0  0  0  0  0  0  0  0
  142.3917   72.6438  218.1054 H   0  0  0  0  0  0  0  0  0  0  0  0
  144.1534   73.0378  217.9958 H   0  0  0  0  0  0  0  0  0  0  0  0
  142.7655   70.8938  219.4941 H   0  0  0  0  0  0  0  0  0  0  0  0
  144.4623   70.9979  218.9008 H   0  0  0  0  0  0  0  0  0  0  0  0
  143.2764   72.1446  221.4663 H   0  0  0  0  0  0  0  0  0  0  0  0
  144.6301   71.0156  221.3087 H   0  0  0  0  0  0  0  0  0  0  0  0
  145.6921   73.2244  221.5684 H   0  0  0  0  0  0  0  0  0  0  0  0
  143.8921   74.7081  221.3772 H   0  0  0  0  0  0  0  0  0  0  0  0
  144.8656   75.0757  219.9325 H   0  0  0  0  0  0  0  0  0  0  0  0
  139.2725   70.6225  221.6184 H   0  0  0  0  0  0  0  0  0  0  0  0
  139.2247   68.8119  223.3086 H   0  0  0  0  0  0  0  0  0  0  0  0
  139.7329   68.0929  225.6519 H   0  0  0  0  0  0  0  0  0  0  0  0
  141.4984   70.9389  228.3663 H   0  0  0  0  0  0  0  0  0  0  0  0
  141.4776   72.6404  226.5513 H   0  0  0  0  0  0  0  0  0  0  0  0
  1  2  2  0
  2  3  1  0
  3  4  1  0
  4  5  1  0
  5  6  2  0
  5  7  1  0
  7  8  1  0
  8  9  1  0
  9 10  1  0
 10 11  1  0
 11 12  1  0
 11 13  1  0
  2 14  1  0
 14 15  2  0
 15 16  1  0
 16 17  2  0
 17 18  1  0
 18 19  2  0
 19 20  1  0
 19 21  1  0
 21 22  2  0
 22 23  1  0
 23 24  2  0
 13  7  1  0
 24 14  1  0
 23 17  1  0
  3 25  1  0
  4 26  1  0
  4 27  1  0
  8 28  1  0
  8 29  1  0
  9 30  1  0
  9 31  1  0
 10 32  1  0
 10 33  1  0
 11 34  1  1
 13 35  1  0
 13 36  1  0
 15 37  1  0
 16 38  1  0
 18 39  1  0
 21 40  1  0
 22 41  1  0
M  END
>  <smiles>  (96) 
O=C(NCC(=O)N1CCCC(F)C1)c1ccc2cc(Cl)ccc2n1

>  <score_type>  (96) 
oracle

>  <origin>  (96) 
autodockgpu

>  <m_score__min__energy>  (96) 
-7.4400000000000004

>  <m_primary>  (96) 
energy

>  <rmsd>  (96) 
3.8620859058675476

>  <m_score__min__rmsd>  (96) 
3.8620859058675476

>  <meeko>  (96) 
{"free_energy": -6.5, "intermolecular_energy": -7.7, "internal_energy": -1.1, "cluster_size": 4, "cluster_id": 4, "rank_in_cluster": 4}

>  <energy>  (96) 
-6.73

>  <cluster_rmsd>  (96) 
0.83

>  <cluster>  (96) 
3

$$$$

     RDKit          3D

 41 43  0  0  0  0  0  0  0  0999 V2000
  140.9290   71.4070  221.3330 O   0  0  0  0  0  0  0  0  0  0  0  0
  140.6820   72.4080  222.0260 C   0  0  0  0  0  0  0  0  0  0  0  0
  140.0570   72.3260  223.2810 N   0  0  0  0  0  0  0  0  0  0  0  0
  139.6570   71.0500  223.8540 C   0  0  0  0  0  0  0  0  0  0  0  0
  140.1050   70.9320  225.2650 C   0  0  0  0  0  0  0  0  0  0  0  0
  140.7620   71.8710  225.7830 O   0  0  0  0  0  0  0  0  0  0  0  0
  139.7590   69.7400  225.9570 N   0  0  0  0  0  0  0  0  0  0  0  0
  139.5940   69.6770  227.3980 C   0  0  0  0  0  0  0  0  0  0  0  0
  140.5720   68.6950  228.0170 C   0  0  0  0  0  0  0  0  0  0  0  0
  141.1170   67.7650  226.9540 C   0  0  0  0  0  0  0  0  0  0  0  0
  139.9180   67.3620  226.1020 C   0  0  1  0  0  0  0  0  0  0  0  0
  138.8820   67.0890  226.9880 F   0  0  0  0  0  0  0  0  0  0  0  0
  139.5550   68.5170  225.1990 C   0  0  0  0  0  0  0  0  0  0  0  0
  141.0630   73.7360  221.5030 C   0  0  0  0  0  0  0  0  0  0  0  0
  141.9490   73.8540  220.4460 C   0  0  0  0  0  0  0  0  0  0  0  0
  142.3030   75.0940  219.9580 C   0  0  0  0  0  0  0  0  0  0  0  0
  141.7670   76.2330  220.5340 C   0  0  0  0  0  0  0  0  0  0  0  0
  142.0590   77.5020  220.1190 C   0  0  0  0  0  0  0  0  0  0  0  0
  141.4690   78.5880  220.7610 C   0  0  0  0  0  0  0  0  0  0  0  0
  141.8280   80.2270  220.2470 Cl  0  0  0  0  0  0  0  0  0  0  0  0
  140.5980   78.4230  221.8040 C   0  0  0  0  0  0  0  0  0  0  0  0
  140.3080   77.1470  222.2150 C   0  0  0  0  0  0  0  0  0  0  0  0
  140.8970   76.0670  221.5750 C   0  0  0  0  0  0  0  0  0  0  0  0
  140.5700   74.8490  222.0290 N   0  0  0  0  0  0  0  0  0  0  0  0
  139.8800   73.2160  223.8090 H   0  0  0  0  0  0  0  0  0  0  0  0
  138.5607   70.9679  223.8174 H   0  0  0  0  0  0  0  0  0  0  0  0
  140.1255   70.2436  223.2707 H   0  0  0  0  0  0  0  0  0  0  0  0
  139.7697   70.6759  227.8238 H   0  0  0  0  0  0  0  0  0  0  0  0
  138.5711   69.3376  227.6183 H   0  0  0  0  0  0  0  0  0  0  0  0
  141.4034   69.2499  228.4762 H   0  0  0  0  0  0  0  0  0  0  0  0
  140.0508   68.1013  228.7825 H   0  0  0  0  0  0  0  0  0  0  0  0
  141.8672   68.2837  226.3390 H   0  0  0  0  0  0  0  0  0  0  0  0
  141.6122   66.8885  227.3973 H   0  0  0  0  0  0  0  0  0  0  0  0
  140.1280   66.4850  225.4721 H   0  0  0  0  0  0  0  0  0  0  0  0
  140.1996   68.5148  224.3077 H   0  0  0  0  0  0  0  0  0  0  0  0
  138.5101   68.4361  224.8648 H   0  0  0  0  0  0  0  0  0  0  0  0
  142.3755   72.9482  219.9902 H   0  0  0  0  0  0  0  0  0  0  0  0
  143.0066   75.1777  219.1166 H   0  0  0  0  0  0  0  0  0  0  0  0
  142.7556   77.6646  219.2833 H   0  0  0  0  0  0  0  0  0  0  0  0
  140.1419   79.2923  222.3003 H   0  0  0  0  0  0  0  0  0  0  0  0
  139.6107   76.9810  223.0493 H   0  0  0  0  0  0  0  0  0  0  0  0
  1  2  2  0
  2  3  1  0
  3  4  1  0
  4  5  1  0
  5  6  2  0
  5  7  1  0
  7  8  1  0
  8  9  1  0
  9 10  1  0
 10 11  1  0
 11 12  1  0
 11 13  1  0
  2 14  1  0
 14 15  2  0
 15 16  1  0
 16 17  2  0
 17 18  1  0
 18 19  2  0
 19 20  1  0
 19 21  1  0
 21 22  2  0
 22 23  1  0
 23 24  2  0
 13  7  1  0
 24 14  1  0
 23 17  1  0
  3 25  1  0
  4 26  1  0
  4 27  1  0
  8 28  1  0
  8 29  1  0
  9 30  1  0
  9 31  1  0
 10 32  1  0
 10 33  1  0
 11 34  1  6
 13 35  1  0
 13 36  1  0
 15 37  1  0
 16 38  1  0
 18 39  1  0
 21 40  1  0
 22 41  1  0
M  END
>  <smiles>  (97) 
O=C(NCC(=O)N1CCCC(F)C1)c1ccc2cc(Cl)ccc2n1

>  <score_type>  (97) 
oracle

>  <origin>  (97) 
autodockgpu

>  <m_score__min__energy>  (97) 
-7.4400000000000004

>  <m_primary>  (97) 
energy

>  <rmsd>  (97) 
8.80545622531423

>  <m_score__min__rmsd>  (97) 
8.80545622531423

>  <meeko>  (97) 
{"free_energy": -7.2, "intermolecular_energy": -8.39, "internal_energy": -1.24, "cluster_size": 18, "cluster_id": 2, "rank_in_cluster": 2}

>  <energy>  (97) 
-6.92

>  <cluster_rmsd>  (97) 
0.0

>  <cluster>  (97) 
4

$$$$

     RDKit          3D

 41 43  0  0  0  0  0  0  0  0999 V2000
  141.3230   71.4760  221.6620 O   0  0  0  0  0  0  0  0  0  0  0  0
  140.7390   72.4850  222.0930 C   0  0  0  0  0  0  0  0  0  0  0  0
  139.7580   72.4230  223.0940 N   0  0  0  0  0  0  0  0  0  0  0  0
  139.3600   71.1600  223.6990 C   0  0  0  0  0  0  0  0  0  0  0  0
  140.0980   70.9160  224.9640 C   0  0  0  0  0  0  0  0  0  0  0  0
  140.9900   71.7270  225.3230 O   0  0  0  0  0  0  0  0  0  0  0  0
  139.7440   69.7570  225.7070 N   0  0  0  0  0  0  0  0  0  0  0  0
  139.5850   69.7560  227.1500 C   0  0  0  0  0  0  0  0  0  0  0  0
  140.5570   68.7930  227.8060 C   0  0  0  0  0  0  0  0  0  0  0  0
  141.0910   67.8150  226.7810 C   0  0  0  0  0  0  0  0  0  0  0  0
  139.8860   67.3860  225.9500 C   0  0  1  0  0  0  0  0  0  0  0  0
  138.8500   67.1580  226.8500 F   0  0  0  0  0  0  0  0  0  0  0  0
  139.5290   68.5050  225.0010 C   0  0  0  0  0  0  0  0  0  0  0  0
  141.0960   73.8000  221.5220 C   0  0  0  0  0  0  0  0  0  0  0  0
  141.9320   73.8930  220.4230 C   0  0  0  0  0  0  0  0  0  0  0  0
  142.2640   75.1210  219.8910 C   0  0  0  0  0  0  0  0  0  0  0  0
  141.7550   76.2730  220.4640 C   0  0  0  0  0  0  0  0  0  0  0  0
  142.0270   77.5320  220.0080 C   0  0  0  0  0  0  0  0  0  0  0  0
  141.4680   78.6340  220.6510 C   0  0  0  0  0  0  0  0  0  0  0  0
  141.8030   80.2600  220.0830 Cl  0  0  0  0  0  0  0  0  0  0  0  0
  140.6450   78.4940  221.7360 C   0  0  0  0  0  0  0  0  0  0  0  0
  140.3740   77.2270  222.1890 C   0  0  0  0  0  0  0  0  0  0  0  0
  140.9340   76.1330  221.5480 C   0  0  0  0  0  0  0  0  0  0  0  0
  140.6280   74.9260  222.0440 N   0  0  0  0  0  0  0  0  0  0  0  0
  139.3070   73.3180  223.4070 H   0  0  0  0  0  0  0  0  0  0  0  0
  138.2813   71.1883  223.9124 H   0  0  0  0  0  0  0  0  0  0  0  0
  139.5945   70.3472  222.9959 H   0  0  0  0  0  0  0  0  0  0  0  0
  139.7709   70.7704  227.5326 H   0  0  0  0  0  0  0  0  0  0  0  0
  138.5603   69.4347  227.3884 H   0  0  0  0  0  0  0  0  0  0  0  0
  141.3944   69.3598  228.2391 H   0  0  0  0  0  0  0  0  0  0  0  0
  140.0337   68.2359  228.5971 H   0  0  0  0  0  0  0  0  0  0  0  0
  141.8431   68.3016  226.1426 H   0  0  0  0  0  0  0  0  0  0  0  0
  141.5807   66.9539  227.2592 H   0  0  0  0  0  0  0  0  0  0  0  0
  140.0873   66.4819  225.3567 H   0  0  0  0  0  0  0  0  0  0  0  0
  140.1711   68.4610  224.1090 H   0  0  0  0  0  0  0  0  0  0  0  0
  138.4826   68.4180  224.6732 H   0  0  0  0  0  0  0  0  0  0  0  0
  142.3364   72.9765  219.9686 H   0  0  0  0  0  0  0  0  0  0  0  0
  142.9290   75.1844  219.0170 H   0  0  0  0  0  0  0  0  0  0  0  0
  142.6841   77.6746  219.1374 H   0  0  0  0  0  0  0  0  0  0  0  0
  140.2117   79.3749  222.2323 H   0  0  0  0  0  0  0  0  0  0  0  0
  139.7149   77.0803  223.0574 H   0  0  0  0  0  0  0  0  0  0  0  0
  1  2  2  0
  2  3  1  0
  3  4  1  0
  4  5  1  0
  5  6  2  0
  5  7  1  0
  7  8  1  0
  8  9  1  0
  9 10  1  0
 10 11  1  0
 11 12  1  0
 11 13  1  0
  2 14  1  0
 14 15  2  0
 15 16  1  0
 16 17  2  0
 17 18  1  0
 18 19  2  0
 19 20  1  0
 19 21  1  0
 21 22  2  0
 22 23  1  0
 23 24  2  0
 13  7  1  0
 24 14  1  0
 23 17  1  0
  3 25  1  0
  4 26  1  0
  4 27  1  0
  8 28  1  0
  8 29  1  0
  9 30  1  0
  9 31  1  0
 10 32  1  0
 10 33  1  0
 11 34  1  6
 13 35  1  0
 13 36  1  0
 15 37  1  0
 16 38  1  0
 18 39  1  0
 21 40  1  0
 22 41  1  0
M  END
>  <smiles>  (98) 
O=C(NCC(=O)N1CCCC(F)C1)c1ccc2cc(Cl)ccc2n1

>  <score_type>  (98) 
oracle

>  <origin>  (98) 
autodockgpu

>  <m_score__min__energy>  (98) 
-7.4400000000000004

>  <m_primary>  (98) 
energy

>  <rmsd>  (98) 
8.739537337237987

>  <m_score__min__rmsd>  (98) 
8.739537337237987

>  <meeko>  (98) 
{"free_energy": -7.16, "intermolecular_energy": -8.36, "internal_energy": -1.12, "cluster_size": 18, "cluster_id": 2, "rank_in_cluster": 3}

>  <energy>  (98) 
-6.85

>  <cluster_rmsd>  (98) 
0.15

>  <cluster>  (98) 
4

$$$$

     RDKit          3D

 41 43  0  0  0  0  0  0  0  0999 V2000
  139.9520   69.8390  222.3610 O   0  0  0  0  0  0  0  0  0  0  0  0
  139.6240   70.9440  222.8240 C   0  0  0  0  0  0  0  0  0  0  0  0
  138.7080   71.0830  223.8790 N   0  0  0  0  0  0  0  0  0  0  0  0
  138.0810   69.9280  224.5040 C   0  0  0  0  0  0  0  0  0  0  0  0
  139.0990   68.9550  224.9760 C   0  0  0  0  0  0  0  0  0  0  0  0
  139.1890   67.8360  224.4110 O   0  0  0  0  0  0  0  0  0  0  0  0
  139.9250   69.3580  226.0600 N   0  0  0  0  0  0  0  0  0  0  0  0
  140.6690   68.4210  226.8820 C   0  0  0  0  0  0  0  0  0  0  0  0
  140.2420   68.5120  228.3360 C   0  0  0  0  0  0  0  0  0  0  0  0
  139.5090   69.8150  228.5810 C   0  0  0  0  0  0  0  0  0  0  0  0
  140.3140   70.8860  227.8520 C   0  0  1  0  0  0  0  0  0  0  0  0
  141.6520   70.6260  228.1260 F   0  0  0  0  0  0  0  0  0  0  0  0
  140.0420   70.7730  226.3710 C   0  0  0  0  0  0  0  0  0  0  0  0
  140.2250   72.1590  222.2340 C   0  0  0  0  0  0  0  0  0  0  0  0
  141.3300   72.0730  221.4070 C   0  0  0  0  0  0  0  0  0  0  0  0
  141.8900   73.2070  220.8570 C   0  0  0  0  0  0  0  0  0  0  0  0
  141.3390   74.4450  221.1380 C   0  0  0  0  0  0  0  0  0  0  0  0
  141.8230   75.6220  220.6410 C   0  0  0  0  0  0  0  0  0  0  0  0
  141.2010   76.8210  220.9800 C   0  0  0  0  0  0  0  0  0  0  0  0
  141.8040   78.3450  220.3540 Cl  0  0  0  0  0  0  0  0  0  0  0  0
  140.1080   76.8580  221.8040 C   0  0  0  0  0  0  0  0  0  0  0  0
  139.6250   75.6730  222.2990 C   0  0  0  0  0  0  0  0  0  0  0  0
  140.2470   74.4810  221.9610 C   0  0  0  0  0  0  0  0  0  0  0  0
  139.7240   73.3620  222.4810 N   0  0  0  0  0  0  0  0  0  0  0  0
  138.4790   72.0510  224.2170 H   0  0  0  0  0  0  0  0  0  0  0  0
  137.4819   70.2656  225.3626 H   0  0  0  0  0  0  0  0  0  0  0  0
  137.4434   69.4312  223.7580 H   0  0  0  0  0  0  0  0  0  0  0  0
  140.4867   67.3994  226.5172 H   0  0  0  0  0  0  0  0  0  0  0  0
  141.7384   68.6699  226.8153 H   0  0  0  0  0  0  0  0  0  0  0  0
  139.5760   67.6693  228.5733 H   0  0  0  0  0  0  0  0  0  0  0  0
  141.1350   68.4743  228.9773 H   0  0  0  0  0  0  0  0  0  0  0  0
  138.4873   69.7619  228.1769 H   0  0  0  0  0  0  0  0  0  0  0  0
  139.4207   70.0349  229.6552 H   0  0  0  0  0  0  0  0  0  0  0  0
  140.0456   71.9028  228.1745 H   0  0  0  0  0  0  0  0  0  0  0  0
  139.1055   71.2924  226.1195 H   0  0  0  0  0  0  0  0  0  0  0  0
  140.8542   71.2338  225.7895 H   0  0  0  0  0  0  0  0  0  0  0  0
  141.7675   71.0884  221.1852 H   0  0  0  0  0  0  0  0  0  0  0  0
  142.7684   73.1280  220.1996 H   0  0  0  0  0  0  0  0  0  0  0  0
  142.6996   75.6226  219.9764 H   0  0  0  0  0  0  0  0  0  0  0  0
  139.6291   77.8139  222.0627 H   0  0  0  0  0  0  0  0  0  0  0  0
  138.7471   75.6688  222.9618 H   0  0  0  0  0  0  0  0  0  0  0  0
  1  2  2  0
  2  3  1  0
  3  4  1  0
  4  5  1  0
  5  6  2  0
  5  7  1  0
  7  8  1  0
  8  9  1  0
  9 10  1  0
 10 11  1  0
 11 12  1  0
 11 13  1  0
  2 14  1  0
 14 15  2  0
 15 16  1  0
 16 17  2  0
 17 18  1  0
 18 19  2  0
 19 20  1  0
 19 21  1  0
 21 22  2  0
 22 23  1  0
 23 24  2  0
 13  7  1  0
 24 14  1  0
 23 17  1  0
  3 25  1  0
  4 26  1  0
  4 27  1  0
  8 28  1  0
  8 29  1  0
  9 30  1  0
  9 31  1  0
 10 32  1  0
 10 33  1  0
 11 34  1  1
 13 35  1  0
 13 36  1  0
 15 37  1  0
 16 38  1  0
 18 39  1  0
 21 40  1  0
 22 41  1  0
M  END
>  <smiles>  (99) 
O=C(NCC(=O)N1CCCC(F)C1)c1ccc2cc(Cl)ccc2n1

>  <score_type>  (99) 
oracle

>  <origin>  (99) 
autodockgpu

>  <m_score__min__energy>  (99) 
-7.4400000000000004

>  <m_primary>  (99) 
energy

>  <rmsd>  (99) 
8.40667973159844

>  <m_score__min__rmsd>  (99) 
8.40667973159844

>  <meeko>  (99) 
{"free_energy": -6.82, "intermolecular_energy": -8.02, "internal_energy": -1.08, "cluster_size": 18, "cluster_id": 2, "rank_in_cluster": 8}

>  <energy>  (99) 
-6.59

>  <cluster_rmsd>  (99) 
1.86

>  <cluster>  (99) 
4

$$$$

     RDKit          3D

 41 43  0  0  0  0  0  0  0  0999 V2000
  139.5870   72.2250  220.6870 O   0  0  0  0  0  0  0  0  0  0  0  0
  139.6140   72.6550  221.8520 C   0  0  0  0  0  0  0  0  0  0  0  0
  139.5430   74.0230  222.1580 N   0  0  0  0  0  0  0  0  0  0  0  0
  139.4310   75.0340  221.1170 C   0  0  0  0  0  0  0  0  0  0  0  0
  138.7110   76.2350  221.6110 C   0  0  0  0  0  0  0  0  0  0  0  0
  137.4870   76.3670  221.3570 O   0  0  0  0  0  0  0  0  0  0  0  0
  139.4660   77.1820  222.3570 N   0  0  0  0  0  0  0  0  0  0  0  0
  138.8630   78.2950  223.0680 C   0  0  0  0  0  0  0  0  0  0  0  0
  139.3840   79.6220  222.5470 C   0  0  0  0  0  0  0  0  0  0  0  0
  140.6650   79.4070  221.7690 C   0  0  0  0  0  0  0  0  0  0  0  0
  141.4910   78.4240  222.5930 C   0  0  1  0  0  0  0  0  0  0  0  0
  141.3860   78.8370  223.9160 F   0  0  0  0  0  0  0  0  0  0  0  0
  140.9110   77.0410  222.4190 C   0  0  0  0  0  0  0  0  0  0  0  0
  139.7250   71.6800  222.9580 C   0  0  0  0  0  0  0  0  0  0  0  0
  139.2910   70.3760  222.7990 C   0  0  0  0  0  0  0  0  0  0  0  0
  139.3960   69.4680  223.8310 C   0  0  0  0  0  0  0  0  0  0  0  0
  139.9410   69.8670  225.0390 C   0  0  0  0  0  0  0  0  0  0  0  0
  140.0850   69.0400  226.1170 C   0  0  0  0  0  0  0  0  0  0  0  0
  140.6450   69.5320  227.2930 C   0  0  0  0  0  0  0  0  0  0  0  0
  140.8410   68.4890  228.6910 Cl  0  0  0  0  0  0  0  0  0  0  0  0
  141.0600   70.8320  227.4040 C   0  0  0  0  0  0  0  0  0  0  0  0
  140.9140   71.6580  226.3190 C   0  0  0  0  0  0  0  0  0  0  0  0
  140.3550   71.1650  225.1490 C   0  0  0  0  0  0  0  0  0  0  0  0
  140.2410   72.0270  224.1290 N   0  0  0  0  0  0  0  0  0  0  0  0
  139.5710   74.3110  223.1670 H   0  0  0  0  0  0  0  0  0  0  0  0
  140.4400   75.3285  220.7927 H   0  0  0  0  0  0  0  0  0  0  0  0
  138.8629   74.6079  220.2770 H   0  0  0  0  0  0  0  0  0  0  0  0
  137.7720   78.2592  222.9326 H   0  0  0  0  0  0  0  0  0  0  0  0
  139.1230   78.2113  224.1335 H   0  0  0  0  0  0  0  0  0  0  0  0
  138.6294   80.0759  221.8877 H   0  0  0  0  0  0  0  0  0  0  0  0
  139.5864   80.2891  223.3979 H   0  0  0  0  0  0  0  0  0  0  0  0
  140.4447   78.9852  220.7772 H   0  0  0  0  0  0  0  0  0  0  0  0
  141.2037   80.3522  221.6064 H   0  0  0  0  0  0  0  0  0  0  0  0
  142.5454   78.3972  222.2807 H   0  0  0  0  0  0  0  0  0  0  0  0
  141.2854   76.5904  221.4880 H   0  0  0  0  0  0  0  0  0  0  0  0
  141.2027   76.3888  223.2554 H   0  0  0  0  0  0  0  0  0  0  0  0
  138.8574   70.0603  221.8386 H   0  0  0  0  0  0  0  0  0  0  0  0
  139.0489   68.4331  223.6952 H   0  0  0  0  0  0  0  0  0  0  0  0
  139.7602   67.9908  226.0561 H   0  0  0  0  0  0  0  0  0  0  0  0
  141.4998   71.2049  228.3407 H   0  0  0  0  0  0  0  0  0  0  0  0
  141.2389   72.7074  226.3763 H   0  0  0  0  0  0  0  0  0  0  0  0
  1  2  2  0
  2  3  1  0
  3  4  1  0
  4  5  1  0
  5  6  2  0
  5  7  1  0
  7  8  1  0
  8  9  1  0
  9 10  1  0
 10 11  1  0
 11 12  1  0
 11 13  1  0
  2 14  1  0
 14 15  2  0
 15 16  1  0
 16 17  2  0
 17 18  1  0
 18 19  2  0
 19 20  1  0
 19 21  1  0
 21 22  2  0
 22 23  1  0
 23 24  2  0
 13  7  1  0
 24 14  1  0
 23 17  1  0
  3 25  1  0
  4 26  1  0
  4 27  1  0
  8 28  1  0
  8 29  1  0
  9 30  1  0
  9 31  1  0
 10 32  1  0
 10 33  1  0
 11 34  1  6
 13 35  1  0
 13 36  1  0
 15 37  1  0
 16 38  1  0
 18 39  1  0
 21 40  1  0
 22 41  1  0
M  END
>  <smiles>  (100) 
O=C(NCC(=O)N1CCCC(F)C1)c1ccc2cc(Cl)ccc2n1

>  <score_type>  (100) 
oracle

>  <origin>  (100) 
autodockgpu

>  <m_score__min__energy>  (100) 
-7.4400000000000004

>  <m_primary>  (100) 
energy

>  <rmsd>  (100) 
3.2744805049565793

>  <m_score__min__rmsd>  (100) 
3.2744805049565793

>  <meeko>  (100) 
{"free_energy": -6.84, "intermolecular_energy": -8.03, "internal_energy": -1.0, "cluster_size": 23, "cluster_id": 1, "rank_in_cluster": 20}

>  <energy>  (100) 
-6.5

>  <cluster_rmsd>  (100) 
0.41

>  <cluster>  (100) 
4

$$$$
