
     RDKit          3D

 63 65  0  0  0  0  0  0  0  0999 V2000
  142.5910   77.6810  218.6620 C   0  0  0  0  0  0  0  0  0  0  0  0
  141.8730   78.8730  219.2760 C   0  0  0  0  0  0  0  0  0  0  0  0
  140.7660   78.3380  220.1050 C   0  0  0  0  0  0  0  0  0  0  0  0
  139.6820   78.0910  219.5190 O   0  0  0  0  0  0  0  0  0  0  0  0
  140.9400   78.1170  221.5170 N   0  0  0  0  0  0  0  0  0  0  0  0
  141.3250   79.2480  222.3220 C   0  0  0  0  0  0  0  0  0  0  0  0
  140.4250   80.1900  222.7510 C   0  0  0  0  0  0  0  0  0  0  0  0
  140.8800   81.2490  223.5230 C   0  0  0  0  0  0  0  0  0  0  0  0
  142.2050   81.3950  223.8790 C   0  0  0  0  0  0  0  0  0  0  0  0
  143.0910   80.4390  223.4400 C   0  0  0  0  0  0  0  0  0  0  0  0
  142.6380   79.4000  222.6800 C   0  0  0  0  0  0  0  0  0  0  0  0
  140.7370   76.8090  222.0950 C   0  0  0  0  0  0  0  0  0  0  0  0
  139.3050   76.5880  222.4330 C   0  0  0  0  0  0  0  0  0  0  0  0
  138.6580   75.3980  221.8180 C   0  0  0  0  0  0  0  0  0  0  0  0
  139.4910   74.2090  221.8450 N   0  0  0  0  0  0  0  0  0  0  0  0
  138.8470   72.9850  222.1170 C   0  0  0  0  0  0  0  0  0  0  0  0
  137.5900   73.0350  222.3080 O   0  0  0  0  0  0  0  0  0  0  0  0
  139.4770   71.6560  222.2010 C   0  0  1  0  0  0  0  0  0  0  0  0
  140.8780   71.7910  222.3940 N   0  0  0  0  0  0  0  0  0  0  0  0
  138.7750   70.7230  223.1550 C   0  0  0  0  0  0  0  0  0  0  0  0
  139.4590   70.4720  224.4190 C   0  0  0  0  0  0  0  0  0  0  0  0
  140.0100   71.4510  225.2150 C   0  0  0  0  0  0  0  0  0  0  0  0
  140.6530   71.1830  226.4150 C   0  0  0  0  0  0  0  0  0  0  0  0
  141.2380   72.2700  227.2480 C   0  0  0  0  0  0  0  0  0  0  0  0
  140.7570   69.8910  226.8510 C   0  0  0  0  0  0  0  0  0  0  0  0
  140.2140   68.8960  226.0730 C   0  0  0  0  0  0  0  0  0  0  0  0
  140.3280   67.4750  226.5620 C   0  0  0  0  0  0  0  0  0  0  0  0
  139.5740   69.1670  224.8780 C   0  0  0  0  0  0  0  0  0  0  0  0
  140.9000   74.3430  221.5890 C   0  0  0  0  0  0  0  0  0  0  0  0
  141.3420   75.7290  221.2590 C   0  0  0  0  0  0  0  0  0  0  0  0
  142.9801   77.0350  219.4628 H   0  0  0  0  0  0  0  0  0  0  0  0
  141.8867   77.1095  218.0396 H   0  0  0  0  0  0  0  0  0  0  0  0
  143.4254   78.0364  218.0396 H   0  0  0  0  0  0  0  0  0  0  0  0
  142.5686   79.4501  219.9030 H   0  0  0  0  0  0  0  0  0  0  0  0
  141.4867   79.5421  218.4930 H   0  0  0  0  0  0  0  0  0  0  0  0
  139.3603   80.1071  222.4873 H   0  0  0  0  0  0  0  0  0  0  0  0
  140.1553   82.0026  223.8650 H   0  0  0  0  0  0  0  0  0  0  0  0
  142.5405   82.2449  224.4915 H   0  0  0  0  0  0  0  0  0  0  0  0
  144.1574   80.5114  223.6997 H   0  0  0  0  0  0  0  0  0  0  0  0
  143.3636   78.6473  222.3380 H   0  0  0  0  0  0  0  0  0  0  0  0
  141.2806   76.7646  223.0503 H   0  0  0  0  0  0  0  0  0  0  0  0
  139.2311   76.4824  223.5254 H   0  0  0  0  0  0  0  0  0  0  0  0
  138.7697   77.4571  222.0231 H   0  0  0  0  0  0  0  0  0  0  0  0
  137.7283   75.1847  222.3659 H   0  0  0  0  0  0  0  0  0  0  0  0
  138.4723   75.6399  220.7611 H   0  0  0  0  0  0  0  0  0  0  0  0
  139.3510   71.1429  221.2362 H   0  0  0  0  0  0  0  0  0  0  0  0
  141.4330   70.9510  222.1030 H   0  0  0  0  0  0  0  0  0  0  0  0
  141.2130   72.2410  223.2410 H   0  0  0  0  0  0  0  0  0  0  0  0
  137.7896   71.1545  223.3848 H   0  0  0  0  0  0  0  0  0  0  0  0
  138.7303   69.7508  222.6422 H   0  0  0  0  0  0  0  0  0  0  0  0
  139.9368   72.4972  224.8833 H   0  0  0  0  0  0  0  0  0  0  0  0
  141.1071   72.0268  228.3128 H   0  0  0  0  0  0  0  0  0  0  0  0
  142.3104   72.3674  227.0233 H   0  0  0  0  0  0  0  0  0  0  0  0
  140.7286   73.2187  227.0233 H   0  0  0  0  0  0  0  0  0  0  0  0
  141.2618   69.6541  227.7992 H   0  0  0  0  0  0  0  0  0  0  0  0
  140.3288   67.4647  227.6619 H   0  0  0  0  0  0  0  0  0  0  0  0
  139.4739   66.8897  226.1905 H   0  0  0  0  0  0  0  0  0  0  0  0
  141.2645   67.0334  226.1905 H   0  0  0  0  0  0  0  0  0  0  0  0
  139.1523   68.3415  224.2858 H   0  0  0  0  0  0  0  0  0  0  0  0
  141.4446   74.0136  222.4862 H   0  0  0  0  0  0  0  0  0  0  0  0
  141.1159   73.7276  220.7032 H   0  0  0  0  0  0  0  0  0  0  0  0
  142.4341   75.7756  221.3822 H   0  0  0  0  0  0  0  0  0  0  0  0
  141.0057   75.9179  220.2288 H   0  0  0  0  0  0  0  0  0  0  0  0
  1  2  1  0
  2  3  1  0
  3  4  2  0
  3  5  1  0
  5  6  1  0
  6  7  2  0
  7  8  1  0
  8  9  2  0
  9 10  1  0
 10 11  2  0
  5 12  1  0
 12 13  1  0
 13 14  1  0
 14 15  1  0
 15 16  1  0
 16 17  2  0
 16 18  1  0
 18 19  1  0
 18 20  1  0
 20 21  1  0
 21 22  2  0
 22 23  1  0
 23 24  1  0
 23 25  2  0
 25 26  1  0
 26 27  1  0
 26 28  2  0
 15 29  1  0
 29 30  1  0
 11  6  1  0
 30 12  1  0
 28 21  1  0
  1 31  1  0
  1 32  1  0
  1 33  1  0
  2 34  1  0
  2 35  1  0
  7 36  1  0
  8 37  1  0
  9 38  1  0
 10 39  1  0
 11 40  1  0
 12 41  1  0
 13 42  1  0
 13 43  1  0
 14 44  1  0
 14 45  1  0
 18 46  1  6
 19 47  1  0
 19 48  1  0
 20 49  1  0
 20 50  1  0
 22 51  1  0
 24 52  1  0
 24 53  1  0
 24 54  1  0
 25 55  1  0
 27 56  1  0
 27 57  1  0
 27 58  1  0
 28 59  1  0
 29 60  1  0
 29 61  1  0
 30 62  1  0
 30 63  1  0
M  END
>  <smiles>  (1) 
CCC(=O)N(c1ccccc1)C1CCN(C(=O)[C@@H](N)Cc2cc(C)cc(C)c2)CC1

>  <score_type>  (1) 
oracle

>  <origin>  (1) 
autodockgpu

>  <m_score__min__energy>  (1) 
-8.5899999999999999

>  <m_primary>  (1) 
energy

>  <rmsd>  (1) 
6.718170222395519

>  <m_score__min__rmsd>  (1) 
6.718170222395519

>  <meeko>  (1) 
{"free_energy": -8.05, "intermolecular_energy": -10.43, "internal_energy": -1.42, "cluster_size": 21, "cluster_id": 1, "rank_in_cluster": 7}

>  <energy>  (1) 
-8.59

>  <cluster_rmsd>  (1) 
0.0

>  <cluster>  (1) 
1

$$$$

     RDKit          3D

 63 65  0  0  0  0  0  0  0  0999 V2000
  142.6440   78.5510  217.7240 C   0  0  0  0  0  0  0  0  0  0  0  0
  142.2970   79.7670  218.5690 C   0  0  0  0  0  0  0  0  0  0  0  0
  140.9930   79.4890  219.2200 C   0  0  0  0  0  0  0  0  0  0  0  0
  139.9600   79.8610  218.6100 O   0  0  0  0  0  0  0  0  0  0  0  0
  140.9310   78.8240  220.4960 N   0  0  0  0  0  0  0  0  0  0  0  0
  141.4280   79.5430  221.6420 C   0  0  0  0  0  0  0  0  0  0  0  0
  142.5380   79.1440  222.3410 C   0  0  0  0  0  0  0  0  0  0  0  0
  142.9480   79.8930  223.4340 C   0  0  0  0  0  0  0  0  0  0  0  0
  142.2820   81.0280  223.8490 C   0  0  0  0  0  0  0  0  0  0  0  0
  141.1710   81.4120  223.1350 C   0  0  0  0  0  0  0  0  0  0  0  0
  140.7720   80.6700  222.0610 C   0  0  0  0  0  0  0  0  0  0  0  0
  140.3920   77.4900  220.6120 C   0  0  0  0  0  0  0  0  0  0  0  0
  141.3230   76.4810  220.0400 C   0  0  0  0  0  0  0  0  0  0  0  0
  141.7550   75.3890  220.9520 C   0  0  0  0  0  0  0  0  0  0  0  0
  140.6740   74.8460  221.7560 N   0  0  0  0  0  0  0  0  0  0  0  0
  140.6680   73.4510  221.9580 C   0  0  0  0  0  0  0  0  0  0  0  0
  141.6160   72.7960  221.4210 O   0  0  0  0  0  0  0  0  0  0  0  0
  139.6790   72.6760  222.7280 C   0  0  1  0  0  0  0  0  0  0  0  0
  138.3740   72.8980  222.2110 N   0  0  0  0  0  0  0  0  0  0  0  0
  140.0690   71.2320  222.9150 C   0  0  0  0  0  0  0  0  0  0  0  0
  140.2100   70.7840  224.2970 C   0  0  0  0  0  0  0  0  0  0  0  0
  139.8990   69.5190  224.7410 C   0  0  0  0  0  0  0  0  0  0  0  0
  140.0460   69.1190  226.0610 C   0  0  0  0  0  0  0  0  0  0  0  0
  139.6990   67.7400  226.5040 C   0  0  0  0  0  0  0  0  0  0  0  0
  140.5210   70.0070  226.9870 C   0  0  0  0  0  0  0  0  0  0  0  0
  140.8380   71.2770  226.5660 C   0  0  0  0  0  0  0  0  0  0  0  0
  141.3650   72.2490  227.5900 C   0  0  0  0  0  0  0  0  0  0  0  0
  140.6900   71.6720  225.2490 C   0  0  0  0  0  0  0  0  0  0  0  0
  139.6940   75.7480  222.2990 C   0  0  0  0  0  0  0  0  0  0  0  0
  139.9460   77.1890  222.0070 C   0  0  0  0  0  0  0  0  0  0  0  0
  142.8858   77.7038  218.3826 H   0  0  0  0  0  0  0  0  0  0  0  0
  141.7849   78.2884  217.0891 H   0  0  0  0  0  0  0  0  0  0  0  0
  143.5123   78.7813  217.0891 H   0  0  0  0  0  0  0  0  0  0  0  0
  143.0724   79.9298  219.3320 H   0  0  0  0  0  0  0  0  0  0  0  0
  142.2385   80.6721  217.9466 H   0  0  0  0  0  0  0  0  0  0  0  0
  143.0945   78.2442  222.0398 H   0  0  0  0  0  0  0  0  0  0  0  0
  143.8391   79.5695  223.9919 H   0  0  0  0  0  0  0  0  0  0  0  0
  142.6272   81.6049  224.7196 H   0  0  0  0  0  0  0  0  0  0  0  0
  140.6080   82.3107  223.4273 H   0  0  0  0  0  0  0  0  0  0  0  0
  139.8797   80.9930  221.5047 H   0  0  0  0  0  0  0  0  0  0  0  0
  139.4784   77.4321  220.0021 H   0  0  0  0  0  0  0  0  0  0  0  0
  140.8247   76.0178  219.1756 H   0  0  0  0  0  0  0  0  0  0  0  0
  142.2401   77.0360  219.7932 H   0  0  0  0  0  0  0  0  0  0  0  0
  142.1803   74.5760  220.3452 H   0  0  0  0  0  0  0  0  0  0  0  0
  142.4914   75.8191  221.6468 H   0  0  0  0  0  0  0  0  0  0  0  0
  139.6633   73.0503  223.7623 H   0  0  0  0  0  0  0  0  0  0  0  0
  138.3450   73.0480  221.1740 H   0  0  0  0  0  0  0  0  0  0  0  0
  137.7340   73.4840  222.7380 H   0  0  0  0  0  0  0  0  0  0  0  0
  139.2986   70.6100  222.4359 H   0  0  0  0  0  0  0  0  0  0  0  0
  141.0684   71.1329  222.4663 H   0  0  0  0  0  0  0  0  0  0  0  0
  139.5149   68.7891  224.0132 H   0  0  0  0  0  0  0  0  0  0  0  0
  139.6889   67.6996  227.6032 H   0  0  0  0  0  0  0  0  0  0  0  0
  138.7049   67.4701  226.1180 H   0  0  0  0  0  0  0  0  0  0  0  0
  140.4469   67.0318  226.1180 H   0  0  0  0  0  0  0  0  0  0  0  0
  140.6459   69.7130  228.0396 H   0  0  0  0  0  0  0  0  0  0  0  0
  141.1573   71.8660  228.6000 H   0  0  0  0  0  0  0  0  0  0  0  0
  142.4507   72.3672  227.4587 H   0  0  0  0  0  0  0  0  0  0  0  0
  140.8716   73.2233  227.4587 H   0  0  0  0  0  0  0  0  0  0  0  0
  140.9548   72.6980  224.9539 H   0  0  0  0  0  0  0  0  0  0  0  0
  138.7124   75.4800  221.8811 H   0  0  0  0  0  0  0  0  0  0  0  0
  139.7423   75.6388  223.3925 H   0  0  0  0  0  0  0  0  0  0  0  0
  139.0130   77.7414  222.1921 H   0  0  0  0  0  0  0  0  0  0  0  0
  140.7752   77.4918  222.6633 H   0  0  0  0  0  0  0  0  0  0  0  0
  1  2  1  0
  2  3  1  0
  3  4  2  0
  3  5  1  0
  5  6  1  0
  6  7  2  0
  7  8  1  0
  8  9  2  0
  9 10  1  0
 10 11  2  0
  5 12  1  0
 12 13  1  0
 13 14  1  0
 14 15  1  0
 15 16  1  0
 16 17  2  0
 16 18  1  0
 18 19  1  0
 18 20  1  0
 20 21  1  0
 21 22  2  0
 22 23  1  0
 23 24  1  0
 23 25  2  0
 25 26  1  0
 26 27  1  0
 26 28  2  0
 15 29  1  0
 29 30  1  0
 11  6  1  0
 30 12  1  0
 28 21  1  0
  1 31  1  0
  1 32  1  0
  1 33  1  0
  2 34  1  0
  2 35  1  0
  7 36  1  0
  8 37  1  0
  9 38  1  0
 10 39  1  0
 11 40  1  0
 12 41  1  0
 13 42  1  0
 13 43  1  0
 14 44  1  0
 14 45  1  0
 18 46  1  1
 19 47  1  0
 19 48  1  0
 20 49  1  0
 20 50  1  0
 22 51  1  0
 24 52  1  0
 24 53  1  0
 24 54  1  0
 25 55  1  0
 27 56  1  0
 27 57  1  0
 27 58  1  0
 28 59  1  0
 29 60  1  0
 29 61  1  0
 30 62  1  0
 30 63  1  0
M  END
>  <smiles>  (2) 
CCC(=O)N(c1ccccc1)C1CCN(C(=O)[C@@H](N)Cc2cc(C)cc(C)c2)CC1

>  <score_type>  (2) 
oracle

>  <origin>  (2) 
autodockgpu

>  <m_score__min__energy>  (2) 
-8.5899999999999999

>  <m_primary>  (2) 
energy

>  <rmsd>  (2) 
6.204967352319233

>  <m_score__min__rmsd>  (2) 
6.204967352319233

>  <meeko>  (2) 
{"free_energy": -8.35, "intermolecular_energy": -10.74, "internal_energy": -1.62, "cluster_size": 21, "cluster_id": 1, "rank_in_cluster": 3}

>  <energy>  (2) 
-8.43

>  <cluster_rmsd>  (2) 
0.64

>  <cluster>  (2) 
1

$$$$

     RDKit          3D

 63 65  0  0  0  0  0  0  0  0999 V2000
  137.8980   82.4970  221.2430 C   0  0  0  0  0  0  0  0  0  0  0  0
  137.6490   83.4070  222.4350 C   0  0  0  0  0  0  0  0  0  0  0  0
  136.4670   82.8720  223.1550 C   0  0  0  0  0  0  0  0  0  0  0  0
  135.3380   83.1390  222.6730 O   0  0  0  0  0  0  0  0  0  0  0  0
  136.6230   82.0860  224.3500 N   0  0  0  0  0  0  0  0  0  0  0  0
  136.2940   82.7140  225.6050 C   0  0  0  0  0  0  0  0  0  0  0  0
  136.0580   81.9990  226.7510 C   0  0  0  0  0  0  0  0  0  0  0  0
  135.7480   82.6840  227.9160 C   0  0  0  0  0  0  0  0  0  0  0  0
  135.6660   84.0600  227.9710 C   0  0  0  0  0  0  0  0  0  0  0  0
  135.9070   84.7590  226.8110 C   0  0  0  0  0  0  0  0  0  0  0  0
  136.2120   84.0800  225.6670 C   0  0  0  0  0  0  0  0  0  0  0  0
  137.0910   80.7210  224.2860 C   0  0  0  0  0  0  0  0  0  0  0  0
  136.3160   79.9320  223.2920 C   0  0  0  0  0  0  0  0  0  0  0  0
  137.1010   79.2770  222.2120 C   0  0  0  0  0  0  0  0  0  0  0  0
  138.3210   78.6460  222.6860 N   0  0  0  0  0  0  0  0  0  0  0  0
  138.6640   77.4070  222.1080 C   0  0  0  0  0  0  0  0  0  0  0  0
  137.8740   76.9580  221.2180 O   0  0  0  0  0  0  0  0  0  0  0  0
  139.8420   76.5810  222.4270 C   0  0  1  0  0  0  0  0  0  0  0  0
  139.5180   75.2030  222.3130 N   0  0  0  0  0  0  0  0  0  0  0  0
  141.0900   77.0200  221.7050 C   0  0  0  0  0  0  0  0  0  0  0  0
  141.3840   78.4490  221.7510 C   0  0  0  0  0  0  0  0  0  0  0  0
  141.0810   79.3390  220.7440 C   0  0  0  0  0  0  0  0  0  0  0  0
  141.3690   80.6940  220.8170 C   0  0  0  0  0  0  0  0  0  0  0  0
  141.0270   81.6260  219.7060 C   0  0  0  0  0  0  0  0  0  0  0  0
  141.9820   81.1960  221.9320 C   0  0  0  0  0  0  0  0  0  0  0  0
  142.2930   80.3260  222.9500 C   0  0  0  0  0  0  0  0  0  0  0  0
  142.9640   80.8860  224.1770 C   0  0  0  0  0  0  0  0  0  0  0  0
  142.0050   78.9750  222.8740 C   0  0  0  0  0  0  0  0  0  0  0  0
  139.1000   79.3150  223.6930 C   0  0  0  0  0  0  0  0  0  0  0  0
  138.5730   80.6480  224.1040 C   0  0  0  0  0  0  0  0  0  0  0  0
  138.1727   81.4931  221.5991 H   0  0  0  0  0  0  0  0  0  0  0  0
  136.9844   82.4327  220.6337 H   0  0  0  0  0  0  0  0  0  0  0  0
  138.7170   82.9067  220.6337 H   0  0  0  0  0  0  0  0  0  0  0  0
  138.5263   83.4076  223.0986 H   0  0  0  0  0  0  0  0  0  0  0  0
  137.4712   84.4416  222.1065 H   0  0  0  0  0  0  0  0  0  0  0  0
  136.1137   80.9004  226.7462 H   0  0  0  0  0  0  0  0  0  0  0  0
  135.5599   82.1070  228.8334 H   0  0  0  0  0  0  0  0  0  0  0  0
  135.4170   84.5793  228.9082 H   0  0  0  0  0  0  0  0  0  0  0  0
  135.8542   85.8577  226.8055 H   0  0  0  0  0  0  0  0  0  0  0  0
  136.4012   84.6577  224.7502 H   0  0  0  0  0  0  0  0  0  0  0  0
  136.9004   80.2442  225.2588 H   0  0  0  0  0  0  0  0  0  0  0  0
  135.7753   79.1446  223.8376 H   0  0  0  0  0  0  0  0  0  0  0  0
  135.6675   80.6597  222.7822 H   0  0  0  0  0  0  0  0  0  0  0  0
  136.4713   78.5080  221.7407 H   0  0  0  0  0  0  0  0  0  0  0  0
  137.3972   80.0642  221.5031 H   0  0  0  0  0  0  0  0  0  0  0  0
  140.1129   76.7420  223.4809 H   0  0  0  0  0  0  0  0  0  0  0  0
  138.7440   75.0000  221.6380 H   0  0  0  0  0  0  0  0  0  0  0  0
  139.5010   74.6350  223.1550 H   0  0  0  0  0  0  0  0  0  0  0  0
  141.9424   76.4861  222.1503 H   0  0  0  0  0  0  0  0  0  0  0  0
  140.9181   76.7855  220.6441 H   0  0  0  0  0  0  0  0  0  0  0  0
  140.5869   78.9568  219.8386 H   0  0  0  0  0  0  0  0  0  0  0  0
  140.6764   82.5813  220.1236 H   0  0  0  0  0  0  0  0  0  0  0  0
  141.9192   81.8018  219.0871 H   0  0  0  0  0  0  0  0  0  0  0  0
  140.2329   81.1830  219.0871 H   0  0  0  0  0  0  0  0  0  0  0  0
  142.2197   82.2670  222.0120 H   0  0  0  0  0  0  0  0  0  0  0  0
  142.4788   80.4811  225.0773 H   0  0  0  0  0  0  0  0  0  0  0  0
  144.0271   80.6034  224.1748 H   0  0  0  0  0  0  0  0  0  0  0  0
  142.8761   81.9825  224.1748 H   0  0  0  0  0  0  0  0  0  0  0  0
  142.2707   78.3126  223.7110 H   0  0  0  0  0  0  0  0  0  0  0  0
  139.1347   78.6706  224.5838 H   0  0  0  0  0  0  0  0  0  0  0  0
  140.0910   79.4952  223.2508 H   0  0  0  0  0  0  0  0  0  0  0  0
  139.0464   80.9209  225.0587 H   0  0  0  0  0  0  0  0  0  0  0  0
  138.8124   81.3367  223.2804 H   0  0  0  0  0  0  0  0  0  0  0  0
  1  2  1  0
  2  3  1  0
  3  4  2  0
  3  5  1  0
  5  6  1  0
  6  7  2  0
  7  8  1  0
  8  9  2  0
  9 10  1  0
 10 11  2  0
  5 12  1  0
 12 13  1  0
 13 14  1  0
 14 15  1  0
 15 16  1  0
 16 17  2  0
 16 18  1  0
 18 19  1  0
 18 20  1  0
 20 21  1  0
 21 22  2  0
 22 23  1  0
 23 24  1  0
 23 25  2  0
 25 26  1  0
 26 27  1  0
 26 28  2  0
 15 29  1  0
 29 30  1  0
 11  6  1  0
 30 12  1  0
 28 21  1  0
  1 31  1  0
  1 32  1  0
  1 33  1  0
  2 34  1  0
  2 35  1  0
  7 36  1  0
  8 37  1  0
  9 38  1  0
 10 39  1  0
 11 40  1  0
 12 41  1  0
 13 42  1  0
 13 43  1  0
 14 44  1  0
 14 45  1  0
 18 46  1  1
 19 47  1  0
 19 48  1  0
 20 49  1  0
 20 50  1  0
 22 51  1  0
 24 52  1  0
 24 53  1  0
 24 54  1  0
 25 55  1  0
 27 56  1  0
 27 57  1  0
 27 58  1  0
 28 59  1  0
 29 60  1  0
 29 61  1  0
 30 62  1  0
 30 63  1  0
M  END
>  <smiles>  (3) 
CCC(=O)N(c1ccccc1)C1CCN(C(=O)[C@@H](N)Cc2cc(C)cc(C)c2)CC1

>  <score_type>  (3) 
oracle

>  <origin>  (3) 
autodockgpu

>  <m_score__min__energy>  (3) 
-8.5899999999999999

>  <m_primary>  (3) 
energy

>  <rmsd>  (3) 
4.492432546606378

>  <m_score__min__rmsd>  (3) 
4.492432546606378

>  <meeko>  (3) 
{"free_energy": -6.38, "intermolecular_energy": -8.77, "internal_energy": -3.02, "cluster_size": 17, "cluster_id": 5, "rank_in_cluster": 15}

>  <energy>  (3) 
-8.35

>  <cluster_rmsd>  (3) 
0.72

>  <cluster>  (3) 
1

$$$$

     RDKit          3D

 63 65  0  0  0  0  0  0  0  0999 V2000
  142.9690   76.6230  218.8760 C   0  0  0  0  0  0  0  0  0  0  0  0
  142.1920   77.9220  219.0320 C   0  0  0  0  0  0  0  0  0  0  0  0
  141.0070   77.6240  219.8720 C   0  0  0  0  0  0  0  0  0  0  0  0
  139.9140   77.4520  219.2760 O   0  0  0  0  0  0  0  0  0  0  0  0
  141.1190   77.5420  221.3050 N   0  0  0  0  0  0  0  0  0  0  0  0
  141.5330   78.7300  222.0070 C   0  0  0  0  0  0  0  0  0  0  0  0
  141.7150   79.9350  221.3780 C   0  0  0  0  0  0  0  0  0  0  0  0
  142.1160   81.0300  222.1290 C   0  0  0  0  0  0  0  0  0  0  0  0
  142.3390   80.9580  223.4890 C   0  0  0  0  0  0  0  0  0  0  0  0
  142.1500   79.7410  224.1010 C   0  0  0  0  0  0  0  0  0  0  0  0
  141.7560   78.6670  223.3570 C   0  0  0  0  0  0  0  0  0  0  0  0
  140.8260   76.3120  222.0040 C   0  0  0  0  0  0  0  0  0  0  0  0
  139.3760   76.2040  222.3170 C   0  0  0  0  0  0  0  0  0  0  0  0
  138.6780   74.9960  221.8030 C   0  0  0  0  0  0  0  0  0  0  0  0
  139.4400   73.7710  221.9740 N   0  0  0  0  0  0  0  0  0  0  0  0
  138.7200   72.6180  222.3460 C   0  0  0  0  0  0  0  0  0  0  0  0
  137.4650   72.7560  222.4920 O   0  0  0  0  0  0  0  0  0  0  0  0
  139.2720   71.2720  222.5820 C   0  0  1  0  0  0  0  0  0  0  0  0
  139.3030   70.5370  221.3660 N   0  0  0  0  0  0  0  0  0  0  0  0
  140.5570   71.2850  223.3690 C   0  0  0  0  0  0  0  0  0  0  0  0
  140.4680   70.7980  224.7420 C   0  0  0  0  0  0  0  0  0  0  0  0
  140.7920   71.5410  225.8540 C   0  0  0  0  0  0  0  0  0  0  0  0
  140.6930   71.0540  227.1490 C   0  0  0  0  0  0  0  0  0  0  0  0
  141.0540   71.8890  228.3290 C   0  0  0  0  0  0  0  0  0  0  0  0
  140.2550   69.7750  227.3580 C   0  0  0  0  0  0  0  0  0  0  0  0
  139.9260   69.0140  226.2610 C   0  0  0  0  0  0  0  0  0  0  0  0
  139.4390   67.6070  226.4990 C   0  0  0  0  0  0  0  0  0  0  0  0
  140.0250   69.5040  224.9720 C   0  0  0  0  0  0  0  0  0  0  0  0
  140.8610   73.8030  221.7500 C   0  0  0  0  0  0  0  0  0  0  0  0
  141.3900   75.1220  221.2980 C   0  0  0  0  0  0  0  0  0  0  0  0
  143.2108   76.2188  219.8700 H   0  0  0  0  0  0  0  0  0  0  0  0
  142.3582   75.8946  218.3226 H   0  0  0  0  0  0  0  0  0  0  0  0
  143.8997   76.8166  218.3226 H   0  0  0  0  0  0  0  0  0  0  0  0
  142.8202   78.6808  219.5216 H   0  0  0  0  0  0  0  0  0  0  0  0
  141.8872   78.3157  218.0511 H   0  0  0  0  0  0  0  0  0  0  0  0
  141.5457   80.0315  220.2954 H   0  0  0  0  0  0  0  0  0  0  0  0
  142.2621   81.9943  221.6203 H   0  0  0  0  0  0  0  0  0  0  0  0
  142.6563   81.8415  224.0624 H   0  0  0  0  0  0  0  0  0  0  0  0
  142.3153   79.6340  225.1832 H   0  0  0  0  0  0  0  0  0  0  0  0
  141.6103   77.7031  223.8666 H   0  0  0  0  0  0  0  0  0  0  0  0
  141.3403   76.3350  222.9761 H   0  0  0  0  0  0  0  0  0  0  0  0
  139.2682   76.2127  223.4117 H   0  0  0  0  0  0  0  0  0  0  0  0
  138.9022   77.0553  221.8064 H   0  0  0  0  0  0  0  0  0  0  0  0
  137.7236   74.8904  222.3396 H   0  0  0  0  0  0  0  0  0  0  0  0
  138.5344   75.1401  220.7220 H   0  0  0  0  0  0  0  0  0  0  0  0
  138.5936   70.7229  223.2515 H   0  0  0  0  0  0  0  0  0  0  0  0
  138.5240   70.7690  220.7050 H   0  0  0  0  0  0  0  0  0  0  0  0
  139.5450   69.5510  221.3990 H   0  0  0  0  0  0  0  0  0  0  0  0
  141.2856   70.6572  222.8352 H   0  0  0  0  0  0  0  0  0  0  0  0
  140.8482   72.3429  223.4465 H   0  0  0  0  0  0  0  0  0  0  0  0
  141.1470   72.5720  225.7088 H   0  0  0  0  0  0  0  0  0  0  0  0
  140.8169   71.3406  229.2526 H   0  0  0  0  0  0  0  0  0  0  0  0
  142.1302   72.1150  228.3028 H   0  0  0  0  0  0  0  0  0  0  0  0
  140.4814   72.8279  228.3028 H   0  0  0  0  0  0  0  0  0  0  0  0
  140.1684   69.3665  228.3757 H   0  0  0  0  0  0  0  0  0  0  0  0
  139.3741   67.4195  227.5810 H   0  0  0  0  0  0  0  0  0  0  0  0
  138.4451   67.4813  226.0448 H   0  0  0  0  0  0  0  0  0  0  0  0
  140.1425   66.8937  226.0448 H   0  0  0  0  0  0  0  0  0  0  0  0
  139.7502   68.8623  224.1219 H   0  0  0  0  0  0  0  0  0  0  0  0
  141.3627   73.5370  222.6921 H   0  0  0  0  0  0  0  0  0  0  0  0
  141.0638   73.0911  220.9364 H   0  0  0  0  0  0  0  0  0  0  0  0
  142.4794   75.1214  221.4501 H   0  0  0  0  0  0  0  0  0  0  0  0
  141.0922   75.2242  220.2440 H   0  0  0  0  0  0  0  0  0  0  0  0
  1  2  1  0
  2  3  1  0
  3  4  2  0
  3  5  1  0
  5  6  1  0
  6  7  2  0
  7  8  1  0
  8  9  2  0
  9 10  1  0
 10 11  2  0
  5 12  1  0
 12 13  1  0
 13 14  1  0
 14 15  1  0
 15 16  1  0
 16 17  2  0
 16 18  1  0
 18 19  1  0
 18 20  1  0
 20 21  1  0
 21 22  2  0
 22 23  1  0
 23 24  1  0
 23 25  2  0
 25 26  1  0
 26 27  1  0
 26 28  2  0
 15 29  1  0
 29 30  1  0
 11  6  1  0
 30 12  1  0
 28 21  1  0
  1 31  1  0
  1 32  1  0
  1 33  1  0
  2 34  1  0
  2 35  1  0
  7 36  1  0
  8 37  1  0
  9 38  1  0
 10 39  1  0
 11 40  1  0
 12 41  1  0
 13 42  1  0
 13 43  1  0
 14 44  1  0
 14 45  1  0
 18 46  1  1
 19 47  1  0
 19 48  1  0
 20 49  1  0
 20 50  1  0
 22 51  1  0
 24 52  1  0
 24 53  1  0
 24 54  1  0
 25 55  1  0
 27 56  1  0
 27 57  1  0
 27 58  1  0
 28 59  1  0
 29 60  1  0
 29 61  1  0
 30 62  1  0
 30 63  1  0
M  END
>  <smiles>  (4) 
CCC(=O)N(c1ccccc1)C1CCN(C(=O)[C@@H](N)Cc2cc(C)cc(C)c2)CC1

>  <score_type>  (4) 
oracle

>  <origin>  (4) 
autodockgpu

>  <m_score__min__energy>  (4) 
-8.5899999999999999

>  <m_primary>  (4) 
energy

>  <rmsd>  (4) 
6.91032323427176

>  <m_score__min__rmsd>  (4) 
6.91032323427176

>  <meeko>  (4) 
{"free_energy": -8.11, "intermolecular_energy": -10.5, "internal_energy": -1.56, "cluster_size": 21, "cluster_id": 1, "rank_in_cluster": 6}

>  <energy>  (4) 
-8.31

>  <cluster_rmsd>  (4) 
0.75

>  <cluster>  (4) 
1

$$$$

     RDKit          3D

 63 65  0  0  0  0  0  0  0  0999 V2000
  141.9340   80.0550  219.1010 C   0  0  0  0  0  0  0  0  0  0  0  0
  141.8730   78.5420  219.2340 C   0  0  0  0  0  0  0  0  0  0  0  0
  140.7340   78.2270  220.1320 C   0  0  0  0  0  0  0  0  0  0  0  0
  139.5930   78.1740  219.6080 O   0  0  0  0  0  0  0  0  0  0  0  0
  140.9430   77.9970  221.5370 N   0  0  0  0  0  0  0  0  0  0  0  0
  141.3720   79.1180  222.3360 C   0  0  0  0  0  0  0  0  0  0  0  0
  142.6800   79.3090  222.6990 C   0  0  0  0  0  0  0  0  0  0  0  0
  143.0070   80.4150  223.4700 C   0  0  0  0  0  0  0  0  0  0  0  0
  142.0670   81.3350  223.8870 C   0  0  0  0  0  0  0  0  0  0  0  0
  140.7600   81.1250  223.5110 C   0  0  0  0  0  0  0  0  0  0  0  0
  140.4450   80.0350  222.7540 C   0  0  0  0  0  0  0  0  0  0  0  0
  140.7300   76.6910  222.1170 C   0  0  0  0  0  0  0  0  0  0  0  0
  139.3010   76.4910  222.4800 C   0  0  0  0  0  0  0  0  0  0  0  0
  138.6250   75.3130  221.8740 C   0  0  0  0  0  0  0  0  0  0  0  0
  139.4400   74.1110  221.8840 N   0  0  0  0  0  0  0  0  0  0  0  0
  138.7810   72.8970  222.1640 C   0  0  0  0  0  0  0  0  0  0  0  0
  137.5300   72.9660  222.3790 O   0  0  0  0  0  0  0  0  0  0  0  0
  139.3930   71.5580  222.2340 C   0  0  1  0  0  0  0  0  0  0  0  0
  139.5030   71.0020  220.9310 N   0  0  0  0  0  0  0  0  0  0  0  0
  140.6480   71.5190  223.0680 C   0  0  0  0  0  0  0  0  0  0  0  0
  140.4990   70.9900  224.4190 C   0  0  0  0  0  0  0  0  0  0  0  0
  140.8350   71.6750  225.5660 C   0  0  0  0  0  0  0  0  0  0  0  0
  140.6780   71.1480  226.8390 C   0  0  0  0  0  0  0  0  0  0  0  0
  141.0540   71.9200  228.0560 C   0  0  0  0  0  0  0  0  0  0  0  0
  140.1680   69.8880  226.9910 C   0  0  0  0  0  0  0  0  0  0  0  0
  139.8260   69.1850  225.8600 C   0  0  0  0  0  0  0  0  0  0  0  0
  139.2590   67.7990  226.0340 C   0  0  0  0  0  0  0  0  0  0  0  0
  139.9830   69.7140  224.5920 C   0  0  0  0  0  0  0  0  0  0  0  0
  140.8460   74.2240  221.6020 C   0  0  0  0  0  0  0  0  0  0  0  0
  141.3030   75.6040  221.2670 C   0  0  0  0  0  0  0  0  0  0  0  0
  141.9524   80.5106  220.1020 H   0  0  0  0  0  0  0  0  0  0  0  0
  142.8443   80.3384  218.5524 H   0  0  0  0  0  0  0  0  0  0  0  0
  141.0495   80.4108  218.5524 H   0  0  0  0  0  0  0  0  0  0  0  0
  141.7134   78.0829  218.2472 H   0  0  0  0  0  0  0  0  0  0  0  0
  142.8145   78.1473  219.6436 H   0  0  0  0  0  0  0  0  0  0  0  0
  143.4573   78.5972  222.3842 H   0  0  0  0  0  0  0  0  0  0  0  0
  144.0574   80.5645  223.7604 H   0  0  0  0  0  0  0  0  0  0  0  0
  142.3519   82.2045  224.4976 H   0  0  0  0  0  0  0  0  0  0  0  0
  139.9748   81.8312  223.8188 H   0  0  0  0  0  0  0  0  0  0  0  0
  139.3943   79.8852  222.4650 H   0  0  0  0  0  0  0  0  0  0  0  0
  141.2892   76.6363  223.0627 H   0  0  0  0  0  0  0  0  0  0  0  0
  139.2450   76.3836  223.5733 H   0  0  0  0  0  0  0  0  0  0  0  0
  138.7719   77.3693  222.0817 H   0  0  0  0  0  0  0  0  0  0  0  0
  137.7018   75.1128  222.4376 H   0  0  0  0  0  0  0  0  0  0  0  0
  138.4245   75.5602  220.8210 H   0  0  0  0  0  0  0  0  0  0  0  0
  138.7207   70.8904  222.7928 H   0  0  0  0  0  0  0  0  0  0  0  0
  140.4830   70.7560  220.6520 H   0  0  0  0  0  0  0  0  0  0  0  0
  138.9410   71.3970  220.1830 H   0  0  0  0  0  0  0  0  0  0  0  0
  141.3838   70.8941  222.5406 H   0  0  0  0  0  0  0  0  0  0  0  0
  140.9561   72.5677  223.1913 H   0  0  0  0  0  0  0  0  0  0  0  0
  141.2481   72.6897  225.4672 H   0  0  0  0  0  0  0  0  0  0  0  0
  140.7755   71.3482  228.9535 H   0  0  0  0  0  0  0  0  0  0  0  0
  142.1396   72.0977  228.0566 H   0  0  0  0  0  0  0  0  0  0  0  0
  140.5246   72.8842  228.0566 H   0  0  0  0  0  0  0  0  0  0  0  0
  140.0351   69.4491  227.9908 H   0  0  0  0  0  0  0  0  0  0  0  0
  139.1664   67.5727  227.1065 H   0  0  0  0  0  0  0  0  0  0  0  0
  138.2672   67.7466  225.5612 H   0  0  0  0  0  0  0  0  0  0  0  0
  139.9297   67.0664  225.5612 H   0  0  0  0  0  0  0  0  0  0  0  0
  139.6963   69.1179  223.7131 H   0  0  0  0  0  0  0  0  0  0  0  0
  141.4021   73.8840  222.4881 H   0  0  0  0  0  0  0  0  0  0  0  0
  141.0359   73.6077  220.7109 H   0  0  0  0  0  0  0  0  0  0  0  0
  142.3978   75.6337  221.3699 H   0  0  0  0  0  0  0  0  0  0  0  0
  140.9507   75.8008  220.2437 H   0  0  0  0  0  0  0  0  0  0  0  0
  1  2  1  0
  2  3  1  0
  3  4  2  0
  3  5  1  0
  5  6  1  0
  6  7  2  0
  7  8  1  0
  8  9  2  0
  9 10  1  0
 10 11  2  0
  5 12  1  0
 12 13  1  0
 13 14  1  0
 14 15  1  0
 15 16  1  0
 16 17  2  0
 16 18  1  0
 18 19  1  0
 18 20  1  0
 20 21  1  0
 21 22  2  0
 22 23  1  0
 23 24  1  0
 23 25  2  0
 25 26  1  0
 26 27  1  0
 26 28  2  0
 15 29  1  0
 29 30  1  0
 11  6  1  0
 30 12  1  0
 28 21  1  0
  1 31  1  0
  1 32  1  0
  1 33  1  0
  2 34  1  0
  2 35  1  0
  7 36  1  0
  8 37  1  0
  9 38  1  0
 10 39  1  0
 11 40  1  0
 12 41  1  0
 13 42  1  0
 13 43  1  0
 14 44  1  0
 14 45  1  0
 18 46  1  1
 19 47  1  0
 19 48  1  0
 20 49  1  0
 20 50  1  0
 22 51  1  0
 24 52  1  0
 24 53  1  0
 24 54  1  0
 25 55  1  0
 27 56  1  0
 27 57  1  0
 27 58  1  0
 28 59  1  0
 29 60  1  0
 29 61  1  0
 30 62  1  0
 30 63  1  0
M  END
>  <smiles>  (5) 
CCC(=O)N(c1ccccc1)C1CCN(C(=O)[C@@H](N)Cc2cc(C)cc(C)c2)CC1

>  <score_type>  (5) 
oracle

>  <origin>  (5) 
autodockgpu

>  <m_score__min__energy>  (5) 
-8.5899999999999999

>  <m_primary>  (5) 
energy

>  <rmsd>  (5) 
6.591807586143595

>  <m_score__min__rmsd>  (5) 
6.591807586143595

>  <meeko>  (5) 
{"free_energy": -7.9, "intermolecular_energy": -10.29, "internal_energy": -1.67, "cluster_size": 21, "cluster_id": 1, "rank_in_cluster": 14}

>  <energy>  (5) 
-8.17

>  <cluster_rmsd>  (5) 
1.58

>  <cluster>  (5) 
1

$$$$

     RDKit          3D

 63 65  0  0  0  0  0  0  0  0999 V2000
  142.6090   80.8980  217.9080 C   0  0  0  0  0  0  0  0  0  0  0  0
  142.4860   79.4900  218.4690 C   0  0  0  0  0  0  0  0  0  0  0  0
  141.1710   79.4020  219.1490 C   0  0  0  0  0  0  0  0  0  0  0  0
  140.1860   79.9050  218.5520 O   0  0  0  0  0  0  0  0  0  0  0  0
  141.0450   78.7690  220.4350 N   0  0  0  0  0  0  0  0  0  0  0  0
  141.4970   79.5090  221.5860 C   0  0  0  0  0  0  0  0  0  0  0  0
  142.5570   79.1040  222.3560 C   0  0  0  0  0  0  0  0  0  0  0  0
  142.9260   79.8760  223.4480 C   0  0  0  0  0  0  0  0  0  0  0  0
  142.2700   81.0400  223.7920 C   0  0  0  0  0  0  0  0  0  0  0  0
  141.2100   81.4300  223.0060 C   0  0  0  0  0  0  0  0  0  0  0  0
  140.8510   80.6660  221.9340 C   0  0  0  0  0  0  0  0  0  0  0  0
  140.4860   77.4430  220.5590 C   0  0  0  0  0  0  0  0  0  0  0  0
  141.4140   76.4150  220.0160 C   0  0  0  0  0  0  0  0  0  0  0  0
  141.8150   75.3290  220.9500 C   0  0  0  0  0  0  0  0  0  0  0  0
  140.7130   74.8110  221.7410 N   0  0  0  0  0  0  0  0  0  0  0  0
  140.6840   73.4190  221.9610 C   0  0  0  0  0  0  0  0  0  0  0  0
  141.6330   72.7450  221.4490 O   0  0  0  0  0  0  0  0  0  0  0  0
  139.6710   72.6670  222.7220 C   0  0  1  0  0  0  0  0  0  0  0  0
  138.3840   72.8710  222.1570 N   0  0  0  0  0  0  0  0  0  0  0  0
  140.0550   71.2290  222.9650 C   0  0  0  0  0  0  0  0  0  0  0  0
  140.2480   70.8490  224.3610 C   0  0  0  0  0  0  0  0  0  0  0  0
  140.7140   71.6960  225.3410 C   0  0  0  0  0  0  0  0  0  0  0  0
  140.8840   71.3080  226.6620 C   0  0  0  0  0  0  0  0  0  0  0  0
  141.3930   72.2530  227.6950 C   0  0  0  0  0  0  0  0  0  0  0  0
  140.5800   70.0280  227.0350 C   0  0  0  0  0  0  0  0  0  0  0  0
  140.1120   69.1650  226.0720 C   0  0  0  0  0  0  0  0  0  0  0  0
  139.7740   67.7570  226.4910 C   0  0  0  0  0  0  0  0  0  0  0  0
  139.9440   69.5550  224.7560 C   0  0  0  0  0  0  0  0  0  0  0  0
  139.7340   75.7320  222.2540 C   0  0  0  0  0  0  0  0  0  0  0  0
  140.0100   77.1660  221.9480 C   0  0  0  0  0  0  0  0  0  0  0  0
  142.6719   81.6187  218.7367 H   0  0  0  0  0  0  0  0  0  0  0  0
  143.5167   80.9688  217.2908 H   0  0  0  0  0  0  0  0  0  0  0  0
  141.7273   81.1251  217.2908 H   0  0  0  0  0  0  0  0  0  0  0  0
  142.5386   78.7535  217.6536 H   0  0  0  0  0  0  0  0  0  0  0  0
  143.3043   79.2772  219.1726 H   0  0  0  0  0  0  0  0  0  0  0  0
  143.1056   78.1823  222.1119 H   0  0  0  0  0  0  0  0  0  0  0  0
  143.7756   79.5469  224.0643 H   0  0  0  0  0  0  0  0  0  0  0  0
  142.5830   81.6346  224.6629 H   0  0  0  0  0  0  0  0  0  0  0  0
  140.6561   82.3510  223.2402 H   0  0  0  0  0  0  0  0  0  0  0  0
  140.0008   80.9953  221.3187 H   0  0  0  0  0  0  0  0  0  0  0  0
  139.5823   77.3887  219.9342 H   0  0  0  0  0  0  0  0  0  0  0  0
  140.9254   75.9473  219.1485 H   0  0  0  0  0  0  0  0  0  0  0  0
  142.3425   76.9548  219.7784 H   0  0  0  0  0  0  0  0  0  0  0  0
  142.2402   74.5026  220.3615 H   0  0  0  0  0  0  0  0  0  0  0  0
  142.5445   75.7584  221.6524 H   0  0  0  0  0  0  0  0  0  0  0  0
  139.6222   73.0730  223.7431 H   0  0  0  0  0  0  0  0  0  0  0  0
  137.7510   73.4710  222.7380 H   0  0  0  0  0  0  0  0  0  0  0  0
  137.9200   72.0890  221.7030 H   0  0  0  0  0  0  0  0  0  0  0  0
  139.2599   70.5927  222.5491 H   0  0  0  0  0  0  0  0  0  0  0  0
  141.0341   71.0961  222.4817 H   0  0  0  0  0  0  0  0  0  0  0  0
  140.9637   72.7306  225.0632 H   0  0  0  0  0  0  0  0  0  0  0  0
  141.1773   71.8524  228.6965 H   0  0  0  0  0  0  0  0  0  0  0  0
  142.4795   72.3763  227.5756 H   0  0  0  0  0  0  0  0  0  0  0  0
  140.8981   73.2281  227.5756 H   0  0  0  0  0  0  0  0  0  0  0  0
  140.7063   69.6978  228.0766 H   0  0  0  0  0  0  0  0  0  0  0  0
  139.7591   67.6948  227.5891 H   0  0  0  0  0  0  0  0  0  0  0  0
  138.7848   67.4840  226.0948 H   0  0  0  0  0  0  0  0  0  0  0  0
  140.5315   67.0647  226.0948 H   0  0  0  0  0  0  0  0  0  0  0  0
  139.5663   68.8332  224.0168 H   0  0  0  0  0  0  0  0  0  0  0  0
  138.7571   75.4707  221.8211 H   0  0  0  0  0  0  0  0  0  0  0  0
  139.7599   75.6364  223.3495 H   0  0  0  0  0  0  0  0  0  0  0  0
  139.0807   77.7324  222.1079 H   0  0  0  0  0  0  0  0  0  0  0  0
  140.8305   77.4668  222.6161 H   0  0  0  0  0  0  0  0  0  0  0  0
  1  2  1  0
  2  3  1  0
  3  4  2  0
  3  5  1  0
  5  6  1  0
  6  7  2  0
  7  8  1  0
  8  9  2  0
  9 10  1  0
 10 11  2  0
  5 12  1  0
 12 13  1  0
 13 14  1  0
 14 15  1  0
 15 16  1  0
 16 17  2  0
 16 18  1  0
 18 19  1  0
 18 20  1  0
 20 21  1  0
 21 22  2  0
 22 23  1  0
 23 24  1  0
 23 25  2  0
 25 26  1  0
 26 27  1  0
 26 28  2  0
 15 29  1  0
 29 30  1  0
 11  6  1  0
 30 12  1  0
 28 21  1  0
  1 31  1  0
  1 32  1  0
  1 33  1  0
  2 34  1  0
  2 35  1  0
  7 36  1  0
  8 37  1  0
  9 38  1  0
 10 39  1  0
 11 40  1  0
 12 41  1  0
 13 42  1  0
 13 43  1  0
 14 44  1  0
 14 45  1  0
 18 46  1  1
 19 47  1  0
 19 48  1  0
 20 49  1  0
 20 50  1  0
 22 51  1  0
 24 52  1  0
 24 53  1  0
 24 54  1  0
 25 55  1  0
 27 56  1  0
 27 57  1  0
 27 58  1  0
 28 59  1  0
 29 60  1  0
 29 61  1  0
 30 62  1  0
 30 63  1  0
M  END
>  <smiles>  (6) 
CCC(=O)N(c1ccccc1)C1CCN(C(=O)[C@@H](N)Cc2cc(C)cc(C)c2)CC1

>  <score_type>  (6) 
oracle

>  <origin>  (6) 
autodockgpu

>  <m_score__min__energy>  (6) 
-8.5899999999999999

>  <m_primary>  (6) 
energy

>  <rmsd>  (6) 
6.203987398084179

>  <m_score__min__rmsd>  (6) 
6.203987398084179

>  <meeko>  (6) 
{"free_energy": -8.43, "intermolecular_energy": -10.82, "internal_energy": -1.55, "cluster_size": 21, "cluster_id": 1, "rank_in_cluster": 2}

>  <energy>  (6) 
-8.11

>  <cluster_rmsd>  (6) 
1.61

>  <cluster>  (6) 
1

$$$$

     RDKit          3D

 63 65  0  0  0  0  0  0  0  0999 V2000
  138.1960   83.4640  221.9490 C   0  0  0  0  0  0  0  0  0  0  0  0
  137.0340   82.5320  221.6460 C   0  0  0  0  0  0  0  0  0  0  0  0
  136.1230   82.5730  222.8150 C   0  0  0  0  0  0  0  0  0  0  0  0
  135.0510   83.2140  222.6810 O   0  0  0  0  0  0  0  0  0  0  0  0
  136.4660   81.9050  224.0430 N   0  0  0  0  0  0  0  0  0  0  0  0
  136.2780   82.6360  225.2710 C   0  0  0  0  0  0  0  0  0  0  0  0
  136.0120   82.0180  226.4660 C   0  0  0  0  0  0  0  0  0  0  0  0
  135.8440   82.7980  227.6010 C   0  0  0  0  0  0  0  0  0  0  0  0
  135.9340   84.1750  227.5780 C   0  0  0  0  0  0  0  0  0  0  0  0
  136.2020   84.7750  226.3690 C   0  0  0  0  0  0  0  0  0  0  0  0
  136.3660   84.0020  225.2560 C   0  0  0  0  0  0  0  0  0  0  0  0
  136.9800   80.5550  224.0360 C   0  0  0  0  0  0  0  0  0  0  0  0
  136.2240   79.6970  223.0850 C   0  0  0  0  0  0  0  0  0  0  0  0
  137.0240   79.0200  222.0290 C   0  0  0  0  0  0  0  0  0  0  0  0
  138.2660   78.4520  222.5200 N   0  0  0  0  0  0  0  0  0  0  0  0
  138.6470   77.2000  221.9960 C   0  0  0  0  0  0  0  0  0  0  0  0
  137.8670   76.6850  221.1340 O   0  0  0  0  0  0  0  0  0  0  0  0
  139.8540   76.4290  222.3420 C   0  0  1  0  0  0  0  0  0  0  0  0
  139.5830   75.0370  222.2680 N   0  0  0  0  0  0  0  0  0  0  0  0
  141.0870   76.8930  221.6090 C   0  0  0  0  0  0  0  0  0  0  0  0
  141.4060   78.3110  221.7320 C   0  0  0  0  0  0  0  0  0  0  0  0
  142.0020   78.8830  222.8340 C   0  0  0  0  0  0  0  0  0  0  0  0
  142.2960   80.2350  222.9220 C   0  0  0  0  0  0  0  0  0  0  0  0
  142.9420   80.8180  224.1320 C   0  0  0  0  0  0  0  0  0  0  0  0
  141.9900   81.0630  221.8770 C   0  0  0  0  0  0  0  0  0  0  0  0
  141.3940   80.5150  220.7670 C   0  0  0  0  0  0  0  0  0  0  0  0
  141.0630   81.4310  219.6170 C   0  0  0  0  0  0  0  0  0  0  0  0
  141.1020   79.1650  220.6820 C   0  0  0  0  0  0  0  0  0  0  0  0
  139.0300   79.1900  223.4910 C   0  0  0  0  0  0  0  0  0  0  0  0
  138.4610   80.5230  223.8460 C   0  0  0  0  0  0  0  0  0  0  0  0
  138.3150   83.5595  223.0384 H   0  0  0  0  0  0  0  0  0  0  0  0
  139.1189   83.0529  221.5140 H   0  0  0  0  0  0  0  0  0  0  0  0
  137.9950   84.4541  221.5140 H   0  0  0  0  0  0  0  0  0  0  0  0
  136.5044   82.8710  220.7434 H   0  0  0  0  0  0  0  0  0  0  0  0
  137.3918   81.5076  221.4654 H   0  0  0  0  0  0  0  0  0  0  0  0
  135.9332   80.9223  226.5237 H   0  0  0  0  0  0  0  0  0  0  0  0
  135.6305   82.2988  228.5577 H   0  0  0  0  0  0  0  0  0  0  0  0
  135.7966   84.7709  228.4924 H   0  0  0  0  0  0  0  0  0  0  0  0
  136.2835   85.8698  226.3000 H   0  0  0  0  0  0  0  0  0  0  0  0
  136.5795   84.5015  224.2995 H   0  0  0  0  0  0  0  0  0  0  0  0
  136.8135   80.1159  225.0307 H   0  0  0  0  0  0  0  0  0  0  0  0
  135.7133   78.9178  223.6698 H   0  0  0  0  0  0  0  0  0  0  0  0
  135.5477   80.3789  222.5487 H   0  0  0  0  0  0  0  0  0  0  0  0
  136.4172   78.2103  221.5975 H   0  0  0  0  0  0  0  0  0  0  0  0
  137.2895   79.7842  221.2836 H   0  0  0  0  0  0  0  0  0  0  0  0
  140.1148   76.6315  223.3913 H   0  0  0  0  0  0  0  0  0  0  0  0
  138.8770   74.7760  221.5380 H   0  0  0  0  0  0  0  0  0  0  0  0
  139.5070   74.5080  223.1320 H   0  0  0  0  0  0  0  0  0  0  0  0
  141.9435   76.3203  221.9942 H   0  0  0  0  0  0  0  0  0  0  0  0
  140.8790   76.7264  220.5418 H   0  0  0  0  0  0  0  0  0  0  0  0
  142.2572   78.2356  223.6859 H   0  0  0  0  0  0  0  0  0  0  0  0
  142.4759   80.3973  225.0352 H   0  0  0  0  0  0  0  0  0  0  0  0
  144.0152   80.5767  224.1269 H   0  0  0  0  0  0  0  0  0  0  0  0
  142.8117   81.9102  224.1269 H   0  0  0  0  0  0  0  0  0  0  0  0
  142.2151   82.1387  221.9241 H   0  0  0  0  0  0  0  0  0  0  0  0
  140.7135   82.3982  220.0075 H   0  0  0  0  0  0  0  0  0  0  0  0
  141.9616   81.5869  219.0021 H   0  0  0  0  0  0  0  0  0  0  0  0
  140.2723   80.9765  219.0021 H   0  0  0  0  0  0  0  0  0  0  0  0
  140.6251   78.7660  219.7747 H   0  0  0  0  0  0  0  0  0  0  0  0
  139.0913   78.5875  224.4093 H   0  0  0  0  0  0  0  0  0  0  0  0
  140.0123   79.3818  223.0345 H   0  0  0  0  0  0  0  0  0  0  0  0
  138.9311   80.8543  224.7837 H   0  0  0  0  0  0  0  0  0  0  0  0
  138.6721   81.1813  222.9904 H   0  0  0  0  0  0  0  0  0  0  0  0
  1  2  1  0
  2  3  1  0
  3  4  2  0
  3  5  1  0
  5  6  1  0
  6  7  2  0
  7  8  1  0
  8  9  2  0
  9 10  1  0
 10 11  2  0
  5 12  1  0
 12 13  1  0
 13 14  1  0
 14 15  1  0
 15 16  1  0
 16 17  2  0
 16 18  1  0
 18 19  1  0
 18 20  1  0
 20 21  1  0
 21 22  2  0
 22 23  1  0
 23 24  1  0
 23 25  2  0
 25 26  1  0
 26 27  1  0
 26 28  2  0
 15 29  1  0
 29 30  1  0
 11  6  1  0
 30 12  1  0
 28 21  1  0
  1 31  1  0
  1 32  1  0
  1 33  1  0
  2 34  1  0
  2 35  1  0
  7 36  1  0
  8 37  1  0
  9 38  1  0
 10 39  1  0
 11 40  1  0
 12 41  1  0
 13 42  1  0
 13 43  1  0
 14 44  1  0
 14 45  1  0
 18 46  1  1
 19 47  1  0
 19 48  1  0
 20 49  1  0
 20 50  1  0
 22 51  1  0
 24 52  1  0
 24 53  1  0
 24 54  1  0
 25 55  1  0
 27 56  1  0
 27 57  1  0
 27 58  1  0
 28 59  1  0
 29 60  1  0
 29 61  1  0
 30 62  1  0
 30 63  1  0
M  END
>  <smiles>  (7) 
CCC(=O)N(c1ccccc1)C1CCN(C(=O)[C@@H](N)Cc2cc(C)cc(C)c2)CC1

>  <score_type>  (7) 
oracle

>  <origin>  (7) 
autodockgpu

>  <m_score__min__energy>  (7) 
-8.5899999999999999

>  <m_primary>  (7) 
energy

>  <rmsd>  (7) 
4.574416047921669

>  <m_score__min__rmsd>  (7) 
4.574416047921669

>  <meeko>  (7) 
{"free_energy": -6.35, "intermolecular_energy": -8.74, "internal_energy": -2.92, "cluster_size": 17, "cluster_id": 5, "rank_in_cluster": 16}

>  <energy>  (7) 
-8.05

>  <cluster_rmsd>  (7) 
1.63

>  <cluster>  (7) 
1

$$$$

     RDKit          3D

 63 65  0  0  0  0  0  0  0  0999 V2000
  141.5950   80.0570  219.0020 C   0  0  0  0  0  0  0  0  0  0  0  0
  140.8410   78.7540  219.2170 C   0  0  0  0  0  0  0  0  0  0  0  0
  141.6800   77.9030  220.0960 C   0  0  0  0  0  0  0  0  0  0  0  0
  142.6330   77.2890  219.5540 O   0  0  0  0  0  0  0  0  0  0  0  0
  141.4020   77.7940  221.5040 N   0  0  0  0  0  0  0  0  0  0  0  0
  141.5180   78.9920  222.2970 C   0  0  0  0  0  0  0  0  0  0  0  0
  140.4320   79.7490  222.6570 C   0  0  0  0  0  0  0  0  0  0  0  0
  140.6330   80.8890  223.4210 C   0  0  0  0  0  0  0  0  0  0  0  0
  141.8840   81.2940  223.8370 C   0  0  0  0  0  0  0  0  0  0  0  0
  142.9600   80.5210  223.4670 C   0  0  0  0  0  0  0  0  0  0  0  0
  142.7570   79.4020  222.7140 C   0  0  0  0  0  0  0  0  0  0  0  0
  141.0230   76.5310  222.0920 C   0  0  0  0  0  0  0  0  0  0  0  0
  139.5700   76.4990  222.4080 C   0  0  0  0  0  0  0  0  0  0  0  0
  138.7850   75.3950  221.7930 C   0  0  0  0  0  0  0  0  0  0  0  0
  139.4570   74.1090  221.8460 N   0  0  0  0  0  0  0  0  0  0  0  0
  138.6560   72.9820  222.1180 C   0  0  0  0  0  0  0  0  0  0  0  0
  137.4140   73.1950  222.2880 O   0  0  0  0  0  0  0  0  0  0  0  0
  139.1090   71.5830  222.2260 C   0  0  1  0  0  0  0  0  0  0  0  0
  139.0210   70.9420  220.9610 N   0  0  0  0  0  0  0  0  0  0  0  0
  140.4290   71.4390  222.9390 C   0  0  0  0  0  0  0  0  0  0  0  0
  140.3610   70.9490  224.3120 C   0  0  0  0  0  0  0  0  0  0  0  0
  140.7350   71.6780  225.4190 C   0  0  0  0  0  0  0  0  0  0  0  0
  140.6550   71.1880  226.7130 C   0  0  0  0  0  0  0  0  0  0  0  0
  141.0700   72.0070  227.8860 C   0  0  0  0  0  0  0  0  0  0  0  0
  140.1850   69.9210  226.9290 C   0  0  0  0  0  0  0  0  0  0  0  0
  139.8050   69.1750  225.8390 C   0  0  0  0  0  0  0  0  0  0  0  0
  139.2840   67.7830  226.0830 C   0  0  0  0  0  0  0  0  0  0  0  0
  139.8860   69.6670  224.5490 C   0  0  0  0  0  0  0  0  0  0  0  0
  140.8750   74.0580  221.6110 C   0  0  0  0  0  0  0  0  0  0  0  0
  141.4970   75.3720  221.2760 C   0  0  0  0  0  0  0  0  0  0  0  0
  141.8502   80.4981  219.9768 H   0  0  0  0  0  0  0  0  0  0  0  0
  142.5175   79.8579  218.4368 H   0  0  0  0  0  0  0  0  0  0  0  0
  140.9627   80.7576  218.4368 H   0  0  0  0  0  0  0  0  0  0  0  0
  139.8724   78.9538  219.6986 H   0  0  0  0  0  0  0  0  0  0  0  0
  140.6459   78.2523  218.2577 H   0  0  0  0  0  0  0  0  0  0  0  0
  139.4185   79.4567  222.3449 H   0  0  0  0  0  0  0  0  0  0  0  0
  139.7599   81.4942  223.7065 H   0  0  0  0  0  0  0  0  0  0  0  0
  142.0166   82.2025  224.4429 H   0  0  0  0  0  0  0  0  0  0  0  0
  143.9772   80.8034  223.7763 H   0  0  0  0  0  0  0  0  0  0  0  0
  143.6312   78.7990  222.4274 H   0  0  0  0  0  0  0  0  0  0  0  0
  141.5407   76.4296  223.0572 H   0  0  0  0  0  0  0  0  0  0  0  0
  139.4664   76.4157  223.4999 H   0  0  0  0  0  0  0  0  0  0  0  0
  139.1570   77.4250  221.9814 H   0  0  0  0  0  0  0  0  0  0  0  0
  137.8268   75.3097  222.3264 H   0  0  0  0  0  0  0  0  0  0  0  0
  138.6494   75.6464  220.7307 H   0  0  0  0  0  0  0  0  0  0  0  0
  138.4224   71.0381  222.8906 H   0  0  0  0  0  0  0  0  0  0  0  0
  138.3060   71.3590  220.3190 H   0  0  0  0  0  0  0  0  0  0  0  0
  139.0780   69.9280  220.9230 H   0  0  0  0  0  0  0  0  0  0  0  0
  141.0496   70.7382  222.3613 H   0  0  0  0  0  0  0  0  0  0  0  0
  140.8441   72.4555  223.0056 H   0  0  0  0  0  0  0  0  0  0  0  0
  141.1158   72.6990  225.2688 H   0  0  0  0  0  0  0  0  0  0  0  0
  140.8030   71.4801  228.8140 H   0  0  0  0  0  0  0  0  0  0  0  0
  142.1579   72.1669  227.8551 H   0  0  0  0  0  0  0  0  0  0  0  0
  140.5556   72.9788  227.8551 H   0  0  0  0  0  0  0  0  0  0  0  0
  140.1133   69.5109  227.9472 H   0  0  0  0  0  0  0  0  0  0  0  0
  139.2161   67.6015  227.1658 H   0  0  0  0  0  0  0  0  0  0  0  0
  138.2866   67.6803  225.6307 H   0  0  0  0  0  0  0  0  0  0  0  0
  139.9689   67.0506  225.6307 H   0  0  0  0  0  0  0  0  0  0  0  0
  139.5713   69.0369  223.7040 H   0  0  0  0  0  0  0  0  0  0  0  0
  141.3596   73.6708  222.5194 H   0  0  0  0  0  0  0  0  0  0  0  0
  141.0224   73.4108  220.7338 H   0  0  0  0  0  0  0  0  0  0  0  0
  142.5839   75.2791  221.4174 H   0  0  0  0  0  0  0  0  0  0  0  0
  141.2039   75.5910  220.2386 H   0  0  0  0  0  0  0  0  0  0  0  0
  1  2  1  0
  2  3  1  0
  3  4  2  0
  3  5  1  0
  5  6  1  0
  6  7  2  0
  7  8  1  0
  8  9  2  0
  9 10  1  0
 10 11  2  0
  5 12  1  0
 12 13  1  0
 13 14  1  0
 14 15  1  0
 15 16  1  0
 16 17  2  0
 16 18  1  0
 18 19  1  0
 18 20  1  0
 20 21  1  0
 21 22  2  0
 22 23  1  0
 23 24  1  0
 23 25  2  0
 25 26  1  0
 26 27  1  0
 26 28  2  0
 15 29  1  0
 29 30  1  0
 11  6  1  0
 30 12  1  0
 28 21  1  0
  1 31  1  0
  1 32  1  0
  1 33  1  0
  2 34  1  0
  2 35  1  0
  7 36  1  0
  8 37  1  0
  9 38  1  0
 10 39  1  0
 11 40  1  0
 12 41  1  0
 13 42  1  0
 13 43  1  0
 14 44  1  0
 14 45  1  0
 18 46  1  1
 19 47  1  0
 19 48  1  0
 20 49  1  0
 20 50  1  0
 22 51  1  0
 24 52  1  0
 24 53  1  0
 24 54  1  0
 25 55  1  0
 27 56  1  0
 27 57  1  0
 27 58  1  0
 28 59  1  0
 29 60  1  0
 29 61  1  0
 30 62  1  0
 30 63  1  0
M  END
>  <smiles>  (8) 
CCC(=O)N(c1ccccc1)C1CCN(C(=O)[C@@H](N)Cc2cc(C)cc(C)c2)CC1

>  <score_type>  (8) 
oracle

>  <origin>  (8) 
autodockgpu

>  <m_score__min__energy>  (8) 
-8.5899999999999999

>  <m_primary>  (8) 
energy

>  <rmsd>  (8) 
6.586326974114431

>  <m_score__min__rmsd>  (8) 
6.586326974114431

>  <meeko>  (8) 
{"free_energy": -7.93, "intermolecular_energy": -10.32, "internal_energy": -1.57, "cluster_size": 21, "cluster_id": 1, "rank_in_cluster": 13}

>  <energy>  (8) 
-8.0

>  <cluster_rmsd>  (8) 
1.51

>  <cluster>  (8) 
1

$$$$

     RDKit          3D

 63 65  0  0  0  0  0  0  0  0999 V2000
  137.8200   80.0160  222.2110 C   0  0  0  0  0  0  0  0  0  0  0  0
  137.4220   79.1190  221.0490 C   0  0  0  0  0  0  0  0  0  0  0  0
  138.6700   78.7290  220.3500 C   0  0  0  0  0  0  0  0  0  0  0  0
  138.8600   79.2160  219.2070 O   0  0  0  0  0  0  0  0  0  0  0  0
  139.6110   77.8290  220.9650 N   0  0  0  0  0  0  0  0  0  0  0  0
  140.6260   78.4080  221.8080 C   0  0  0  0  0  0  0  0  0  0  0  0
  140.8540   77.9800  223.0910 C   0  0  0  0  0  0  0  0  0  0  0  0
  141.8520   78.5930  223.8350 C   0  0  0  0  0  0  0  0  0  0  0  0
  142.6290   79.6180  223.3360 C   0  0  0  0  0  0  0  0  0  0  0  0
  142.3850   80.0320  222.0470 C   0  0  0  0  0  0  0  0  0  0  0  0
  141.4020   79.4260  221.3200 C   0  0  0  0  0  0  0  0  0  0  0  0
  139.5340   76.4050  220.7390 C   0  0  0  0  0  0  0  0  0  0  0  0
  140.8870   75.7870  220.7310 C   0  0  0  0  0  0  0  0  0  0  0  0
  141.1160   74.6870  221.7050 C   0  0  0  0  0  0  0  0  0  0  0  0
  140.0100   73.7500  221.7880 N   0  0  0  0  0  0  0  0  0  0  0  0
  140.3380   72.3850  221.9200 C   0  0  0  0  0  0  0  0  0  0  0  0
  141.5770   72.1010  221.9590 O   0  0  0  0  0  0  0  0  0  0  0  0
  139.3960   71.2570  222.0180 C   0  0  1  0  0  0  0  0  0  0  0  0
  140.0470   70.0440  221.6670 N   0  0  0  0  0  0  0  0  0  0  0  0
  138.6280   71.2330  223.3150 C   0  0  0  0  0  0  0  0  0  0  0  0
  139.3580   70.7390  224.4780 C   0  0  0  0  0  0  0  0  0  0  0  0
  140.0340   71.5400  225.3710 C   0  0  0  0  0  0  0  0  0  0  0  0
  140.7180   71.0440  226.4710 C   0  0  0  0  0  0  0  0  0  0  0  0
  141.4390   71.9420  227.4150 C   0  0  0  0  0  0  0  0  0  0  0  0
  140.7360   69.6950  226.7020 C   0  0  0  0  0  0  0  0  0  0  0  0
  140.0680   68.8760  225.8240 C   0  0  0  0  0  0  0  0  0  0  0  0
  140.0880   67.3920  226.0870 C   0  0  0  0  0  0  0  0  0  0  0  0
  139.3870   69.3750  224.7280 C   0  0  0  0  0  0  0  0  0  0  0  0
  138.6650   74.2590  221.7420 C   0  0  0  0  0  0  0  0  0  0  0  0
  138.5660   75.7460  221.6680 C   0  0  0  0  0  0  0  0  0  0  0  0
  137.5946   79.5080  223.1603 H   0  0  0  0  0  0  0  0  0  0  0  0
  138.8976   80.2301  222.1566 H   0  0  0  0  0  0  0  0  0  0  0  0
  137.2557   80.9586  222.1566 H   0  0  0  0  0  0  0  0  0  0  0  0
  136.9043   78.2238  221.4239 H   0  0  0  0  0  0  0  0  0  0  0  0
  136.7391   79.6447  220.3655 H   0  0  0  0  0  0  0  0  0  0  0  0
  140.2556   77.1643  223.5230 H   0  0  0  0  0  0  0  0  0  0  0  0
  142.0308   78.2478  224.8640 H   0  0  0  0  0  0  0  0  0  0  0  0
  143.4148   80.0870  223.9464 H   0  0  0  0  0  0  0  0  0  0  0  0
  142.9784   80.8461  221.6053 H   0  0  0  0  0  0  0  0  0  0  0  0
  141.2239   79.7721  220.2912 H   0  0  0  0  0  0  0  0  0  0  0  0
  139.1233   76.2358  219.7327 H   0  0  0  0  0  0  0  0  0  0  0  0
  141.0653   75.3843  219.7230 H   0  0  0  0  0  0  0  0  0  0  0  0
  141.5773   76.5900  221.0287 H   0  0  0  0  0  0  0  0  0  0  0  0
  142.0182   74.1354  221.4021 H   0  0  0  0  0  0  0  0  0  0  0  0
  141.2246   75.1495  222.6971 H   0  0  0  0  0  0  0  0  0  0  0  0
  138.5969   71.3981  221.2754 H   0  0  0  0  0  0  0  0  0  0  0  0
  139.8150   69.2370  222.2940 H   0  0  0  0  0  0  0  0  0  0  0  0
  141.0180   70.0800  221.3710 H   0  0  0  0  0  0  0  0  0  0  0  0
  138.3022   72.2608  223.5330 H   0  0  0  0  0  0  0  0  0  0  0  0
  137.8014   70.5243  223.1588 H   0  0  0  0  0  0  0  0  0  0  0  0
  140.0314   72.6272  225.2037 H   0  0  0  0  0  0  0  0  0  0  0  0
  141.2049   71.6505  228.4495 H   0  0  0  0  0  0  0  0  0  0  0  0
  142.5227   71.8572  227.2464 H   0  0  0  0  0  0  0  0  0  0  0  0
  141.1220   72.9818  227.2464 H   0  0  0  0  0  0  0  0  0  0  0  0
  141.2711   69.2776  227.5677 H   0  0  0  0  0  0  0  0  0  0  0  0
  140.0904   67.2119  227.1722 H   0  0  0  0  0  0  0  0  0  0  0  0
  139.1960   66.9284  225.6404 H   0  0  0  0  0  0  0  0  0  0  0  0
  140.9921   66.9526  225.6404 H   0  0  0  0  0  0  0  0  0  0  0  0
  138.8644   68.6846  224.0495 H   0  0  0  0  0  0  0  0  0  0  0  0
  138.1687   73.8375  220.8554 H   0  0  0  0  0  0  0  0  0  0  0  0
  138.1864   73.9612  222.6866 H   0  0  0  0  0  0  0  0  0  0  0  0
  137.5488   76.0029  221.3372 H   0  0  0  0  0  0  0  0  0  0  0  0
  138.8091   76.1176  222.6744 H   0  0  0  0  0  0  0  0  0  0  0  0
  1  2  1  0
  2  3  1  0
  3  4  2  0
  3  5  1  0
  5  6  1  0
  6  7  2  0
  7  8  1  0
  8  9  2  0
  9 10  1  0
 10 11  2  0
  5 12  1  0
 12 13  1  0
 13 14  1  0
 14 15  1  0
 15 16  1  0
 16 17  2  0
 16 18  1  0
 18 19  1  0
 18 20  1  0
 20 21  1  0
 21 22  2  0
 22 23  1  0
 23 24  1  0
 23 25  2  0
 25 26  1  0
 26 27  1  0
 26 28  2  0
 15 29  1  0
 29 30  1  0
 11  6  1  0
 30 12  1  0
 28 21  1  0
  1 31  1  0
  1 32  1  0
  1 33  1  0
  2 34  1  0
  2 35  1  0
  7 36  1  0
  8 37  1  0
  9 38  1  0
 10 39  1  0
 11 40  1  0
 12 41  1  0
 13 42  1  0
 13 43  1  0
 14 44  1  0
 14 45  1  0
 18 46  1  6
 19 47  1  0
 19 48  1  0
 20 49  1  0
 20 50  1  0
 22 51  1  0
 24 52  1  0
 24 53  1  0
 24 54  1  0
 25 55  1  0
 27 56  1  0
 27 57  1  0
 27 58  1  0
 28 59  1  0
 29 60  1  0
 29 61  1  0
 30 62  1  0
 30 63  1  0
M  END
>  <smiles>  (9) 
CCC(=O)N(c1ccccc1)C1CCN(C(=O)[C@@H](N)Cc2cc(C)cc(C)c2)CC1

>  <score_type>  (9) 
oracle

>  <origin>  (9) 
autodockgpu

>  <m_score__min__energy>  (9) 
-8.5899999999999999

>  <m_primary>  (9) 
energy

>  <rmsd>  (9) 
6.910841375552514

>  <m_score__min__rmsd>  (9) 
6.910841375552514

>  <meeko>  (9) 
{"free_energy": -6.67, "intermolecular_energy": -9.06, "internal_energy": -2.45, "cluster_size": 4, "cluster_id": 4, "rank_in_cluster": 4}

>  <energy>  (9) 
-7.98

>  <cluster_rmsd>  (9) 
1.52

>  <cluster>  (9) 
1

$$$$

     RDKit          3D

 63 65  0  0  0  0  0  0  0  0999 V2000
  142.5830   81.0380  217.8740 C   0  0  0  0  0  0  0  0  0  0  0  0
  141.4440   80.4490  218.6920 C   0  0  0  0  0  0  0  0  0  0  0  0
  141.9240   79.1590  219.2450 C   0  0  0  0  0  0  0  0  0  0  0  0
  142.7490   78.5130  218.5520 O   0  0  0  0  0  0  0  0  0  0  0  0
  141.4560   78.6810  220.5200 N   0  0  0  0  0  0  0  0  0  0  0  0
  141.6840   79.5230  221.6670 C   0  0  0  0  0  0  0  0  0  0  0  0
  142.7990   79.4110  222.4570 C   0  0  0  0  0  0  0  0  0  0  0  0
  142.9400   80.2610  223.5430 C   0  0  0  0  0  0  0  0  0  0  0  0
  142.0010   81.2200  223.8640 C   0  0  0  0  0  0  0  0  0  0  0  0
  140.8890   81.3170  223.0590 C   0  0  0  0  0  0  0  0  0  0  0  0
  140.7560   80.4770  221.9920 C   0  0  0  0  0  0  0  0  0  0  0  0
  140.7850   77.4070  220.6350 C   0  0  0  0  0  0  0  0  0  0  0  0
  141.5980   76.3150  220.0350 C   0  0  0  0  0  0  0  0  0  0  0  0
  141.9330   75.1750  220.9290 C   0  0  0  0  0  0  0  0  0  0  0  0
  140.8180   74.7360  221.7500 N   0  0  0  0  0  0  0  0  0  0  0  0
  140.6740   73.3470  221.9400 C   0  0  0  0  0  0  0  0  0  0  0  0
  141.5390   72.6050  221.3780 O   0  0  0  0  0  0  0  0  0  0  0  0
  139.6250   72.6690  222.7220 C   0  0  1  0  0  0  0  0  0  0  0  0
  138.3450   72.9610  222.1800 N   0  0  0  0  0  0  0  0  0  0  0  0
  139.9130   71.2080  222.9630 C   0  0  0  0  0  0  0  0  0  0  0  0
  140.1760   70.8310  224.3480 C   0  0  0  0  0  0  0  0  0  0  0  0
  140.6590   71.6900  225.3100 C   0  0  0  0  0  0  0  0  0  0  0  0
  140.8960   71.3050  226.6210 C   0  0  0  0  0  0  0  0  0  0  0  0
  141.4200   72.2620  227.6350 C   0  0  0  0  0  0  0  0  0  0  0  0
  140.6470   70.0140  227.0020 C   0  0  0  0  0  0  0  0  0  0  0  0
  140.1640   69.1400  226.0580 C   0  0  0  0  0  0  0  0  0  0  0  0
  139.8860   67.7220  226.4850 C   0  0  0  0  0  0  0  0  0  0  0  0
  139.9280   69.5280  224.7510 C   0  0  0  0  0  0  0  0  0  0  0  0
  139.9450   75.7280  222.3200 C   0  0  0  0  0  0  0  0  0  0  0  0
  140.3370   77.1390  222.0350 C   0  0  0  0  0  0  0  0  0  0  0  0
  143.3530   81.4362  218.5511 H   0  0  0  0  0  0  0  0  0  0  0  0
  143.0224   80.2541  217.2396 H   0  0  0  0  0  0  0  0  0  0  0  0
  142.1973   81.8497  217.2396 H   0  0  0  0  0  0  0  0  0  0  0  0
  141.1744   81.1330  219.5102 H   0  0  0  0  0  0  0  0  0  0  0  0
  140.5511   80.2985  218.0674 H   0  0  0  0  0  0  0  0  0  0  0  0
  143.5694   78.6586  222.2326 H   0  0  0  0  0  0  0  0  0  0  0  0
  143.8361   80.1673  224.1740 H   0  0  0  0  0  0  0  0  0  0  0  0
  142.1364   81.8826  224.7315 H   0  0  0  0  0  0  0  0  0  0  0  0
  140.1130   82.0663  223.2742 H   0  0  0  0  0  0  0  0  0  0  0  0
  139.8594   80.5704  221.3616 H   0  0  0  0  0  0  0  0  0  0  0  0
  139.8585   77.4479  220.0434 H   0  0  0  0  0  0  0  0  0  0  0  0
  141.0393   75.9144  219.1763 H   0  0  0  0  0  0  0  0  0  0  0  0
  142.5620   76.7764  219.7747 H   0  0  0  0  0  0  0  0  0  0  0  0
  142.2615   74.3294  220.3069 H   0  0  0  0  0  0  0  0  0  0  0  0
  142.7221   75.5209  221.6128 H   0  0  0  0  0  0  0  0  0  0  0  0
  139.6229   73.0797  223.7425 H   0  0  0  0  0  0  0  0  0  0  0  0
  138.3550   73.1930  221.1590 H   0  0  0  0  0  0  0  0  0  0  0  0
  137.6980   73.5190  222.7310 H   0  0  0  0  0  0  0  0  0  0  0  0
  139.0431   70.6311  222.6159 H   0  0  0  0  0  0  0  0  0  0  0  0
  140.8416   70.9928  222.4141 H   0  0  0  0  0  0  0  0  0  0  0  0
  140.8668   72.7318  225.0247 H   0  0  0  0  0  0  0  0  0  0  0  0
  141.2099   71.8783  228.6443 H   0  0  0  0  0  0  0  0  0  0  0  0
  142.5063   72.3759  227.5048 H   0  0  0  0  0  0  0  0  0  0  0  0
  140.9307   73.2386  227.5048 H   0  0  0  0  0  0  0  0  0  0  0  0
  140.8286   69.6851  228.0358 H   0  0  0  0  0  0  0  0  0  0  0  0
  139.8749   67.6653  227.5835 H   0  0  0  0  0  0  0  0  0  0  0  0
  138.9087   67.4055  226.0916 H   0  0  0  0  0  0  0  0  0  0  0  0
  140.6714   67.0599  226.0916 H   0  0  0  0  0  0  0  0  0  0  0  0
  139.5406   68.7969  224.0261 H   0  0  0  0  0  0  0  0  0  0  0  0
  138.9335   75.5655  221.9194 H   0  0  0  0  0  0  0  0  0  0  0  0
  140.0026   75.6032  223.4114 H   0  0  0  0  0  0  0  0  0  0  0  0
  139.4687   77.7815  222.2428 H   0  0  0  0  0  0  0  0  0  0  0  0
  141.2047   77.3493  222.6775 H   0  0  0  0  0  0  0  0  0  0  0  0
  1  2  1  0
  2  3  1  0
  3  4  2  0
  3  5  1  0
  5  6  1  0
  6  7  2  0
  7  8  1  0
  8  9  2  0
  9 10  1  0
 10 11  2  0
  5 12  1  0
 12 13  1  0
 13 14  1  0
 14 15  1  0
 15 16  1  0
 16 17  2  0
 16 18  1  0
 18 19  1  0
 18 20  1  0
 20 21  1  0
 21 22  2  0
 22 23  1  0
 23 24  1  0
 23 25  2  0
 25 26  1  0
 26 27  1  0
 26 28  2  0
 15 29  1  0
 29 30  1  0
 11  6  1  0
 30 12  1  0
 28 21  1  0
  1 31  1  0
  1 32  1  0
  1 33  1  0
  2 34  1  0
  2 35  1  0
  7 36  1  0
  8 37  1  0
  9 38  1  0
 10 39  1  0
 11 40  1  0
 12 41  1  0
 13 42  1  0
 13 43  1  0
 14 44  1  0
 14 45  1  0
 18 46  1  1
 19 47  1  0
 19 48  1  0
 20 49  1  0
 20 50  1  0
 22 51  1  0
 24 52  1  0
 24 53  1  0
 24 54  1  0
 25 55  1  0
 27 56  1  0
 27 57  1  0
 27 58  1  0
 28 59  1  0
 29 60  1  0
 29 61  1  0
 30 62  1  0
 30 63  1  0
M  END
>  <smiles>  (10) 
CCC(=O)N(c1ccccc1)C1CCN(C(=O)[C@@H](N)Cc2cc(C)cc(C)c2)CC1

>  <score_type>  (10) 
oracle

>  <origin>  (10) 
autodockgpu

>  <m_score__min__energy>  (10) 
-8.5899999999999999

>  <m_primary>  (10) 
energy

>  <rmsd>  (10) 
6.22122690395455

>  <m_score__min__rmsd>  (10) 
6.22122690395455

>  <meeko>  (10) 
{"free_energy": -8.59, "intermolecular_energy": -10.97, "internal_energy": -1.54, "cluster_size": 21, "cluster_id": 1, "rank_in_cluster": 1}

>  <energy>  (10) 
-7.98

>  <cluster_rmsd>  (10) 
1.57

>  <cluster>  (10) 
1

$$$$

     RDKit          3D

 63 65  0  0  0  0  0  0  0  0999 V2000
  134.0740   82.9560  223.4380 C   0  0  0  0  0  0  0  0  0  0  0  0
  135.3020   82.6640  222.5910 C   0  0  0  0  0  0  0  0  0  0  0  0
  136.4830   82.7650  223.4830 C   0  0  0  0  0  0  0  0  0  0  0  0
  137.3540   83.6180  223.1820 O   0  0  0  0  0  0  0  0  0  0  0  0
  136.6110   81.9160  224.6380 N   0  0  0  0  0  0  0  0  0  0  0  0
  136.2150   82.4640  225.9110 C   0  0  0  0  0  0  0  0  0  0  0  0
  135.8560   81.6770  226.9760 C   0  0  0  0  0  0  0  0  0  0  0  0
  135.4870   82.2870  228.1660 C   0  0  0  0  0  0  0  0  0  0  0  0
  135.4670   83.6570  228.3240 C   0  0  0  0  0  0  0  0  0  0  0  0
  135.8310   84.4280  227.2450 C   0  0  0  0  0  0  0  0  0  0  0  0
  136.1920   83.8230  226.0760 C   0  0  0  0  0  0  0  0  0  0  0  0
  137.1180   80.5690  224.5180 C   0  0  0  0  0  0  0  0  0  0  0  0
  136.3060   79.7710  223.5600 C   0  0  0  0  0  0  0  0  0  0  0  0
  137.0410   79.1620  222.4200 C   0  0  0  0  0  0  0  0  0  0  0  0
  138.3080   78.5640  222.8030 N   0  0  0  0  0  0  0  0  0  0  0  0
  138.6540   77.3480  222.1800 C   0  0  0  0  0  0  0  0  0  0  0  0
  137.8240   76.8880  221.3340 O   0  0  0  0  0  0  0  0  0  0  0  0
  139.8760   76.5570  222.4080 C   0  0  1  0  0  0  0  0  0  0  0  0
  139.5910   75.1700  222.2860 N   0  0  0  0  0  0  0  0  0  0  0  0
  141.0610   77.0510  221.6180 C   0  0  0  0  0  0  0  0  0  0  0  0
  141.3890   78.4640  221.7790 C   0  0  0  0  0  0  0  0  0  0  0  0
  142.0240   78.9960  222.8790 C   0  0  0  0  0  0  0  0  0  0  0  0
  142.3260   80.3430  223.0030 C   0  0  0  0  0  0  0  0  0  0  0  0
  143.0140   80.8820  224.2100 C   0  0  0  0  0  0  0  0  0  0  0  0
  141.9880   81.2080  221.9980 C   0  0  0  0  0  0  0  0  0  0  0  0
  141.3540   80.6990  220.8890 C   0  0  0  0  0  0  0  0  0  0  0  0
  140.9890   81.6550  219.7830 C   0  0  0  0  0  0  0  0  0  0  0  0
  141.0540   79.3540  220.7690 C   0  0  0  0  0  0  0  0  0  0  0  0
  139.1290   79.2410  223.7720 C   0  0  0  0  0  0  0  0  0  0  0  0
  138.5860   80.5490  224.2410 C   0  0  0  0  0  0  0  0  0  0  0  0
  134.3400   82.8928  224.5035 H   0  0  0  0  0  0  0  0  0  0  0  0
  133.7045   83.9671  223.2117 H   0  0  0  0  0  0  0  0  0  0  0  0
  133.2889   82.2195  223.2117 H   0  0  0  0  0  0  0  0  0  0  0  0
  135.2354   81.6513  222.1668 H   0  0  0  0  0  0  0  0  0  0  0  0
  135.3800   83.3768  221.7569 H   0  0  0  0  0  0  0  0  0  0  0  0
  135.8607   80.5806  226.8877 H   0  0  0  0  0  0  0  0  0  0  0  0
  135.1989   81.6529  229.0174 H   0  0  0  0  0  0  0  0  0  0  0  0
  135.1706   84.1163  229.2786 H   0  0  0  0  0  0  0  0  0  0  0  0
  135.8312   85.5252  227.3235 H   0  0  0  0  0  0  0  0  0  0  0  0
  136.4785   84.4582  225.2249 H   0  0  0  0  0  0  0  0  0  0  0  0
  137.0061   80.0693  225.4916 H   0  0  0  0  0  0  0  0  0  0  0  0
  135.8277   78.9565  224.1236 H   0  0  0  0  0  0  0  0  0  0  0  0
  135.6022   80.4848  223.1070 H   0  0  0  0  0  0  0  0  0  0  0  0
  136.4075   78.3809  221.9743 H   0  0  0  0  0  0  0  0  0  0  0  0
  137.2658   79.9712  221.7096 H   0  0  0  0  0  0  0  0  0  0  0  0
  140.2070   76.7082  223.4461 H   0  0  0  0  0  0  0  0  0  0  0  0
  138.8500   74.9460  221.5790 H   0  0  0  0  0  0  0  0  0  0  0  0
  139.5520   74.6040  223.1280 H   0  0  0  0  0  0  0  0  0  0  0  0
  141.9392   76.4639  221.9247 H   0  0  0  0  0  0  0  0  0  0  0  0
  140.7864   76.9274  220.5600 H   0  0  0  0  0  0  0  0  0  0  0  0
  142.3052   78.3190  223.6991 H   0  0  0  0  0  0  0  0  0  0  0  0
  142.5221   80.4966  225.1152 H   0  0  0  0  0  0  0  0  0  0  0  0
  144.0678   80.5666  224.2029 H   0  0  0  0  0  0  0  0  0  0  0  0
  142.9600   81.9807  224.2029 H   0  0  0  0  0  0  0  0  0  0  0  0
  142.2172   82.2811  222.0751 H   0  0  0  0  0  0  0  0  0  0  0  0
  140.6287   82.5988  220.2182 H   0  0  0  0  0  0  0  0  0  0  0  0
  141.8750   81.8524  219.1617 H   0  0  0  0  0  0  0  0  0  0  0  0
  140.1969   81.2117  219.1617 H   0  0  0  0  0  0  0  0  0  0  0  0
  140.5456   78.9871  219.8652 H   0  0  0  0  0  0  0  0  0  0  0  0
  139.2412   78.5829  224.6462 H   0  0  0  0  0  0  0  0  0  0  0  0
  140.0838   79.4612  223.2721 H   0  0  0  0  0  0  0  0  0  0  0  0
  139.1105   80.8216  225.1687 H   0  0  0  0  0  0  0  0  0  0  0  0
  138.7495   81.2591  223.4169 H   0  0  0  0  0  0  0  0  0  0  0  0
  1  2  1  0
  2  3  1  0
  3  4  2  0
  3  5  1  0
  5  6  1  0
  6  7  2  0
  7  8  1  0
  8  9  2  0
  9 10  1  0
 10 11  2  0
  5 12  1  0
 12 13  1  0
 13 14  1  0
 14 15  1  0
 15 16  1  0
 16 17  2  0
 16 18  1  0
 18 19  1  0
 18 20  1  0
 20 21  1  0
 21 22  2  0
 22 23  1  0
 23 24  1  0
 23 25  2  0
 25 26  1  0
 26 27  1  0
 26 28  2  0
 15 29  1  0
 29 30  1  0
 11  6  1  0
 30 12  1  0
 28 21  1  0
  1 31  1  0
  1 32  1  0
  1 33  1  0
  2 34  1  0
  2 35  1  0
  7 36  1  0
  8 37  1  0
  9 38  1  0
 10 39  1  0
 11 40  1  0
 12 41  1  0
 13 42  1  0
 13 43  1  0
 14 44  1  0
 14 45  1  0
 18 46  1  1
 19 47  1  0
 19 48  1  0
 20 49  1  0
 20 50  1  0
 22 51  1  0
 24 52  1  0
 24 53  1  0
 24 54  1  0
 25 55  1  0
 27 56  1  0
 27 57  1  0
 27 58  1  0
 28 59  1  0
 29 60  1  0
 29 61  1  0
 30 62  1  0
 30 63  1  0
M  END
>  <smiles>  (11) 
CCC(=O)N(c1ccccc1)C1CCN(C(=O)[C@@H](N)Cc2cc(C)cc(C)c2)CC1

>  <score_type>  (11) 
oracle

>  <origin>  (11) 
autodockgpu

>  <m_score__min__energy>  (11) 
-8.5899999999999999

>  <m_primary>  (11) 
energy

>  <rmsd>  (11) 
4.670855035889021

>  <m_score__min__rmsd>  (11) 
4.670855035889021

>  <meeko>  (11) 
{"free_energy": -6.5, "intermolecular_energy": -8.89, "internal_energy": -2.72, "cluster_size": 17, "cluster_id": 5, "rank_in_cluster": 8}

>  <energy>  (11) 
-7.98

>  <cluster_rmsd>  (11) 
1.47

>  <cluster>  (11) 
1

$$$$

     RDKit          3D

 63 65  0  0  0  0  0  0  0  0999 V2000
  146.3490   73.1500  221.8130 C   0  0  0  0  0  0  0  0  0  0  0  0
  145.8410   74.0900  220.7310 C   0  0  0  0  0  0  0  0  0  0  0  0
  145.6580   73.2810  219.5010 C   0  0  0  0  0  0  0  0  0  0  0  0
  146.3200   72.2170  219.4140 O   0  0  0  0  0  0  0  0  0  0  0  0
  144.7600   73.7110  218.4610 N   0  0  0  0  0  0  0  0  0  0  0  0
  145.2780   73.7590  217.1160 C   0  0  0  0  0  0  0  0  0  0  0  0
  144.4660   73.8010  216.0120 C   0  0  0  0  0  0  0  0  0  0  0  0
  145.0470   73.8450  214.7540 C   0  0  0  0  0  0  0  0  0  0  0  0
  146.4130   73.8500  214.5650 C   0  0  0  0  0  0  0  0  0  0  0  0
  147.2110   73.8090  215.6850 C   0  0  0  0  0  0  0  0  0  0  0  0
  146.6330   73.7650  216.9210 C   0  0  0  0  0  0  0  0  0  0  0  0
  143.3960   74.0790  218.7610 C   0  0  0  0  0  0  0  0  0  0  0  0
  142.7580   73.0850  219.6650 C   0  0  0  0  0  0  0  0  0  0  0  0
  142.2060   73.6140  220.9410 C   0  0  0  0  0  0  0  0  0  0  0  0
  141.4800   74.8620  220.7840 N   0  0  0  0  0  0  0  0  0  0  0  0
  140.3060   75.0170  221.5480 C   0  0  0  0  0  0  0  0  0  0  0  0
  139.9920   74.0490  222.3100 O   0  0  0  0  0  0  0  0  0  0  0  0
  139.4060   76.1840  221.5540 C   0  0  1  0  0  0  0  0  0  0  0  0
  138.7710   76.3060  222.8190 N   0  0  0  0  0  0  0  0  0  0  0  0
  140.0550   77.4390  221.0270 C   0  0  0  0  0  0  0  0  0  0  0  0
  140.2060   78.5280  221.9870 C   0  0  0  0  0  0  0  0  0  0  0  0
  139.1590   79.1590  222.6210 C   0  0  0  0  0  0  0  0  0  0  0  0
  139.3330   80.1890  223.5320 C   0  0  0  0  0  0  0  0  0  0  0  0
  138.1740   80.8490  224.1980 C   0  0  0  0  0  0  0  0  0  0  0  0
  140.5960   80.6190  223.8340 C   0  0  0  0  0  0  0  0  0  0  0  0
  141.6570   80.0040  223.2130 C   0  0  0  0  0  0  0  0  0  0  0  0
  143.0470   80.4780  223.5530 C   0  0  0  0  0  0  0  0  0  0  0  0
  141.4800   78.9760  222.3050 C   0  0  0  0  0  0  0  0  0  0  0  0
  141.9970   75.8550  219.8800 C   0  0  0  0  0  0  0  0  0  0  0  0
  143.2920   75.4930  219.2340 C   0  0  0  0  0  0  0  0  0  0  0  0
  146.1206   73.5725  222.8026 H   0  0  0  0  0  0  0  0  0  0  0  0
  145.8568   72.1717  221.7095 H   0  0  0  0  0  0  0  0  0  0  0  0
  147.4371   73.0258  221.7095 H   0  0  0  0  0  0  0  0  0  0  0  0
  144.8822   74.5341  221.0367 H   0  0  0  0  0  0  0  0  0  0  0  0
  146.5540   74.9096  220.5581 H   0  0  0  0  0  0  0  0  0  0  0  0
  143.3716   73.7998  216.1226 H   0  0  0  0  0  0  0  0  0  0  0  0
  144.3919   73.8772  213.8709 H   0  0  0  0  0  0  0  0  0  0  0  0
  146.8487   73.8855  213.5556 H   0  0  0  0  0  0  0  0  0  0  0  0
  148.3065   73.8116  215.5853 H   0  0  0  0  0  0  0  0  0  0  0  0
  147.2884   73.7328  217.8038 H   0  0  0  0  0  0  0  0  0  0  0  0
  142.8150   74.0491  217.8274 H   0  0  0  0  0  0  0  0  0  0  0  0
  141.9324   72.6116  219.1133 H   0  0  0  0  0  0  0  0  0  0  0  0
  143.5632   72.3950  219.9573 H   0  0  0  0  0  0  0  0  0  0  0  0
  141.5211   72.8632  221.3620 H   0  0  0  0  0  0  0  0  0  0  0  0
  143.0600   73.8173  221.6038 H   0  0  0  0  0  0  0  0  0  0  0  0
  138.5998   76.0127  220.8255 H   0  0  0  0  0  0  0  0  0  0  0  0
  138.8880   75.4690  223.4380 H   0  0  0  0  0  0  0  0  0  0  0  0
  137.8510   76.7350  222.8640 H   0  0  0  0  0  0  0  0  0  0  0  0
  141.0568   77.1720  220.6594 H   0  0  0  0  0  0  0  0  0  0  0  0
  139.3788   77.8199  220.2475 H   0  0  0  0  0  0  0  0  0  0  0  0
  138.1345   78.8295  222.3933 H   0  0  0  0  0  0  0  0  0  0  0  0
  138.2916   80.7821  225.2896 H   0  0  0  0  0  0  0  0  0  0  0  0
  138.1321   81.9064  223.8979 H   0  0  0  0  0  0  0  0  0  0  0  0
  137.2432   80.3455  223.8979 H   0  0  0  0  0  0  0  0  0  0  0  0
  140.7581   81.4346  224.5541 H   0  0  0  0  0  0  0  0  0  0  0  0
  143.1637   80.5178  224.6461 H   0  0  0  0  0  0  0  0  0  0  0  0
  143.7857   79.7810  223.1305 H   0  0  0  0  0  0  0  0  0  0  0  0
  143.2059   81.4811  223.1305 H   0  0  0  0  0  0  0  0  0  0  0  0
  142.3564   78.5098  221.8311 H   0  0  0  0  0  0  0  0  0  0  0  0
  141.2520   76.0183  219.0873 H   0  0  0  0  0  0  0  0  0  0  0  0
  142.1902   76.7547  220.4827 H   0  0  0  0  0  0  0  0  0  0  0  0
  143.4351   76.1532  218.3659 H   0  0  0  0  0  0  0  0  0  0  0  0
  144.0629   75.6120  220.0097 H   0  0  0  0  0  0  0  0  0  0  0  0
  1  2  1  0
  2  3  1  0
  3  4  2  0
  3  5  1  0
  5  6  1  0
  6  7  2  0
  7  8  1  0
  8  9  2  0
  9 10  1  0
 10 11  2  0
  5 12  1  0
 12 13  1  0
 13 14  1  0
 14 15  1  0
 15 16  1  0
 16 17  2  0
 16 18  1  0
 18 19  1  0
 18 20  1  0
 20 21  1  0
 21 22  2  0
 22 23  1  0
 23 24  1  0
 23 25  2  0
 25 26  1  0
 26 27  1  0
 26 28  2  0
 15 29  1  0
 29 30  1  0
 11  6  1  0
 30 12  1  0
 28 21  1  0
  1 31  1  0
  1 32  1  0
  1 33  1  0
  2 34  1  0
  2 35  1  0
  7 36  1  0
  8 37  1  0
  9 38  1  0
 10 39  1  0
 11 40  1  0
 12 41  1  0
 13 42  1  0
 13 43  1  0
 14 44  1  0
 14 45  1  0
 18 46  1  6
 19 47  1  0
 19 48  1  0
 20 49  1  0
 20 50  1  0
 22 51  1  0
 24 52  1  0
 24 53  1  0
 24 54  1  0
 25 55  1  0
 27 56  1  0
 27 57  1  0
 27 58  1  0
 28 59  1  0
 29 60  1  0
 29 61  1  0
 30 62  1  0
 30 63  1  0
M  END
>  <smiles>  (12) 
CCC(=O)N(c1ccccc1)C1CCN(C(=O)[C@@H](N)Cc2cc(C)cc(C)c2)CC1

>  <score_type>  (12) 
oracle

>  <origin>  (12) 
autodockgpu

>  <m_score__min__energy>  (12) 
-8.5899999999999999

>  <m_primary>  (12) 
energy

>  <rmsd>  (12) 
5.884721533187647

>  <m_score__min__rmsd>  (12) 
5.884721533187647

>  <meeko>  (12) 
{"free_energy": -7.48, "intermolecular_energy": -9.86, "internal_energy": -1.75, "cluster_size": 3, "cluster_id": 3, "rank_in_cluster": 1}

>  <energy>  (12) 
-7.95

>  <cluster_rmsd>  (12) 
1.39

>  <cluster>  (12) 
1

$$$$

     RDKit          3D

 63 65  0  0  0  0  0  0  0  0999 V2000
  147.0450   73.3840  222.0770 C   0  0  0  0  0  0  0  0  0  0  0  0
  145.6480   73.6480  221.5360 C   0  0  0  0  0  0  0  0  0  0  0  0
  145.6340   73.1940  220.1240 C   0  0  0  0  0  0  0  0  0  0  0  0
  146.6810   73.3780  219.4550 O   0  0  0  0  0  0  0  0  0  0  0  0
  144.4630   72.5750  219.5590 N   0  0  0  0  0  0  0  0  0  0  0  0
  144.6200   71.2610  218.9870 C   0  0  0  0  0  0  0  0  0  0  0  0
  144.3490   70.1130  219.6850 C   0  0  0  0  0  0  0  0  0  0  0  0
  144.5270   68.8890  219.0580 C   0  0  0  0  0  0  0  0  0  0  0  0
  144.9660   68.7780  217.7540 C   0  0  0  0  0  0  0  0  0  0  0  0
  145.2320   69.9410  217.0710 C   0  0  0  0  0  0  0  0  0  0  0  0
  145.0550   71.1430  217.6930 C   0  0  0  0  0  0  0  0  0  0  0  0
  143.1870   73.2500  219.5700 C   0  0  0  0  0  0  0  0  0  0  0  0
  142.1740   72.4730  220.3330 C   0  0  0  0  0  0  0  0  0  0  0  0
  141.5140   73.1800  221.4630 C   0  0  0  0  0  0  0  0  0  0  0  0
  141.1360   74.5460  221.1490 N   0  0  0  0  0  0  0  0  0  0  0  0
  139.9010   74.9990  221.6530 C   0  0  0  0  0  0  0  0  0  0  0  0
  139.2320   74.1680  222.3450 O   0  0  0  0  0  0  0  0  0  0  0  0
  139.3060   76.3340  221.4630 C   0  0  1  0  0  0  0  0  0  0  0  0
  137.9220   76.2150  221.1660 N   0  0  0  0  0  0  0  0  0  0  0  0
  139.6560   77.3030  222.5630 C   0  0  0  0  0  0  0  0  0  0  0  0
  140.5980   78.3590  222.2060 C   0  0  0  0  0  0  0  0  0  0  0  0
  140.8610   78.7640  220.9160 C   0  0  0  0  0  0  0  0  0  0  0  0
  141.7600   79.7730  220.6060 C   0  0  0  0  0  0  0  0  0  0  0  0
  142.0190   80.1830  219.1970 C   0  0  0  0  0  0  0  0  0  0  0  0
  142.4310   80.4140  221.6110 C   0  0  0  0  0  0  0  0  0  0  0  0
  142.1840   80.0260  222.9070 C   0  0  0  0  0  0  0  0  0  0  0  0
  142.9220   80.7390  224.0100 C   0  0  0  0  0  0  0  0  0  0  0  0
  141.2870   79.0190  223.2120 C   0  0  0  0  0  0  0  0  0  0  0  0
  142.0330   75.3490  220.3610 C   0  0  0  0  0  0  0  0  0  0  0  0
  143.3140   74.6760  219.9970 C   0  0  0  0  0  0  0  0  0  0  0  0
  147.0193   73.3889  223.1767 H   0  0  0  0  0  0  0  0  0  0  0  0
  147.3962   72.4036  221.7228 H   0  0  0  0  0  0  0  0  0  0  0  0
  147.7297   74.1686  221.7228 H   0  0  0  0  0  0  0  0  0  0  0  0
  144.9046   73.0860  222.1204 H   0  0  0  0  0  0  0  0  0  0  0  0
  145.3965   74.7166  221.6061 H   0  0  0  0  0  0  0  0  0  0  0  0
  143.9960   70.1618  220.7257 H   0  0  0  0  0  0  0  0  0  0  0  0
  144.3097   67.9700  219.6222 H   0  0  0  0  0  0  0  0  0  0  0  0
  145.0982   67.7948  217.2787 H   0  0  0  0  0  0  0  0  0  0  0  0
  145.5852   69.9031  216.0299 H   0  0  0  0  0  0  0  0  0  0  0  0
  145.2721   72.0615  217.1281 H   0  0  0  0  0  0  0  0  0  0  0  0
  142.8113   73.2963  218.5372 H   0  0  0  0  0  0  0  0  0  0  0  0
  141.3890   72.1627  219.6277 H   0  0  0  0  0  0  0  0  0  0  0  0
  142.7279   71.6407  220.7917 H   0  0  0  0  0  0  0  0  0  0  0  0
  140.6071   72.6227  221.7405 H   0  0  0  0  0  0  0  0  0  0  0  0
  142.2427   73.2266  222.2857 H   0  0  0  0  0  0  0  0  0  0  0  0
  139.7653   76.8045  220.5811 H   0  0  0  0  0  0  0  0  0  0  0  0
  137.5030   75.2930  221.4390 H   0  0  0  0  0  0  0  0  0  0  0  0
  137.5780   76.5880  220.2860 H   0  0  0  0  0  0  0  0  0  0  0  0
  138.7246   77.7818  222.8995 H   0  0  0  0  0  0  0  0  0  0  0  0
  140.1584   76.7052  223.3378 H   0  0  0  0  0  0  0  0  0  0  0  0
  140.3322   78.2627  220.0919 H   0  0  0  0  0  0  0  0  0  0  0  0
  142.6065   81.1129  219.1878 H   0  0  0  0  0  0  0  0  0  0  0  0
  142.5802   79.3897  218.6815 H   0  0  0  0  0  0  0  0  0  0  0  0
  141.0615   80.3490  218.6815 H   0  0  0  0  0  0  0  0  0  0  0  0
  143.1484   81.2177  221.3886 H   0  0  0  0  0  0  0  0  0  0  0  0
  142.5555   80.3849  224.9849 H   0  0  0  0  0  0  0  0  0  0  0  0
  143.9987   80.5304  223.9252 H   0  0  0  0  0  0  0  0  0  0  0  0
  142.7506   81.8223  223.9252 H   0  0  0  0  0  0  0  0  0  0  0  0
  141.1185   78.7389  224.2623 H   0  0  0  0  0  0  0  0  0  0  0  0
  141.5161   75.6282  219.4310 H   0  0  0  0  0  0  0  0  0  0  0  0
  142.3024   76.2156  220.9826 H   0  0  0  0  0  0  0  0  0  0  0  0
  143.7706   75.2391  219.1697 H   0  0  0  0  0  0  0  0  0  0  0  0
  143.9234   74.6663  220.9127 H   0  0  0  0  0  0  0  0  0  0  0  0
  1  2  1  0
  2  3  1  0
  3  4  2  0
  3  5  1  0
  5  6  1  0
  6  7  2  0
  7  8  1  0
  8  9  2  0
  9 10  1  0
 10 11  2  0
  5 12  1  0
 12 13  1  0
 13 14  1  0
 14 15  1  0
 15 16  1  0
 16 17  2  0
 16 18  1  0
 18 19  1  0
 18 20  1  0
 20 21  1  0
 21 22  2  0
 22 23  1  0
 23 24  1  0
 23 25  2  0
 25 26  1  0
 26 27  1  0
 26 28  2  0
 15 29  1  0
 29 30  1  0
 11  6  1  0
 30 12  1  0
 28 21  1  0
  1 31  1  0
  1 32  1  0
  1 33  1  0
  2 34  1  0
  2 35  1  0
  7 36  1  0
  8 37  1  0
  9 38  1  0
 10 39  1  0
 11 40  1  0
 12 41  1  0
 13 42  1  0
 13 43  1  0
 14 44  1  0
 14 45  1  0
 18 46  1  6
 19 47  1  0
 19 48  1  0
 20 49  1  0
 20 50  1  0
 22 51  1  0
 24 52  1  0
 24 53  1  0
 24 54  1  0
 25 55  1  0
 27 56  1  0
 27 57  1  0
 27 58  1  0
 28 59  1  0
 29 60  1  0
 29 61  1  0
 30 62  1  0
 30 63  1  0
M  END
>  <smiles>  (13) 
CCC(=O)N(c1ccccc1)C1CCN(C(=O)[C@@H](N)Cc2cc(C)cc(C)c2)CC1

>  <score_type>  (13) 
oracle

>  <origin>  (13) 
autodockgpu

>  <m_score__min__energy>  (13) 
-8.5899999999999999

>  <m_primary>  (13) 
energy

>  <rmsd>  (13) 
6.143586604047898

>  <m_score__min__rmsd>  (13) 
6.143586604047898

>  <meeko>  (13) 
{"free_energy": -6.87, "intermolecular_energy": -9.26, "internal_energy": -2.16, "cluster_size": 3, "cluster_id": 2, "rank_in_cluster": 3}

>  <energy>  (13) 
-7.93

>  <cluster_rmsd>  (13) 
1.37

>  <cluster>  (13) 
1

$$$$

     RDKit          3D

 63 65  0  0  0  0  0  0  0  0999 V2000
  142.5910   78.4140  217.4940 C   0  0  0  0  0  0  0  0  0  0  0  0
  142.5580   79.4910  218.5670 C   0  0  0  0  0  0  0  0  0  0  0  0
  141.2080   79.4550  219.1810 C   0  0  0  0  0  0  0  0  0  0  0  0
  140.2640   79.9410  218.5100 O   0  0  0  0  0  0  0  0  0  0  0  0
  141.0060   78.8870  220.4880 N   0  0  0  0  0  0  0  0  0  0  0  0
  141.4450   79.6610  221.6220 C   0  0  0  0  0  0  0  0  0  0  0  0
  142.5580   79.3360  222.3540 C   0  0  0  0  0  0  0  0  0  0  0  0
  142.9100   80.1360  223.4310 C   0  0  0  0  0  0  0  0  0  0  0  0
  142.1840   81.2500  223.7990 C   0  0  0  0  0  0  0  0  0  0  0  0
  141.0710   81.5590  223.0520 C   0  0  0  0  0  0  0  0  0  0  0  0
  140.7290   80.7680  221.9940 C   0  0  0  0  0  0  0  0  0  0  0  0
  140.3870   77.5920  220.6490 C   0  0  0  0  0  0  0  0  0  0  0  0
  141.0960   76.5550  219.8520 C   0  0  0  0  0  0  0  0  0  0  0  0
  141.6040   75.3780  220.6050 C   0  0  0  0  0  0  0  0  0  0  0  0
  140.6620   74.8670  221.5840 N   0  0  0  0  0  0  0  0  0  0  0  0
  140.5760   73.4670  221.7170 C   0  0  0  0  0  0  0  0  0  0  0  0
  141.3380   72.7780  220.9680 O   0  0  0  0  0  0  0  0  0  0  0  0
  139.6950   72.7200  222.6340 C   0  0  1  0  0  0  0  0  0  0  0  0
  138.3360   72.9100  222.2690 N   0  0  0  0  0  0  0  0  0  0  0  0
  140.1230   71.2880  222.8350 C   0  0  0  0  0  0  0  0  0  0  0  0
  140.2060   70.8380  224.2200 C   0  0  0  0  0  0  0  0  0  0  0  0
  139.8540   69.5790  224.6530 C   0  0  0  0  0  0  0  0  0  0  0  0
  139.9470   69.1760  225.9760 C   0  0  0  0  0  0  0  0  0  0  0  0
  139.5550   67.8050  226.4060 C   0  0  0  0  0  0  0  0  0  0  0  0
  140.4090   70.0540  226.9190 C   0  0  0  0  0  0  0  0  0  0  0  0
  140.7670   71.3170  226.5100 C   0  0  0  0  0  0  0  0  0  0  0  0
  141.2800   72.2770  227.5520 C   0  0  0  0  0  0  0  0  0  0  0  0
  140.6730   71.7140  225.1890 C   0  0  0  0  0  0  0  0  0  0  0  0
  139.8900   75.8040  222.3570 C   0  0  0  0  0  0  0  0  0  0  0  0
  140.2020   77.2370  222.0890 C   0  0  0  0  0  0  0  0  0  0  0  0
  142.6214   77.4229  217.9701 H   0  0  0  0  0  0  0  0  0  0  0  0
  141.6900   78.4925  216.8678 H   0  0  0  0  0  0  0  0  0  0  0  0
  143.4855   78.5475  216.8678 H   0  0  0  0  0  0  0  0  0  0  0  0
  143.3246   79.2876  219.3292 H   0  0  0  0  0  0  0  0  0  0  0  0
  142.7646   80.4809  218.1341 H   0  0  0  0  0  0  0  0  0  0  0  0
  143.1620   78.4550  222.0913 H   0  0  0  0  0  0  0  0  0  0  0  0
  143.8038   79.8717  224.0151 H   0  0  0  0  0  0  0  0  0  0  0  0
  142.4841   81.8682  224.6579 H   0  0  0  0  0  0  0  0  0  0  0  0
  140.4606   82.4381  223.3059 H   0  0  0  0  0  0  0  0  0  0  0  0
  139.8343   81.0323  221.4112 H   0  0  0  0  0  0  0  0  0  0  0  0
  139.3684   77.6415  220.2367 H   0  0  0  0  0  0  0  0  0  0  0  0
  140.3985   76.1867  219.0853 H   0  0  0  0  0  0  0  0  0  0  0  0
  141.9902   77.0544  219.4506 H   0  0  0  0  0  0  0  0  0  0  0  0
  141.8294   74.5759  219.8868 H   0  0  0  0  0  0  0  0  0  0  0  0
  142.4972   75.7072  221.1562 H   0  0  0  0  0  0  0  0  0  0  0  0
  139.7980   73.1396  223.6456 H   0  0  0  0  0  0  0  0  0  0  0  0
  137.7560   73.3770  223.0060 H   0  0  0  0  0  0  0  0  0  0  0  0
  137.8570   72.1680  221.7660 H   0  0  0  0  0  0  0  0  0  0  0  0
  139.4000   70.6435  222.3136 H   0  0  0  0  0  0  0  0  0  0  0  0
  141.1471   71.2242  222.4386 H   0  0  0  0  0  0  0  0  0  0  0  0
  139.4804   68.8571  223.9119 H   0  0  0  0  0  0  0  0  0  0  0  0
  139.5408   67.7554  227.5048 H   0  0  0  0  0  0  0  0  0  0  0  0
  138.5538   67.5704  226.0154 H   0  0  0  0  0  0  0  0  0  0  0  0
  140.2809   67.0766  226.0154 H   0  0  0  0  0  0  0  0  0  0  0  0
  140.4916   69.7573  227.9750 H   0  0  0  0  0  0  0  0  0  0  0  0
  141.0668   71.8781  228.5547 H   0  0  0  0  0  0  0  0  0  0  0  0
  142.3660   72.4036  227.4310 H   0  0  0  0  0  0  0  0  0  0  0  0
  140.7817   73.2502  227.4310 H   0  0  0  0  0  0  0  0  0  0  0  0
  140.9712   72.7337  224.9038 H   0  0  0  0  0  0  0  0  0  0  0  0
  138.8257   75.6374  222.1345 H   0  0  0  0  0  0  0  0  0  0  0  0
  140.1446   75.6219  223.4115 H   0  0  0  0  0  0  0  0  0  0  0  0
  139.3751   77.8447  222.4853 H   0  0  0  0  0  0  0  0  0  0  0  0
  141.1676   77.4345  222.5774 H   0  0  0  0  0  0  0  0  0  0  0  0
  1  2  1  0
  2  3  1  0
  3  4  2  0
  3  5  1  0
  5  6  1  0
  6  7  2  0
  7  8  1  0
  8  9  2  0
  9 10  1  0
 10 11  2  0
  5 12  1  0
 12 13  1  0
 13 14  1  0
 14 15  1  0
 15 16  1  0
 16 17  2  0
 16 18  1  0
 18 19  1  0
 18 20  1  0
 20 21  1  0
 21 22  2  0
 22 23  1  0
 23 24  1  0
 23 25  2  0
 25 26  1  0
 26 27  1  0
 26 28  2  0
 15 29  1  0
 29 30  1  0
 11  6  1  0
 30 12  1  0
 28 21  1  0
  1 31  1  0
  1 32  1  0
  1 33  1  0
  2 34  1  0
  2 35  1  0
  7 36  1  0
  8 37  1  0
  9 38  1  0
 10 39  1  0
 11 40  1  0
 12 41  1  0
 13 42  1  0
 13 43  1  0
 14 44  1  0
 14 45  1  0
 18 46  1  1
 19 47  1  0
 19 48  1  0
 20 49  1  0
 20 50  1  0
 22 51  1  0
 24 52  1  0
 24 53  1  0
 24 54  1  0
 25 55  1  0
 27 56  1  0
 27 57  1  0
 27 58  1  0
 28 59  1  0
 29 60  1  0
 29 61  1  0
 30 62  1  0
 30 63  1  0
M  END
>  <smiles>  (14) 
CCC(=O)N(c1ccccc1)C1CCN(C(=O)[C@@H](N)Cc2cc(C)cc(C)c2)CC1

>  <score_type>  (14) 
oracle

>  <origin>  (14) 
autodockgpu

>  <m_score__min__energy>  (14) 
-8.5899999999999999

>  <m_primary>  (14) 
energy

>  <rmsd>  (14) 
6.108625881617202

>  <m_score__min__rmsd>  (14) 
6.108625881617202

>  <meeko>  (14) 
{"free_energy": -8.31, "intermolecular_energy": -10.7, "internal_energy": -1.52, "cluster_size": 21, "cluster_id": 1, "rank_in_cluster": 4}

>  <energy>  (14) 
-7.9

>  <cluster_rmsd>  (14) 
1.46

>  <cluster>  (14) 
1

$$$$

     RDKit          3D

 63 65  0  0  0  0  0  0  0  0999 V2000
  142.1600   79.6370  218.6660 C   0  0  0  0  0  0  0  0  0  0  0  0
  142.1040   78.2130  219.1960 C   0  0  0  0  0  0  0  0  0  0  0  0
  140.8730   78.1000  220.0150 C   0  0  0  0  0  0  0  0  0  0  0  0
  139.7750   78.1490  219.4050 O   0  0  0  0  0  0  0  0  0  0  0  0
  140.9480   77.9410  221.4440 N   0  0  0  0  0  0  0  0  0  0  0  0
  141.2700   79.1100  222.2240 C   0  0  0  0  0  0  0  0  0  0  0  0
  140.3110   79.9560  222.7190 C   0  0  0  0  0  0  0  0  0  0  0  0
  140.7080   81.0590  223.4600 C   0  0  0  0  0  0  0  0  0  0  0  0
  142.0330   81.3410  223.7230 C   0  0  0  0  0  0  0  0  0  0  0  0
  142.9790   80.4790  223.2190 C   0  0  0  0  0  0  0  0  0  0  0  0
  142.5830   79.3960  222.4900 C   0  0  0  0  0  0  0  0  0  0  0  0
  140.7090   76.6590  222.0630 C   0  0  0  0  0  0  0  0  0  0  0  0
  139.2640   76.4630  222.3560 C   0  0  0  0  0  0  0  0  0  0  0  0
  138.6270   75.2580  221.7620 C   0  0  0  0  0  0  0  0  0  0  0  0
  139.4450   74.0620  221.8650 N   0  0  0  0  0  0  0  0  0  0  0  0
  138.7790   72.8560  222.1580 C   0  0  0  0  0  0  0  0  0  0  0  0
  137.5170   72.9250  222.3010 O   0  0  0  0  0  0  0  0  0  0  0  0
  139.3910   71.5250  222.3160 C   0  0  1  0  0  0  0  0  0  0  0  0
  139.5160   70.8910  221.0500 N   0  0  0  0  0  0  0  0  0  0  0  0
  140.6390   71.5400  223.1630 C   0  0  0  0  0  0  0  0  0  0  0  0
  140.5000   70.9950  224.5090 C   0  0  0  0  0  0  0  0  0  0  0  0
  140.8470   71.6660  225.6610 C   0  0  0  0  0  0  0  0  0  0  0  0
  140.7010   71.1240  226.9290 C   0  0  0  0  0  0  0  0  0  0  0  0
  141.0880   71.8810  228.1520 C   0  0  0  0  0  0  0  0  0  0  0  0
  140.1890   69.8630  227.0700 C   0  0  0  0  0  0  0  0  0  0  0  0
  139.8360   69.1740  225.9340 C   0  0  0  0  0  0  0  0  0  0  0  0
  139.2690   67.7870  226.0960 C   0  0  0  0  0  0  0  0  0  0  0  0
  139.9830   69.7180  224.6710 C   0  0  0  0  0  0  0  0  0  0  0  0
  140.8650   74.1740  221.6560 C   0  0  0  0  0  0  0  0  0  0  0  0
  141.3330   75.5420  221.2910 C   0  0  0  0  0  0  0  0  0  0  0  0
  142.1877   80.3416  219.5102 H   0  0  0  0  0  0  0  0  0  0  0  0
  143.0639   79.7645  218.0522 H   0  0  0  0  0  0  0  0  0  0  0  0
  141.2690   79.8351  218.0522 H   0  0  0  0  0  0  0  0  0  0  0  0
  142.0670   77.5002  218.3590 H   0  0  0  0  0  0  0  0  0  0  0  0
  142.9963   77.9839  219.7971 H   0  0  0  0  0  0  0  0  0  0  0  0
  139.2444   79.7630  222.5314 H   0  0  0  0  0  0  0  0  0  0  0  0
  139.9358   81.7362  223.8539 H   0  0  0  0  0  0  0  0  0  0  0  0
  142.3220   82.2226  224.3139 H   0  0  0  0  0  0  0  0  0  0  0  0
  144.0481   80.6617  223.4026 H   0  0  0  0  0  0  0  0  0  0  0  0
  143.3558   78.7193  222.0966 H   0  0  0  0  0  0  0  0  0  0  0  0
  141.2156   76.6475  223.0393 H   0  0  0  0  0  0  0  0  0  0  0  0
  139.1497   76.3981  223.4481 H   0  0  0  0  0  0  0  0  0  0  0  0
  138.7531   77.3211  221.8949 H   0  0  0  0  0  0  0  0  0  0  0  0
  137.6750   75.0750  222.2818 H   0  0  0  0  0  0  0  0  0  0  0  0
  138.4837   75.4617  220.6906 H   0  0  0  0  0  0  0  0  0  0  0  0
  138.7134   70.8918  222.9074 H   0  0  0  0  0  0  0  0  0  0  0  0
  138.8510   71.2500  220.3250 H   0  0  0  0  0  0  0  0  0  0  0  0
  139.6680   69.8870  221.0210 H   0  0  0  0  0  0  0  0  0  0  0  0
  141.4090   70.9542  222.6397 H   0  0  0  0  0  0  0  0  0  0  0  0
  140.8969   72.6011  223.2957 H   0  0  0  0  0  0  0  0  0  0  0  0
  141.2601   72.6815  225.5706 H   0  0  0  0  0  0  0  0  0  0  0  0
  140.7956   71.3091  229.0450 H   0  0  0  0  0  0  0  0  0  0  0  0
  142.1768   72.0376  228.1571 H   0  0  0  0  0  0  0  0  0  0  0  0
  140.5774   72.8553  228.1571 H   0  0  0  0  0  0  0  0  0  0  0  0
  140.0632   69.4126  228.0657 H   0  0  0  0  0  0  0  0  0  0  0  0
  139.1732   67.5527  227.1665 H   0  0  0  0  0  0  0  0  0  0  0  0
  138.2786   67.7378  225.6199 H   0  0  0  0  0  0  0  0  0  0  0  0
  139.9413   67.0581  225.6199 H   0  0  0  0  0  0  0  0  0  0  0  0
  139.6875   69.1331  223.7875 H   0  0  0  0  0  0  0  0  0  0  0  0
  141.3731   73.8739  222.5843 H   0  0  0  0  0  0  0  0  0  0  0  0
  141.1066   73.5239  220.8022 H   0  0  0  0  0  0  0  0  0  0  0  0
  142.4203   75.5833  221.4527 H   0  0  0  0  0  0  0  0  0  0  0  0
  141.0364   75.6947  220.2428 H   0  0  0  0  0  0  0  0  0  0  0  0
  1  2  1  0
  2  3  1  0
  3  4  2  0
  3  5  1  0
  5  6  1  0
  6  7  2  0
  7  8  1  0
  8  9  2  0
  9 10  1  0
 10 11  2  0
  5 12  1  0
 12 13  1  0
 13 14  1  0
 14 15  1  0
 15 16  1  0
 16 17  2  0
 16 18  1  0
 18 19  1  0
 18 20  1  0
 20 21  1  0
 21 22  2  0
 22 23  1  0
 23 24  1  0
 23 25  2  0
 25 26  1  0
 26 27  1  0
 26 28  2  0
 15 29  1  0
 29 30  1  0
 11  6  1  0
 30 12  1  0
 28 21  1  0
  1 31  1  0
  1 32  1  0
  1 33  1  0
  2 34  1  0
  2 35  1  0
  7 36  1  0
  8 37  1  0
  9 38  1  0
 10 39  1  0
 11 40  1  0
 12 41  1  0
 13 42  1  0
 13 43  1  0
 14 44  1  0
 14 45  1  0
 18 46  1  1
 19 47  1  0
 19 48  1  0
 20 49  1  0
 20 50  1  0
 22 51  1  0
 24 52  1  0
 24 53  1  0
 24 54  1  0
 25 55  1  0
 27 56  1  0
 27 57  1  0
 27 58  1  0
 28 59  1  0
 29 60  1  0
 29 61  1  0
 30 62  1  0
 30 63  1  0
M  END
>  <smiles>  (15) 
CCC(=O)N(c1ccccc1)C1CCN(C(=O)[C@@H](N)Cc2cc(C)cc(C)c2)CC1

>  <score_type>  (15) 
oracle

>  <origin>  (15) 
autodockgpu

>  <m_score__min__energy>  (15) 
-8.5899999999999999

>  <m_primary>  (15) 
energy

>  <rmsd>  (15) 
6.630908648426138

>  <m_score__min__rmsd>  (15) 
6.630908648426138

>  <meeko>  (15) 
{"free_energy": -7.98, "intermolecular_energy": -10.37, "internal_energy": -1.65, "cluster_size": 21, "cluster_id": 1, "rank_in_cluster": 11}

>  <energy>  (15) 
-7.85

>  <cluster_rmsd>  (15) 
1.57

>  <cluster>  (15) 
1

$$$$

     RDKit          3D

 63 65  0  0  0  0  0  0  0  0999 V2000
  142.1980   80.0650  218.5750 C   0  0  0  0  0  0  0  0  0  0  0  0
  142.1570   78.5900  218.9410 C   0  0  0  0  0  0  0  0  0  0  0  0
  141.0010   78.3970  219.8500 C   0  0  0  0  0  0  0  0  0  0  0  0
  139.8560   78.4310  219.3330 O   0  0  0  0  0  0  0  0  0  0  0  0
  141.1970   78.1830  221.2600 N   0  0  0  0  0  0  0  0  0  0  0  0
  141.5640   79.3250  222.0590 C   0  0  0  0  0  0  0  0  0  0  0  0
  142.5500   79.2750  223.0110 C   0  0  0  0  0  0  0  0  0  0  0  0
  142.8400   80.4220  223.7360 C   0  0  0  0  0  0  0  0  0  0  0  0
  142.1760   81.6150  223.5390 C   0  0  0  0  0  0  0  0  0  0  0  0
  141.1900   81.6440  222.5790 C   0  0  0  0  0  0  0  0  0  0  0  0
  140.9090   80.5130  221.8690 C   0  0  0  0  0  0  0  0  0  0  0  0
  141.0300   76.8720  221.8430 C   0  0  0  0  0  0  0  0  0  0  0  0
  139.6400   76.6730  222.3320 C   0  0  0  0  0  0  0  0  0  0  0  0
  138.9060   75.5050  221.7780 C   0  0  0  0  0  0  0  0  0  0  0  0
  139.7120   74.2990  221.7020 N   0  0  0  0  0  0  0  0  0  0  0  0
  139.0770   73.0840  222.0290 C   0  0  0  0  0  0  0  0  0  0  0  0
  137.8500   73.1560  222.3560 O   0  0  0  0  0  0  0  0  0  0  0  0
  139.6860   71.7420  222.0290 C   0  0  1  0  0  0  0  0  0  0  0  0
  141.0730   71.8350  222.3220 N   0  0  0  0  0  0  0  0  0  0  0  0
  138.9130   70.7390  222.8470 C   0  0  0  0  0  0  0  0  0  0  0  0
  139.4810   70.4060  224.1490 C   0  0  0  0  0  0  0  0  0  0  0  0
  139.5620   69.1300  224.6610 C   0  0  0  0  0  0  0  0  0  0  0  0
  140.1110   68.8430  225.9010 C   0  0  0  0  0  0  0  0  0  0  0  0
  140.1810   67.4490  226.4220 C   0  0  0  0  0  0  0  0  0  0  0  0
  140.6030   69.8590  226.6740 C   0  0  0  0  0  0  0  0  0  0  0  0
  140.5330   71.1410  226.1840 C   0  0  0  0  0  0  0  0  0  0  0  0
  141.0820   72.2550  227.0380 C   0  0  0  0  0  0  0  0  0  0  0  0
  139.9850   71.4240  224.9460 C   0  0  0  0  0  0  0  0  0  0  0  0
  141.0880   74.4100  221.2950 C   0  0  0  0  0  0  0  0  0  0  0  0
  141.5200   75.7920  220.9340 C   0  0  0  0  0  0  0  0  0  0  0  0
  142.2148   80.6703  219.4933 H   0  0  0  0  0  0  0  0  0  0  0  0
  143.1022   80.2710  217.9834 H   0  0  0  0  0  0  0  0  0  0  0  0
  141.3066   80.3209  217.9834 H   0  0  0  0  0  0  0  0  0  0  0  0
  142.0299   77.9799  218.0345 H   0  0  0  0  0  0  0  0  0  0  0  0
  143.0936   78.2819  219.4287 H   0  0  0  0  0  0  0  0  0  0  0  0
  143.1015   78.3415  223.1966 H   0  0  0  0  0  0  0  0  0  0  0  0
  143.6314   80.3782  224.4987 H   0  0  0  0  0  0  0  0  0  0  0  0
  142.4253   82.5103  224.1275 H   0  0  0  0  0  0  0  0  0  0  0  0
  140.6325   82.5723  222.3855 H   0  0  0  0  0  0  0  0  0  0  0  0
  140.1174   80.5575  221.1065 H   0  0  0  0  0  0  0  0  0  0  0  0
  141.6711   76.8055  222.7344 H   0  0  0  0  0  0  0  0  0  0  0  0
  139.6833   76.5536  223.4246 H   0  0  0  0  0  0  0  0  0  0  0  0
  139.0811   77.5575  221.9926 H   0  0  0  0  0  0  0  0  0  0  0  0
  138.0365   75.3031  222.4207 H   0  0  0  0  0  0  0  0  0  0  0  0
  138.6127   75.7643  220.7500 H   0  0  0  0  0  0  0  0  0  0  0  0
  139.6179   71.3212  221.0150 H   0  0  0  0  0  0  0  0  0  0  0  0
  141.6810   71.9600  221.4770 H   0  0  0  0  0  0  0  0  0  0  0  0
  141.4630   71.2240  223.0330 H   0  0  0  0  0  0  0  0  0  0  0  0
  137.9043   71.1452  223.0131 H   0  0  0  0  0  0  0  0  0  0  0  0
  138.9303   69.8047  222.2667 H   0  0  0  0  0  0  0  0  0  0  0  0
  139.1720   68.2980  224.0563 H   0  0  0  0  0  0  0  0  0  0  0  0
  140.1800   67.4681  227.5218 H   0  0  0  0  0  0  0  0  0  0  0  0
  139.3103   66.8798  226.0644 H   0  0  0  0  0  0  0  0  0  0  0  0
  141.1043   66.9699  226.0644 H   0  0  0  0  0  0  0  0  0  0  0  0
  141.0429   69.6551  227.6614 H   0  0  0  0  0  0  0  0  0  0  0  0
  140.9558   71.9989  228.1003 H   0  0  0  0  0  0  0  0  0  0  0  0
  142.1511   72.3925  226.8185 H   0  0  0  0  0  0  0  0  0  0  0  0
  140.5398   73.1866  226.8185 H   0  0  0  0  0  0  0  0  0  0  0  0
  139.9484   72.4643  224.5904 H   0  0  0  0  0  0  0  0  0  0  0  0
  141.7202   74.0585  222.1237 H   0  0  0  0  0  0  0  0  0  0  0  0
  141.1933   73.8027  220.3839 H   0  0  0  0  0  0  0  0  0  0  0  0
  142.6197   75.8165  220.9390 H   0  0  0  0  0  0  0  0  0  0  0  0
  141.0791   76.0008  219.9481 H   0  0  0  0  0  0  0  0  0  0  0  0
  1  2  1  0
  2  3  1  0
  3  4  2  0
  3  5  1  0
  5  6  1  0
  6  7  2  0
  7  8  1  0
  8  9  2  0
  9 10  1  0
 10 11  2  0
  5 12  1  0
 12 13  1  0
 13 14  1  0
 14 15  1  0
 15 16  1  0
 16 17  2  0
 16 18  1  0
 18 19  1  0
 18 20  1  0
 20 21  1  0
 21 22  2  0
 22 23  1  0
 23 24  1  0
 23 25  2  0
 25 26  1  0
 26 27  1  0
 26 28  2  0
 15 29  1  0
 29 30  1  0
 11  6  1  0
 30 12  1  0
 28 21  1  0
  1 31  1  0
  1 32  1  0
  1 33  1  0
  2 34  1  0
  2 35  1  0
  7 36  1  0
  8 37  1  0
  9 38  1  0
 10 39  1  0
 11 40  1  0
 12 41  1  0
 13 42  1  0
 13 43  1  0
 14 44  1  0
 14 45  1  0
 18 46  1  6
 19 47  1  0
 19 48  1  0
 20 49  1  0
 20 50  1  0
 22 51  1  0
 24 52  1  0
 24 53  1  0
 24 54  1  0
 25 55  1  0
 27 56  1  0
 27 57  1  0
 27 58  1  0
 28 59  1  0
 29 60  1  0
 29 61  1  0
 30 62  1  0
 30 63  1  0
M  END
>  <smiles>  (16) 
CCC(=O)N(c1ccccc1)C1CCN(C(=O)[C@@H](N)Cc2cc(C)cc(C)c2)CC1

>  <score_type>  (16) 
oracle

>  <origin>  (16) 
autodockgpu

>  <m_score__min__energy>  (16) 
-8.5899999999999999

>  <m_primary>  (16) 
energy

>  <rmsd>  (16) 
6.631927552952736

>  <m_score__min__rmsd>  (16) 
6.631927552952736

>  <meeko>  (16) 
{"free_energy": -7.85, "intermolecular_energy": -10.23, "internal_energy": -1.45, "cluster_size": 21, "cluster_id": 1, "rank_in_cluster": 16}

>  <energy>  (16) 
-7.85

>  <cluster_rmsd>  (16) 
1.58

>  <cluster>  (16) 
1

$$$$

     RDKit          3D

 63 65  0  0  0  0  0  0  0  0999 V2000
  141.8890   80.1400  219.1390 C   0  0  0  0  0  0  0  0  0  0  0  0
  141.8490   78.6210  219.2090 C   0  0  0  0  0  0  0  0  0  0  0  0
  140.7310   78.2540  220.1100 C   0  0  0  0  0  0  0  0  0  0  0  0
  139.5880   78.1700  219.5960 O   0  0  0  0  0  0  0  0  0  0  0  0
  140.9600   78.0090  221.5100 N   0  0  0  0  0  0  0  0  0  0  0  0
  141.3800   79.1260  222.3190 C   0  0  0  0  0  0  0  0  0  0  0  0
  142.6840   79.3150  222.6980 C   0  0  0  0  0  0  0  0  0  0  0  0
  143.0020   80.4170  223.4770 C   0  0  0  0  0  0  0  0  0  0  0  0
  142.0570   81.3360  223.8880 C   0  0  0  0  0  0  0  0  0  0  0  0
  140.7550   81.1280  223.4970 C   0  0  0  0  0  0  0  0  0  0  0  0
  140.4480   80.0410  222.7300 C   0  0  0  0  0  0  0  0  0  0  0  0
  140.7740   76.6920  222.0750 C   0  0  0  0  0  0  0  0  0  0  0  0
  139.3650   76.4840  222.5030 C   0  0  0  0  0  0  0  0  0  0  0  0
  138.6600   75.3180  221.9080 C   0  0  0  0  0  0  0  0  0  0  0  0
  139.4730   74.1160  221.8560 N   0  0  0  0  0  0  0  0  0  0  0  0
  138.8290   72.8960  222.1450 C   0  0  0  0  0  0  0  0  0  0  0  0
  137.5900   72.9610  222.4200 O   0  0  0  0  0  0  0  0  0  0  0  0
  139.4430   71.5560  222.1600 C   0  0  1  0  0  0  0  0  0  0  0  0
  139.5920   71.0720  220.8330 N   0  0  0  0  0  0  0  0  0  0  0  0
  140.6750   71.4760  223.0250 C   0  0  0  0  0  0  0  0  0  0  0  0
  140.4860   70.8880  224.3480 C   0  0  0  0  0  0  0  0  0  0  0  0
  140.0020   69.6190  224.5740 C   0  0  0  0  0  0  0  0  0  0  0  0
  139.8360   69.0840  225.8430 C   0  0  0  0  0  0  0  0  0  0  0  0
  139.3080   67.7060  226.0480 C   0  0  0  0  0  0  0  0  0  0  0  0
  140.1620   69.8340  226.9400 C   0  0  0  0  0  0  0  0  0  0  0  0
  140.6480   71.1040  226.7380 C   0  0  0  0  0  0  0  0  0  0  0  0
  141.0100   71.9220  227.9500 C   0  0  0  0  0  0  0  0  0  0  0  0
  140.8120   71.6330  225.4710 C   0  0  0  0  0  0  0  0  0  0  0  0
  140.8650   74.2350  221.5080 C   0  0  0  0  0  0  0  0  0  0  0  0
  141.3060   75.6220  221.1780 C   0  0  0  0  0  0  0  0  0  0  0  0
  141.8999   80.5538  220.1581 H   0  0  0  0  0  0  0  0  0  0  0  0
  142.7959   80.4587  218.6041 H   0  0  0  0  0  0  0  0  0  0  0  0
  141.0002   80.5059  218.6041 H   0  0  0  0  0  0  0  0  0  0  0  0
  141.6785   78.2017  218.2064 H   0  0  0  0  0  0  0  0  0  0  0  0
  142.8021   78.2219  219.5862 H   0  0  0  0  0  0  0  0  0  0  0  0
  143.4648   78.6043  222.3892 H   0  0  0  0  0  0  0  0  0  0  0  0
  144.0491   80.5651  223.7798 H   0  0  0  0  0  0  0  0  0  0  0  0
  142.3354   82.2027  224.5055 H   0  0  0  0  0  0  0  0  0  0  0  0
  139.9664   81.8325  223.8001 H   0  0  0  0  0  0  0  0  0  0  0  0
  139.4008   79.8931  222.4275 H   0  0  0  0  0  0  0  0  0  0  0  0
  141.3771   76.6198  222.9921 H   0  0  0  0  0  0  0  0  0  0  0  0
  139.3623   76.3552  223.5954 H   0  0  0  0  0  0  0  0  0  0  0  0
  138.8174   77.3696  222.1481 H   0  0  0  0  0  0  0  0  0  0  0  0
  137.7647   75.1072  222.5113 H   0  0  0  0  0  0  0  0  0  0  0  0
  138.4099   75.5853  220.8707 H   0  0  0  0  0  0  0  0  0  0  0  0
  138.7576   70.8576  222.6624 H   0  0  0  0  0  0  0  0  0  0  0  0
  138.9280   71.4990  220.1440 H   0  0  0  0  0  0  0  0  0  0  0  0
  139.7620   70.0800  220.6920 H   0  0  0  0  0  0  0  0  0  0  0  0
  141.4234   70.8720  222.4911 H   0  0  0  0  0  0  0  0  0  0  0  0
  140.9834   72.5169  223.2022 H   0  0  0  0  0  0  0  0  0  0  0  0
  139.7338   68.9991  223.7058 H   0  0  0  0  0  0  0  0  0  0  0  0
  139.2291   67.5001  227.1257 H   0  0  0  0  0  0  0  0  0  0  0  0
  138.3138   67.6216  225.5848 H   0  0  0  0  0  0  0  0  0  0  0  0
  139.9912   66.9789  225.5848 H   0  0  0  0  0  0  0  0  0  0  0  0
  140.0385   69.4316  227.9563 H   0  0  0  0  0  0  0  0  0  0  0  0
  140.7604   71.3581  228.8609 H   0  0  0  0  0  0  0  0  0  0  0  0
  142.0883   72.1392  227.9371 H   0  0  0  0  0  0  0  0  0  0  0  0
  140.4456   72.8661  227.9371 H   0  0  0  0  0  0  0  0  0  0  0  0
  141.2045   72.6538  225.3530 H   0  0  0  0  0  0  0  0  0  0  0  0
  141.4633   73.8780  222.3592 H   0  0  0  0  0  0  0  0  0  0  0  0
  141.0111   73.6361  220.5970 H   0  0  0  0  0  0  0  0  0  0  0  0
  142.4044   75.6506  221.2294 H   0  0  0  0  0  0  0  0  0  0  0  0
  140.9057   75.8381  220.1765 H   0  0  0  0  0  0  0  0  0  0  0  0
  1  2  1  0
  2  3  1  0
  3  4  2  0
  3  5  1  0
  5  6  1  0
  6  7  2  0
  7  8  1  0
  8  9  2  0
  9 10  1  0
 10 11  2  0
  5 12  1  0
 12 13  1  0
 13 14  1  0
 14 15  1  0
 15 16  1  0
 16 17  2  0
 16 18  1  0
 18 19  1  0
 18 20  1  0
 20 21  1  0
 21 22  2  0
 22 23  1  0
 23 24  1  0
 23 25  2  0
 25 26  1  0
 26 27  1  0
 26 28  2  0
 15 29  1  0
 29 30  1  0
 11  6  1  0
 30 12  1  0
 28 21  1  0
  1 31  1  0
  1 32  1  0
  1 33  1  0
  2 34  1  0
  2 35  1  0
  7 36  1  0
  8 37  1  0
  9 38  1  0
 10 39  1  0
 11 40  1  0
 12 41  1  0
 13 42  1  0
 13 43  1  0
 14 44  1  0
 14 45  1  0
 18 46  1  1
 19 47  1  0
 19 48  1  0
 20 49  1  0
 20 50  1  0
 22 51  1  0
 24 52  1  0
 24 53  1  0
 24 54  1  0
 25 55  1  0
 27 56  1  0
 27 57  1  0
 27 58  1  0
 28 59  1  0
 29 60  1  0
 29 61  1  0
 30 62  1  0
 30 63  1  0
M  END
>  <smiles>  (17) 
CCC(=O)N(c1ccccc1)C1CCN(C(=O)[C@@H](N)Cc2cc(C)cc(C)c2)CC1

>  <score_type>  (17) 
oracle

>  <origin>  (17) 
autodockgpu

>  <m_score__min__energy>  (17) 
-8.5899999999999999

>  <m_primary>  (17) 
energy

>  <rmsd>  (17) 
6.574881537427647

>  <m_score__min__rmsd>  (17) 
6.574881537427647

>  <meeko>  (17) 
{"free_energy": -7.83, "intermolecular_energy": -10.21, "internal_energy": -1.71, "cluster_size": 21, "cluster_id": 1, "rank_in_cluster": 17}

>  <energy>  (17) 
-7.83

>  <cluster_rmsd>  (17) 
1.46

>  <cluster>  (17) 
1

$$$$

     RDKit          3D

 63 65  0  0  0  0  0  0  0  0999 V2000
  146.3420   73.0440  221.5740 C   0  0  0  0  0  0  0  0  0  0  0  0
  145.7670   73.9170  220.4700 C   0  0  0  0  0  0  0  0  0  0  0  0
  145.5170   73.0370  219.3020 C   0  0  0  0  0  0  0  0  0  0  0  0
  146.3030   73.1460  218.3280 O   0  0  0  0  0  0  0  0  0  0  0  0
  144.4200   72.1060  219.3000 N   0  0  0  0  0  0  0  0  0  0  0  0
  144.7390   70.7060  219.1720 C   0  0  0  0  0  0  0  0  0  0  0  0
  146.0150   70.2230  219.3070 C   0  0  0  0  0  0  0  0  0  0  0  0
  146.2340   68.8600  219.1680 C   0  0  0  0  0  0  0  0  0  0  0  0
  145.2180   67.9670  218.9000 C   0  0  0  0  0  0  0  0  0  0  0  0
  143.9440   68.4710  218.7710 C   0  0  0  0  0  0  0  0  0  0  0  0
  143.7350   69.8130  218.9070 C   0  0  0  0  0  0  0  0  0  0  0  0
  143.0560   72.5640  219.4210 C   0  0  0  0  0  0  0  0  0  0  0  0
  142.3880   71.9620  220.6060 C   0  0  0  0  0  0  0  0  0  0  0  0
  141.8210   72.9140  221.5980 C   0  0  0  0  0  0  0  0  0  0  0  0
  141.1140   74.0280  220.9910 N   0  0  0  0  0  0  0  0  0  0  0  0
  139.9280   74.4520  221.6240 C   0  0  0  0  0  0  0  0  0  0  0  0
  139.5890   73.8220  222.6740 O   0  0  0  0  0  0  0  0  0  0  0  0
  139.0440   75.5500  221.1940 C   0  0  1  0  0  0  0  0  0  0  0  0
  138.0820   75.8250  222.2030 N   0  0  0  0  0  0  0  0  0  0  0  0
  139.7930   76.7460  220.6650 C   0  0  0  0  0  0  0  0  0  0  0  0
  140.0690   77.8040  221.6310 C   0  0  0  0  0  0  0  0  0  0  0  0
  141.3300   78.2460  221.9630 C   0  0  0  0  0  0  0  0  0  0  0  0
  141.5630   79.2570  222.8840 C   0  0  0  0  0  0  0  0  0  0  0  0
  142.9430   79.7080  223.2180 C   0  0  0  0  0  0  0  0  0  0  0  0
  140.5050   79.8600  223.5070 C   0  0  0  0  0  0  0  0  0  0  0  0
  139.2360   79.4350  223.1900 C   0  0  0  0  0  0  0  0  0  0  0  0
  138.0750   80.1080  223.8760 C   0  0  0  0  0  0  0  0  0  0  0  0
  139.0080   78.4270  222.2720 C   0  0  0  0  0  0  0  0  0  0  0  0
  141.6600   74.6300  219.8040 C   0  0  0  0  0  0  0  0  0  0  0  0
  142.9610   74.0540  219.3560 C   0  0  0  0  0  0  0  0  0  0  0  0
  146.0664   73.4624  222.5533 H   0  0  0  0  0  0  0  0  0  0  0  0
  145.9377   72.0250  221.4837 H   0  0  0  0  0  0  0  0  0  0  0  0
  147.4378   73.0130  221.4837 H   0  0  0  0  0  0  0  0  0  0  0  0
  144.8252   74.3764  220.8045 H   0  0  0  0  0  0  0  0  0  0  0  0
  146.4647   74.7260  220.2078 H   0  0  0  0  0  0  0  0  0  0  0  0
  146.8511   70.9047  219.5219 H   0  0  0  0  0  0  0  0  0  0  0  0
  147.2593   68.4763  219.2759 H   0  0  0  0  0  0  0  0  0  0  0  0
  145.4186   66.8907  218.7932 H   0  0  0  0  0  0  0  0  0  0  0  0
  143.1004   67.7974  218.5599 H   0  0  0  0  0  0  0  0  0  0  0  0
  142.7096   70.1961  218.7984 H   0  0  0  0  0  0  0  0  0  0  0  0
  142.4921   72.2049  218.5475 H   0  0  0  0  0  0  0  0  0  0  0  0
  141.5657   71.3289  220.2414 H   0  0  0  0  0  0  0  0  0  0  0  0
  143.1784   71.4164  221.1422 H   0  0  0  0  0  0  0  0  0  0  0  0
  141.1193   72.3667  222.2446 H   0  0  0  0  0  0  0  0  0  0  0  0
  142.6657   73.3351  222.1629 H   0  0  0  0  0  0  0  0  0  0  0  0
  138.4749   75.2218  220.3117 H   0  0  0  0  0  0  0  0  0  0  0  0
  138.1950   75.2500  223.0710 H   0  0  0  0  0  0  0  0  0  0  0  0
  137.1170   75.9820  221.9260 H   0  0  0  0  0  0  0  0  0  0  0  0
  140.7561   76.3921  220.2686 H   0  0  0  0  0  0  0  0  0  0  0  0
  139.1349   77.1983  219.9084 H   0  0  0  0  0  0  0  0  0  0  0  0
  142.1951   77.7744  221.4740 H   0  0  0  0  0  0  0  0  0  0  0  0
  143.0616   79.7468  224.3109 H   0  0  0  0  0  0  0  0  0  0  0  0
  143.6722   79.0014  222.7949 H   0  0  0  0  0  0  0  0  0  0  0  0
  143.1142   80.7088  222.7949 H   0  0  0  0  0  0  0  0  0  0  0  0
  140.6648   80.6630  224.2416 H   0  0  0  0  0  0  0  0  0  0  0  0
  138.2009   80.0350  224.9663 H   0  0  0  0  0  0  0  0  0  0  0  0
  138.0388   81.1671  223.5812 H   0  0  0  0  0  0  0  0  0  0  0  0
  137.1379   79.6131  223.5812 H   0  0  0  0  0  0  0  0  0  0  0  0
  137.9769   78.1163  222.0479 H   0  0  0  0  0  0  0  0  0  0  0  0
  140.9311   74.5048  218.9897 H   0  0  0  0  0  0  0  0  0  0  0  0
  141.8551   75.6840  220.0512 H   0  0  0  0  0  0  0  0  0  0  0  0
  143.1267   74.3599  218.3125 H   0  0  0  0  0  0  0  0  0  0  0  0
  143.7199   74.4379  220.0536 H   0  0  0  0  0  0  0  0  0  0  0  0
  1  2  1  0
  2  3  1  0
  3  4  2  0
  3  5  1  0
  5  6  1  0
  6  7  2  0
  7  8  1  0
  8  9  2  0
  9 10  1  0
 10 11  2  0
  5 12  1  0
 12 13  1  0
 13 14  1  0
 14 15  1  0
 15 16  1  0
 16 17  2  0
 16 18  1  0
 18 19  1  0
 18 20  1  0
 20 21  1  0
 21 22  2  0
 22 23  1  0
 23 24  1  0
 23 25  2  0
 25 26  1  0
 26 27  1  0
 26 28  2  0
 15 29  1  0
 29 30  1  0
 11  6  1  0
 30 12  1  0
 28 21  1  0
  1 31  1  0
  1 32  1  0
  1 33  1  0
  2 34  1  0
  2 35  1  0
  7 36  1  0
  8 37  1  0
  9 38  1  0
 10 39  1  0
 11 40  1  0
 12 41  1  0
 13 42  1  0
 13 43  1  0
 14 44  1  0
 14 45  1  0
 18 46  1  6
 19 47  1  0
 19 48  1  0
 20 49  1  0
 20 50  1  0
 22 51  1  0
 24 52  1  0
 24 53  1  0
 24 54  1  0
 25 55  1  0
 27 56  1  0
 27 57  1  0
 27 58  1  0
 28 59  1  0
 29 60  1  0
 29 61  1  0
 30 62  1  0
 30 63  1  0
M  END
>  <smiles>  (18) 
CCC(=O)N(c1ccccc1)C1CCN(C(=O)[C@@H](N)Cc2cc(C)cc(C)c2)CC1

>  <score_type>  (18) 
oracle

>  <origin>  (18) 
autodockgpu

>  <m_score__min__energy>  (18) 
-8.5899999999999999

>  <m_primary>  (18) 
energy

>  <rmsd>  (18) 
6.38633981384452

>  <m_score__min__rmsd>  (18) 
6.38633981384452

>  <meeko>  (18) 
{"free_energy": -7.48, "intermolecular_energy": -9.87, "internal_energy": -1.9, "cluster_size": 3, "cluster_id": 2, "rank_in_cluster": 1}

>  <energy>  (18) 
-7.74

>  <cluster_rmsd>  (18) 
1.46

>  <cluster>  (18) 
1

$$$$

     RDKit          3D

 63 65  0  0  0  0  0  0  0  0999 V2000
  137.9270   82.5400  221.5480 C   0  0  0  0  0  0  0  0  0  0  0  0
  137.4870   83.4180  222.7090 C   0  0  0  0  0  0  0  0  0  0  0  0
  136.3270   82.7500  223.3490 C   0  0  0  0  0  0  0  0  0  0  0  0
  135.2020   82.9320  222.8210 O   0  0  0  0  0  0  0  0  0  0  0  0
  136.4990   81.9330  224.5210 N   0  0  0  0  0  0  0  0  0  0  0  0
  136.1450   82.5140  225.7920 C   0  0  0  0  0  0  0  0  0  0  0  0
  136.0330   83.8680  225.9800 C   0  0  0  0  0  0  0  0  0  0  0  0
  135.6870   84.3430  227.2370 C   0  0  0  0  0  0  0  0  0  0  0  0
  135.4490   83.5080  228.3090 C   0  0  0  0  0  0  0  0  0  0  0  0
  135.5650   82.1540  228.0980 C   0  0  0  0  0  0  0  0  0  0  0  0
  135.9060   81.6910  226.8610 C   0  0  0  0  0  0  0  0  0  0  0  0
  137.0080   80.5850  224.4200 C   0  0  0  0  0  0  0  0  0  0  0  0
  136.2470   79.7960  223.4150 C   0  0  0  0  0  0  0  0  0  0  0  0
  137.0400   79.1910  222.3130 C   0  0  0  0  0  0  0  0  0  0  0  0
  138.2840   78.5870  222.7590 N   0  0  0  0  0  0  0  0  0  0  0  0
  138.6590   77.3730  222.1490 C   0  0  0  0  0  0  0  0  0  0  0  0
  137.8740   76.9210  221.2570 O   0  0  0  0  0  0  0  0  0  0  0  0
  139.8650   76.5770  222.4370 C   0  0  1  0  0  0  0  0  0  0  0  0
  139.5740   75.1910  222.3260 N   0  0  0  0  0  0  0  0  0  0  0  0
  141.0840   77.0500  221.6860 C   0  0  0  0  0  0  0  0  0  0  0  0
  141.3600   78.4810  221.7580 C   0  0  0  0  0  0  0  0  0  0  0  0
  140.9970   79.3930  220.7920 C   0  0  0  0  0  0  0  0  0  0  0  0
  141.2690   80.7500  220.8880 C   0  0  0  0  0  0  0  0  0  0  0  0
  140.8610   81.7070  219.8220 C   0  0  0  0  0  0  0  0  0  0  0  0
  141.9290   81.2300  221.9860 C   0  0  0  0  0  0  0  0  0  0  0  0
  142.3010   80.3380  222.9630 C   0  0  0  0  0  0  0  0  0  0  0  0
  143.0240   80.8740  224.1720 C   0  0  0  0  0  0  0  0  0  0  0  0
  142.0280   78.9860  222.8630 C   0  0  0  0  0  0  0  0  0  0  0  0
  139.0530   79.2560  223.7750 C   0  0  0  0  0  0  0  0  0  0  0  0
  138.4890   80.5620  224.2220 C   0  0  0  0  0  0  0  0  0  0  0  0
  138.3878   81.6204  221.9378 H   0  0  0  0  0  0  0  0  0  0  0  0
  137.0528   82.2798  220.9332 H   0  0  0  0  0  0  0  0  0  0  0  0
  138.6587   83.0846  220.9332 H   0  0  0  0  0  0  0  0  0  0  0  0
  138.3078   83.5240  223.4336 H   0  0  0  0  0  0  0  0  0  0  0  0
  137.2131   84.4233  222.3564 H   0  0  0  0  0  0  0  0  0  0  0  0
  136.2143   84.5652  225.1487 H   0  0  0  0  0  0  0  0  0  0  0  0
  135.5989   85.4295  227.3847 H   0  0  0  0  0  0  0  0  0  0  0  0
  135.1766   83.9103  229.2959 H   0  0  0  0  0  0  0  0  0  0  0  0
  135.3838   81.4483  228.9221 H   0  0  0  0  0  0  0  0  0  0  0  0
  135.9933   80.6043  226.7147 H   0  0  0  0  0  0  0  0  0  0  0  0
  136.8424   80.0798  225.3830 H   0  0  0  0  0  0  0  0  0  0  0  0
  135.7361   78.9800  223.9470 H   0  0  0  0  0  0  0  0  0  0  0  0
  135.5715   80.5152  222.9288 H   0  0  0  0  0  0  0  0  0  0  0  0
  136.4291   78.4141  221.8301 H   0  0  0  0  0  0  0  0  0  0  0  0
  137.3045   80.0036  221.6204 H   0  0  0  0  0  0  0  0  0  0  0  0
  140.1568   76.7423  223.4846 H   0  0  0  0  0  0  0  0  0  0  0  0
  138.7950   74.9690  221.6600 H   0  0  0  0  0  0  0  0  0  0  0  0
  139.5810   74.6220  223.1670 H   0  0  0  0  0  0  0  0  0  0  0  0
  141.9572   76.5173  222.0907 H   0  0  0  0  0  0  0  0  0  0  0  0
  140.8818   76.8383  220.6257 H   0  0  0  0  0  0  0  0  0  0  0  0
  140.4655   79.0277  219.9009 H   0  0  0  0  0  0  0  0  0  0  0  0
  140.4695   82.6253  220.2839 H   0  0  0  0  0  0  0  0  0  0  0  0
  141.7323   81.9534  219.1974 H   0  0  0  0  0  0  0  0  0  0  0  0
  140.0799   81.2490  219.1974 H   0  0  0  0  0  0  0  0  0  0  0  0
  142.1560   82.3018  222.0842 H   0  0  0  0  0  0  0  0  0  0  0  0
  142.5316   80.5090  225.0854 H   0  0  0  0  0  0  0  0  0  0  0  0
  144.0689   80.5306  224.1565 H   0  0  0  0  0  0  0  0  0  0  0  0
  142.9991   81.9736  224.1565 H   0  0  0  0  0  0  0  0  0  0  0  0
  142.3436   78.3052  223.6673 H   0  0  0  0  0  0  0  0  0  0  0  0
  139.1164   78.5923  224.6499 H   0  0  0  0  0  0  0  0  0  0  0  0
  140.0338   79.4767  223.3285 H   0  0  0  0  0  0  0  0  0  0  0  0
  138.9636   80.8275  225.1782 H   0  0  0  0  0  0  0  0  0  0  0  0
  138.6982   81.2763  223.4121 H   0  0  0  0  0  0  0  0  0  0  0  0
  1  2  1  0
  2  3  1  0
  3  4  2  0
  3  5  1  0
  5  6  1  0
  6  7  2  0
  7  8  1  0
  8  9  2  0
  9 10  1  0
 10 11  2  0
  5 12  1  0
 12 13  1  0
 13 14  1  0
 14 15  1  0
 15 16  1  0
 16 17  2  0
 16 18  1  0
 18 19  1  0
 18 20  1  0
 20 21  1  0
 21 22  2  0
 22 23  1  0
 23 24  1  0
 23 25  2  0
 25 26  1  0
 26 27  1  0
 26 28  2  0
 15 29  1  0
 29 30  1  0
 11  6  1  0
 30 12  1  0
 28 21  1  0
  1 31  1  0
  1 32  1  0
  1 33  1  0
  2 34  1  0
  2 35  1  0
  7 36  1  0
  8 37  1  0
  9 38  1  0
 10 39  1  0
 11 40  1  0
 12 41  1  0
 13 42  1  0
 13 43  1  0
 14 44  1  0
 14 45  1  0
 18 46  1  1
 19 47  1  0
 19 48  1  0
 20 49  1  0
 20 50  1  0
 22 51  1  0
 24 52  1  0
 24 53  1  0
 24 54  1  0
 25 55  1  0
 27 56  1  0
 27 57  1  0
 27 58  1  0
 28 59  1  0
 29 60  1  0
 29 61  1  0
 30 62  1  0
 30 63  1  0
M  END
>  <smiles>  (19) 
CCC(=O)N(c1ccccc1)C1CCN(C(=O)[C@@H](N)Cc2cc(C)cc(C)c2)CC1

>  <score_type>  (19) 
oracle

>  <origin>  (19) 
autodockgpu

>  <m_score__min__energy>  (19) 
-8.5899999999999999

>  <m_primary>  (19) 
energy

>  <rmsd>  (19) 
4.558212756643635

>  <m_score__min__rmsd>  (19) 
4.558212756643635

>  <meeko>  (19) 
{"free_energy": -6.4, "intermolecular_energy": -8.78, "internal_energy": -3.05, "cluster_size": 17, "cluster_id": 5, "rank_in_cluster": 14}

>  <energy>  (19) 
-7.67

>  <cluster_rmsd>  (19) 
1.42

>  <cluster>  (19) 
1

$$$$

     RDKit          3D

 63 65  0  0  0  0  0  0  0  0999 V2000
  141.9210   79.8760  218.7930 C   0  0  0  0  0  0  0  0  0  0  0  0
  140.9870   78.7470  219.2020 C   0  0  0  0  0  0  0  0  0  0  0  0
  141.7520   77.8520  220.1040 C   0  0  0  0  0  0  0  0  0  0  0  0
  142.6920   77.1940  219.5920 O   0  0  0  0  0  0  0  0  0  0  0  0
  141.4210   77.7530  221.5020 N   0  0  0  0  0  0  0  0  0  0  0  0
  141.5140   78.9540  222.2920 C   0  0  0  0  0  0  0  0  0  0  0  0
  140.4120   79.6760  222.6740 C   0  0  0  0  0  0  0  0  0  0  0  0
  140.5920   80.8220  223.4340 C   0  0  0  0  0  0  0  0  0  0  0  0
  141.8380   81.2670  223.8260 C   0  0  0  0  0  0  0  0  0  0  0  0
  142.9300   80.5290  223.4340 C   0  0  0  0  0  0  0  0  0  0  0  0
  142.7470   79.4030  222.6850 C   0  0  0  0  0  0  0  0  0  0  0  0
  141.0120   76.4940  222.0810 C   0  0  0  0  0  0  0  0  0  0  0  0
  139.5600   76.4960  222.4020 C   0  0  0  0  0  0  0  0  0  0  0  0
  138.7460   75.4180  221.7820 C   0  0  0  0  0  0  0  0  0  0  0  0
  139.3860   74.1150  221.8220 N   0  0  0  0  0  0  0  0  0  0  0  0
  138.5580   73.0050  222.0890 C   0  0  0  0  0  0  0  0  0  0  0  0
  137.3230   73.2490  222.2650 O   0  0  0  0  0  0  0  0  0  0  0  0
  138.9770   71.5950  222.1840 C   0  0  1  0  0  0  0  0  0  0  0  0
  138.8140   70.9510  220.9280 N   0  0  0  0  0  0  0  0  0  0  0  0
  140.3230   71.4170  222.8390 C   0  0  0  0  0  0  0  0  0  0  0  0
  140.3010   70.9860  224.2330 C   0  0  0  0  0  0  0  0  0  0  0  0
  140.6850   71.7720  225.2960 C   0  0  0  0  0  0  0  0  0  0  0  0
  140.6500   71.3370  226.6130 C   0  0  0  0  0  0  0  0  0  0  0  0
  141.0740   72.2160  227.7380 C   0  0  0  0  0  0  0  0  0  0  0  0
  140.2160   70.0710  226.8950 C   0  0  0  0  0  0  0  0  0  0  0  0
  139.8270   69.2690  225.8490 C   0  0  0  0  0  0  0  0  0  0  0  0
  139.3450   67.8770  226.1670 C   0  0  0  0  0  0  0  0  0  0  0  0
  139.8630   69.7060  224.5370 C   0  0  0  0  0  0  0  0  0  0  0  0
  140.8020   74.0300  221.5820 C   0  0  0  0  0  0  0  0  0  0  0  0
  141.4550   75.3310  221.2550 C   0  0  0  0  0  0  0  0  0  0  0  0
  142.3239   80.3629  219.6933 H   0  0  0  0  0  0  0  0  0  0  0  0
  142.7493   79.4682  218.1950 H   0  0  0  0  0  0  0  0  0  0  0  0
  141.3652   80.6132  218.1950 H   0  0  0  0  0  0  0  0  0  0  0  0
  140.1112   79.1541  219.7285 H   0  0  0  0  0  0  0  0  0  0  0  0
  140.6271   78.1980  218.3194 H   0  0  0  0  0  0  0  0  0  0  0  0
  139.4023   79.3514  222.3823 H   0  0  0  0  0  0  0  0  0  0  0  0
  139.7059   81.3994  223.7365 H   0  0  0  0  0  0  0  0  0  0  0  0
  141.9535   82.1790  224.4301 H   0  0  0  0  0  0  0  0  0  0  0  0
  143.9438   80.8440  223.7221 H   0  0  0  0  0  0  0  0  0  0  0  0
  143.6339   78.8272  222.3817 H   0  0  0  0  0  0  0  0  0  0  0  0
  141.5297   76.3712  223.0438 H   0  0  0  0  0  0  0  0  0  0  0  0
  139.4582   76.4068  223.4936 H   0  0  0  0  0  0  0  0  0  0  0  0
  139.1690   77.4354  221.9840 H   0  0  0  0  0  0  0  0  0  0  0  0
  137.7880   75.3523  222.3186 H   0  0  0  0  0  0  0  0  0  0  0  0
  138.6125   75.6812  220.7223 H   0  0  0  0  0  0  0  0  0  0  0  0
  138.3065   71.0720  222.8817 H   0  0  0  0  0  0  0  0  0  0  0  0
  138.0970   71.3970  220.3080 H   0  0  0  0  0  0  0  0  0  0  0  0
  138.8230   69.9360  220.8960 H   0  0  0  0  0  0  0  0  0  0  0  0
  140.8817   70.6650  222.2624 H   0  0  0  0  0  0  0  0  0  0  0  0
  140.7866   72.4145  222.8429 H   0  0  0  0  0  0  0  0  0  0  0  0
  141.0365   72.7941  225.0914 H   0  0  0  0  0  0  0  0  0  0  0  0
  140.8380   71.7268  228.6946 H   0  0  0  0  0  0  0  0  0  0  0  0
  142.1575   72.3950  227.6752 H   0  0  0  0  0  0  0  0  0  0  0  0
  140.5396   73.1754  227.6752 H   0  0  0  0  0  0  0  0  0  0  0  0
  140.1793   69.7045  227.9315 H   0  0  0  0  0  0  0  0  0  0  0  0
  139.2993   67.7451  227.2581 H   0  0  0  0  0  0  0  0  0  0  0  0
  138.3432   67.7288  225.7375 H   0  0  0  0  0  0  0  0  0  0  0  0
  140.0406   67.1410  225.7375 H   0  0  0  0  0  0  0  0  0  0  0  0
  139.5417   69.0328  223.7286 H   0  0  0  0  0  0  0  0  0  0  0  0
  141.2796   73.6239  222.4859 H   0  0  0  0  0  0  0  0  0  0  0  0
  140.9309   73.3857  220.6998 H   0  0  0  0  0  0  0  0  0  0  0  0
  142.5397   75.2105  221.3922 H   0  0  0  0  0  0  0  0  0  0  0  0
  141.1644   75.5651  220.2202 H   0  0  0  0  0  0  0  0  0  0  0  0
  1  2  1  0
  2  3  1  0
  3  4  2  0
  3  5  1  0
  5  6  1  0
  6  7  2  0
  7  8  1  0
  8  9  2  0
  9 10  1  0
 10 11  2  0
  5 12  1  0
 12 13  1  0
 13 14  1  0
 14 15  1  0
 15 16  1  0
 16 17  2  0
 16 18  1  0
 18 19  1  0
 18 20  1  0
 20 21  1  0
 21 22  2  0
 22 23  1  0
 23 24  1  0
 23 25  2  0
 25 26  1  0
 26 27  1  0
 26 28  2  0
 15 29  1  0
 29 30  1  0
 11  6  1  0
 30 12  1  0
 28 21  1  0
  1 31  1  0
  1 32  1  0
  1 33  1  0
  2 34  1  0
  2 35  1  0
  7 36  1  0
  8 37  1  0
  9 38  1  0
 10 39  1  0
 11 40  1  0
 12 41  1  0
 13 42  1  0
 13 43  1  0
 14 44  1  0
 14 45  1  0
 18 46  1  1
 19 47  1  0
 19 48  1  0
 20 49  1  0
 20 50  1  0
 22 51  1  0
 24 52  1  0
 24 53  1  0
 24 54  1  0
 25 55  1  0
 27 56  1  0
 27 57  1  0
 27 58  1  0
 28 59  1  0
 29 60  1  0
 29 61  1  0
 30 62  1  0
 30 63  1  0
M  END
>  <smiles>  (20) 
CCC(=O)N(c1ccccc1)C1CCN(C(=O)[C@@H](N)Cc2cc(C)cc(C)c2)CC1

>  <score_type>  (20) 
oracle

>  <origin>  (20) 
autodockgpu

>  <m_score__min__energy>  (20) 
-8.5899999999999999

>  <m_primary>  (20) 
energy

>  <rmsd>  (20) 
6.563370568917781

>  <m_score__min__rmsd>  (20) 
6.563370568917781

>  <meeko>  (20) 
{"free_energy": -7.95, "intermolecular_energy": -10.34, "internal_energy": -1.55, "cluster_size": 21, "cluster_id": 1, "rank_in_cluster": 12}

>  <energy>  (20) 
-6.71

>  <cluster_rmsd>  (20) 
1.82

>  <cluster>  (20) 
1

$$$$

     RDKit          3D

 63 65  0  0  0  0  0  0  0  0999 V2000
  137.7470   84.5410  222.0340 C   0  0  0  0  0  0  0  0  0  0  0  0
  137.6130   83.0510  222.3050 C   0  0  0  0  0  0  0  0  0  0  0  0
  136.4560   82.8740  223.2160 C   0  0  0  0  0  0  0  0  0  0  0  0
  135.3920   83.4670  222.9080 O   0  0  0  0  0  0  0  0  0  0  0  0
  136.5640   82.0580  224.3980 N   0  0  0  0  0  0  0  0  0  0  0  0
  136.1780   82.6540  225.6520 C   0  0  0  0  0  0  0  0  0  0  0  0
  135.8220   81.9080  226.7460 C   0  0  0  0  0  0  0  0  0  0  0  0
  135.4630   82.5630  227.9150 C   0  0  0  0  0  0  0  0  0  0  0  0
  135.4500   83.9380  228.0240 C   0  0  0  0  0  0  0  0  0  0  0  0
  135.8120   84.6680  226.9160 C   0  0  0  0  0  0  0  0  0  0  0  0
  136.1630   84.0180  225.7680 C   0  0  0  0  0  0  0  0  0  0  0  0
  137.0400   80.6970  224.3200 C   0  0  0  0  0  0  0  0  0  0  0  0
  136.2810   79.9180  223.3060 C   0  0  0  0  0  0  0  0  0  0  0  0
  137.0830   79.2820  222.2260 C   0  0  0  0  0  0  0  0  0  0  0  0
  138.3000   78.6520  222.7050 N   0  0  0  0  0  0  0  0  0  0  0  0
  138.6580   77.4230  222.1150 C   0  0  0  0  0  0  0  0  0  0  0  0
  137.8810   76.9820  221.2100 O   0  0  0  0  0  0  0  0  0  0  0  0
  139.8360   76.6000  222.4360 C   0  0  1  0  0  0  0  0  0  0  0  0
  139.5190   75.2210  222.3090 N   0  0  0  0  0  0  0  0  0  0  0  0
  141.0880   77.0490  221.7270 C   0  0  0  0  0  0  0  0  0  0  0  0
  141.3620   78.4820  221.7650 C   0  0  0  0  0  0  0  0  0  0  0  0
  141.0390   79.3640  220.7580 C   0  0  0  0  0  0  0  0  0  0  0  0
  141.3080   80.7220  220.8230 C   0  0  0  0  0  0  0  0  0  0  0  0
  140.9440   81.6460  219.7130 C   0  0  0  0  0  0  0  0  0  0  0  0
  141.9240   81.2370  221.9310 C   0  0  0  0  0  0  0  0  0  0  0  0
  142.2560   80.3750  222.9490 C   0  0  0  0  0  0  0  0  0  0  0  0
  142.9300   80.9490  224.1690 C   0  0  0  0  0  0  0  0  0  0  0  0
  141.9860   79.0200  222.8810 C   0  0  0  0  0  0  0  0  0  0  0  0
  139.0640   79.3100  223.7320 C   0  0  0  0  0  0  0  0  0  0  0  0
  138.5240   80.6350  224.1550 C   0  0  0  0  0  0  0  0  0  0  0  0
  137.7959   85.0845  222.9891 H   0  0  0  0  0  0  0  0  0  0  0  0
  138.6656   84.7278  221.4584 H   0  0  0  0  0  0  0  0  0  0  0  0
  136.8765   84.8887  221.4584 H   0  0  0  0  0  0  0  0  0  0  0  0
  137.4373   82.5108  221.3630 H   0  0  0  0  0  0  0  0  0  0  0  0
  138.5323   82.6521  222.7587 H   0  0  0  0  0  0  0  0  0  0  0  0
  135.8211   80.8091  226.6976 H   0  0  0  0  0  0  0  0  0  0  0  0
  135.1771   81.9615  228.7905 H   0  0  0  0  0  0  0  0  0  0  0  0
  135.1606   84.4327  228.9629 H   0  0  0  0  0  0  0  0  0  0  0  0
  135.8186   85.7673  226.9546 H   0  0  0  0  0  0  0  0  0  0  0  0
  136.4479   84.6202  224.8927 H   0  0  0  0  0  0  0  0  0  0  0  0
  136.8404   80.2049  225.2833 H   0  0  0  0  0  0  0  0  0  0  0  0
  135.7381   79.1203  223.8341 H   0  0  0  0  0  0  0  0  0  0  0  0
  135.6345   80.6493  222.7987 H   0  0  0  0  0  0  0  0  0  0  0  0
  136.4633   78.5160  221.7368 H   0  0  0  0  0  0  0  0  0  0  0  0
  137.3829   80.0807  221.5316 H   0  0  0  0  0  0  0  0  0  0  0  0
  140.0977   76.7547  223.4932 H   0  0  0  0  0  0  0  0  0  0  0  0
  138.7500   75.0200  221.6260 H   0  0  0  0  0  0  0  0  0  0  0  0
  139.4980   74.6450  223.1460 H   0  0  0  0  0  0  0  0  0  0  0  0
  141.9412   76.5302  222.1883 H   0  0  0  0  0  0  0  0  0  0  0  0
  140.9342   76.8030  220.6660 H   0  0  0  0  0  0  0  0  0  0  0  0
  140.5432   78.9715  219.8579 H   0  0  0  0  0  0  0  0  0  0  0  0
  140.5711   82.5926  220.1313 H   0  0  0  0  0  0  0  0  0  0  0  0
  141.8317   81.8431  219.0940 H   0  0  0  0  0  0  0  0  0  0  0  0
  140.1604   81.1847  219.0940 H   0  0  0  0  0  0  0  0  0  0  0  0
  142.1474   82.3115  222.0051 H   0  0  0  0  0  0  0  0  0  0  0  0
  142.4549   80.5444  225.0749 H   0  0  0  0  0  0  0  0  0  0  0  0
  143.9958   80.6770  224.1612 H   0  0  0  0  0  0  0  0  0  0  0  0
  142.8311   82.0445  224.1612 H   0  0  0  0  0  0  0  0  0  0  0  0
  142.2682   78.3644  223.7180 H   0  0  0  0  0  0  0  0  0  0  0  0
  139.0908   78.6530  224.6138 H   0  0  0  0  0  0  0  0  0  0  0  0
  140.0600   79.5008  223.3058 H   0  0  0  0  0  0  0  0  0  0  0  0
  138.9843   80.8975  225.1190 H   0  0  0  0  0  0  0  0  0  0  0  0
  138.7693   81.3363  223.3438 H   0  0  0  0  0  0  0  0  0  0  0  0
  1  2  1  0
  2  3  1  0
  3  4  2  0
  3  5  1  0
  5  6  1  0
  6  7  2  0
  7  8  1  0
  8  9  2  0
  9 10  1  0
 10 11  2  0
  5 12  1  0
 12 13  1  0
 13 14  1  0
 14 15  1  0
 15 16  1  0
 16 17  2  0
 16 18  1  0
 18 19  1  0
 18 20  1  0
 20 21  1  0
 21 22  2  0
 22 23  1  0
 23 24  1  0
 23 25  2  0
 25 26  1  0
 26 27  1  0
 26 28  2  0
 15 29  1  0
 29 30  1  0
 11  6  1  0
 30 12  1  0
 28 21  1  0
  1 31  1  0
  1 32  1  0
  1 33  1  0
  2 34  1  0
  2 35  1  0
  7 36  1  0
  8 37  1  0
  9 38  1  0
 10 39  1  0
 11 40  1  0
 12 41  1  0
 13 42  1  0
 13 43  1  0
 14 44  1  0
 14 45  1  0
 18 46  1  1
 19 47  1  0
 19 48  1  0
 20 49  1  0
 20 50  1  0
 22 51  1  0
 24 52  1  0
 24 53  1  0
 24 54  1  0
 25 55  1  0
 27 56  1  0
 27 57  1  0
 27 58  1  0
 28 59  1  0
 29 60  1  0
 29 61  1  0
 30 62  1  0
 30 63  1  0
M  END
>  <smiles>  (21) 
CCC(=O)N(c1ccccc1)C1CCN(C(=O)[C@@H](N)Cc2cc(C)cc(C)c2)CC1

>  <score_type>  (21) 
oracle

>  <origin>  (21) 
autodockgpu

>  <m_score__min__energy>  (21) 
-8.5899999999999999

>  <m_primary>  (21) 
energy

>  <rmsd>  (21) 
4.519523792473542

>  <m_score__min__rmsd>  (21) 
4.519523792473542

>  <meeko>  (21) 
{"free_energy": -6.43, "intermolecular_energy": -8.82, "internal_energy": -2.87, "cluster_size": 17, "cluster_id": 5, "rank_in_cluster": 13}

>  <energy>  (21) 
-6.68

>  <cluster_rmsd>  (21) 
1.92

>  <cluster>  (21) 
1

$$$$

     RDKit          3D

 63 65  0  0  0  0  0  0  0  0999 V2000
  142.3690   78.8950  218.5790 C   0  0  0  0  0  0  0  0  0  0  0  0
  141.6400   77.5970  218.8900 C   0  0  0  0  0  0  0  0  0  0  0  0
  140.6130   77.9070  219.9150 C   0  0  0  0  0  0  0  0  0  0  0  0
  139.4930   78.2970  219.5000 O   0  0  0  0  0  0  0  0  0  0  0  0
  140.9030   77.7640  221.3180 N   0  0  0  0  0  0  0  0  0  0  0  0
  141.3830   78.9280  222.0180 C   0  0  0  0  0  0  0  0  0  0  0  0
  141.4110   80.1750  221.4470 C   0  0  0  0  0  0  0  0  0  0  0  0
  141.8900   81.2420  222.1920 C   0  0  0  0  0  0  0  0  0  0  0  0
  142.3410   81.1030  223.4880 C   0  0  0  0  0  0  0  0  0  0  0  0
  142.3040   79.8440  224.0420 C   0  0  0  0  0  0  0  0  0  0  0  0
  141.8330   78.7970  223.3050 C   0  0  0  0  0  0  0  0  0  0  0  0
  140.7160   76.4990  221.9900 C   0  0  0  0  0  0  0  0  0  0  0  0
  139.2940   76.3000  222.3780 C   0  0  0  0  0  0  0  0  0  0  0  0
  138.6360   75.0700  221.8620 C   0  0  0  0  0  0  0  0  0  0  0  0
  139.4720   73.8860  221.9500 N   0  0  0  0  0  0  0  0  0  0  0  0
  138.8370   72.6840  222.3210 C   0  0  0  0  0  0  0  0  0  0  0  0
  137.5860   72.7460  222.5390 O   0  0  0  0  0  0  0  0  0  0  0  0
  139.4730   71.3640  222.4810 C   0  0  1  0  0  0  0  0  0  0  0  0
  139.6390   70.7440  221.2140 N   0  0  0  0  0  0  0  0  0  0  0  0
  140.7000   71.3970  223.3570 C   0  0  0  0  0  0  0  0  0  0  0  0
  140.5310   70.8780  224.7100 C   0  0  0  0  0  0  0  0  0  0  0  0
  140.8410   71.5760  225.8560 C   0  0  0  0  0  0  0  0  0  0  0  0
  140.6660   71.0590  227.1310 C   0  0  0  0  0  0  0  0  0  0  0  0
  141.0140   71.8440  228.3480 C   0  0  0  0  0  0  0  0  0  0  0  0
  140.1620   69.7960  227.2850 C   0  0  0  0  0  0  0  0  0  0  0  0
  139.8450   69.0810  226.1540 C   0  0  0  0  0  0  0  0  0  0  0  0
  139.2870   67.6920  226.3310 C   0  0  0  0  0  0  0  0  0  0  0  0
  140.0210   69.6000  224.8850 C   0  0  0  0  0  0  0  0  0  0  0  0
  140.8740   74.0040  221.6500 C   0  0  0  0  0  0  0  0  0  0  0  0
  141.3040   75.3640  221.2150 C   0  0  0  0  0  0  0  0  0  0  0  0
  142.6486   79.3928  219.5192 H   0  0  0  0  0  0  0  0  0  0  0  0
  143.2759   78.6757  217.9964 H   0  0  0  0  0  0  0  0  0  0  0  0
  141.7097   79.5553  217.9964 H   0  0  0  0  0  0  0  0  0  0  0  0
  141.1595   77.2071  217.9806 H   0  0  0  0  0  0  0  0  0  0  0  0
  142.3410   76.8331  219.2574 H   0  0  0  0  0  0  0  0  0  0  0  0
  141.0594   80.3260  220.4157 H   0  0  0  0  0  0  0  0  0  0  0  0
  141.9111   82.2402  221.7304 H   0  0  0  0  0  0  0  0  0  0  0  0
  142.7162   81.9662  224.0573 H   0  0  0  0  0  0  0  0  0  0  0  0
  142.6521   79.6827  225.0729 H   0  0  0  0  0  0  0  0  0  0  0  0
  141.8137   77.7989  223.7669 H   0  0  0  0  0  0  0  0  0  0  0  0
  141.2814   76.5217  222.9333 H   0  0  0  0  0  0  0  0  0  0  0  0
  139.2475   76.2692  223.4766 H   0  0  0  0  0  0  0  0  0  0  0  0
  138.7459   77.1385  221.9235 H   0  0  0  0  0  0  0  0  0  0  0  0
  137.7203   74.8939  222.4455 H   0  0  0  0  0  0  0  0  0  0  0  0
  138.4249   75.2388  220.7957 H   0  0  0  0  0  0  0  0  0  0  0  0
  138.7955   70.7111  223.0508 H   0  0  0  0  0  0  0  0  0  0  0  0
  140.5950   70.3460  221.0540 H   0  0  0  0  0  0  0  0  0  0  0  0
  139.2260   71.1850  220.3970 H   0  0  0  0  0  0  0  0  0  0  0  0
  141.4827   70.8024  222.8632 H   0  0  0  0  0  0  0  0  0  0  0  0
  140.9525   72.4610  223.4757 H   0  0  0  0  0  0  0  0  0  0  0  0
  141.2473   72.5932  225.7552 H   0  0  0  0  0  0  0  0  0  0  0  0
  140.7562   71.2626  229.2455 H   0  0  0  0  0  0  0  0  0  0  0  0
  142.0925   72.0606  228.3487 H   0  0  0  0  0  0  0  0  0  0  0  0
  140.4503   72.7886  228.3487 H   0  0  0  0  0  0  0  0  0  0  0  0
  140.0145   69.3646  228.2861 H   0  0  0  0  0  0  0  0  0  0  0  0
  139.1967   67.4671  227.4040 H   0  0  0  0  0  0  0  0  0  0  0  0
  138.2952   67.6324  225.8591 H   0  0  0  0  0  0  0  0  0  0  0  0
  139.9620   66.9628  225.8591 H   0  0  0  0  0  0  0  0  0  0  0  0
  139.7543   68.9943  224.0064 H   0  0  0  0  0  0  0  0  0  0  0  0
  141.4417   73.7374  222.5537 H   0  0  0  0  0  0  0  0  0  0  0  0
  141.0691   73.3298  220.8030 H   0  0  0  0  0  0  0  0  0  0  0  0
  142.3986   75.4201  221.3080 H   0  0  0  0  0  0  0  0  0  0  0  0
  140.9424   75.4813  220.1828 H   0  0  0  0  0  0  0  0  0  0  0  0
  1  2  1  0
  2  3  1  0
  3  4  2  0
  3  5  1  0
  5  6  1  0
  6  7  2  0
  7  8  1  0
  8  9  2  0
  9 10  1  0
 10 11  2  0
  5 12  1  0
 12 13  1  0
 13 14  1  0
 14 15  1  0
 15 16  1  0
 16 17  2  0
 16 18  1  0
 18 19  1  0
 18 20  1  0
 20 21  1  0
 21 22  2  0
 22 23  1  0
 23 24  1  0
 23 25  2  0
 25 26  1  0
 26 27  1  0
 26 28  2  0
 15 29  1  0
 29 30  1  0
 11  6  1  0
 30 12  1  0
 28 21  1  0
  1 31  1  0
  1 32  1  0
  1 33  1  0
  2 34  1  0
  2 35  1  0
  7 36  1  0
  8 37  1  0
  9 38  1  0
 10 39  1  0
 11 40  1  0
 12 41  1  0
 13 42  1  0
 13 43  1  0
 14 44  1  0
 14 45  1  0
 18 46  1  1
 19 47  1  0
 19 48  1  0
 20 49  1  0
 20 50  1  0
 22 51  1  0
 24 52  1  0
 24 53  1  0
 24 54  1  0
 25 55  1  0
 27 56  1  0
 27 57  1  0
 27 58  1  0
 28 59  1  0
 29 60  1  0
 29 61  1  0
 30 62  1  0
 30 63  1  0
M  END
>  <smiles>  (22) 
CCC(=O)N(c1ccccc1)C1CCN(C(=O)[C@@H](N)Cc2cc(C)cc(C)c2)CC1

>  <score_type>  (22) 
oracle

>  <origin>  (22) 
autodockgpu

>  <m_score__min__energy>  (22) 
-8.5899999999999999

>  <m_primary>  (22) 
energy

>  <rmsd>  (22) 
6.8121209264151625

>  <m_score__min__rmsd>  (22) 
6.8121209264151625

>  <meeko>  (22) 
{"free_energy": -7.85, "intermolecular_energy": -10.24, "internal_energy": -1.6, "cluster_size": 21, "cluster_id": 1, "rank_in_cluster": 15}

>  <energy>  (22) 
-7.48

>  <cluster_rmsd>  (22) 
0.0

>  <cluster>  (22) 
2

$$$$

     RDKit          3D

 63 65  0  0  0  0  0  0  0  0999 V2000
  146.3290   73.0280  221.7890 C   0  0  0  0  0  0  0  0  0  0  0  0
  145.6740   73.8810  220.7140 C   0  0  0  0  0  0  0  0  0  0  0  0
  145.4380   73.0040  219.5420 C   0  0  0  0  0  0  0  0  0  0  0  0
  146.3090   73.0150  218.6360 O   0  0  0  0  0  0  0  0  0  0  0  0
  144.2590   72.1820  219.4600 N   0  0  0  0  0  0  0  0  0  0  0  0
  144.4500   70.7560  219.3680 C   0  0  0  0  0  0  0  0  0  0  0  0
  143.4100   69.8650  219.4330 C   0  0  0  0  0  0  0  0  0  0  0  0
  143.6830   68.5080  219.3370 C   0  0  0  0  0  0  0  0  0  0  0  0
  144.9620   68.0160  219.1780 C   0  0  0  0  0  0  0  0  0  0  0  0
  145.9910   68.9260  219.1150 C   0  0  0  0  0  0  0  0  0  0  0  0
  145.7170   70.2600  219.2100 C   0  0  0  0  0  0  0  0  0  0  0  0
  142.9410   72.7700  219.4690 C   0  0  0  0  0  0  0  0  0  0  0  0
  142.2080   72.4310  220.7180 C   0  0  0  0  0  0  0  0  0  0  0  0
  141.7170   73.5780  221.5270 C   0  0  0  0  0  0  0  0  0  0  0  0
  141.1200   74.6350  220.7290 N   0  0  0  0  0  0  0  0  0  0  0  0
  139.9700   75.2590  221.2530 C   0  0  0  0  0  0  0  0  0  0  0  0
  139.5640   74.8410  222.3830 O   0  0  0  0  0  0  0  0  0  0  0  0
  139.1930   76.3440  220.6280 C   0  0  1  0  0  0  0  0  0  0  0  0
  138.0010   76.5780  221.3640 N   0  0  0  0  0  0  0  0  0  0  0  0
  140.0200   77.5660  220.3190 C   0  0  0  0  0  0  0  0  0  0  0  0
  140.2730   78.4640  221.4410 C   0  0  0  0  0  0  0  0  0  0  0  0
  139.2950   78.9760  222.2650 C   0  0  0  0  0  0  0  0  0  0  0  0
  139.5650   79.8240  223.3280 C   0  0  0  0  0  0  0  0  0  0  0  0
  138.4800   80.3590  224.1970 C   0  0  0  0  0  0  0  0  0  0  0  0
  140.8580   80.1860  223.5920 C   0  0  0  0  0  0  0  0  0  0  0  0
  141.8510   79.6870  222.7830 C   0  0  0  0  0  0  0  0  0  0  0  0
  143.2730   80.0850  223.0820 C   0  0  0  0  0  0  0  0  0  0  0  0
  141.5770   78.8410  221.7240 C   0  0  0  0  0  0  0  0  0  0  0  0
  141.7320   74.9850  219.4740 C   0  0  0  0  0  0  0  0  0  0  0  0
  142.9810   74.2320  219.1600 C   0  0  0  0  0  0  0  0  0  0  0  0
  146.0404   73.4038  222.7817 H   0  0  0  0  0  0  0  0  0  0  0  0
  145.9978   71.9846  221.6815 H   0  0  0  0  0  0  0  0  0  0  0  0
  147.4226   73.0786  221.6815 H   0  0  0  0  0  0  0  0  0  0  0  0
  144.7187   74.2833  221.0822 H   0  0  0  0  0  0  0  0  0  0  0  0
  146.3183   74.7303  220.4428 H   0  0  0  0  0  0  0  0  0  0  0  0
  142.3765   70.2200  219.5591 H   0  0  0  0  0  0  0  0  0  0  0  0
  142.8462   67.7960  219.3898 H   0  0  0  0  0  0  0  0  0  0  0  0
  145.1518   66.9350  219.1043 H   0  0  0  0  0  0  0  0  0  0  0  0
  147.0280   68.5814  218.9889 H   0  0  0  0  0  0  0  0  0  0  0  0
  146.5545   70.9712  219.1571 H   0  0  0  0  0  0  0  0  0  0  0  0
  142.3574   72.3227  218.6509 H   0  0  0  0  0  0  0  0  0  0  0  0
  141.3366   71.8201  220.4396 H   0  0  0  0  0  0  0  0  0  0  0  0
  142.9402   71.9147  221.3562 H   0  0  0  0  0  0  0  0  0  0  0  0
  140.9613   73.2069  222.2350 H   0  0  0  0  0  0  0  0  0  0  0  0
  142.5894   74.0112  222.0381 H   0  0  0  0  0  0  0  0  0  0  0  0
  138.8718   76.0195  219.6272 H   0  0  0  0  0  0  0  0  0  0  0  0
  137.5770   77.5230  221.2030 H   0  0  0  0  0  0  0  0  0  0  0  0
  137.9500   76.2540  222.3250 H   0  0  0  0  0  0  0  0  0  0  0  0
  140.9925   77.2262  219.9332 H   0  0  0  0  0  0  0  0  0  0  0  0
  139.4304   78.1500  219.5970 H   0  0  0  0  0  0  0  0  0  0  0  0
  138.2486   78.6984  222.0700 H   0  0  0  0  0  0  0  0  0  0  0  0
  138.7556   80.2231  225.2532 H   0  0  0  0  0  0  0  0  0  0  0  0
  138.3388   81.4300  223.9898 H   0  0  0  0  0  0  0  0  0  0  0  0
  137.5444   79.8190  223.9898 H   0  0  0  0  0  0  0  0  0  0  0  0
  141.0964   80.8584  224.4293 H   0  0  0  0  0  0  0  0  0  0  0  0
  143.4209   80.1264  224.1712 H   0  0  0  0  0  0  0  0  0  0  0  0
  143.9602   79.3447  222.6465 H   0  0  0  0  0  0  0  0  0  0  0  0
  143.4761   81.0745  222.6465 H   0  0  0  0  0  0  0  0  0  0  0  0
  142.4010   78.4637  221.1005 H   0  0  0  0  0  0  0  0  0  0  0  0
  141.0043   74.7920  218.6720 H   0  0  0  0  0  0  0  0  0  0  0  0
  142.0181   76.0443  219.5517 H   0  0  0  0  0  0  0  0  0  0  0  0
  143.1857   74.3466  218.0853 H   0  0  0  0  0  0  0  0  0  0  0  0
  143.7631   74.6578  219.8058 H   0  0  0  0  0  0  0  0  0  0  0  0
  1  2  1  0
  2  3  1  0
  3  4  2  0
  3  5  1  0
  5  6  1  0
  6  7  2  0
  7  8  1  0
  8  9  2  0
  9 10  1  0
 10 11  2  0
  5 12  1  0
 12 13  1  0
 13 14  1  0
 14 15  1  0
 15 16  1  0
 16 17  2  0
 16 18  1  0
 18 19  1  0
 18 20  1  0
 20 21  1  0
 21 22  2  0
 22 23  1  0
 23 24  1  0
 23 25  2  0
 25 26  1  0
 26 27  1  0
 26 28  2  0
 15 29  1  0
 29 30  1  0
 11  6  1  0
 30 12  1  0
 28 21  1  0
  1 31  1  0
  1 32  1  0
  1 33  1  0
  2 34  1  0
  2 35  1  0
  7 36  1  0
  8 37  1  0
  9 38  1  0
 10 39  1  0
 11 40  1  0
 12 41  1  0
 13 42  1  0
 13 43  1  0
 14 44  1  0
 14 45  1  0
 18 46  1  6
 19 47  1  0
 19 48  1  0
 20 49  1  0
 20 50  1  0
 22 51  1  0
 24 52  1  0
 24 53  1  0
 24 54  1  0
 25 55  1  0
 27 56  1  0
 27 57  1  0
 27 58  1  0
 28 59  1  0
 29 60  1  0
 29 61  1  0
 30 62  1  0
 30 63  1  0
M  END
>  <smiles>  (23) 
CCC(=O)N(c1ccccc1)C1CCN(C(=O)[C@@H](N)Cc2cc(C)cc(C)c2)CC1

>  <score_type>  (23) 
oracle

>  <origin>  (23) 
autodockgpu

>  <m_score__min__energy>  (23) 
-8.5899999999999999

>  <m_primary>  (23) 
energy

>  <rmsd>  (23) 
6.117842181394929

>  <m_score__min__rmsd>  (23) 
6.117842181394929

>  <meeko>  (23) 
{"free_energy": -7.16, "intermolecular_energy": -9.55, "internal_energy": -2.16, "cluster_size": 3, "cluster_id": 2, "rank_in_cluster": 2}

>  <energy>  (23) 
-7.16

>  <cluster_rmsd>  (23) 
0.67

>  <cluster>  (23) 
2

$$$$

     RDKit          3D

 63 65  0  0  0  0  0  0  0  0999 V2000
  136.1800   78.6980  223.0700 C   0  0  0  0  0  0  0  0  0  0  0  0
  137.3630   79.5570  222.6530 C   0  0  0  0  0  0  0  0  0  0  0  0
  137.9640   78.9230  221.4550 C   0  0  0  0  0  0  0  0  0  0  0  0
  137.3820   79.1110  220.3570 O   0  0  0  0  0  0  0  0  0  0  0  0
  139.1610   78.1300  221.5600 N   0  0  0  0  0  0  0  0  0  0  0  0
  140.3490   78.7830  222.0480 C   0  0  0  0  0  0  0  0  0  0  0  0
  141.1340   79.5800  221.2540 C   0  0  0  0  0  0  0  0  0  0  0  0
  142.2610   80.1710  221.8040 C   0  0  0  0  0  0  0  0  0  0  0  0
  142.6270   79.9920  223.1220 C   0  0  0  0  0  0  0  0  0  0  0  0
  141.8260   79.1910  223.9020 C   0  0  0  0  0  0  0  0  0  0  0  0
  140.7180   78.6110  223.3550 C   0  0  0  0  0  0  0  0  0  0  0  0
  139.1620   76.7340  221.1880 C   0  0  0  0  0  0  0  0  0  0  0  0
  140.5480   76.2020  221.1010 C   0  0  0  0  0  0  0  0  0  0  0  0
  140.8570   75.0220  221.9520 C   0  0  0  0  0  0  0  0  0  0  0  0
  139.8080   74.0170  221.9500 N   0  0  0  0  0  0  0  0  0  0  0  0
  140.2170   72.6690  221.9350 C   0  0  0  0  0  0  0  0  0  0  0  0
  141.4700   72.4560  221.9310 O   0  0  0  0  0  0  0  0  0  0  0  0
  139.3430   71.4820  221.9260 C   0  0  1  0  0  0  0  0  0  0  0  0
  140.0720   70.3410  221.4960 N   0  0  0  0  0  0  0  0  0  0  0  0
  138.5570   71.3120  223.2010 C   0  0  0  0  0  0  0  0  0  0  0  0
  139.3050   70.8050  224.3470 C   0  0  0  0  0  0  0  0  0  0  0  0
  139.3950   69.4750  224.6920 C   0  0  0  0  0  0  0  0  0  0  0  0
  140.1170   69.0210  225.7850 C   0  0  0  0  0  0  0  0  0  0  0  0
  140.1900   67.5730  226.1280 C   0  0  0  0  0  0  0  0  0  0  0  0
  140.7820   69.9180  226.5760 C   0  0  0  0  0  0  0  0  0  0  0  0
  140.7070   71.2520  226.2500 C   0  0  0  0  0  0  0  0  0  0  0  0
  141.4460   72.2340  227.1210 C   0  0  0  0  0  0  0  0  0  0  0  0
  139.9850   71.7000  225.1580 C   0  0  0  0  0  0  0  0  0  0  0  0
  138.4360   74.4480  221.9720 C   0  0  0  0  0  0  0  0  0  0  0  0
  138.2500   75.9260  222.0540 C   0  0  0  0  0  0  0  0  0  0  0  0
  136.1249   78.6580  224.1679 H   0  0  0  0  0  0  0  0  0  0  0  0
  135.2519   79.1340  222.6719 H   0  0  0  0  0  0  0  0  0  0  0  0
  136.3073   77.6805  222.6719 H   0  0  0  0  0  0  0  0  0  0  0  0
  137.0230   80.5746  222.4104 H   0  0  0  0  0  0  0  0  0  0  0  0
  138.0991   79.6299  223.4672 H   0  0  0  0  0  0  0  0  0  0  0  0
  140.8736   79.7474  220.1985 H   0  0  0  0  0  0  0  0  0  0  0  0
  142.8886   80.8083  221.1637 H   0  0  0  0  0  0  0  0  0  0  0  0
  143.5267   80.4724  223.5341 H   0  0  0  0  0  0  0  0  0  0  0  0
  142.0765   79.0190  224.9592 H   0  0  0  0  0  0  0  0  0  0  0  0
  140.0908   77.9740  223.9960 H   0  0  0  0  0  0  0  0  0  0  0  0
  138.7437   76.6454  220.1745 H   0  0  0  0  0  0  0  0  0  0  0  0
  140.7325   75.9177  220.0545 H   0  0  0  0  0  0  0  0  0  0  0  0
  141.1953   77.0094  221.4740 H   0  0  0  0  0  0  0  0  0  0  0  0
  141.7838   74.5590  221.5824 H   0  0  0  0  0  0  0  0  0  0  0  0
  140.9562   75.3849  222.9857 H   0  0  0  0  0  0  0  0  0  0  0  0
  138.5488   71.6324  221.1799 H   0  0  0  0  0  0  0  0  0  0  0  0
  141.1100   70.4330  221.5990 H   0  0  0  0  0  0  0  0  0  0  0  0
  139.7750   69.8630  220.6500 H   0  0  0  0  0  0  0  0  0  0  0  0
  138.1436   72.2936  223.4757 H   0  0  0  0  0  0  0  0  0  0  0  0
  137.7946   70.5500  222.9819 H   0  0  0  0  0  0  0  0  0  0  0  0
  138.8682   68.7365  224.0699 H   0  0  0  0  0  0  0  0  0  0  0  0
  140.1959   67.4551  227.2217 H   0  0  0  0  0  0  0  0  0  0  0  0
  139.3170   67.0522  225.7078 H   0  0  0  0  0  0  0  0  0  0  0  0
  141.1110   67.1426  225.7078 H   0  0  0  0  0  0  0  0  0  0  0  0
  141.3607   69.5813  227.4488 H   0  0  0  0  0  0  0  0  0  0  0  0
  141.2653   71.9939  228.1792 H   0  0  0  0  0  0  0  0  0  0  0  0
  142.5238   72.1726  226.9099 H   0  0  0  0  0  0  0  0  0  0  0  0
  141.0885   73.2527  226.9099 H   0  0  0  0  0  0  0  0  0  0  0  0
  139.9504   72.7759  224.9315 H   0  0  0  0  0  0  0  0  0  0  0  0
  137.9497   74.0916  221.0519 H   0  0  0  0  0  0  0  0  0  0  0  0
  137.9918   74.0270  222.8860 H   0  0  0  0  0  0  0  0  0  0  0  0
  137.2141   76.1547  221.7630 H   0  0  0  0  0  0  0  0  0  0  0  0
  138.4887   76.2054  223.0908 H   0  0  0  0  0  0  0  0  0  0  0  0
  1  2  1  0
  2  3  1  0
  3  4  2  0
  3  5  1  0
  5  6  1  0
  6  7  2  0
  7  8  1  0
  8  9  2  0
  9 10  1  0
 10 11  2  0
  5 12  1  0
 12 13  1  0
 13 14  1  0
 14 15  1  0
 15 16  1  0
 16 17  2  0
 16 18  1  0
 18 19  1  0
 18 20  1  0
 20 21  1  0
 21 22  2  0
 22 23  1  0
 23 24  1  0
 23 25  2  0
 25 26  1  0
 26 27  1  0
 26 28  2  0
 15 29  1  0
 29 30  1  0
 11  6  1  0
 30 12  1  0
 28 21  1  0
  1 31  1  0
  1 32  1  0
  1 33  1  0
  2 34  1  0
  2 35  1  0
  7 36  1  0
  8 37  1  0
  9 38  1  0
 10 39  1  0
 11 40  1  0
 12 41  1  0
 13 42  1  0
 13 43  1  0
 14 44  1  0
 14 45  1  0
 18 46  1  6
 19 47  1  0
 19 48  1  0
 20 49  1  0
 20 50  1  0
 22 51  1  0
 24 52  1  0
 24 53  1  0
 24 54  1  0
 25 55  1  0
 27 56  1  0
 27 57  1  0
 27 58  1  0
 28 59  1  0
 29 60  1  0
 29 61  1  0
 30 62  1  0
 30 63  1  0
M  END
>  <smiles>  (24) 
CCC(=O)N(c1ccccc1)C1CCN(C(=O)[C@@H](N)Cc2cc(C)cc(C)c2)CC1

>  <score_type>  (24) 
oracle

>  <origin>  (24) 
autodockgpu

>  <m_score__min__energy>  (24) 
-8.5899999999999999

>  <m_primary>  (24) 
energy

>  <rmsd>  (24) 
6.756953119687661

>  <m_score__min__rmsd>  (24) 
6.756953119687661

>  <meeko>  (24) 
{"free_energy": -6.73, "intermolecular_energy": -9.11, "internal_energy": -2.48, "cluster_size": 4, "cluster_id": 4, "rank_in_cluster": 3}

>  <energy>  (24) 
-6.87

>  <cluster_rmsd>  (24) 
1.37

>  <cluster>  (24) 
2

$$$$

     RDKit          3D

 63 65  0  0  0  0  0  0  0  0999 V2000
  142.5760   77.4190  218.7630 C   0  0  0  0  0  0  0  0  0  0  0  0
  141.8140   78.6390  219.2550 C   0  0  0  0  0  0  0  0  0  0  0  0
  140.6920   78.1470  220.0910 C   0  0  0  0  0  0  0  0  0  0  0  0
  139.5980   77.9350  219.5100 O   0  0  0  0  0  0  0  0  0  0  0  0
  140.8630   77.9290  221.5030 N   0  0  0  0  0  0  0  0  0  0  0  0
  141.2640   79.0570  222.3050 C   0  0  0  0  0  0  0  0  0  0  0  0
  140.3680   79.8260  223.0010 C   0  0  0  0  0  0  0  0  0  0  0  0
  140.8390   80.8950  223.7480 C   0  0  0  0  0  0  0  0  0  0  0  0
  142.1780   81.2190  223.8210 C   0  0  0  0  0  0  0  0  0  0  0  0
  143.0620   80.4350  223.1160 C   0  0  0  0  0  0  0  0  0  0  0  0
  142.5920   79.3840  222.3820 C   0  0  0  0  0  0  0  0  0  0  0  0
  140.6400   76.6260  222.0860 C   0  0  0  0  0  0  0  0  0  0  0  0
  139.2050   76.4230  222.4180 C   0  0  0  0  0  0  0  0  0  0  0  0
  138.5470   75.2400  221.8040 C   0  0  0  0  0  0  0  0  0  0  0  0
  139.3640   74.0400  221.8400 N   0  0  0  0  0  0  0  0  0  0  0  0
  138.7040   72.8250  222.1140 C   0  0  0  0  0  0  0  0  0  0  0  0
  137.4470   72.8920  222.2980 O   0  0  0  0  0  0  0  0  0  0  0  0
  139.3180   71.4890  222.2070 C   0  0  1  0  0  0  0  0  0  0  0  0
  139.4360   70.9140  220.9130 N   0  0  0  0  0  0  0  0  0  0  0  0
  140.5690   71.4660  223.0480 C   0  0  0  0  0  0  0  0  0  0  0  0
  140.4340   70.8710  224.3730 C   0  0  0  0  0  0  0  0  0  0  0  0
  139.9550   69.6030  224.6130 C   0  0  0  0  0  0  0  0  0  0  0  0
  139.8410   69.0610  225.8840 C   0  0  0  0  0  0  0  0  0  0  0  0
  139.3160   67.6840  226.1040 C   0  0  0  0  0  0  0  0  0  0  0  0
  140.2160   69.8020  226.9710 C   0  0  0  0  0  0  0  0  0  0  0  0
  140.6990   71.0720  226.7560 C   0  0  0  0  0  0  0  0  0  0  0  0
  141.1150   71.8810  227.9560 C   0  0  0  0  0  0  0  0  0  0  0  0
  140.8110   71.6080  225.4860 C   0  0  0  0  0  0  0  0  0  0  0  0
  140.7770   74.1560  221.5910 C   0  0  0  0  0  0  0  0  0  0  0  0
  141.2370   75.5350  221.2570 C   0  0  0  0  0  0  0  0  0  0  0  0
  142.9376   76.8401  219.6256 H   0  0  0  0  0  0  0  0  0  0  0  0
  141.9091   76.7913  218.1537 H   0  0  0  0  0  0  0  0  0  0  0  0
  143.4327   77.7429  218.1537 H   0  0  0  0  0  0  0  0  0  0  0  0
  142.4767   79.2812  219.8536 H   0  0  0  0  0  0  0  0  0  0  0  0
  141.4392   79.2331  218.4085 H   0  0  0  0  0  0  0  0  0  0  0  0
  139.2923   79.5987  222.9675 H   0  0  0  0  0  0  0  0  0  0  0  0
  140.1160   81.5093  224.3047 H   0  0  0  0  0  0  0  0  0  0  0  0
  142.5261   82.0728  224.4208 H   0  0  0  0  0  0  0  0  0  0  0  0
  144.1397   80.6534  223.1435 H   0  0  0  0  0  0  0  0  0  0  0  0
  143.3151   78.7698  221.8253 H   0  0  0  0  0  0  0  0  0  0  0  0
  141.1768   76.5798  223.0450 H   0  0  0  0  0  0  0  0  0  0  0  0
  139.1251   76.3214  223.5104 H   0  0  0  0  0  0  0  0  0  0  0  0
  138.6819   77.2972  222.0032 H   0  0  0  0  0  0  0  0  0  0  0  0
  137.6114   75.0408  222.3471 H   0  0  0  0  0  0  0  0  0  0  0  0
  138.3711   75.4804  220.7451 H   0  0  0  0  0  0  0  0  0  0  0  0
  138.6443   70.8278  222.7718 H   0  0  0  0  0  0  0  0  0  0  0  0
  140.4050   70.9500  220.5160 H   0  0  0  0  0  0  0  0  0  0  0  0
  138.6990   71.0820  220.2350 H   0  0  0  0  0  0  0  0  0  0  0  0
  141.3339   70.8970  222.4992 H   0  0  0  0  0  0  0  0  0  0  0  0
  140.8320   72.5202  223.2200 H   0  0  0  0  0  0  0  0  0  0  0  0
  139.6474   68.9892  223.7536 H   0  0  0  0  0  0  0  0  0  0  0  0
  139.2414   67.4882  227.1839 H   0  0  0  0  0  0  0  0  0  0  0  0
  138.3203   67.5936  225.6453 H   0  0  0  0  0  0  0  0  0  0  0  0
  139.9987   66.9536  225.6453 H   0  0  0  0  0  0  0  0  0  0  0  0
  140.1336   69.3936  227.9890 H   0  0  0  0  0  0  0  0  0  0  0  0
  140.8384   71.3430  228.8747 H   0  0  0  0  0  0  0  0  0  0  0  0
  142.2040   72.0348  227.9349 H   0  0  0  0  0  0  0  0  0  0  0  0
  140.6065   72.8562  227.9349 H   0  0  0  0  0  0  0  0  0  0  0  0
  141.2025   72.6279  225.3574 H   0  0  0  0  0  0  0  0  0  0  0  0
  141.3127   73.8245  222.4927 H   0  0  0  0  0  0  0  0  0  0  0  0
  140.9905   73.5338  220.7094 H   0  0  0  0  0  0  0  0  0  0  0  0
  142.3289   75.5694  221.3855 H   0  0  0  0  0  0  0  0  0  0  0  0
  140.9085   75.7234  220.2243 H   0  0  0  0  0  0  0  0  0  0  0  0
  1  2  1  0
  2  3  1  0
  3  4  2  0
  3  5  1  0
  5  6  1  0
  6  7  2  0
  7  8  1  0
  8  9  2  0
  9 10  1  0
 10 11  2  0
  5 12  1  0
 12 13  1  0
 13 14  1  0
 14 15  1  0
 15 16  1  0
 16 17  2  0
 16 18  1  0
 18 19  1  0
 18 20  1  0
 20 21  1  0
 21 22  2  0
 22 23  1  0
 23 24  1  0
 23 25  2  0
 25 26  1  0
 26 27  1  0
 26 28  2  0
 15 29  1  0
 29 30  1  0
 11  6  1  0
 30 12  1  0
 28 21  1  0
  1 31  1  0
  1 32  1  0
  1 33  1  0
  2 34  1  0
  2 35  1  0
  7 36  1  0
  8 37  1  0
  9 38  1  0
 10 39  1  0
 11 40  1  0
 12 41  1  0
 13 42  1  0
 13 43  1  0
 14 44  1  0
 14 45  1  0
 18 46  1  1
 19 47  1  0
 19 48  1  0
 20 49  1  0
 20 50  1  0
 22 51  1  0
 24 52  1  0
 24 53  1  0
 24 54  1  0
 25 55  1  0
 27 56  1  0
 27 57  1  0
 27 58  1  0
 28 59  1  0
 29 60  1  0
 29 61  1  0
 30 62  1  0
 30 63  1  0
M  END
>  <smiles>  (25) 
CCC(=O)N(c1ccccc1)C1CCN(C(=O)[C@@H](N)Cc2cc(C)cc(C)c2)CC1

>  <score_type>  (25) 
oracle

>  <origin>  (25) 
autodockgpu

>  <m_score__min__energy>  (25) 
-8.5899999999999999

>  <m_primary>  (25) 
energy

>  <rmsd>  (25) 
6.628004255235999

>  <m_score__min__rmsd>  (25) 
6.628004255235999

>  <meeko>  (25) 
{"free_energy": -8.0, "intermolecular_energy": -10.39, "internal_energy": -1.64, "cluster_size": 21, "cluster_id": 1, "rank_in_cluster": 8}

>  <energy>  (25) 
-7.48

>  <cluster_rmsd>  (25) 
0.0

>  <cluster>  (25) 
3

$$$$

     RDKit          3D

 63 65  0  0  0  0  0  0  0  0999 V2000
  137.9950   82.3610  221.2650 C   0  0  0  0  0  0  0  0  0  0  0  0
  137.6970   83.2520  222.4610 C   0  0  0  0  0  0  0  0  0  0  0  0
  136.5100   82.6830  223.1450 C   0  0  0  0  0  0  0  0  0  0  0  0
  135.3880   82.9210  222.6330 O   0  0  0  0  0  0  0  0  0  0  0  0
  136.6540   81.8970  224.3430 N   0  0  0  0  0  0  0  0  0  0  0  0
  136.2780   82.5150  225.5900 C   0  0  0  0  0  0  0  0  0  0  0  0
  136.1320   81.8030  226.7530 C   0  0  0  0  0  0  0  0  0  0  0  0
  135.7680   82.4770  227.9090 C   0  0  0  0  0  0  0  0  0  0  0  0
  135.5460   83.8380  227.9390 C   0  0  0  0  0  0  0  0  0  0  0  0
  135.6980   84.5340  226.7620 C   0  0  0  0  0  0  0  0  0  0  0  0
  136.0570   83.8660  225.6270 C   0  0  0  0  0  0  0  0  0  0  0  0
  137.1550   80.5440  224.2880 C   0  0  0  0  0  0  0  0  0  0  0  0
  136.3360   79.7030  223.3750 C   0  0  0  0  0  0  0  0  0  0  0  0
  137.0640   79.0340  222.2640 C   0  0  0  0  0  0  0  0  0  0  0  0
  138.3300   78.4510  222.6700 N   0  0  0  0  0  0  0  0  0  0  0  0
  138.6690   77.2040  222.1080 C   0  0  0  0  0  0  0  0  0  0  0  0
  137.8330   76.7050  221.2900 O   0  0  0  0  0  0  0  0  0  0  0  0
  139.8890   76.4200  222.3700 C   0  0  1  0  0  0  0  0  0  0  0  0
  139.5970   75.0300  222.3230 N   0  0  0  0  0  0  0  0  0  0  0  0
  141.0710   76.8660  221.5470 C   0  0  0  0  0  0  0  0  0  0  0  0
  141.4450   78.2710  221.6800 C   0  0  0  0  0  0  0  0  0  0  0  0
  142.0010   78.8250  222.8110 C   0  0  0  0  0  0  0  0  0  0  0  0
  142.3500   80.1640  222.9080 C   0  0  0  0  0  0  0  0  0  0  0  0
  142.9490   80.7280  224.1500 C   0  0  0  0  0  0  0  0  0  0  0  0
  142.1420   80.9950  221.8410 C   0  0  0  0  0  0  0  0  0  0  0  0
  141.5890   80.4630  220.7010 C   0  0  0  0  0  0  0  0  0  0  0  0
  141.3670   81.3830  219.5280 C   0  0  0  0  0  0  0  0  0  0  0  0
  141.2420   79.1280  220.6090 C   0  0  0  0  0  0  0  0  0  0  0  0
  139.1580   79.1720  223.6000 C   0  0  0  0  0  0  0  0  0  0  0  0
  138.6220   80.5040  224.0060 C   0  0  0  0  0  0  0  0  0  0  0  0
  138.3255   81.3728  221.6173 H   0  0  0  0  0  0  0  0  0  0  0  0
  137.0857   82.2480  220.6563 H   0  0  0  0  0  0  0  0  0  0  0  0
  138.7893   82.8178  220.6563 H   0  0  0  0  0  0  0  0  0  0  0  0
  138.5575   83.2639  223.1462 H   0  0  0  0  0  0  0  0  0  0  0  0
  137.5049   84.2864  222.1399 H   0  0  0  0  0  0  0  0  0  0  0  0
  136.3007   80.7161  226.7686 H   0  0  0  0  0  0  0  0  0  0  0  0
  135.6516   81.9028  228.8400 H   0  0  0  0  0  0  0  0  0  0  0  0
  135.2580   84.3483  228.8699 H   0  0  0  0  0  0  0  0  0  0  0  0
  135.5314   85.6210  226.7358 H   0  0  0  0  0  0  0  0  0  0  0  0
  136.1745   84.4410  224.6966 H   0  0  0  0  0  0  0  0  0  0  0  0
  137.0454   80.0940  225.2857 H   0  0  0  0  0  0  0  0  0  0  0  0
  135.8564   78.9200  223.9807 H   0  0  0  0  0  0  0  0  0  0  0  0
  135.6334   80.3962  222.8894 H   0  0  0  0  0  0  0  0  0  0  0  0
  136.4255   78.2340  221.8611 H   0  0  0  0  0  0  0  0  0  0  0  0
  137.2890   79.8059  221.5133 H   0  0  0  0  0  0  0  0  0  0  0  0
  140.2274   76.6239  223.3966 H   0  0  0  0  0  0  0  0  0  0  0  0
  138.8680   74.7700  221.6170 H   0  0  0  0  0  0  0  0  0  0  0  0
  139.5390   74.5140  223.1960 H   0  0  0  0  0  0  0  0  0  0  0  0
  141.9376   76.2567  221.8434 H   0  0  0  0  0  0  0  0  0  0  0  0
  140.7698   76.7355  220.4971 H   0  0  0  0  0  0  0  0  0  0  0  0
  142.1771   78.1741  223.6801 H   0  0  0  0  0  0  0  0  0  0  0  0
  142.4670   80.2741  225.0284 H   0  0  0  0  0  0  0  0  0  0  0  0
  144.0269   80.5093  224.1693 H   0  0  0  0  0  0  0  0  0  0  0  0
  142.7955   81.8171  224.1693 H   0  0  0  0  0  0  0  0  0  0  0  0
  142.4103   82.0605  221.8943 H   0  0  0  0  0  0  0  0  0  0  0  0
  141.1237   82.3914  219.8939 H   0  0  0  0  0  0  0  0  0  0  0  0
  142.2807   81.4252  218.9170 H   0  0  0  0  0  0  0  0  0  0  0  0
  140.5346   81.0038  218.9170 H   0  0  0  0  0  0  0  0  0  0  0  0
  140.8010   78.7422  219.6780 H   0  0  0  0  0  0  0  0  0  0  0  0
  139.2722   78.5577  224.5053 H   0  0  0  0  0  0  0  0  0  0  0  0
  140.1111   79.3634  223.0852 H   0  0  0  0  0  0  0  0  0  0  0  0
  139.1517   80.8201  224.9168 H   0  0  0  0  0  0  0  0  0  0  0  0
  138.7845   81.1715  223.1470 H   0  0  0  0  0  0  0  0  0  0  0  0
  1  2  1  0
  2  3  1  0
  3  4  2  0
  3  5  1  0
  5  6  1  0
  6  7  2  0
  7  8  1  0
  8  9  2  0
  9 10  1  0
 10 11  2  0
  5 12  1  0
 12 13  1  0
 13 14  1  0
 14 15  1  0
 15 16  1  0
 16 17  2  0
 16 18  1  0
 18 19  1  0
 18 20  1  0
 20 21  1  0
 21 22  2  0
 22 23  1  0
 23 24  1  0
 23 25  2  0
 25 26  1  0
 26 27  1  0
 26 28  2  0
 15 29  1  0
 29 30  1  0
 11  6  1  0
 30 12  1  0
 28 21  1  0
  1 31  1  0
  1 32  1  0
  1 33  1  0
  2 34  1  0
  2 35  1  0
  7 36  1  0
  8 37  1  0
  9 38  1  0
 10 39  1  0
 11 40  1  0
 12 41  1  0
 13 42  1  0
 13 43  1  0
 14 44  1  0
 14 45  1  0
 18 46  1  1
 19 47  1  0
 19 48  1  0
 20 49  1  0
 20 50  1  0
 22 51  1  0
 24 52  1  0
 24 53  1  0
 24 54  1  0
 25 55  1  0
 27 56  1  0
 27 57  1  0
 27 58  1  0
 28 59  1  0
 29 60  1  0
 29 61  1  0
 30 62  1  0
 30 63  1  0
M  END
>  <smiles>  (26) 
CCC(=O)N(c1ccccc1)C1CCN(C(=O)[C@@H](N)Cc2cc(C)cc(C)c2)CC1

>  <score_type>  (26) 
oracle

>  <origin>  (26) 
autodockgpu

>  <m_score__min__energy>  (26) 
-8.5899999999999999

>  <m_primary>  (26) 
energy

>  <rmsd>  (26) 
4.5708775685577585

>  <m_score__min__rmsd>  (26) 
4.5708775685577585

>  <meeko>  (26) 
{"free_energy": -6.53, "intermolecular_energy": -8.91, "internal_energy": -2.87, "cluster_size": 17, "cluster_id": 5, "rank_in_cluster": 5}

>  <energy>  (26) 
-7.08

>  <cluster_rmsd>  (26) 
1.2

>  <cluster>  (26) 
3

$$$$

     RDKit          3D

 63 65  0  0  0  0  0  0  0  0999 V2000
  137.8200   84.4110  222.0190 C   0  0  0  0  0  0  0  0  0  0  0  0
  137.6410   82.9450  222.3840 C   0  0  0  0  0  0  0  0  0  0  0  0
  136.5230   82.8710  223.3570 C   0  0  0  0  0  0  0  0  0  0  0  0
  135.5120   83.5770  223.1190 O   0  0  0  0  0  0  0  0  0  0  0  0
  136.6100   82.0230  224.5170 N   0  0  0  0  0  0  0  0  0  0  0  0
  136.2130   82.5890  225.7820 C   0  0  0  0  0  0  0  0  0  0  0  0
  136.1870   83.9400  226.0120 C   0  0  0  0  0  0  0  0  0  0  0  0
  135.7920   84.4010  227.2590 C   0  0  0  0  0  0  0  0  0  0  0  0
  135.4230   83.5520  228.2830 C   0  0  0  0  0  0  0  0  0  0  0  0
  135.4550   82.2000  228.0320 C   0  0  0  0  0  0  0  0  0  0  0  0
  135.8450   81.7530  226.8030 C   0  0  0  0  0  0  0  0  0  0  0  0
  137.0770   80.6610  224.4090 C   0  0  0  0  0  0  0  0  0  0  0  0
  136.3050   79.9070  223.3850 C   0  0  0  0  0  0  0  0  0  0  0  0
  137.0950   79.2870  222.2880 C   0  0  0  0  0  0  0  0  0  0  0  0
  138.3120   78.6390  222.7460 N   0  0  0  0  0  0  0  0  0  0  0  0
  138.6560   77.4200  222.1290 C   0  0  0  0  0  0  0  0  0  0  0  0
  137.8710   77.0020  221.2210 O   0  0  0  0  0  0  0  0  0  0  0  0
  139.8320   76.5820  222.4260 C   0  0  1  0  0  0  0  0  0  0  0  0
  139.5080   75.2090  222.2610 N   0  0  0  0  0  0  0  0  0  0  0  0
  141.0850   77.0450  221.7280 C   0  0  0  0  0  0  0  0  0  0  0  0
  141.3570   78.4780  221.7910 C   0  0  0  0  0  0  0  0  0  0  0  0
  141.0020   79.3820  220.8150 C   0  0  0  0  0  0  0  0  0  0  0  0
  141.2700   80.7400  220.9040 C   0  0  0  0  0  0  0  0  0  0  0  0
  140.8710   81.6880  219.8260 C   0  0  0  0  0  0  0  0  0  0  0  0
  141.9180   81.2300  222.0050 C   0  0  0  0  0  0  0  0  0  0  0  0
  142.2810   80.3460  222.9920 C   0  0  0  0  0  0  0  0  0  0  0  0
  142.9900   80.8930  224.2040 C   0  0  0  0  0  0  0  0  0  0  0  0
  142.0120   78.9920  222.9000 C   0  0  0  0  0  0  0  0  0  0  0  0
  139.0870   79.2720  223.7800 C   0  0  0  0  0  0  0  0  0  0  0  0
  138.5590   80.5920  224.2330 C   0  0  0  0  0  0  0  0  0  0  0  0
  137.8933   85.0113  222.9378 H   0  0  0  0  0  0  0  0  0  0  0  0
  138.7396   84.5320  221.4276 H   0  0  0  0  0  0  0  0  0  0  0  0
  136.9565   84.7497  221.4276 H   0  0  0  0  0  0  0  0  0  0  0  0
  137.3983   82.3593  221.4851 H   0  0  0  0  0  0  0  0  0  0  0  0
  138.5648   82.5337  222.8170 H   0  0  0  0  0  0  0  0  0  0  0  0
  136.4748   84.6473  225.2202 H   0  0  0  0  0  0  0  0  0  0  0  0
  135.7720   85.4860  227.4391 H   0  0  0  0  0  0  0  0  0  0  0  0
  135.1146   83.9425  229.2640 H   0  0  0  0  0  0  0  0  0  0  0  0
  135.1682   81.4841  228.8164 H   0  0  0  0  0  0  0  0  0  0  0  0
  135.8649   80.6680  226.6233 H   0  0  0  0  0  0  0  0  0  0  0  0
  136.8816   80.1514  225.3640 H   0  0  0  0  0  0  0  0  0  0  0  0
  135.7600   79.1029  223.9012 H   0  0  0  0  0  0  0  0  0  0  0  0
  135.6600   80.6523  222.8966 H   0  0  0  0  0  0  0  0  0  0  0  0
  136.4667   78.5349  221.7884 H   0  0  0  0  0  0  0  0  0  0  0  0
  137.3958   80.0973  221.6076 H   0  0  0  0  0  0  0  0  0  0  0  0
  140.0962   76.7057  223.4866 H   0  0  0  0  0  0  0  0  0  0  0  0
  138.7610   75.0280  221.5480 H   0  0  0  0  0  0  0  0  0  0  0  0
  139.4530   74.6180  223.0860 H   0  0  0  0  0  0  0  0  0  0  0  0
  141.9379   76.5197  222.1826 H   0  0  0  0  0  0  0  0  0  0  0  0
  140.9341   76.8170  220.6625 H   0  0  0  0  0  0  0  0  0  0  0  0
  140.4805   79.0091  219.9212 H   0  0  0  0  0  0  0  0  0  0  0  0
  140.4817   82.6129  220.2766 H   0  0  0  0  0  0  0  0  0  0  0  0
  141.7462   81.9239  219.2028 H   0  0  0  0  0  0  0  0  0  0  0  0
  140.0905   81.2271  219.2028 H   0  0  0  0  0  0  0  0  0  0  0  0
  142.1423   82.3029  222.0974 H   0  0  0  0  0  0  0  0  0  0  0  0
  142.5021   80.5166  225.1152 H   0  0  0  0  0  0  0  0  0  0  0  0
  144.0414   80.5697  224.1908 H   0  0  0  0  0  0  0  0  0  0  0  0
  142.9441   81.9920  224.1908 H   0  0  0  0  0  0  0  0  0  0  0  0
  142.3201   78.3179  223.7128 H   0  0  0  0  0  0  0  0  0  0  0  0
  139.1157   78.5977  224.6486 H   0  0  0  0  0  0  0  0  0  0  0  0
  140.0810   79.4651  223.3502 H   0  0  0  0  0  0  0  0  0  0  0  0
  139.0274   80.8319  225.1990 H   0  0  0  0  0  0  0  0  0  0  0  0
  138.8039   81.3077  223.4343 H   0  0  0  0  0  0  0  0  0  0  0  0
  1  2  1  0
  2  3  1  0
  3  4  2  0
  3  5  1  0
  5  6  1  0
  6  7  2  0
  7  8  1  0
  8  9  2  0
  9 10  1  0
 10 11  2  0
  5 12  1  0
 12 13  1  0
 13 14  1  0
 14 15  1  0
 15 16  1  0
 16 17  2  0
 16 18  1  0
 18 19  1  0
 18 20  1  0
 20 21  1  0
 21 22  2  0
 22 23  1  0
 23 24  1  0
 23 25  2  0
 25 26  1  0
 26 27  1  0
 26 28  2  0
 15 29  1  0
 29 30  1  0
 11  6  1  0
 30 12  1  0
 28 21  1  0
  1 31  1  0
  1 32  1  0
  1 33  1  0
  2 34  1  0
  2 35  1  0
  7 36  1  0
  8 37  1  0
  9 38  1  0
 10 39  1  0
 11 40  1  0
 12 41  1  0
 13 42  1  0
 13 43  1  0
 14 44  1  0
 14 45  1  0
 18 46  1  1
 19 47  1  0
 19 48  1  0
 20 49  1  0
 20 50  1  0
 22 51  1  0
 24 52  1  0
 24 53  1  0
 24 54  1  0
 25 55  1  0
 27 56  1  0
 27 57  1  0
 27 58  1  0
 28 59  1  0
 29 60  1  0
 29 61  1  0
 30 62  1  0
 30 63  1  0
M  END
>  <smiles>  (27) 
CCC(=O)N(c1ccccc1)C1CCN(C(=O)[C@@H](N)Cc2cc(C)cc(C)c2)CC1

>  <score_type>  (27) 
oracle

>  <origin>  (27) 
autodockgpu

>  <m_score__min__energy>  (27) 
-8.5899999999999999

>  <m_primary>  (27) 
energy

>  <rmsd>  (27) 
4.535508516733109

>  <m_score__min__rmsd>  (27) 
4.535508516733109

>  <meeko>  (27) 
{"free_energy": -6.52, "intermolecular_energy": -8.91, "internal_energy": -2.86, "cluster_size": 17, "cluster_id": 5, "rank_in_cluster": 6}

>  <energy>  (27) 
-6.97

>  <cluster_rmsd>  (27) 
1.17

>  <cluster>  (27) 
3

$$$$

     RDKit          3D

 63 65  0  0  0  0  0  0  0  0999 V2000
  143.3460   76.4330  219.2820 C   0  0  0  0  0  0  0  0  0  0  0  0
  142.4820   77.6660  219.0670 C   0  0  0  0  0  0  0  0  0  0  0  0
  141.2170   77.4480  219.8110 C   0  0  0  0  0  0  0  0  0  0  0  0
  140.1730   77.3010  219.1290 O   0  0  0  0  0  0  0  0  0  0  0  0
  141.2030   77.4110  221.2500 N   0  0  0  0  0  0  0  0  0  0  0  0
  141.5510   78.6240  221.9470 C   0  0  0  0  0  0  0  0  0  0  0  0
  141.8700   78.6440  223.2810 C   0  0  0  0  0  0  0  0  0  0  0  0
  142.1920   79.8560  223.8750 C   0  0  0  0  0  0  0  0  0  0  0  0
  142.2060   81.0460  223.1770 C   0  0  0  0  0  0  0  0  0  0  0  0
  141.8830   81.0040  221.8400 C   0  0  0  0  0  0  0  0  0  0  0  0
  141.5660   79.8090  221.2620 C   0  0  0  0  0  0  0  0  0  0  0  0
  140.8540   76.2030  221.9590 C   0  0  0  0  0  0  0  0  0  0  0  0
  139.4040   76.1740  222.2910 C   0  0  0  0  0  0  0  0  0  0  0  0
  138.6370   75.0020  221.7920 C   0  0  0  0  0  0  0  0  0  0  0  0
  139.3340   73.7390  221.9610 N   0  0  0  0  0  0  0  0  0  0  0  0
  138.5590   72.6280  222.3480 C   0  0  0  0  0  0  0  0  0  0  0  0
  137.3140   72.8330  222.5090 O   0  0  0  0  0  0  0  0  0  0  0  0
  139.0400   71.2550  222.5840 C   0  0  1  0  0  0  0  0  0  0  0  0
  138.9310   70.4870  221.3930 N   0  0  0  0  0  0  0  0  0  0  0  0
  140.3810   71.2050  223.2710 C   0  0  0  0  0  0  0  0  0  0  0  0
  140.3710   70.7300  224.6510 C   0  0  0  0  0  0  0  0  0  0  0  0
  140.7080   71.4990  225.7420 C   0  0  0  0  0  0  0  0  0  0  0  0
  140.6860   71.0220  227.0440 C   0  0  0  0  0  0  0  0  0  0  0  0
  141.0580   71.8840  228.2000 C   0  0  0  0  0  0  0  0  0  0  0  0
  140.3150   69.7260  227.2830 C   0  0  0  0  0  0  0  0  0  0  0  0
  139.9740   68.9400  226.2080 C   0  0  0  0  0  0  0  0  0  0  0  0
  139.5620   67.5160  226.4780 C   0  0  0  0  0  0  0  0  0  0  0  0
  139.9970   69.4200  224.9110 C   0  0  0  0  0  0  0  0  0  0  0  0
  140.7520   73.6930  221.7190 C   0  0  0  0  0  0  0  0  0  0  0  0
  141.3450   74.9810  221.2530 C   0  0  0  0  0  0  0  0  0  0  0  0
  143.4702   76.2558  220.3605 H   0  0  0  0  0  0  0  0  0  0  0  0
  142.8608   75.5603  218.8205 H   0  0  0  0  0  0  0  0  0  0  0  0
  144.3319   76.5911  218.8205 H   0  0  0  0  0  0  0  0  0  0  0  0
  142.9966   78.5590  219.4514 H   0  0  0  0  0  0  0  0  0  0  0  0
  142.2842   77.8234  217.9964 H   0  0  0  0  0  0  0  0  0  0  0  0
  141.8705   77.7149  223.8699 H   0  0  0  0  0  0  0  0  0  0  0  0
  142.4463   79.8685  224.9451 H   0  0  0  0  0  0  0  0  0  0  0  0
  142.4659   81.9938  223.6712 H   0  0  0  0  0  0  0  0  0  0  0  0
  141.8803   81.9269  221.2415 H   0  0  0  0  0  0  0  0  0  0  0  0
  141.3098   79.7975  220.1923 H   0  0  0  0  0  0  0  0  0  0  0  0
  141.3811   76.2036  222.9245 H   0  0  0  0  0  0  0  0  0  0  0  0
  139.3107   76.1936  223.3869 H   0  0  0  0  0  0  0  0  0  0  0  0
  138.9692   77.0471  221.7823 H   0  0  0  0  0  0  0  0  0  0  0  0
  137.6846   74.9502  222.3400 H   0  0  0  0  0  0  0  0  0  0  0  0
  138.4892   75.1481  220.7118 H   0  0  0  0  0  0  0  0  0  0  0  0
  138.3808   70.7698  223.3189 H   0  0  0  0  0  0  0  0  0  0  0  0
  139.8390   70.0850  221.0590 H   0  0  0  0  0  0  0  0  0  0  0  0
  138.3220   70.8210  220.6520 H   0  0  0  0  0  0  0  0  0  0  0  0
  141.0335   70.5374  222.6891 H   0  0  0  0  0  0  0  0  0  0  0  0
  140.7322   72.2465  223.3163 H   0  0  0  0  0  0  0  0  0  0  0  0
  141.0095   72.5432  225.5727 H   0  0  0  0  0  0  0  0  0  0  0  0
  140.8306   71.3571  229.1384 H   0  0  0  0  0  0  0  0  0  0  0  0
  142.1337   72.1099  228.1577 H   0  0  0  0  0  0  0  0  0  0  0  0
  140.4844   72.8217  228.1577 H   0  0  0  0  0  0  0  0  0  0  0  0
  140.2905   69.3248  228.3069 H   0  0  0  0  0  0  0  0  0  0  0  0
  139.5134   67.3480  227.5640 H   0  0  0  0  0  0  0  0  0  0  0  0
  138.5732   67.3298  226.0335 H   0  0  0  0  0  0  0  0  0  0  0  0
  140.2987   66.8306  226.0335 H   0  0  0  0  0  0  0  0  0  0  0  0
  139.7164   68.7574  224.0790 H   0  0  0  0  0  0  0  0  0  0  0  0
  141.2508   73.4048  222.6561 H   0  0  0  0  0  0  0  0  0  0  0  0
  140.9063   72.9670  220.9071 H   0  0  0  0  0  0  0  0  0  0  0  0
  142.4347   74.9232  221.3918 H   0  0  0  0  0  0  0  0  0  0  0  0
  141.0396   75.0937  220.2023 H   0  0  0  0  0  0  0  0  0  0  0  0
  1  2  1  0
  2  3  1  0
  3  4  2  0
  3  5  1  0
  5  6  1  0
  6  7  2  0
  7  8  1  0
  8  9  2  0
  9 10  1  0
 10 11  2  0
  5 12  1  0
 12 13  1  0
 13 14  1  0
 14 15  1  0
 15 16  1  0
 16 17  2  0
 16 18  1  0
 18 19  1  0
 18 20  1  0
 20 21  1  0
 21 22  2  0
 22 23  1  0
 23 24  1  0
 23 25  2  0
 25 26  1  0
 26 27  1  0
 26 28  2  0
 15 29  1  0
 29 30  1  0
 11  6  1  0
 30 12  1  0
 28 21  1  0
  1 31  1  0
  1 32  1  0
  1 33  1  0
  2 34  1  0
  2 35  1  0
  7 36  1  0
  8 37  1  0
  9 38  1  0
 10 39  1  0
 11 40  1  0
 12 41  1  0
 13 42  1  0
 13 43  1  0
 14 44  1  0
 14 45  1  0
 18 46  1  1
 19 47  1  0
 19 48  1  0
 20 49  1  0
 20 50  1  0
 22 51  1  0
 24 52  1  0
 24 53  1  0
 24 54  1  0
 25 55  1  0
 27 56  1  0
 27 57  1  0
 27 58  1  0
 28 59  1  0
 29 60  1  0
 29 61  1  0
 30 62  1  0
 30 63  1  0
M  END
>  <smiles>  (28) 
CCC(=O)N(c1ccccc1)C1CCN(C(=O)[C@@H](N)Cc2cc(C)cc(C)c2)CC1

>  <score_type>  (28) 
oracle

>  <origin>  (28) 
autodockgpu

>  <m_score__min__energy>  (28) 
-8.5899999999999999

>  <m_primary>  (28) 
energy

>  <rmsd>  (28) 
6.930605347116559

>  <m_score__min__rmsd>  (28) 
6.930605347116559

>  <meeko>  (28) 
{"free_energy": -8.17, "intermolecular_energy": -10.55, "internal_energy": -1.52, "cluster_size": 21, "cluster_id": 1, "rank_in_cluster": 5}

>  <energy>  (28) 
-7.12

>  <cluster_rmsd>  (28) 
0.0

>  <cluster>  (28) 
4

$$$$

     RDKit          3D

 63 65  0  0  0  0  0  0  0  0999 V2000
  142.7190   77.4620  218.5080 C   0  0  0  0  0  0  0  0  0  0  0  0
  141.8790   78.6130  219.0390 C   0  0  0  0  0  0  0  0  0  0  0  0
  140.5280   78.0740  219.3250 C   0  0  0  0  0  0  0  0  0  0  0  0
  139.6280   78.3140  218.4820 O   0  0  0  0  0  0  0  0  0  0  0  0
  140.2730   77.3120  220.5200 N   0  0  0  0  0  0  0  0  0  0  0  0
  140.3010   78.0190  221.7750 C   0  0  0  0  0  0  0  0  0  0  0  0
  141.4400   78.1420  222.5300 C   0  0  0  0  0  0  0  0  0  0  0  0
  141.3790   78.8390  223.7270 C   0  0  0  0  0  0  0  0  0  0  0  0
  140.2160   79.4180  224.1920 C   0  0  0  0  0  0  0  0  0  0  0  0
  139.0850   79.2840  223.4200 C   0  0  0  0  0  0  0  0  0  0  0  0
  139.1510   78.5960  222.2440 C   0  0  0  0  0  0  0  0  0  0  0  0
  140.0020   75.8950  220.4540 C   0  0  0  0  0  0  0  0  0  0  0  0
  141.2600   75.1030  220.5090 C   0  0  0  0  0  0  0  0  0  0  0  0
  141.3580   74.0940  221.5970 C   0  0  0  0  0  0  0  0  0  0  0  0
  140.1380   73.3300  221.7890 N   0  0  0  0  0  0  0  0  0  0  0  0
  140.2830   71.9570  222.0700 C   0  0  0  0  0  0  0  0  0  0  0  0
  141.4730   71.5140  222.1350 O   0  0  0  0  0  0  0  0  0  0  0  0
  139.1990   70.9840  222.2960 C   0  0  1  0  0  0  0  0  0  0  0  0
  139.6340   69.6770  221.9450 N   0  0  0  0  0  0  0  0  0  0  0  0
  138.5560   71.1140  223.6530 C   0  0  0  0  0  0  0  0  0  0  0  0
  139.3360   70.6100  224.7780 C   0  0  0  0  0  0  0  0  0  0  0  0
  139.4820   69.2770  225.0900 C   0  0  0  0  0  0  0  0  0  0  0  0
  140.2330   68.8260  226.1650 C   0  0  0  0  0  0  0  0  0  0  0  0
  140.3660   67.3740  226.4720 C   0  0  0  0  0  0  0  0  0  0  0  0
  140.8720   69.7290  226.9690 C   0  0  0  0  0  0  0  0  0  0  0  0
  140.7420   71.0660  226.6760 C   0  0  0  0  0  0  0  0  0  0  0  0
  141.4520   72.0560  227.5630 C   0  0  0  0  0  0  0  0  0  0  0  0
  139.9910   71.5120  225.6040 C   0  0  0  0  0  0  0  0  0  0  0  0
  138.8730   74.0090  221.6920 C   0  0  0  0  0  0  0  0  0  0  0  0
  138.9720   75.4780  221.4530 C   0  0  0  0  0  0  0  0  0  0  0  0
  143.1350   76.8919  219.3518 H   0  0  0  0  0  0  0  0  0  0  0  0
  142.0893   76.8013  217.8941 H   0  0  0  0  0  0  0  0  0  0  0  0
  143.5403   77.8602  217.8941 H   0  0  0  0  0  0  0  0  0  0  0  0
  142.3277   79.0135  219.9600 H   0  0  0  0  0  0  0  0  0  0  0  0
  141.8261   79.4296  218.3038 H   0  0  0  0  0  0  0  0  0  0  0  0
  142.3862   77.6949  222.1911 H   0  0  0  0  0  0  0  0  0  0  0  0
  142.2941   78.9342  224.3300 H   0  0  0  0  0  0  0  0  0  0  0  0
  140.1939   79.9667  225.1451 H   0  0  0  0  0  0  0  0  0  0  0  0
  138.1341   79.7286  223.7489 H   0  0  0  0  0  0  0  0  0  0  0  0
  138.2350   78.4999  221.6425 H   0  0  0  0  0  0  0  0  0  0  0  0
  139.5534   75.6737  219.4743 H   0  0  0  0  0  0  0  0  0  0  0  0
  141.3643   74.5732  219.5506 H   0  0  0  0  0  0  0  0  0  0  0  0
  142.0567   75.8331  220.7144 H   0  0  0  0  0  0  0  0  0  0  0  0
  142.1716   73.3954  221.3519 H   0  0  0  0  0  0  0  0  0  0  0  0
  141.5471   74.6426  222.5315 H   0  0  0  0  0  0  0  0  0  0  0  0
  138.3653   71.2188  221.6179 H   0  0  0  0  0  0  0  0  0  0  0  0
  140.5970   69.6430  221.5330 H   0  0  0  0  0  0  0  0  0  0  0  0
  138.9700   69.0420  221.5110 H   0  0  0  0  0  0  0  0  0  0  0  0
  138.3579   72.1812  223.8313 H   0  0  0  0  0  0  0  0  0  0  0  0
  137.6509   70.4901  223.6148 H   0  0  0  0  0  0  0  0  0  0  0  0
  138.9781   68.5331  224.4553 H   0  0  0  0  0  0  0  0  0  0  0  0
  140.3792   67.2295  227.5624 H   0  0  0  0  0  0  0  0  0  0  0  0
  139.5141   66.8284  226.0401 H   0  0  0  0  0  0  0  0  0  0  0  0
  141.3029   66.9922  226.0401 H   0  0  0  0  0  0  0  0  0  0  0  0
  141.4737   69.3947  227.8270 H   0  0  0  0  0  0  0  0  0  0  0  0
  141.2690   71.8008  228.6172 H   0  0  0  0  0  0  0  0  0  0  0  0
  142.5325   72.0215  227.3596 H   0  0  0  0  0  0  0  0  0  0  0  0
  141.0728   73.0683  227.3596 H   0  0  0  0  0  0  0  0  0  0  0  0
  139.9122   72.5909  225.4045 H   0  0  0  0  0  0  0  0  0  0  0  0
  138.3077   73.5636  220.8601 H   0  0  0  0  0  0  0  0  0  0  0  0
  138.3778   73.8850  222.6663 H   0  0  0  0  0  0  0  0  0  0  0  0
  137.9924   75.8313  221.0986 H   0  0  0  0  0  0  0  0  0  0  0  0
  139.2807   75.9217  222.4111 H   0  0  0  0  0  0  0  0  0  0  0  0
  1  2  1  0
  2  3  1  0
  3  4  2  0
  3  5  1  0
  5  6  1  0
  6  7  2  0
  7  8  1  0
  8  9  2  0
  9 10  1  0
 10 11  2  0
  5 12  1  0
 12 13  1  0
 13 14  1  0
 14 15  1  0
 15 16  1  0
 16 17  2  0
 16 18  1  0
 18 19  1  0
 18 20  1  0
 20 21  1  0
 21 22  2  0
 22 23  1  0
 23 24  1  0
 23 25  2  0
 25 26  1  0
 26 27  1  0
 26 28  2  0
 15 29  1  0
 29 30  1  0
 11  6  1  0
 30 12  1  0
 28 21  1  0
  1 31  1  0
  1 32  1  0
  1 33  1  0
  2 34  1  0
  2 35  1  0
  7 36  1  0
  8 37  1  0
  9 38  1  0
 10 39  1  0
 11 40  1  0
 12 41  1  0
 13 42  1  0
 13 43  1  0
 14 44  1  0
 14 45  1  0
 18 46  1  6
 19 47  1  0
 19 48  1  0
 20 49  1  0
 20 50  1  0
 22 51  1  0
 24 52  1  0
 24 53  1  0
 24 54  1  0
 25 55  1  0
 27 56  1  0
 27 57  1  0
 27 58  1  0
 28 59  1  0
 29 60  1  0
 29 61  1  0
 30 62  1  0
 30 63  1  0
M  END
>  <smiles>  (29) 
CCC(=O)N(c1ccccc1)C1CCN(C(=O)[C@@H](N)Cc2cc(C)cc(C)c2)CC1

>  <score_type>  (29) 
oracle

>  <origin>  (29) 
autodockgpu

>  <m_score__min__energy>  (29) 
-8.5899999999999999

>  <m_primary>  (29) 
energy

>  <rmsd>  (29) 
7.327424042516576

>  <m_score__min__rmsd>  (29) 
7.327424042516576

>  <meeko>  (29) 
{"free_energy": -6.68, "intermolecular_energy": -9.07, "internal_energy": -2.44, "cluster_size": 21, "cluster_id": 1, "rank_in_cluster": 21}

>  <energy>  (29) 
-6.94

>  <cluster_rmsd>  (29) 
0.62

>  <cluster>  (29) 
4

$$$$

     RDKit          3D

 63 65  0  0  0  0  0  0  0  0999 V2000
  141.8440   80.4400  220.6350 C   0  0  0  0  0  0  0  0  0  0  0  0
  141.0490   81.4870  221.3990 C   0  0  0  0  0  0  0  0  0  0  0  0
  140.9520   81.0230  222.8040 C   0  0  0  0  0  0  0  0  0  0  0  0
  141.9550   81.2080  223.5370 O   0  0  0  0  0  0  0  0  0  0  0  0
  139.7550   80.3880  223.2920 N   0  0  0  0  0  0  0  0  0  0  0  0
  138.6360   81.2390  223.6080 C   0  0  0  0  0  0  0  0  0  0  0  0
  138.0310   81.2380  224.8390 C   0  0  0  0  0  0  0  0  0  0  0  0
  136.9570   82.0880  225.0590 C   0  0  0  0  0  0  0  0  0  0  0  0
  136.4720   82.9400  224.0880 C   0  0  0  0  0  0  0  0  0  0  0  0
  137.0930   82.9260  222.8610 C   0  0  0  0  0  0  0  0  0  0  0  0
  138.1480   82.0870  222.6500 C   0  0  0  0  0  0  0  0  0  0  0  0
  139.6880   78.9550  223.4550 C   0  0  0  0  0  0  0  0  0  0  0  0
  138.3680   78.4250  223.0200 C   0  0  0  0  0  0  0  0  0  0  0  0
  138.3930   77.3750  221.9670 C   0  0  0  0  0  0  0  0  0  0  0  0
  139.4230   76.3730  222.1750 N   0  0  0  0  0  0  0  0  0  0  0  0
  139.0830   75.0370  221.8780 C   0  0  0  0  0  0  0  0  0  0  0  0
  137.9030   74.8340  221.4500 O   0  0  0  0  0  0  0  0  0  0  0  0
  139.9520   73.8550  222.0130 C   0  0  1  0  0  0  0  0  0  0  0  0
  139.2520   72.8050  222.6640 N   0  0  0  0  0  0  0  0  0  0  0  0
  140.6470   73.4780  220.7290 C   0  0  0  0  0  0  0  0  0  0  0  0
  141.7970   74.2980  220.3630 C   0  0  0  0  0  0  0  0  0  0  0  0
  141.7120   75.5190  219.7310 C   0  0  0  0  0  0  0  0  0  0  0  0
  142.8220   76.2800  219.3980 C   0  0  0  0  0  0  0  0  0  0  0  0
  142.6910   77.5970  218.7130 C   0  0  0  0  0  0  0  0  0  0  0  0
  144.0740   75.8180  219.7000 C   0  0  0  0  0  0  0  0  0  0  0  0
  144.1830   74.6010  220.3310 C   0  0  0  0  0  0  0  0  0  0  0  0
  145.5640   74.1000  220.6650 C   0  0  0  0  0  0  0  0  0  0  0  0
  143.0730   73.8450  220.6620 C   0  0  0  0  0  0  0  0  0  0  0  0
  140.7130   76.7930  222.6540 C   0  0  0  0  0  0  0  0  0  0  0  0
  140.8590   78.2670  222.8320 C   0  0  0  0  0  0  0  0  0  0  0  0
  142.3508   79.7725  221.3474 H   0  0  0  0  0  0  0  0  0  0  0  0
  141.1628   79.8519  220.0024 H   0  0  0  0  0  0  0  0  0  0  0  0
  142.5934   80.9382  220.0024 H   0  0  0  0  0  0  0  0  0  0  0  0
  141.5654   82.4573  221.3571 H   0  0  0  0  0  0  0  0  0  0  0  0
  140.0487   81.6158  220.9598 H   0  0  0  0  0  0  0  0  0  0  0  0
  138.3915   80.5741  225.6386 H   0  0  0  0  0  0  0  0  0  0  0  0
  136.4728   82.0826  226.0467 H   0  0  0  0  0  0  0  0  0  0  0  0
  135.6198   83.6061  224.2880 H   0  0  0  0  0  0  0  0  0  0  0  0
  136.7414   83.5869  222.0550 H   0  0  0  0  0  0  0  0  0  0  0  0
  138.6304   82.0920  221.6614 H   0  0  0  0  0  0  0  0  0  0  0  0
  139.7628   78.7256  224.5282 H   0  0  0  0  0  0  0  0  0  0  0  0
  137.8695   78.0009  223.9041 H   0  0  0  0  0  0  0  0  0  0  0  0
  137.8434   79.2800  222.5686 H   0  0  0  0  0  0  0  0  0  0  0  0
  137.4150   76.8718  221.9533 H   0  0  0  0  0  0  0  0  0  0  0  0
  138.6164   77.8767  221.0139 H   0  0  0  0  0  0  0  0  0  0  0  0
  140.7962   74.1091  222.6709 H   0  0  0  0  0  0  0  0  0  0  0  0
  138.2170   72.9560  222.7280 H   0  0  0  0  0  0  0  0  0  0  0  0
  139.6660   72.3800  223.4890 H   0  0  0  0  0  0  0  0  0  0  0  0
  140.9915   72.4378  220.8250 H   0  0  0  0  0  0  0  0  0  0  0  0
  139.9049   73.6328  219.9319 H   0  0  0  0  0  0  0  0  0  0  0  0
  140.7151   75.9092  219.4783 H   0  0  0  0  0  0  0  0  0  0  0  0
  142.6116   78.3954  219.4655 H   0  0  0  0  0  0  0  0  0  0  0  0
  143.5761   77.7728  218.0839 H   0  0  0  0  0  0  0  0  0  0  0  0
  141.7886   77.5950  218.0839 H   0  0  0  0  0  0  0  0  0  0  0  0
  144.9692   76.4042  219.4450 H   0  0  0  0  0  0  0  0  0  0  0  0
  145.6840   74.0565  221.7576 H   0  0  0  0  0  0  0  0  0  0  0  0
  145.7019   73.0946  220.2406 H   0  0  0  0  0  0  0  0  0  0  0  0
  146.3145   74.7832  220.2406 H   0  0  0  0  0  0  0  0  0  0  0  0
  143.2036   72.8763  221.1666 H   0  0  0  0  0  0  0  0  0  0  0  0
  140.8919   76.3105  223.6262 H   0  0  0  0  0  0  0  0  0  0  0  0
  141.4425   76.4978  221.8855 H   0  0  0  0  0  0  0  0  0  0  0  0
  141.7372   78.4468  223.4695 H   0  0  0  0  0  0  0  0  0  0  0  0
  140.9550   78.6871  221.8199 H   0  0  0  0  0  0  0  0  0  0  0  0
  1  2  1  0
  2  3  1  0
  3  4  2  0
  3  5  1  0
  5  6  1  0
  6  7  2  0
  7  8  1  0
  8  9  2  0
  9 10  1  0
 10 11  2  0
  5 12  1  0
 12 13  1  0
 13 14  1  0
 14 15  1  0
 15 16  1  0
 16 17  2  0
 16 18  1  0
 18 19  1  0
 18 20  1  0
 20 21  1  0
 21 22  2  0
 22 23  1  0
 23 24  1  0
 23 25  2  0
 25 26  1  0
 26 27  1  0
 26 28  2  0
 15 29  1  0
 29 30  1  0
 11  6  1  0
 30 12  1  0
 28 21  1  0
  1 31  1  0
  1 32  1  0
  1 33  1  0
  2 34  1  0
  2 35  1  0
  7 36  1  0
  8 37  1  0
  9 38  1  0
 10 39  1  0
 11 40  1  0
 12 41  1  0
 13 42  1  0
 13 43  1  0
 14 44  1  0
 14 45  1  0
 18 46  1  1
 19 47  1  0
 19 48  1  0
 20 49  1  0
 20 50  1  0
 22 51  1  0
 24 52  1  0
 24 53  1  0
 24 54  1  0
 25 55  1  0
 27 56  1  0
 27 57  1  0
 27 58  1  0
 28 59  1  0
 29 60  1  0
 29 61  1  0
 30 62  1  0
 30 63  1  0
M  END
>  <smiles>  (30) 
CCC(=O)N(c1ccccc1)C1CCN(C(=O)[C@@H](N)Cc2cc(C)cc(C)c2)CC1

>  <score_type>  (30) 
oracle

>  <origin>  (30) 
autodockgpu

>  <m_score__min__energy>  (30) 
-8.5899999999999999

>  <m_primary>  (30) 
energy

>  <rmsd>  (30) 
4.166083914966037

>  <m_score__min__rmsd>  (30) 
4.166083914966037

>  <meeko>  (30) 
{"free_energy": -6.24, "intermolecular_energy": -8.62, "internal_energy": -2.64, "cluster_size": 1, "cluster_id": 7, "rank_in_cluster": 1}

>  <energy>  (30) 
-6.73

>  <cluster_rmsd>  (30) 
0.79

>  <cluster>  (30) 
4

$$$$

     RDKit          3D

 63 65  0  0  0  0  0  0  0  0999 V2000
  138.7380   82.6100  221.2490 C   0  0  0  0  0  0  0  0  0  0  0  0
  137.9780   83.6630  222.0400 C   0  0  0  0  0  0  0  0  0  0  0  0
  136.7660   83.0080  222.5880 C   0  0  0  0  0  0  0  0  0  0  0  0
  135.7050   83.1270  221.9260 O   0  0  0  0  0  0  0  0  0  0  0  0
  136.8180   82.2730  223.8250 N   0  0  0  0  0  0  0  0  0  0  0  0
  136.5450   82.9990  225.0390 C   0  0  0  0  0  0  0  0  0  0  0  0
  136.4760   82.3900  226.2660 C   0  0  0  0  0  0  0  0  0  0  0  0
  136.2080   83.1640  227.3850 C   0  0  0  0  0  0  0  0  0  0  0  0
  136.0070   84.5270  227.3160 C   0  0  0  0  0  0  0  0  0  0  0  0
  136.0810   85.1190  226.0770 C   0  0  0  0  0  0  0  0  0  0  0  0
  136.3440   84.3530  224.9790 C   0  0  0  0  0  0  0  0  0  0  0  0
  137.1330   80.8640  223.8390 C   0  0  0  0  0  0  0  0  0  0  0  0
  136.4510   80.1490  222.7270 C   0  0  0  0  0  0  0  0  0  0  0  0
  137.3270   79.3910  221.7950 C   0  0  0  0  0  0  0  0  0  0  0  0
  138.3710   78.6360  222.4660 N   0  0  0  0  0  0  0  0  0  0  0  0
  138.6640   77.3570  221.9530 C   0  0  0  0  0  0  0  0  0  0  0  0
  137.9890   76.9820  220.9430 O   0  0  0  0  0  0  0  0  0  0  0  0
  139.6710   76.4110  222.4660 C   0  0  1  0  0  0  0  0  0  0  0  0
  139.2280   75.0740  222.2750 N   0  0  0  0  0  0  0  0  0  0  0  0
  141.0680   76.7090  221.9840 C   0  0  0  0  0  0  0  0  0  0  0  0
  141.4490   78.1180  221.9690 C   0  0  0  0  0  0  0  0  0  0  0  0
  141.9850   78.7910  223.0440 C   0  0  0  0  0  0  0  0  0  0  0  0
  142.3410   80.1300  223.0010 C   0  0  0  0  0  0  0  0  0  0  0  0
  142.9180   80.8250  224.1860 C   0  0  0  0  0  0  0  0  0  0  0  0
  142.1620   80.8400  221.8460 C   0  0  0  0  0  0  0  0  0  0  0  0
  141.6290   80.1890  220.7590 C   0  0  0  0  0  0  0  0  0  0  0  0
  141.4380   80.9750  219.4880 C   0  0  0  0  0  0  0  0  0  0  0  0
  141.2740   78.8530  220.8060 C   0  0  0  0  0  0  0  0  0  0  0  0
  139.0410   79.2320  223.5920 C   0  0  0  0  0  0  0  0  0  0  0  0
  138.6060   80.6230  223.9090 C   0  0  0  0  0  0  0  0  0  0  0  0
  139.2370   81.9186  221.9440 H   0  0  0  0  0  0  0  0  0  0  0  0
  138.0351   82.0492  220.6154 H   0  0  0  0  0  0  0  0  0  0  0  0
  139.4917   83.1004  220.6154 H   0  0  0  0  0  0  0  0  0  0  0  0
  138.6045   84.0436  222.8602 H   0  0  0  0  0  0  0  0  0  0  0  0
  137.7062   84.5137  221.3978 H   0  0  0  0  0  0  0  0  0  0  0  0
  136.6308   81.3051  226.3609 H   0  0  0  0  0  0  0  0  0  0  0  0
  136.1535   82.6713  228.3670 H   0  0  0  0  0  0  0  0  0  0  0  0
  135.7953   85.1186  228.2189 H   0  0  0  0  0  0  0  0  0  0  0  0
  135.9291   86.2034  225.9718 H   0  0  0  0  0  0  0  0  0  0  0  0
  136.3973   84.8467  223.9975 H   0  0  0  0  0  0  0  0  0  0  0  0
  136.7299   80.4286  224.7652 H   0  0  0  0  0  0  0  0  0  0  0  0
  135.7404   79.4372  223.1724 H   0  0  0  0  0  0  0  0  0  0  0  0
  135.9840   80.9354  222.1159 H   0  0  0  0  0  0  0  0  0  0  0  0
  136.7022   78.6889  221.2233 H   0  0  0  0  0  0  0  0  0  0  0  0
  137.8255   80.1279  221.1480 H   0  0  0  0  0  0  0  0  0  0  0  0
  139.7636   76.5481  223.5535 H   0  0  0  0  0  0  0  0  0  0  0  0
  138.5250   74.9620  221.5050 H   0  0  0  0  0  0  0  0  0  0  0  0
  139.0500   74.4980  223.0920 H   0  0  0  0  0  0  0  0  0  0  0  0
  141.7720   76.1762  222.6401 H   0  0  0  0  0  0  0  0  0  0  0  0
  141.0977   76.3809  220.9345 H   0  0  0  0  0  0  0  0  0  0  0  0
  142.1382   78.2390  223.9831 H   0  0  0  0  0  0  0  0  0  0  0  0
  142.5331   80.3614  225.1063 H   0  0  0  0  0  0  0  0  0  0  0  0
  144.0144   80.7396  224.1633 H   0  0  0  0  0  0  0  0  0  0  0  0
  142.6324   81.8870  224.1633 H   0  0  0  0  0  0  0  0  0  0  0  0
  142.4372   81.9035  221.7884 H   0  0  0  0  0  0  0  0  0  0  0  0
  141.1849   82.0165  219.7355 H   0  0  0  0  0  0  0  0  0  0  0  0
  142.3676   80.9533  218.9003 H   0  0  0  0  0  0  0  0  0  0  0  0
  140.6221   80.5291  218.9003 H   0  0  0  0  0  0  0  0  0  0  0  0
  140.8495   78.3696  219.9138 H   0  0  0  0  0  0  0  0  0  0  0  0
  138.8523   78.6040  224.4752 H   0  0  0  0  0  0  0  0  0  0  0  0
  140.1063   79.2921  223.3245 H   0  0  0  0  0  0  0  0  0  0  0  0
  138.9407   80.8592  224.9299 H   0  0  0  0  0  0  0  0  0  0  0  0
  139.0558   81.2652  223.1375 H   0  0  0  0  0  0  0  0  0  0  0  0
  1  2  1  0
  2  3  1  0
  3  4  2  0
  3  5  1  0
  5  6  1  0
  6  7  2  0
  7  8  1  0
  8  9  2  0
  9 10  1  0
 10 11  2  0
  5 12  1  0
 12 13  1  0
 13 14  1  0
 14 15  1  0
 15 16  1  0
 16 17  2  0
 16 18  1  0
 18 19  1  0
 18 20  1  0
 20 21  1  0
 21 22  2  0
 22 23  1  0
 23 24  1  0
 23 25  2  0
 25 26  1  0
 26 27  1  0
 26 28  2  0
 15 29  1  0
 29 30  1  0
 11  6  1  0
 30 12  1  0
 28 21  1  0
  1 31  1  0
  1 32  1  0
  1 33  1  0
  2 34  1  0
  2 35  1  0
  7 36  1  0
  8 37  1  0
  9 38  1  0
 10 39  1  0
 11 40  1  0
 12 41  1  0
 13 42  1  0
 13 43  1  0
 14 44  1  0
 14 45  1  0
 18 46  1  1
 19 47  1  0
 19 48  1  0
 20 49  1  0
 20 50  1  0
 22 51  1  0
 24 52  1  0
 24 53  1  0
 24 54  1  0
 25 55  1  0
 27 56  1  0
 27 57  1  0
 27 58  1  0
 28 59  1  0
 29 60  1  0
 29 61  1  0
 30 62  1  0
 30 63  1  0
M  END
>  <smiles>  (31) 
CCC(=O)N(c1ccccc1)C1CCN(C(=O)[C@@H](N)Cc2cc(C)cc(C)c2)CC1

>  <score_type>  (31) 
oracle

>  <origin>  (31) 
autodockgpu

>  <m_score__min__energy>  (31) 
-8.5899999999999999

>  <m_primary>  (31) 
energy

>  <rmsd>  (31) 
4.533790440860597

>  <m_score__min__rmsd>  (31) 
4.533790440860597

>  <meeko>  (31) 
{"free_energy": -6.15, "intermolecular_energy": -8.54, "internal_energy": -3.04, "cluster_size": 17, "cluster_id": 5, "rank_in_cluster": 17}

>  <energy>  (31) 
-6.67

>  <cluster_rmsd>  (31) 
1.1

>  <cluster>  (31) 
4

$$$$

     RDKit          3D

 63 65  0  0  0  0  0  0  0  0999 V2000
  138.0870   82.4350  221.2380 C   0  0  0  0  0  0  0  0  0  0  0  0
  137.6600   83.3670  222.3620 C   0  0  0  0  0  0  0  0  0  0  0  0
  136.4920   82.7410  223.0280 C   0  0  0  0  0  0  0  0  0  0  0  0
  135.3680   82.9210  222.4960 O   0  0  0  0  0  0  0  0  0  0  0  0
  136.6540   81.9670  224.2310 N   0  0  0  0  0  0  0  0  0  0  0  0
  136.3210   82.6040  225.4800 C   0  0  0  0  0  0  0  0  0  0  0  0
  136.1830   83.9630  225.6030 C   0  0  0  0  0  0  0  0  0  0  0  0
  135.8610   84.4950  226.8430 C   0  0  0  0  0  0  0  0  0  0  0  0
  135.6710   83.7100  227.9620 C   0  0  0  0  0  0  0  0  0  0  0  0
  135.8130   82.3500  227.8170 C   0  0  0  0  0  0  0  0  0  0  0  0
  136.1310   81.8320  226.5950 C   0  0  0  0  0  0  0  0  0  0  0  0
  137.1330   80.6050  224.1790 C   0  0  0  0  0  0  0  0  0  0  0  0
  136.3430   79.7930  223.2150 C   0  0  0  0  0  0  0  0  0  0  0  0
  137.1110   79.1270  222.1290 C   0  0  0  0  0  0  0  0  0  0  0  0
  138.3460   78.5150  222.5870 N   0  0  0  0  0  0  0  0  0  0  0  0
  138.6880   77.2700  222.0220 C   0  0  0  0  0  0  0  0  0  0  0  0
  137.8840   76.7990  221.1570 O   0  0  0  0  0  0  0  0  0  0  0  0
  139.8800   76.4590  222.3300 C   0  0  1  0  0  0  0  0  0  0  0  0
  139.5680   75.0760  222.2400 N   0  0  0  0  0  0  0  0  0  0  0  0
  141.1100   76.9000  221.5770 C   0  0  0  0  0  0  0  0  0  0  0  0
  141.4110   78.3270  221.6290 C   0  0  0  0  0  0  0  0  0  0  0  0
  141.1350   79.2180  220.6160 C   0  0  0  0  0  0  0  0  0  0  0  0
  141.4290   80.5710  220.6940 C   0  0  0  0  0  0  0  0  0  0  0  0
  141.1170   81.5050  219.5770 C   0  0  0  0  0  0  0  0  0  0  0  0
  142.0220   81.0700  221.8220 C   0  0  0  0  0  0  0  0  0  0  0  0
  142.3060   80.1980  222.8470 C   0  0  0  0  0  0  0  0  0  0  0  0
  142.9540   80.7550  224.0880 C   0  0  0  0  0  0  0  0  0  0  0  0
  142.0110   78.8490  222.7650 C   0  0  0  0  0  0  0  0  0  0  0  0
  139.1410   79.2070  223.5660 C   0  0  0  0  0  0  0  0  0  0  0  0
  138.6110   80.5420  223.9660 C   0  0  0  0  0  0  0  0  0  0  0  0
  138.5091   81.5137  221.6660 H   0  0  0  0  0  0  0  0  0  0  0  0
  137.2138   82.1846  220.6177 H   0  0  0  0  0  0  0  0  0  0  0  0
  138.8469   82.9328  220.6177 H   0  0  0  0  0  0  0  0  0  0  0  0
  138.4825   83.4918  223.0816 H   0  0  0  0  0  0  0  0  0  0  0  0
  137.4001   84.3609  221.9688 H   0  0  0  0  0  0  0  0  0  0  0  0
  136.3253   84.6204  224.7326 H   0  0  0  0  0  0  0  0  0  0  0  0
  135.7528   85.5855  226.9381 H   0  0  0  0  0  0  0  0  0  0  0  0
  135.4153   84.1560  228.9345 H   0  0  0  0  0  0  0  0  0  0  0  0
  135.6712   81.6836  228.6806 H   0  0  0  0  0  0  0  0  0  0  0  0
  136.2400   80.7414  226.5012 H   0  0  0  0  0  0  0  0  0  0  0  0
  136.9683   80.1423  225.1633 H   0  0  0  0  0  0  0  0  0  0  0  0
  135.8212   79.0102  223.7850 H   0  0  0  0  0  0  0  0  0  0  0  0
  135.6768   80.5064  222.7078 H   0  0  0  0  0  0  0  0  0  0  0  0
  136.4785   78.3448  221.6839 H   0  0  0  0  0  0  0  0  0  0  0  0
  137.3848   79.9049  221.4010 H   0  0  0  0  0  0  0  0  0  0  0  0
  140.1684   76.6367  223.3766 H   0  0  0  0  0  0  0  0  0  0  0  0
  138.8040   74.8530  221.5580 H   0  0  0  0  0  0  0  0  0  0  0  0
  139.5410   74.5260  223.0940 H   0  0  0  0  0  0  0  0  0  0  0  0
  141.9722   76.3582  221.9929 H   0  0  0  0  0  0  0  0  0  0  0  0
  140.9078   76.6765  220.5191 H   0  0  0  0  0  0  0  0  0  0  0  0
  140.6581   78.8381  219.7004 H   0  0  0  0  0  0  0  0  0  0  0  0
  140.7937   82.4728  219.9878 H   0  0  0  0  0  0  0  0  0  0  0  0
  142.0153   81.6506  218.9590 H   0  0  0  0  0  0  0  0  0  0  0  0
  140.3115   81.0815  218.9590 H   0  0  0  0  0  0  0  0  0  0  0  0
  142.2649   82.1395  221.9066 H   0  0  0  0  0  0  0  0  0  0  0  0
  142.4639   80.3337  224.9781 H   0  0  0  0  0  0  0  0  0  0  0  0
  144.0210   80.4878  224.0959 H   0  0  0  0  0  0  0  0  0  0  0  0
  142.8501   81.8501  224.0959 H   0  0  0  0  0  0  0  0  0  0  0  0
  142.2543   78.1851  223.6076 H   0  0  0  0  0  0  0  0  0  0  0  0
  139.2005   78.5778  224.4663 H   0  0  0  0  0  0  0  0  0  0  0  0
  140.1208   79.3879  223.1000 H   0  0  0  0  0  0  0  0  0  0  0  0
  139.1025   80.8351  224.9054 H   0  0  0  0  0  0  0  0  0  0  0  0
  138.8263   81.2188  223.1260 H   0  0  0  0  0  0  0  0  0  0  0  0
  1  2  1  0
  2  3  1  0
  3  4  2  0
  3  5  1  0
  5  6  1  0
  6  7  2  0
  7  8  1  0
  8  9  2  0
  9 10  1  0
 10 11  2  0
  5 12  1  0
 12 13  1  0
 13 14  1  0
 14 15  1  0
 15 16  1  0
 16 17  2  0
 16 18  1  0
 18 19  1  0
 18 20  1  0
 20 21  1  0
 21 22  2  0
 22 23  1  0
 23 24  1  0
 23 25  2  0
 25 26  1  0
 26 27  1  0
 26 28  2  0
 15 29  1  0
 29 30  1  0
 11  6  1  0
 30 12  1  0
 28 21  1  0
  1 31  1  0
  1 32  1  0
  1 33  1  0
  2 34  1  0
  2 35  1  0
  7 36  1  0
  8 37  1  0
  9 38  1  0
 10 39  1  0
 11 40  1  0
 12 41  1  0
 13 42  1  0
 13 43  1  0
 14 44  1  0
 14 45  1  0
 18 46  1  1
 19 47  1  0
 19 48  1  0
 20 49  1  0
 20 50  1  0
 22 51  1  0
 24 52  1  0
 24 53  1  0
 24 54  1  0
 25 55  1  0
 27 56  1  0
 27 57  1  0
 27 58  1  0
 28 59  1  0
 29 60  1  0
 29 61  1  0
 30 62  1  0
 30 63  1  0
M  END
>  <smiles>  (32) 
CCC(=O)N(c1ccccc1)C1CCN(C(=O)[C@@H](N)Cc2cc(C)cc(C)c2)CC1

>  <score_type>  (32) 
oracle

>  <origin>  (32) 
autodockgpu

>  <m_score__min__energy>  (32) 
-8.5899999999999999

>  <m_primary>  (32) 
energy

>  <rmsd>  (32) 
4.416627541768094

>  <m_score__min__rmsd>  (32) 
4.416627541768094

>  <meeko>  (32) 
{"free_energy": -6.44, "intermolecular_energy": -8.82, "internal_energy": -2.98, "cluster_size": 17, "cluster_id": 5, "rank_in_cluster": 12}

>  <energy>  (32) 
-6.68

>  <cluster_rmsd>  (32) 
0.0

>  <cluster>  (32) 
5

$$$$

     RDKit          3D

 63 65  0  0  0  0  0  0  0  0999 V2000
  142.3280   78.2410  218.3770 C   0  0  0  0  0  0  0  0  0  0  0  0
  140.8530   78.2450  218.0060 C   0  0  0  0  0  0  0  0  0  0  0  0
  140.0870   78.4490  219.2590 C   0  0  0  0  0  0  0  0  0  0  0  0
  139.2430   79.3800  219.2660 O   0  0  0  0  0  0  0  0  0  0  0  0
  140.3130   77.6120  220.4080 N   0  0  0  0  0  0  0  0  0  0  0  0
  140.7830   78.2500  221.6110 C   0  0  0  0  0  0  0  0  0  0  0  0
  139.9920   78.4120  222.7200 C   0  0  0  0  0  0  0  0  0  0  0  0
  140.5240   79.0390  223.8370 C   0  0  0  0  0  0  0  0  0  0  0  0
  141.8210   79.5070  223.8810 C   0  0  0  0  0  0  0  0  0  0  0  0
  142.5980   79.3340  222.7590 C   0  0  0  0  0  0  0  0  0  0  0  0
  142.0690   78.7180  221.6620 C   0  0  0  0  0  0  0  0  0  0  0  0
  140.0750   76.1880  220.3480 C   0  0  0  0  0  0  0  0  0  0  0  0
  141.3490   75.4260  220.4410 C   0  0  0  0  0  0  0  0  0  0  0  0
  141.4430   74.4290  221.5400 C   0  0  0  0  0  0  0  0  0  0  0  0
  140.2370   73.6390  221.7090 N   0  0  0  0  0  0  0  0  0  0  0  0
  140.4060   72.2720  222.0060 C   0  0  0  0  0  0  0  0  0  0  0  0
  141.6040   71.8570  222.1040 O   0  0  0  0  0  0  0  0  0  0  0  0
  139.3400   71.2760  222.2140 C   0  0  1  0  0  0  0  0  0  0  0  0
  139.8020   69.9820  221.8530 N   0  0  0  0  0  0  0  0  0  0  0  0
  138.6840   71.3800  223.5670 C   0  0  0  0  0  0  0  0  0  0  0  0
  139.4080   70.7630  224.6740 C   0  0  0  0  0  0  0  0  0  0  0  0
  139.5100   69.4050  224.8780 C   0  0  0  0  0  0  0  0  0  0  0  0
  140.2090   68.8460  225.9370 C   0  0  0  0  0  0  0  0  0  0  0  0
  140.2960   67.3710  226.1250 C   0  0  0  0  0  0  0  0  0  0  0  0
  140.8360   69.6620  226.8390 C   0  0  0  0  0  0  0  0  0  0  0  0
  140.7480   71.0220  226.6550 C   0  0  0  0  0  0  0  0  0  0  0  0
  141.4450   71.9150  227.6490 C   0  0  0  0  0  0  0  0  0  0  0  0
  140.0500   71.5750  225.5970 C   0  0  0  0  0  0  0  0  0  0  0  0
  138.9590   74.2870  221.5750 C   0  0  0  0  0  0  0  0  0  0  0  0
  139.0310   75.7560  221.3260 C   0  0  0  0  0  0  0  0  0  0  0  0
  142.4306   78.2407  219.4722 H   0  0  0  0  0  0  0  0  0  0  0  0
  142.8076   77.3415  217.9636 H   0  0  0  0  0  0  0  0  0  0  0  0
  142.8125   79.1378  217.9636 H   0  0  0  0  0  0  0  0  0  0  0  0
  140.6442   79.0617  217.2993 H   0  0  0  0  0  0  0  0  0  0  0  0
  140.5687   77.2980  217.5240 H   0  0  0  0  0  0  0  0  0  0  0  0
  138.9531   78.0507  222.7234 H   0  0  0  0  0  0  0  0  0  0  0  0
  139.8859   79.1683  224.7236 H   0  0  0  0  0  0  0  0  0  0  0  0
  142.2192   80.0003  224.7800 H   0  0  0  0  0  0  0  0  0  0  0  0
  143.6388   79.6898  222.7461 H   0  0  0  0  0  0  0  0  0  0  0  0
  142.7071   78.5912  220.7750 H   0  0  0  0  0  0  0  0  0  0  0  0
  139.6548   75.9483  219.3601 H   0  0  0  0  0  0  0  0  0  0  0  0
  141.4892   74.8907  219.4903 H   0  0  0  0  0  0  0  0  0  0  0  0
  142.1235   76.1761  220.6592 H   0  0  0  0  0  0  0  0  0  0  0  0
  142.2781   73.7473  221.3213 H   0  0  0  0  0  0  0  0  0  0  0  0
  141.5962   74.9898  222.4738 H   0  0  0  0  0  0  0  0  0  0  0  0
  138.5071   71.5014  221.5318 H   0  0  0  0  0  0  0  0  0  0  0  0
  139.3980   69.2060  222.4310 H   0  0  0  0  0  0  0  0  0  0  0  0
  140.7830   69.8620  221.6180 H   0  0  0  0  0  0  0  0  0  0  0  0
  138.5581   72.4477  223.7997 H   0  0  0  0  0  0  0  0  0  0  0  0
  137.7378   70.8252  223.4833 H   0  0  0  0  0  0  0  0  0  0  0  0
  139.0124   68.7304  224.1657 H   0  0  0  0  0  0  0  0  0  0  0  0
  140.3097   67.1386  227.2001 H   0  0  0  0  0  0  0  0  0  0  0  0
  139.4247   66.8897  225.6569 H   0  0  0  0  0  0  0  0  0  0  0  0
  141.2179   66.9954  225.6569 H   0  0  0  0  0  0  0  0  0  0  0  0
  141.3951   69.2416  227.6880 H   0  0  0  0  0  0  0  0  0  0  0  0
  141.1937   71.5930  228.6704 H   0  0  0  0  0  0  0  0  0  0  0  0
  142.5330   71.8493  227.5011 H   0  0  0  0  0  0  0  0  0  0  0  0
  141.1170   72.9545  227.5011 H   0  0  0  0  0  0  0  0  0  0  0  0
  140.0036   72.6685  225.4865 H   0  0  0  0  0  0  0  0  0  0  0  0
  138.4251   73.8220  220.7331 H   0  0  0  0  0  0  0  0  0  0  0  0
  138.4419   74.1588  222.5374 H   0  0  0  0  0  0  0  0  0  0  0  0
  138.0525   76.0845  220.9457 H   0  0  0  0  0  0  0  0  0  0  0  0
  139.3069   76.2140  222.2873 H   0  0  0  0  0  0  0  0  0  0  0  0
  1  2  1  0
  2  3  1  0
  3  4  2  0
  3  5  1  0
  5  6  1  0
  6  7  2  0
  7  8  1  0
  8  9  2  0
  9 10  1  0
 10 11  2  0
  5 12  1  0
 12 13  1  0
 13 14  1  0
 14 15  1  0
 15 16  1  0
 16 17  2  0
 16 18  1  0
 18 19  1  0
 18 20  1  0
 20 21  1  0
 21 22  2  0
 22 23  1  0
 23 24  1  0
 23 25  2  0
 25 26  1  0
 26 27  1  0
 26 28  2  0
 15 29  1  0
 29 30  1  0
 11  6  1  0
 30 12  1  0
 28 21  1  0
  1 31  1  0
  1 32  1  0
  1 33  1  0
  2 34  1  0
  2 35  1  0
  7 36  1  0
  8 37  1  0
  9 38  1  0
 10 39  1  0
 11 40  1  0
 12 41  1  0
 13 42  1  0
 13 43  1  0
 14 44  1  0
 14 45  1  0
 18 46  1  6
 19 47  1  0
 19 48  1  0
 20 49  1  0
 20 50  1  0
 22 51  1  0
 24 52  1  0
 24 53  1  0
 24 54  1  0
 25 55  1  0
 27 56  1  0
 27 57  1  0
 27 58  1  0
 28 59  1  0
 29 60  1  0
 29 61  1  0
 30 62  1  0
 30 63  1  0
M  END
>  <smiles>  (33) 
CCC(=O)N(c1ccccc1)C1CCN(C(=O)[C@@H](N)Cc2cc(C)cc(C)c2)CC1

>  <score_type>  (33) 
oracle

>  <origin>  (33) 
autodockgpu

>  <m_score__min__energy>  (33) 
-8.5899999999999999

>  <m_primary>  (33) 
energy

>  <rmsd>  (33) 
7.059994241490109

>  <m_score__min__rmsd>  (33) 
7.059994241490109

>  <meeko>  (33) 
{"free_energy": -6.71, "intermolecular_energy": -9.1, "internal_energy": -2.37, "cluster_size": 21, "cluster_id": 1, "rank_in_cluster": 20}

>  <energy>  (33) 
-6.63

>  <cluster_rmsd>  (33) 
0.7

>  <cluster>  (33) 
5

$$$$

     RDKit          3D

 63 65  0  0  0  0  0  0  0  0999 V2000
  137.5320   84.6170  222.3880 C   0  0  0  0  0  0  0  0  0  0  0  0
  137.5080   83.1050  222.5460 C   0  0  0  0  0  0  0  0  0  0  0  0
  136.3630   82.7760  223.4300 C   0  0  0  0  0  0  0  0  0  0  0  0
  135.2430   83.2510  223.1130 O   0  0  0  0  0  0  0  0  0  0  0  0
  136.5420   81.9500  224.5950 N   0  0  0  0  0  0  0  0  0  0  0  0
  136.1710   82.5120  225.8690 C   0  0  0  0  0  0  0  0  0  0  0  0
  135.8000   81.7380  226.9390 C   0  0  0  0  0  0  0  0  0  0  0  0
  135.4580   82.3600  228.1300 C   0  0  0  0  0  0  0  0  0  0  0  0
  135.4750   83.7310  228.2850 C   0  0  0  0  0  0  0  0  0  0  0  0
  135.8500   84.4890  227.2000 C   0  0  0  0  0  0  0  0  0  0  0  0
  136.1860   83.8710  226.0310 C   0  0  0  0  0  0  0  0  0  0  0  0
  137.0740   80.6120  224.4830 C   0  0  0  0  0  0  0  0  0  0  0  0
  136.2730   79.7920  223.5340 C   0  0  0  0  0  0  0  0  0  0  0  0
  137.0150   79.1880  222.3950 C   0  0  0  0  0  0  0  0  0  0  0  0
  138.2940   78.6170  222.7770 N   0  0  0  0  0  0  0  0  0  0  0  0
  138.6600   77.4030  222.1620 C   0  0  0  0  0  0  0  0  0  0  0  0
  137.8350   76.9210  221.3230 O   0  0  0  0  0  0  0  0  0  0  0  0
  139.8980   76.6360  222.3910 C   0  0  1  0  0  0  0  0  0  0  0  0
  139.6380   75.2440  222.2810 N   0  0  0  0  0  0  0  0  0  0  0  0
  141.0690   77.1450  221.5910 C   0  0  0  0  0  0  0  0  0  0  0  0
  141.3520   78.5720  221.7120 C   0  0  0  0  0  0  0  0  0  0  0  0
  141.0010   79.5180  220.7750 C   0  0  0  0  0  0  0  0  0  0  0  0
  141.2790   80.8690  220.9190 C   0  0  0  0  0  0  0  0  0  0  0  0
  140.8840   81.8630  219.8820 C   0  0  0  0  0  0  0  0  0  0  0  0
  141.9320   81.3090  222.0380 C   0  0  0  0  0  0  0  0  0  0  0  0
  142.2910   80.3820  222.9870 C   0  0  0  0  0  0  0  0  0  0  0  0
  143.0060   80.8740  224.2190 C   0  0  0  0  0  0  0  0  0  0  0  0
  142.0120   79.0360  222.8400 C   0  0  0  0  0  0  0  0  0  0  0  0
  139.1060   79.3160  223.7370 C   0  0  0  0  0  0  0  0  0  0  0  0
  138.5410   80.6170  224.1990 C   0  0  0  0  0  0  0  0  0  0  0  0
  137.5395   85.0894  223.3814 H   0  0  0  0  0  0  0  0  0  0  0  0
  138.4350   84.9135  221.8342 H   0  0  0  0  0  0  0  0  0  0  0  0
  136.6389   84.9420  221.8342 H   0  0  0  0  0  0  0  0  0  0  0  0
  137.3770   82.6253  221.5648 H   0  0  0  0  0  0  0  0  0  0  0  0
  138.4523   82.7418  222.9776 H   0  0  0  0  0  0  0  0  0  0  0  0
  135.7742   80.6416  226.8535 H   0  0  0  0  0  0  0  0  0  0  0  0
  135.1612   81.7355  228.9856 H   0  0  0  0  0  0  0  0  0  0  0  0
  135.1989   84.2004  229.2407 H   0  0  0  0  0  0  0  0  0  0  0  0
  135.8788   85.5861  227.2744 H   0  0  0  0  0  0  0  0  0  0  0  0
  136.4838   84.4960  225.1762 H   0  0  0  0  0  0  0  0  0  0  0  0
  136.9760   80.1182  225.4610 H   0  0  0  0  0  0  0  0  0  0  0  0
  135.8120   78.9729  224.1055 H   0  0  0  0  0  0  0  0  0  0  0  0
  135.5544   80.4893  223.0787 H   0  0  0  0  0  0  0  0  0  0  0  0
  136.3945   78.3919  221.9578 H   0  0  0  0  0  0  0  0  0  0  0  0
  137.2217   79.9959  221.6776 H   0  0  0  0  0  0  0  0  0  0  0  0
  140.2310   76.8013  223.4263 H   0  0  0  0  0  0  0  0  0  0  0  0
  138.9200   74.9980  221.5580 H   0  0  0  0  0  0  0  0  0  0  0  0
  139.5840   74.6890  223.1310 H   0  0  0  0  0  0  0  0  0  0  0  0
  141.9642   76.5951  221.9168 H   0  0  0  0  0  0  0  0  0  0  0  0
  140.8018   76.9830  220.5363 H   0  0  0  0  0  0  0  0  0  0  0  0
  140.4745   79.1859  219.8681 H   0  0  0  0  0  0  0  0  0  0  0  0
  140.5202   82.7785  220.3714 H   0  0  0  0  0  0  0  0  0  0  0  0
  141.7547   82.1039  219.2545 H   0  0  0  0  0  0  0  0  0  0  0  0
  140.0854   81.4405  219.2545 H   0  0  0  0  0  0  0  0  0  0  0  0
  142.1634   82.3757  222.1743 H   0  0  0  0  0  0  0  0  0  0  0  0
  142.4815   80.5131  225.1160 H   0  0  0  0  0  0  0  0  0  0  0  0
  144.0383   80.4941  224.2201 H   0  0  0  0  0  0  0  0  0  0  0  0
  143.0201   81.9739  224.2201 H   0  0  0  0  0  0  0  0  0  0  0  0
  142.3160   78.3271  223.6243 H   0  0  0  0  0  0  0  0  0  0  0  0
  139.2342   78.6665  224.6154 H   0  0  0  0  0  0  0  0  0  0  0  0
  140.0543   79.5503  223.2311 H   0  0  0  0  0  0  0  0  0  0  0  0
  139.0647   80.9061  225.1221 H   0  0  0  0  0  0  0  0  0  0  0  0
  138.6874   81.3238  223.3689 H   0  0  0  0  0  0  0  0  0  0  0  0
  1  2  1  0
  2  3  1  0
  3  4  2  0
  3  5  1  0
  5  6  1  0
  6  7  2  0
  7  8  1  0
  8  9  2  0
  9 10  1  0
 10 11  2  0
  5 12  1  0
 12 13  1  0
 13 14  1  0
 14 15  1  0
 15 16  1  0
 16 17  2  0
 16 18  1  0
 18 19  1  0
 18 20  1  0
 20 21  1  0
 21 22  2  0
 22 23  1  0
 23 24  1  0
 23 25  2  0
 25 26  1  0
 26 27  1  0
 26 28  2  0
 15 29  1  0
 29 30  1  0
 11  6  1  0
 30 12  1  0
 28 21  1  0
  1 31  1  0
  1 32  1  0
  1 33  1  0
  2 34  1  0
  2 35  1  0
  7 36  1  0
  8 37  1  0
  9 38  1  0
 10 39  1  0
 11 40  1  0
 12 41  1  0
 13 42  1  0
 13 43  1  0
 14 44  1  0
 14 45  1  0
 18 46  1  1
 19 47  1  0
 19 48  1  0
 20 49  1  0
 20 50  1  0
 22 51  1  0
 24 52  1  0
 24 53  1  0
 24 54  1  0
 25 55  1  0
 27 56  1  0
 27 57  1  0
 27 58  1  0
 28 59  1  0
 29 60  1  0
 29 61  1  0
 30 62  1  0
 30 63  1  0
M  END
>  <smiles>  (34) 
CCC(=O)N(c1ccccc1)C1CCN(C(=O)[C@@H](N)Cc2cc(C)cc(C)c2)CC1

>  <score_type>  (34) 
oracle

>  <origin>  (34) 
autodockgpu

>  <m_score__min__energy>  (34) 
-8.5899999999999999

>  <m_primary>  (34) 
energy

>  <rmsd>  (34) 
4.556039793273903

>  <m_score__min__rmsd>  (34) 
4.556039793273903

>  <meeko>  (34) 
{"free_energy": -6.54, "intermolecular_energy": -8.93, "internal_energy": -2.8, "cluster_size": 17, "cluster_id": 5, "rank_in_cluster": 4}

>  <energy>  (34) 
-6.56

>  <cluster_rmsd>  (34) 
0.62

>  <cluster>  (34) 
5

$$$$

     RDKit          3D

 63 65  0  0  0  0  0  0  0  0999 V2000
  137.9310   82.5130  221.5730 C   0  0  0  0  0  0  0  0  0  0  0  0
  137.4560   83.3890  222.7210 C   0  0  0  0  0  0  0  0  0  0  0  0
  136.3040   82.6990  223.3510 C   0  0  0  0  0  0  0  0  0  0  0  0
  135.1790   82.8600  222.8150 O   0  0  0  0  0  0  0  0  0  0  0  0
  136.4820   81.8850  224.5250 N   0  0  0  0  0  0  0  0  0  0  0  0
  136.1250   82.4670  225.7950 C   0  0  0  0  0  0  0  0  0  0  0  0
  135.7810   81.7090  226.8850 C   0  0  0  0  0  0  0  0  0  0  0  0
  135.4510   82.3500  228.0690 C   0  0  0  0  0  0  0  0  0  0  0  0
  135.4540   83.7240  228.1990 C   0  0  0  0  0  0  0  0  0  0  0  0
  135.8040   84.4660  227.0940 C   0  0  0  0  0  0  0  0  0  0  0  0
  136.1270   83.8300  225.9310 C   0  0  0  0  0  0  0  0  0  0  0  0
  137.0000   80.5410  224.4270 C   0  0  0  0  0  0  0  0  0  0  0  0
  136.2260   79.7370  223.4420 C   0  0  0  0  0  0  0  0  0  0  0  0
  137.0040   79.1290  222.3310 C   0  0  0  0  0  0  0  0  0  0  0  0
  138.2600   78.5380  222.7590 N   0  0  0  0  0  0  0  0  0  0  0  0
  138.6330   77.3220  222.1530 C   0  0  0  0  0  0  0  0  0  0  0  0
  137.8350   76.8560  221.2790 O   0  0  0  0  0  0  0  0  0  0  0  0
  139.8500   76.5370  222.4250 C   0  0  1  0  0  0  0  0  0  0  0  0
  139.5690   75.1480  222.3200 N   0  0  0  0  0  0  0  0  0  0  0  0
  141.0540   77.0190  221.6570 C   0  0  0  0  0  0  0  0  0  0  0  0
  141.3710   78.4360  221.7950 C   0  0  0  0  0  0  0  0  0  0  0  0
  142.0020   78.9910  222.8870 C   0  0  0  0  0  0  0  0  0  0  0  0
  142.2950   80.3420  222.9900 C   0  0  0  0  0  0  0  0  0  0  0  0
  142.9780   80.9050  224.1880 C   0  0  0  0  0  0  0  0  0  0  0  0
  141.9510   81.1880  221.9700 C   0  0  0  0  0  0  0  0  0  0  0  0
  141.3210   80.6560  220.8700 C   0  0  0  0  0  0  0  0  0  0  0  0
  140.9500   81.5920  219.7490 C   0  0  0  0  0  0  0  0  0  0  0  0
  141.0310   79.3080  220.7710 C   0  0  0  0  0  0  0  0  0  0  0  0
  139.0420   79.2210  223.7550 C   0  0  0  0  0  0  0  0  0  0  0  0
  138.4770   80.5270  224.2020 C   0  0  0  0  0  0  0  0  0  0  0  0
  138.4189   81.6132  221.9759 H   0  0  0  0  0  0  0  0  0  0  0  0
  137.0694   82.2178  220.9562 H   0  0  0  0  0  0  0  0  0  0  0  0
  138.6484   83.0741  220.9562 H   0  0  0  0  0  0  0  0  0  0  0  0
  138.2647   83.5195  223.4552 H   0  0  0  0  0  0  0  0  0  0  0  0
  137.1635   84.3851  222.3572 H   0  0  0  0  0  0  0  0  0  0  0  0
  135.7672   80.6110  226.8208 H   0  0  0  0  0  0  0  0  0  0  0  0
  135.1754   81.7384  228.9408 H   0  0  0  0  0  0  0  0  0  0  0  0
  135.1867   84.2078  229.1500 H   0  0  0  0  0  0  0  0  0  0  0  0
  135.8232   85.5645  227.1481 H   0  0  0  0  0  0  0  0  0  0  0  0
  136.4026   84.4420  225.0595 H   0  0  0  0  0  0  0  0  0  0  0  0
  136.8569   80.0437  225.3977 H   0  0  0  0  0  0  0  0  0  0  0  0
  135.7313   78.9216  223.9900 H   0  0  0  0  0  0  0  0  0  0  0  0
  135.5357   80.4466  222.9624 H   0  0  0  0  0  0  0  0  0  0  0  0
  136.3905   78.3437  221.8653 H   0  0  0  0  0  0  0  0  0  0  0  0
  137.2501   79.9381  221.6276 H   0  0  0  0  0  0  0  0  0  0  0  0
  140.1554   76.7067  223.4681 H   0  0  0  0  0  0  0  0  0  0  0  0
  138.8220   74.9140  221.6240 H   0  0  0  0  0  0  0  0  0  0  0  0
  139.5420   74.5910  223.1690 H   0  0  0  0  0  0  0  0  0  0  0  0
  141.9260   76.4433  222.0009 H   0  0  0  0  0  0  0  0  0  0  0  0
  140.8093   76.8703  220.5949 H   0  0  0  0  0  0  0  0  0  0  0  0
  142.2873   78.3293  223.7181 H   0  0  0  0  0  0  0  0  0  0  0  0
  142.5025   80.5130  225.0992 H   0  0  0  0  0  0  0  0  0  0  0  0
  144.0392   80.6158  224.1748 H   0  0  0  0  0  0  0  0  0  0  0  0
  142.8967   82.0019  224.1748 H   0  0  0  0  0  0  0  0  0  0  0  0
  142.1726   82.2638  222.0290 H   0  0  0  0  0  0  0  0  0  0  0  0
  140.5754   82.5370  220.1692 H   0  0  0  0  0  0  0  0  0  0  0  0
  141.8368   81.7921  219.1297 H   0  0  0  0  0  0  0  0  0  0  0  0
  140.1669   81.1302  219.1297 H   0  0  0  0  0  0  0  0  0  0  0  0
  140.5263   78.9234  219.8725 H   0  0  0  0  0  0  0  0  0  0  0  0
  139.1261   78.5650  224.6340 H   0  0  0  0  0  0  0  0  0  0  0  0
  140.0126   79.4453  223.2885 H   0  0  0  0  0  0  0  0  0  0  0  0
  138.9672   80.8036  225.1471 H   0  0  0  0  0  0  0  0  0  0  0  0
  138.6663   81.2363  223.3828 H   0  0  0  0  0  0  0  0  0  0  0  0
  1  2  1  0
  2  3  1  0
  3  4  2  0
  3  5  1  0
  5  6  1  0
  6  7  2  0
  7  8  1  0
  8  9  2  0
  9 10  1  0
 10 11  2  0
  5 12  1  0
 12 13  1  0
 13 14  1  0
 14 15  1  0
 15 16  1  0
 16 17  2  0
 16 18  1  0
 18 19  1  0
 18 20  1  0
 20 21  1  0
 21 22  2  0
 22 23  1  0
 23 24  1  0
 23 25  2  0
 25 26  1  0
 26 27  1  0
 26 28  2  0
 15 29  1  0
 29 30  1  0
 11  6  1  0
 30 12  1  0
 28 21  1  0
  1 31  1  0
  1 32  1  0
  1 33  1  0
  2 34  1  0
  2 35  1  0
  7 36  1  0
  8 37  1  0
  9 38  1  0
 10 39  1  0
 11 40  1  0
 12 41  1  0
 13 42  1  0
 13 43  1  0
 14 44  1  0
 14 45  1  0
 18 46  1  1
 19 47  1  0
 19 48  1  0
 20 49  1  0
 20 50  1  0
 22 51  1  0
 24 52  1  0
 24 53  1  0
 24 54  1  0
 25 55  1  0
 27 56  1  0
 27 57  1  0
 27 58  1  0
 28 59  1  0
 29 60  1  0
 29 61  1  0
 30 62  1  0
 30 63  1  0
M  END
>  <smiles>  (35) 
CCC(=O)N(c1ccccc1)C1CCN(C(=O)[C@@H](N)Cc2cc(C)cc(C)c2)CC1

>  <score_type>  (35) 
oracle

>  <origin>  (35) 
autodockgpu

>  <m_score__min__energy>  (35) 
-8.5899999999999999

>  <m_primary>  (35) 
energy

>  <rmsd>  (35) 
4.685903166660384

>  <m_score__min__rmsd>  (35) 
4.685903166660384

>  <meeko>  (35) 
{"free_energy": -6.44, "intermolecular_energy": -8.83, "internal_energy": -3.0, "cluster_size": 17, "cluster_id": 5, "rank_in_cluster": 11}

>  <energy>  (35) 
-6.54

>  <cluster_rmsd>  (35) 
0.66

>  <cluster>  (35) 
5

$$$$

     RDKit          3D

 63 65  0  0  0  0  0  0  0  0999 V2000
  138.1520   82.7430  221.6630 C   0  0  0  0  0  0  0  0  0  0  0  0
  136.7820   82.4820  222.2680 C   0  0  0  0  0  0  0  0  0  0  0  0
  136.8330   82.9350  223.6800 C   0  0  0  0  0  0  0  0  0  0  0  0
  136.9550   84.1700  223.8780 O   0  0  0  0  0  0  0  0  0  0  0  0
  136.7490   81.9910  224.7630 N   0  0  0  0  0  0  0  0  0  0  0  0
  136.1390   82.4410  225.9890 C   0  0  0  0  0  0  0  0  0  0  0  0
  135.3610   83.5680  226.0570 C   0  0  0  0  0  0  0  0  0  0  0  0
  134.8130   83.9310  227.2780 C   0  0  0  0  0  0  0  0  0  0  0  0
  135.0160   83.2010  228.4320 C   0  0  0  0  0  0  0  0  0  0  0  0
  135.7980   82.0730  228.3410 C   0  0  0  0  0  0  0  0  0  0  0  0
  136.3360   81.7220  227.1370 C   0  0  0  0  0  0  0  0  0  0  0  0
  137.2570   80.6470  224.6180 C   0  0  0  0  0  0  0  0  0  0  0  0
  136.3860   79.8340  223.7280 C   0  0  0  0  0  0  0  0  0  0  0  0
  137.0430   79.2200  222.5430 C   0  0  0  0  0  0  0  0  0  0  0  0
  138.3390   78.6360  222.8400 N   0  0  0  0  0  0  0  0  0  0  0  0
  138.6500   77.4160  222.2050 C   0  0  0  0  0  0  0  0  0  0  0  0
  137.7650   76.9420  221.4250 O   0  0  0  0  0  0  0  0  0  0  0  0
  139.8920   76.6370  222.3520 C   0  0  1  0  0  0  0  0  0  0  0  0
  139.6120   75.2480  222.2490 N   0  0  0  0  0  0  0  0  0  0  0  0
  141.0170   77.1410  221.4850 C   0  0  0  0  0  0  0  0  0  0  0  0
  141.3800   78.5430  221.6640 C   0  0  0  0  0  0  0  0  0  0  0  0
  142.0300   79.0450  222.7690 C   0  0  0  0  0  0  0  0  0  0  0  0
  142.3660   80.3820  222.9110 C   0  0  0  0  0  0  0  0  0  0  0  0
  143.0690   80.8880  224.1230 C   0  0  0  0  0  0  0  0  0  0  0  0
  142.0460   81.2680  221.9190 C   0  0  0  0  0  0  0  0  0  0  0  0
  141.3970   80.7900  220.8060 C   0  0  0  0  0  0  0  0  0  0  0  0
  141.0520   81.7700  219.7140 C   0  0  0  0  0  0  0  0  0  0  0  0
  141.0640   79.4550  220.6680 C   0  0  0  0  0  0  0  0  0  0  0  0
  139.2210   79.3280  223.7420 C   0  0  0  0  0  0  0  0  0  0  0  0
  138.7020   80.6360  224.2370 C   0  0  0  0  0  0  0  0  0  0  0  0
  138.8879   82.8832  222.4685 H   0  0  0  0  0  0  0  0  0  0  0  0
  138.4478   81.8850  221.0414 H   0  0  0  0  0  0  0  0  0  0  0  0
  138.1116   83.6496  221.0414 H   0  0  0  0  0  0  0  0  0  0  0  0
  136.0137   83.0459  221.7187 H   0  0  0  0  0  0  0  0  0  0  0  0
  136.5261   81.4138  222.2094 H   0  0  0  0  0  0  0  0  0  0  0  0
  135.1747   84.1740  225.1581 H   0  0  0  0  0  0  0  0  0  0  0  0
  134.1915   84.8372  227.3291 H   0  0  0  0  0  0  0  0  0  0  0  0
  134.5691   83.5098  229.3885 H   0  0  0  0  0  0  0  0  0  0  0  0
  135.9884   81.4579  229.2329 H   0  0  0  0  0  0  0  0  0  0  0  0
  136.9587   80.8166  227.0865 H   0  0  0  0  0  0  0  0  0  0  0  0
  137.2185   80.1552  225.6012 H   0  0  0  0  0  0  0  0  0  0  0  0
  135.9563   79.0209  224.3315 H   0  0  0  0  0  0  0  0  0  0  0  0
  135.6455   80.5379  223.3203 H   0  0  0  0  0  0  0  0  0  0  0  0
  136.3861   78.4297  222.1506 H   0  0  0  0  0  0  0  0  0  0  0  0
  137.2093   80.0241  221.8110 H   0  0  0  0  0  0  0  0  0  0  0  0
  140.2900   76.7924  223.3656 H   0  0  0  0  0  0  0  0  0  0  0  0
  138.8720   75.0110  221.5470 H   0  0  0  0  0  0  0  0  0  0  0  0
  139.5760   74.6930  223.1000 H   0  0  0  0  0  0  0  0  0  0  0  0
  141.9074   76.5321  221.7004 H   0  0  0  0  0  0  0  0  0  0  0  0
  140.6558   77.0567  220.4494 H   0  0  0  0  0  0  0  0  0  0  0  0
  142.2958   78.3503  223.5794 H   0  0  0  0  0  0  0  0  0  0  0  0
  142.5572   80.5196  225.0243 H   0  0  0  0  0  0  0  0  0  0  0  0
  144.1091   80.5300  224.1198 H   0  0  0  0  0  0  0  0  0  0  0  0
  143.0598   81.9880  224.1198 H   0  0  0  0  0  0  0  0  0  0  0  0
  142.3013   82.3341  222.0098 H   0  0  0  0  0  0  0  0  0  0  0  0
  140.7186   82.7171  220.1632 H   0  0  0  0  0  0  0  0  0  0  0  0
  141.9400   81.9523  219.0909 H   0  0  0  0  0  0  0  0  0  0  0  0
  140.2456   81.3558  219.0909 H   0  0  0  0  0  0  0  0  0  0  0  0
  140.5441   79.1135  219.7607 H   0  0  0  0  0  0  0  0  0  0  0  0
  139.4005   78.6789  224.6117 H   0  0  0  0  0  0  0  0  0  0  0  0
  140.1360   79.5508  223.1735 H   0  0  0  0  0  0  0  0  0  0  0  0
  139.2890   80.9214  225.1224 H   0  0  0  0  0  0  0  0  0  0  0  0
  138.8004   81.3397  223.3972 H   0  0  0  0  0  0  0  0  0  0  0  0
  1  2  1  0
  2  3  1  0
  3  4  2  0
  3  5  1  0
  5  6  1  0
  6  7  2  0
  7  8  1  0
  8  9  2  0
  9 10  1  0
 10 11  2  0
  5 12  1  0
 12 13  1  0
 13 14  1  0
 14 15  1  0
 15 16  1  0
 16 17  2  0
 16 18  1  0
 18 19  1  0
 18 20  1  0
 20 21  1  0
 21 22  2  0
 22 23  1  0
 23 24  1  0
 23 25  2  0
 25 26  1  0
 26 27  1  0
 26 28  2  0
 15 29  1  0
 29 30  1  0
 11  6  1  0
 30 12  1  0
 28 21  1  0
  1 31  1  0
  1 32  1  0
  1 33  1  0
  2 34  1  0
  2 35  1  0
  7 36  1  0
  8 37  1  0
  9 38  1  0
 10 39  1  0
 11 40  1  0
 12 41  1  0
 13 42  1  0
 13 43  1  0
 14 44  1  0
 14 45  1  0
 18 46  1  1
 19 47  1  0
 19 48  1  0
 20 49  1  0
 20 50  1  0
 22 51  1  0
 24 52  1  0
 24 53  1  0
 24 54  1  0
 25 55  1  0
 27 56  1  0
 27 57  1  0
 27 58  1  0
 28 59  1  0
 29 60  1  0
 29 61  1  0
 30 62  1  0
 30 63  1  0
M  END
>  <smiles>  (36) 
CCC(=O)N(c1ccccc1)C1CCN(C(=O)[C@@H](N)Cc2cc(C)cc(C)c2)CC1

>  <score_type>  (36) 
oracle

>  <origin>  (36) 
autodockgpu

>  <m_score__min__energy>  (36) 
-8.5899999999999999

>  <m_primary>  (36) 
energy

>  <rmsd>  (36) 
4.629609990481258

>  <m_score__min__rmsd>  (36) 
4.629609990481258

>  <meeko>  (36) 
{"free_energy": -6.68, "intermolecular_energy": -9.07, "internal_energy": -2.64, "cluster_size": 17, "cluster_id": 5, "rank_in_cluster": 1}

>  <energy>  (36) 
-6.53

>  <cluster_rmsd>  (36) 
0.65

>  <cluster>  (36) 
5

$$$$

     RDKit          3D

 63 65  0  0  0  0  0  0  0  0999 V2000
  137.7330   84.4430  222.1360 C   0  0  0  0  0  0  0  0  0  0  0  0
  137.6470   82.9570  222.4500 C   0  0  0  0  0  0  0  0  0  0  0  0
  136.4880   82.7680  223.3550 C   0  0  0  0  0  0  0  0  0  0  0  0
  135.4240   83.3640  223.0520 O   0  0  0  0  0  0  0  0  0  0  0  0
  136.5920   81.9370  224.5260 N   0  0  0  0  0  0  0  0  0  0  0  0
  136.1870   82.5110  225.7850 C   0  0  0  0  0  0  0  0  0  0  0  0
  135.8160   81.7460  226.8600 C   0  0  0  0  0  0  0  0  0  0  0  0
  135.4390   82.3800  228.0350 C   0  0  0  0  0  0  0  0  0  0  0  0
  135.4240   83.7530  228.1680 C   0  0  0  0  0  0  0  0  0  0  0  0
  135.8010   84.5020  227.0780 C   0  0  0  0  0  0  0  0  0  0  0  0
  136.1700   83.8730  225.9240 C   0  0  0  0  0  0  0  0  0  0  0  0
  137.0850   80.5820  224.4340 C   0  0  0  0  0  0  0  0  0  0  0  0
  136.2900   79.7850  223.4620 C   0  0  0  0  0  0  0  0  0  0  0  0
  137.0490   79.1540  222.3500 C   0  0  0  0  0  0  0  0  0  0  0  0
  138.2960   78.5440  222.7740 N   0  0  0  0  0  0  0  0  0  0  0  0
  138.6430   77.3170  222.1750 C   0  0  0  0  0  0  0  0  0  0  0  0
  137.8310   76.8580  221.3100 O   0  0  0  0  0  0  0  0  0  0  0  0
  139.8480   76.5120  222.4450 C   0  0  1  0  0  0  0  0  0  0  0  0
  139.5500   75.1290  222.3220 N   0  0  0  0  0  0  0  0  0  0  0  0
  141.0630   76.9870  221.6890 C   0  0  0  0  0  0  0  0  0  0  0  0
  141.3800   78.4050  221.8200 C   0  0  0  0  0  0  0  0  0  0  0  0
  142.0030   78.9660  222.9120 C   0  0  0  0  0  0  0  0  0  0  0  0
  142.2960   80.3180  223.0080 C   0  0  0  0  0  0  0  0  0  0  0  0
  142.9720   80.8890  224.2070 C   0  0  0  0  0  0  0  0  0  0  0  0
  141.9600   81.1570  221.9810 C   0  0  0  0  0  0  0  0  0  0  0  0
  141.3370   80.6190  220.8800 C   0  0  0  0  0  0  0  0  0  0  0  0
  140.9730   81.5480  219.7500 C   0  0  0  0  0  0  0  0  0  0  0  0
  141.0460   79.2700  220.7880 C   0  0  0  0  0  0  0  0  0  0  0  0
  139.0980   79.2210  223.7590 C   0  0  0  0  0  0  0  0  0  0  0  0
  138.5600   80.5400  224.1990 C   0  0  0  0  0  0  0  0  0  0  0  0
  137.7661   85.0149  223.0751 H   0  0  0  0  0  0  0  0  0  0  0  0
  138.6442   84.6424  221.5529 H   0  0  0  0  0  0  0  0  0  0  0  0
  136.8509   84.7462  221.5529 H   0  0  0  0  0  0  0  0  0  0  0  0
  137.4991   82.3836  221.5230 H   0  0  0  0  0  0  0  0  0  0  0  0
  138.5747   82.6030  222.9234 H   0  0  0  0  0  0  0  0  0  0  0  0
  135.8171   80.6481  226.7923 H   0  0  0  0  0  0  0  0  0  0  0  0
  135.1400   81.7630  228.8952 H   0  0  0  0  0  0  0  0  0  0  0  0
  135.1216   84.2312  229.1113 H   0  0  0  0  0  0  0  0  0  0  0  0
  135.8052   85.6005  227.1356 H   0  0  0  0  0  0  0  0  0  0  0  0
  136.4682   84.4905  225.0639 H   0  0  0  0  0  0  0  0  0  0  0  0
  136.9396   80.0941  225.4091 H   0  0  0  0  0  0  0  0  0  0  0  0
  135.7847   78.9831  224.0202 H   0  0  0  0  0  0  0  0  0  0  0  0
  135.6090   80.5031  222.9817 H   0  0  0  0  0  0  0  0  0  0  0  0
  136.4180   78.3764  221.8948 H   0  0  0  0  0  0  0  0  0  0  0  0
  137.3048   79.9528  221.6383 H   0  0  0  0  0  0  0  0  0  0  0  0
  140.1487   76.6651  223.4920 H   0  0  0  0  0  0  0  0  0  0  0  0
  138.7920   74.9140  221.6320 H   0  0  0  0  0  0  0  0  0  0  0  0
  139.5250   74.5590  223.1630 H   0  0  0  0  0  0  0  0  0  0  0  0
  141.9297   76.4131  222.0488 H   0  0  0  0  0  0  0  0  0  0  0  0
  140.8320   76.8303  220.6250 H   0  0  0  0  0  0  0  0  0  0  0  0
  142.2821   78.3096  223.7494 H   0  0  0  0  0  0  0  0  0  0  0  0
  142.5009   80.4910  225.1179 H   0  0  0  0  0  0  0  0  0  0  0  0
  144.0366   80.6126  224.1941 H   0  0  0  0  0  0  0  0  0  0  0  0
  142.8775   81.9849  224.1941 H   0  0  0  0  0  0  0  0  0  0  0  0
  142.1823   82.2330  222.0348 H   0  0  0  0  0  0  0  0  0  0  0  0
  140.6009   82.4978  220.1616 H   0  0  0  0  0  0  0  0  0  0  0  0
  141.8625   81.7397  219.1319 H   0  0  0  0  0  0  0  0  0  0  0  0
  140.1900   81.0844  219.1319 H   0  0  0  0  0  0  0  0  0  0  0  0
  140.5458   78.8798  219.8894 H   0  0  0  0  0  0  0  0  0  0  0  0
  139.1769   78.5708  224.6427 H   0  0  0  0  0  0  0  0  0  0  0  0
  140.0691   79.4238  223.2838 H   0  0  0  0  0  0  0  0  0  0  0  0
  139.0617   80.8153  225.1384 H   0  0  0  0  0  0  0  0  0  0  0  0
  138.7563   81.2393  223.3729 H   0  0  0  0  0  0  0  0  0  0  0  0
  1  2  1  0
  2  3  1  0
  3  4  2  0
  3  5  1  0
  5  6  1  0
  6  7  2  0
  7  8  1  0
  8  9  2  0
  9 10  1  0
 10 11  2  0
  5 12  1  0
 12 13  1  0
 13 14  1  0
 14 15  1  0
 15 16  1  0
 16 17  2  0
 16 18  1  0
 18 19  1  0
 18 20  1  0
 20 21  1  0
 21 22  2  0
 22 23  1  0
 23 24  1  0
 23 25  2  0
 25 26  1  0
 26 27  1  0
 26 28  2  0
 15 29  1  0
 29 30  1  0
 11  6  1  0
 30 12  1  0
 28 21  1  0
  1 31  1  0
  1 32  1  0
  1 33  1  0
  2 34  1  0
  2 35  1  0
  7 36  1  0
  8 37  1  0
  9 38  1  0
 10 39  1  0
 11 40  1  0
 12 41  1  0
 13 42  1  0
 13 43  1  0
 14 44  1  0
 14 45  1  0
 18 46  1  1
 19 47  1  0
 19 48  1  0
 20 49  1  0
 20 50  1  0
 22 51  1  0
 24 52  1  0
 24 53  1  0
 24 54  1  0
 25 55  1  0
 27 56  1  0
 27 57  1  0
 27 58  1  0
 28 59  1  0
 29 60  1  0
 29 61  1  0
 30 62  1  0
 30 63  1  0
M  END
>  <smiles>  (37) 
CCC(=O)N(c1ccccc1)C1CCN(C(=O)[C@@H](N)Cc2cc(C)cc(C)c2)CC1

>  <score_type>  (37) 
oracle

>  <origin>  (37) 
autodockgpu

>  <m_score__min__energy>  (37) 
-8.5899999999999999

>  <m_primary>  (37) 
energy

>  <rmsd>  (37) 
4.6722233958677535

>  <m_score__min__rmsd>  (37) 
4.6722233958677535

>  <meeko>  (37) 
{"free_energy": -6.56, "intermolecular_energy": -8.94, "internal_energy": -2.8, "cluster_size": 17, "cluster_id": 5, "rank_in_cluster": 3}

>  <energy>  (37) 
-6.52

>  <cluster_rmsd>  (37) 
0.58

>  <cluster>  (37) 
5

$$$$

     RDKit          3D

 63 65  0  0  0  0  0  0  0  0999 V2000
  137.7150   82.6340  221.6000 C   0  0  0  0  0  0  0  0  0  0  0  0
  137.3160   83.4340  222.8300 C   0  0  0  0  0  0  0  0  0  0  0  0
  136.2260   82.6870  223.5030 C   0  0  0  0  0  0  0  0  0  0  0  0
  135.0790   82.7720  222.9970 O   0  0  0  0  0  0  0  0  0  0  0  0
  136.4860   81.9040  224.6830 N   0  0  0  0  0  0  0  0  0  0  0  0
  136.1240   82.4810  225.9540 C   0  0  0  0  0  0  0  0  0  0  0  0
  135.7540   81.7190  227.0320 C   0  0  0  0  0  0  0  0  0  0  0  0
  135.4210   82.3560  228.2190 C   0  0  0  0  0  0  0  0  0  0  0  0
  135.4480   83.7280  228.3610 C   0  0  0  0  0  0  0  0  0  0  0  0
  135.8230   84.4730  227.2670 C   0  0  0  0  0  0  0  0  0  0  0  0
  136.1490   83.8420  226.1020 C   0  0  0  0  0  0  0  0  0  0  0  0
  137.0860   80.5940  224.5890 C   0  0  0  0  0  0  0  0  0  0  0  0
  136.2350   79.6680  223.7940 C   0  0  0  0  0  0  0  0  0  0  0  0
  136.8760   79.0310  222.6130 C   0  0  0  0  0  0  0  0  0  0  0  0
  138.2260   78.5610  222.8720 N   0  0  0  0  0  0  0  0  0  0  0  0
  138.5950   77.3310  222.2920 C   0  0  0  0  0  0  0  0  0  0  0  0
  137.7100   76.7470  221.5890 O   0  0  0  0  0  0  0  0  0  0  0  0
  139.8970   76.6530  222.4160 C   0  0  1  0  0  0  0  0  0  0  0  0
  139.7190   75.2430  222.3950 N   0  0  0  0  0  0  0  0  0  0  0  0
  140.9410   77.1920  221.4720 C   0  0  0  0  0  0  0  0  0  0  0  0
  141.3260   78.5850  221.6770 C   0  0  0  0  0  0  0  0  0  0  0  0
  141.9790   79.0560  222.7930 C   0  0  0  0  0  0  0  0  0  0  0  0
  142.3360   80.3860  222.9600 C   0  0  0  0  0  0  0  0  0  0  0  0
  143.0420   80.8590  224.1830 C   0  0  0  0  0  0  0  0  0  0  0  0
  142.0360   81.2940  221.9810 C   0  0  0  0  0  0  0  0  0  0  0  0
  141.3840   80.8460  220.8570 C   0  0  0  0  0  0  0  0  0  0  0  0
  141.0610   81.8490  219.7810 C   0  0  0  0  0  0  0  0  0  0  0  0
  141.0300   79.5190  220.6950 C   0  0  0  0  0  0  0  0  0  0  0  0
  139.0970   79.3680  223.6840 C   0  0  0  0  0  0  0  0  0  0  0  0
  138.5070   80.6630  224.1310 C   0  0  0  0  0  0  0  0  0  0  0  0
  138.1856   81.6904  221.9131 H   0  0  0  0  0  0  0  0  0  0  0  0
  136.8203   82.4156  220.9985 H   0  0  0  0  0  0  0  0  0  0  0  0
  138.4277   83.2173  220.9985 H   0  0  0  0  0  0  0  0  0  0  0  0
  138.1762   83.5378  223.5077 H   0  0  0  0  0  0  0  0  0  0  0  0
  136.9821   84.4435  222.5484 H   0  0  0  0  0  0  0  0  0  0  0  0
  135.7217   80.6220  226.9573 H   0  0  0  0  0  0  0  0  0  0  0  0
  135.1234   81.7420  229.0818 H   0  0  0  0  0  0  0  0  0  0  0  0
  135.1797   84.2083  229.3135 H   0  0  0  0  0  0  0  0  0  0  0  0
  135.8598   85.5705  227.3310 H   0  0  0  0  0  0  0  0  0  0  0  0
  136.4464   84.4567  225.2396 H   0  0  0  0  0  0  0  0  0  0  0  0
  137.1339   80.1626  225.5998 H   0  0  0  0  0  0  0  0  0  0  0  0
  135.8968   78.8648  224.4652 H   0  0  0  0  0  0  0  0  0  0  0  0
  135.4258   80.2918  223.3865 H   0  0  0  0  0  0  0  0  0  0  0  0
  136.2615   78.1728  222.3035 H   0  0  0  0  0  0  0  0  0  0  0  0
  136.9447   79.7983  221.8278 H   0  0  0  0  0  0  0  0  0  0  0  0
  140.3265   76.8895  223.4007 H   0  0  0  0  0  0  0  0  0  0  0  0
  140.1290   74.7730  221.5530 H   0  0  0  0  0  0  0  0  0  0  0  0
  138.8280   74.8600  222.6970 H   0  0  0  0  0  0  0  0  0  0  0  0
  141.8441   76.5732  221.5791 H   0  0  0  0  0  0  0  0  0  0  0  0
  140.4867   77.1524  220.4710 H   0  0  0  0  0  0  0  0  0  0  0  0
  142.2302   78.3428  223.5919 H   0  0  0  0  0  0  0  0  0  0  0  0
  142.5083   80.5014  225.0759 H   0  0  0  0  0  0  0  0  0  0  0  0
  144.0695   80.4663  224.1882 H   0  0  0  0  0  0  0  0  0  0  0  0
  143.0697   81.9586  224.1882 H   0  0  0  0  0  0  0  0  0  0  0  0
  142.3093   82.3538  222.0907 H   0  0  0  0  0  0  0  0  0  0  0  0
  140.7552   82.7985  220.2447 H   0  0  0  0  0  0  0  0  0  0  0  0
  141.9508   82.0159  219.1562 H   0  0  0  0  0  0  0  0  0  0  0  0
  140.2410   81.4652  219.1562 H   0  0  0  0  0  0  0  0  0  0  0  0
  140.5092   79.2014  219.7796 H   0  0  0  0  0  0  0  0  0  0  0  0
  139.3675   78.7875  224.5783 H   0  0  0  0  0  0  0  0  0  0  0  0
  139.9633   79.6210  223.0551 H   0  0  0  0  0  0  0  0  0  0  0  0
  139.1147   81.0432  224.9653 H   0  0  0  0  0  0  0  0  0  0  0  0
  138.5102   81.3192  223.2481 H   0  0  0  0  0  0  0  0  0  0  0  0
  1  2  1  0
  2  3  1  0
  3  4  2  0
  3  5  1  0
  5  6  1  0
  6  7  2  0
  7  8  1  0
  8  9  2  0
  9 10  1  0
 10 11  2  0
  5 12  1  0
 12 13  1  0
 13 14  1  0
 14 15  1  0
 15 16  1  0
 16 17  2  0
 16 18  1  0
 18 19  1  0
 18 20  1  0
 20 21  1  0
 21 22  2  0
 22 23  1  0
 23 24  1  0
 23 25  2  0
 25 26  1  0
 26 27  1  0
 26 28  2  0
 15 29  1  0
 29 30  1  0
 11  6  1  0
 30 12  1  0
 28 21  1  0
  1 31  1  0
  1 32  1  0
  1 33  1  0
  2 34  1  0
  2 35  1  0
  7 36  1  0
  8 37  1  0
  9 38  1  0
 10 39  1  0
 11 40  1  0
 12 41  1  0
 13 42  1  0
 13 43  1  0
 14 44  1  0
 14 45  1  0
 18 46  1  1
 19 47  1  0
 19 48  1  0
 20 49  1  0
 20 50  1  0
 22 51  1  0
 24 52  1  0
 24 53  1  0
 24 54  1  0
 25 55  1  0
 27 56  1  0
 27 57  1  0
 27 58  1  0
 28 59  1  0
 29 60  1  0
 29 61  1  0
 30 62  1  0
 30 63  1  0
M  END
>  <smiles>  (38) 
CCC(=O)N(c1ccccc1)C1CCN(C(=O)[C@@H](N)Cc2cc(C)cc(C)c2)CC1

>  <score_type>  (38) 
oracle

>  <origin>  (38) 
autodockgpu

>  <m_score__min__energy>  (38) 
-8.5899999999999999

>  <m_primary>  (38) 
energy

>  <rmsd>  (38) 
4.698167241512083

>  <m_score__min__rmsd>  (38) 
4.698167241512083

>  <meeko>  (38) 
{"free_energy": -6.49, "intermolecular_energy": -8.88, "internal_energy": -2.59, "cluster_size": 17, "cluster_id": 5, "rank_in_cluster": 10}

>  <energy>  (38) 
-6.51

>  <cluster_rmsd>  (38) 
0.57

>  <cluster>  (38) 
5

$$$$

     RDKit          3D

 63 65  0  0  0  0  0  0  0  0999 V2000
  138.0130   80.6280  224.2560 C   0  0  0  0  0  0  0  0  0  0  0  0
  138.1220   80.6100  222.7400 C   0  0  0  0  0  0  0  0  0  0  0  0
  138.1180   79.1890  222.3170 C   0  0  0  0  0  0  0  0  0  0  0  0
  136.9980   78.6430  222.1580 O   0  0  0  0  0  0  0  0  0  0  0  0
  139.3520   78.4790  222.1040 N   0  0  0  0  0  0  0  0  0  0  0  0
  140.5750   79.1530  222.4590 C   0  0  0  0  0  0  0  0  0  0  0  0
  141.2910   79.9070  221.5640 C   0  0  0  0  0  0  0  0  0  0  0  0
  142.4580   80.5230  221.9890 C   0  0  0  0  0  0  0  0  0  0  0  0
  142.9330   80.4090  223.2800 C   0  0  0  0  0  0  0  0  0  0  0  0
  142.2000   79.6490  224.1620 C   0  0  0  0  0  0  0  0  0  0  0  0
  141.0520   79.0450  223.7380 C   0  0  0  0  0  0  0  0  0  0  0  0
  139.3560   77.1430  221.5550 C   0  0  0  0  0  0  0  0  0  0  0  0
  140.7420   76.6690  221.3010 C   0  0  0  0  0  0  0  0  0  0  0  0
  141.1380   75.4000  221.9670 C   0  0  0  0  0  0  0  0  0  0  0  0
  140.1140   74.3720  221.9080 N   0  0  0  0  0  0  0  0  0  0  0  0
  140.5480   73.0490  221.6890 C   0  0  0  0  0  0  0  0  0  0  0  0
  141.8020   72.8770  221.5690 O   0  0  0  0  0  0  0  0  0  0  0  0
  139.7010   71.8480  221.5870 C   0  0  1  0  0  0  0  0  0  0  0  0
  140.4930   70.7180  221.2480 N   0  0  0  0  0  0  0  0  0  0  0  0
  138.7790   71.6670  222.7660 C   0  0  0  0  0  0  0  0  0  0  0  0
  139.3790   71.0780  223.9590 C   0  0  0  0  0  0  0  0  0  0  0  0
  139.2800   69.7490  224.3050 C   0  0  0  0  0  0  0  0  0  0  0  0
  139.8640   69.2140  225.4430 C   0  0  0  0  0  0  0  0  0  0  0  0
  139.7330   67.7700  225.7850 C   0  0  0  0  0  0  0  0  0  0  0  0
  140.5800   70.0260  226.2800 C   0  0  0  0  0  0  0  0  0  0  0  0
  140.6940   71.3570  225.9540 C   0  0  0  0  0  0  0  0  0  0  0  0
  141.4880   72.2450  226.8770 C   0  0  0  0  0  0  0  0  0  0  0  0
  140.1100   71.8860  224.8170 C   0  0  0  0  0  0  0  0  0  0  0  0
  138.7380   74.7550  222.0830 C   0  0  0  0  0  0  0  0  0  0  0  0
  138.5270   76.2030  222.3700 C   0  0  0  0  0  0  0  0  0  0  0  0
  139.0072   80.4638  224.6971 H   0  0  0  0  0  0  0  0  0  0  0  0
  137.6228   81.6027  224.5840 H   0  0  0  0  0  0  0  0  0  0  0  0
  137.3301   79.8305  224.5840 H   0  0  0  0  0  0  0  0  0  0  0  0
  137.2663   81.1383  222.2943 H   0  0  0  0  0  0  0  0  0  0  0  0
  139.0422   81.1134  222.4087 H   0  0  0  0  0  0  0  0  0  0  0  0
  140.9448   80.0209  220.5261 H   0  0  0  0  0  0  0  0  0  0  0  0
  143.0285   81.1271  221.2682 H   0  0  0  0  0  0  0  0  0  0  0  0
  143.8628   80.9071  223.5919 H   0  0  0  0  0  0  0  0  0  0  0  0
  142.5371   79.5290  225.2022 H   0  0  0  0  0  0  0  0  0  0  0  0
  140.4816   78.4415  224.4594 H   0  0  0  0  0  0  0  0  0  0  0  0
  138.8665   77.1725  220.5703 H   0  0  0  0  0  0  0  0  0  0  0  0
  140.8537   76.5268  220.2160 H   0  0  0  0  0  0  0  0  0  0  0  0
  141.3984   77.4412  221.7286 H   0  0  0  0  0  0  0  0  0  0  0  0
  142.0448   75.0171  221.4760 H   0  0  0  0  0  0  0  0  0  0  0  0
  141.3052   75.6302  223.0296 H   0  0  0  0  0  0  0  0  0  0  0  0
  138.9941   71.9838  220.7553 H   0  0  0  0  0  0  0  0  0  0  0  0
  140.3620   69.8970  221.8850 H   0  0  0  0  0  0  0  0  0  0  0  0
  141.4520   70.8680  220.9470 H   0  0  0  0  0  0  0  0  0  0  0  0
  138.3844   72.6564  223.0405 H   0  0  0  0  0  0  0  0  0  0  0  0
  138.0098   70.9533  222.4359 H   0  0  0  0  0  0  0  0  0  0  0  0
  138.7092   69.0784  223.6458 H   0  0  0  0  0  0  0  0  0  0  0  0
  139.7223   67.6517  226.8786 H   0  0  0  0  0  0  0  0  0  0  0  0
  138.7955   67.3772  225.3645 H   0  0  0  0  0  0  0  0  0  0  0  0
  140.5845   67.2149  225.3645 H   0  0  0  0  0  0  0  0  0  0  0  0
  141.0517   69.6248  227.1891 H   0  0  0  0  0  0  0  0  0  0  0  0
  141.2578   71.9875  227.9214 H   0  0  0  0  0  0  0  0  0  0  0  0
  142.5624   72.0992  226.6917 H   0  0  0  0  0  0  0  0  0  0  0  0
  141.2234   73.2965  226.6917 H   0  0  0  0  0  0  0  0  0  0  0  0
  140.2264   72.9563  224.5916 H   0  0  0  0  0  0  0  0  0  0  0  0
  138.1927   74.5052  221.1609 H   0  0  0  0  0  0  0  0  0  0  0  0
  138.3720   74.2067  222.9636 H   0  0  0  0  0  0  0  0  0  0  0  0
  137.4680   76.4355  222.1844 H   0  0  0  0  0  0  0  0  0  0  0  0
  138.8346   76.3540  223.4153 H   0  0  0  0  0  0  0  0  0  0  0  0
  1  2  1  0
  2  3  1  0
  3  4  2  0
  3  5  1  0
  5  6  1  0
  6  7  2  0
  7  8  1  0
  8  9  2  0
  9 10  1  0
 10 11  2  0
  5 12  1  0
 12 13  1  0
 13 14  1  0
 14 15  1  0
 15 16  1  0
 16 17  2  0
 16 18  1  0
 18 19  1  0
 18 20  1  0
 20 21  1  0
 21 22  2  0
 22 23  1  0
 23 24  1  0
 23 25  2  0
 25 26  1  0
 26 27  1  0
 26 28  2  0
 15 29  1  0
 29 30  1  0
 11  6  1  0
 30 12  1  0
 28 21  1  0
  1 31  1  0
  1 32  1  0
  1 33  1  0
  2 34  1  0
  2 35  1  0
  7 36  1  0
  8 37  1  0
  9 38  1  0
 10 39  1  0
 11 40  1  0
 12 41  1  0
 13 42  1  0
 13 43  1  0
 14 44  1  0
 14 45  1  0
 18 46  1  6
 19 47  1  0
 19 48  1  0
 20 49  1  0
 20 50  1  0
 22 51  1  0
 24 52  1  0
 24 53  1  0
 24 54  1  0
 25 55  1  0
 27 56  1  0
 27 57  1  0
 27 58  1  0
 28 59  1  0
 29 60  1  0
 29 61  1  0
 30 62  1  0
 30 63  1  0
M  END
>  <smiles>  (39) 
CCC(=O)N(c1ccccc1)C1CCN(C(=O)[C@@H](N)Cc2cc(C)cc(C)c2)CC1

>  <score_type>  (39) 
oracle

>  <origin>  (39) 
autodockgpu

>  <m_score__min__energy>  (39) 
-8.5899999999999999

>  <m_primary>  (39) 
energy

>  <rmsd>  (39) 
6.295726596811082

>  <m_score__min__rmsd>  (39) 
6.295726596811082

>  <meeko>  (39) 
{"free_energy": -7.12, "intermolecular_energy": -9.51, "internal_energy": -2.42, "cluster_size": 4, "cluster_id": 4, "rank_in_cluster": 1}

>  <energy>  (39) 
-6.5

>  <cluster_rmsd>  (39) 
0.67

>  <cluster>  (39) 
5

$$$$

     RDKit          3D

 63 65  0  0  0  0  0  0  0  0999 V2000
  145.9490   70.0110  218.7210 C   0  0  0  0  0  0  0  0  0  0  0  0
  144.7310   70.6450  219.3730 C   0  0  0  0  0  0  0  0  0  0  0  0
  144.9520   72.1120  219.3800 C   0  0  0  0  0  0  0  0  0  0  0  0
  146.1430   72.5090  219.3310 O   0  0  0  0  0  0  0  0  0  0  0  0
  143.8420   73.0260  219.4430 N   0  0  0  0  0  0  0  0  0  0  0  0
  142.5760   72.5020  219.8880 C   0  0  0  0  0  0  0  0  0  0  0  0
  141.6690   71.9320  219.0320 C   0  0  0  0  0  0  0  0  0  0  0  0
  140.4730   71.4530  219.5450 C   0  0  0  0  0  0  0  0  0  0  0  0
  140.1550   71.5240  220.8860 C   0  0  0  0  0  0  0  0  0  0  0  0
  141.0790   72.0990  221.7280 C   0  0  0  0  0  0  0  0  0  0  0  0
  142.2540   72.5700  221.2180 C   0  0  0  0  0  0  0  0  0  0  0  0
  144.0000   74.4130  219.0720 C   0  0  0  0  0  0  0  0  0  0  0  0
  143.5460   74.6520  217.6760 C   0  0  0  0  0  0  0  0  0  0  0  0
  142.4900   75.6830  217.4930 C   0  0  0  0  0  0  0  0  0  0  0  0
  142.7070   76.8800  218.2850 N   0  0  0  0  0  0  0  0  0  0  0  0
  142.4020   78.1140  217.6750 C   0  0  0  0  0  0  0  0  0  0  0  0
  141.9580   78.0630  216.4840 O   0  0  0  0  0  0  0  0  0  0  0  0
  142.5440   79.4530  218.2730 C   0  0  1  0  0  0  0  0  0  0  0  0
  142.9490   80.3900  217.2840 N   0  0  0  0  0  0  0  0  0  0  0  0
  141.3580   79.8600  219.1100 C   0  0  0  0  0  0  0  0  0  0  0  0
  141.3450   79.3600  220.4810 C   0  0  0  0  0  0  0  0  0  0  0  0
  141.9340   79.9990  221.5490 C   0  0  0  0  0  0  0  0  0  0  0  0
  141.9030   79.5020  222.8430 C   0  0  0  0  0  0  0  0  0  0  0  0
  142.5530   80.2220  223.9730 C   0  0  0  0  0  0  0  0  0  0  0  0
  141.2620   78.3200  223.0980 C   0  0  0  0  0  0  0  0  0  0  0  0
  140.6660   77.6650  222.0470 C   0  0  0  0  0  0  0  0  0  0  0  0
  139.9570   76.3660  222.3350 C   0  0  0  0  0  0  0  0  0  0  0  0
  140.6990   78.1640  220.7570 C   0  0  0  0  0  0  0  0  0  0  0  0
  143.2040   76.7420  219.6280 C   0  0  0  0  0  0  0  0  0  0  0  0
  143.3900   75.3320  220.0800 C   0  0  0  0  0  0  0  0  0  0  0  0
  146.6374   69.6527  219.5006 H   0  0  0  0  0  0  0  0  0  0  0  0
  145.6308   69.1641  218.0953 H   0  0  0  0  0  0  0  0  0  0  0  0
  146.4602   70.7574  218.0953 H   0  0  0  0  0  0  0  0  0  0  0  0
  143.8259   70.4028  218.7967 H   0  0  0  0  0  0  0  0  0  0  0  0
  144.5935   70.2656  220.3963 H   0  0  0  0  0  0  0  0  0  0  0  0
  141.8865   71.8560  217.9564 H   0  0  0  0  0  0  0  0  0  0  0  0
  139.7478   70.9976  218.8545 H   0  0  0  0  0  0  0  0  0  0  0  0
  139.1991   71.1356  221.2673 H   0  0  0  0  0  0  0  0  0  0  0  0
  140.8719   72.1785  222.8054 H   0  0  0  0  0  0  0  0  0  0  0  0
  142.9781   73.0267  221.9087 H   0  0  0  0  0  0  0  0  0  0  0  0
  145.0733   74.6537  219.0814 H   0  0  0  0  0  0  0  0  0  0  0  0
  144.4221   74.9617  217.0872 H   0  0  0  0  0  0  0  0  0  0  0  0
  143.0906   73.7053  217.3500 H   0  0  0  0  0  0  0  0  0  0  0  0
  142.4621   75.9683  216.4310 H   0  0  0  0  0  0  0  0  0  0  0  0
  141.5419   75.2389  217.8303 H   0  0  0  0  0  0  0  0  0  0  0  0
  143.3558   79.4253  219.0148 H   0  0  0  0  0  0  0  0  0  0  0  0
  142.8700   80.0350  216.3010 H   0  0  0  0  0  0  0  0  0  0  0  0
  143.7710   80.9600  217.4600 H   0  0  0  0  0  0  0  0  0  0  0  0
  141.3358   80.9590  219.1516 H   0  0  0  0  0  0  0  0  0  0  0  0
  140.4803   79.4122  218.6210 H   0  0  0  0  0  0  0  0  0  0  0  0
  142.4548   80.9506  221.3666 H   0  0  0  0  0  0  0  0  0  0  0  0
  142.1857   79.8152  224.9267 H   0  0  0  0  0  0  0  0  0  0  0  0
  143.6434   80.0895  223.9135 H   0  0  0  0  0  0  0  0  0  0  0  0
  142.3100   81.2932  223.9135 H   0  0  0  0  0  0  0  0  0  0  0  0
  141.2248   77.9056  224.1163 H   0  0  0  0  0  0  0  0  0  0  0  0
  139.8795   76.2240  223.4230 H   0  0  0  0  0  0  0  0  0  0  0  0
  138.9487   76.3934  221.8961 H   0  0  0  0  0  0  0  0  0  0  0  0
  140.5255   75.5328  221.8961 H   0  0  0  0  0  0  0  0  0  0  0  0
  140.2092   77.6080  219.9440 H   0  0  0  0  0  0  0  0  0  0  0  0
  144.1764   77.2526  219.6881 H   0  0  0  0  0  0  0  0  0  0  0  0
  142.4432   77.1833  220.2887 H   0  0  0  0  0  0  0  0  0  0  0  0
  144.0400   75.3426  220.9673 H   0  0  0  0  0  0  0  0  0  0  0  0
  142.3811   74.9404  220.2771 H   0  0  0  0  0  0  0  0  0  0  0  0
  1  2  1  0
  2  3  1  0
  3  4  2  0
  3  5  1  0
  5  6  1  0
  6  7  2  0
  7  8  1  0
  8  9  2  0
  9 10  1  0
 10 11  2  0
  5 12  1  0
 12 13  1  0
 13 14  1  0
 14 15  1  0
 15 16  1  0
 16 17  2  0
 16 18  1  0
 18 19  1  0
 18 20  1  0
 20 21  1  0
 21 22  2  0
 22 23  1  0
 23 24  1  0
 23 25  2  0
 25 26  1  0
 26 27  1  0
 26 28  2  0
 15 29  1  0
 29 30  1  0
 11  6  1  0
 30 12  1  0
 28 21  1  0
  1 31  1  0
  1 32  1  0
  1 33  1  0
  2 34  1  0
  2 35  1  0
  7 36  1  0
  8 37  1  0
  9 38  1  0
 10 39  1  0
 11 40  1  0
 12 41  1  0
 13 42  1  0
 13 43  1  0
 14 44  1  0
 14 45  1  0
 18 46  1  1
 19 47  1  0
 19 48  1  0
 20 49  1  0
 20 50  1  0
 22 51  1  0
 24 52  1  0
 24 53  1  0
 24 54  1  0
 25 55  1  0
 27 56  1  0
 27 57  1  0
 27 58  1  0
 28 59  1  0
 29 60  1  0
 29 61  1  0
 30 62  1  0
 30 63  1  0
M  END
>  <smiles>  (40) 
CCC(=O)N(c1ccccc1)C1CCN(C(=O)[C@@H](N)Cc2cc(C)cc(C)c2)CC1

>  <score_type>  (40) 
oracle

>  <origin>  (40) 
autodockgpu

>  <m_score__min__energy>  (40) 
-8.5899999999999999

>  <m_primary>  (40) 
energy

>  <rmsd>  (40) 
5.895563766933387

>  <m_score__min__rmsd>  (40) 
5.895563766933387

>  <meeko>  (40) 
{"free_energy": -6.47, "intermolecular_energy": -8.85, "internal_energy": -2.75, "cluster_size": 1, "cluster_id": 6, "rank_in_cluster": 1}

>  <energy>  (40) 
-6.5

>  <cluster_rmsd>  (40) 
0.57

>  <cluster>  (40) 
5

$$$$

     RDKit          3D

 63 65  0  0  0  0  0  0  0  0999 V2000
  142.1920   79.2630  218.8440 C   0  0  0  0  0  0  0  0  0  0  0  0
  141.8950   77.8310  219.2600 C   0  0  0  0  0  0  0  0  0  0  0  0
  140.7000   77.8700  220.1380 C   0  0  0  0  0  0  0  0  0  0  0  0
  139.5860   78.0310  219.5780 O   0  0  0  0  0  0  0  0  0  0  0  0
  140.8260   77.7280  221.5650 N   0  0  0  0  0  0  0  0  0  0  0  0
  141.2440   78.8880  222.3110 C   0  0  0  0  0  0  0  0  0  0  0  0
  140.3560   79.7240  222.9370 C   0  0  0  0  0  0  0  0  0  0  0  0
  140.8430   80.8200  223.6340 C   0  0  0  0  0  0  0  0  0  0  0  0
  142.1910   81.1040  223.7260 C   0  0  0  0  0  0  0  0  0  0  0  0
  143.0650   80.2520  223.0920 C   0  0  0  0  0  0  0  0  0  0  0  0
  142.5790   79.1760  222.4070 C   0  0  0  0  0  0  0  0  0  0  0  0
  140.5430   76.4700  222.2150 C   0  0  0  0  0  0  0  0  0  0  0  0
  139.0790   76.2630  222.3720 C   0  0  0  0  0  0  0  0  0  0  0  0
  138.5200   75.0210  221.7740 C   0  0  0  0  0  0  0  0  0  0  0  0
  139.3390   73.8460  222.0110 N   0  0  0  0  0  0  0  0  0  0  0  0
  138.6620   72.6420  222.2910 C   0  0  0  0  0  0  0  0  0  0  0  0
  137.3920   72.6960  222.3060 O   0  0  0  0  0  0  0  0  0  0  0  0
  139.2730   71.3300  222.5690 C   0  0  1  0  0  0  0  0  0  0  0  0
  139.3950   70.5830  221.3660 N   0  0  0  0  0  0  0  0  0  0  0  0
  140.5220   71.4210  223.4090 C   0  0  0  0  0  0  0  0  0  0  0  0
  140.4420   70.8180  224.7350 C   0  0  0  0  0  0  0  0  0  0  0  0
  140.0620   69.5170  224.9770 C   0  0  0  0  0  0  0  0  0  0  0  0
  139.9990   68.9680  226.2490 C   0  0  0  0  0  0  0  0  0  0  0  0
  139.5820   67.5550  226.4720 C   0  0  0  0  0  0  0  0  0  0  0  0
  140.3250   69.7360  227.3340 C   0  0  0  0  0  0  0  0  0  0  0  0
  140.7080   71.0380  227.1160 C   0  0  0  0  0  0  0  0  0  0  0  0
  141.0700   71.8770  228.3140 C   0  0  0  0  0  0  0  0  0  0  0  0
  140.7700   71.5820  225.8450 C   0  0  0  0  0  0  0  0  0  0  0  0
  140.7710   73.9730  221.9380 C   0  0  0  0  0  0  0  0  0  0  0  0
  141.2560   75.3320  221.5590 C   0  0  0  0  0  0  0  0  0  0  0  0
  142.3212   79.8862  219.7412 H   0  0  0  0  0  0  0  0  0  0  0  0
  143.1142   79.2870  218.2449 H   0  0  0  0  0  0  0  0  0  0  0  0
  141.3554   79.6518  218.2449 H   0  0  0  0  0  0  0  0  0  0  0  0
  141.6906   77.2149  218.3719 H   0  0  0  0  0  0  0  0  0  0  0  0
  142.7539   77.3908  219.7877 H   0  0  0  0  0  0  0  0  0  0  0  0
  139.2746   79.5288  222.8874 H   0  0  0  0  0  0  0  0  0  0  0  0
  140.1269   81.4893  224.1332 H   0  0  0  0  0  0  0  0  0  0  0  0
  142.5526   81.9793  224.2856 H   0  0  0  0  0  0  0  0  0  0  0  0
  144.1485   80.4365  223.1367 H   0  0  0  0  0  0  0  0  0  0  0  0
  143.2954   78.5072  221.9074 H   0  0  0  0  0  0  0  0  0  0  0  0
  140.9492   76.5084  223.2365 H   0  0  0  0  0  0  0  0  0  0  0  0
  138.8568   76.2455  223.4492 H   0  0  0  0  0  0  0  0  0  0  0  0
  138.6058   77.0907  221.8234 H   0  0  0  0  0  0  0  0  0  0  0  0
  137.5239   74.8442  222.2058 H   0  0  0  0  0  0  0  0  0  0  0  0
  138.4810   75.1746  220.6855 H   0  0  0  0  0  0  0  0  0  0  0  0
  138.5959   70.7539  223.2169 H   0  0  0  0  0  0  0  0  0  0  0  0
  138.6920   70.8370  220.6320 H   0  0  0  0  0  0  0  0  0  0  0  0
  139.5970   69.5900  221.4280 H   0  0  0  0  0  0  0  0  0  0  0  0
  141.3346   70.9224  222.8602 H   0  0  0  0  0  0  0  0  0  0  0  0
  140.6893   72.4948  223.5793 H   0  0  0  0  0  0  0  0  0  0  0  0
  139.7953   68.8819  224.1194 H   0  0  0  0  0  0  0  0  0  0  0  0
  139.5233   67.3562  227.5523 H   0  0  0  0  0  0  0  0  0  0  0  0
  138.5960   67.3871  226.0142 H   0  0  0  0  0  0  0  0  0  0  0  0
  140.3188   66.8786  226.0142 H   0  0  0  0  0  0  0  0  0  0  0  0
  140.2817   69.3227  228.3525 H   0  0  0  0  0  0  0  0  0  0  0  0
  140.8314   71.3240  229.2345 H   0  0  0  0  0  0  0  0  0  0  0  0
  142.1461   72.1039  228.2911 H   0  0  0  0  0  0  0  0  0  0  0  0
  140.4968   72.8156  228.2911 H   0  0  0  0  0  0  0  0  0  0  0  0
  141.0819   72.6287  225.7141 H   0  0  0  0  0  0  0  0  0  0  0  0
  141.1883   73.7227  222.9245 H   0  0  0  0  0  0  0  0  0  0  0  0
  141.1041   73.2903  221.1424 H   0  0  0  0  0  0  0  0  0  0  0  0
  142.3211   75.3993  221.8254 H   0  0  0  0  0  0  0  0  0  0  0  0
  141.0644   75.4338  220.4806 H   0  0  0  0  0  0  0  0  0  0  0  0
  1  2  1  0
  2  3  1  0
  3  4  2  0
  3  5  1  0
  5  6  1  0
  6  7  2  0
  7  8  1  0
  8  9  2  0
  9 10  1  0
 10 11  2  0
  5 12  1  0
 12 13  1  0
 13 14  1  0
 14 15  1  0
 15 16  1  0
 16 17  2  0
 16 18  1  0
 18 19  1  0
 18 20  1  0
 20 21  1  0
 21 22  2  0
 22 23  1  0
 23 24  1  0
 23 25  2  0
 25 26  1  0
 26 27  1  0
 26 28  2  0
 15 29  1  0
 29 30  1  0
 11  6  1  0
 30 12  1  0
 28 21  1  0
  1 31  1  0
  1 32  1  0
  1 33  1  0
  2 34  1  0
  2 35  1  0
  7 36  1  0
  8 37  1  0
  9 38  1  0
 10 39  1  0
 11 40  1  0
 12 41  1  0
 13 42  1  0
 13 43  1  0
 14 44  1  0
 14 45  1  0
 18 46  1  1
 19 47  1  0
 19 48  1  0
 20 49  1  0
 20 50  1  0
 22 51  1  0
 24 52  1  0
 24 53  1  0
 24 54  1  0
 25 55  1  0
 27 56  1  0
 27 57  1  0
 27 58  1  0
 28 59  1  0
 29 60  1  0
 29 61  1  0
 30 62  1  0
 30 63  1  0
M  END
>  <smiles>  (41) 
CCC(=O)N(c1ccccc1)C1CCN(C(=O)[C@@H](N)Cc2cc(C)cc(C)c2)CC1

>  <score_type>  (41) 
oracle

>  <origin>  (41) 
autodockgpu

>  <m_score__min__energy>  (41) 
-8.5899999999999999

>  <m_primary>  (41) 
energy

>  <rmsd>  (41) 
6.863246410379203

>  <m_score__min__rmsd>  (41) 
6.863246410379203

>  <meeko>  (41) 
{"free_energy": -7.98, "intermolecular_energy": -10.37, "internal_energy": -1.6, "cluster_size": 21, "cluster_id": 1, "rank_in_cluster": 10}

>  <energy>  (41) 
-6.49

>  <cluster_rmsd>  (41) 
0.66

>  <cluster>  (41) 
5

$$$$

     RDKit          3D

 63 65  0  0  0  0  0  0  0  0999 V2000
  137.8610   82.4750  221.4630 C   0  0  0  0  0  0  0  0  0  0  0  0
  137.5620   83.3380  222.6780 C   0  0  0  0  0  0  0  0  0  0  0  0
  136.3880   82.7400  223.3610 C   0  0  0  0  0  0  0  0  0  0  0  0
  135.2580   82.9820  222.8690 O   0  0  0  0  0  0  0  0  0  0  0  0
  136.5530   81.9230  224.5340 N   0  0  0  0  0  0  0  0  0  0  0  0
  136.1820   82.5000  225.8020 C   0  0  0  0  0  0  0  0  0  0  0  0
  136.1210   83.8540  226.0080 C   0  0  0  0  0  0  0  0  0  0  0  0
  135.7550   84.3260  227.2600 C   0  0  0  0  0  0  0  0  0  0  0  0
  135.4470   83.4860  228.3110 C   0  0  0  0  0  0  0  0  0  0  0  0
  135.5130   82.1310  228.0830 C   0  0  0  0  0  0  0  0  0  0  0  0
  135.8740   81.6730  226.8490 C   0  0  0  0  0  0  0  0  0  0  0  0
  137.0720   80.5780  224.4370 C   0  0  0  0  0  0  0  0  0  0  0  0
  136.2770   79.7640  223.4790 C   0  0  0  0  0  0  0  0  0  0  0  0
  137.0310   79.1460  222.3550 C   0  0  0  0  0  0  0  0  0  0  0  0
  138.2970   78.5620  222.7600 N   0  0  0  0  0  0  0  0  0  0  0  0
  138.6590   77.3410  222.1570 C   0  0  0  0  0  0  0  0  0  0  0  0
  137.8430   76.8640  221.3070 O   0  0  0  0  0  0  0  0  0  0  0  0
  139.8840   76.5620  222.4090 C   0  0  1  0  0  0  0  0  0  0  0  0
  139.6090   75.1720  222.3070 N   0  0  0  0  0  0  0  0  0  0  0  0
  141.0730   77.0510  221.6220 C   0  0  0  0  0  0  0  0  0  0  0  0
  141.3990   78.4650  221.7730 C   0  0  0  0  0  0  0  0  0  0  0  0
  142.0330   79.0060  222.8690 C   0  0  0  0  0  0  0  0  0  0  0  0
  142.3330   80.3550  222.9840 C   0  0  0  0  0  0  0  0  0  0  0  0
  143.0200   80.9030  224.1870 C   0  0  0  0  0  0  0  0  0  0  0  0
  141.9930   81.2120  221.9730 C   0  0  0  0  0  0  0  0  0  0  0  0
  141.3590   80.6940  220.8690 C   0  0  0  0  0  0  0  0  0  0  0  0
  140.9920   81.6420  219.7560 C   0  0  0  0  0  0  0  0  0  0  0  0
  141.0620   79.3480  220.7580 C   0  0  0  0  0  0  0  0  0  0  0  0
  139.1010   79.2570  223.7310 C   0  0  0  0  0  0  0  0  0  0  0  0
  138.5430   80.5660  224.1780 C   0  0  0  0  0  0  0  0  0  0  0  0
  138.2045   81.4835  221.7931 H   0  0  0  0  0  0  0  0  0  0  0  0
  136.9488   82.3644  220.8583 H   0  0  0  0  0  0  0  0  0  0  0  0
  138.6461   82.9525  220.8583 H   0  0  0  0  0  0  0  0  0  0  0  0
  138.4282   83.3478  223.3560 H   0  0  0  0  0  0  0  0  0  0  0  0
  137.3537   84.3758  222.3788 H   0  0  0  0  0  0  0  0  0  0  0  0
  136.3584   84.5546  225.1939 H   0  0  0  0  0  0  0  0  0  0  0  0
  135.7084   85.4131  227.4216 H   0  0  0  0  0  0  0  0  0  0  0  0
  135.1594   83.8854  229.2948 H   0  0  0  0  0  0  0  0  0  0  0  0
  135.2765   81.4215  228.8896 H   0  0  0  0  0  0  0  0  0  0  0  0
  135.9198   80.5859  226.6876 H   0  0  0  0  0  0  0  0  0  0  0  0
  136.9532   80.0885  225.4149 H   0  0  0  0  0  0  0  0  0  0  0  0
  135.7966   78.9531  224.0462 H   0  0  0  0  0  0  0  0  0  0  0  0
  135.5741   80.4676  223.0090 H   0  0  0  0  0  0  0  0  0  0  0  0
  136.4086   78.3550  221.9112 H   0  0  0  0  0  0  0  0  0  0  0  0
  137.2590   79.9484  221.6379 H   0  0  0  0  0  0  0  0  0  0  0  0
  140.2046   76.7322  223.4474 H   0  0  0  0  0  0  0  0  0  0  0  0
  138.8790   74.9310  221.5950 H   0  0  0  0  0  0  0  0  0  0  0  0
  139.5630   74.6200  223.1590 H   0  0  0  0  0  0  0  0  0  0  0  0
  141.9499   76.4672  221.9385 H   0  0  0  0  0  0  0  0  0  0  0  0
  140.8043   76.9188  220.5635 H   0  0  0  0  0  0  0  0  0  0  0  0
  142.3154   78.3352  223.6938 H   0  0  0  0  0  0  0  0  0  0  0  0
  142.5344   80.5157  225.0948 H   0  0  0  0  0  0  0  0  0  0  0  0
  144.0765   80.5968  224.1772 H   0  0  0  0  0  0  0  0  0  0  0  0
  142.9564   82.0011  224.1772 H   0  0  0  0  0  0  0  0  0  0  0  0
  142.2208   82.2859  222.0419 H   0  0  0  0  0  0  0  0  0  0  0  0
  140.6263   82.5867  220.1847 H   0  0  0  0  0  0  0  0  0  0  0  0
  141.8785   81.8398  219.1356 H   0  0  0  0  0  0  0  0  0  0  0  0
  140.2034   81.1913  219.1356 H   0  0  0  0  0  0  0  0  0  0  0  0
  140.5540   78.9744  219.8567 H   0  0  0  0  0  0  0  0  0  0  0  0
  139.2075   78.6101  224.6143 H   0  0  0  0  0  0  0  0  0  0  0  0
  140.0599   79.4788  223.2398 H   0  0  0  0  0  0  0  0  0  0  0  0
  139.0542   80.8533  225.1086 H   0  0  0  0  0  0  0  0  0  0  0  0
  138.7113   81.2677  223.3478 H   0  0  0  0  0  0  0  0  0  0  0  0
  1  2  1  0
  2  3  1  0
  3  4  2  0
  3  5  1  0
  5  6  1  0
  6  7  2  0
  7  8  1  0
  8  9  2  0
  9 10  1  0
 10 11  2  0
  5 12  1  0
 12 13  1  0
 13 14  1  0
 14 15  1  0
 15 16  1  0
 16 17  2  0
 16 18  1  0
 18 19  1  0
 18 20  1  0
 20 21  1  0
 21 22  2  0
 22 23  1  0
 23 24  1  0
 23 25  2  0
 25 26  1  0
 26 27  1  0
 26 28  2  0
 15 29  1  0
 29 30  1  0
 11  6  1  0
 30 12  1  0
 28 21  1  0
  1 31  1  0
  1 32  1  0
  1 33  1  0
  2 34  1  0
  2 35  1  0
  7 36  1  0
  8 37  1  0
  9 38  1  0
 10 39  1  0
 11 40  1  0
 12 41  1  0
 13 42  1  0
 13 43  1  0
 14 44  1  0
 14 45  1  0
 18 46  1  1
 19 47  1  0
 19 48  1  0
 20 49  1  0
 20 50  1  0
 22 51  1  0
 24 52  1  0
 24 53  1  0
 24 54  1  0
 25 55  1  0
 27 56  1  0
 27 57  1  0
 27 58  1  0
 28 59  1  0
 29 60  1  0
 29 61  1  0
 30 62  1  0
 30 63  1  0
M  END
>  <smiles>  (42) 
CCC(=O)N(c1ccccc1)C1CCN(C(=O)[C@@H](N)Cc2cc(C)cc(C)c2)CC1

>  <score_type>  (42) 
oracle

>  <origin>  (42) 
autodockgpu

>  <m_score__min__energy>  (42) 
-8.5899999999999999

>  <m_primary>  (42) 
energy

>  <rmsd>  (42) 
4.66301776101217

>  <m_score__min__rmsd>  (42) 
4.66301776101217

>  <meeko>  (42) 
{"free_energy": -6.51, "intermolecular_energy": -8.9, "internal_energy": -2.98, "cluster_size": 17, "cluster_id": 5, "rank_in_cluster": 7}

>  <energy>  (42) 
-6.44

>  <cluster_rmsd>  (42) 
0.62

>  <cluster>  (42) 
5

$$$$

     RDKit          3D

 63 65  0  0  0  0  0  0  0  0999 V2000
  139.4300   78.4180  219.5400 C   0  0  0  0  0  0  0  0  0  0  0  0
  140.9050   78.6610  219.2590 C   0  0  0  0  0  0  0  0  0  0  0  0
  141.6750   77.7910  220.1810 C   0  0  0  0  0  0  0  0  0  0  0  0
  142.6190   77.1270  219.6840 O   0  0  0  0  0  0  0  0  0  0  0  0
  141.3420   77.7190  221.5790 N   0  0  0  0  0  0  0  0  0  0  0  0
  141.4630   78.9290  222.3520 C   0  0  0  0  0  0  0  0  0  0  0  0
  140.3760   79.6680  222.7440 C   0  0  0  0  0  0  0  0  0  0  0  0
  140.5820   80.8210  223.4870 C   0  0  0  0  0  0  0  0  0  0  0  0
  141.8400   81.2580  223.8500 C   0  0  0  0  0  0  0  0  0  0  0  0
  142.9160   80.5030  223.4480 C   0  0  0  0  0  0  0  0  0  0  0  0
  142.7080   79.3690  222.7170 C   0  0  0  0  0  0  0  0  0  0  0  0
  140.9060   76.4780  222.1770 C   0  0  0  0  0  0  0  0  0  0  0  0
  139.4290   76.4560  222.3520 C   0  0  0  0  0  0  0  0  0  0  0  0
  138.7060   75.3270  221.7090 C   0  0  0  0  0  0  0  0  0  0  0  0
  139.3680   74.0450  221.8770 N   0  0  0  0  0  0  0  0  0  0  0  0
  138.5430   72.9270  222.1150 C   0  0  0  0  0  0  0  0  0  0  0  0
  137.2910   73.1450  222.1550 O   0  0  0  0  0  0  0  0  0  0  0  0
  138.9820   71.5360  222.3210 C   0  0  1  0  0  0  0  0  0  0  0  0
  138.8220   70.7900  221.1220 N   0  0  0  0  0  0  0  0  0  0  0  0
  140.3330   71.4290  222.9800 C   0  0  0  0  0  0  0  0  0  0  0  0
  140.3380   70.8990  224.3400 C   0  0  0  0  0  0  0  0  0  0  0  0
  140.7230   71.6130  225.4520 C   0  0  0  0  0  0  0  0  0  0  0  0
  140.7140   71.0850  226.7350 C   0  0  0  0  0  0  0  0  0  0  0  0
  141.1390   71.8880  227.9150 C   0  0  0  0  0  0  0  0  0  0  0  0
  140.3070   69.7930  226.9310 C   0  0  0  0  0  0  0  0  0  0  0  0
  139.9170   69.0620  225.8340 C   0  0  0  0  0  0  0  0  0  0  0  0
  139.4650   67.6420  226.0570 C   0  0  0  0  0  0  0  0  0  0  0  0
  139.9280   69.5920  224.5570 C   0  0  0  0  0  0  0  0  0  0  0  0
  140.8030   73.9890  221.7830 C   0  0  0  0  0  0  0  0  0  0  0  0
  141.4560   75.2900  221.4570 C   0  0  0  0  0  0  0  0  0  0  0  0
  139.2635   78.3906  220.6270 H   0  0  0  0  0  0  0  0  0  0  0  0
  138.8339   79.2300  219.0981 H   0  0  0  0  0  0  0  0  0  0  0  0
  139.1259   77.4577  219.0981 H   0  0  0  0  0  0  0  0  0  0  0  0
  141.1375   78.4034  218.2152 H   0  0  0  0  0  0  0  0  0  0  0  0
  141.1632   79.7191  219.4129 H   0  0  0  0  0  0  0  0  0  0  0  0
  139.3578   79.3515  222.4736 H   0  0  0  0  0  0  0  0  0  0  0  0
  139.7077   81.4109  223.7995 H   0  0  0  0  0  0  0  0  0  0  0  0
  141.9764   82.1767  224.4394 H   0  0  0  0  0  0  0  0  0  0  0  0
  143.9382   80.8106  223.7136 H   0  0  0  0  0  0  0  0  0  0  0  0
  143.5830   78.7796  222.4057 H   0  0  0  0  0  0  0  0  0  0  0  0
  141.3271   76.4142  223.1912 H   0  0  0  0  0  0  0  0  0  0  0  0
  139.2200   76.4165  223.4312 H   0  0  0  0  0  0  0  0  0  0  0  0
  139.0608   77.3634  221.8509 H   0  0  0  0  0  0  0  0  0  0  0  0
  137.7008   75.2605  222.1508 H   0  0  0  0  0  0  0  0  0  0  0  0
  138.6740   75.5359  220.6295 H   0  0  0  0  0  0  0  0  0  0  0  0
  138.3219   71.0628  223.0629 H   0  0  0  0  0  0  0  0  0  0  0  0
  138.1030   71.1800  220.4680 H   0  0  0  0  0  0  0  0  0  0  0  0
  138.8370   69.7760  221.1730 H   0  0  0  0  0  0  0  0  0  0  0  0
  140.9596   70.7714  222.3596 H   0  0  0  0  0  0  0  0  0  0  0  0
  140.7077   72.4601  223.0606 H   0  0  0  0  0  0  0  0  0  0  0  0
  141.0541   72.6533  225.3168 H   0  0  0  0  0  0  0  0  0  0  0  0
  140.8592   71.3594  228.8382 H   0  0  0  0  0  0  0  0  0  0  0  0
  142.2297   72.0287  227.8892 H   0  0  0  0  0  0  0  0  0  0  0  0
  140.6420   72.8690  227.8892 H   0  0  0  0  0  0  0  0  0  0  0  0
  140.2924   69.3517  227.9385 H   0  0  0  0  0  0  0  0  0  0  0  0
  139.4016   67.4427  227.1369 H   0  0  0  0  0  0  0  0  0  0  0  0
  138.4759   67.4957  225.5984 H   0  0  0  0  0  0  0  0  0  0  0  0
  140.1876   66.9509  225.5984 H   0  0  0  0  0  0  0  0  0  0  0  0
  139.6089   68.9720  223.7063 H   0  0  0  0  0  0  0  0  0  0  0  0
  141.1966   73.6403  222.7492 H   0  0  0  0  0  0  0  0  0  0  0  0
  141.0342   73.3075  220.9511 H   0  0  0  0  0  0  0  0  0  0  0  0
  142.5241   75.2061  221.7061 H   0  0  0  0  0  0  0  0  0  0  0  0
  141.2655   75.4668  220.3881 H   0  0  0  0  0  0  0  0  0  0  0  0
  1  2  1  0
  2  3  1  0
  3  4  2  0
  3  5  1  0
  5  6  1  0
  6  7  2  0
  7  8  1  0
  8  9  2  0
  9 10  1  0
 10 11  2  0
  5 12  1  0
 12 13  1  0
 13 14  1  0
 14 15  1  0
 15 16  1  0
 16 17  2  0
 16 18  1  0
 18 19  1  0
 18 20  1  0
 20 21  1  0
 21 22  2  0
 22 23  1  0
 23 24  1  0
 23 25  2  0
 25 26  1  0
 26 27  1  0
 26 28  2  0
 15 29  1  0
 29 30  1  0
 11  6  1  0
 30 12  1  0
 28 21  1  0
  1 31  1  0
  1 32  1  0
  1 33  1  0
  2 34  1  0
  2 35  1  0
  7 36  1  0
  8 37  1  0
  9 38  1  0
 10 39  1  0
 11 40  1  0
 12 41  1  0
 13 42  1  0
 13 43  1  0
 14 44  1  0
 14 45  1  0
 18 46  1  1
 19 47  1  0
 19 48  1  0
 20 49  1  0
 20 50  1  0
 22 51  1  0
 24 52  1  0
 24 53  1  0
 24 54  1  0
 25 55  1  0
 27 56  1  0
 27 57  1  0
 27 58  1  0
 28 59  1  0
 29 60  1  0
 29 61  1  0
 30 62  1  0
 30 63  1  0
M  END
>  <smiles>  (43) 
CCC(=O)N(c1ccccc1)C1CCN(C(=O)[C@@H](N)Cc2cc(C)cc(C)c2)CC1

>  <score_type>  (43) 
oracle

>  <origin>  (43) 
autodockgpu

>  <m_score__min__energy>  (43) 
-8.5899999999999999

>  <m_primary>  (43) 
energy

>  <rmsd>  (43) 
6.641689697389661

>  <m_score__min__rmsd>  (43) 
6.641689697389661

>  <meeko>  (43) 
{"free_energy": -7.74, "intermolecular_energy": -10.13, "internal_energy": -1.53, "cluster_size": 21, "cluster_id": 1, "rank_in_cluster": 18}

>  <energy>  (43) 
-6.44

>  <cluster_rmsd>  (43) 
0.67

>  <cluster>  (43) 
5

$$$$

     RDKit          3D

 63 65  0  0  0  0  0  0  0  0999 V2000
  146.3200   73.7850  220.5890 C   0  0  0  0  0  0  0  0  0  0  0  0
  145.4670   72.5900  220.1940 C   0  0  0  0  0  0  0  0  0  0  0  0
  145.3850   72.5810  218.7130 C   0  0  0  0  0  0  0  0  0  0  0  0
  145.9070   71.6050  218.1180 O   0  0  0  0  0  0  0  0  0  0  0  0
  144.7360   73.6520  218.0020 N   0  0  0  0  0  0  0  0  0  0  0  0
  145.3820   74.1460  216.8130 C   0  0  0  0  0  0  0  0  0  0  0  0
  146.6810   73.8400  216.4950 C   0  0  0  0  0  0  0  0  0  0  0  0
  147.2260   74.3580  215.3300 C   0  0  0  0  0  0  0  0  0  0  0  0
  146.5140   75.1710  214.4730 C   0  0  0  0  0  0  0  0  0  0  0  0
  145.2130   75.4650  214.8080 C   0  0  0  0  0  0  0  0  0  0  0  0
  144.6820   74.9530  215.9560 C   0  0  0  0  0  0  0  0  0  0  0  0
  143.4860   74.2040  218.4700 C   0  0  0  0  0  0  0  0  0  0  0  0
  142.6140   73.1470  219.0500 C   0  0  0  0  0  0  0  0  0  0  0  0
  142.1670   73.3560  220.4520 C   0  0  0  0  0  0  0  0  0  0  0  0
  141.7520   74.7200  220.7290 N   0  0  0  0  0  0  0  0  0  0  0  0
  140.6260   74.8880  221.5610 C   0  0  0  0  0  0  0  0  0  0  0  0
  140.0800   73.8260  221.9980 O   0  0  0  0  0  0  0  0  0  0  0  0
  140.0190   76.1650  221.9760 C   0  0  1  0  0  0  0  0  0  0  0  0
  138.6880   75.9500  222.4240 N   0  0  0  0  0  0  0  0  0  0  0  0
  140.8970   76.9690  222.9010 C   0  0  0  0  0  0  0  0  0  0  0  0
  141.2620   78.3020  222.4330 C   0  0  0  0  0  0  0  0  0  0  0  0
  141.3410   78.6680  221.1080 C   0  0  0  0  0  0  0  0  0  0  0  0
  141.6870   79.9440  220.6920 C   0  0  0  0  0  0  0  0  0  0  0  0
  141.7640   80.3030  219.2480 C   0  0  0  0  0  0  0  0  0  0  0  0
  141.9680   80.9060  221.6230 C   0  0  0  0  0  0  0  0  0  0  0  0
  141.8940   80.5640  222.9530 C   0  0  0  0  0  0  0  0  0  0  0  0
  142.1990   81.6290  223.9740 C   0  0  0  0  0  0  0  0  0  0  0  0
  141.5490   79.2890  223.3640 C   0  0  0  0  0  0  0  0  0  0  0  0
  142.5050   75.8040  220.1560 C   0  0  0  0  0  0  0  0  0  0  0  0
  143.6970   75.3820  219.3650 C   0  0  0  0  0  0  0  0  0  0  0  0
  146.3692   73.8539  221.6857 H   0  0  0  0  0  0  0  0  0  0  0  0
  147.3350   73.6610  220.1835 H   0  0  0  0  0  0  0  0  0  0  0  0
  145.8730   74.7046  220.1835 H   0  0  0  0  0  0  0  0  0  0  0  0
  145.9327   71.6597  220.5515 H   0  0  0  0  0  0  0  0  0  0  0  0
  144.4642   72.6610  220.6405 H   0  0  0  0  0  0  0  0  0  0  0  0
  147.2804   73.1942  217.1535 H   0  0  0  0  0  0  0  0  0  0  0  0
  148.2681   74.1106  215.0792 H   0  0  0  0  0  0  0  0  0  0  0  0
  146.9702   75.5697  213.5549 H   0  0  0  0  0  0  0  0  0  0  0  0
  144.6048   76.1083  214.1552 H   0  0  0  0  0  0  0  0  0  0  0  0
  143.6397   75.2008  216.2055 H   0  0  0  0  0  0  0  0  0  0  0  0
  142.9374   74.6009  217.6031 H   0  0  0  0  0  0  0  0  0  0  0  0
  141.7156   73.0711  218.4199 H   0  0  0  0  0  0  0  0  0  0  0  0
  143.2322   72.2374  219.0725 H   0  0  0  0  0  0  0  0  0  0  0  0
  141.3173   72.6862  220.6504 H   0  0  0  0  0  0  0  0  0  0  0  0
  143.0277   73.1406  221.1022 H   0  0  0  0  0  0  0  0  0  0  0  0
  139.9410   76.8227  221.0977 H   0  0  0  0  0  0  0  0  0  0  0  0
  138.2940   76.7400  222.9890 H   0  0  0  0  0  0  0  0  0  0  0  0
  138.4290   75.0260  222.7570 H   0  0  0  0  0  0  0  0  0  0  0  0
  140.3656   77.0812  223.8576 H   0  0  0  0  0  0  0  0  0  0  0  0
  141.8416   76.4103  222.9759 H   0  0  0  0  0  0  0  0  0  0  0  0
  141.1186   77.9105  220.3420 H   0  0  0  0  0  0  0  0  0  0  0  0
  141.9938   81.3741  219.1482 H   0  0  0  0  0  0  0  0  0  0  0  0
  142.5557   79.7116  218.7649 H   0  0  0  0  0  0  0  0  0  0  0  0
  140.7994   80.0884  218.7649 H   0  0  0  0  0  0  0  0  0  0  0  0
  142.2456   81.9252  221.3163 H   0  0  0  0  0  0  0  0  0  0  0  0
  142.0797   81.2125  224.9851 H   0  0  0  0  0  0  0  0  0  0  0  0
  143.2334   81.9788  223.8412 H   0  0  0  0  0  0  0  0  0  0  0  0
  141.5066   82.4733  223.8412 H   0  0  0  0  0  0  0  0  0  0  0  0
  141.5019   79.0561  224.4380 H   0  0  0  0  0  0  0  0  0  0  0  0
  141.8369   76.3729  219.4927 H   0  0  0  0  0  0  0  0  0  0  0  0
  142.8852   76.3994  220.9992 H   0  0  0  0  0  0  0  0  0  0  0  0
  144.0083   76.2320  218.7400 H   0  0  0  0  0  0  0  0  0  0  0  0
  144.4555   75.0735  220.0996 H   0  0  0  0  0  0  0  0  0  0  0  0
  1  2  1  0
  2  3  1  0
  3  4  2  0
  3  5  1  0
  5  6  1  0
  6  7  2  0
  7  8  1  0
  8  9  2  0
  9 10  1  0
 10 11  2  0
  5 12  1  0
 12 13  1  0
 13 14  1  0
 14 15  1  0
 15 16  1  0
 16 17  2  0
 16 18  1  0
 18 19  1  0
 18 20  1  0
 20 21  1  0
 21 22  2  0
 22 23  1  0
 23 24  1  0
 23 25  2  0
 25 26  1  0
 26 27  1  0
 26 28  2  0
 15 29  1  0
 29 30  1  0
 11  6  1  0
 30 12  1  0
 28 21  1  0
  1 31  1  0
  1 32  1  0
  1 33  1  0
  2 34  1  0
  2 35  1  0
  7 36  1  0
  8 37  1  0
  9 38  1  0
 10 39  1  0
 11 40  1  0
 12 41  1  0
 13 42  1  0
 13 43  1  0
 14 44  1  0
 14 45  1  0
 18 46  1  6
 19 47  1  0
 19 48  1  0
 20 49  1  0
 20 50  1  0
 22 51  1  0
 24 52  1  0
 24 53  1  0
 24 54  1  0
 25 55  1  0
 27 56  1  0
 27 57  1  0
 27 58  1  0
 28 59  1  0
 29 60  1  0
 29 61  1  0
 30 62  1  0
 30 63  1  0
M  END
>  <smiles>  (44) 
CCC(=O)N(c1ccccc1)C1CCN(C(=O)[C@@H](N)Cc2cc(C)cc(C)c2)CC1

>  <score_type>  (44) 
oracle

>  <origin>  (44) 
autodockgpu

>  <m_score__min__energy>  (44) 
-8.5899999999999999

>  <m_primary>  (44) 
energy

>  <rmsd>  (44) 
5.973810432593032

>  <m_score__min__rmsd>  (44) 
5.973810432593032

>  <meeko>  (44) 
{"free_energy": -7.08, "intermolecular_energy": -9.47, "internal_energy": -2.29, "cluster_size": 3, "cluster_id": 3, "rank_in_cluster": 2}

>  <energy>  (44) 
-6.43

>  <cluster_rmsd>  (44) 
0.67

>  <cluster>  (44) 
5

$$$$

     RDKit          3D

 63 65  0  0  0  0  0  0  0  0999 V2000
  137.9840   80.2770  223.5250 C   0  0  0  0  0  0  0  0  0  0  0  0
  137.2930   79.3330  222.5540 C   0  0  0  0  0  0  0  0  0  0  0  0
  138.2260   79.1090  221.4230 C   0  0  0  0  0  0  0  0  0  0  0  0
  137.9620   79.6910  220.3410 O   0  0  0  0  0  0  0  0  0  0  0  0
  139.3780   78.2580  221.5730 N   0  0  0  0  0  0  0  0  0  0  0  0
  140.5670   78.8460  222.1350 C   0  0  0  0  0  0  0  0  0  0  0  0
  141.0500   78.5010  223.3710 C   0  0  0  0  0  0  0  0  0  0  0  0
  142.2020   79.1170  223.8370 C   0  0  0  0  0  0  0  0  0  0  0  0
  142.8870   80.0660  223.1050 C   0  0  0  0  0  0  0  0  0  0  0  0
  142.3860   80.3980  221.8670 C   0  0  0  0  0  0  0  0  0  0  0  0
  141.2520   79.7890  221.4150 C   0  0  0  0  0  0  0  0  0  0  0  0
  139.3350   76.8710  221.1730 C   0  0  0  0  0  0  0  0  0  0  0  0
  140.6990   76.3490  220.8920 C   0  0  0  0  0  0  0  0  0  0  0  0
  141.1200   75.1530  221.6680 C   0  0  0  0  0  0  0  0  0  0  0  0
  140.0840   74.1420  221.7810 N   0  0  0  0  0  0  0  0  0  0  0  0
  140.4910   72.7970  221.6830 C   0  0  0  0  0  0  0  0  0  0  0  0
  141.7340   72.5910  221.5090 O   0  0  0  0  0  0  0  0  0  0  0  0
  139.6270   71.6060  221.7610 C   0  0  1  0  0  0  0  0  0  0  0  0
  140.3840   70.4340  221.4930 N   0  0  0  0  0  0  0  0  0  0  0  0
  138.7810   71.5650  223.0090 C   0  0  0  0  0  0  0  0  0  0  0  0
  139.4390   71.0530  224.2070 C   0  0  0  0  0  0  0  0  0  0  0  0
  140.1200   71.8330  225.1140 C   0  0  0  0  0  0  0  0  0  0  0  0
  140.7330   71.3200  226.2470 C   0  0  0  0  0  0  0  0  0  0  0  0
  141.4630   72.1960  227.2060 C   0  0  0  0  0  0  0  0  0  0  0  0
  140.6720   69.9760  226.4990 C   0  0  0  0  0  0  0  0  0  0  0  0
  139.9970   69.1780  225.6070 C   0  0  0  0  0  0  0  0  0  0  0  0
  139.9290   67.7000  225.8920 C   0  0  0  0  0  0  0  0  0  0  0  0
  139.3870   69.6940  224.4780 C   0  0  0  0  0  0  0  0  0  0  0  0
  138.7250   74.5640  221.9930 C   0  0  0  0  0  0  0  0  0  0  0  0
  138.5470   76.0390  222.1320 C   0  0  0  0  0  0  0  0  0  0  0  0
  137.7594   79.9702  224.5572 H   0  0  0  0  0  0  0  0  0  0  0  0
  139.0710   80.2414  223.3602 H   0  0  0  0  0  0  0  0  0  0  0  0
  137.6215   81.3024  223.3602 H   0  0  0  0  0  0  0  0  0  0  0  0
  137.0679   78.3783  223.0519 H   0  0  0  0  0  0  0  0  0  0  0  0
  136.3445   79.7625  222.1992 H   0  0  0  0  0  0  0  0  0  0  0  0
  140.5322   77.7479  223.9831 H   0  0  0  0  0  0  0  0  0  0  0  0
  142.5852   78.8382  224.8297 H   0  0  0  0  0  0  0  0  0  0  0  0
  143.7994   80.5393  223.4967 H   0  0  0  0  0  0  0  0  0  0  0  0
  142.8963   81.1492  221.2463 H   0  0  0  0  0  0  0  0  0  0  0  0
  140.8685   80.0691  220.4228 H   0  0  0  0  0  0  0  0  0  0  0  0
  138.7879   76.8023  220.2212 H   0  0  0  0  0  0  0  0  0  0  0  0
  140.7447   76.0887  219.8242 H   0  0  0  0  0  0  0  0  0  0  0  0
  141.3879   77.1516  221.1940 H   0  0  0  0  0  0  0  0  0  0  0  0
  141.9919   74.7039  221.1699 H   0  0  0  0  0  0  0  0  0  0  0  0
  141.3520   75.4940  222.6877 H   0  0  0  0  0  0  0  0  0  0  0  0
  138.8692   71.6655  220.9658 H   0  0  0  0  0  0  0  0  0  0  0  0
  141.3640   70.6210  221.1760 H   0  0  0  0  0  0  0  0  0  0  0  0
  139.9300   69.6580  221.0200 H   0  0  0  0  0  0  0  0  0  0  0  0
  138.4435   72.5901  223.2215 H   0  0  0  0  0  0  0  0  0  0  0  0
  137.9645   70.8603  222.7929 H   0  0  0  0  0  0  0  0  0  0  0  0
  140.1808   72.9160  224.9311 H   0  0  0  0  0  0  0  0  0  0  0  0
  141.2153   71.8988  228.2357 H   0  0  0  0  0  0  0  0  0  0  0  0
  142.5463   72.0930  227.0451 H   0  0  0  0  0  0  0  0  0  0  0  0
  141.1663   73.2430  227.0451 H   0  0  0  0  0  0  0  0  0  0  0  0
  141.1504   69.5463  227.3915 H   0  0  0  0  0  0  0  0  0  0  0  0
  139.9215   67.5363  226.9797 H   0  0  0  0  0  0  0  0  0  0  0  0
  139.0108   67.2836  225.4522 H   0  0  0  0  0  0  0  0  0  0  0  0
  140.8051   67.2011  225.4522 H   0  0  0  0  0  0  0  0  0  0  0  0
  138.8560   69.0206  223.7891 H   0  0  0  0  0  0  0  0  0  0  0  0
  138.1230   74.2249  221.1371 H   0  0  0  0  0  0  0  0  0  0  0  0
  138.4061   74.1202  222.9477 H   0  0  0  0  0  0  0  0  0  0  0  0
  137.4813   76.2680  221.9843 H   0  0  0  0  0  0  0  0  0  0  0  0
  138.9187   76.2968  223.1347 H   0  0  0  0  0  0  0  0  0  0  0  0
  1  2  1  0
  2  3  1  0
  3  4  2  0
  3  5  1  0
  5  6  1  0
  6  7  2  0
  7  8  1  0
  8  9  2  0
  9 10  1  0
 10 11  2  0
  5 12  1  0
 12 13  1  0
 13 14  1  0
 14 15  1  0
 15 16  1  0
 16 17  2  0
 16 18  1  0
 18 19  1  0
 18 20  1  0
 20 21  1  0
 21 22  2  0
 22 23  1  0
 23 24  1  0
 23 25  2  0
 25 26  1  0
 26 27  1  0
 26 28  2  0
 15 29  1  0
 29 30  1  0
 11  6  1  0
 30 12  1  0
 28 21  1  0
  1 31  1  0
  1 32  1  0
  1 33  1  0
  2 34  1  0
  2 35  1  0
  7 36  1  0
  8 37  1  0
  9 38  1  0
 10 39  1  0
 11 40  1  0
 12 41  1  0
 13 42  1  0
 13 43  1  0
 14 44  1  0
 14 45  1  0
 18 46  1  6
 19 47  1  0
 19 48  1  0
 20 49  1  0
 20 50  1  0
 22 51  1  0
 24 52  1  0
 24 53  1  0
 24 54  1  0
 25 55  1  0
 27 56  1  0
 27 57  1  0
 27 58  1  0
 28 59  1  0
 29 60  1  0
 29 61  1  0
 30 62  1  0
 30 63  1  0
M  END
>  <smiles>  (45) 
CCC(=O)N(c1ccccc1)C1CCN(C(=O)[C@@H](N)Cc2cc(C)cc(C)c2)CC1

>  <score_type>  (45) 
oracle

>  <origin>  (45) 
autodockgpu

>  <m_score__min__energy>  (45) 
-8.5899999999999999

>  <m_primary>  (45) 
energy

>  <rmsd>  (45) 
6.494668677566397

>  <m_score__min__rmsd>  (45) 
6.494668677566397

>  <meeko>  (45) 
{"free_energy": -6.94, "intermolecular_energy": -9.33, "internal_energy": -2.44, "cluster_size": 4, "cluster_id": 4, "rank_in_cluster": 2}

>  <energy>  (45) 
-6.4

>  <cluster_rmsd>  (45) 
0.58

>  <cluster>  (45) 
5

$$$$

     RDKit          3D

 63 65  0  0  0  0  0  0  0  0999 V2000
  137.9680   82.5060  221.5230 C   0  0  0  0  0  0  0  0  0  0  0  0
  137.6010   83.3830  222.7090 C   0  0  0  0  0  0  0  0  0  0  0  0
  136.4220   82.7640  223.3630 C   0  0  0  0  0  0  0  0  0  0  0  0
  135.2990   82.9930  222.8480 O   0  0  0  0  0  0  0  0  0  0  0  0
  136.5730   81.9420  224.5350 N   0  0  0  0  0  0  0  0  0  0  0  0
  136.2000   82.5190  225.8020 C   0  0  0  0  0  0  0  0  0  0  0  0
  136.1540   83.8730  226.0130 C   0  0  0  0  0  0  0  0  0  0  0  0
  135.7840   84.3440  227.2640 C   0  0  0  0  0  0  0  0  0  0  0  0
  135.4590   83.5040  228.3090 C   0  0  0  0  0  0  0  0  0  0  0  0
  135.5100   82.1490  228.0760 C   0  0  0  0  0  0  0  0  0  0  0  0
  135.8750   81.6920  226.8440 C   0  0  0  0  0  0  0  0  0  0  0  0
  137.0810   80.5940  224.4360 C   0  0  0  0  0  0  0  0  0  0  0  0
  136.2910   79.7910  223.4640 C   0  0  0  0  0  0  0  0  0  0  0  0
  137.0530   79.1730  222.3460 C   0  0  0  0  0  0  0  0  0  0  0  0
  138.3090   78.5760  222.7640 N   0  0  0  0  0  0  0  0  0  0  0  0
  138.6670   77.3540  222.1590 C   0  0  0  0  0  0  0  0  0  0  0  0
  137.8570   76.8900  221.2960 O   0  0  0  0  0  0  0  0  0  0  0  0
  139.8820   76.5630  222.4220 C   0  0  1  0  0  0  0  0  0  0  0  0
  139.5950   75.1760  222.3140 N   0  0  0  0  0  0  0  0  0  0  0  0
  141.0840   77.0410  221.6470 C   0  0  0  0  0  0  0  0  0  0  0  0
  141.4170   78.4540  221.7980 C   0  0  0  0  0  0  0  0  0  0  0  0
  142.0460   78.9940  222.8970 C   0  0  0  0  0  0  0  0  0  0  0  0
  142.3530   80.3410  223.0120 C   0  0  0  0  0  0  0  0  0  0  0  0
  143.0340   80.8880  224.2190 C   0  0  0  0  0  0  0  0  0  0  0  0
  142.0260   81.1970  221.9960 C   0  0  0  0  0  0  0  0  0  0  0  0
  141.3980   80.6810  220.8880 C   0  0  0  0  0  0  0  0  0  0  0  0
  141.0450   81.6290  219.7710 C   0  0  0  0  0  0  0  0  0  0  0  0
  141.0930   79.3370  220.7780 C   0  0  0  0  0  0  0  0  0  0  0  0
  139.1070   79.2580  223.7480 C   0  0  0  0  0  0  0  0  0  0  0  0
  138.5550   80.5690  224.1950 C   0  0  0  0  0  0  0  0  0  0  0  0
  138.3689   81.5480  221.8856 H   0  0  0  0  0  0  0  0  0  0  0  0
  137.0718   82.3210  220.9126 H   0  0  0  0  0  0  0  0  0  0  0  0
  138.7289   83.0144  220.9126 H   0  0  0  0  0  0  0  0  0  0  0  0
  138.4421   83.4320  223.4163 H   0  0  0  0  0  0  0  0  0  0  0  0
  137.3729   84.4080  222.3814 H   0  0  0  0  0  0  0  0  0  0  0  0
  136.4063   84.5740  225.2037 H   0  0  0  0  0  0  0  0  0  0  0  0
  135.7482   85.4309  227.4296 H   0  0  0  0  0  0  0  0  0  0  0  0
  135.1697   83.9029  229.2924 H   0  0  0  0  0  0  0  0  0  0  0  0
  135.2581   81.4393  228.8778 H   0  0  0  0  0  0  0  0  0  0  0  0
  135.9101   80.6050  226.6791 H   0  0  0  0  0  0  0  0  0  0  0  0
  136.9452   80.1016  225.4102 H   0  0  0  0  0  0  0  0  0  0  0  0
  135.7976   78.9810  224.0212 H   0  0  0  0  0  0  0  0  0  0  0  0
  135.5995   80.5027  222.9893 H   0  0  0  0  0  0  0  0  0  0  0  0
  136.4294   78.3898  221.8902 H   0  0  0  0  0  0  0  0  0  0  0  0
  137.2964   79.9770  221.6358 H   0  0  0  0  0  0  0  0  0  0  0  0
  140.1932   76.7292  223.4639 H   0  0  0  0  0  0  0  0  0  0  0  0
  138.8420   74.9470  221.6220 H   0  0  0  0  0  0  0  0  0  0  0  0
  139.5700   74.6150  223.1610 H   0  0  0  0  0  0  0  0  0  0  0  0
  141.9533   76.4525  221.9758 H   0  0  0  0  0  0  0  0  0  0  0  0
  140.8277   76.9065  220.5858 H   0  0  0  0  0  0  0  0  0  0  0  0
  142.3186   78.3233  223.7252 H   0  0  0  0  0  0  0  0  0  0  0  0
  142.5466   80.4965  225.1240 H   0  0  0  0  0  0  0  0  0  0  0  0
  144.0915   80.5855  224.2120 H   0  0  0  0  0  0  0  0  0  0  0  0
  142.9667   81.9859  224.2120 H   0  0  0  0  0  0  0  0  0  0  0  0
  142.2596   82.2697  222.0643 H   0  0  0  0  0  0  0  0  0  0  0  0
  140.6909   82.5800  220.1954 H   0  0  0  0  0  0  0  0  0  0  0  0
  141.9349   81.8129  219.1511 H   0  0  0  0  0  0  0  0  0  0  0  0
  140.2515   81.1861  219.1511 H   0  0  0  0  0  0  0  0  0  0  0  0
  140.5891   78.9645  219.8740 H   0  0  0  0  0  0  0  0  0  0  0  0
  139.1970   78.6054  224.6289 H   0  0  0  0  0  0  0  0  0  0  0  0
  140.0739   79.4737  223.2700 H   0  0  0  0  0  0  0  0  0  0  0  0
  139.0572   80.8466  225.1335 H   0  0  0  0  0  0  0  0  0  0  0  0
  138.7396   81.2731  223.3703 H   0  0  0  0  0  0  0  0  0  0  0  0
  1  2  1  0
  2  3  1  0
  3  4  2  0
  3  5  1  0
  5  6  1  0
  6  7  2  0
  7  8  1  0
  8  9  2  0
  9 10  1  0
 10 11  2  0
  5 12  1  0
 12 13  1  0
 13 14  1  0
 14 15  1  0
 15 16  1  0
 16 17  2  0
 16 18  1  0
 18 19  1  0
 18 20  1  0
 20 21  1  0
 21 22  2  0
 22 23  1  0
 23 24  1  0
 23 25  2  0
 25 26  1  0
 26 27  1  0
 26 28  2  0
 15 29  1  0
 29 30  1  0
 11  6  1  0
 30 12  1  0
 28 21  1  0
  1 31  1  0
  1 32  1  0
  1 33  1  0
  2 34  1  0
  2 35  1  0
  7 36  1  0
  8 37  1  0
  9 38  1  0
 10 39  1  0
 11 40  1  0
 12 41  1  0
 13 42  1  0
 13 43  1  0
 14 44  1  0
 14 45  1  0
 18 46  1  1
 19 47  1  0
 19 48  1  0
 20 49  1  0
 20 50  1  0
 22 51  1  0
 24 52  1  0
 24 53  1  0
 24 54  1  0
 25 55  1  0
 27 56  1  0
 27 57  1  0
 27 58  1  0
 28 59  1  0
 29 60  1  0
 29 61  1  0
 30 62  1  0
 30 63  1  0
M  END
>  <smiles>  (46) 
CCC(=O)N(c1ccccc1)C1CCN(C(=O)[C@@H](N)Cc2cc(C)cc(C)c2)CC1

>  <score_type>  (46) 
oracle

>  <origin>  (46) 
autodockgpu

>  <m_score__min__energy>  (46) 
-8.5899999999999999

>  <m_primary>  (46) 
energy

>  <rmsd>  (46) 
4.6642383119507045

>  <m_score__min__rmsd>  (46) 
4.6642383119507045

>  <meeko>  (46) 
{"free_energy": -6.5, "intermolecular_energy": -8.88, "internal_energy": -3.0, "cluster_size": 17, "cluster_id": 5, "rank_in_cluster": 9}

>  <energy>  (46) 
-6.38

>  <cluster_rmsd>  (46) 
0.66

>  <cluster>  (46) 
5

$$$$

     RDKit          3D

 63 65  0  0  0  0  0  0  0  0999 V2000
  142.5730   77.4680  218.7590 C   0  0  0  0  0  0  0  0  0  0  0  0
  141.8220   78.6720  219.3060 C   0  0  0  0  0  0  0  0  0  0  0  0
  140.7020   78.1520  220.1280 C   0  0  0  0  0  0  0  0  0  0  0  0
  139.6280   77.8930  219.5290 O   0  0  0  0  0  0  0  0  0  0  0  0
  140.8530   77.9590  221.5460 N   0  0  0  0  0  0  0  0  0  0  0  0
  141.2370   79.1040  222.3330 C   0  0  0  0  0  0  0  0  0  0  0  0
  140.3210   79.9290  222.9340 C   0  0  0  0  0  0  0  0  0  0  0  0
  140.7770   81.0100  223.6740 C   0  0  0  0  0  0  0  0  0  0  0  0
  142.1180   81.2900  223.8330 C   0  0  0  0  0  0  0  0  0  0  0  0
  143.0210   80.4500  223.2240 C   0  0  0  0  0  0  0  0  0  0  0  0
  142.5660   79.3880  222.4960 C   0  0  0  0  0  0  0  0  0  0  0  0
  140.6270   76.6660  222.1490 C   0  0  0  0  0  0  0  0  0  0  0  0
  139.1830   76.4510  222.4360 C   0  0  0  0  0  0  0  0  0  0  0  0
  138.5620   75.2460  221.8250 C   0  0  0  0  0  0  0  0  0  0  0  0
  139.3930   74.0580  221.9150 N   0  0  0  0  0  0  0  0  0  0  0  0
  138.7390   72.8410  222.1920 C   0  0  0  0  0  0  0  0  0  0  0  0
  137.4770   72.8940  222.3320 O   0  0  0  0  0  0  0  0  0  0  0  0
  139.3670   71.5150  222.3340 C   0  0  1  0  0  0  0  0  0  0  0  0
  139.5030   70.8990  221.0610 N   0  0  0  0  0  0  0  0  0  0  0  0
  140.6110   71.5340  223.1850 C   0  0  0  0  0  0  0  0  0  0  0  0
  140.4680   70.9910  224.5320 C   0  0  0  0  0  0  0  0  0  0  0  0
  140.8070   71.6660  225.6840 C   0  0  0  0  0  0  0  0  0  0  0  0
  140.6580   71.1260  226.9520 C   0  0  0  0  0  0  0  0  0  0  0  0
  141.0370   71.8870  228.1760 C   0  0  0  0  0  0  0  0  0  0  0  0
  140.1500   69.8630  227.0940 C   0  0  0  0  0  0  0  0  0  0  0  0
  139.8040   69.1710  225.9580 C   0  0  0  0  0  0  0  0  0  0  0  0
  139.2410   67.7830  226.1220 C   0  0  0  0  0  0  0  0  0  0  0  0
  139.9550   69.7130  224.6950 C   0  0  0  0  0  0  0  0  0  0  0  0
  140.8120   74.1890  221.7110 C   0  0  0  0  0  0  0  0  0  0  0  0
  141.2660   75.5660  221.3640 C   0  0  0  0  0  0  0  0  0  0  0  0
  142.9515   76.8612  219.5948 H   0  0  0  0  0  0  0  0  0  0  0  0
  141.8933   76.8606  218.1433 H   0  0  0  0  0  0  0  0  0  0  0  0
  143.4174   77.8113  218.1433 H   0  0  0  0  0  0  0  0  0  0  0  0
  142.4925   79.2847  219.9265 H   0  0  0  0  0  0  0  0  0  0  0  0
  141.4461   79.3035  218.4875 H   0  0  0  0  0  0  0  0  0  0  0  0
  139.2429   79.7367  222.8310 H   0  0  0  0  0  0  0  0  0  0  0  0
  140.0394   81.6705  224.1533 H   0  0  0  0  0  0  0  0  0  0  0  0
  142.4534   82.1540  224.4255 H   0  0  0  0  0  0  0  0  0  0  0  0
  144.1013   80.6323  223.3226 H   0  0  0  0  0  0  0  0  0  0  0  0
  143.3042   78.7281  222.0168 H   0  0  0  0  0  0  0  0  0  0  0  0
  141.1311   76.6468  223.1265 H   0  0  0  0  0  0  0  0  0  0  0  0
  139.0664   76.3715  223.5269 H   0  0  0  0  0  0  0  0  0  0  0  0
  138.6634   77.3093  221.9850 H   0  0  0  0  0  0  0  0  0  0  0  0
  137.6107   75.0455  222.3397 H   0  0  0  0  0  0  0  0  0  0  0  0
  138.4200   75.4617  220.7557 H   0  0  0  0  0  0  0  0  0  0  0  0
  138.6953   70.8655  222.9145 H   0  0  0  0  0  0  0  0  0  0  0  0
  138.9850   71.3870  220.2920 H   0  0  0  0  0  0  0  0  0  0  0  0
  139.4800   69.8850  221.0050 H   0  0  0  0  0  0  0  0  0  0  0  0
  141.3841   70.9487  222.6656 H   0  0  0  0  0  0  0  0  0  0  0  0
  140.8663   72.5958  223.3167 H   0  0  0  0  0  0  0  0  0  0  0  0
  141.2159   72.6831  225.5933 H   0  0  0  0  0  0  0  0  0  0  0  0
  140.7505   71.3118  229.0688 H   0  0  0  0  0  0  0  0  0  0  0  0
  142.1241   72.0551  228.1813 H   0  0  0  0  0  0  0  0  0  0  0  0
  140.5162   72.8559  228.1813 H   0  0  0  0  0  0  0  0  0  0  0  0
  140.0221   69.4141  228.0900 H   0  0  0  0  0  0  0  0  0  0  0  0
  139.1464   67.5498  227.1928 H   0  0  0  0  0  0  0  0  0  0  0  0
  138.2505   67.7305  225.6464 H   0  0  0  0  0  0  0  0  0  0  0  0
  139.9151   67.0553  225.6464 H   0  0  0  0  0  0  0  0  0  0  0  0
  139.6656   69.1251  223.8115 H   0  0  0  0  0  0  0  0  0  0  0  0
  141.3211   73.8833  222.6369 H   0  0  0  0  0  0  0  0  0  0  0  0
  141.0625   73.5525  220.8496 H   0  0  0  0  0  0  0  0  0  0  0  0
  142.3523   75.6174  221.5291 H   0  0  0  0  0  0  0  0  0  0  0  0
  140.9713   75.7287  220.3168 H   0  0  0  0  0  0  0  0  0  0  0  0
  1  2  1  0
  2  3  1  0
  3  4  2  0
  3  5  1  0
  5  6  1  0
  6  7  2  0
  7  8  1  0
  8  9  2  0
  9 10  1  0
 10 11  2  0
  5 12  1  0
 12 13  1  0
 13 14  1  0
 14 15  1  0
 15 16  1  0
 16 17  2  0
 16 18  1  0
 18 19  1  0
 18 20  1  0
 20 21  1  0
 21 22  2  0
 22 23  1  0
 23 24  1  0
 23 25  2  0
 25 26  1  0
 26 27  1  0
 26 28  2  0
 15 29  1  0
 29 30  1  0
 11  6  1  0
 30 12  1  0
 28 21  1  0
  1 31  1  0
  1 32  1  0
  1 33  1  0
  2 34  1  0
  2 35  1  0
  7 36  1  0
  8 37  1  0
  9 38  1  0
 10 39  1  0
 11 40  1  0
 12 41  1  0
 13 42  1  0
 13 43  1  0
 14 44  1  0
 14 45  1  0
 18 46  1  1
 19 47  1  0
 19 48  1  0
 20 49  1  0
 20 50  1  0
 22 51  1  0
 24 52  1  0
 24 53  1  0
 24 54  1  0
 25 55  1  0
 27 56  1  0
 27 57  1  0
 27 58  1  0
 28 59  1  0
 29 60  1  0
 29 61  1  0
 30 62  1  0
 30 63  1  0
M  END
>  <smiles>  (47) 
CCC(=O)N(c1ccccc1)C1CCN(C(=O)[C@@H](N)Cc2cc(C)cc(C)c2)CC1

>  <score_type>  (47) 
oracle

>  <origin>  (47) 
autodockgpu

>  <m_score__min__energy>  (47) 
-8.5899999999999999

>  <m_primary>  (47) 
energy

>  <rmsd>  (47) 
6.653398841393935

>  <m_score__min__rmsd>  (47) 
6.653398841393935

>  <meeko>  (47) 
{"free_energy": -7.98, "intermolecular_energy": -10.37, "internal_energy": -1.65, "cluster_size": 21, "cluster_id": 1, "rank_in_cluster": 9}

>  <energy>  (47) 
-6.35

>  <cluster_rmsd>  (47) 
0.76

>  <cluster>  (47) 
5

$$$$

     RDKit          3D

 63 65  0  0  0  0  0  0  0  0999 V2000
  134.2810   82.3670  223.2440 C   0  0  0  0  0  0  0  0  0  0  0  0
  135.3470   83.4340  223.0510 C   0  0  0  0  0  0  0  0  0  0  0  0
  136.6390   82.8420  223.4770 C   0  0  0  0  0  0  0  0  0  0  0  0
  137.6520   83.1310  222.7910 O   0  0  0  0  0  0  0  0  0  0  0  0
  136.7130   81.9780  224.6250 N   0  0  0  0  0  0  0  0  0  0  0  0
  136.2730   82.5140  225.8880 C   0  0  0  0  0  0  0  0  0  0  0  0
  136.2160   83.8610  226.1400 C   0  0  0  0  0  0  0  0  0  0  0  0
  135.7800   84.2920  227.3840 C   0  0  0  0  0  0  0  0  0  0  0  0
  135.3990   83.4200  228.3830 C   0  0  0  0  0  0  0  0  0  0  0  0
  135.4620   82.0730  228.1100 C   0  0  0  0  0  0  0  0  0  0  0  0
  135.8930   81.6540  226.8840 C   0  0  0  0  0  0  0  0  0  0  0  0
  137.2110   80.6270  224.5080 C   0  0  0  0  0  0  0  0  0  0  0  0
  136.3740   79.8240  223.5760 C   0  0  0  0  0  0  0  0  0  0  0  0
  137.0810   79.1990  222.4270 C   0  0  0  0  0  0  0  0  0  0  0  0
  138.3530   78.5990  222.7870 N   0  0  0  0  0  0  0  0  0  0  0  0
  138.6790   77.3740  222.1700 C   0  0  0  0  0  0  0  0  0  0  0  0
  137.8280   76.9100  221.3480 O   0  0  0  0  0  0  0  0  0  0  0  0
  139.9020   76.5790  222.3790 C   0  0  1  0  0  0  0  0  0  0  0  0
  139.6100   75.1940  222.2610 N   0  0  0  0  0  0  0  0  0  0  0  0
  141.0760   77.0700  221.5700 C   0  0  0  0  0  0  0  0  0  0  0  0
  141.4180   78.4790  221.7340 C   0  0  0  0  0  0  0  0  0  0  0  0
  142.0480   79.0040  222.8400 C   0  0  0  0  0  0  0  0  0  0  0  0
  142.3650   80.3480  222.9670 C   0  0  0  0  0  0  0  0  0  0  0  0
  143.0470   80.8790  224.1800 C   0  0  0  0  0  0  0  0  0  0  0  0
  142.0460   81.2160  221.9590 C   0  0  0  0  0  0  0  0  0  0  0  0
  141.4160   80.7140  220.8450 C   0  0  0  0  0  0  0  0  0  0  0  0
  141.0710   81.6740  219.7360 C   0  0  0  0  0  0  0  0  0  0  0  0
  141.1020   79.3730  220.7220 C   0  0  0  0  0  0  0  0  0  0  0  0
  139.1980   79.2810  223.7310 C   0  0  0  0  0  0  0  0  0  0  0  0
  138.6730   80.5970  224.1980 C   0  0  0  0  0  0  0  0  0  0  0  0
  134.1170   82.2028  224.3192 H   0  0  0  0  0  0  0  0  0  0  0  0
  133.3420   82.6979  222.7762 H   0  0  0  0  0  0  0  0  0  0  0  0
  134.6128   81.4284  222.7762 H   0  0  0  0  0  0  0  0  0  0  0  0
  135.3980   83.7293  221.9926 H   0  0  0  0  0  0  0  0  0  0  0  0
  135.1138   84.3318  223.6423 H   0  0  0  0  0  0  0  0  0  0  0  0
  136.5112   84.5873  225.3684 H   0  0  0  0  0  0  0  0  0  0  0  0
  135.7362   85.3731  227.5823 H   0  0  0  0  0  0  0  0  0  0  0  0
  135.0575   83.7881  229.3617 H   0  0  0  0  0  0  0  0  0  0  0  0
  135.1672   81.3387  228.8741 H   0  0  0  0  0  0  0  0  0  0  0  0
  135.9372   80.5728  226.6865 H   0  0  0  0  0  0  0  0  0  0  0  0
  137.1187   80.1377  225.4889 H   0  0  0  0  0  0  0  0  0  0  0  0
  135.9032   79.0181  224.1582 H   0  0  0  0  0  0  0  0  0  0  0  0
  135.6646   80.5371  223.1308 H   0  0  0  0  0  0  0  0  0  0  0  0
  136.4341   78.4163  222.0041 H   0  0  0  0  0  0  0  0  0  0  0  0
  137.2941   79.9999  221.7037 H   0  0  0  0  0  0  0  0  0  0  0  0
  140.2505   76.7282  223.4116 H   0  0  0  0  0  0  0  0  0  0  0  0
  138.8680   74.9710  221.5560 H   0  0  0  0  0  0  0  0  0  0  0  0
  139.5690   74.6310  223.1060 H   0  0  0  0  0  0  0  0  0  0  0  0
  141.9553   76.4742  221.8561 H   0  0  0  0  0  0  0  0  0  0  0  0
  140.7803   76.9560  220.5166 H   0  0  0  0  0  0  0  0  0  0  0  0
  142.3128   78.3240  223.6631 H   0  0  0  0  0  0  0  0  0  0  0  0
  142.5485   80.4908  225.0804 H   0  0  0  0  0  0  0  0  0  0  0  0
  144.0999   80.5605  224.1777 H   0  0  0  0  0  0  0  0  0  0  0  0
  142.9963   81.9778  224.1777 H   0  0  0  0  0  0  0  0  0  0  0  0
  142.2870   82.2864  222.0377 H   0  0  0  0  0  0  0  0  0  0  0  0
  140.7289   82.6259  220.1682 H   0  0  0  0  0  0  0  0  0  0  0  0
  141.9613   81.8522  219.1151 H   0  0  0  0  0  0  0  0  0  0  0  0
  140.2709   81.2447  219.1151 H   0  0  0  0  0  0  0  0  0  0  0  0
  140.5972   79.0122  219.8137 H   0  0  0  0  0  0  0  0  0  0  0  0
  139.3250   78.6312  224.6094 H   0  0  0  0  0  0  0  0  0  0  0  0
  140.1430   79.4905  223.2084 H   0  0  0  0  0  0  0  0  0  0  0  0
  139.2199   80.8768  225.1105 H   0  0  0  0  0  0  0  0  0  0  0  0
  138.8218   81.2978  223.3633 H   0  0  0  0  0  0  0  0  0  0  0  0
  1  2  1  0
  2  3  1  0
  3  4  2  0
  3  5  1  0
  5  6  1  0
  6  7  2  0
  7  8  1  0
  8  9  2  0
  9 10  1  0
 10 11  2  0
  5 12  1  0
 12 13  1  0
 13 14  1  0
 14 15  1  0
 15 16  1  0
 16 17  2  0
 16 18  1  0
 18 19  1  0
 18 20  1  0
 20 21  1  0
 21 22  2  0
 22 23  1  0
 23 24  1  0
 23 25  2  0
 25 26  1  0
 26 27  1  0
 26 28  2  0
 15 29  1  0
 29 30  1  0
 11  6  1  0
 30 12  1  0
 28 21  1  0
  1 31  1  0
  1 32  1  0
  1 33  1  0
  2 34  1  0
  2 35  1  0
  7 36  1  0
  8 37  1  0
  9 38  1  0
 10 39  1  0
 11 40  1  0
 12 41  1  0
 13 42  1  0
 13 43  1  0
 14 44  1  0
 14 45  1  0
 18 46  1  1
 19 47  1  0
 19 48  1  0
 20 49  1  0
 20 50  1  0
 22 51  1  0
 24 52  1  0
 24 53  1  0
 24 54  1  0
 25 55  1  0
 27 56  1  0
 27 57  1  0
 27 58  1  0
 28 59  1  0
 29 60  1  0
 29 61  1  0
 30 62  1  0
 30 63  1  0
M  END
>  <smiles>  (48) 
CCC(=O)N(c1ccccc1)C1CCN(C(=O)[C@@H](N)Cc2cc(C)cc(C)c2)CC1

>  <score_type>  (48) 
oracle

>  <origin>  (48) 
autodockgpu

>  <m_score__min__energy>  (48) 
-8.5899999999999999

>  <m_primary>  (48) 
energy

>  <rmsd>  (48) 
4.6285585755618595

>  <m_score__min__rmsd>  (48) 
4.6285585755618595

>  <meeko>  (48) 
{"free_energy": -6.63, "intermolecular_energy": -9.02, "internal_energy": -2.72, "cluster_size": 17, "cluster_id": 5, "rank_in_cluster": 2}

>  <energy>  (48) 
-6.15

>  <cluster_rmsd>  (48) 
0.92

>  <cluster>  (48) 
5

$$$$

     RDKit          3D

 63 65  0  0  0  0  0  0  0  0999 V2000
  139.2830   77.5970  219.0630 C   0  0  0  0  0  0  0  0  0  0  0  0
  140.4150   78.6030  219.1960 C   0  0  0  0  0  0  0  0  0  0  0  0
  141.4610   77.9750  220.0400 C   0  0  0  0  0  0  0  0  0  0  0  0
  142.4950   77.5650  219.4560 O   0  0  0  0  0  0  0  0  0  0  0  0
  141.2840   77.8470  221.4630 N   0  0  0  0  0  0  0  0  0  0  0  0
  141.4400   79.0370  222.2600 C   0  0  0  0  0  0  0  0  0  0  0  0
  140.3840   79.8440  222.6000 C   0  0  0  0  0  0  0  0  0  0  0  0
  140.6230   80.9720  223.3710 C   0  0  0  0  0  0  0  0  0  0  0  0
  141.8840   81.3170  223.8130 C   0  0  0  0  0  0  0  0  0  0  0  0
  142.9290   80.4950  223.4620 C   0  0  0  0  0  0  0  0  0  0  0  0
  142.6880   79.3870  222.7030 C   0  0  0  0  0  0  0  0  0  0  0  0
  140.9630   76.5710  222.0600 C   0  0  0  0  0  0  0  0  0  0  0  0
  139.5200   76.4900  222.4120 C   0  0  0  0  0  0  0  0  0  0  0  0
  138.7590   75.3590  221.8170 C   0  0  0  0  0  0  0  0  0  0  0  0
  139.4760   74.0970  221.8530 N   0  0  0  0  0  0  0  0  0  0  0  0
  138.7210   72.9430  222.1460 C   0  0  0  0  0  0  0  0  0  0  0  0
  137.4770   73.1140  222.3460 O   0  0  0  0  0  0  0  0  0  0  0  0
  139.2250   71.5610  222.2420 C   0  0  1  0  0  0  0  0  0  0  0  0
  139.2590   70.9620  220.9550 N   0  0  0  0  0  0  0  0  0  0  0  0
  140.4930   71.4450  223.0490 C   0  0  0  0  0  0  0  0  0  0  0  0
  140.3480   70.8760  224.3850 C   0  0  0  0  0  0  0  0  0  0  0  0
  139.8590   69.6160  224.6460 C   0  0  0  0  0  0  0  0  0  0  0  0
  139.7350   69.0990  225.9270 C   0  0  0  0  0  0  0  0  0  0  0  0
  139.2010   67.7300  226.1700 C   0  0  0  0  0  0  0  0  0  0  0  0
  140.1100   69.8590  227.0010 C   0  0  0  0  0  0  0  0  0  0  0  0
  140.6020   71.1210  226.7650 C   0  0  0  0  0  0  0  0  0  0  0  0
  141.0180   71.9510  227.9520 C   0  0  0  0  0  0  0  0  0  0  0  0
  140.7240   71.6330  225.4850 C   0  0  0  0  0  0  0  0  0  0  0  0
  140.8890   74.0950  221.5840 C   0  0  0  0  0  0  0  0  0  0  0  0
  141.4570   75.4290  221.2330 C   0  0  0  0  0  0  0  0  0  0  0  0
  138.9422   77.2941  220.0640 H   0  0  0  0  0  0  0  0  0  0  0  0
  138.4473   78.0558  218.5144 H   0  0  0  0  0  0  0  0  0  0  0  0
  139.6405   76.7132  218.5144 H   0  0  0  0  0  0  0  0  0  0  0  0
  140.8248   78.8430  218.2038 H   0  0  0  0  0  0  0  0  0  0  0  0
  140.0557   79.5384  219.6498 H   0  0  0  0  0  0  0  0  0  0  0  0
  139.3644   79.6005  222.2667 H   0  0  0  0  0  0  0  0  0  0  0  0
  139.7738   81.6171  223.6408 H   0  0  0  0  0  0  0  0  0  0  0  0
  142.0473   82.2170  224.4240 H   0  0  0  0  0  0  0  0  0  0  0  0
  143.9523   80.7291  223.7909 H   0  0  0  0  0  0  0  0  0  0  0  0
  143.5380   78.7429  222.4335 H   0  0  0  0  0  0  0  0  0  0  0  0
  141.5072   76.4871  223.0122 H   0  0  0  0  0  0  0  0  0  0  0  0
  139.4462   76.4047  223.5062 H   0  0  0  0  0  0  0  0  0  0  0  0
  139.0650   77.4009  221.9957 H   0  0  0  0  0  0  0  0  0  0  0  0
  137.8179   75.2410  222.3742 H   0  0  0  0  0  0  0  0  0  0  0  0
  138.5886   75.6046  220.7584 H   0  0  0  0  0  0  0  0  0  0  0  0
  138.5147   70.9654  222.8342 H   0  0  0  0  0  0  0  0  0  0  0  0
  138.6840   71.4610  220.2350 H   0  0  0  0  0  0  0  0  0  0  0  0
  139.2270   69.9490  220.8870 H   0  0  0  0  0  0  0  0  0  0  0  0
  141.1937   70.8104  222.4865 H   0  0  0  0  0  0  0  0  0  0  0  0
  140.8447   72.4761  223.2010 H   0  0  0  0  0  0  0  0  0  0  0  0
  139.5514   68.9882  223.7967 H   0  0  0  0  0  0  0  0  0  0  0  0
  139.1310   67.5506  227.2530 H   0  0  0  0  0  0  0  0  0  0  0  0
  138.2021   67.6405  225.7182 H   0  0  0  0  0  0  0  0  0  0  0  0
  139.8755   66.9878  225.7182 H   0  0  0  0  0  0  0  0  0  0  0  0
  140.0203   69.4707  228.0263 H   0  0  0  0  0  0  0  0  0  0  0  0
  140.7532   71.4226  228.8797 H   0  0  0  0  0  0  0  0  0  0  0  0
  142.1052   72.1157  227.9213 H   0  0  0  0  0  0  0  0  0  0  0  0
  140.4993   72.9205  227.9213 H   0  0  0  0  0  0  0  0  0  0  0  0
  141.1221   72.6479  225.3388 H   0  0  0  0  0  0  0  0  0  0  0  0
  141.4083   73.7264  222.4809 H   0  0  0  0  0  0  0  0  0  0  0  0
  141.0376   73.4520  220.7040 H   0  0  0  0  0  0  0  0  0  0  0  0
  142.5496   75.3740  221.3477 H   0  0  0  0  0  0  0  0  0  0  0  0
  141.1319   75.6365  220.2028 H   0  0  0  0  0  0  0  0  0  0  0  0
  1  2  1  0
  2  3  1  0
  3  4  2  0
  3  5  1  0
  5  6  1  0
  6  7  2  0
  7  8  1  0
  8  9  2  0
  9 10  1  0
 10 11  2  0
  5 12  1  0
 12 13  1  0
 13 14  1  0
 14 15  1  0
 15 16  1  0
 16 17  2  0
 16 18  1  0
 18 19  1  0
 18 20  1  0
 20 21  1  0
 21 22  2  0
 22 23  1  0
 23 24  1  0
 23 25  2  0
 25 26  1  0
 26 27  1  0
 26 28  2  0
 15 29  1  0
 29 30  1  0
 11  6  1  0
 30 12  1  0
 28 21  1  0
  1 31  1  0
  1 32  1  0
  1 33  1  0
  2 34  1  0
  2 35  1  0
  7 36  1  0
  8 37  1  0
  9 38  1  0
 10 39  1  0
 11 40  1  0
 12 41  1  0
 13 42  1  0
 13 43  1  0
 14 44  1  0
 14 45  1  0
 18 46  1  1
 19 47  1  0
 19 48  1  0
 20 49  1  0
 20 50  1  0
 22 51  1  0
 24 52  1  0
 24 53  1  0
 24 54  1  0
 25 55  1  0
 27 56  1  0
 27 57  1  0
 27 58  1  0
 28 59  1  0
 29 60  1  0
 29 61  1  0
 30 62  1  0
 30 63  1  0
M  END
>  <smiles>  (49) 
CCC(=O)N(c1ccccc1)C1CCN(C(=O)[C@@H](N)Cc2cc(C)cc(C)c2)CC1

>  <score_type>  (49) 
oracle

>  <origin>  (49) 
autodockgpu

>  <m_score__min__energy>  (49) 
-8.5899999999999999

>  <m_primary>  (49) 
energy

>  <rmsd>  (49) 
6.61349471638919

>  <m_score__min__rmsd>  (49) 
6.61349471638919

>  <meeko>  (49) 
{"free_energy": -7.67, "intermolecular_energy": -10.06, "internal_energy": -1.7, "cluster_size": 21, "cluster_id": 1, "rank_in_cluster": 19}

>  <energy>  (49) 
-6.47

>  <cluster_rmsd>  (49) 
0.0

>  <cluster>  (49) 
6

$$$$

     RDKit          3D

 63 65  0  0  0  0  0  0  0  0999 V2000
  146.3490   73.1700  221.6930 C   0  0  0  0  0  0  0  0  0  0  0  0
  145.6080   74.1210  220.7670 C   0  0  0  0  0  0  0  0  0  0  0  0
  145.3860   73.4030  219.4880 C   0  0  0  0  0  0  0  0  0  0  0  0
  145.9950   72.3160  219.3320 O   0  0  0  0  0  0  0  0  0  0  0  0
  144.5100   73.9420  218.4810 N   0  0  0  0  0  0  0  0  0  0  0  0
  145.0510   74.1160  217.1560 C   0  0  0  0  0  0  0  0  0  0  0  0
  144.7050   75.1690  216.3490 C   0  0  0  0  0  0  0  0  0  0  0  0
  145.2730   75.2610  215.0870 C   0  0  0  0  0  0  0  0  0  0  0  0
  146.1760   74.3340  214.6080 C   0  0  0  0  0  0  0  0  0  0  0  0
  146.5110   73.2860  215.4340 C   0  0  0  0  0  0  0  0  0  0  0  0
  145.9480   73.2010  216.6740 C   0  0  0  0  0  0  0  0  0  0  0  0
  143.1440   74.2910  218.7930 C   0  0  0  0  0  0  0  0  0  0  0  0
  142.5080   73.2600  219.6560 C   0  0  0  0  0  0  0  0  0  0  0  0
  141.9520   73.7350  220.9510 C   0  0  0  0  0  0  0  0  0  0  0  0
  141.2210   74.9850  220.8420 N   0  0  0  0  0  0  0  0  0  0  0  0
  140.0440   75.1060  221.6090 C   0  0  0  0  0  0  0  0  0  0  0  0
  139.7340   74.1070  222.3320 O   0  0  0  0  0  0  0  0  0  0  0  0
  139.1390   76.2680  221.6600 C   0  0  1  0  0  0  0  0  0  0  0  0
  137.7870   75.8340  221.6770 N   0  0  0  0  0  0  0  0  0  0  0  0
  139.5160   77.2700  222.7210 C   0  0  0  0  0  0  0  0  0  0  0  0
  140.4260   78.3300  222.3010 C   0  0  0  0  0  0  0  0  0  0  0  0
  140.5410   78.7920  221.0090 C   0  0  0  0  0  0  0  0  0  0  0  0
  141.4120   79.8050  220.6390 C   0  0  0  0  0  0  0  0  0  0  0  0
  141.5090   80.2770  219.2300 C   0  0  0  0  0  0  0  0  0  0  0  0
  142.2080   80.3910  221.5850 C   0  0  0  0  0  0  0  0  0  0  0  0
  142.1100   79.9470  222.8820 C   0  0  0  0  0  0  0  0  0  0  0  0
  142.9860   80.6000  223.9200 C   0  0  0  0  0  0  0  0  0  0  0  0
  141.2400   78.9360  223.2470 C   0  0  0  0  0  0  0  0  0  0  0  0
  141.7350   76.0160  219.9790 C   0  0  0  0  0  0  0  0  0  0  0  0
  143.0320   75.6850  219.3210 C   0  0  0  0  0  0  0  0  0  0  0  0
  146.1394   73.4389  222.7388 H   0  0  0  0  0  0  0  0  0  0  0  0
  146.0134   72.1394  221.5051 H   0  0  0  0  0  0  0  0  0  0  0  0
  147.4303   73.2435  221.5051 H   0  0  0  0  0  0  0  0  0  0  0  0
  144.6431   74.4052  221.2122 H   0  0  0  0  0  0  0  0  0  0  0  0
  146.1902   75.0398  220.6033 H   0  0  0  0  0  0  0  0  0  0  0  0
  143.9889   75.9282  216.6966 H   0  0  0  0  0  0  0  0  0  0  0  0
  144.9924   76.1068  214.4421 H   0  0  0  0  0  0  0  0  0  0  0  0
  146.6120   74.4295  213.6026 H   0  0  0  0  0  0  0  0  0  0  0  0
  147.2274   72.5223  215.0973 H   0  0  0  0  0  0  0  0  0  0  0  0
  146.2289   72.3550  217.3185 H   0  0  0  0  0  0  0  0  0  0  0  0
  142.5656   74.2940  217.8573 H   0  0  0  0  0  0  0  0  0  0  0  0
  141.6850   72.8061  219.0845 H   0  0  0  0  0  0  0  0  0  0  0  0
  143.3156   72.5623  219.9224 H   0  0  0  0  0  0  0  0  0  0  0  0
  141.2697   72.9651  221.3407 H   0  0  0  0  0  0  0  0  0  0  0  0
  142.8039   73.9151  221.6232 H   0  0  0  0  0  0  0  0  0  0  0  0
  139.2583   76.8510  220.7349 H   0  0  0  0  0  0  0  0  0  0  0  0
  137.6510   74.8720  222.0700 H   0  0  0  0  0  0  0  0  0  0  0  0
  137.1960   76.0480  220.8780 H   0  0  0  0  0  0  0  0  0  0  0  0
  138.5908   77.7432  223.0818 H   0  0  0  0  0  0  0  0  0  0  0  0
  140.0576   76.6999  223.4902 H   0  0  0  0  0  0  0  0  0  0  0  0
  139.9106   78.3347  220.2321 H   0  0  0  0  0  0  0  0  0  0  0  0
  141.7304   81.3544  219.2187 H   0  0  0  0  0  0  0  0  0  0  0  0
  142.3139   79.7318  218.7153 H   0  0  0  0  0  0  0  0  0  0  0  0
  140.5544   80.0934  218.7153 H   0  0  0  0  0  0  0  0  0  0  0  0
  142.9075   81.1958  221.3148 H   0  0  0  0  0  0  0  0  0  0  0  0
  142.6264   80.3320  224.9244 H   0  0  0  0  0  0  0  0  0  0  0  0
  144.0223   80.2522  223.7966 H   0  0  0  0  0  0  0  0  0  0  0  0
  142.9487   81.6924  223.7966 H   0  0  0  0  0  0  0  0  0  0  0  0
  141.1930   78.6095  224.2964 H   0  0  0  0  0  0  0  0  0  0  0  0
  140.9903   76.2080  219.1925 H   0  0  0  0  0  0  0  0  0  0  0  0
  141.9237   76.8917  220.6174 H   0  0  0  0  0  0  0  0  0  0  0  0
  143.1729   76.3793  218.4795 H   0  0  0  0  0  0  0  0  0  0  0  0
  143.8010   75.7767  220.1021 H   0  0  0  0  0  0  0  0  0  0  0  0
  1  2  1  0
  2  3  1  0
  3  4  2  0
  3  5  1  0
  5  6  1  0
  6  7  2  0
  7  8  1  0
  8  9  2  0
  9 10  1  0
 10 11  2  0
  5 12  1  0
 12 13  1  0
 13 14  1  0
 14 15  1  0
 15 16  1  0
 16 17  2  0
 16 18  1  0
 18 19  1  0
 18 20  1  0
 20 21  1  0
 21 22  2  0
 22 23  1  0
 23 24  1  0
 23 25  2  0
 25 26  1  0
 26 27  1  0
 26 28  2  0
 15 29  1  0
 29 30  1  0
 11  6  1  0
 30 12  1  0
 28 21  1  0
  1 31  1  0
  1 32  1  0
  1 33  1  0
  2 34  1  0
  2 35  1  0
  7 36  1  0
  8 37  1  0
  9 38  1  0
 10 39  1  0
 11 40  1  0
 12 41  1  0
 13 42  1  0
 13 43  1  0
 14 44  1  0
 14 45  1  0
 18 46  1  6
 19 47  1  0
 19 48  1  0
 20 49  1  0
 20 50  1  0
 22 51  1  0
 24 52  1  0
 24 53  1  0
 24 54  1  0
 25 55  1  0
 27 56  1  0
 27 57  1  0
 27 58  1  0
 28 59  1  0
 29 60  1  0
 29 61  1  0
 30 62  1  0
 30 63  1  0
M  END
>  <smiles>  (50) 
CCC(=O)N(c1ccccc1)C1CCN(C(=O)[C@@H](N)Cc2cc(C)cc(C)c2)CC1

>  <score_type>  (50) 
oracle

>  <origin>  (50) 
autodockgpu

>  <m_score__min__energy>  (50) 
-8.5899999999999999

>  <m_primary>  (50) 
energy

>  <rmsd>  (50) 
5.875066248557917

>  <m_score__min__rmsd>  (50) 
5.875066248557917

>  <meeko>  (50) 
{"free_energy": -6.97, "intermolecular_energy": -9.36, "internal_energy": -2.37, "cluster_size": 3, "cluster_id": 3, "rank_in_cluster": 3}

>  <energy>  (50) 
-6.24

>  <cluster_rmsd>  (50) 
0.0

>  <cluster>  (50) 
7

$$$$
