
     RDKit          3D

 50 54  0  0  0  0  0  0  0  0999 V2000
  141.1530   68.1390  229.0220 C   0  0  0  0  0  0  0  0  0  0  0  0
  140.6970   68.4510  227.6590 C   0  0  0  0  0  0  0  0  0  0  0  0
  140.0160   67.4960  226.9210 C   0  0  0  0  0  0  0  0  0  0  0  0
  139.5890   67.7930  225.6400 C   0  0  0  0  0  0  0  0  0  0  0  0
  139.8490   69.0410  225.1130 C   0  0  0  0  0  0  0  0  0  0  0  0
  140.5210   70.0030  225.8230 C   0  0  0  0  0  0  0  0  0  0  0  0
  140.9400   69.6950  227.0950 C   0  0  0  0  0  0  0  0  0  0  0  0
  140.6120   71.2040  224.9390 C   0  0  0  0  0  0  0  0  0  0  0  0
  139.9120   70.7560  223.6940 C   0  0  0  0  0  0  0  0  0  0  0  0
  139.7520   71.6170  222.5260 C   0  0  0  0  0  0  0  0  0  0  0  0
  139.3610   71.1460  221.2920 C   0  0  0  0  0  0  0  0  0  0  0  0
  139.2300   72.0130  220.2310 C   0  0  0  0  0  0  0  0  0  0  0  0
  139.4830   73.3610  220.3670 C   0  0  0  0  0  0  0  0  0  0  0  0
  139.8760   73.8570  221.5940 C   0  0  0  0  0  0  0  0  0  0  0  0
  140.1360   75.2860  221.7050 C   0  0  0  0  0  0  0  0  0  0  0  0
  140.9100   75.8100  220.8640 O   0  0  0  0  0  0  0  0  0  0  0  0
  139.5570   76.1060  222.7130 N   0  0  0  0  0  0  0  0  0  0  0  0
  139.9100   77.4890  222.6900 C   0  0  0  0  0  0  0  0  0  0  0  0
  138.9470   78.3870  222.2580 C   0  0  0  0  0  0  0  0  0  0  0  0
  139.2220   79.7420  222.2110 C   0  0  0  0  0  0  0  0  0  0  0  0
  140.4780   80.1780  222.6050 C   0  0  0  0  0  0  0  0  0  0  0  0
  141.4230   79.2680  223.0320 C   0  0  0  0  0  0  0  0  0  0  0  0
  141.1600   77.9160  223.0830 C   0  0  0  0  0  0  0  0  0  0  0  0
  142.6830   80.0090  223.3950 C   0  0  0  0  0  0  0  0  0  0  0  0
  142.1850   81.4270  223.5790 C   0  0  0  0  0  0  0  0  0  0  0  0
  141.0020   81.5560  222.6430 C   0  0  0  0  0  0  0  0  0  0  0  0
  140.0030   72.9770  222.6470 C   0  0  0  0  0  0  0  0  0  0  0  0
  139.4990   69.5410  223.8270 N   0  0  0  0  0  0  0  0  0  0  0  0
  140.4735   68.6040  229.7514 H   0  0  0  0  0  0  0  0  0  0  0  0
  141.1561   67.0486  229.1670 H   0  0  0  0  0  0  0  0  0  0  0  0
  142.1705   68.5311  229.1670 H   0  0  0  0  0  0  0  0  0  0  0  0
  139.8157   66.5045  227.3532 H   0  0  0  0  0  0  0  0  0  0  0  0
  139.0473   67.0415  225.0469 H   0  0  0  0  0  0  0  0  0  0  0  0
  141.4811   70.4531  227.6801 H   0  0  0  0  0  0  0  0  0  0  0  0
  140.1021   72.0676  225.3908 H   0  0  0  0  0  0  0  0  0  0  0  0
  141.6457   71.5354  224.7611 H   0  0  0  0  0  0  0  0  0  0  0  0
  139.1530   70.0747  221.1542 H   0  0  0  0  0  0  0  0  0  0  0  0
  138.9162   71.6211  219.2522 H   0  0  0  0  0  0  0  0  0  0  0  0
  139.3727   74.0358  219.5053 H   0  0  0  0  0  0  0  0  0  0  0  0
  138.9130   75.6890  223.4190 H   0  0  0  0  0  0  0  0  0  0  0  0
  137.9568   78.0198  221.9502 H   0  0  0  0  0  0  0  0  0  0  0  0
  138.4606   80.4582  221.8684 H   0  0  0  0  0  0  0  0  0  0  0  0
  141.9227   77.2014  223.4260 H   0  0  0  0  0  0  0  0  0  0  0  0
  143.1211   79.6173  224.3249 H   0  0  0  0  0  0  0  0  0  0  0  0
  143.4793   79.9172  222.6417 H   0  0  0  0  0  0  0  0  0  0  0  0
  141.8731   81.5943  224.6205 H   0  0  0  0  0  0  0  0  0  0  0  0
  142.9664   82.1693  223.3592 H   0  0  0  0  0  0  0  0  0  0  0  0
  140.2531   82.2559  223.0420 H   0  0  0  0  0  0  0  0  0  0  0  0
  141.2663   81.9537  221.6521 H   0  0  0  0  0  0  0  0  0  0  0  0
  140.3168   73.3692  223.6256 H   0  0  0  0  0  0  0  0  0  0  0  0
  1  2  1  0
  2  3  2  0
  3  4  1  0
  4  5  2  0
  5  6  1  0
  6  7  2  0
  6  8  1  0
  8  9  1  0
  9 10  1  0
 10 11  2  0
 11 12  1  0
 12 13  2  0
 13 14  1  0
 14 15  1  0
 15 16  2  0
 15 17  1  0
 17 18  1  0
 18 19  2  0
 19 20  1  0
 20 21  2  0
 21 22  1  0
 22 23  2  0
 22 24  1  0
 24 25  1  0
 25 26  1  0
 14 27  2  0
  9 28  2  0
  7  2  1  0
 27 10  1  0
 28  5  1  0
 23 18  1  0
 26 21  1  0
  1 29  1  0
  1 30  1  0
  1 31  1  0
  3 32  1  0
  4 33  1  0
  7 34  1  0
  8 35  1  0
  8 36  1  0
 11 37  1  0
 12 38  1  0
 13 39  1  0
 17 40  1  0
 19 41  1  0
 20 42  1  0
 23 43  1  0
 24 44  1  0
 24 45  1  0
 25 46  1  0
 25 47  1  0
 26 48  1  0
 26 49  1  0
 27 50  1  0
M  END
>  <smiles>  (1) 
Cc1ccc2c(c1)CC(c1cccc(C(=O)Nc3ccc4c(c3)CCC4)c1)=N2

>  <score_type>  (1) 
oracle

>  <origin>  (1) 
autodockgpu

>  <m_score__min__energy>  (1) 
-9.3399999999999999

>  <m_primary>  (1) 
energy

>  <rmsd>  (1) 
4.580278501468204

>  <m_score__min__rmsd>  (1) 
4.580278501468204

>  <meeko>  (1) 
{"free_energy": -9.3, "intermolecular_energy": -10.2, "internal_energy": -0.77, "cluster_size": 50, "cluster_id": 1, "rank_in_cluster": 38}

>  <energy>  (1) 
-9.34

>  <cluster_rmsd>  (1) 
0.0

>  <cluster>  (1) 
1

$$$$

     RDKit          3D

 50 54  0  0  0  0  0  0  0  0999 V2000
  141.0720   68.1460  228.9420 C   0  0  0  0  0  0  0  0  0  0  0  0
  140.6120   68.4820  227.5850 C   0  0  0  0  0  0  0  0  0  0  0  0
  139.8230   67.5880  226.8790 C   0  0  0  0  0  0  0  0  0  0  0  0
  139.3940   67.9080  225.6050 C   0  0  0  0  0  0  0  0  0  0  0  0
  139.7580   69.1180  225.0530 C   0  0  0  0  0  0  0  0  0  0  0  0
  140.5380   70.0200  225.7310 C   0  0  0  0  0  0  0  0  0  0  0  0
  140.9590   69.6890  226.9970 C   0  0  0  0  0  0  0  0  0  0  0  0
  140.7200   71.1950  224.8260 C   0  0  0  0  0  0  0  0  0  0  0  0
  139.9480   70.8020  223.6070 C   0  0  0  0  0  0  0  0  0  0  0  0
  139.8400   71.6590  222.4300 C   0  0  0  0  0  0  0  0  0  0  0  0
  139.5240   71.1810  221.1780 C   0  0  0  0  0  0  0  0  0  0  0  0
  139.4390   72.0450  220.1090 C   0  0  0  0  0  0  0  0  0  0  0  0
  139.6660   73.3970  220.2570 C   0  0  0  0  0  0  0  0  0  0  0  0
  139.9840   73.8990  221.5020 C   0  0  0  0  0  0  0  0  0  0  0  0
  140.2180   75.3320  221.6250 C   0  0  0  0  0  0  0  0  0  0  0  0
  140.8800   75.8990  220.7190 O   0  0  0  0  0  0  0  0  0  0  0  0
  139.7340   76.1090  222.7130 N   0  0  0  0  0  0  0  0  0  0  0  0
  140.0460   77.5010  222.6910 C   0  0  0  0  0  0  0  0  0  0  0  0
  139.0650   78.3690  222.2390 C   0  0  0  0  0  0  0  0  0  0  0  0
  139.3000   79.7310  222.1910 C   0  0  0  0  0  0  0  0  0  0  0  0
  140.5360   80.2060  222.6060 C   0  0  0  0  0  0  0  0  0  0  0  0
  141.5000   79.3250  223.0530 C   0  0  0  0  0  0  0  0  0  0  0  0
  141.2760   77.9670  223.1040 C   0  0  0  0  0  0  0  0  0  0  0  0
  142.7300   80.1050  223.4350 C   0  0  0  0  0  0  0  0  0  0  0  0
  142.1880   81.5080  223.6040 C   0  0  0  0  0  0  0  0  0  0  0  0
  141.0190   81.5990  222.6470 C   0  0  0  0  0  0  0  0  0  0  0  0
  140.0660   73.0220  222.5620 C   0  0  0  0  0  0  0  0  0  0  0  0
  139.4240   69.6330  223.7690 N   0  0  0  0  0  0  0  0  0  0  0  0
  140.4144   68.6263  229.6815 H   0  0  0  0  0  0  0  0  0  0  0  0
  141.0430   67.0550  229.0794 H   0  0  0  0  0  0  0  0  0  0  0  0
  142.1025   68.5056  229.0794 H   0  0  0  0  0  0  0  0  0  0  0  0
  139.5390   66.6264  227.3314 H   0  0  0  0  0  0  0  0  0  0  0  0
  138.7681   67.2042  225.0367 H   0  0  0  0  0  0  0  0  0  0  0  0
  141.5860   70.3984  227.5569 H   0  0  0  0  0  0  0  0  0  0  0  0
  140.3079   72.1095  225.2774 H   0  0  0  0  0  0  0  0  0  0  0  0
  141.7758   71.4220  224.6166 H   0  0  0  0  0  0  0  0  0  0  0  0
  139.3390   70.1066  221.0313 H   0  0  0  0  0  0  0  0  0  0  0  0
  139.1844   71.6479  219.1153 H   0  0  0  0  0  0  0  0  0  0  0  0
  139.5941   74.0697  219.3896 H   0  0  0  0  0  0  0  0  0  0  0  0
  139.1830   75.6550  223.4740 H   0  0  0  0  0  0  0  0  0  0  0  0
  138.0916   77.9716  221.9158 H   0  0  0  0  0  0  0  0  0  0  0  0
  138.5239   80.4228  221.8316 H   0  0  0  0  0  0  0  0  0  0  0  0
  142.0535   77.2765  223.4627 H   0  0  0  0  0  0  0  0  0  0  0  0
  143.1628   79.7301  224.3742 H   0  0  0  0  0  0  0  0  0  0  0  0
  143.5416   80.0342  222.6958 H   0  0  0  0  0  0  0  0  0  0  0  0
  141.8528   81.6701  224.6391 H   0  0  0  0  0  0  0  0  0  0  0  0
  142.9514   82.2719  223.3948 H   0  0  0  0  0  0  0  0  0  0  0  0
  140.2431   82.2784  223.0296 H   0  0  0  0  0  0  0  0  0  0  0  0
  141.2892   82.0004  221.6591 H   0  0  0  0  0  0  0  0  0  0  0  0
  140.3215   73.4194  223.5554 H   0  0  0  0  0  0  0  0  0  0  0  0
  1  2  1  0
  2  3  2  0
  3  4  1  0
  4  5  2  0
  5  6  1  0
  6  7  2  0
  6  8  1  0
  8  9  1  0
  9 10  1  0
 10 11  2  0
 11 12  1  0
 12 13  2  0
 13 14  1  0
 14 15  1  0
 15 16  2  0
 15 17  1  0
 17 18  1  0
 18 19  2  0
 19 20  1  0
 20 21  2  0
 21 22  1  0
 22 23  2  0
 22 24  1  0
 24 25  1  0
 25 26  1  0
 14 27  2  0
  9 28  2  0
  7  2  1  0
 27 10  1  0
 28  5  1  0
 23 18  1  0
 26 21  1  0
  1 29  1  0
  1 30  1  0
  1 31  1  0
  3 32  1  0
  4 33  1  0
  7 34  1  0
  8 35  1  0
  8 36  1  0
 11 37  1  0
 12 38  1  0
 13 39  1  0
 17 40  1  0
 19 41  1  0
 20 42  1  0
 23 43  1  0
 24 44  1  0
 24 45  1  0
 25 46  1  0
 25 47  1  0
 26 48  1  0
 26 49  1  0
 27 50  1  0
M  END
>  <smiles>  (2) 
Cc1ccc2c(c1)CC(c1cccc(C(=O)Nc3ccc4c(c3)CCC4)c1)=N2

>  <score_type>  (2) 
oracle

>  <origin>  (2) 
autodockgpu

>  <m_score__min__energy>  (2) 
-9.3399999999999999

>  <m_primary>  (2) 
energy

>  <rmsd>  (2) 
4.515172569944203

>  <m_score__min__rmsd>  (2) 
4.515172569944203

>  <meeko>  (2) 
{"free_energy": -9.33, "intermolecular_energy": -10.22, "internal_energy": -0.77, "cluster_size": 50, "cluster_id": 1, "rank_in_cluster": 3}

>  <energy>  (2) 
-9.33

>  <cluster_rmsd>  (2) 
0.02

>  <cluster>  (2) 
1

$$$$

     RDKit          3D

 50 54  0  0  0  0  0  0  0  0999 V2000
  141.0410   68.1510  228.9550 C   0  0  0  0  0  0  0  0  0  0  0  0
  140.5890   68.4840  227.5950 C   0  0  0  0  0  0  0  0  0  0  0  0
  139.8170   67.5810  226.8810 C   0  0  0  0  0  0  0  0  0  0  0  0
  139.3940   67.8970  225.6030 C   0  0  0  0  0  0  0  0  0  0  0  0
  139.7500   69.1110  225.0550 C   0  0  0  0  0  0  0  0  0  0  0  0
  140.5130   70.0220  225.7400 C   0  0  0  0  0  0  0  0  0  0  0  0
  140.9270   69.6950  227.0100 C   0  0  0  0  0  0  0  0  0  0  0  0
  140.6900   71.1990  224.8380 C   0  0  0  0  0  0  0  0  0  0  0  0
  139.9320   70.7970  223.6120 C   0  0  0  0  0  0  0  0  0  0  0  0
  139.8250   71.6540  222.4350 C   0  0  0  0  0  0  0  0  0  0  0  0
  139.5070   71.1760  221.1830 C   0  0  0  0  0  0  0  0  0  0  0  0
  139.4230   72.0400  220.1140 C   0  0  0  0  0  0  0  0  0  0  0  0
  139.6520   73.3910  220.2600 C   0  0  0  0  0  0  0  0  0  0  0  0
  139.9720   73.8930  221.5050 C   0  0  0  0  0  0  0  0  0  0  0  0
  140.2080   75.3260  221.6270 C   0  0  0  0  0  0  0  0  0  0  0  0
  140.8820   75.8890  220.7270 O   0  0  0  0  0  0  0  0  0  0  0  0
  139.7130   76.1070  222.7070 N   0  0  0  0  0  0  0  0  0  0  0  0
  140.0290   77.4990  222.6850 C   0  0  0  0  0  0  0  0  0  0  0  0
  139.0500   78.3700  222.2370 C   0  0  0  0  0  0  0  0  0  0  0  0
  139.2890   79.7320  222.1890 C   0  0  0  0  0  0  0  0  0  0  0  0
  140.5280   80.2020  222.6000 C   0  0  0  0  0  0  0  0  0  0  0  0
  141.4900   79.3180  223.0430 C   0  0  0  0  0  0  0  0  0  0  0  0
  141.2620   77.9600  223.0940 C   0  0  0  0  0  0  0  0  0  0  0  0
  142.7240   80.0940  223.4210 C   0  0  0  0  0  0  0  0  0  0  0  0
  142.1870   81.4980  223.5930 C   0  0  0  0  0  0  0  0  0  0  0  0
  141.0140   81.5940  222.6410 C   0  0  0  0  0  0  0  0  0  0  0  0
  140.0530   73.0170  222.5650 C   0  0  0  0  0  0  0  0  0  0  0  0
  139.4210   69.6230  223.7690 N   0  0  0  0  0  0  0  0  0  0  0  0
  140.3819   68.6366  229.6896 H   0  0  0  0  0  0  0  0  0  0  0  0
  141.0068   67.0606  229.0961 H   0  0  0  0  0  0  0  0  0  0  0  0
  142.0723   68.5068  229.0961 H   0  0  0  0  0  0  0  0  0  0  0  0
  139.5415   66.6153  227.3299 H   0  0  0  0  0  0  0  0  0  0  0  0
  138.7798   67.1871  225.0295 H   0  0  0  0  0  0  0  0  0  0  0  0
  141.5411   70.4114  227.5754 H   0  0  0  0  0  0  0  0  0  0  0  0
  140.2640   72.1088  225.2862 H   0  0  0  0  0  0  0  0  0  0  0  0
  141.7448   71.4383  224.6378 H   0  0  0  0  0  0  0  0  0  0  0  0
  139.3198   70.1020  221.0367 H   0  0  0  0  0  0  0  0  0  0  0  0
  139.1672   71.6426  219.1207 H   0  0  0  0  0  0  0  0  0  0  0  0
  139.5804   74.0631  219.3921 H   0  0  0  0  0  0  0  0  0  0  0  0
  139.1520   75.6570  223.4630 H   0  0  0  0  0  0  0  0  0  0  0  0
  138.0743   77.9758  221.9167 H   0  0  0  0  0  0  0  0  0  0  0  0
  138.5140   80.4267  221.8329 H   0  0  0  0  0  0  0  0  0  0  0  0
  142.0384   77.2666  223.4494 H   0  0  0  0  0  0  0  0  0  0  0  0
  143.1592   79.7171  224.3583 H   0  0  0  0  0  0  0  0  0  0  0  0
  143.5326   80.0213  222.6788 H   0  0  0  0  0  0  0  0  0  0  0  0
  141.8567   81.6603  224.6296 H   0  0  0  0  0  0  0  0  0  0  0  0
  142.9519   82.2595  223.3808 H   0  0  0  0  0  0  0  0  0  0  0  0
  140.2413   82.2745  223.0282 H   0  0  0  0  0  0  0  0  0  0  0  0
  141.2805   81.9969  221.6527 H   0  0  0  0  0  0  0  0  0  0  0  0
  140.3096   73.4150  223.5579 H   0  0  0  0  0  0  0  0  0  0  0  0
  1  2  1  0
  2  3  2  0
  3  4  1  0
  4  5  2  0
  5  6  1  0
  6  7  2  0
  6  8  1  0
  8  9  1  0
  9 10  1  0
 10 11  2  0
 11 12  1  0
 12 13  2  0
 13 14  1  0
 14 15  1  0
 15 16  2  0
 15 17  1  0
 17 18  1  0
 18 19  2  0
 19 20  1  0
 20 21  2  0
 21 22  1  0
 22 23  2  0
 22 24  1  0
 24 25  1  0
 25 26  1  0
 14 27  2  0
  9 28  2  0
  7  2  1  0
 27 10  1  0
 28  5  1  0
 23 18  1  0
 26 21  1  0
  1 29  1  0
  1 30  1  0
  1 31  1  0
  3 32  1  0
  4 33  1  0
  7 34  1  0
  8 35  1  0
  8 36  1  0
 11 37  1  0
 12 38  1  0
 13 39  1  0
 17 40  1  0
 19 41  1  0
 20 42  1  0
 23 43  1  0
 24 44  1  0
 24 45  1  0
 25 46  1  0
 25 47  1  0
 26 48  1  0
 26 49  1  0
 27 50  1  0
M  END
>  <smiles>  (3) 
Cc1ccc2c(c1)CC(c1cccc(C(=O)Nc3ccc4c(c3)CCC4)c1)=N2

>  <score_type>  (3) 
oracle

>  <origin>  (3) 
autodockgpu

>  <m_score__min__energy>  (3) 
-9.3399999999999999

>  <m_primary>  (3) 
energy

>  <rmsd>  (3) 
4.52009241467671

>  <m_score__min__rmsd>  (3) 
4.52009241467671

>  <meeko>  (3) 
{"free_energy": -9.32, "intermolecular_energy": -10.22, "internal_energy": -0.77, "cluster_size": 50, "cluster_id": 1, "rank_in_cluster": 6}

>  <energy>  (3) 
-9.33

>  <cluster_rmsd>  (3) 
0.03

>  <cluster>  (3) 
1

$$$$

     RDKit          3D

 50 54  0  0  0  0  0  0  0  0999 V2000
  141.1780   68.1290  228.9350 C   0  0  0  0  0  0  0  0  0  0  0  0
  140.7080   68.4470  227.5780 C   0  0  0  0  0  0  0  0  0  0  0  0
  139.9750   67.5130  226.8620 C   0  0  0  0  0  0  0  0  0  0  0  0
  139.5360   67.8160  225.5870 C   0  0  0  0  0  0  0  0  0  0  0  0
  139.8340   69.0480  225.0440 C   0  0  0  0  0  0  0  0  0  0  0  0
  140.5570   69.9890  225.7310 C   0  0  0  0  0  0  0  0  0  0  0  0
  140.9890   69.6750  226.9980 C   0  0  0  0  0  0  0  0  0  0  0  0
  140.6770   71.1770  224.8340 C   0  0  0  0  0  0  0  0  0  0  0  0
  139.9360   70.7470  223.6080 C   0  0  0  0  0  0  0  0  0  0  0  0
  139.7860   71.6040  222.4350 C   0  0  0  0  0  0  0  0  0  0  0  0
  139.4080   71.1280  221.2000 C   0  0  0  0  0  0  0  0  0  0  0  0
  139.2870   71.9910  220.1340 C   0  0  0  0  0  0  0  0  0  0  0  0
  139.5370   73.3400  220.2680 C   0  0  0  0  0  0  0  0  0  0  0  0
  139.9170   73.8400  221.4960 C   0  0  0  0  0  0  0  0  0  0  0  0
  140.1740   75.2700  221.6060 C   0  0  0  0  0  0  0  0  0  0  0  0
  140.8310   75.8210  220.6860 O   0  0  0  0  0  0  0  0  0  0  0  0
  139.7170   76.0620  222.6950 N   0  0  0  0  0  0  0  0  0  0  0  0
  140.0490   77.4500  222.6580 C   0  0  0  0  0  0  0  0  0  0  0  0
  139.1030   78.3200  222.1440 C   0  0  0  0  0  0  0  0  0  0  0  0
  139.3590   79.6780  222.0790 C   0  0  0  0  0  0  0  0  0  0  0  0
  140.5820   80.1450  222.5390 C   0  0  0  0  0  0  0  0  0  0  0  0
  141.5120   79.2610  223.0480 C   0  0  0  0  0  0  0  0  0  0  0  0
  141.2660   77.9070  223.1170 C   0  0  0  0  0  0  0  0  0  0  0  0
  142.7350   80.0320  223.4690 C   0  0  0  0  0  0  0  0  0  0  0  0
  142.2060   81.4450  223.5840 C   0  0  0  0  0  0  0  0  0  0  0  0
  141.0820   81.5320  222.5740 C   0  0  0  0  0  0  0  0  0  0  0  0
  140.0350   72.9640  222.5540 C   0  0  0  0  0  0  0  0  0  0  0  0
  139.4780   69.5500  223.7610 N   0  0  0  0  0  0  0  0  0  0  0  0
  140.5027   68.5859  229.6734 H   0  0  0  0  0  0  0  0  0  0  0  0
  141.1881   67.0378  229.0732 H   0  0  0  0  0  0  0  0  0  0  0  0
  142.1947   68.5255  229.0732 H   0  0  0  0  0  0  0  0  0  0  0  0
  139.7436   66.5341  227.3072 H   0  0  0  0  0  0  0  0  0  0  0  0
  138.9544   67.0813  225.0108 H   0  0  0  0  0  0  0  0  0  0  0  0
  141.5716   70.4157  227.5653 H   0  0  0  0  0  0  0  0  0  0  0  0
  140.2105   72.0639  225.2876 H   0  0  0  0  0  0  0  0  0  0  0  0
  141.7192   71.4654  224.6326 H   0  0  0  0  0  0  0  0  0  0  0  0
  139.2022   70.0560  221.0644 H   0  0  0  0  0  0  0  0  0  0  0  0
  138.9840   71.5951  219.1534 H   0  0  0  0  0  0  0  0  0  0  0  0
  139.4343   74.0119  219.4031 H   0  0  0  0  0  0  0  0  0  0  0  0
  139.1700   75.6230  223.4670 H   0  0  0  0  0  0  0  0  0  0  0  0
  138.1400   77.9285  221.7843 H   0  0  0  0  0  0  0  0  0  0  0  0
  138.6094   80.3724  221.6716 H   0  0  0  0  0  0  0  0  0  0  0  0
  142.0161   77.2135  223.5249 H   0  0  0  0  0  0  0  0  0  0  0  0
  143.1197   79.6715  224.4344 H   0  0  0  0  0  0  0  0  0  0  0  0
  143.5781   79.9344  222.7692 H   0  0  0  0  0  0  0  0  0  0  0  0
  141.8274   81.6336  224.5994 H   0  0  0  0  0  0  0  0  0  0  0  0
  142.9889   82.1937  223.3930 H   0  0  0  0  0  0  0  0  0  0  0  0
  140.2994   82.2291  222.9081 H   0  0  0  0  0  0  0  0  0  0  0  0
  141.4013   81.9098  221.5915 H   0  0  0  0  0  0  0  0  0  0  0  0
  140.3395   73.3599  223.5341 H   0  0  0  0  0  0  0  0  0  0  0  0
  1  2  1  0
  2  3  2  0
  3  4  1  0
  4  5  2  0
  5  6  1  0
  6  7  2  0
  6  8  1  0
  8  9  1  0
  9 10  1  0
 10 11  2  0
 11 12  1  0
 12 13  2  0
 13 14  1  0
 14 15  1  0
 15 16  2  0
 15 17  1  0
 17 18  1  0
 18 19  2  0
 19 20  1  0
 20 21  2  0
 21 22  1  0
 22 23  2  0
 22 24  1  0
 24 25  1  0
 25 26  1  0
 14 27  2  0
  9 28  2  0
  7  2  1  0
 27 10  1  0
 28  5  1  0
 23 18  1  0
 26 21  1  0
  1 29  1  0
  1 30  1  0
  1 31  1  0
  3 32  1  0
  4 33  1  0
  7 34  1  0
  8 35  1  0
  8 36  1  0
 11 37  1  0
 12 38  1  0
 13 39  1  0
 17 40  1  0
 19 41  1  0
 20 42  1  0
 23 43  1  0
 24 44  1  0
 24 45  1  0
 25 46  1  0
 25 47  1  0
 26 48  1  0
 26 49  1  0
 27 50  1  0
M  END
>  <smiles>  (4) 
Cc1ccc2c(c1)CC(c1cccc(C(=O)Nc3ccc4c(c3)CCC4)c1)=N2

>  <score_type>  (4) 
oracle

>  <origin>  (4) 
autodockgpu

>  <m_score__min__energy>  (4) 
-9.3399999999999999

>  <m_primary>  (4) 
energy

>  <rmsd>  (4) 
4.539631993162282

>  <m_score__min__rmsd>  (4) 
4.539631993162282

>  <meeko>  (4) 
{"free_energy": -9.31, "intermolecular_energy": -10.21, "internal_energy": -0.77, "cluster_size": 50, "cluster_id": 1, "rank_in_cluster": 27}

>  <energy>  (4) 
-9.32

>  <cluster_rmsd>  (4) 
0.04

>  <cluster>  (4) 
1

$$$$

     RDKit          3D

 50 54  0  0  0  0  0  0  0  0999 V2000
  141.0890   68.1190  228.9750 C   0  0  0  0  0  0  0  0  0  0  0  0
  140.6480   68.4400  227.6090 C   0  0  0  0  0  0  0  0  0  0  0  0
  139.9360   67.5050  226.8740 C   0  0  0  0  0  0  0  0  0  0  0  0
  139.5220   67.8100  225.5900 C   0  0  0  0  0  0  0  0  0  0  0  0
  139.8260   69.0450  225.0580 C   0  0  0  0  0  0  0  0  0  0  0  0
  140.5300   69.9870  225.7640 C   0  0  0  0  0  0  0  0  0  0  0  0
  140.9350   69.6710  227.0400 C   0  0  0  0  0  0  0  0  0  0  0  0
  140.6640   71.1800  224.8740 C   0  0  0  0  0  0  0  0  0  0  0  0
  139.9510   70.7500  223.6310 C   0  0  0  0  0  0  0  0  0  0  0  0
  139.8240   71.6100  222.4580 C   0  0  0  0  0  0  0  0  0  0  0  0
  139.4930   71.1350  221.2090 C   0  0  0  0  0  0  0  0  0  0  0  0
  139.3900   72.0010  220.1440 C   0  0  0  0  0  0  0  0  0  0  0  0
  139.6110   73.3540  220.2920 C   0  0  0  0  0  0  0  0  0  0  0  0
  139.9430   73.8540  221.5340 C   0  0  0  0  0  0  0  0  0  0  0  0
  140.1710   75.2870  221.6580 C   0  0  0  0  0  0  0  0  0  0  0  0
  140.8620   75.8510  220.7720 O   0  0  0  0  0  0  0  0  0  0  0  0
  139.6500   76.0690  222.7260 N   0  0  0  0  0  0  0  0  0  0  0  0
  139.9600   77.4620  222.7080 C   0  0  0  0  0  0  0  0  0  0  0  0
  138.9330   78.3420  222.4110 C   0  0  0  0  0  0  0  0  0  0  0  0
  139.1640   79.7060  222.3760 C   0  0  0  0  0  0  0  0  0  0  0  0
  140.4450   80.1680  222.6450 C   0  0  0  0  0  0  0  0  0  0  0  0
  141.4540   79.2750  222.9390 C   0  0  0  0  0  0  0  0  0  0  0  0
  141.2340   77.9150  222.9760 C   0  0  0  0  0  0  0  0  0  0  0  0
  142.7260   80.0430  223.1850 C   0  0  0  0  0  0  0  0  0  0  0  0
  142.2140   81.4400  223.4660 C   0  0  0  0  0  0  0  0  0  0  0  0
  140.9320   81.5600  222.6680 C   0  0  0  0  0  0  0  0  0  0  0  0
  140.0430   72.9740  222.5910 C   0  0  0  0  0  0  0  0  0  0  0  0
  139.4960   69.5510  223.7690 N   0  0  0  0  0  0  0  0  0  0  0  0
  140.4202   68.6058  229.7001 H   0  0  0  0  0  0  0  0  0  0  0  0
  141.0597   67.0294  229.1232 H   0  0  0  0  0  0  0  0  0  0  0  0
  142.1168   68.4817  229.1232 H   0  0  0  0  0  0  0  0  0  0  0  0
  139.7009   66.5231  227.3107 H   0  0  0  0  0  0  0  0  0  0  0  0
  138.9560   67.0747  224.9993 H   0  0  0  0  0  0  0  0  0  0  0  0
  141.5003   70.4131  227.6229 H   0  0  0  0  0  0  0  0  0  0  0  0
  140.1837   72.0631  225.3206 H   0  0  0  0  0  0  0  0  0  0  0  0
  141.7088   71.4747  224.6962 H   0  0  0  0  0  0  0  0  0  0  0  0
  139.3103   70.0603  221.0616 H   0  0  0  0  0  0  0  0  0  0  0  0
  139.1254   71.6048  219.1525 H   0  0  0  0  0  0  0  0  0  0  0  0
  139.5233   74.0285  219.4275 H   0  0  0  0  0  0  0  0  0  0  0  0
  139.0740   75.6180  223.4700 H   0  0  0  0  0  0  0  0  0  0  0  0
  137.9254   77.9537  222.2012 H   0  0  0  0  0  0  0  0  0  0  0  0
  138.3508   80.4083  222.1403 H   0  0  0  0  0  0  0  0  0  0  0  0
  142.0483   77.2140  223.2117 H   0  0  0  0  0  0  0  0  0  0  0  0
  143.2740   79.6389  224.0489 H   0  0  0  0  0  0  0  0  0  0  0  0
  143.4366   79.9960  222.3466 H   0  0  0  0  0  0  0  0  0  0  0  0
  142.0136   81.5688  224.5399 H   0  0  0  0  0  0  0  0  0  0  0  0
  142.9469   82.2110  223.1859 H   0  0  0  0  0  0  0  0  0  0  0  0
  140.2126   82.2256  223.1675 H   0  0  0  0  0  0  0  0  0  0  0  0
  141.0750   81.9933  221.6671 H   0  0  0  0  0  0  0  0  0  0  0  0
  140.3078   73.3703  223.5824 H   0  0  0  0  0  0  0  0  0  0  0  0
  1  2  1  0
  2  3  2  0
  3  4  1  0
  4  5  2  0
  5  6  1  0
  6  7  2  0
  6  8  1  0
  8  9  1  0
  9 10  1  0
 10 11  2  0
 11 12  1  0
 12 13  2  0
 13 14  1  0
 14 15  1  0
 15 16  2  0
 15 17  1  0
 17 18  1  0
 18 19  2  0
 19 20  1  0
 20 21  2  0
 21 22  1  0
 22 23  2  0
 22 24  1  0
 24 25  1  0
 25 26  1  0
 14 27  2  0
  9 28  2  0
  7  2  1  0
 27 10  1  0
 28  5  1  0
 23 18  1  0
 26 21  1  0
  1 29  1  0
  1 30  1  0
  1 31  1  0
  3 32  1  0
  4 33  1  0
  7 34  1  0
  8 35  1  0
  8 36  1  0
 11 37  1  0
 12 38  1  0
 13 39  1  0
 17 40  1  0
 19 41  1  0
 20 42  1  0
 23 43  1  0
 24 44  1  0
 24 45  1  0
 25 46  1  0
 25 47  1  0
 26 48  1  0
 26 49  1  0
 27 50  1  0
M  END
>  <smiles>  (5) 
Cc1ccc2c(c1)CC(c1cccc(C(=O)Nc3ccc4c(c3)CCC4)c1)=N2

>  <score_type>  (5) 
oracle

>  <origin>  (5) 
autodockgpu

>  <m_score__min__energy>  (5) 
-9.3399999999999999

>  <m_primary>  (5) 
energy

>  <rmsd>  (5) 
4.570114168184014

>  <m_score__min__rmsd>  (5) 
4.570114168184014

>  <meeko>  (5) 
{"free_energy": -9.31, "intermolecular_energy": -10.2, "internal_energy": -0.76, "cluster_size": 50, "cluster_id": 1, "rank_in_cluster": 34}

>  <energy>  (5) 
-9.32

>  <cluster_rmsd>  (5) 
0.04

>  <cluster>  (5) 
1

$$$$

     RDKit          3D

 50 54  0  0  0  0  0  0  0  0999 V2000
  141.1930   68.1190  228.9680 C   0  0  0  0  0  0  0  0  0  0  0  0
  140.7240   68.4400  227.6110 C   0  0  0  0  0  0  0  0  0  0  0  0
  140.0150   67.4980  226.8830 C   0  0  0  0  0  0  0  0  0  0  0  0
  139.5750   67.8030  225.6080 C   0  0  0  0  0  0  0  0  0  0  0  0
  139.8500   69.0460  225.0770 C   0  0  0  0  0  0  0  0  0  0  0  0
  140.5500   69.9950  225.7780 C   0  0  0  0  0  0  0  0  0  0  0  0
  140.9810   69.6790  227.0440 C   0  0  0  0  0  0  0  0  0  0  0  0
  140.6500   71.1940  224.8920 C   0  0  0  0  0  0  0  0  0  0  0  0
  139.9240   70.7600  223.6580 C   0  0  0  0  0  0  0  0  0  0  0  0
  139.7620   71.6240  222.4920 C   0  0  0  0  0  0  0  0  0  0  0  0
  139.3740   71.1560  221.2570 C   0  0  0  0  0  0  0  0  0  0  0  0
  139.2410   72.0260  220.1980 C   0  0  0  0  0  0  0  0  0  0  0  0
  139.4910   73.3740  220.3390 C   0  0  0  0  0  0  0  0  0  0  0  0
  139.8810   73.8670  221.5670 C   0  0  0  0  0  0  0  0  0  0  0  0
  140.1370   75.2960  221.6830 C   0  0  0  0  0  0  0  0  0  0  0  0
  140.8790   75.8320  220.8210 O   0  0  0  0  0  0  0  0  0  0  0  0
  139.5890   76.1040  222.7170 N   0  0  0  0  0  0  0  0  0  0  0  0
  139.9330   77.4890  222.6950 C   0  0  0  0  0  0  0  0  0  0  0  0
  138.9660   78.3810  222.2620 C   0  0  0  0  0  0  0  0  0  0  0  0
  139.2330   79.7380  222.2150 C   0  0  0  0  0  0  0  0  0  0  0  0
  140.4860   80.1820  222.6130 C   0  0  0  0  0  0  0  0  0  0  0  0
  141.4350   79.2770  223.0420 C   0  0  0  0  0  0  0  0  0  0  0  0
  141.1800   77.9230  223.0910 C   0  0  0  0  0  0  0  0  0  0  0  0
  142.6890   80.0260  223.4070 C   0  0  0  0  0  0  0  0  0  0  0  0
  142.1830   81.4400  223.5900 C   0  0  0  0  0  0  0  0  0  0  0  0
  141.0010   81.5630  222.6520 C   0  0  0  0  0  0  0  0  0  0  0  0
  140.0100   72.9840  222.6170 C   0  0  0  0  0  0  0  0  0  0  0  0
  139.4910   69.5520  223.7970 N   0  0  0  0  0  0  0  0  0  0  0  0
  140.5205   68.5793  229.7068 H   0  0  0  0  0  0  0  0  0  0  0  0
  141.1973   67.0277  229.1059 H   0  0  0  0  0  0  0  0  0  0  0  0
  142.2119   68.5100  229.1059 H   0  0  0  0  0  0  0  0  0  0  0  0
  139.8027   66.5103  227.3181 H   0  0  0  0  0  0  0  0  0  0  0  0
  139.0111   67.0616  225.0229 H   0  0  0  0  0  0  0  0  0  0  0  0
  141.5436   70.4272  227.6217 H   0  0  0  0  0  0  0  0  0  0  0  0
  140.1630   72.0669  225.3511 H   0  0  0  0  0  0  0  0  0  0  0  0
  141.6871   71.5056  224.6986 H   0  0  0  0  0  0  0  0  0  0  0  0
  139.1697   70.0844  221.1157 H   0  0  0  0  0  0  0  0  0  0  0  0
  138.9283   71.6366  219.2179 H   0  0  0  0  0  0  0  0  0  0  0  0
  139.3805   74.0513  219.4793 H   0  0  0  0  0  0  0  0  0  0  0  0
  138.9710   75.6770  223.4410 H   0  0  0  0  0  0  0  0  0  0  0  0
  137.9784   78.0080  221.9531 H   0  0  0  0  0  0  0  0  0  0  0  0
  138.4684   80.4494  221.8696 H   0  0  0  0  0  0  0  0  0  0  0  0
  141.9462   77.2125  223.4347 H   0  0  0  0  0  0  0  0  0  0  0  0
  143.1279   79.6371  224.3377 H   0  0  0  0  0  0  0  0  0  0  0  0
  143.4868   79.9392  222.6547 H   0  0  0  0  0  0  0  0  0  0  0  0
  141.8682   81.6054  224.6309 H   0  0  0  0  0  0  0  0  0  0  0  0
  142.9608   82.1865  223.3715 H   0  0  0  0  0  0  0  0  0  0  0  0
  140.2472   82.2582  223.0500 H   0  0  0  0  0  0  0  0  0  0  0  0
  141.2642   81.9631  221.6617 H   0  0  0  0  0  0  0  0  0  0  0  0
  140.3231   73.3738  223.5968 H   0  0  0  0  0  0  0  0  0  0  0  0
  1  2  1  0
  2  3  2  0
  3  4  1  0
  4  5  2  0
  5  6  1  0
  6  7  2  0
  6  8  1  0
  8  9  1  0
  9 10  1  0
 10 11  2  0
 11 12  1  0
 12 13  2  0
 13 14  1  0
 14 15  1  0
 15 16  2  0
 15 17  1  0
 17 18  1  0
 18 19  2  0
 19 20  1  0
 20 21  2  0
 21 22  1  0
 22 23  2  0
 22 24  1  0
 24 25  1  0
 25 26  1  0
 14 27  2  0
  9 28  2  0
  7  2  1  0
 27 10  1  0
 28  5  1  0
 23 18  1  0
 26 21  1  0
  1 29  1  0
  1 30  1  0
  1 31  1  0
  3 32  1  0
  4 33  1  0
  7 34  1  0
  8 35  1  0
  8 36  1  0
 11 37  1  0
 12 38  1  0
 13 39  1  0
 17 40  1  0
 19 41  1  0
 20 42  1  0
 23 43  1  0
 24 44  1  0
 24 45  1  0
 25 46  1  0
 25 47  1  0
 26 48  1  0
 26 49  1  0
 27 50  1  0
M  END
>  <smiles>  (6) 
Cc1ccc2c(c1)CC(c1cccc(C(=O)Nc3ccc4c(c3)CCC4)c1)=N2

>  <score_type>  (6) 
oracle

>  <origin>  (6) 
autodockgpu

>  <m_score__min__energy>  (6) 
-9.3399999999999999

>  <m_primary>  (6) 
energy

>  <rmsd>  (6) 
4.564832694831259

>  <m_score__min__rmsd>  (6) 
4.564832694831259

>  <meeko>  (6) 
{"free_energy": -9.31, "intermolecular_energy": -10.21, "internal_energy": -0.77, "cluster_size": 50, "cluster_id": 1, "rank_in_cluster": 30}

>  <energy>  (6) 
-9.32

>  <cluster_rmsd>  (6) 
0.03

>  <cluster>  (6) 
1

$$$$

     RDKit          3D

 50 54  0  0  0  0  0  0  0  0999 V2000
  141.1140   68.1540  228.9590 C   0  0  0  0  0  0  0  0  0  0  0  0
  140.6620   68.4780  227.5970 C   0  0  0  0  0  0  0  0  0  0  0  0
  139.9270   67.5540  226.8720 C   0  0  0  0  0  0  0  0  0  0  0  0
  139.5040   67.8620  225.5930 C   0  0  0  0  0  0  0  0  0  0  0  0
  139.8210   69.0910  225.0540 C   0  0  0  0  0  0  0  0  0  0  0  0
  140.5480   70.0240  225.7500 C   0  0  0  0  0  0  0  0  0  0  0  0
  140.9630   69.7040  227.0210 C   0  0  0  0  0  0  0  0  0  0  0  0
  140.6910   71.2110  224.8560 C   0  0  0  0  0  0  0  0  0  0  0  0
  139.9570   70.7910  223.6210 C   0  0  0  0  0  0  0  0  0  0  0  0
  139.8300   71.6500  222.4480 C   0  0  0  0  0  0  0  0  0  0  0  0
  139.4860   71.1760  221.2020 C   0  0  0  0  0  0  0  0  0  0  0  0
  139.3840   72.0410  220.1360 C   0  0  0  0  0  0  0  0  0  0  0  0
  139.6200   73.3920  220.2810 C   0  0  0  0  0  0  0  0  0  0  0  0
  139.9650   73.8910  221.5200 C   0  0  0  0  0  0  0  0  0  0  0  0
  140.2070   75.3220  221.6390 C   0  0  0  0  0  0  0  0  0  0  0  0
  140.9070   75.8760  220.7530 O   0  0  0  0  0  0  0  0  0  0  0  0
  139.6920   76.1130  222.7030 N   0  0  0  0  0  0  0  0  0  0  0  0
  140.0170   77.5020  222.6810 C   0  0  0  0  0  0  0  0  0  0  0  0
  139.0440   78.3800  222.2340 C   0  0  0  0  0  0  0  0  0  0  0  0
  139.2920   79.7400  222.1860 C   0  0  0  0  0  0  0  0  0  0  0  0
  140.5350   80.2020  222.5970 C   0  0  0  0  0  0  0  0  0  0  0  0
  141.4910   79.3110  223.0400 C   0  0  0  0  0  0  0  0  0  0  0  0
  141.2530   77.9550  223.0910 C   0  0  0  0  0  0  0  0  0  0  0  0
  142.7310   80.0780  223.4180 C   0  0  0  0  0  0  0  0  0  0  0  0
  142.2030   81.4860  223.5900 C   0  0  0  0  0  0  0  0  0  0  0  0
  141.0310   81.5900  222.6380 C   0  0  0  0  0  0  0  0  0  0  0  0
  140.0640   73.0120  222.5770 C   0  0  0  0  0  0  0  0  0  0  0  0
  139.4850   69.5990  223.7680 N   0  0  0  0  0  0  0  0  0  0  0  0
  140.4463   68.6326  229.6905 H   0  0  0  0  0  0  0  0  0  0  0  0
  141.0936   67.0636  229.1024 H   0  0  0  0  0  0  0  0  0  0  0  0
  142.1401   68.5235  229.1024 H   0  0  0  0  0  0  0  0  0  0  0  0
  139.6807   66.5771  227.3136 H   0  0  0  0  0  0  0  0  0  0  0  0
  138.9202   67.1340  225.0106 H   0  0  0  0  0  0  0  0  0  0  0  0
  141.5478   70.4376  227.5952 H   0  0  0  0  0  0  0  0  0  0  0  0
  140.2304   72.1029  225.3059 H   0  0  0  0  0  0  0  0  0  0  0  0
  141.7386   71.4872  224.6655 H   0  0  0  0  0  0  0  0  0  0  0  0
  139.2921   70.1029  221.0579 H   0  0  0  0  0  0  0  0  0  0  0  0
  139.1083   71.6460  219.1471 H   0  0  0  0  0  0  0  0  0  0  0  0
  139.5339   74.0660  219.4160 H   0  0  0  0  0  0  0  0  0  0  0  0
  139.1100   75.6710  223.4480 H   0  0  0  0  0  0  0  0  0  0  0  0
  138.0654   77.9926  221.9143 H   0  0  0  0  0  0  0  0  0  0  0  0
  138.5216   80.4398  221.8301 H   0  0  0  0  0  0  0  0  0  0  0  0
  142.0242   77.2562  223.4473 H   0  0  0  0  0  0  0  0  0  0  0  0
  143.1636   79.6980  224.3553 H   0  0  0  0  0  0  0  0  0  0  0  0
  143.5394   79.9995  222.6761 H   0  0  0  0  0  0  0  0  0  0  0  0
  141.8736   81.6504  224.6266 H   0  0  0  0  0  0  0  0  0  0  0  0
  142.9730   82.2424  223.3779 H   0  0  0  0  0  0  0  0  0  0  0  0
  140.2632   82.2761  223.0250 H   0  0  0  0  0  0  0  0  0  0  0  0
  141.3007   81.9906  221.6497 H   0  0  0  0  0  0  0  0  0  0  0  0
  140.3404   73.4070  223.5657 H   0  0  0  0  0  0  0  0  0  0  0  0
  1  2  1  0
  2  3  2  0
  3  4  1  0
  4  5  2  0
  5  6  1  0
  6  7  2  0
  6  8  1  0
  8  9  1  0
  9 10  1  0
 10 11  2  0
 11 12  1  0
 12 13  2  0
 13 14  1  0
 14 15  1  0
 15 16  2  0
 15 17  1  0
 17 18  1  0
 18 19  2  0
 19 20  1  0
 20 21  2  0
 21 22  1  0
 22 23  2  0
 22 24  1  0
 24 25  1  0
 25 26  1  0
 14 27  2  0
  9 28  2  0
  7  2  1  0
 27 10  1  0
 28  5  1  0
 23 18  1  0
 26 21  1  0
  1 29  1  0
  1 30  1  0
  1 31  1  0
  3 32  1  0
  4 33  1  0
  7 34  1  0
  8 35  1  0
  8 36  1  0
 11 37  1  0
 12 38  1  0
 13 39  1  0
 17 40  1  0
 19 41  1  0
 20 42  1  0
 23 43  1  0
 24 44  1  0
 24 45  1  0
 25 46  1  0
 25 47  1  0
 26 48  1  0
 26 49  1  0
 27 50  1  0
M  END
>  <smiles>  (7) 
Cc1ccc2c(c1)CC(c1cccc(C(=O)Nc3ccc4c(c3)CCC4)c1)=N2

>  <score_type>  (7) 
oracle

>  <origin>  (7) 
autodockgpu

>  <m_score__min__energy>  (7) 
-9.3399999999999999

>  <m_primary>  (7) 
energy

>  <rmsd>  (7) 
4.527703811796358

>  <m_score__min__rmsd>  (7) 
4.527703811796358

>  <meeko>  (7) 
{"free_energy": -9.32, "intermolecular_energy": -10.22, "internal_energy": -0.77, "cluster_size": 50, "cluster_id": 1, "rank_in_cluster": 4}

>  <energy>  (7) 
-9.32

>  <cluster_rmsd>  (7) 
0.03

>  <cluster>  (7) 
1

$$$$

     RDKit          3D

 50 54  0  0  0  0  0  0  0  0999 V2000
  141.1000   68.1730  228.9780 C   0  0  0  0  0  0  0  0  0  0  0  0
  140.6480   68.4950  227.6160 C   0  0  0  0  0  0  0  0  0  0  0  0
  139.8920   67.5790  226.9020 C   0  0  0  0  0  0  0  0  0  0  0  0
  139.4700   67.8850  225.6220 C   0  0  0  0  0  0  0  0  0  0  0  0
  139.8080   69.1030  225.0720 C   0  0  0  0  0  0  0  0  0  0  0  0
  140.5550   70.0270  225.7570 C   0  0  0  0  0  0  0  0  0  0  0  0
  140.9690   69.7100  227.0290 C   0  0  0  0  0  0  0  0  0  0  0  0
  140.7170   71.2050  224.8530 C   0  0  0  0  0  0  0  0  0  0  0  0
  139.9700   70.7890  223.6250 C   0  0  0  0  0  0  0  0  0  0  0  0
  139.8540   71.6400  222.4450 C   0  0  0  0  0  0  0  0  0  0  0  0
  139.5290   71.1570  221.1970 C   0  0  0  0  0  0  0  0  0  0  0  0
  139.4370   72.0170  220.1250 C   0  0  0  0  0  0  0  0  0  0  0  0
  139.6640   73.3690  220.2650 C   0  0  0  0  0  0  0  0  0  0  0  0
  139.9900   73.8770  221.5050 C   0  0  0  0  0  0  0  0  0  0  0  0
  140.2240   75.3100  221.6210 C   0  0  0  0  0  0  0  0  0  0  0  0
  140.8790   75.8730  220.7080 O   0  0  0  0  0  0  0  0  0  0  0  0
  139.7470   76.0910  222.7080 N   0  0  0  0  0  0  0  0  0  0  0  0
  140.0580   77.4840  222.6780 C   0  0  0  0  0  0  0  0  0  0  0  0
  139.0800   78.3480  222.2150 C   0  0  0  0  0  0  0  0  0  0  0  0
  139.3140   79.7100  222.1590 C   0  0  0  0  0  0  0  0  0  0  0  0
  140.5480   80.1890  222.5760 C   0  0  0  0  0  0  0  0  0  0  0  0
  141.5090   79.3120  223.0340 C   0  0  0  0  0  0  0  0  0  0  0  0
  141.2860   77.9530  223.0940 C   0  0  0  0  0  0  0  0  0  0  0  0
  142.7380   80.0950  223.4170 C   0  0  0  0  0  0  0  0  0  0  0  0
  142.1940   81.4980  223.5730 C   0  0  0  0  0  0  0  0  0  0  0  0
  141.0290   81.5820  222.6100 C   0  0  0  0  0  0  0  0  0  0  0  0
  140.0800   73.0040  222.5690 C   0  0  0  0  0  0  0  0  0  0  0  0
  139.4760   69.6070  223.7830 N   0  0  0  0  0  0  0  0  0  0  0  0
  140.4305   68.6500  229.7089 H   0  0  0  0  0  0  0  0  0  0  0  0
  141.0827   67.0826  229.1219 H   0  0  0  0  0  0  0  0  0  0  0  0
  142.1249   68.5456  229.1219 H   0  0  0  0  0  0  0  0  0  0  0  0
  139.6285   66.6109  227.3528 H   0  0  0  0  0  0  0  0  0  0  0  0
  138.8702   67.1636  225.0477 H   0  0  0  0  0  0  0  0  0  0  0  0
  141.5693   70.4375  227.5950 H   0  0  0  0  0  0  0  0  0  0  0  0
  140.2753   72.1089  225.2978 H   0  0  0  0  0  0  0  0  0  0  0  0
  141.7687   71.4602  224.6562 H   0  0  0  0  0  0  0  0  0  0  0  0
  139.3425   70.0821  221.0559 H   0  0  0  0  0  0  0  0  0  0  0  0
  139.1764   71.6155  219.1346 H   0  0  0  0  0  0  0  0  0  0  0  0
  139.5858   74.0375  219.3949 H   0  0  0  0  0  0  0  0  0  0  0  0
  139.2010   75.6410  223.4750 H   0  0  0  0  0  0  0  0  0  0  0  0
  138.1087   77.9477  221.8889 H   0  0  0  0  0  0  0  0  0  0  0  0
  138.5388   80.3987  221.7919 H   0  0  0  0  0  0  0  0  0  0  0  0
  142.0620   77.2655  223.4616 H   0  0  0  0  0  0  0  0  0  0  0  0
  143.1661   79.7270  224.3611 H   0  0  0  0  0  0  0  0  0  0  0  0
  143.5538   80.0191  222.6831 H   0  0  0  0  0  0  0  0  0  0  0  0
  141.8539   81.6672  224.6053 H   0  0  0  0  0  0  0  0  0  0  0  0
  142.9578   82.2607  223.3614 H   0  0  0  0  0  0  0  0  0  0  0  0
  140.2508   82.2631  222.9848 H   0  0  0  0  0  0  0  0  0  0  0  0
  141.3030   81.9775  221.6208 H   0  0  0  0  0  0  0  0  0  0  0  0
  140.3422   73.4060  223.5587 H   0  0  0  0  0  0  0  0  0  0  0  0
  1  2  1  0
  2  3  2  0
  3  4  1  0
  4  5  2  0
  5  6  1  0
  6  7  2  0
  6  8  1  0
  8  9  1  0
  9 10  1  0
 10 11  2  0
 11 12  1  0
 12 13  2  0
 13 14  1  0
 14 15  1  0
 15 16  2  0
 15 17  1  0
 17 18  1  0
 18 19  2  0
 19 20  1  0
 20 21  2  0
 21 22  1  0
 22 23  2  0
 22 24  1  0
 24 25  1  0
 25 26  1  0
 14 27  2  0
  9 28  2  0
  7  2  1  0
 27 10  1  0
 28  5  1  0
 23 18  1  0
 26 21  1  0
  1 29  1  0
  1 30  1  0
  1 31  1  0
  3 32  1  0
  4 33  1  0
  7 34  1  0
  8 35  1  0
  8 36  1  0
 11 37  1  0
 12 38  1  0
 13 39  1  0
 17 40  1  0
 19 41  1  0
 20 42  1  0
 23 43  1  0
 24 44  1  0
 24 45  1  0
 25 46  1  0
 25 47  1  0
 26 48  1  0
 26 49  1  0
 27 50  1  0
M  END
>  <smiles>  (8) 
Cc1ccc2c(c1)CC(c1cccc(C(=O)Nc3ccc4c(c3)CCC4)c1)=N2

>  <score_type>  (8) 
oracle

>  <origin>  (8) 
autodockgpu

>  <m_score__min__energy>  (8) 
-9.3399999999999999

>  <m_primary>  (8) 
energy

>  <rmsd>  (8) 
4.523464025245247

>  <m_score__min__rmsd>  (8) 
4.523464025245247

>  <meeko>  (8) 
{"free_energy": -9.32, "intermolecular_energy": -10.21, "internal_energy": -0.77, "cluster_size": 50, "cluster_id": 1, "rank_in_cluster": 23}

>  <energy>  (8) 
-9.32

>  <cluster_rmsd>  (8) 
0.02

>  <cluster>  (8) 
1

$$$$

     RDKit          3D

 50 54  0  0  0  0  0  0  0  0999 V2000
  141.1180   68.1440  228.9730 C   0  0  0  0  0  0  0  0  0  0  0  0
  140.6630   68.4720  227.6120 C   0  0  0  0  0  0  0  0  0  0  0  0
  139.9000   67.5610  226.8990 C   0  0  0  0  0  0  0  0  0  0  0  0
  139.4750   67.8720  225.6210 C   0  0  0  0  0  0  0  0  0  0  0  0
  139.8180   69.0900  225.0720 C   0  0  0  0  0  0  0  0  0  0  0  0
  140.5720   70.0080  225.7580 C   0  0  0  0  0  0  0  0  0  0  0  0
  140.9890   69.6860  227.0280 C   0  0  0  0  0  0  0  0  0  0  0  0
  140.7370   71.1870  224.8550 C   0  0  0  0  0  0  0  0  0  0  0  0
  139.9840   70.7770  223.6290 C   0  0  0  0  0  0  0  0  0  0  0  0
  139.8690   71.6320  222.4510 C   0  0  0  0  0  0  0  0  0  0  0  0
  139.5480   71.1520  221.2010 C   0  0  0  0  0  0  0  0  0  0  0  0
  139.4560   72.0140  220.1310 C   0  0  0  0  0  0  0  0  0  0  0  0
  139.6800   73.3670  220.2760 C   0  0  0  0  0  0  0  0  0  0  0  0
  140.0020   73.8720  221.5190 C   0  0  0  0  0  0  0  0  0  0  0  0
  140.2320   75.3050  221.6380 C   0  0  0  0  0  0  0  0  0  0  0  0
  140.9250   75.8650  220.7520 O   0  0  0  0  0  0  0  0  0  0  0  0
  139.7110   76.0910  222.7030 N   0  0  0  0  0  0  0  0  0  0  0  0
  140.0240   77.4830  222.6810 C   0  0  0  0  0  0  0  0  0  0  0  0
  139.0350   78.3540  222.2540 C   0  0  0  0  0  0  0  0  0  0  0  0
  139.2710   79.7170  222.2080 C   0  0  0  0  0  0  0  0  0  0  0  0
  140.5160   80.1880  222.5980 C   0  0  0  0  0  0  0  0  0  0  0  0
  141.4880   79.3040  223.0200 C   0  0  0  0  0  0  0  0  0  0  0  0
  141.2630   77.9450  223.0690 C   0  0  0  0  0  0  0  0  0  0  0  0
  142.7280   80.0800  223.3790 C   0  0  0  0  0  0  0  0  0  0  0  0
  142.1910   81.4820  223.5660 C   0  0  0  0  0  0  0  0  0  0  0  0
  141.0010   81.5800  222.6360 C   0  0  0  0  0  0  0  0  0  0  0  0
  140.0910   72.9960  222.5800 C   0  0  0  0  0  0  0  0  0  0  0  0
  139.4840   69.5980  223.7860 N   0  0  0  0  0  0  0  0  0  0  0  0
  140.4535   68.6230  229.7072 H   0  0  0  0  0  0  0  0  0  0  0  0
  141.0950   67.0534  229.1144 H   0  0  0  0  0  0  0  0  0  0  0  0
  142.1455   68.5105  229.1144 H   0  0  0  0  0  0  0  0  0  0  0  0
  139.6333   66.5932  227.3488 H   0  0  0  0  0  0  0  0  0  0  0  0
  138.8692   67.1551  225.0474 H   0  0  0  0  0  0  0  0  0  0  0  0
  141.5954   70.4086  227.5937 H   0  0  0  0  0  0  0  0  0  0  0  0
  140.3013   72.0924  225.3027 H   0  0  0  0  0  0  0  0  0  0  0  0
  141.7894   71.4371  224.6551 H   0  0  0  0  0  0  0  0  0  0  0  0
  139.3646   70.0770  221.0567 H   0  0  0  0  0  0  0  0  0  0  0  0
  139.1982   71.6146  219.1390 H   0  0  0  0  0  0  0  0  0  0  0  0
  139.6026   74.0381  219.4079 H   0  0  0  0  0  0  0  0  0  0  0  0
  139.1330   75.6440  223.4480 H   0  0  0  0  0  0  0  0  0  0  0  0
  138.0546   77.9593  221.9491 H   0  0  0  0  0  0  0  0  0  0  0  0
  138.4882   80.4117  221.8695 H   0  0  0  0  0  0  0  0  0  0  0  0
  142.0472   77.2516  223.4069 H   0  0  0  0  0  0  0  0  0  0  0  0
  143.1805   79.7001  224.3069 H   0  0  0  0  0  0  0  0  0  0  0  0
  143.5238   80.0114  222.6227 H   0  0  0  0  0  0  0  0  0  0  0  0
  141.8791   81.6394  224.6090 H   0  0  0  0  0  0  0  0  0  0  0  0
  142.9505   82.2457  223.3427 H   0  0  0  0  0  0  0  0  0  0  0  0
  140.2346   82.2579  223.0399 H   0  0  0  0  0  0  0  0  0  0  0  0
  141.2492   81.9870  221.6447 H   0  0  0  0  0  0  0  0  0  0  0  0
  140.3492   73.3955  223.5718 H   0  0  0  0  0  0  0  0  0  0  0  0
  1  2  1  0
  2  3  2  0
  3  4  1  0
  4  5  2  0
  5  6  1  0
  6  7  2  0
  6  8  1  0
  8  9  1  0
  9 10  1  0
 10 11  2  0
 11 12  1  0
 12 13  2  0
 13 14  1  0
 14 15  1  0
 15 16  2  0
 15 17  1  0
 17 18  1  0
 18 19  2  0
 19 20  1  0
 20 21  2  0
 21 22  1  0
 22 23  2  0
 22 24  1  0
 24 25  1  0
 25 26  1  0
 14 27  2  0
  9 28  2  0
  7  2  1  0
 27 10  1  0
 28  5  1  0
 23 18  1  0
 26 21  1  0
  1 29  1  0
  1 30  1  0
  1 31  1  0
  3 32  1  0
  4 33  1  0
  7 34  1  0
  8 35  1  0
  8 36  1  0
 11 37  1  0
 12 38  1  0
 13 39  1  0
 17 40  1  0
 19 41  1  0
 20 42  1  0
 23 43  1  0
 24 44  1  0
 24 45  1  0
 25 46  1  0
 25 47  1  0
 26 48  1  0
 26 49  1  0
 27 50  1  0
M  END
>  <smiles>  (9) 
Cc1ccc2c(c1)CC(c1cccc(C(=O)Nc3ccc4c(c3)CCC4)c1)=N2

>  <score_type>  (9) 
oracle

>  <origin>  (9) 
autodockgpu

>  <m_score__min__energy>  (9) 
-9.3399999999999999

>  <m_primary>  (9) 
energy

>  <rmsd>  (9) 
4.5359878203777395

>  <m_score__min__rmsd>  (9) 
4.5359878203777395

>  <meeko>  (9) 
{"free_energy": -9.32, "intermolecular_energy": -10.21, "internal_energy": -0.77, "cluster_size": 50, "cluster_id": 1, "rank_in_cluster": 20}

>  <energy>  (9) 
-9.32

>  <cluster_rmsd>  (9) 
0.04

>  <cluster>  (9) 
1

$$$$

     RDKit          3D

 50 54  0  0  0  0  0  0  0  0999 V2000
  141.1680   68.1390  228.9540 C   0  0  0  0  0  0  0  0  0  0  0  0
  140.6870   68.4590  227.6010 C   0  0  0  0  0  0  0  0  0  0  0  0
  139.9690   67.5180  226.8800 C   0  0  0  0  0  0  0  0  0  0  0  0
  139.5190   67.8220  225.6090 C   0  0  0  0  0  0  0  0  0  0  0  0
  139.7930   69.0640  225.0750 C   0  0  0  0  0  0  0  0  0  0  0  0
  140.5010   70.0130  225.7680 C   0  0  0  0  0  0  0  0  0  0  0  0
  140.9430   69.6970  227.0310 C   0  0  0  0  0  0  0  0  0  0  0  0
  140.5960   71.2100  224.8800 C   0  0  0  0  0  0  0  0  0  0  0  0
  139.8580   70.7770  223.6530 C   0  0  0  0  0  0  0  0  0  0  0  0
  139.6880   71.6400  222.4880 C   0  0  0  0  0  0  0  0  0  0  0  0
  139.2760   71.1730  221.2590 C   0  0  0  0  0  0  0  0  0  0  0  0
  139.1370   72.0420  220.2010 C   0  0  0  0  0  0  0  0  0  0  0  0
  139.4030   73.3880  220.3340 C   0  0  0  0  0  0  0  0  0  0  0  0
  139.8170   73.8790  221.5550 C   0  0  0  0  0  0  0  0  0  0  0  0
  140.0910   75.3060  221.6640 C   0  0  0  0  0  0  0  0  0  0  0  0
  140.8300   75.8310  220.7930 O   0  0  0  0  0  0  0  0  0  0  0  0
  139.5630   76.1230  222.7010 N   0  0  0  0  0  0  0  0  0  0  0  0
  139.9220   77.5040  222.6720 C   0  0  0  0  0  0  0  0  0  0  0  0
  138.9750   78.4010  222.2080 C   0  0  0  0  0  0  0  0  0  0  0  0
  139.2560   79.7540  222.1520 C   0  0  0  0  0  0  0  0  0  0  0  0
  140.5060   80.1890  222.5710 C   0  0  0  0  0  0  0  0  0  0  0  0
  141.4350   79.2790  223.0300 C   0  0  0  0  0  0  0  0  0  0  0  0
  141.1650   77.9290  223.0890 C   0  0  0  0  0  0  0  0  0  0  0  0
  142.6900   80.0190  223.4130 C   0  0  0  0  0  0  0  0  0  0  0  0
  142.1950   81.4410  223.5700 C   0  0  0  0  0  0  0  0  0  0  0  0
  141.0350   81.5650  222.6050 C   0  0  0  0  0  0  0  0  0  0  0  0
  139.9530   72.9970  222.6060 C   0  0  0  0  0  0  0  0  0  0  0  0
  139.4230   69.5700  223.7970 N   0  0  0  0  0  0  0  0  0  0  0  0
  140.4938   68.5875  229.6985 H   0  0  0  0  0  0  0  0  0  0  0  0
  141.1875   67.0473  229.0876 H   0  0  0  0  0  0  0  0  0  0  0  0
  142.1824   68.5429  229.0876 H   0  0  0  0  0  0  0  0  0  0  0  0
  139.7577   66.5315  227.3183 H   0  0  0  0  0  0  0  0  0  0  0  0
  138.9484   67.0814  225.0294 H   0  0  0  0  0  0  0  0  0  0  0  0
  141.5132   70.4439  227.6029 H   0  0  0  0  0  0  0  0  0  0  0  0
  140.1154   72.0847  225.3425 H   0  0  0  0  0  0  0  0  0  0  0  0
  141.6322   71.5184  224.6769 H   0  0  0  0  0  0  0  0  0  0  0  0
  139.0578   70.1035  221.1232 H   0  0  0  0  0  0  0  0  0  0  0  0
  138.8059   71.6535  219.2266 H   0  0  0  0  0  0  0  0  0  0  0  0
  139.2862   74.0644  219.4745 H   0  0  0  0  0  0  0  0  0  0  0  0
  138.9470   75.7050  223.4330 H   0  0  0  0  0  0  0  0  0  0  0  0
  137.9907   78.0345  221.8811 H   0  0  0  0  0  0  0  0  0  0  0  0
  138.5059   80.4694  221.7837 H   0  0  0  0  0  0  0  0  0  0  0  0
  141.9163   77.2145  223.4566 H   0  0  0  0  0  0  0  0  0  0  0  0
  143.1054   79.6359  224.3568 H   0  0  0  0  0  0  0  0  0  0  0  0
  143.5023   79.9154  222.6786 H   0  0  0  0  0  0  0  0  0  0  0  0
  141.8595   81.6212  224.6020 H   0  0  0  0  0  0  0  0  0  0  0  0
  142.9850   82.1773  223.3608 H   0  0  0  0  0  0  0  0  0  0  0  0
  140.2802   82.2728  222.9782 H   0  0  0  0  0  0  0  0  0  0  0  0
  141.3240   81.9503  221.6161 H   0  0  0  0  0  0  0  0  0  0  0  0
  140.2858   73.3857  223.5797 H   0  0  0  0  0  0  0  0  0  0  0  0
  1  2  1  0
  2  3  2  0
  3  4  1  0
  4  5  2  0
  5  6  1  0
  6  7  2  0
  6  8  1  0
  8  9  1  0
  9 10  1  0
 10 11  2  0
 11 12  1  0
 12 13  2  0
 13 14  1  0
 14 15  1  0
 15 16  2  0
 15 17  1  0
 17 18  1  0
 18 19  2  0
 19 20  1  0
 20 21  2  0
 21 22  1  0
 22 23  2  0
 22 24  1  0
 24 25  1  0
 25 26  1  0
 14 27  2  0
  9 28  2  0
  7  2  1  0
 27 10  1  0
 28  5  1  0
 23 18  1  0
 26 21  1  0
  1 29  1  0
  1 30  1  0
  1 31  1  0
  3 32  1  0
  4 33  1  0
  7 34  1  0
  8 35  1  0
  8 36  1  0
 11 37  1  0
 12 38  1  0
 13 39  1  0
 17 40  1  0
 19 41  1  0
 20 42  1  0
 23 43  1  0
 24 44  1  0
 24 45  1  0
 25 46  1  0
 25 47  1  0
 26 48  1  0
 26 49  1  0
 27 50  1  0
M  END
>  <smiles>  (10) 
Cc1ccc2c(c1)CC(c1cccc(C(=O)Nc3ccc4c(c3)CCC4)c1)=N2

>  <score_type>  (10) 
oracle

>  <origin>  (10) 
autodockgpu

>  <m_score__min__energy>  (10) 
-9.3399999999999999

>  <m_primary>  (10) 
energy

>  <rmsd>  (10) 
4.553391941254913

>  <m_score__min__rmsd>  (10) 
4.553391941254913

>  <meeko>  (10) 
{"free_energy": -9.3, "intermolecular_energy": -10.19, "internal_energy": -0.77, "cluster_size": 50, "cluster_id": 1, "rank_in_cluster": 43}

>  <energy>  (10) 
-9.32

>  <cluster_rmsd>  (10) 
0.08

>  <cluster>  (10) 
1

$$$$

     RDKit          3D

 50 54  0  0  0  0  0  0  0  0999 V2000
  141.1830   68.1380  228.9740 C   0  0  0  0  0  0  0  0  0  0  0  0
  140.7080   68.4530  227.6180 C   0  0  0  0  0  0  0  0  0  0  0  0
  140.0130   67.5010  226.8890 C   0  0  0  0  0  0  0  0  0  0  0  0
  139.5690   67.8010  225.6150 C   0  0  0  0  0  0  0  0  0  0  0  0
  139.8250   69.0480  225.0860 C   0  0  0  0  0  0  0  0  0  0  0  0
  140.5100   70.0080  225.7870 C   0  0  0  0  0  0  0  0  0  0  0  0
  140.9470   69.6960  227.0530 C   0  0  0  0  0  0  0  0  0  0  0  0
  140.5920   71.2090  224.9020 C   0  0  0  0  0  0  0  0  0  0  0  0
  139.8720   70.7650  223.6680 C   0  0  0  0  0  0  0  0  0  0  0  0
  139.6980   71.6280  222.5030 C   0  0  0  0  0  0  0  0  0  0  0  0
  139.2810   71.1610  221.2770 C   0  0  0  0  0  0  0  0  0  0  0  0
  139.1370   72.0300  220.2180 C   0  0  0  0  0  0  0  0  0  0  0  0
  139.4030   73.3760  220.3510 C   0  0  0  0  0  0  0  0  0  0  0  0
  139.8210   73.8670  221.5700 C   0  0  0  0  0  0  0  0  0  0  0  0
  140.0940   75.2940  221.6770 C   0  0  0  0  0  0  0  0  0  0  0  0
  140.8170   75.8230  220.7950 O   0  0  0  0  0  0  0  0  0  0  0  0
  139.5830   76.1080  222.7260 N   0  0  0  0  0  0  0  0  0  0  0  0
  139.9390   77.4890  222.6930 C   0  0  0  0  0  0  0  0  0  0  0  0
  138.9810   78.3860  222.2500 C   0  0  0  0  0  0  0  0  0  0  0  0
  139.2590   79.7400  222.1930 C   0  0  0  0  0  0  0  0  0  0  0  0
  140.5160   80.1760  222.5880 C   0  0  0  0  0  0  0  0  0  0  0  0
  141.4560   79.2670  223.0270 C   0  0  0  0  0  0  0  0  0  0  0  0
  141.1890   77.9160  223.0870 C   0  0  0  0  0  0  0  0  0  0  0  0
  142.7160   80.0070  223.3880 C   0  0  0  0  0  0  0  0  0  0  0  0
  142.2220   81.4280  223.5580 C   0  0  0  0  0  0  0  0  0  0  0  0
  141.0430   81.5530  222.6170 C   0  0  0  0  0  0  0  0  0  0  0  0
  139.9610   72.9860  222.6200 C   0  0  0  0  0  0  0  0  0  0  0  0
  139.4580   69.5510  223.8060 N   0  0  0  0  0  0  0  0  0  0  0  0
  140.5046   68.5879  229.7139 H   0  0  0  0  0  0  0  0  0  0  0  0
  141.2034   67.0468  229.1111 H   0  0  0  0  0  0  0  0  0  0  0  0
  142.1962   68.5438  229.1111 H   0  0  0  0  0  0  0  0  0  0  0  0
  139.8154   66.5097  227.3230 H   0  0  0  0  0  0  0  0  0  0  0  0
  139.0166   67.0519  225.0288 H   0  0  0  0  0  0  0  0  0  0  0  0
  141.4996   70.4511  227.6313 H   0  0  0  0  0  0  0  0  0  0  0  0
  140.0923   72.0743  225.3619 H   0  0  0  0  0  0  0  0  0  0  0  0
  141.6242   71.5362  224.7085 H   0  0  0  0  0  0  0  0  0  0  0  0
  139.0623   70.0914  221.1427 H   0  0  0  0  0  0  0  0  0  0  0  0
  138.8024   71.6414  219.2449 H   0  0  0  0  0  0  0  0  0  0  0  0
  139.2829   74.0527  219.4921 H   0  0  0  0  0  0  0  0  0  0  0  0
  138.9810   75.6870  223.4670 H   0  0  0  0  0  0  0  0  0  0  0  0
  137.9912   78.0188  221.9410 H   0  0  0  0  0  0  0  0  0  0  0  0
  138.5005   80.4553  221.8423 H   0  0  0  0  0  0  0  0  0  0  0  0
  141.9486   77.2020  223.4379 H   0  0  0  0  0  0  0  0  0  0  0  0
  143.1495   79.6220  224.3228 H   0  0  0  0  0  0  0  0  0  0  0  0
  143.5146   79.9064  222.6383 H   0  0  0  0  0  0  0  0  0  0  0  0
  141.9070   81.6053  224.5969 H   0  0  0  0  0  0  0  0  0  0  0  0
  143.0067   82.1658  223.3345 H   0  0  0  0  0  0  0  0  0  0  0  0
  140.2944   82.2578  223.0080 H   0  0  0  0  0  0  0  0  0  0  0  0
  141.3116   81.9426  221.6240 H   0  0  0  0  0  0  0  0  0  0  0  0
  140.2956   73.3754  223.5928 H   0  0  0  0  0  0  0  0  0  0  0  0
  1  2  1  0
  2  3  2  0
  3  4  1  0
  4  5  2  0
  5  6  1  0
  6  7  2  0
  6  8  1  0
  8  9  1  0
  9 10  1  0
 10 11  2  0
 11 12  1  0
 12 13  2  0
 13 14  1  0
 14 15  1  0
 15 16  2  0
 15 17  1  0
 17 18  1  0
 18 19  2  0
 19 20  1  0
 20 21  2  0
 21 22  1  0
 22 23  2  0
 22 24  1  0
 24 25  1  0
 25 26  1  0
 14 27  2  0
  9 28  2  0
  7  2  1  0
 27 10  1  0
 28  5  1  0
 23 18  1  0
 26 21  1  0
  1 29  1  0
  1 30  1  0
  1 31  1  0
  3 32  1  0
  4 33  1  0
  7 34  1  0
  8 35  1  0
  8 36  1  0
 11 37  1  0
 12 38  1  0
 13 39  1  0
 17 40  1  0
 19 41  1  0
 20 42  1  0
 23 43  1  0
 24 44  1  0
 24 45  1  0
 25 46  1  0
 25 47  1  0
 26 48  1  0
 26 49  1  0
 27 50  1  0
M  END
>  <smiles>  (11) 
Cc1ccc2c(c1)CC(c1cccc(C(=O)Nc3ccc4c(c3)CCC4)c1)=N2

>  <score_type>  (11) 
oracle

>  <origin>  (11) 
autodockgpu

>  <m_score__min__energy>  (11) 
-9.3399999999999999

>  <m_primary>  (11) 
energy

>  <rmsd>  (11) 
4.569349776047232

>  <m_score__min__rmsd>  (11) 
4.569349776047232

>  <meeko>  (11) 
{"free_energy": -9.3, "intermolecular_energy": -10.2, "internal_energy": -0.77, "cluster_size": 50, "cluster_id": 1, "rank_in_cluster": 39}

>  <energy>  (11) 
-9.32

>  <cluster_rmsd>  (11) 
0.08

>  <cluster>  (11) 
1

$$$$

     RDKit          3D

 50 54  0  0  0  0  0  0  0  0999 V2000
  141.1110   68.1310  228.9450 C   0  0  0  0  0  0  0  0  0  0  0  0
  140.6450   68.4660  227.5900 C   0  0  0  0  0  0  0  0  0  0  0  0
  139.8630   67.5660  226.8840 C   0  0  0  0  0  0  0  0  0  0  0  0
  139.4280   67.8850  225.6110 C   0  0  0  0  0  0  0  0  0  0  0  0
  139.7800   69.1000  225.0610 C   0  0  0  0  0  0  0  0  0  0  0  0
  140.5530   70.0080  225.7390 C   0  0  0  0  0  0  0  0  0  0  0  0
  140.9800   69.6780  227.0040 C   0  0  0  0  0  0  0  0  0  0  0  0
  140.7230   71.1860  224.8370 C   0  0  0  0  0  0  0  0  0  0  0  0
  139.9510   70.7880  223.6180 C   0  0  0  0  0  0  0  0  0  0  0  0
  139.8330   71.6470  222.4440 C   0  0  0  0  0  0  0  0  0  0  0  0
  139.5020   71.1710  221.1950 C   0  0  0  0  0  0  0  0  0  0  0  0
  139.4080   72.0370  220.1280 C   0  0  0  0  0  0  0  0  0  0  0  0
  139.6400   73.3870  220.2740 C   0  0  0  0  0  0  0  0  0  0  0  0
  139.9730   73.8870  221.5160 C   0  0  0  0  0  0  0  0  0  0  0  0
  140.2130   75.3190  221.6380 C   0  0  0  0  0  0  0  0  0  0  0  0
  140.8820   75.8820  220.7340 O   0  0  0  0  0  0  0  0  0  0  0  0
  139.7270   76.1000  222.7220 N   0  0  0  0  0  0  0  0  0  0  0  0
  140.0450   77.4910  222.6990 C   0  0  0  0  0  0  0  0  0  0  0  0
  139.0760   78.3610  222.2290 C   0  0  0  0  0  0  0  0  0  0  0  0
  139.3170   79.7230  222.1800 C   0  0  0  0  0  0  0  0  0  0  0  0
  140.5490   80.1930  222.6110 C   0  0  0  0  0  0  0  0  0  0  0  0
  141.5020   79.3110  223.0760 C   0  0  0  0  0  0  0  0  0  0  0  0
  141.2710   77.9530  223.1290 C   0  0  0  0  0  0  0  0  0  0  0  0
  142.7300   80.0860  223.4730 C   0  0  0  0  0  0  0  0  0  0  0  0
  142.1910   81.4920  223.6290 C   0  0  0  0  0  0  0  0  0  0  0  0
  141.0370   81.5850  222.6540 C   0  0  0  0  0  0  0  0  0  0  0  0
  140.0640   73.0090  222.5740 C   0  0  0  0  0  0  0  0  0  0  0  0
  139.4380   69.6140  223.7790 N   0  0  0  0  0  0  0  0  0  0  0  0
  140.4517   68.6050  229.6871 H   0  0  0  0  0  0  0  0  0  0  0  0
  141.0905   67.0396  229.0804 H   0  0  0  0  0  0  0  0  0  0  0  0
  142.1391   68.4981  229.0804 H   0  0  0  0  0  0  0  0  0  0  0  0
  139.5892   66.6008  227.3349 H   0  0  0  0  0  0  0  0  0  0  0  0
  138.8073   67.1769  225.0424 H   0  0  0  0  0  0  0  0  0  0  0  0
  141.6017   70.3918  227.5643 H   0  0  0  0  0  0  0  0  0  0  0  0
  140.3039   72.0960  225.2912 H   0  0  0  0  0  0  0  0  0  0  0  0
  141.7762   71.4231  224.6260 H   0  0  0  0  0  0  0  0  0  0  0  0
  139.3123   70.0973  221.0491 H   0  0  0  0  0  0  0  0  0  0  0  0
  139.1416   71.6416  219.1367 H   0  0  0  0  0  0  0  0  0  0  0  0
  139.5604   74.0605  219.4079 H   0  0  0  0  0  0  0  0  0  0  0  0
  139.1700   75.6510  223.4810 H   0  0  0  0  0  0  0  0  0  0  0  0
  138.1062   77.9664  221.8916 H   0  0  0  0  0  0  0  0  0  0  0  0
  138.5491   80.4171  221.8077 H   0  0  0  0  0  0  0  0  0  0  0  0
  142.0398   77.2604  223.5022 H   0  0  0  0  0  0  0  0  0  0  0  0
  143.1474   79.7126  224.4197 H   0  0  0  0  0  0  0  0  0  0  0  0
  143.5523   80.0087  222.7465 H   0  0  0  0  0  0  0  0  0  0  0  0
  141.8407   81.6589  224.6583 H   0  0  0  0  0  0  0  0  0  0  0  0
  142.9607   82.2519  223.4288 H   0  0  0  0  0  0  0  0  0  0  0  0
  140.2583   82.2690  223.0225 H   0  0  0  0  0  0  0  0  0  0  0  0
  141.3234   81.9821  221.6690 H   0  0  0  0  0  0  0  0  0  0  0  0
  140.3314   73.4050  223.5648 H   0  0  0  0  0  0  0  0  0  0  0  0
  1  2  1  0
  2  3  2  0
  3  4  1  0
  4  5  2  0
  5  6  1  0
  6  7  2  0
  6  8  1  0
  8  9  1  0
  9 10  1  0
 10 11  2  0
 11 12  1  0
 12 13  2  0
 13 14  1  0
 14 15  1  0
 15 16  2  0
 15 17  1  0
 17 18  1  0
 18 19  2  0
 19 20  1  0
 20 21  2  0
 21 22  1  0
 22 23  2  0
 22 24  1  0
 24 25  1  0
 25 26  1  0
 14 27  2  0
  9 28  2  0
  7  2  1  0
 27 10  1  0
 28  5  1  0
 23 18  1  0
 26 21  1  0
  1 29  1  0
  1 30  1  0
  1 31  1  0
  3 32  1  0
  4 33  1  0
  7 34  1  0
  8 35  1  0
  8 36  1  0
 11 37  1  0
 12 38  1  0
 13 39  1  0
 17 40  1  0
 19 41  1  0
 20 42  1  0
 23 43  1  0
 24 44  1  0
 24 45  1  0
 25 46  1  0
 25 47  1  0
 26 48  1  0
 26 49  1  0
 27 50  1  0
M  END
>  <smiles>  (12) 
Cc1ccc2c(c1)CC(c1cccc(C(=O)Nc3ccc4c(c3)CCC4)c1)=N2

>  <score_type>  (12) 
oracle

>  <origin>  (12) 
autodockgpu

>  <m_score__min__energy>  (12) 
-9.3399999999999999

>  <m_primary>  (12) 
energy

>  <rmsd>  (12) 
4.527366524777435

>  <m_score__min__rmsd>  (12) 
4.527366524777435

>  <meeko>  (12) 
{"free_energy": -9.32, "intermolecular_energy": -10.22, "internal_energy": -0.77, "cluster_size": 50, "cluster_id": 1, "rank_in_cluster": 8}

>  <energy>  (12) 
-9.32

>  <cluster_rmsd>  (12) 
0.09

>  <cluster>  (12) 
1

$$$$

     RDKit          3D

 50 54  0  0  0  0  0  0  0  0999 V2000
  141.0970   68.2010  228.9540 C   0  0  0  0  0  0  0  0  0  0  0  0
  140.6250   68.5200  227.5970 C   0  0  0  0  0  0  0  0  0  0  0  0
  139.8580   67.6030  226.8970 C   0  0  0  0  0  0  0  0  0  0  0  0
  139.4170   67.9060  225.6230 C   0  0  0  0  0  0  0  0  0  0  0  0
  139.7480   69.1230  225.0650 C   0  0  0  0  0  0  0  0  0  0  0  0
  140.5060   70.0480  225.7370 C   0  0  0  0  0  0  0  0  0  0  0  0
  140.9390   69.7330  227.0030 C   0  0  0  0  0  0  0  0  0  0  0  0
  140.6550   71.2230  224.8270 C   0  0  0  0  0  0  0  0  0  0  0  0
  139.8900   70.8040  223.6120 C   0  0  0  0  0  0  0  0  0  0  0  0
  139.7570   71.6540  222.4320 C   0  0  0  0  0  0  0  0  0  0  0  0
  139.4020   71.1700  221.1920 C   0  0  0  0  0  0  0  0  0  0  0  0
  139.2950   72.0260  220.1200 C   0  0  0  0  0  0  0  0  0  0  0  0
  139.5370   73.3770  220.2510 C   0  0  0  0  0  0  0  0  0  0  0  0
  139.8930   73.8860  221.4820 C   0  0  0  0  0  0  0  0  0  0  0  0
  140.1420   75.3170  221.5880 C   0  0  0  0  0  0  0  0  0  0  0  0
  140.7800   75.8730  220.6580 O   0  0  0  0  0  0  0  0  0  0  0  0
  139.6980   76.1050  222.6850 N   0  0  0  0  0  0  0  0  0  0  0  0
  140.0200   77.4950  222.6430 C   0  0  0  0  0  0  0  0  0  0  0  0
  139.0640   78.3580  222.1320 C   0  0  0  0  0  0  0  0  0  0  0  0
  139.3100   79.7180  222.0620 C   0  0  0  0  0  0  0  0  0  0  0  0
  140.5320   80.1940  222.5150 C   0  0  0  0  0  0  0  0  0  0  0  0
  141.4710   79.3190  223.0210 C   0  0  0  0  0  0  0  0  0  0  0  0
  141.2350   77.9630  223.0940 C   0  0  0  0  0  0  0  0  0  0  0  0
  142.6910   80.0990  223.4330 C   0  0  0  0  0  0  0  0  0  0  0  0
  142.1520   81.5090  223.5480 C   0  0  0  0  0  0  0  0  0  0  0  0
  141.0220   81.5850  222.5440 C   0  0  0  0  0  0  0  0  0  0  0  0
  139.9970   73.0160  222.5460 C   0  0  0  0  0  0  0  0  0  0  0  0
  139.3970   69.6240  223.7800 N   0  0  0  0  0  0  0  0  0  0  0  0
  140.4223   68.6570  229.6935 H   0  0  0  0  0  0  0  0  0  0  0  0
  141.1078   67.1097  229.0914 H   0  0  0  0  0  0  0  0  0  0  0  0
  142.1137   68.5979  229.0914 H   0  0  0  0  0  0  0  0  0  0  0  0
  139.6007   66.6362  227.3542 H   0  0  0  0  0  0  0  0  0  0  0  0
  138.8080   67.1838  225.0595 H   0  0  0  0  0  0  0  0  0  0  0  0
  141.5492   70.4606  227.5582 H   0  0  0  0  0  0  0  0  0  0  0  0
  140.2204   72.1285  225.2755 H   0  0  0  0  0  0  0  0  0  0  0  0
  141.7038   71.4769  224.6137 H   0  0  0  0  0  0  0  0  0  0  0  0
  139.2035   70.0963  221.0585 H   0  0  0  0  0  0  0  0  0  0  0  0
  139.0101   71.6235  219.1367 H   0  0  0  0  0  0  0  0  0  0  0  0
  139.4468   74.0434  219.3805 H   0  0  0  0  0  0  0  0  0  0  0  0
  139.1670   75.6620  223.4650 H   0  0  0  0  0  0  0  0  0  0  0  0
  138.1016   77.9588  221.7791 H   0  0  0  0  0  0  0  0  0  0  0  0
  138.5538   80.4062  221.6563 H   0  0  0  0  0  0  0  0  0  0  0  0
  141.9926   77.2762  223.4994 H   0  0  0  0  0  0  0  0  0  0  0  0
  143.0839   79.7433  224.3969 H   0  0  0  0  0  0  0  0  0  0  0  0
  143.5308   80.0056  222.7287 H   0  0  0  0  0  0  0  0  0  0  0  0
  141.7776   81.6971  224.5651 H   0  0  0  0  0  0  0  0  0  0  0  0
  142.9282   82.2632  223.3512 H   0  0  0  0  0  0  0  0  0  0  0  0
  140.2361   82.2771  222.8806 H   0  0  0  0  0  0  0  0  0  0  0  0
  141.3332   81.9626  221.5588 H   0  0  0  0  0  0  0  0  0  0  0  0
  140.2828   73.4191  223.5288 H   0  0  0  0  0  0  0  0  0  0  0  0
  1  2  1  0
  2  3  2  0
  3  4  1  0
  4  5  2  0
  5  6  1  0
  6  7  2  0
  6  8  1  0
  8  9  1  0
  9 10  1  0
 10 11  2  0
 11 12  1  0
 12 13  2  0
 13 14  1  0
 14 15  1  0
 15 16  2  0
 15 17  1  0
 17 18  1  0
 18 19  2  0
 19 20  1  0
 20 21  2  0
 21 22  1  0
 22 23  2  0
 22 24  1  0
 24 25  1  0
 25 26  1  0
 14 27  2  0
  9 28  2  0
  7  2  1  0
 27 10  1  0
 28  5  1  0
 23 18  1  0
 26 21  1  0
  1 29  1  0
  1 30  1  0
  1 31  1  0
  3 32  1  0
  4 33  1  0
  7 34  1  0
  8 35  1  0
  8 36  1  0
 11 37  1  0
 12 38  1  0
 13 39  1  0
 17 40  1  0
 19 41  1  0
 20 42  1  0
 23 43  1  0
 24 44  1  0
 24 45  1  0
 25 46  1  0
 25 47  1  0
 26 48  1  0
 26 49  1  0
 27 50  1  0
M  END
>  <smiles>  (13) 
Cc1ccc2c(c1)CC(c1cccc(C(=O)Nc3ccc4c(c3)CCC4)c1)=N2

>  <score_type>  (13) 
oracle

>  <origin>  (13) 
autodockgpu

>  <m_score__min__energy>  (13) 
-9.3399999999999999

>  <m_primary>  (13) 
energy

>  <rmsd>  (13) 
4.502432435900394

>  <m_score__min__rmsd>  (13) 
4.502432435900394

>  <meeko>  (13) 
{"free_energy": -9.27, "intermolecular_energy": -10.16, "internal_energy": -0.77, "cluster_size": 50, "cluster_id": 1, "rank_in_cluster": 50}

>  <energy>  (13) 
-9.32

>  <cluster_rmsd>  (13) 
0.03

>  <cluster>  (13) 
1

$$$$

     RDKit          3D

 50 54  0  0  0  0  0  0  0  0999 V2000
  141.0640   68.1370  228.9570 C   0  0  0  0  0  0  0  0  0  0  0  0
  140.6170   68.4670  227.5950 C   0  0  0  0  0  0  0  0  0  0  0  0
  139.8610   67.5570  226.8740 C   0  0  0  0  0  0  0  0  0  0  0  0
  139.4430   67.8710  225.5940 C   0  0  0  0  0  0  0  0  0  0  0  0
  139.7860   69.0920  225.0520 C   0  0  0  0  0  0  0  0  0  0  0  0
  140.5330   70.0100  225.7450 C   0  0  0  0  0  0  0  0  0  0  0  0
  140.9430   69.6850  227.0160 C   0  0  0  0  0  0  0  0  0  0  0  0
  140.7000   71.1920  224.8470 C   0  0  0  0  0  0  0  0  0  0  0  0
  139.9560   70.7840  223.6150 C   0  0  0  0  0  0  0  0  0  0  0  0
  139.8460   71.6430  222.4390 C   0  0  0  0  0  0  0  0  0  0  0  0
  139.5220   71.1680  221.1880 C   0  0  0  0  0  0  0  0  0  0  0  0
  139.4340   72.0330  220.1210 C   0  0  0  0  0  0  0  0  0  0  0  0
  139.6660   73.3840  220.2690 C   0  0  0  0  0  0  0  0  0  0  0  0
  139.9920   73.8840  221.5120 C   0  0  0  0  0  0  0  0  0  0  0  0
  140.2310   75.3160  221.6360 C   0  0  0  0  0  0  0  0  0  0  0  0
  140.9070   75.8780  220.7370 O   0  0  0  0  0  0  0  0  0  0  0  0
  139.7380   76.0970  222.7160 N   0  0  0  0  0  0  0  0  0  0  0  0
  140.0570   77.4880  222.6960 C   0  0  0  0  0  0  0  0  0  0  0  0
  139.0850   78.3600  222.2330 C   0  0  0  0  0  0  0  0  0  0  0  0
  139.3270   79.7210  222.1860 C   0  0  0  0  0  0  0  0  0  0  0  0
  140.5620   80.1900  222.6120 C   0  0  0  0  0  0  0  0  0  0  0  0
  141.5160   79.3060  223.0690 C   0  0  0  0  0  0  0  0  0  0  0  0
  141.2850   77.9480  223.1200 C   0  0  0  0  0  0  0  0  0  0  0  0
  142.7470   80.0790  223.4620 C   0  0  0  0  0  0  0  0  0  0  0  0
  142.2100   81.4850  223.6240 C   0  0  0  0  0  0  0  0  0  0  0  0
  141.0500   81.5810  222.6560 C   0  0  0  0  0  0  0  0  0  0  0  0
  140.0760   73.0050  222.5710 C   0  0  0  0  0  0  0  0  0  0  0  0
  139.4590   69.6030  223.7650 N   0  0  0  0  0  0  0  0  0  0  0  0
  140.4029   68.6251  229.6882 H   0  0  0  0  0  0  0  0  0  0  0  0
  141.0282   67.0470  229.1006 H   0  0  0  0  0  0  0  0  0  0  0  0
  142.0951   68.4921  229.1006 H   0  0  0  0  0  0  0  0  0  0  0  0
  139.5939   66.5870  227.3188 H   0  0  0  0  0  0  0  0  0  0  0  0
  138.8431   67.1544  225.0139 H   0  0  0  0  0  0  0  0  0  0  0  0
  141.5438   70.4077  227.5877 H   0  0  0  0  0  0  0  0  0  0  0  0
  140.2589   72.0947  225.2949 H   0  0  0  0  0  0  0  0  0  0  0  0
  141.7529   71.4457  224.6544 H   0  0  0  0  0  0  0  0  0  0  0  0
  139.3330   70.0944  221.0409 H   0  0  0  0  0  0  0  0  0  0  0  0
  139.1728   71.6377  219.1283 H   0  0  0  0  0  0  0  0  0  0  0  0
  139.5916   74.0575  219.4025 H   0  0  0  0  0  0  0  0  0  0  0  0
  139.1760   75.6480  223.4710 H   0  0  0  0  0  0  0  0  0  0  0  0
  138.1131   77.9668  221.9001 H   0  0  0  0  0  0  0  0  0  0  0  0
  138.5577   80.4164  221.8191 H   0  0  0  0  0  0  0  0  0  0  0  0
  142.0556   77.2542  223.4871 H   0  0  0  0  0  0  0  0  0  0  0  0
  143.1686   79.7029  224.4058 H   0  0  0  0  0  0  0  0  0  0  0  0
  143.5658   80.0027  222.7314 H   0  0  0  0  0  0  0  0  0  0  0  0
  141.8661   81.6500  224.6557 H   0  0  0  0  0  0  0  0  0  0  0  0
  142.9791   82.2447  223.4206 H   0  0  0  0  0  0  0  0  0  0  0  0
  140.2736   82.2640  223.0311 H   0  0  0  0  0  0  0  0  0  0  0  0
  141.3305   81.9809  221.6704 H   0  0  0  0  0  0  0  0  0  0  0  0
  140.3367   73.4007  223.5637 H   0  0  0  0  0  0  0  0  0  0  0  0
  1  2  1  0
  2  3  2  0
  3  4  1  0
  4  5  2  0
  5  6  1  0
  6  7  2  0
  6  8  1  0
  8  9  1  0
  9 10  1  0
 10 11  2  0
 11 12  1  0
 12 13  2  0
 13 14  1  0
 14 15  1  0
 15 16  2  0
 15 17  1  0
 17 18  1  0
 18 19  2  0
 19 20  1  0
 20 21  2  0
 21 22  1  0
 22 23  2  0
 22 24  1  0
 24 25  1  0
 25 26  1  0
 14 27  2  0
  9 28  2  0
  7  2  1  0
 27 10  1  0
 28  5  1  0
 23 18  1  0
 26 21  1  0
  1 29  1  0
  1 30  1  0
  1 31  1  0
  3 32  1  0
  4 33  1  0
  7 34  1  0
  8 35  1  0
  8 36  1  0
 11 37  1  0
 12 38  1  0
 13 39  1  0
 17 40  1  0
 19 41  1  0
 20 42  1  0
 23 43  1  0
 24 44  1  0
 24 45  1  0
 25 46  1  0
 25 47  1  0
 26 48  1  0
 26 49  1  0
 27 50  1  0
M  END
>  <smiles>  (14) 
Cc1ccc2c(c1)CC(c1cccc(C(=O)Nc3ccc4c(c3)CCC4)c1)=N2

>  <score_type>  (14) 
oracle

>  <origin>  (14) 
autodockgpu

>  <m_score__min__energy>  (14) 
-9.3399999999999999

>  <m_primary>  (14) 
energy

>  <rmsd>  (14) 
4.529482232594281

>  <m_score__min__rmsd>  (14) 
4.529482232594281

>  <meeko>  (14) 
{"free_energy": -9.34, "intermolecular_energy": -10.23, "internal_energy": -0.77, "cluster_size": 50, "cluster_id": 1, "rank_in_cluster": 1}

>  <energy>  (14) 
-9.32

>  <cluster_rmsd>  (14) 
0.03

>  <cluster>  (14) 
1

$$$$

     RDKit          3D

 50 54  0  0  0  0  0  0  0  0999 V2000
  141.1180   68.1270  229.0470 C   0  0  0  0  0  0  0  0  0  0  0  0
  140.6760   68.4410  227.6790 C   0  0  0  0  0  0  0  0  0  0  0  0
  139.9940   67.4910  226.9360 C   0  0  0  0  0  0  0  0  0  0  0  0
  139.5800   67.7900  225.6510 C   0  0  0  0  0  0  0  0  0  0  0  0
  139.8530   69.0360  225.1260 C   0  0  0  0  0  0  0  0  0  0  0  0
  140.5270   69.9930  225.8410 C   0  0  0  0  0  0  0  0  0  0  0  0
  140.9330   69.6830  227.1170 C   0  0  0  0  0  0  0  0  0  0  0  0
  140.6340   71.1930  224.9570 C   0  0  0  0  0  0  0  0  0  0  0  0
  139.9410   70.7500  223.7070 C   0  0  0  0  0  0  0  0  0  0  0  0
  139.7970   71.6110  222.5370 C   0  0  0  0  0  0  0  0  0  0  0  0
  139.4310   71.1400  221.2960 C   0  0  0  0  0  0  0  0  0  0  0  0
  139.3140   72.0070  220.2330 C   0  0  0  0  0  0  0  0  0  0  0  0
  139.5560   73.3560  220.3760 C   0  0  0  0  0  0  0  0  0  0  0  0
  139.9240   73.8520  221.6090 C   0  0  0  0  0  0  0  0  0  0  0  0
  140.1730   75.2830  221.7270 C   0  0  0  0  0  0  0  0  0  0  0  0
  140.9650   75.8110  220.9060 O   0  0  0  0  0  0  0  0  0  0  0  0
  139.5660   76.1000  222.7200 N   0  0  0  0  0  0  0  0  0  0  0  0
  139.9110   77.4850  222.7050 C   0  0  0  0  0  0  0  0  0  0  0  0
  138.9350   78.3830  222.3090 C   0  0  0  0  0  0  0  0  0  0  0  0
  139.2020   79.7400  222.2720 C   0  0  0  0  0  0  0  0  0  0  0  0
  140.4660   80.1780  222.6400 C   0  0  0  0  0  0  0  0  0  0  0  0
  141.4250   79.2670  223.0320 C   0  0  0  0  0  0  0  0  0  0  0  0
  141.1690   77.9130  223.0720 C   0  0  0  0  0  0  0  0  0  0  0  0
  142.6900   80.0090  223.3720 C   0  0  0  0  0  0  0  0  0  0  0  0
  142.1910   81.4220  223.5860 C   0  0  0  0  0  0  0  0  0  0  0  0
  140.9840   81.5580  222.6820 C   0  0  0  0  0  0  0  0  0  0  0  0
  140.0380   72.9720  222.6640 C   0  0  0  0  0  0  0  0  0  0  0  0
  139.5180   69.5370  223.8370 N   0  0  0  0  0  0  0  0  0  0  0  0
  140.4421   68.6071  229.7700 H   0  0  0  0  0  0  0  0  0  0  0  0
  141.1010   67.0374  229.1968 H   0  0  0  0  0  0  0  0  0  0  0  0
  142.1413   68.5018  229.1968 H   0  0  0  0  0  0  0  0  0  0  0  0
  139.7824   66.5014  227.3673 H   0  0  0  0  0  0  0  0  0  0  0  0
  139.0385   67.0418  225.0535 H   0  0  0  0  0  0  0  0  0  0  0  0
  141.4745   70.4375  227.7065 H   0  0  0  0  0  0  0  0  0  0  0  0
  140.1270   72.0606  225.4044 H   0  0  0  0  0  0  0  0  0  0  0  0
  141.6716   71.5164  224.7872 H   0  0  0  0  0  0  0  0  0  0  0  0
  139.2315   70.0677  221.1535 H   0  0  0  0  0  0  0  0  0  0  0  0
  139.0210   71.6144  219.2481 H   0  0  0  0  0  0  0  0  0  0  0  0
  139.4565   74.0317  219.5137 H   0  0  0  0  0  0  0  0  0  0  0  0
  138.9060   75.6800  223.4100 H   0  0  0  0  0  0  0  0  0  0  0  0
  137.9391   78.0148  222.0214 H   0  0  0  0  0  0  0  0  0  0  0  0
  138.4287   80.4563  221.9576 H   0  0  0  0  0  0  0  0  0  0  0  0
  141.9431   77.1976  223.3865 H   0  0  0  0  0  0  0  0  0  0  0  0
  143.1532   79.6080  224.2856 H   0  0  0  0  0  0  0  0  0  0  0  0
  143.4673   79.9301  222.5976 H   0  0  0  0  0  0  0  0  0  0  0  0
  141.9049   81.5750  224.6371 H   0  0  0  0  0  0  0  0  0  0  0  0
  142.9637   82.1702  223.3554 H   0  0  0  0  0  0  0  0  0  0  0  0
  140.2423   82.2491  223.1090 H   0  0  0  0  0  0  0  0  0  0  0  0
  141.2208   81.9701  221.6900 H   0  0  0  0  0  0  0  0  0  0  0  0
  140.3324   73.3651  223.6483 H   0  0  0  0  0  0  0  0  0  0  0  0
  1  2  1  0
  2  3  2  0
  3  4  1  0
  4  5  2  0
  5  6  1  0
  6  7  2  0
  6  8  1  0
  8  9  1  0
  9 10  1  0
 10 11  2  0
 11 12  1  0
 12 13  2  0
 13 14  1  0
 14 15  1  0
 15 16  2  0
 15 17  1  0
 17 18  1  0
 18 19  2  0
 19 20  1  0
 20 21  2  0
 21 22  1  0
 22 23  2  0
 22 24  1  0
 24 25  1  0
 25 26  1  0
 14 27  2  0
  9 28  2  0
  7  2  1  0
 27 10  1  0
 28  5  1  0
 23 18  1  0
 26 21  1  0
  1 29  1  0
  1 30  1  0
  1 31  1  0
  3 32  1  0
  4 33  1  0
  7 34  1  0
  8 35  1  0
  8 36  1  0
 11 37  1  0
 12 38  1  0
 13 39  1  0
 17 40  1  0
 19 41  1  0
 20 42  1  0
 23 43  1  0
 24 44  1  0
 24 45  1  0
 25 46  1  0
 25 47  1  0
 26 48  1  0
 26 49  1  0
 27 50  1  0
M  END
>  <smiles>  (15) 
Cc1ccc2c(c1)CC(c1cccc(C(=O)Nc3ccc4c(c3)CCC4)c1)=N2

>  <score_type>  (15) 
oracle

>  <origin>  (15) 
autodockgpu

>  <m_score__min__energy>  (15) 
-9.3399999999999999

>  <m_primary>  (15) 
energy

>  <rmsd>  (15) 
4.592221395183427

>  <m_score__min__rmsd>  (15) 
4.592221395183427

>  <meeko>  (15) 
{"free_energy": -9.31, "intermolecular_energy": -10.2, "internal_energy": -0.76, "cluster_size": 50, "cluster_id": 1, "rank_in_cluster": 35}

>  <energy>  (15) 
-9.32

>  <cluster_rmsd>  (15) 
0.06

>  <cluster>  (15) 
1

$$$$

     RDKit          3D

 50 54  0  0  0  0  0  0  0  0999 V2000
  141.0640   68.1450  228.9450 C   0  0  0  0  0  0  0  0  0  0  0  0
  140.6130   68.4770  227.5850 C   0  0  0  0  0  0  0  0  0  0  0  0
  139.8540   67.5670  226.8650 C   0  0  0  0  0  0  0  0  0  0  0  0
  139.4320   67.8820  225.5870 C   0  0  0  0  0  0  0  0  0  0  0  0
  139.7740   69.1030  225.0450 C   0  0  0  0  0  0  0  0  0  0  0  0
  140.5230   70.0210  225.7360 C   0  0  0  0  0  0  0  0  0  0  0  0
  140.9360   69.6940  227.0060 C   0  0  0  0  0  0  0  0  0  0  0  0
  140.6870   71.2030  224.8390 C   0  0  0  0  0  0  0  0  0  0  0  0
  139.9390   70.7970  223.6080 C   0  0  0  0  0  0  0  0  0  0  0  0
  139.8250   71.6560  222.4340 C   0  0  0  0  0  0  0  0  0  0  0  0
  139.4950   71.1820  221.1840 C   0  0  0  0  0  0  0  0  0  0  0  0
  139.4040   72.0480  220.1180 C   0  0  0  0  0  0  0  0  0  0  0  0
  139.6390   73.3980  220.2650 C   0  0  0  0  0  0  0  0  0  0  0  0
  139.9710   73.8970  221.5080 C   0  0  0  0  0  0  0  0  0  0  0  0
  140.2130   75.3280  221.6310 C   0  0  0  0  0  0  0  0  0  0  0  0
  140.8890   75.8890  220.7310 O   0  0  0  0  0  0  0  0  0  0  0  0
  139.7230   76.1100  222.7120 N   0  0  0  0  0  0  0  0  0  0  0  0
  140.0450   77.5010  222.6910 C   0  0  0  0  0  0  0  0  0  0  0  0
  139.0720   78.3750  222.2350 C   0  0  0  0  0  0  0  0  0  0  0  0
  139.3170   79.7360  222.1870 C   0  0  0  0  0  0  0  0  0  0  0  0
  140.5550   80.2020  222.6070 C   0  0  0  0  0  0  0  0  0  0  0  0
  141.5100   79.3150  223.0590 C   0  0  0  0  0  0  0  0  0  0  0  0
  141.2760   77.9580  223.1090 C   0  0  0  0  0  0  0  0  0  0  0  0
  142.7440   80.0860  223.4450 C   0  0  0  0  0  0  0  0  0  0  0  0
  142.2110   81.4930  223.6120 C   0  0  0  0  0  0  0  0  0  0  0  0
  141.0460   81.5920  222.6500 C   0  0  0  0  0  0  0  0  0  0  0  0
  140.0590   73.0180  222.5660 C   0  0  0  0  0  0  0  0  0  0  0  0
  139.4420   69.6150  223.7590 N   0  0  0  0  0  0  0  0  0  0  0  0
  140.4041   68.6308  229.6789 H   0  0  0  0  0  0  0  0  0  0  0  0
  141.0301   67.0547  229.0866 H   0  0  0  0  0  0  0  0  0  0  0  0
  142.0950   68.5013  229.0866 H   0  0  0  0  0  0  0  0  0  0  0  0
  139.5883   66.5967  227.3098 H   0  0  0  0  0  0  0  0  0  0  0  0
  138.8297   67.1662  225.0084 H   0  0  0  0  0  0  0  0  0  0  0  0
  141.5379   70.4164  227.5768 H   0  0  0  0  0  0  0  0  0  0  0  0
  140.2474   72.1052  225.2893 H   0  0  0  0  0  0  0  0  0  0  0  0
  141.7394   71.4563  224.6433 H   0  0  0  0  0  0  0  0  0  0  0  0
  139.3036   70.1088  221.0370 H   0  0  0  0  0  0  0  0  0  0  0  0
  139.1377   71.6536  219.1263 H   0  0  0  0  0  0  0  0  0  0  0  0
  139.5626   74.0719  219.3990 H   0  0  0  0  0  0  0  0  0  0  0  0
  139.1610   75.6620  223.4680 H   0  0  0  0  0  0  0  0  0  0  0  0
  138.0970   77.9841  221.9085 H   0  0  0  0  0  0  0  0  0  0  0  0
  138.5475   80.4332  221.8240 H   0  0  0  0  0  0  0  0  0  0  0  0
  142.0470   77.2619  223.4709 H   0  0  0  0  0  0  0  0  0  0  0  0
  143.1710   79.7082  224.3857 H   0  0  0  0  0  0  0  0  0  0  0  0
  143.5577   80.0093  222.7088 H   0  0  0  0  0  0  0  0  0  0  0  0
  141.8729   81.6574  224.6457 H   0  0  0  0  0  0  0  0  0  0  0  0
  142.9804   82.2516  223.4059 H   0  0  0  0  0  0  0  0  0  0  0  0
  140.2728   82.2761  223.0298 H   0  0  0  0  0  0  0  0  0  0  0  0
  141.3223   81.9923  221.6634 H   0  0  0  0  0  0  0  0  0  0  0  0
  140.3261   73.4126  223.5574 H   0  0  0  0  0  0  0  0  0  0  0  0
  1  2  1  0
  2  3  2  0
  3  4  1  0
  4  5  2  0
  5  6  1  0
  6  7  2  0
  6  8  1  0
  8  9  1  0
  9 10  1  0
 10 11  2  0
 11 12  1  0
 12 13  2  0
 13 14  1  0
 14 15  1  0
 15 16  2  0
 15 17  1  0
 17 18  1  0
 18 19  2  0
 19 20  1  0
 20 21  2  0
 21 22  1  0
 22 23  2  0
 22 24  1  0
 24 25  1  0
 25 26  1  0
 14 27  2  0
  9 28  2  0
  7  2  1  0
 27 10  1  0
 28  5  1  0
 23 18  1  0
 26 21  1  0
  1 29  1  0
  1 30  1  0
  1 31  1  0
  3 32  1  0
  4 33  1  0
  7 34  1  0
  8 35  1  0
  8 36  1  0
 11 37  1  0
 12 38  1  0
 13 39  1  0
 17 40  1  0
 19 41  1  0
 20 42  1  0
 23 43  1  0
 24 44  1  0
 24 45  1  0
 25 46  1  0
 25 47  1  0
 26 48  1  0
 26 49  1  0
 27 50  1  0
M  END
>  <smiles>  (16) 
Cc1ccc2c(c1)CC(c1cccc(C(=O)Nc3ccc4c(c3)CCC4)c1)=N2

>  <score_type>  (16) 
oracle

>  <origin>  (16) 
autodockgpu

>  <m_score__min__energy>  (16) 
-9.3399999999999999

>  <m_primary>  (16) 
energy

>  <rmsd>  (16) 
4.521616054873094

>  <m_score__min__rmsd>  (16) 
4.521616054873094

>  <meeko>  (16) 
{"free_energy": -9.33, "intermolecular_energy": -10.23, "internal_energy": -0.77, "cluster_size": 50, "cluster_id": 1, "rank_in_cluster": 2}

>  <energy>  (16) 
-9.32

>  <cluster_rmsd>  (16) 
0.04

>  <cluster>  (16) 
1

$$$$

     RDKit          3D

 50 54  0  0  0  0  0  0  0  0999 V2000
  141.1390   68.1880  228.9800 C   0  0  0  0  0  0  0  0  0  0  0  0
  140.6730   68.5060  227.6210 C   0  0  0  0  0  0  0  0  0  0  0  0
  139.9160   67.5850  226.9150 C   0  0  0  0  0  0  0  0  0  0  0  0
  139.4800   67.8880  225.6390 C   0  0  0  0  0  0  0  0  0  0  0  0
  139.8070   69.1080  225.0850 C   0  0  0  0  0  0  0  0  0  0  0  0
  140.5550   70.0360  225.7630 C   0  0  0  0  0  0  0  0  0  0  0  0
  140.9820   69.7220  227.0310 C   0  0  0  0  0  0  0  0  0  0  0  0
  140.7020   71.2140  224.8560 C   0  0  0  0  0  0  0  0  0  0  0  0
  139.9460   70.7930  223.6350 C   0  0  0  0  0  0  0  0  0  0  0  0
  139.8140   71.6430  222.4560 C   0  0  0  0  0  0  0  0  0  0  0  0
  139.4630   71.1600  221.2150 C   0  0  0  0  0  0  0  0  0  0  0  0
  139.3570   72.0170  220.1430 C   0  0  0  0  0  0  0  0  0  0  0  0
  139.5970   73.3680  220.2760 C   0  0  0  0  0  0  0  0  0  0  0  0
  139.9500   73.8760  221.5090 C   0  0  0  0  0  0  0  0  0  0  0  0
  140.1980   75.3080  221.6160 C   0  0  0  0  0  0  0  0  0  0  0  0
  140.8430   75.8630  220.6910 O   0  0  0  0  0  0  0  0  0  0  0  0
  139.7450   76.0960  222.7090 N   0  0  0  0  0  0  0  0  0  0  0  0
  140.0660   77.4860  222.6700 C   0  0  0  0  0  0  0  0  0  0  0  0
  139.1130   78.3490  222.1550 C   0  0  0  0  0  0  0  0  0  0  0  0
  139.3590   79.7080  222.0870 C   0  0  0  0  0  0  0  0  0  0  0  0
  140.5790   80.1850  222.5470 C   0  0  0  0  0  0  0  0  0  0  0  0
  141.5150   79.3100  223.0570 C   0  0  0  0  0  0  0  0  0  0  0  0
  141.2800   77.9540  223.1280 C   0  0  0  0  0  0  0  0  0  0  0  0
  142.7320   80.0900  223.4760 C   0  0  0  0  0  0  0  0  0  0  0  0
  142.1930   81.5000  223.5890 C   0  0  0  0  0  0  0  0  0  0  0  0
  141.0680   81.5760  222.5790 C   0  0  0  0  0  0  0  0  0  0  0  0
  140.0530   73.0050  222.5720 C   0  0  0  0  0  0  0  0  0  0  0  0
  139.4600   69.6080  223.7980 N   0  0  0  0  0  0  0  0  0  0  0  0
  140.4639   68.6487  229.7163 H   0  0  0  0  0  0  0  0  0  0  0  0
  141.1445   67.0969  229.1198 H   0  0  0  0  0  0  0  0  0  0  0  0
  142.1570   68.5807  229.1198 H   0  0  0  0  0  0  0  0  0  0  0  0
  139.6628   66.6155  227.3687 H   0  0  0  0  0  0  0  0  0  0  0  0
  138.8782   67.1634  225.0709 H   0  0  0  0  0  0  0  0  0  0  0  0
  141.5834   70.4530  227.5913 H   0  0  0  0  0  0  0  0  0  0  0  0
  140.2594   72.1159  225.3040 H   0  0  0  0  0  0  0  0  0  0  0  0
  141.7505   71.4745  224.6491 H   0  0  0  0  0  0  0  0  0  0  0  0
  139.2667   70.0861  221.0800 H   0  0  0  0  0  0  0  0  0  0  0  0
  139.0746   71.6151  219.1588 H   0  0  0  0  0  0  0  0  0  0  0  0
  139.5078   74.0354  219.4061 H   0  0  0  0  0  0  0  0  0  0  0  0
  139.2070   75.6520  223.4860 H   0  0  0  0  0  0  0  0  0  0  0  0
  138.1524   77.9500  221.7971 H   0  0  0  0  0  0  0  0  0  0  0  0
  138.6047   80.3960  221.6775 H   0  0  0  0  0  0  0  0  0  0  0  0
  142.0359   77.2672  223.5366 H   0  0  0  0  0  0  0  0  0  0  0  0
  143.1196   79.7338  224.4418 H   0  0  0  0  0  0  0  0  0  0  0  0
  143.5754   79.9972  222.7759 H   0  0  0  0  0  0  0  0  0  0  0  0
  141.8135   81.6878  224.6042 H   0  0  0  0  0  0  0  0  0  0  0  0
  142.9702   82.2543  223.3968 H   0  0  0  0  0  0  0  0  0  0  0  0
  140.2800   82.2676  222.9118 H   0  0  0  0  0  0  0  0  0  0  0  0
  141.3841   81.9542  221.5956 H   0  0  0  0  0  0  0  0  0  0  0  0
  140.3371   73.4071  223.5557 H   0  0  0  0  0  0  0  0  0  0  0  0
  1  2  1  0
  2  3  2  0
  3  4  1  0
  4  5  2  0
  5  6  1  0
  6  7  2  0
  6  8  1  0
  8  9  1  0
  9 10  1  0
 10 11  2  0
 11 12  1  0
 12 13  2  0
 13 14  1  0
 14 15  1  0
 15 16  2  0
 15 17  1  0
 17 18  1  0
 18 19  2  0
 19 20  1  0
 20 21  2  0
 21 22  1  0
 22 23  2  0
 22 24  1  0
 24 25  1  0
 25 26  1  0
 14 27  2  0
  9 28  2  0
  7  2  1  0
 27 10  1  0
 28  5  1  0
 23 18  1  0
 26 21  1  0
  1 29  1  0
  1 30  1  0
  1 31  1  0
  3 32  1  0
  4 33  1  0
  7 34  1  0
  8 35  1  0
  8 36  1  0
 11 37  1  0
 12 38  1  0
 13 39  1  0
 17 40  1  0
 19 41  1  0
 20 42  1  0
 23 43  1  0
 24 44  1  0
 24 45  1  0
 25 46  1  0
 25 47  1  0
 26 48  1  0
 26 49  1  0
 27 50  1  0
M  END
>  <smiles>  (17) 
Cc1ccc2c(c1)CC(c1cccc(C(=O)Nc3ccc4c(c3)CCC4)c1)=N2

>  <score_type>  (17) 
oracle

>  <origin>  (17) 
autodockgpu

>  <m_score__min__energy>  (17) 
-9.3399999999999999

>  <m_primary>  (17) 
energy

>  <rmsd>  (17) 
4.519582835592029

>  <m_score__min__rmsd>  (17) 
4.519582835592029

>  <meeko>  (17) 
{"free_energy": -9.29, "intermolecular_energy": -10.18, "internal_energy": -0.77, "cluster_size": 50, "cluster_id": 1, "rank_in_cluster": 48}

>  <energy>  (17) 
-9.32

>  <cluster_rmsd>  (17) 
0.06

>  <cluster>  (17) 
1

$$$$

     RDKit          3D

 50 54  0  0  0  0  0  0  0  0999 V2000
  141.0350   68.1540  228.9590 C   0  0  0  0  0  0  0  0  0  0  0  0
  140.5820   68.4870  227.6000 C   0  0  0  0  0  0  0  0  0  0  0  0
  139.8040   67.5880  226.8890 C   0  0  0  0  0  0  0  0  0  0  0  0
  139.3800   67.9050  225.6120 C   0  0  0  0  0  0  0  0  0  0  0  0
  139.7400   69.1170  225.0620 C   0  0  0  0  0  0  0  0  0  0  0  0
  140.5100   70.0250  225.7450 C   0  0  0  0  0  0  0  0  0  0  0  0
  140.9250   69.6960  227.0140 C   0  0  0  0  0  0  0  0  0  0  0  0
  140.6900   71.2000  224.8410 C   0  0  0  0  0  0  0  0  0  0  0  0
  139.9280   70.8020  223.6170 C   0  0  0  0  0  0  0  0  0  0  0  0
  139.8220   71.6580  222.4400 C   0  0  0  0  0  0  0  0  0  0  0  0
  139.5040   71.1800  221.1880 C   0  0  0  0  0  0  0  0  0  0  0  0
  139.4210   72.0430  220.1180 C   0  0  0  0  0  0  0  0  0  0  0  0
  139.6520   73.3940  220.2650 C   0  0  0  0  0  0  0  0  0  0  0  0
  139.9720   73.8970  221.5090 C   0  0  0  0  0  0  0  0  0  0  0  0
  140.2100   75.3290  221.6300 C   0  0  0  0  0  0  0  0  0  0  0  0
  140.8830   75.8910  220.7300 O   0  0  0  0  0  0  0  0  0  0  0  0
  139.7180   76.1110  222.7110 N   0  0  0  0  0  0  0  0  0  0  0  0
  140.0350   77.5020  222.6880 C   0  0  0  0  0  0  0  0  0  0  0  0
  139.0620   78.3720  222.2240 C   0  0  0  0  0  0  0  0  0  0  0  0
  139.3030   79.7340  222.1750 C   0  0  0  0  0  0  0  0  0  0  0  0
  140.5370   80.2050  222.6010 C   0  0  0  0  0  0  0  0  0  0  0  0
  141.4920   79.3220  223.0600 C   0  0  0  0  0  0  0  0  0  0  0  0
  141.2620   77.9640  223.1120 C   0  0  0  0  0  0  0  0  0  0  0  0
  142.7220   80.0970  223.4510 C   0  0  0  0  0  0  0  0  0  0  0  0
  142.1840   81.5030  223.6110 C   0  0  0  0  0  0  0  0  0  0  0  0
  141.0240   81.5960  222.6430 C   0  0  0  0  0  0  0  0  0  0  0  0
  140.0520   73.0200  222.5700 C   0  0  0  0  0  0  0  0  0  0  0  0
  139.4100   69.6300  223.7760 N   0  0  0  0  0  0  0  0  0  0  0  0
  140.3758   68.6386  229.6943 H   0  0  0  0  0  0  0  0  0  0  0  0
  141.0021   67.0635  229.0996 H   0  0  0  0  0  0  0  0  0  0  0  0
  142.0660   68.5108  229.0996 H   0  0  0  0  0  0  0  0  0  0  0  0
  139.5243   66.6242  227.3395 H   0  0  0  0  0  0  0  0  0  0  0  0
  138.7616   67.1974  225.0403 H   0  0  0  0  0  0  0  0  0  0  0  0
  141.5441   70.4092  227.5780 H   0  0  0  0  0  0  0  0  0  0  0  0
  140.2694   72.1121  225.2895 H   0  0  0  0  0  0  0  0  0  0  0  0
  141.7456   71.4333  224.6379 H   0  0  0  0  0  0  0  0  0  0  0  0
  139.3158   70.1060  221.0424 H   0  0  0  0  0  0  0  0  0  0  0  0
  139.1649   71.6457  219.1247 H   0  0  0  0  0  0  0  0  0  0  0  0
  139.5817   74.0659  219.3969 H   0  0  0  0  0  0  0  0  0  0  0  0
  139.1570   75.6620  223.4680 H   0  0  0  0  0  0  0  0  0  0  0  0
  138.0904   77.9773  221.8920 H   0  0  0  0  0  0  0  0  0  0  0  0
  138.5333   80.4280  221.8065 H   0  0  0  0  0  0  0  0  0  0  0  0
  142.0331   77.2713  223.4801 H   0  0  0  0  0  0  0  0  0  0  0  0
  143.1445   79.7229  224.3952 H   0  0  0  0  0  0  0  0  0  0  0  0
  143.5403   80.0204  222.7199 H   0  0  0  0  0  0  0  0  0  0  0  0
  141.8401   81.6695  224.6425 H   0  0  0  0  0  0  0  0  0  0  0  0
  142.9523   82.2632  223.4065 H   0  0  0  0  0  0  0  0  0  0  0  0
  140.2470   82.2789  223.0170 H   0  0  0  0  0  0  0  0  0  0  0  0
  141.3044   81.9943  221.6567 H   0  0  0  0  0  0  0  0  0  0  0  0
  140.3094   73.4176  223.5628 H   0  0  0  0  0  0  0  0  0  0  0  0
  1  2  1  0
  2  3  2  0
  3  4  1  0
  4  5  2  0
  5  6  1  0
  6  7  2  0
  6  8  1  0
  8  9  1  0
  9 10  1  0
 10 11  2  0
 11 12  1  0
 12 13  2  0
 13 14  1  0
 14 15  1  0
 15 16  2  0
 15 17  1  0
 17 18  1  0
 18 19  2  0
 19 20  1  0
 20 21  2  0
 21 22  1  0
 22 23  2  0
 22 24  1  0
 24 25  1  0
 25 26  1  0
 14 27  2  0
  9 28  2  0
  7  2  1  0
 27 10  1  0
 28  5  1  0
 23 18  1  0
 26 21  1  0
  1 29  1  0
  1 30  1  0
  1 31  1  0
  3 32  1  0
  4 33  1  0
  7 34  1  0
  8 35  1  0
  8 36  1  0
 11 37  1  0
 12 38  1  0
 13 39  1  0
 17 40  1  0
 19 41  1  0
 20 42  1  0
 23 43  1  0
 24 44  1  0
 24 45  1  0
 25 46  1  0
 25 47  1  0
 26 48  1  0
 26 49  1  0
 27 50  1  0
M  END
>  <smiles>  (18) 
Cc1ccc2c(c1)CC(c1cccc(C(=O)Nc3ccc4c(c3)CCC4)c1)=N2

>  <score_type>  (18) 
oracle

>  <origin>  (18) 
autodockgpu

>  <m_score__min__energy>  (18) 
-9.3399999999999999

>  <m_primary>  (18) 
energy

>  <rmsd>  (18) 
4.518660042469932

>  <m_score__min__rmsd>  (18) 
4.518660042469932

>  <meeko>  (18) 
{"free_energy": -9.31, "intermolecular_energy": -10.21, "internal_energy": -0.77, "cluster_size": 50, "cluster_id": 1, "rank_in_cluster": 26}

>  <energy>  (18) 
-9.32

>  <cluster_rmsd>  (18) 
0.04

>  <cluster>  (18) 
1

$$$$

     RDKit          3D

 50 54  0  0  0  0  0  0  0  0999 V2000
  141.1390   68.1400  228.9740 C   0  0  0  0  0  0  0  0  0  0  0  0
  140.6690   68.4600  227.6170 C   0  0  0  0  0  0  0  0  0  0  0  0
  139.9630   67.5160  226.8880 C   0  0  0  0  0  0  0  0  0  0  0  0
  139.5230   67.8200  225.6140 C   0  0  0  0  0  0  0  0  0  0  0  0
  139.7940   69.0640  225.0840 C   0  0  0  0  0  0  0  0  0  0  0  0
  140.4910   70.0160  225.7850 C   0  0  0  0  0  0  0  0  0  0  0  0
  140.9230   69.7000  227.0510 C   0  0  0  0  0  0  0  0  0  0  0  0
  140.5880   71.2150  224.9000 C   0  0  0  0  0  0  0  0  0  0  0  0
  139.8630   70.7800  223.6660 C   0  0  0  0  0  0  0  0  0  0  0  0
  139.6990   71.6440  222.5010 C   0  0  0  0  0  0  0  0  0  0  0  0
  139.2970   71.1780  221.2690 C   0  0  0  0  0  0  0  0  0  0  0  0
  139.1630   72.0480  220.2100 C   0  0  0  0  0  0  0  0  0  0  0  0
  139.4250   73.3940  220.3480 C   0  0  0  0  0  0  0  0  0  0  0  0
  139.8290   73.8850  221.5720 C   0  0  0  0  0  0  0  0  0  0  0  0
  140.0980   75.3120  221.6840 C   0  0  0  0  0  0  0  0  0  0  0  0
  140.8640   75.8340  220.8360 O   0  0  0  0  0  0  0  0  0  0  0  0
  139.5360   76.1320  222.7010 N   0  0  0  0  0  0  0  0  0  0  0  0
  139.8950   77.5130  222.6780 C   0  0  0  0  0  0  0  0  0  0  0  0
  138.9390   78.4160  222.2440 C   0  0  0  0  0  0  0  0  0  0  0  0
  139.2200   79.7700  222.1970 C   0  0  0  0  0  0  0  0  0  0  0  0
  140.4780   80.2000  222.5930 C   0  0  0  0  0  0  0  0  0  0  0  0
  141.4170   79.2850  223.0220 C   0  0  0  0  0  0  0  0  0  0  0  0
  141.1470   77.9340  223.0730 C   0  0  0  0  0  0  0  0  0  0  0  0
  142.6800   80.0200  223.3870 C   0  0  0  0  0  0  0  0  0  0  0  0
  142.1900   81.4400  223.5680 C   0  0  0  0  0  0  0  0  0  0  0  0
  141.0090   81.5750  222.6310 C   0  0  0  0  0  0  0  0  0  0  0  0
  139.9590   73.0020  222.6220 C   0  0  0  0  0  0  0  0  0  0  0  0
  139.4330   69.5710  223.8040 N   0  0  0  0  0  0  0  0  0  0  0  0
  140.4655   68.5986  229.7130 H   0  0  0  0  0  0  0  0  0  0  0  0
  141.1460   67.0487  229.1118 H   0  0  0  0  0  0  0  0  0  0  0  0
  142.1569   68.5335  229.1118 H   0  0  0  0  0  0  0  0  0  0  0  0
  139.7535   66.5274  227.3225 H   0  0  0  0  0  0  0  0  0  0  0  0
  138.9620   67.0770  225.0282 H   0  0  0  0  0  0  0  0  0  0  0  0
  141.4839   70.4491  227.6292 H   0  0  0  0  0  0  0  0  0  0  0  0
  140.0990   72.0866  225.3596 H   0  0  0  0  0  0  0  0  0  0  0  0
  141.6243   71.5291  224.7066 H   0  0  0  0  0  0  0  0  0  0  0  0
  139.0824   70.1081  221.1305 H   0  0  0  0  0  0  0  0  0  0  0  0
  138.8398   71.6602  219.2327 H   0  0  0  0  0  0  0  0  0  0  0  0
  139.3128   74.0715  219.4887 H   0  0  0  0  0  0  0  0  0  0  0  0
  138.8980   75.7160  223.4150 H   0  0  0  0  0  0  0  0  0  0  0  0
  137.9477   78.0537  221.9340 H   0  0  0  0  0  0  0  0  0  0  0  0
  138.4625   80.4897  221.8532 H   0  0  0  0  0  0  0  0  0  0  0  0
  141.9055   77.2156  223.4175 H   0  0  0  0  0  0  0  0  0  0  0  0
  143.1138   79.6271  224.3184 H   0  0  0  0  0  0  0  0  0  0  0  0
  143.4773   79.9230  222.6354 H   0  0  0  0  0  0  0  0  0  0  0  0
  141.8780   81.6106  224.6089 H   0  0  0  0  0  0  0  0  0  0  0  0
  142.9760   82.1773  223.3475 H   0  0  0  0  0  0  0  0  0  0  0  0
  140.2633   82.2790  223.0290 H   0  0  0  0  0  0  0  0  0  0  0  0
  141.2764   81.9710  221.6402 H   0  0  0  0  0  0  0  0  0  0  0  0
  140.2830   73.3904  223.5988 H   0  0  0  0  0  0  0  0  0  0  0  0
  1  2  1  0
  2  3  2  0
  3  4  1  0
  4  5  2  0
  5  6  1  0
  6  7  2  0
  6  8  1  0
  8  9  1  0
  9 10  1  0
 10 11  2  0
 11 12  1  0
 12 13  2  0
 13 14  1  0
 14 15  1  0
 15 16  2  0
 15 17  1  0
 17 18  1  0
 18 19  2  0
 19 20  1  0
 20 21  2  0
 21 22  1  0
 22 23  2  0
 22 24  1  0
 24 25  1  0
 25 26  1  0
 14 27  2  0
  9 28  2  0
  7  2  1  0
 27 10  1  0
 28  5  1  0
 23 18  1  0
 26 21  1  0
  1 29  1  0
  1 30  1  0
  1 31  1  0
  3 32  1  0
  4 33  1  0
  7 34  1  0
  8 35  1  0
  8 36  1  0
 11 37  1  0
 12 38  1  0
 13 39  1  0
 17 40  1  0
 19 41  1  0
 20 42  1  0
 23 43  1  0
 24 44  1  0
 24 45  1  0
 25 46  1  0
 25 47  1  0
 26 48  1  0
 26 49  1  0
 27 50  1  0
M  END
>  <smiles>  (19) 
Cc1ccc2c(c1)CC(c1cccc(C(=O)Nc3ccc4c(c3)CCC4)c1)=N2

>  <score_type>  (19) 
oracle

>  <origin>  (19) 
autodockgpu

>  <m_score__min__energy>  (19) 
-9.3399999999999999

>  <m_primary>  (19) 
energy

>  <rmsd>  (19) 
4.5598924216642285

>  <m_score__min__rmsd>  (19) 
4.5598924216642285

>  <meeko>  (19) 
{"free_energy": -9.29, "intermolecular_energy": -10.18, "internal_energy": -0.77, "cluster_size": 50, "cluster_id": 1, "rank_in_cluster": 46}

>  <energy>  (19) 
-9.32

>  <cluster_rmsd>  (19) 
0.09

>  <cluster>  (19) 
1

$$$$

     RDKit          3D

 50 54  0  0  0  0  0  0  0  0999 V2000
  141.1530   68.1350  229.0430 C   0  0  0  0  0  0  0  0  0  0  0  0
  140.6950   68.4520  227.6820 C   0  0  0  0  0  0  0  0  0  0  0  0
  139.9870   67.5090  226.9530 C   0  0  0  0  0  0  0  0  0  0  0  0
  139.5580   67.8100  225.6730 C   0  0  0  0  0  0  0  0  0  0  0  0
  139.8410   69.0500  225.1400 C   0  0  0  0  0  0  0  0  0  0  0  0
  140.5390   70.0000  225.8400 C   0  0  0  0  0  0  0  0  0  0  0  0
  140.9610   69.6870  227.1110 C   0  0  0  0  0  0  0  0  0  0  0  0
  140.6500   71.1940  224.9500 C   0  0  0  0  0  0  0  0  0  0  0  0
  139.9310   70.7580  223.7130 C   0  0  0  0  0  0  0  0  0  0  0  0
  139.7820   71.6170  222.5430 C   0  0  0  0  0  0  0  0  0  0  0  0
  139.4040   71.1440  221.3060 C   0  0  0  0  0  0  0  0  0  0  0  0
  139.2820   72.0100  220.2420 C   0  0  0  0  0  0  0  0  0  0  0  0
  139.5320   73.3590  220.3800 C   0  0  0  0  0  0  0  0  0  0  0  0
  139.9110   73.8560  221.6090 C   0  0  0  0  0  0  0  0  0  0  0  0
  140.1670   75.2860  221.7220 C   0  0  0  0  0  0  0  0  0  0  0  0
  140.9540   75.8090  220.8920 O   0  0  0  0  0  0  0  0  0  0  0  0
  139.5720   76.1070  222.7190 N   0  0  0  0  0  0  0  0  0  0  0  0
  139.9230   77.4900  222.6990 C   0  0  0  0  0  0  0  0  0  0  0  0
  138.9570   78.3890  222.2770 C   0  0  0  0  0  0  0  0  0  0  0  0
  139.2300   79.7440  222.2330 C   0  0  0  0  0  0  0  0  0  0  0  0
  140.4890   80.1800  222.6200 C   0  0  0  0  0  0  0  0  0  0  0  0
  141.4370   79.2690  223.0370 C   0  0  0  0  0  0  0  0  0  0  0  0
  141.1760   77.9170  223.0840 C   0  0  0  0  0  0  0  0  0  0  0  0
  142.6990   80.0100  223.3930 C   0  0  0  0  0  0  0  0  0  0  0  0
  142.2020   81.4270  223.5850 C   0  0  0  0  0  0  0  0  0  0  0  0
  141.0120   81.5590  222.6590 C   0  0  0  0  0  0  0  0  0  0  0  0
  140.0290   72.9770  222.6640 C   0  0  0  0  0  0  0  0  0  0  0  0
  139.4930   69.5520  223.8550 N   0  0  0  0  0  0  0  0  0  0  0  0
  140.4780   68.6022  229.7752 H   0  0  0  0  0  0  0  0  0  0  0  0
  141.1506   67.0443  229.1859 H   0  0  0  0  0  0  0  0  0  0  0  0
  142.1730   68.5213  229.1859 H   0  0  0  0  0  0  0  0  0  0  0  0
  139.7671   66.5243  227.3913 H   0  0  0  0  0  0  0  0  0  0  0  0
  138.9968   67.0679  225.0862 H   0  0  0  0  0  0  0  0  0  0  0  0
  141.5235   70.4351  227.6888 H   0  0  0  0  0  0  0  0  0  0  0  0
  140.1635   72.0709  225.4020 H   0  0  0  0  0  0  0  0  0  0  0  0
  141.6897   71.5003  224.7625 H   0  0  0  0  0  0  0  0  0  0  0  0
  139.1991   70.0722  221.1675 H   0  0  0  0  0  0  0  0  0  0  0  0
  138.9784   71.6168  219.2605 H   0  0  0  0  0  0  0  0  0  0  0  0
  139.4299   74.0331  219.5167 H   0  0  0  0  0  0  0  0  0  0  0  0
  138.9170   75.6900  223.4160 H   0  0  0  0  0  0  0  0  0  0  0  0
  137.9651   78.0221  221.9745 H   0  0  0  0  0  0  0  0  0  0  0  0
  138.4655   80.4606  221.8984 H   0  0  0  0  0  0  0  0  0  0  0  0
  141.9422   77.2018  223.4177 H   0  0  0  0  0  0  0  0  0  0  0  0
  143.1442   79.6158  224.3184 H   0  0  0  0  0  0  0  0  0  0  0  0
  143.4896   79.9211  222.6333 H   0  0  0  0  0  0  0  0  0  0  0  0
  141.8981   81.5910  224.6294 H   0  0  0  0  0  0  0  0  0  0  0  0
  142.9816   82.1700  223.3611 H   0  0  0  0  0  0  0  0  0  0  0  0
  140.2656   82.2567  223.0666 H   0  0  0  0  0  0  0  0  0  0  0  0
  141.2680   81.9610  221.6676 H   0  0  0  0  0  0  0  0  0  0  0  0
  140.3324   73.3710  223.6452 H   0  0  0  0  0  0  0  0  0  0  0  0
  1  2  1  0
  2  3  2  0
  3  4  1  0
  4  5  2  0
  5  6  1  0
  6  7  2  0
  6  8  1  0
  8  9  1  0
  9 10  1  0
 10 11  2  0
 11 12  1  0
 12 13  2  0
 13 14  1  0
 14 15  1  0
 15 16  2  0
 15 17  1  0
 17 18  1  0
 18 19  2  0
 19 20  1  0
 20 21  2  0
 21 22  1  0
 22 23  2  0
 22 24  1  0
 24 25  1  0
 25 26  1  0
 14 27  2  0
  9 28  2  0
  7  2  1  0
 27 10  1  0
 28  5  1  0
 23 18  1  0
 26 21  1  0
  1 29  1  0
  1 30  1  0
  1 31  1  0
  3 32  1  0
  4 33  1  0
  7 34  1  0
  8 35  1  0
  8 36  1  0
 11 37  1  0
 12 38  1  0
 13 39  1  0
 17 40  1  0
 19 41  1  0
 20 42  1  0
 23 43  1  0
 24 44  1  0
 24 45  1  0
 25 46  1  0
 25 47  1  0
 26 48  1  0
 26 49  1  0
 27 50  1  0
M  END
>  <smiles>  (20) 
Cc1ccc2c(c1)CC(c1cccc(C(=O)Nc3ccc4c(c3)CCC4)c1)=N2

>  <score_type>  (20) 
oracle

>  <origin>  (20) 
autodockgpu

>  <m_score__min__energy>  (20) 
-9.3399999999999999

>  <m_primary>  (20) 
energy

>  <rmsd>  (20) 
4.587574033176191

>  <m_score__min__rmsd>  (20) 
4.587574033176191

>  <meeko>  (20) 
{"free_energy": -9.31, "intermolecular_energy": -10.2, "internal_energy": -0.76, "cluster_size": 50, "cluster_id": 1, "rank_in_cluster": 36}

>  <energy>  (20) 
-9.32

>  <cluster_rmsd>  (20) 
0.04

>  <cluster>  (20) 
1

$$$$

     RDKit          3D

 50 54  0  0  0  0  0  0  0  0999 V2000
  141.0420   68.1320  229.0040 C   0  0  0  0  0  0  0  0  0  0  0  0
  140.5670   68.4890  227.6590 C   0  0  0  0  0  0  0  0  0  0  0  0
  139.6660   67.6660  227.0010 C   0  0  0  0  0  0  0  0  0  0  0  0
  139.2220   68.0050  225.7370 C   0  0  0  0  0  0  0  0  0  0  0  0
  139.6830   69.1630  225.1460 C   0  0  0  0  0  0  0  0  0  0  0  0
  140.5740   69.9950  225.7760 C   0  0  0  0  0  0  0  0  0  0  0  0
  141.0080   69.6450  227.0330 C   0  0  0  0  0  0  0  0  0  0  0  0
  140.8370   71.1290  224.8410 C   0  0  0  0  0  0  0  0  0  0  0  0
  139.9820   70.7940  223.6590 C   0  0  0  0  0  0  0  0  0  0  0  0
  139.9150   71.6370  222.4690 C   0  0  0  0  0  0  0  0  0  0  0  0
  139.6480   71.1430  221.2110 C   0  0  0  0  0  0  0  0  0  0  0  0
  139.6000   71.9940  220.1300 C   0  0  0  0  0  0  0  0  0  0  0  0
  139.8150   73.3490  220.2710 C   0  0  0  0  0  0  0  0  0  0  0  0
  140.0830   73.8670  221.5210 C   0  0  0  0  0  0  0  0  0  0  0  0
  140.3050   75.3020  221.6350 C   0  0  0  0  0  0  0  0  0  0  0  0
  141.0070   75.8600  220.7540 O   0  0  0  0  0  0  0  0  0  0  0  0
  139.7680   76.0910  222.6890 N   0  0  0  0  0  0  0  0  0  0  0  0
  140.0750   77.4840  222.6630 C   0  0  0  0  0  0  0  0  0  0  0  0
  139.0920   78.3470  222.2070 C   0  0  0  0  0  0  0  0  0  0  0  0
  139.3230   79.7100  222.1550 C   0  0  0  0  0  0  0  0  0  0  0  0
  140.5570   80.1900  222.5710 C   0  0  0  0  0  0  0  0  0  0  0  0
  141.5220   79.3150  223.0230 C   0  0  0  0  0  0  0  0  0  0  0  0
  141.3020   77.9550  223.0780 C   0  0  0  0  0  0  0  0  0  0  0  0
  142.7490   80.0990  223.4050 C   0  0  0  0  0  0  0  0  0  0  0  0
  142.2020   81.5010  223.5680 C   0  0  0  0  0  0  0  0  0  0  0  0
  141.0340   81.5850  222.6090 C   0  0  0  0  0  0  0  0  0  0  0  0
  140.1290   73.0020  222.5930 C   0  0  0  0  0  0  0  0  0  0  0  0
  139.3520   69.6860  223.8650 N   0  0  0  0  0  0  0  0  0  0  0  0
  140.4021   68.6129  229.7585 H   0  0  0  0  0  0  0  0  0  0  0  0
  141.0000   67.0400  229.1298 H   0  0  0  0  0  0  0  0  0  0  0  0
  142.0792   68.4760  229.1298 H   0  0  0  0  0  0  0  0  0  0  0  0
  139.3055   66.7457  227.4838 H   0  0  0  0  0  0  0  0  0  0  0  0
  138.5078   67.3576  225.2072 H   0  0  0  0  0  0  0  0  0  0  0  0
  141.7227   70.2983  227.5549 H   0  0  0  0  0  0  0  0  0  0  0  0
  140.5361   72.0881  225.2878 H   0  0  0  0  0  0  0  0  0  0  0  0
  141.9012   71.2451  224.5880 H   0  0  0  0  0  0  0  0  0  0  0  0
  139.4728   70.0662  221.0700 H   0  0  0  0  0  0  0  0  0  0  0  0
  139.3855   71.5843  219.1319 H   0  0  0  0  0  0  0  0  0  0  0  0
  139.7731   74.0113  219.3937 H   0  0  0  0  0  0  0  0  0  0  0  0
  139.1830   75.6450  223.4290 H   0  0  0  0  0  0  0  0  0  0  0  0
  138.1203   77.9454  221.8838 H   0  0  0  0  0  0  0  0  0  0  0  0
  138.5456   80.3983  221.7919 H   0  0  0  0  0  0  0  0  0  0  0  0
  142.0806   77.2681  223.4414 H   0  0  0  0  0  0  0  0  0  0  0  0
  143.1808   79.7285  224.3464 H   0  0  0  0  0  0  0  0  0  0  0  0
  143.5627   80.0279  222.6683 H   0  0  0  0  0  0  0  0  0  0  0  0
  141.8648   81.6657  224.6020 H   0  0  0  0  0  0  0  0  0  0  0  0
  142.9632   82.2665  223.3570 H   0  0  0  0  0  0  0  0  0  0  0  0
  140.2548   82.2622  222.9888 H   0  0  0  0  0  0  0  0  0  0  0  0
  141.3038   81.9851  221.6205 H   0  0  0  0  0  0  0  0  0  0  0  0
  140.3449   73.4120  223.5907 H   0  0  0  0  0  0  0  0  0  0  0  0
  1  2  1  0
  2  3  2  0
  3  4  1  0
  4  5  2  0
  5  6  1  0
  6  7  2  0
  6  8  1  0
  8  9  1  0
  9 10  1  0
 10 11  2  0
 11 12  1  0
 12 13  2  0
 13 14  1  0
 14 15  1  0
 15 16  2  0
 15 17  1  0
 17 18  1  0
 18 19  2  0
 19 20  1  0
 20 21  2  0
 21 22  1  0
 22 23  2  0
 22 24  1  0
 24 25  1  0
 25 26  1  0
 14 27  2  0
  9 28  2  0
  7  2  1  0
 27 10  1  0
 28  5  1  0
 23 18  1  0
 26 21  1  0
  1 29  1  0
  1 30  1  0
  1 31  1  0
  3 32  1  0
  4 33  1  0
  7 34  1  0
  8 35  1  0
  8 36  1  0
 11 37  1  0
 12 38  1  0
 13 39  1  0
 17 40  1  0
 19 41  1  0
 20 42  1  0
 23 43  1  0
 24 44  1  0
 24 45  1  0
 25 46  1  0
 25 47  1  0
 26 48  1  0
 26 49  1  0
 27 50  1  0
M  END
>  <smiles>  (21) 
Cc1ccc2c(c1)CC(c1cccc(C(=O)Nc3ccc4c(c3)CCC4)c1)=N2

>  <score_type>  (21) 
oracle

>  <origin>  (21) 
autodockgpu

>  <m_score__min__energy>  (21) 
-9.3399999999999999

>  <m_primary>  (21) 
energy

>  <rmsd>  (21) 
4.5309811180786355

>  <m_score__min__rmsd>  (21) 
4.5309811180786355

>  <meeko>  (21) 
{"free_energy": -9.29, "intermolecular_energy": -10.18, "internal_energy": -0.77, "cluster_size": 50, "cluster_id": 1, "rank_in_cluster": 49}

>  <energy>  (21) 
-9.32

>  <cluster_rmsd>  (21) 
0.09

>  <cluster>  (21) 
1

$$$$

     RDKit          3D

 50 54  0  0  0  0  0  0  0  0999 V2000
  141.1720   68.1420  228.9510 C   0  0  0  0  0  0  0  0  0  0  0  0
  140.7030   68.4510  227.5910 C   0  0  0  0  0  0  0  0  0  0  0  0
  139.9760   67.5100  226.8780 C   0  0  0  0  0  0  0  0  0  0  0  0
  139.5370   67.8040  225.6010 C   0  0  0  0  0  0  0  0  0  0  0  0
  139.8300   69.0340  225.0520 C   0  0  0  0  0  0  0  0  0  0  0  0
  140.5470   69.9820  225.7360 C   0  0  0  0  0  0  0  0  0  0  0  0
  140.9780   69.6770  227.0060 C   0  0  0  0  0  0  0  0  0  0  0  0
  140.6640   71.1670  224.8330 C   0  0  0  0  0  0  0  0  0  0  0  0
  139.9260   70.7270  223.6080 C   0  0  0  0  0  0  0  0  0  0  0  0
  139.7750   71.5770  222.4310 C   0  0  0  0  0  0  0  0  0  0  0  0
  139.3930   71.0940  221.1990 C   0  0  0  0  0  0  0  0  0  0  0  0
  139.2690   71.9510  220.1280 C   0  0  0  0  0  0  0  0  0  0  0  0
  139.5220   73.3000  220.2530 C   0  0  0  0  0  0  0  0  0  0  0  0
  139.9060   73.8070  221.4780 C   0  0  0  0  0  0  0  0  0  0  0  0
  140.1660   75.2370  221.5770 C   0  0  0  0  0  0  0  0  0  0  0  0
  140.8000   75.7860  220.6400 O   0  0  0  0  0  0  0  0  0  0  0  0
  139.7380   76.0310  222.6760 N   0  0  0  0  0  0  0  0  0  0  0  0
  140.0690   77.4190  222.6290 C   0  0  0  0  0  0  0  0  0  0  0  0
  139.1350   78.2810  222.0800 C   0  0  0  0  0  0  0  0  0  0  0  0
  139.3910   79.6380  222.0020 C   0  0  0  0  0  0  0  0  0  0  0  0
  140.6020   80.1130  222.4850 C   0  0  0  0  0  0  0  0  0  0  0  0
  141.5190   79.2380  223.0290 C   0  0  0  0  0  0  0  0  0  0  0  0
  141.2740   77.8840  223.1110 C   0  0  0  0  0  0  0  0  0  0  0  0
  142.7310   80.0170  223.4680 C   0  0  0  0  0  0  0  0  0  0  0  0
  142.1980   81.4310  223.5510 C   0  0  0  0  0  0  0  0  0  0  0  0
  141.0990   81.5020  222.5130 C   0  0  0  0  0  0  0  0  0  0  0  0
  140.0260   72.9370  222.5400 C   0  0  0  0  0  0  0  0  0  0  0  0
  139.4740   69.5280  223.7660 N   0  0  0  0  0  0  0  0  0  0  0  0
  140.4884   68.5924  229.6858 H   0  0  0  0  0  0  0  0  0  0  0  0
  141.1950   67.0513  229.0920 H   0  0  0  0  0  0  0  0  0  0  0  0
  142.1832   68.5513  229.0920 H   0  0  0  0  0  0  0  0  0  0  0  0
  139.7492   66.5320  227.3276 H   0  0  0  0  0  0  0  0  0  0  0  0
  138.9593   67.0636  225.0282 H   0  0  0  0  0  0  0  0  0  0  0  0
  141.5548   70.4240  227.5710 H   0  0  0  0  0  0  0  0  0  0  0  0
  140.1933   72.0544  225.2814 H   0  0  0  0  0  0  0  0  0  0  0  0
  141.7053   71.4590  224.6317 H   0  0  0  0  0  0  0  0  0  0  0  0
  139.1865   70.0213  221.0702 H   0  0  0  0  0  0  0  0  0  0  0  0
  138.9612   71.5498  219.1511 H   0  0  0  0  0  0  0  0  0  0  0  0
  139.4188   73.9667  219.3842 H   0  0  0  0  0  0  0  0  0  0  0  0
  139.2110   75.5930  223.4630 H   0  0  0  0  0  0  0  0  0  0  0  0
  138.1813   77.8833  221.7027 H   0  0  0  0  0  0  0  0  0  0  0  0
  138.6509   80.3255  221.5667 H   0  0  0  0  0  0  0  0  0  0  0  0
  142.0151   77.1976  223.5464 H   0  0  0  0  0  0  0  0  0  0  0  0
  143.0933   79.6705  224.4471 H   0  0  0  0  0  0  0  0  0  0  0  0
  143.5903   79.9110  222.7895 H   0  0  0  0  0  0  0  0  0  0  0  0
  141.7947   81.6330  224.5543 H   0  0  0  0  0  0  0  0  0  0  0  0
  142.9844   82.1783  223.3691 H   0  0  0  0  0  0  0  0  0  0  0  0
  140.3074   82.2021  222.8183 H   0  0  0  0  0  0  0  0  0  0  0  0
  141.4415   81.8669  221.5334 H   0  0  0  0  0  0  0  0  0  0  0  0
  140.3342   73.3384  223.5166 H   0  0  0  0  0  0  0  0  0  0  0  0
  1  2  1  0
  2  3  2  0
  3  4  1  0
  4  5  2  0
  5  6  1  0
  6  7  2  0
  6  8  1  0
  8  9  1  0
  9 10  1  0
 10 11  2  0
 11 12  1  0
 12 13  2  0
 13 14  1  0
 14 15  1  0
 15 16  2  0
 15 17  1  0
 17 18  1  0
 18 19  2  0
 19 20  1  0
 20 21  2  0
 21 22  1  0
 22 23  2  0
 22 24  1  0
 24 25  1  0
 25 26  1  0
 14 27  2  0
  9 28  2  0
  7  2  1  0
 27 10  1  0
 28  5  1  0
 23 18  1  0
 26 21  1  0
  1 29  1  0
  1 30  1  0
  1 31  1  0
  3 32  1  0
  4 33  1  0
  7 34  1  0
  8 35  1  0
  8 36  1  0
 11 37  1  0
 12 38  1  0
 13 39  1  0
 17 40  1  0
 19 41  1  0
 20 42  1  0
 23 43  1  0
 24 44  1  0
 24 45  1  0
 25 46  1  0
 25 47  1  0
 26 48  1  0
 26 49  1  0
 27 50  1  0
M  END
>  <smiles>  (22) 
Cc1ccc2c(c1)CC(c1cccc(C(=O)Nc3ccc4c(c3)CCC4)c1)=N2

>  <score_type>  (22) 
oracle

>  <origin>  (22) 
autodockgpu

>  <m_score__min__energy>  (22) 
-9.3399999999999999

>  <m_primary>  (22) 
energy

>  <rmsd>  (22) 
4.542384649865255

>  <m_score__min__rmsd>  (22) 
4.542384649865255

>  <meeko>  (22) 
{"free_energy": -9.29, "intermolecular_energy": -10.18, "internal_energy": -0.77, "cluster_size": 50, "cluster_id": 1, "rank_in_cluster": 47}

>  <energy>  (22) 
-9.32

>  <cluster_rmsd>  (22) 
0.05

>  <cluster>  (22) 
1

$$$$

     RDKit          3D

 50 54  0  0  0  0  0  0  0  0999 V2000
  141.1790   68.1430  228.9660 C   0  0  0  0  0  0  0  0  0  0  0  0
  140.7120   68.4630  227.6080 C   0  0  0  0  0  0  0  0  0  0  0  0
  140.0110   67.5180  226.8760 C   0  0  0  0  0  0  0  0  0  0  0  0
  139.5740   67.8230  225.6000 C   0  0  0  0  0  0  0  0  0  0  0  0
  139.8430   69.0680  225.0730 C   0  0  0  0  0  0  0  0  0  0  0  0
  140.5350   70.0200  225.7770 C   0  0  0  0  0  0  0  0  0  0  0  0
  140.9640   69.7050  227.0440 C   0  0  0  0  0  0  0  0  0  0  0  0
  140.6310   71.2210  224.8930 C   0  0  0  0  0  0  0  0  0  0  0  0
  139.9120   70.7850  223.6560 C   0  0  0  0  0  0  0  0  0  0  0  0
  139.7490   71.6490  222.4910 C   0  0  0  0  0  0  0  0  0  0  0  0
  139.3550   71.1830  221.2570 C   0  0  0  0  0  0  0  0  0  0  0  0
  139.2210   72.0540  220.1990 C   0  0  0  0  0  0  0  0  0  0  0  0
  139.4760   73.4010  220.3390 C   0  0  0  0  0  0  0  0  0  0  0  0
  139.8730   73.8920  221.5660 C   0  0  0  0  0  0  0  0  0  0  0  0
  140.1340   75.3210  221.6810 C   0  0  0  0  0  0  0  0  0  0  0  0
  140.8610   75.8570  220.8070 O   0  0  0  0  0  0  0  0  0  0  0  0
  139.6080   76.1260  222.7280 N   0  0  0  0  0  0  0  0  0  0  0  0
  139.9550   77.5100  222.7040 C   0  0  0  0  0  0  0  0  0  0  0  0
  139.0000   78.4010  222.2430 C   0  0  0  0  0  0  0  0  0  0  0  0
  139.2690   79.7570  222.1930 C   0  0  0  0  0  0  0  0  0  0  0  0
  140.5150   80.2020  222.6140 C   0  0  0  0  0  0  0  0  0  0  0  0
  141.4530   79.2980  223.0690 C   0  0  0  0  0  0  0  0  0  0  0  0
  141.1940   77.9460  223.1230 C   0  0  0  0  0  0  0  0  0  0  0  0
  142.7000   80.0480  223.4560 C   0  0  0  0  0  0  0  0  0  0  0  0
  142.1930   81.4640  223.6180 C   0  0  0  0  0  0  0  0  0  0  0  0
  141.0320   81.5820  222.6540 C   0  0  0  0  0  0  0  0  0  0  0  0
  140.0020   73.0080  222.6160 C   0  0  0  0  0  0  0  0  0  0  0  0
  139.4850   69.5740  223.7920 N   0  0  0  0  0  0  0  0  0  0  0  0
  140.5057   68.6043  229.7035 H   0  0  0  0  0  0  0  0  0  0  0  0
  141.1825   67.0518  229.1049 H   0  0  0  0  0  0  0  0  0  0  0  0
  142.1979   68.5336  229.1049 H   0  0  0  0  0  0  0  0  0  0  0  0
  139.8028   66.5283  227.3086 H   0  0  0  0  0  0  0  0  0  0  0  0
  139.0171   67.0793  225.0112 H   0  0  0  0  0  0  0  0  0  0  0  0
  141.5204   70.4555  227.6247 H   0  0  0  0  0  0  0  0  0  0  0  0
  140.1373   72.0904  225.3518 H   0  0  0  0  0  0  0  0  0  0  0  0
  141.6669   71.5388  224.7036 H   0  0  0  0  0  0  0  0  0  0  0  0
  139.1467   70.1122  221.1158 H   0  0  0  0  0  0  0  0  0  0  0  0
  138.9032   71.6659  219.2200 H   0  0  0  0  0  0  0  0  0  0  0  0
  139.3640   74.0790  219.4801 H   0  0  0  0  0  0  0  0  0  0  0  0
  139.0030   75.6980  223.4620 H   0  0  0  0  0  0  0  0  0  0  0  0
  138.0192   78.0271  221.9138 H   0  0  0  0  0  0  0  0  0  0  0  0
  138.5124   80.4671  221.8277 H   0  0  0  0  0  0  0  0  0  0  0  0
  141.9514   77.2371  223.4887 H   0  0  0  0  0  0  0  0  0  0  0  0
  143.1178   79.6650  224.3987 H   0  0  0  0  0  0  0  0  0  0  0  0
  143.5136   79.9547  222.7216 H   0  0  0  0  0  0  0  0  0  0  0  0
  141.8562   81.6374  224.6507 H   0  0  0  0  0  0  0  0  0  0  0  0
  142.9766   82.2077  223.4111 H   0  0  0  0  0  0  0  0  0  0  0  0
  140.2712   82.2816  223.0305 H   0  0  0  0  0  0  0  0  0  0  0  0
  141.3175   81.9741  221.6667 H   0  0  0  0  0  0  0  0  0  0  0  0
  140.3191   73.3964  223.5951 H   0  0  0  0  0  0  0  0  0  0  0  0
  1  2  1  0
  2  3  2  0
  3  4  1  0
  4  5  2  0
  5  6  1  0
  6  7  2  0
  6  8  1  0
  8  9  1  0
  9 10  1  0
 10 11  2  0
 11 12  1  0
 12 13  2  0
 13 14  1  0
 14 15  1  0
 15 16  2  0
 15 17  1  0
 17 18  1  0
 18 19  2  0
 19 20  1  0
 20 21  2  0
 21 22  1  0
 22 23  2  0
 22 24  1  0
 24 25  1  0
 25 26  1  0
 14 27  2  0
  9 28  2  0
  7  2  1  0
 27 10  1  0
 28  5  1  0
 23 18  1  0
 26 21  1  0
  1 29  1  0
  1 30  1  0
  1 31  1  0
  3 32  1  0
  4 33  1  0
  7 34  1  0
  8 35  1  0
  8 36  1  0
 11 37  1  0
 12 38  1  0
 13 39  1  0
 17 40  1  0
 19 41  1  0
 20 42  1  0
 23 43  1  0
 24 44  1  0
 24 45  1  0
 25 46  1  0
 25 47  1  0
 26 48  1  0
 26 49  1  0
 27 50  1  0
M  END
>  <smiles>  (23) 
Cc1ccc2c(c1)CC(c1cccc(C(=O)Nc3ccc4c(c3)CCC4)c1)=N2

>  <score_type>  (23) 
oracle

>  <origin>  (23) 
autodockgpu

>  <m_score__min__energy>  (23) 
-9.3399999999999999

>  <m_primary>  (23) 
energy

>  <rmsd>  (23) 
4.549953629584088

>  <m_score__min__rmsd>  (23) 
4.549953629584088

>  <meeko>  (23) 
{"free_energy": -9.3, "intermolecular_energy": -10.2, "internal_energy": -0.77, "cluster_size": 50, "cluster_id": 1, "rank_in_cluster": 41}

>  <energy>  (23) 
-9.32

>  <cluster_rmsd>  (23) 
0.03

>  <cluster>  (23) 
1

$$$$

     RDKit          3D

 50 54  0  0  0  0  0  0  0  0999 V2000
  141.1240   68.1090  229.0010 C   0  0  0  0  0  0  0  0  0  0  0  0
  140.6750   68.4310  227.6380 C   0  0  0  0  0  0  0  0  0  0  0  0
  139.9910   67.4840  226.8920 C   0  0  0  0  0  0  0  0  0  0  0  0
  139.5690   67.7910  225.6110 C   0  0  0  0  0  0  0  0  0  0  0  0
  139.8370   69.0410  225.0930 C   0  0  0  0  0  0  0  0  0  0  0  0
  140.5120   69.9950  225.8110 C   0  0  0  0  0  0  0  0  0  0  0  0
  140.9260   69.6770  227.0830 C   0  0  0  0  0  0  0  0  0  0  0  0
  140.6120   71.2000  224.9340 C   0  0  0  0  0  0  0  0  0  0  0  0
  139.9130   70.7640  223.6850 C   0  0  0  0  0  0  0  0  0  0  0  0
  139.7610   71.6330  222.5220 C   0  0  0  0  0  0  0  0  0  0  0  0
  139.3810   71.1700  221.2820 C   0  0  0  0  0  0  0  0  0  0  0  0
  139.2570   72.0440  220.2250 C   0  0  0  0  0  0  0  0  0  0  0  0
  139.5060   73.3920  220.3730 C   0  0  0  0  0  0  0  0  0  0  0  0
  139.8880   73.8790  221.6060 C   0  0  0  0  0  0  0  0  0  0  0  0
  140.1440   75.3080  221.7300 C   0  0  0  0  0  0  0  0  0  0  0  0
  140.9380   75.8360  220.9100 O   0  0  0  0  0  0  0  0  0  0  0  0
  139.5410   76.1240  222.7260 N   0  0  0  0  0  0  0  0  0  0  0  0
  139.8930   77.5070  222.7170 C   0  0  0  0  0  0  0  0  0  0  0  0
  138.9210   78.4120  222.3240 C   0  0  0  0  0  0  0  0  0  0  0  0
  139.1950   79.7680  222.2920 C   0  0  0  0  0  0  0  0  0  0  0  0
  140.4610   80.1970  222.6630 C   0  0  0  0  0  0  0  0  0  0  0  0
  141.4150   79.2800  223.0520 C   0  0  0  0  0  0  0  0  0  0  0  0
  141.1530   77.9280  223.0870 C   0  0  0  0  0  0  0  0  0  0  0  0
  142.6830   80.0160  223.3960 C   0  0  0  0  0  0  0  0  0  0  0  0
  142.1910   81.4300  223.6150 C   0  0  0  0  0  0  0  0  0  0  0  0
  140.9860   81.5750  222.7110 C   0  0  0  0  0  0  0  0  0  0  0  0
  140.0090   72.9920  222.6540 C   0  0  0  0  0  0  0  0  0  0  0  0
  139.4940   69.5500  223.8090 N   0  0  0  0  0  0  0  0  0  0  0  0
  140.4549   68.5889  229.7304 H   0  0  0  0  0  0  0  0  0  0  0  0
  141.1030   67.0188  229.1460 H   0  0  0  0  0  0  0  0  0  0  0  0
  142.1499   68.4785  229.1460 H   0  0  0  0  0  0  0  0  0  0  0  0
  139.7843   66.4909  227.3176 H   0  0  0  0  0  0  0  0  0  0  0  0
  139.0253   67.0460  225.0115 H   0  0  0  0  0  0  0  0  0  0  0  0
  141.4692   70.4287  227.6745 H   0  0  0  0  0  0  0  0  0  0  0  0
  140.1060   72.0640  225.3895 H   0  0  0  0  0  0  0  0  0  0  0  0
  141.6482   71.5259  224.7605 H   0  0  0  0  0  0  0  0  0  0  0  0
  139.1760   70.0993  221.1354 H   0  0  0  0  0  0  0  0  0  0  0  0
  138.9526   71.6581  219.2409 H   0  0  0  0  0  0  0  0  0  0  0  0
  139.4010   74.0731  219.5156 H   0  0  0  0  0  0  0  0  0  0  0  0
  138.8800   75.7040  223.4150 H   0  0  0  0  0  0  0  0  0  0  0  0
  137.9233   78.0500  222.0350 H   0  0  0  0  0  0  0  0  0  0  0  0
  138.4260   80.4897  221.9793 H   0  0  0  0  0  0  0  0  0  0  0  0
  141.9235   77.2079  223.3998 H   0  0  0  0  0  0  0  0  0  0  0  0
  143.1437   79.6095  224.3084 H   0  0  0  0  0  0  0  0  0  0  0  0
  143.4601   79.9369  222.6215 H   0  0  0  0  0  0  0  0  0  0  0  0
  141.9048   81.5804  224.6664 H   0  0  0  0  0  0  0  0  0  0  0  0
  142.9674   82.1754  223.3880 H   0  0  0  0  0  0  0  0  0  0  0  0
  140.2473   82.2680  223.1400 H   0  0  0  0  0  0  0  0  0  0  0  0
  141.2257   81.9896  221.7207 H   0  0  0  0  0  0  0  0  0  0  0  0
  140.3154   73.3780  223.6375 H   0  0  0  0  0  0  0  0  0  0  0  0
  1  2  1  0
  2  3  2  0
  3  4  1  0
  4  5  2  0
  5  6  1  0
  6  7  2  0
  6  8  1  0
  8  9  1  0
  9 10  1  0
 10 11  2  0
 11 12  1  0
 12 13  2  0
 13 14  1  0
 14 15  1  0
 15 16  2  0
 15 17  1  0
 17 18  1  0
 18 19  2  0
 19 20  1  0
 20 21  2  0
 21 22  1  0
 22 23  2  0
 22 24  1  0
 24 25  1  0
 25 26  1  0
 14 27  2  0
  9 28  2  0
  7  2  1  0
 27 10  1  0
 28  5  1  0
 23 18  1  0
 26 21  1  0
  1 29  1  0
  1 30  1  0
  1 31  1  0
  3 32  1  0
  4 33  1  0
  7 34  1  0
  8 35  1  0
  8 36  1  0
 11 37  1  0
 12 38  1  0
 13 39  1  0
 17 40  1  0
 19 41  1  0
 20 42  1  0
 23 43  1  0
 24 44  1  0
 24 45  1  0
 25 46  1  0
 25 47  1  0
 26 48  1  0
 26 49  1  0
 27 50  1  0
M  END
>  <smiles>  (24) 
Cc1ccc2c(c1)CC(c1cccc(C(=O)Nc3ccc4c(c3)CCC4)c1)=N2

>  <score_type>  (24) 
oracle

>  <origin>  (24) 
autodockgpu

>  <m_score__min__energy>  (24) 
-9.3399999999999999

>  <m_primary>  (24) 
energy

>  <rmsd>  (24) 
4.582270831650504

>  <m_score__min__rmsd>  (24) 
4.582270831650504

>  <meeko>  (24) 
{"free_energy": -9.3, "intermolecular_energy": -10.19, "internal_energy": -0.76, "cluster_size": 50, "cluster_id": 1, "rank_in_cluster": 42}

>  <energy>  (24) 
-9.31

>  <cluster_rmsd>  (24) 
0.06

>  <cluster>  (24) 
1

$$$$

     RDKit          3D

 50 54  0  0  0  0  0  0  0  0999 V2000
  141.1600   68.1260  228.9580 C   0  0  0  0  0  0  0  0  0  0  0  0
  140.6890   68.4540  227.6030 C   0  0  0  0  0  0  0  0  0  0  0  0
  139.9380   67.5330  226.8890 C   0  0  0  0  0  0  0  0  0  0  0  0
  139.4980   67.8450  225.6160 C   0  0  0  0  0  0  0  0  0  0  0  0
  139.8140   69.0730  225.0730 C   0  0  0  0  0  0  0  0  0  0  0  0
  140.5550   70.0010  225.7590 C   0  0  0  0  0  0  0  0  0  0  0  0
  140.9870   69.6780  227.0240 C   0  0  0  0  0  0  0  0  0  0  0  0
  140.6900   71.1890  224.8630 C   0  0  0  0  0  0  0  0  0  0  0  0
  139.9370   70.7730  223.6400 C   0  0  0  0  0  0  0  0  0  0  0  0
  139.7960   71.6330  222.4690 C   0  0  0  0  0  0  0  0  0  0  0  0
  139.4310   71.1620  221.2280 C   0  0  0  0  0  0  0  0  0  0  0  0
  139.3170   72.0280  220.1640 C   0  0  0  0  0  0  0  0  0  0  0  0
  139.5620   73.3770  220.3060 C   0  0  0  0  0  0  0  0  0  0  0  0
  139.9290   73.8740  221.5400 C   0  0  0  0  0  0  0  0  0  0  0  0
  140.1810   75.3040  221.6570 C   0  0  0  0  0  0  0  0  0  0  0  0
  140.8790   75.8520  220.7660 O   0  0  0  0  0  0  0  0  0  0  0  0
  139.6760   76.0980  222.7230 N   0  0  0  0  0  0  0  0  0  0  0  0
  140.0100   77.4860  222.6980 C   0  0  0  0  0  0  0  0  0  0  0  0
  139.0510   78.3660  222.2240 C   0  0  0  0  0  0  0  0  0  0  0  0
  139.3080   79.7240  222.1730 C   0  0  0  0  0  0  0  0  0  0  0  0
  140.5440   80.1820  222.6040 C   0  0  0  0  0  0  0  0  0  0  0  0
  141.4860   79.2900  223.0730 C   0  0  0  0  0  0  0  0  0  0  0  0
  141.2400   77.9350  223.1280 C   0  0  0  0  0  0  0  0  0  0  0  0
  142.7230   80.0520  223.4700 C   0  0  0  0  0  0  0  0  0  0  0  0
  142.2000   81.4640  223.6220 C   0  0  0  0  0  0  0  0  0  0  0  0
  141.0470   81.5680  222.6460 C   0  0  0  0  0  0  0  0  0  0  0  0
  140.0390   72.9940  222.5950 C   0  0  0  0  0  0  0  0  0  0  0  0
  139.4610   69.5830  223.7930 N   0  0  0  0  0  0  0  0  0  0  0  0
  140.4937   68.5900  229.7001 H   0  0  0  0  0  0  0  0  0  0  0  0
  141.1559   67.0344  229.0934 H   0  0  0  0  0  0  0  0  0  0  0  0
  142.1825   68.5084  229.0934 H   0  0  0  0  0  0  0  0  0  0  0  0
  139.6930   66.5572  227.3339 H   0  0  0  0  0  0  0  0  0  0  0  0
  138.9016   67.1208  225.0416 H   0  0  0  0  0  0  0  0  0  0  0  0
  141.5835   70.4085  227.5902 H   0  0  0  0  0  0  0  0  0  0  0  0
  140.2397   72.0825  225.3201 H   0  0  0  0  0  0  0  0  0  0  0  0
  141.7358   71.4611  224.6574 H   0  0  0  0  0  0  0  0  0  0  0  0
  139.2297   70.0899  221.0861 H   0  0  0  0  0  0  0  0  0  0  0  0
  139.0241   71.6350  219.1793 H   0  0  0  0  0  0  0  0  0  0  0  0
  139.4658   74.0519  219.4427 H   0  0  0  0  0  0  0  0  0  0  0  0
  139.0960   75.6610  223.4710 H   0  0  0  0  0  0  0  0  0  0  0  0
  138.0775   77.9817  221.8855 H   0  0  0  0  0  0  0  0  0  0  0  0
  138.5482   80.4258  221.7986 H   0  0  0  0  0  0  0  0  0  0  0  0
  142.0008   77.2346  223.5030 H   0  0  0  0  0  0  0  0  0  0  0  0
  143.1349   79.6760  224.4181 H   0  0  0  0  0  0  0  0  0  0  0  0
  143.5454   79.9636  222.7448 H   0  0  0  0  0  0  0  0  0  0  0  0
  141.8513   81.6374  224.6507 H   0  0  0  0  0  0  0  0  0  0  0  0
  142.9784   82.2145  223.4199 H   0  0  0  0  0  0  0  0  0  0  0  0
  140.2755   82.2607  223.0133 H   0  0  0  0  0  0  0  0  0  0  0  0
  141.3383   81.9607  221.6606 H   0  0  0  0  0  0  0  0  0  0  0  0
  140.3321   73.3871  223.5797 H   0  0  0  0  0  0  0  0  0  0  0  0
  1  2  1  0
  2  3  2  0
  3  4  1  0
  4  5  2  0
  5  6  1  0
  6  7  2  0
  6  8  1  0
  8  9  1  0
  9 10  1  0
 10 11  2  0
 11 12  1  0
 12 13  2  0
 13 14  1  0
 14 15  1  0
 15 16  2  0
 15 17  1  0
 17 18  1  0
 18 19  2  0
 19 20  1  0
 20 21  2  0
 21 22  1  0
 22 23  2  0
 22 24  1  0
 24 25  1  0
 25 26  1  0
 14 27  2  0
  9 28  2  0
  7  2  1  0
 27 10  1  0
 28  5  1  0
 23 18  1  0
 26 21  1  0
  1 29  1  0
  1 30  1  0
  1 31  1  0
  3 32  1  0
  4 33  1  0
  7 34  1  0
  8 35  1  0
  8 36  1  0
 11 37  1  0
 12 38  1  0
 13 39  1  0
 17 40  1  0
 19 41  1  0
 20 42  1  0
 23 43  1  0
 24 44  1  0
 24 45  1  0
 25 46  1  0
 25 47  1  0
 26 48  1  0
 26 49  1  0
 27 50  1  0
M  END
>  <smiles>  (25) 
Cc1ccc2c(c1)CC(c1cccc(C(=O)Nc3ccc4c(c3)CCC4)c1)=N2

>  <score_type>  (25) 
oracle

>  <origin>  (25) 
autodockgpu

>  <m_score__min__energy>  (25) 
-9.3399999999999999

>  <m_primary>  (25) 
energy

>  <rmsd>  (25) 
4.54597586794367

>  <m_score__min__rmsd>  (25) 
4.54597586794367

>  <meeko>  (25) 
{"free_energy": -9.32, "intermolecular_energy": -10.21, "internal_energy": -0.77, "cluster_size": 50, "cluster_id": 1, "rank_in_cluster": 17}

>  <energy>  (25) 
-9.31

>  <cluster_rmsd>  (25) 
0.11

>  <cluster>  (25) 
1

$$$$

     RDKit          3D

 50 54  0  0  0  0  0  0  0  0999 V2000
  141.0230   68.1270  228.9560 C   0  0  0  0  0  0  0  0  0  0  0  0
  140.5650   68.4660  227.6000 C   0  0  0  0  0  0  0  0  0  0  0  0
  139.7630   67.5800  226.8980 C   0  0  0  0  0  0  0  0  0  0  0  0
  139.3350   67.9030  225.6240 C   0  0  0  0  0  0  0  0  0  0  0  0
  139.7130   69.1060  225.0680 C   0  0  0  0  0  0  0  0  0  0  0  0
  140.5060   70.0000  225.7420 C   0  0  0  0  0  0  0  0  0  0  0  0
  140.9250   69.6670  227.0080 C   0  0  0  0  0  0  0  0  0  0  0  0
  140.7010   71.1700  224.8340 C   0  0  0  0  0  0  0  0  0  0  0  0
  139.9210   70.7830  223.6170 C   0  0  0  0  0  0  0  0  0  0  0  0
  139.8210   71.6390  222.4380 C   0  0  0  0  0  0  0  0  0  0  0  0
  139.5090   71.1600  221.1850 C   0  0  0  0  0  0  0  0  0  0  0  0
  139.4320   72.0230  220.1150 C   0  0  0  0  0  0  0  0  0  0  0  0
  139.6620   73.3740  220.2610 C   0  0  0  0  0  0  0  0  0  0  0  0
  139.9760   73.8770  221.5070 C   0  0  0  0  0  0  0  0  0  0  0  0
  140.2140   75.3090  221.6280 C   0  0  0  0  0  0  0  0  0  0  0  0
  140.8760   75.8740  220.7210 O   0  0  0  0  0  0  0  0  0  0  0  0
  139.7330   76.0880  222.7160 N   0  0  0  0  0  0  0  0  0  0  0  0
  140.0490   77.4800  222.6930 C   0  0  0  0  0  0  0  0  0  0  0  0
  139.0740   78.3490  222.2310 C   0  0  0  0  0  0  0  0  0  0  0  0
  139.3130   79.7110  222.1810 C   0  0  0  0  0  0  0  0  0  0  0  0
  140.5470   80.1830  222.6040 C   0  0  0  0  0  0  0  0  0  0  0  0
  141.5050   79.3010  223.0610 C   0  0  0  0  0  0  0  0  0  0  0  0
  141.2770   77.9430  223.1140 C   0  0  0  0  0  0  0  0  0  0  0  0
  142.7340   80.0790  223.4490 C   0  0  0  0  0  0  0  0  0  0  0  0
  142.1950   81.4840  223.6110 C   0  0  0  0  0  0  0  0  0  0  0  0
  141.0320   81.5750  222.6450 C   0  0  0  0  0  0  0  0  0  0  0  0
  140.0500   73.0010  222.5690 C   0  0  0  0  0  0  0  0  0  0  0  0
  139.3820   69.6220  223.7830 N   0  0  0  0  0  0  0  0  0  0  0  0
  140.3687   68.6113  229.6958 H   0  0  0  0  0  0  0  0  0  0  0  0
  140.9871   67.0362  229.0931 H   0  0  0  0  0  0  0  0  0  0  0  0
  142.0558   68.4800  229.0931 H   0  0  0  0  0  0  0  0  0  0  0  0
  139.4681   66.6230  227.3532 H   0  0  0  0  0  0  0  0  0  0  0  0
  138.6985   67.2061  225.0590 H   0  0  0  0  0  0  0  0  0  0  0  0
  141.5614   70.3704  227.5650 H   0  0  0  0  0  0  0  0  0  0  0  0
  140.3014   72.0908  225.2838 H   0  0  0  0  0  0  0  0  0  0  0  0
  141.7591   71.3834  224.6219 H   0  0  0  0  0  0  0  0  0  0  0  0
  139.3210   70.0861  221.0388 H   0  0  0  0  0  0  0  0  0  0  0  0
  139.1811   71.6250  219.1207 H   0  0  0  0  0  0  0  0  0  0  0  0
  139.5959   74.0453  219.3921 H   0  0  0  0  0  0  0  0  0  0  0  0
  139.1820   75.6370  223.4780 H   0  0  0  0  0  0  0  0  0  0  0  0
  138.1021   77.9531  221.9013 H   0  0  0  0  0  0  0  0  0  0  0  0
  138.5417   80.4041  221.8140 H   0  0  0  0  0  0  0  0  0  0  0  0
  142.0498   77.2512  223.4803 H   0  0  0  0  0  0  0  0  0  0  0  0
  143.1597   79.7054  224.3920 H   0  0  0  0  0  0  0  0  0  0  0  0
  143.5500   80.0044  222.7151 H   0  0  0  0  0  0  0  0  0  0  0  0
  141.8533   81.6498  224.6433 H   0  0  0  0  0  0  0  0  0  0  0  0
  142.9617   82.2455  223.4054 H   0  0  0  0  0  0  0  0  0  0  0  0
  140.2547   82.2567  223.0207 H   0  0  0  0  0  0  0  0  0  0  0  0
  141.3096   81.9737  221.6581 H   0  0  0  0  0  0  0  0  0  0  0  0
  140.3015   73.3992  223.5631 H   0  0  0  0  0  0  0  0  0  0  0  0
  1  2  1  0
  2  3  2  0
  3  4  1  0
  4  5  2  0
  5  6  1  0
  6  7  2  0
  6  8  1  0
  8  9  1  0
  9 10  1  0
 10 11  2  0
 11 12  1  0
 12 13  2  0
 13 14  1  0
 14 15  1  0
 15 16  2  0
 15 17  1  0
 17 18  1  0
 18 19  2  0
 19 20  1  0
 20 21  2  0
 21 22  1  0
 22 23  2  0
 22 24  1  0
 24 25  1  0
 25 26  1  0
 14 27  2  0
  9 28  2  0
  7  2  1  0
 27 10  1  0
 28  5  1  0
 23 18  1  0
 26 21  1  0
  1 29  1  0
  1 30  1  0
  1 31  1  0
  3 32  1  0
  4 33  1  0
  7 34  1  0
  8 35  1  0
  8 36  1  0
 11 37  1  0
 12 38  1  0
 13 39  1  0
 17 40  1  0
 19 41  1  0
 20 42  1  0
 23 43  1  0
 24 44  1  0
 24 45  1  0
 25 46  1  0
 25 47  1  0
 26 48  1  0
 26 49  1  0
 27 50  1  0
M  END
>  <smiles>  (26) 
Cc1ccc2c(c1)CC(c1cccc(C(=O)Nc3ccc4c(c3)CCC4)c1)=N2

>  <score_type>  (26) 
oracle

>  <origin>  (26) 
autodockgpu

>  <m_score__min__energy>  (26) 
-9.3399999999999999

>  <m_primary>  (26) 
energy

>  <rmsd>  (26) 
4.530647968825688

>  <m_score__min__rmsd>  (26) 
4.530647968825688

>  <meeko>  (26) 
{"free_energy": -9.32, "intermolecular_energy": -10.21, "internal_energy": -0.77, "cluster_size": 50, "cluster_id": 1, "rank_in_cluster": 16}

>  <energy>  (26) 
-9.31

>  <cluster_rmsd>  (26) 
0.04

>  <cluster>  (26) 
1

$$$$

     RDKit          3D

 50 54  0  0  0  0  0  0  0  0999 V2000
  141.0620   68.1290  228.9240 C   0  0  0  0  0  0  0  0  0  0  0  0
  140.5880   68.4710  227.5740 C   0  0  0  0  0  0  0  0  0  0  0  0
  139.7740   67.5890  226.8810 C   0  0  0  0  0  0  0  0  0  0  0  0
  139.3300   67.9140  225.6130 C   0  0  0  0  0  0  0  0  0  0  0  0
  139.7060   69.1180  225.0540 C   0  0  0  0  0  0  0  0  0  0  0  0
  140.5100   70.0080  225.7190 C   0  0  0  0  0  0  0  0  0  0  0  0
  140.9450   69.6720  226.9790 C   0  0  0  0  0  0  0  0  0  0  0  0
  140.6980   71.1780  224.8100 C   0  0  0  0  0  0  0  0  0  0  0  0
  139.9000   70.7960  223.6030 C   0  0  0  0  0  0  0  0  0  0  0  0
  139.7890   71.6530  222.4260 C   0  0  0  0  0  0  0  0  0  0  0  0
  139.4630   71.1760  221.1760 C   0  0  0  0  0  0  0  0  0  0  0  0
  139.3750   72.0400  220.1080 C   0  0  0  0  0  0  0  0  0  0  0  0
  139.6080   73.3910  220.2540 C   0  0  0  0  0  0  0  0  0  0  0  0
  139.9360   73.8920  221.4960 C   0  0  0  0  0  0  0  0  0  0  0  0
  140.1770   75.3240  221.6170 C   0  0  0  0  0  0  0  0  0  0  0  0
  140.8150   75.8920  220.6950 O   0  0  0  0  0  0  0  0  0  0  0  0
  139.7260   76.0980  222.7210 N   0  0  0  0  0  0  0  0  0  0  0  0
  140.0400   77.4900  222.6950 C   0  0  0  0  0  0  0  0  0  0  0  0
  139.0720   78.3560  222.2140 C   0  0  0  0  0  0  0  0  0  0  0  0
  139.3100   79.7180  222.1600 C   0  0  0  0  0  0  0  0  0  0  0  0
  140.5380   80.1930  222.5980 C   0  0  0  0  0  0  0  0  0  0  0  0
  141.4890   79.3150  223.0740 C   0  0  0  0  0  0  0  0  0  0  0  0
  141.2620   77.9570  223.1310 C   0  0  0  0  0  0  0  0  0  0  0  0
  142.7130   80.0960  223.4770 C   0  0  0  0  0  0  0  0  0  0  0  0
  142.1690   81.5010  223.6230 C   0  0  0  0  0  0  0  0  0  0  0  0
  141.0210   81.5860  222.6390 C   0  0  0  0  0  0  0  0  0  0  0  0
  140.0210   73.0150  222.5560 C   0  0  0  0  0  0  0  0  0  0  0  0
  139.3600   69.6360  223.7750 N   0  0  0  0  0  0  0  0  0  0  0  0
  140.4083   68.6006  229.6725 H   0  0  0  0  0  0  0  0  0  0  0  0
  141.0405   67.0370  229.0544 H   0  0  0  0  0  0  0  0  0  0  0  0
  142.0916   68.4937  229.0544 H   0  0  0  0  0  0  0  0  0  0  0  0
  139.4819   66.6325  227.3390 H   0  0  0  0  0  0  0  0  0  0  0  0
  138.6837   67.2201  225.0555 H   0  0  0  0  0  0  0  0  0  0  0  0
  141.5915   70.3722  227.5284 H   0  0  0  0  0  0  0  0  0  0  0  0
  140.3085   72.1001  225.2662 H   0  0  0  0  0  0  0  0  0  0  0  0
  141.7541   71.3869  224.5840 H   0  0  0  0  0  0  0  0  0  0  0  0
  139.2725   70.1024  221.0306 H   0  0  0  0  0  0  0  0  0  0  0  0
  139.1129   71.6437  219.1159 H   0  0  0  0  0  0  0  0  0  0  0  0
  139.5329   74.0636  219.3869 H   0  0  0  0  0  0  0  0  0  0  0  0
  139.1950   75.6440  223.4960 H   0  0  0  0  0  0  0  0  0  0  0  0
  138.1055   77.9575  221.8719 H   0  0  0  0  0  0  0  0  0  0  0  0
  138.5433   80.4084  221.7786 H   0  0  0  0  0  0  0  0  0  0  0  0
  142.0304   77.2681  223.5118 H   0  0  0  0  0  0  0  0  0  0  0  0
  143.1245   79.7278  224.4284 H   0  0  0  0  0  0  0  0  0  0  0  0
  143.5408   80.0180  222.7568 H   0  0  0  0  0  0  0  0  0  0  0  0
  141.8111   81.6715  224.6491 H   0  0  0  0  0  0  0  0  0  0  0  0
  142.9378   82.2624  223.4249 H   0  0  0  0  0  0  0  0  0  0  0  0
  140.2374   82.2688  222.9992 H   0  0  0  0  0  0  0  0  0  0  0  0
  141.3132   81.9799  221.6544 H   0  0  0  0  0  0  0  0  0  0  0  0
  140.2840   73.4118  223.5476 H   0  0  0  0  0  0  0  0  0  0  0  0
  1  2  1  0
  2  3  2  0
  3  4  1  0
  4  5  2  0
  5  6  1  0
  6  7  2  0
  6  8  1  0
  8  9  1  0
  9 10  1  0
 10 11  2  0
 11 12  1  0
 12 13  2  0
 13 14  1  0
 14 15  1  0
 15 16  2  0
 15 17  1  0
 17 18  1  0
 18 19  2  0
 19 20  1  0
 20 21  2  0
 21 22  1  0
 22 23  2  0
 22 24  1  0
 24 25  1  0
 25 26  1  0
 14 27  2  0
  9 28  2  0
  7  2  1  0
 27 10  1  0
 28  5  1  0
 23 18  1  0
 26 21  1  0
  1 29  1  0
  1 30  1  0
  1 31  1  0
  3 32  1  0
  4 33  1  0
  7 34  1  0
  8 35  1  0
  8 36  1  0
 11 37  1  0
 12 38  1  0
 13 39  1  0
 17 40  1  0
 19 41  1  0
 20 42  1  0
 23 43  1  0
 24 44  1  0
 24 45  1  0
 25 46  1  0
 25 47  1  0
 26 48  1  0
 26 49  1  0
 27 50  1  0
M  END
>  <smiles>  (27) 
Cc1ccc2c(c1)CC(c1cccc(C(=O)Nc3ccc4c(c3)CCC4)c1)=N2

>  <score_type>  (27) 
oracle

>  <origin>  (27) 
autodockgpu

>  <m_score__min__energy>  (27) 
-9.3399999999999999

>  <m_primary>  (27) 
energy

>  <rmsd>  (27) 
4.516425466182947

>  <m_score__min__rmsd>  (27) 
4.516425466182947

>  <meeko>  (27) 
{"free_energy": -9.3, "intermolecular_energy": -10.2, "internal_energy": -0.77, "cluster_size": 50, "cluster_id": 1, "rank_in_cluster": 37}

>  <energy>  (27) 
-9.31

>  <cluster_rmsd>  (27) 
0.09

>  <cluster>  (27) 
1

$$$$

     RDKit          3D

 50 54  0  0  0  0  0  0  0  0999 V2000
  141.0910   68.1600  228.9460 C   0  0  0  0  0  0  0  0  0  0  0  0
  140.6300   68.4900  227.5890 C   0  0  0  0  0  0  0  0  0  0  0  0
  139.8370   67.5940  226.8900 C   0  0  0  0  0  0  0  0  0  0  0  0
  139.4050   67.9080  225.6150 C   0  0  0  0  0  0  0  0  0  0  0  0
  139.7720   69.1130  225.0550 C   0  0  0  0  0  0  0  0  0  0  0  0
  140.5560   70.0170  225.7260 C   0  0  0  0  0  0  0  0  0  0  0  0
  140.9790   69.6920  226.9930 C   0  0  0  0  0  0  0  0  0  0  0  0
  140.7400   71.1860  224.8140 C   0  0  0  0  0  0  0  0  0  0  0  0
  139.9630   70.7870  223.5980 C   0  0  0  0  0  0  0  0  0  0  0  0
  139.8560   71.6380  222.4170 C   0  0  0  0  0  0  0  0  0  0  0  0
  139.5420   71.1530  221.1670 C   0  0  0  0  0  0  0  0  0  0  0  0
  139.4570   72.0110  220.0930 C   0  0  0  0  0  0  0  0  0  0  0  0
  139.6820   73.3630  220.2340 C   0  0  0  0  0  0  0  0  0  0  0  0
  139.9970   73.8730  221.4760 C   0  0  0  0  0  0  0  0  0  0  0  0
  140.2290   75.3070  221.5910 C   0  0  0  0  0  0  0  0  0  0  0  0
  140.8930   75.8690  220.6840 O   0  0  0  0  0  0  0  0  0  0  0  0
  139.7400   76.0890  222.6730 N   0  0  0  0  0  0  0  0  0  0  0  0
  140.0500   77.4820  222.6440 C   0  0  0  0  0  0  0  0  0  0  0  0
  139.0760   78.3440  222.1670 C   0  0  0  0  0  0  0  0  0  0  0  0
  139.3100   79.7070  222.1110 C   0  0  0  0  0  0  0  0  0  0  0  0
  140.5380   80.1870  222.5420 C   0  0  0  0  0  0  0  0  0  0  0  0
  141.4950   79.3120  223.0150 C   0  0  0  0  0  0  0  0  0  0  0  0
  141.2720   77.9530  223.0740 C   0  0  0  0  0  0  0  0  0  0  0  0
  142.7180   80.0970  223.4110 C   0  0  0  0  0  0  0  0  0  0  0  0
  142.1710   81.5000  223.5580 C   0  0  0  0  0  0  0  0  0  0  0  0
  141.0180   81.5810  222.5800 C   0  0  0  0  0  0  0  0  0  0  0  0
  140.0790   73.0020  222.5410 C   0  0  0  0  0  0  0  0  0  0  0  0
  139.4360   69.6210  223.7690 N   0  0  0  0  0  0  0  0  0  0  0  0
  140.4278   68.6347  229.6841 H   0  0  0  0  0  0  0  0  0  0  0  0
  141.0722   67.0689  229.0844 H   0  0  0  0  0  0  0  0  0  0  0  0
  142.1178   68.5295  229.0844 H   0  0  0  0  0  0  0  0  0  0  0  0
  139.5521   66.6355  227.3484 H   0  0  0  0  0  0  0  0  0  0  0  0
  138.7746   67.2033  225.0528 H   0  0  0  0  0  0  0  0  0  0  0  0
  141.6096   70.4028  227.5472 H   0  0  0  0  0  0  0  0  0  0  0  0
  140.3318   72.1046  225.2607 H   0  0  0  0  0  0  0  0  0  0  0  0
  141.7959   71.4089  224.6010 H   0  0  0  0  0  0  0  0  0  0  0  0
  139.3586   70.0776  221.0259 H   0  0  0  0  0  0  0  0  0  0  0  0
  139.2040   71.6082  219.1012 H   0  0  0  0  0  0  0  0  0  0  0  0
  139.6109   74.0305  219.3626 H   0  0  0  0  0  0  0  0  0  0  0  0
  139.1860   75.6400  223.4350 H   0  0  0  0  0  0  0  0  0  0  0  0
  138.1091   77.9420  221.8301 H   0  0  0  0  0  0  0  0  0  0  0  0
  138.5390   80.3946  221.7330 H   0  0  0  0  0  0  0  0  0  0  0  0
  142.0441   77.2667  223.4520 H   0  0  0  0  0  0  0  0  0  0  0  0
  143.1352   79.7312  224.3608 H   0  0  0  0  0  0  0  0  0  0  0  0
  143.5424   80.0207  222.6867 H   0  0  0  0  0  0  0  0  0  0  0  0
  141.8178   81.6706  224.5857 H   0  0  0  0  0  0  0  0  0  0  0  0
  142.9367   82.2632  223.3550 H   0  0  0  0  0  0  0  0  0  0  0  0
  140.2345   82.2621  222.9437 H   0  0  0  0  0  0  0  0  0  0  0  0
  141.3045   81.9747  221.5936 H   0  0  0  0  0  0  0  0  0  0  0  0
  140.3322   73.4057  223.5324 H   0  0  0  0  0  0  0  0  0  0  0  0
  1  2  1  0
  2  3  2  0
  3  4  1  0
  4  5  2  0
  5  6  1  0
  6  7  2  0
  6  8  1  0
  8  9  1  0
  9 10  1  0
 10 11  2  0
 11 12  1  0
 12 13  2  0
 13 14  1  0
 14 15  1  0
 15 16  2  0
 15 17  1  0
 17 18  1  0
 18 19  2  0
 19 20  1  0
 20 21  2  0
 21 22  1  0
 22 23  2  0
 22 24  1  0
 24 25  1  0
 25 26  1  0
 14 27  2  0
  9 28  2  0
  7  2  1  0
 27 10  1  0
 28  5  1  0
 23 18  1  0
 26 21  1  0
  1 29  1  0
  1 30  1  0
  1 31  1  0
  3 32  1  0
  4 33  1  0
  7 34  1  0
  8 35  1  0
  8 36  1  0
 11 37  1  0
 12 38  1  0
 13 39  1  0
 17 40  1  0
 19 41  1  0
 20 42  1  0
 23 43  1  0
 24 44  1  0
 24 45  1  0
 25 46  1  0
 25 47  1  0
 26 48  1  0
 26 49  1  0
 27 50  1  0
M  END
>  <smiles>  (28) 
Cc1ccc2c(c1)CC(c1cccc(C(=O)Nc3ccc4c(c3)CCC4)c1)=N2

>  <score_type>  (28) 
oracle

>  <origin>  (28) 
autodockgpu

>  <m_score__min__energy>  (28) 
-9.3399999999999999

>  <m_primary>  (28) 
energy

>  <rmsd>  (28) 
4.508931789207418

>  <m_score__min__rmsd>  (28) 
4.508931789207418

>  <meeko>  (28) 
{"free_energy": -9.29, "intermolecular_energy": -10.19, "internal_energy": -0.77, "cluster_size": 50, "cluster_id": 1, "rank_in_cluster": 44}

>  <energy>  (28) 
-9.31

>  <cluster_rmsd>  (28) 
0.09

>  <cluster>  (28) 
1

$$$$

     RDKit          3D

 50 54  0  0  0  0  0  0  0  0999 V2000
  141.1770   68.1040  228.9490 C   0  0  0  0  0  0  0  0  0  0  0  0
  140.6910   68.4340  227.6000 C   0  0  0  0  0  0  0  0  0  0  0  0
  139.9130   67.5240  226.9020 C   0  0  0  0  0  0  0  0  0  0  0  0
  139.4590   67.8370  225.6350 C   0  0  0  0  0  0  0  0  0  0  0  0
  139.7870   69.0570  225.0810 C   0  0  0  0  0  0  0  0  0  0  0  0
  140.5540   69.9750  225.7510 C   0  0  0  0  0  0  0  0  0  0  0  0
  141.0000   69.6510  227.0110 C   0  0  0  0  0  0  0  0  0  0  0  0
  140.6960   71.1570  224.8480 C   0  0  0  0  0  0  0  0  0  0  0  0
  139.9160   70.7480  223.6380 C   0  0  0  0  0  0  0  0  0  0  0  0
  139.7720   71.6060  222.4660 C   0  0  0  0  0  0  0  0  0  0  0  0
  139.4020   71.1320  221.2270 C   0  0  0  0  0  0  0  0  0  0  0  0
  139.2850   71.9960  220.1620 C   0  0  0  0  0  0  0  0  0  0  0  0
  139.5330   73.3450  220.2990 C   0  0  0  0  0  0  0  0  0  0  0  0
  139.9050   73.8440  221.5300 C   0  0  0  0  0  0  0  0  0  0  0  0
  140.1600   75.2740  221.6430 C   0  0  0  0  0  0  0  0  0  0  0  0
  140.8470   75.8210  220.7430 O   0  0  0  0  0  0  0  0  0  0  0  0
  139.6690   76.0700  222.7140 N   0  0  0  0  0  0  0  0  0  0  0  0
  140.0040   77.4570  222.6830 C   0  0  0  0  0  0  0  0  0  0  0  0
  139.0410   78.3370  222.2170 C   0  0  0  0  0  0  0  0  0  0  0  0
  139.2990   79.6950  222.1600 C   0  0  0  0  0  0  0  0  0  0  0  0
  140.5390   80.1530  222.5800 C   0  0  0  0  0  0  0  0  0  0  0  0
  141.4850   79.2600  223.0410 C   0  0  0  0  0  0  0  0  0  0  0  0
  141.2380   77.9060  223.1010 C   0  0  0  0  0  0  0  0  0  0  0  0
  142.7250   80.0230  223.4250 C   0  0  0  0  0  0  0  0  0  0  0  0
  142.2050   81.4360  223.5800 C   0  0  0  0  0  0  0  0  0  0  0  0
  141.0440   81.5380  222.6140 C   0  0  0  0  0  0  0  0  0  0  0  0
  140.0180   72.9670  222.5870 C   0  0  0  0  0  0  0  0  0  0  0  0
  139.4220   69.5680  223.8040 N   0  0  0  0  0  0  0  0  0  0  0  0
  140.5115   68.5559  229.6992 H   0  0  0  0  0  0  0  0  0  0  0  0
  141.1869   67.0116  229.0781 H   0  0  0  0  0  0  0  0  0  0  0  0
  142.1960   68.4977  229.0781 H   0  0  0  0  0  0  0  0  0  0  0  0
  139.6575   66.5549  227.3555 H   0  0  0  0  0  0  0  0  0  0  0  0
  138.8419   67.1201  225.0735 H   0  0  0  0  0  0  0  0  0  0  0  0
  141.6165   70.3743  227.5648 H   0  0  0  0  0  0  0  0  0  0  0  0
  140.2685   72.0602  225.3079 H   0  0  0  0  0  0  0  0  0  0  0  0
  141.7429   71.4105  224.6251 H   0  0  0  0  0  0  0  0  0  0  0  0
  139.1994   70.0598  221.0881 H   0  0  0  0  0  0  0  0  0  0  0  0
  138.9869   71.6012  219.1795 H   0  0  0  0  0  0  0  0  0  0  0  0
  139.4351   74.0177  219.4342 H   0  0  0  0  0  0  0  0  0  0  0  0
  139.0970   75.6340  223.4700 H   0  0  0  0  0  0  0  0  0  0  0  0
  138.0635   77.9530  221.8897 H   0  0  0  0  0  0  0  0  0  0  0  0
  138.5370   80.3965  221.7895 H   0  0  0  0  0  0  0  0  0  0  0  0
  142.0014   77.2056  223.4707 H   0  0  0  0  0  0  0  0  0  0  0  0
  143.1457   79.6483  224.3698 H   0  0  0  0  0  0  0  0  0  0  0  0
  143.5398   79.9335  222.6915 H   0  0  0  0  0  0  0  0  0  0  0  0
  141.8655   81.6114  224.6115 H   0  0  0  0  0  0  0  0  0  0  0  0
  142.9820   82.1860  223.3707 H   0  0  0  0  0  0  0  0  0  0  0  0
  140.2764   82.2326  222.9860 H   0  0  0  0  0  0  0  0  0  0  0  0
  141.3275   81.9272  221.6250 H   0  0  0  0  0  0  0  0  0  0  0  0
  140.3161   73.3625  223.5692 H   0  0  0  0  0  0  0  0  0  0  0  0
  1  2  1  0
  2  3  2  0
  3  4  1  0
  4  5  2  0
  5  6  1  0
  6  7  2  0
  6  8  1  0
  8  9  1  0
  9 10  1  0
 10 11  2  0
 11 12  1  0
 12 13  2  0
 13 14  1  0
 14 15  1  0
 15 16  2  0
 15 17  1  0
 17 18  1  0
 18 19  2  0
 19 20  1  0
 20 21  2  0
 21 22  1  0
 22 23  2  0
 22 24  1  0
 24 25  1  0
 25 26  1  0
 14 27  2  0
  9 28  2  0
  7  2  1  0
 27 10  1  0
 28  5  1  0
 23 18  1  0
 26 21  1  0
  1 29  1  0
  1 30  1  0
  1 31  1  0
  3 32  1  0
  4 33  1  0
  7 34  1  0
  8 35  1  0
  8 36  1  0
 11 37  1  0
 12 38  1  0
 13 39  1  0
 17 40  1  0
 19 41  1  0
 20 42  1  0
 23 43  1  0
 24 44  1  0
 24 45  1  0
 25 46  1  0
 25 47  1  0
 26 48  1  0
 26 49  1  0
 27 50  1  0
M  END
>  <smiles>  (29) 
Cc1ccc2c(c1)CC(c1cccc(C(=O)Nc3ccc4c(c3)CCC4)c1)=N2

>  <score_type>  (29) 
oracle

>  <origin>  (29) 
autodockgpu

>  <m_score__min__energy>  (29) 
-9.3399999999999999

>  <m_primary>  (29) 
energy

>  <rmsd>  (29) 
4.558787462062761

>  <m_score__min__rmsd>  (29) 
4.558787462062761

>  <meeko>  (29) 
{"free_energy": -9.31, "intermolecular_energy": -10.2, "internal_energy": -0.77, "cluster_size": 50, "cluster_id": 1, "rank_in_cluster": 31}

>  <energy>  (29) 
-9.31

>  <cluster_rmsd>  (29) 
0.09

>  <cluster>  (29) 
1

$$$$

     RDKit          3D

 50 54  0  0  0  0  0  0  0  0999 V2000
  141.1600   68.1330  228.9580 C   0  0  0  0  0  0  0  0  0  0  0  0
  140.7070   68.4580  227.5970 C   0  0  0  0  0  0  0  0  0  0  0  0
  140.0020   67.5210  226.8590 C   0  0  0  0  0  0  0  0  0  0  0  0
  139.5790   67.8300  225.5800 C   0  0  0  0  0  0  0  0  0  0  0  0
  139.8660   69.0720  225.0550 C   0  0  0  0  0  0  0  0  0  0  0  0
  140.5610   70.0180  225.7640 C   0  0  0  0  0  0  0  0  0  0  0  0
  140.9770   69.6970  227.0350 C   0  0  0  0  0  0  0  0  0  0  0  0
  140.6770   71.2170  224.8820 C   0  0  0  0  0  0  0  0  0  0  0  0
  139.9630   70.7890  223.6390 C   0  0  0  0  0  0  0  0  0  0  0  0
  139.8190   71.6550  222.4730 C   0  0  0  0  0  0  0  0  0  0  0  0
  139.4580   71.1890  221.2290 C   0  0  0  0  0  0  0  0  0  0  0  0
  139.3410   72.0610  220.1700 C   0  0  0  0  0  0  0  0  0  0  0  0
  139.5790   73.4100  220.3200 C   0  0  0  0  0  0  0  0  0  0  0  0
  139.9410   73.9020  221.5570 C   0  0  0  0  0  0  0  0  0  0  0  0
  140.1860   75.3320  221.6820 C   0  0  0  0  0  0  0  0  0  0  0  0
  140.9110   75.8830  220.8150 O   0  0  0  0  0  0  0  0  0  0  0  0
  139.6450   76.1250  222.7310 N   0  0  0  0  0  0  0  0  0  0  0  0
  139.9760   77.5140  222.7170 C   0  0  0  0  0  0  0  0  0  0  0  0
  138.9940   78.4010  222.3080 C   0  0  0  0  0  0  0  0  0  0  0  0
  139.2480   79.7610  222.2700 C   0  0  0  0  0  0  0  0  0  0  0  0
  140.5030   80.2120  222.6510 C   0  0  0  0  0  0  0  0  0  0  0  0
  141.4670   79.3120  223.0560 C   0  0  0  0  0  0  0  0  0  0  0  0
  141.2250   77.9560  223.0970 C   0  0  0  0  0  0  0  0  0  0  0  0
  142.7210   80.0690  223.4080 C   0  0  0  0  0  0  0  0  0  0  0  0
  142.2050   81.4770  223.6130 C   0  0  0  0  0  0  0  0  0  0  0  0
  141.0070   81.5980  222.6950 C   0  0  0  0  0  0  0  0  0  0  0  0
  140.0550   73.0160  222.6070 C   0  0  0  0  0  0  0  0  0  0  0  0
  139.5230   69.5830  223.7710 N   0  0  0  0  0  0  0  0  0  0  0  0
  140.4932   68.6114  229.6904 H   0  0  0  0  0  0  0  0  0  0  0  0
  141.1393   67.0425  229.1007 H   0  0  0  0  0  0  0  0  0  0  0  0
  142.1864   68.5020  229.1007 H   0  0  0  0  0  0  0  0  0  0  0  0
  139.7795   66.5337  227.2899 H   0  0  0  0  0  0  0  0  0  0  0  0
  139.0188   67.0922  224.9868 H   0  0  0  0  0  0  0  0  0  0  0  0
  141.5375   70.4410  227.6201 H   0  0  0  0  0  0  0  0  0  0  0  0
  140.1892   72.0916  225.3372 H   0  0  0  0  0  0  0  0  0  0  0  0
  141.7178   71.5236  224.7010 H   0  0  0  0  0  0  0  0  0  0  0  0
  139.2624   70.1167  221.0806 H   0  0  0  0  0  0  0  0  0  0  0  0
  139.0512   71.6724  219.1826 H   0  0  0  0  0  0  0  0  0  0  0  0
  139.4811   74.0892  219.4603 H   0  0  0  0  0  0  0  0  0  0  0  0
  139.0410   75.6860  223.4600 H   0  0  0  0  0  0  0  0  0  0  0  0
  138.0050   78.0218  222.0112 H   0  0  0  0  0  0  0  0  0  0  0  0
  138.4714   80.4688  221.9447 H   0  0  0  0  0  0  0  0  0  0  0  0
  142.0030   77.2496  223.4223 H   0  0  0  0  0  0  0  0  0  0  0  0
  143.1785   79.6752  224.3276 H   0  0  0  0  0  0  0  0  0  0  0  0
  143.5073   79.9966  222.6421 H   0  0  0  0  0  0  0  0  0  0  0  0
  141.9054   81.6294  224.6604 H   0  0  0  0  0  0  0  0  0  0  0  0
  142.9723   82.2328  223.3896 H   0  0  0  0  0  0  0  0  0  0  0  0
  140.2536   82.2828  223.1115 H   0  0  0  0  0  0  0  0  0  0  0  0
  141.2510   82.0095  221.7045 H   0  0  0  0  0  0  0  0  0  0  0  0
  140.3457   73.4048  223.5941 H   0  0  0  0  0  0  0  0  0  0  0  0
  1  2  1  0
  2  3  2  0
  3  4  1  0
  4  5  2  0
  5  6  1  0
  6  7  2  0
  6  8  1  0
  8  9  1  0
  9 10  1  0
 10 11  2  0
 11 12  1  0
 12 13  2  0
 13 14  1  0
 14 15  1  0
 15 16  2  0
 15 17  1  0
 17 18  1  0
 18 19  2  0
 19 20  1  0
 20 21  2  0
 21 22  1  0
 22 23  2  0
 22 24  1  0
 24 25  1  0
 25 26  1  0
 14 27  2  0
  9 28  2  0
  7  2  1  0
 27 10  1  0
 28  5  1  0
 23 18  1  0
 26 21  1  0
  1 29  1  0
  1 30  1  0
  1 31  1  0
  3 32  1  0
  4 33  1  0
  7 34  1  0
  8 35  1  0
  8 36  1  0
 11 37  1  0
 12 38  1  0
 13 39  1  0
 17 40  1  0
 19 41  1  0
 20 42  1  0
 23 43  1  0
 24 44  1  0
 24 45  1  0
 25 46  1  0
 25 47  1  0
 26 48  1  0
 26 49  1  0
 27 50  1  0
M  END
>  <smiles>  (30) 
Cc1ccc2c(c1)CC(c1cccc(C(=O)Nc3ccc4c(c3)CCC4)c1)=N2

>  <score_type>  (30) 
oracle

>  <origin>  (30) 
autodockgpu

>  <m_score__min__energy>  (30) 
-9.3399999999999999

>  <m_primary>  (30) 
energy

>  <rmsd>  (30) 
4.545415617061943

>  <m_score__min__rmsd>  (30) 
4.545415617061943

>  <meeko>  (30) 
{"free_energy": -9.32, "intermolecular_energy": -10.21, "internal_energy": -0.77, "cluster_size": 50, "cluster_id": 1, "rank_in_cluster": 12}

>  <energy>  (30) 
-9.31

>  <cluster_rmsd>  (30) 
0.12

>  <cluster>  (30) 
1

$$$$

     RDKit          3D

 50 54  0  0  0  0  0  0  0  0999 V2000
  141.0130   68.1530  228.9660 C   0  0  0  0  0  0  0  0  0  0  0  0
  140.5760   68.4810  227.6000 C   0  0  0  0  0  0  0  0  0  0  0  0
  139.8260   67.5680  226.8750 C   0  0  0  0  0  0  0  0  0  0  0  0
  139.4180   67.8800  225.5920 C   0  0  0  0  0  0  0  0  0  0  0  0
  139.7640   69.1000  225.0500 C   0  0  0  0  0  0  0  0  0  0  0  0
  140.5050   70.0200  225.7470 C   0  0  0  0  0  0  0  0  0  0  0  0
  140.9060   69.6970  227.0220 C   0  0  0  0  0  0  0  0  0  0  0  0
  140.6780   71.2010  224.8480 C   0  0  0  0  0  0  0  0  0  0  0  0
  139.9440   70.7900  223.6110 C   0  0  0  0  0  0  0  0  0  0  0  0
  139.8410   71.6460  222.4330 C   0  0  0  0  0  0  0  0  0  0  0  0
  139.5280   71.1680  221.1800 C   0  0  0  0  0  0  0  0  0  0  0  0
  139.4480   72.0320  220.1110 C   0  0  0  0  0  0  0  0  0  0  0  0
  139.6770   73.3830  220.2580 C   0  0  0  0  0  0  0  0  0  0  0  0
  139.9910   73.8860  221.5030 C   0  0  0  0  0  0  0  0  0  0  0  0
  140.2270   75.3180  221.6260 C   0  0  0  0  0  0  0  0  0  0  0  0
  140.9090   75.8800  220.7320 O   0  0  0  0  0  0  0  0  0  0  0  0
  139.7230   76.1000  222.7010 N   0  0  0  0  0  0  0  0  0  0  0  0
  140.0390   77.4920  222.6800 C   0  0  0  0  0  0  0  0  0  0  0  0
  139.0590   78.3640  222.2370 C   0  0  0  0  0  0  0  0  0  0  0  0
  139.2980   79.7260  222.1910 C   0  0  0  0  0  0  0  0  0  0  0  0
  140.5390   80.1950  222.5980 C   0  0  0  0  0  0  0  0  0  0  0  0
  141.5020   79.3100  223.0370 C   0  0  0  0  0  0  0  0  0  0  0  0
  141.2730   77.9520  223.0860 C   0  0  0  0  0  0  0  0  0  0  0  0
  142.7380   80.0840  223.4120 C   0  0  0  0  0  0  0  0  0  0  0  0
  142.2020   81.4890  223.5880 C   0  0  0  0  0  0  0  0  0  0  0  0
  141.0260   81.5870  222.6400 C   0  0  0  0  0  0  0  0  0  0  0  0
  140.0680   73.0090  222.5650 C   0  0  0  0  0  0  0  0  0  0  0  0
  139.4460   69.6080  223.7600 N   0  0  0  0  0  0  0  0  0  0  0  0
  140.3518   68.6493  229.6916 H   0  0  0  0  0  0  0  0  0  0  0  0
  140.9678   67.0639  229.1139 H   0  0  0  0  0  0  0  0  0  0  0  0
  142.0461   68.5005  229.1139 H   0  0  0  0  0  0  0  0  0  0  0  0
  139.5565   66.5985  227.3194 H   0  0  0  0  0  0  0  0  0  0  0  0
  138.8229   67.1620  225.0086 H   0  0  0  0  0  0  0  0  0  0  0  0
  141.5027   70.4206  227.5968 H   0  0  0  0  0  0  0  0  0  0  0  0
  140.2325   72.1040  225.2908 H   0  0  0  0  0  0  0  0  0  0  0  0
  141.7321   71.4555  224.6632 H   0  0  0  0  0  0  0  0  0  0  0  0
  139.3416   70.0939  221.0329 H   0  0  0  0  0  0  0  0  0  0  0  0
  139.1955   71.6348  219.1168 H   0  0  0  0  0  0  0  0  0  0  0  0
  139.6099   74.0546  219.3894 H   0  0  0  0  0  0  0  0  0  0  0  0
  139.1540   75.6520  223.4520 H   0  0  0  0  0  0  0  0  0  0  0  0
  138.0822   77.9706  221.9190 H   0  0  0  0  0  0  0  0  0  0  0  0
  138.5216   80.4215  221.8396 H   0  0  0  0  0  0  0  0  0  0  0  0
  142.0501   77.2575  223.4378 H   0  0  0  0  0  0  0  0  0  0  0  0
  143.1760   79.7053  224.3473 H   0  0  0  0  0  0  0  0  0  0  0  0
  143.5443   80.0117  222.6672 H   0  0  0  0  0  0  0  0  0  0  0  0
  141.8752   81.6499  224.6259 H   0  0  0  0  0  0  0  0  0  0  0  0
  142.9666   82.2504  223.3745 H   0  0  0  0  0  0  0  0  0  0  0  0
  140.2549   82.2672  223.0308 H   0  0  0  0  0  0  0  0  0  0  0  0
  141.2896   81.9914  221.6516 H   0  0  0  0  0  0  0  0  0  0  0  0
  140.3201   73.4069  223.5591 H   0  0  0  0  0  0  0  0  0  0  0  0
  1  2  1  0
  2  3  2  0
  3  4  1  0
  4  5  2  0
  5  6  1  0
  6  7  2  0
  6  8  1  0
  8  9  1  0
  9 10  1  0
 10 11  2  0
 11 12  1  0
 12 13  2  0
 13 14  1  0
 14 15  1  0
 15 16  2  0
 15 17  1  0
 17 18  1  0
 18 19  2  0
 19 20  1  0
 20 21  2  0
 21 22  1  0
 22 23  2  0
 22 24  1  0
 24 25  1  0
 25 26  1  0
 14 27  2  0
  9 28  2  0
  7  2  1  0
 27 10  1  0
 28  5  1  0
 23 18  1  0
 26 21  1  0
  1 29  1  0
  1 30  1  0
  1 31  1  0
  3 32  1  0
  4 33  1  0
  7 34  1  0
  8 35  1  0
  8 36  1  0
 11 37  1  0
 12 38  1  0
 13 39  1  0
 17 40  1  0
 19 41  1  0
 20 42  1  0
 23 43  1  0
 24 44  1  0
 24 45  1  0
 25 46  1  0
 25 47  1  0
 26 48  1  0
 26 49  1  0
 27 50  1  0
M  END
>  <smiles>  (31) 
Cc1ccc2c(c1)CC(c1cccc(C(=O)Nc3ccc4c(c3)CCC4)c1)=N2

>  <score_type>  (31) 
oracle

>  <origin>  (31) 
autodockgpu

>  <m_score__min__energy>  (31) 
-9.3399999999999999

>  <m_primary>  (31) 
energy

>  <rmsd>  (31) 
4.524673000842764

>  <m_score__min__rmsd>  (31) 
4.524673000842764

>  <meeko>  (31) 
{"free_energy": -9.32, "intermolecular_energy": -10.21, "internal_energy": -0.77, "cluster_size": 50, "cluster_id": 1, "rank_in_cluster": 14}

>  <energy>  (31) 
-9.31

>  <cluster_rmsd>  (31) 
0.08

>  <cluster>  (31) 
1

$$$$

     RDKit          3D

 50 54  0  0  0  0  0  0  0  0999 V2000
  141.0610   68.1420  228.9830 C   0  0  0  0  0  0  0  0  0  0  0  0
  140.5770   68.4960  227.6390 C   0  0  0  0  0  0  0  0  0  0  0  0
  139.6900   67.6600  226.9790 C   0  0  0  0  0  0  0  0  0  0  0  0
  139.2380   67.9960  225.7170 C   0  0  0  0  0  0  0  0  0  0  0  0
  139.6780   69.1640  225.1310 C   0  0  0  0  0  0  0  0  0  0  0  0
  140.5550   70.0090  225.7630 C   0  0  0  0  0  0  0  0  0  0  0  0
  140.9970   69.6620  227.0170 C   0  0  0  0  0  0  0  0  0  0  0  0
  140.7970   71.1520  224.8320 C   0  0  0  0  0  0  0  0  0  0  0  0
  139.9470   70.8060  223.6500 C   0  0  0  0  0  0  0  0  0  0  0  0
  139.8640   71.6520  222.4630 C   0  0  0  0  0  0  0  0  0  0  0  0
  139.5720   71.1640  221.2090 C   0  0  0  0  0  0  0  0  0  0  0  0
  139.5090   72.0180  220.1310 C   0  0  0  0  0  0  0  0  0  0  0  0
  139.7340   73.3700  220.2710 C   0  0  0  0  0  0  0  0  0  0  0  0
  140.0280   73.8840  221.5170 C   0  0  0  0  0  0  0  0  0  0  0  0
  140.2610   75.3170  221.6320 C   0  0  0  0  0  0  0  0  0  0  0  0
  140.9240   75.8790  220.7230 O   0  0  0  0  0  0  0  0  0  0  0  0
  139.7750   76.1010  222.7140 N   0  0  0  0  0  0  0  0  0  0  0  0
  140.0860   77.4930  222.6840 C   0  0  0  0  0  0  0  0  0  0  0  0
  139.1140   78.3550  222.2050 C   0  0  0  0  0  0  0  0  0  0  0  0
  139.3490   79.7180  222.1480 C   0  0  0  0  0  0  0  0  0  0  0  0
  140.5760   80.1970  222.5810 C   0  0  0  0  0  0  0  0  0  0  0  0
  141.5320   79.3220  223.0550 C   0  0  0  0  0  0  0  0  0  0  0  0
  141.3080   77.9640  223.1160 C   0  0  0  0  0  0  0  0  0  0  0  0
  142.7540   80.1070  223.4520 C   0  0  0  0  0  0  0  0  0  0  0  0
  142.2080   81.5110  223.5970 C   0  0  0  0  0  0  0  0  0  0  0  0
  141.0570   81.5910  222.6170 C   0  0  0  0  0  0  0  0  0  0  0  0
  140.0880   73.0160  222.5870 C   0  0  0  0  0  0  0  0  0  0  0  0
  139.3370   69.6870  223.8520 N   0  0  0  0  0  0  0  0  0  0  0  0
  140.4171   68.6129  229.7404 H   0  0  0  0  0  0  0  0  0  0  0  0
  141.0336   67.0493  229.1066 H   0  0  0  0  0  0  0  0  0  0  0  0
  142.0940   68.4992  229.1066 H   0  0  0  0  0  0  0  0  0  0  0  0
  139.3467   66.7315  227.4585 H   0  0  0  0  0  0  0  0  0  0  0  0
  138.5344   67.3384  225.1854 H   0  0  0  0  0  0  0  0  0  0  0  0
  141.7013   70.3255  227.5402 H   0  0  0  0  0  0  0  0  0  0  0  0
  140.4794   72.1038  225.2829 H   0  0  0  0  0  0  0  0  0  0  0  0
  141.8587   71.2886  224.5786 H   0  0  0  0  0  0  0  0  0  0  0  0
  139.3885   70.0886  221.0681 H   0  0  0  0  0  0  0  0  0  0  0  0
  139.2739   71.6120  219.1361 H   0  0  0  0  0  0  0  0  0  0  0  0
  139.6796   74.0345  219.3960 H   0  0  0  0  0  0  0  0  0  0  0  0
  139.2230   75.6520  223.4780 H   0  0  0  0  0  0  0  0  0  0  0  0
  138.1473   77.9535  221.8670 H   0  0  0  0  0  0  0  0  0  0  0  0
  138.5794   80.4058  221.7676 H   0  0  0  0  0  0  0  0  0  0  0  0
  142.0788   77.2778  223.4969 H   0  0  0  0  0  0  0  0  0  0  0  0
  143.1696   79.7419  224.4028 H   0  0  0  0  0  0  0  0  0  0  0  0
  143.5791   80.0297  222.7287 H   0  0  0  0  0  0  0  0  0  0  0  0
  141.8532   81.6830  224.6239 H   0  0  0  0  0  0  0  0  0  0  0  0
  142.9745   82.2737  223.3949 H   0  0  0  0  0  0  0  0  0  0  0  0
  140.2734   82.2734  222.9780 H   0  0  0  0  0  0  0  0  0  0  0  0
  141.3455   81.9826  221.6304 H   0  0  0  0  0  0  0  0  0  0  0  0
  140.3236   73.4223  223.5817 H   0  0  0  0  0  0  0  0  0  0  0  0
  1  2  1  0
  2  3  2  0
  3  4  1  0
  4  5  2  0
  5  6  1  0
  6  7  2  0
  6  8  1  0
  8  9  1  0
  9 10  1  0
 10 11  2  0
 11 12  1  0
 12 13  2  0
 13 14  1  0
 14 15  1  0
 15 16  2  0
 15 17  1  0
 17 18  1  0
 18 19  2  0
 19 20  1  0
 20 21  2  0
 21 22  1  0
 22 23  2  0
 22 24  1  0
 24 25  1  0
 25 26  1  0
 14 27  2  0
  9 28  2  0
  7  2  1  0
 27 10  1  0
 28  5  1  0
 23 18  1  0
 26 21  1  0
  1 29  1  0
  1 30  1  0
  1 31  1  0
  3 32  1  0
  4 33  1  0
  7 34  1  0
  8 35  1  0
  8 36  1  0
 11 37  1  0
 12 38  1  0
 13 39  1  0
 17 40  1  0
 19 41  1  0
 20 42  1  0
 23 43  1  0
 24 44  1  0
 24 45  1  0
 25 46  1  0
 25 47  1  0
 26 48  1  0
 26 49  1  0
 27 50  1  0
M  END
>  <smiles>  (32) 
Cc1ccc2c(c1)CC(c1cccc(C(=O)Nc3ccc4c(c3)CCC4)c1)=N2

>  <score_type>  (32) 
oracle

>  <origin>  (32) 
autodockgpu

>  <m_score__min__energy>  (32) 
-9.3399999999999999

>  <m_primary>  (32) 
energy

>  <rmsd>  (32) 
4.523112061679748

>  <m_score__min__rmsd>  (32) 
4.523112061679748

>  <meeko>  (32) 
{"free_energy": -9.3, "intermolecular_energy": -10.2, "internal_energy": -0.77, "cluster_size": 50, "cluster_id": 1, "rank_in_cluster": 40}

>  <energy>  (32) 
-9.31

>  <cluster_rmsd>  (32) 
0.03

>  <cluster>  (32) 
1

$$$$

     RDKit          3D

 50 54  0  0  0  0  0  0  0  0999 V2000
  141.0450   68.1580  228.9540 C   0  0  0  0  0  0  0  0  0  0  0  0
  140.5970   68.4850  227.5920 C   0  0  0  0  0  0  0  0  0  0  0  0
  139.8460   67.5700  226.8710 C   0  0  0  0  0  0  0  0  0  0  0  0
  139.4270   67.8810  225.5910 C   0  0  0  0  0  0  0  0  0  0  0  0
  139.7640   69.1030  225.0470 C   0  0  0  0  0  0  0  0  0  0  0  0
  140.5060   70.0250  225.7400 C   0  0  0  0  0  0  0  0  0  0  0  0
  140.9170   69.7030  227.0120 C   0  0  0  0  0  0  0  0  0  0  0  0
  140.6690   71.2070  224.8410 C   0  0  0  0  0  0  0  0  0  0  0  0
  139.9270   70.7950  223.6090 C   0  0  0  0  0  0  0  0  0  0  0  0
  139.8130   71.6520  222.4320 C   0  0  0  0  0  0  0  0  0  0  0  0
  139.4860   71.1750  221.1830 C   0  0  0  0  0  0  0  0  0  0  0  0
  139.3960   72.0380  220.1140 C   0  0  0  0  0  0  0  0  0  0  0  0
  139.6270   73.3890  220.2600 C   0  0  0  0  0  0  0  0  0  0  0  0
  139.9560   73.8910  221.5020 C   0  0  0  0  0  0  0  0  0  0  0  0
  140.1940   75.3230  221.6220 C   0  0  0  0  0  0  0  0  0  0  0  0
  140.8580   75.8870  220.7160 O   0  0  0  0  0  0  0  0  0  0  0  0
  139.7120   76.1040  222.7090 N   0  0  0  0  0  0  0  0  0  0  0  0
  140.0280   77.4950  222.6840 C   0  0  0  0  0  0  0  0  0  0  0  0
  139.0520   78.3650  222.2290 C   0  0  0  0  0  0  0  0  0  0  0  0
  139.2910   79.7270  222.1790 C   0  0  0  0  0  0  0  0  0  0  0  0
  140.5280   80.1980  222.5940 C   0  0  0  0  0  0  0  0  0  0  0  0
  141.4880   79.3150  223.0450 C   0  0  0  0  0  0  0  0  0  0  0  0
  141.2590   77.9570  223.0990 C   0  0  0  0  0  0  0  0  0  0  0  0
  142.7210   80.0910  223.4270 C   0  0  0  0  0  0  0  0  0  0  0  0
  142.1830   81.4970  223.5930 C   0  0  0  0  0  0  0  0  0  0  0  0
  141.0150   81.5900  222.6340 C   0  0  0  0  0  0  0  0  0  0  0  0
  140.0430   73.0140  222.5620 C   0  0  0  0  0  0  0  0  0  0  0  0
  139.4350   69.6110  223.7600 N   0  0  0  0  0  0  0  0  0  0  0  0
  140.3809   68.6427  229.6847 H   0  0  0  0  0  0  0  0  0  0  0  0
  141.0151   67.0679  229.0980 H   0  0  0  0  0  0  0  0  0  0  0  0
  142.0741   68.5188  229.0980 H   0  0  0  0  0  0  0  0  0  0  0  0
  139.5841   66.5988  227.3163 H   0  0  0  0  0  0  0  0  0  0  0  0
  138.8305   67.1609  225.0117 H   0  0  0  0  0  0  0  0  0  0  0  0
  141.5140   70.4292  227.5832 H   0  0  0  0  0  0  0  0  0  0  0  0
  140.2243   72.1084  225.2879 H   0  0  0  0  0  0  0  0  0  0  0  0
  141.7210   71.4646  224.6487 H   0  0  0  0  0  0  0  0  0  0  0  0
  139.2960   70.1012  221.0385 H   0  0  0  0  0  0  0  0  0  0  0  0
  139.1341   71.6408  219.1222 H   0  0  0  0  0  0  0  0  0  0  0  0
  139.5496   74.0615  219.3930 H   0  0  0  0  0  0  0  0  0  0  0  0
  139.1590   75.6540  223.4700 H   0  0  0  0  0  0  0  0  0  0  0  0
  138.0780   77.9701  221.9044 H   0  0  0  0  0  0  0  0  0  0  0  0
  138.5173   80.4208  221.8182 H   0  0  0  0  0  0  0  0  0  0  0  0
  142.0330   77.2644  223.4613 H   0  0  0  0  0  0  0  0  0  0  0  0
  143.1515   79.7162  224.3673 H   0  0  0  0  0  0  0  0  0  0  0  0
  143.5333   80.0159  222.6891 H   0  0  0  0  0  0  0  0  0  0  0  0
  141.8471   81.6620  224.6274 H   0  0  0  0  0  0  0  0  0  0  0  0
  142.9490   82.2581  223.3835 H   0  0  0  0  0  0  0  0  0  0  0  0
  140.2405   82.2720  223.0148 H   0  0  0  0  0  0  0  0  0  0  0  0
  141.2876   81.9893  221.6460 H   0  0  0  0  0  0  0  0  0  0  0  0
  140.3061   73.4111  223.5535 H   0  0  0  0  0  0  0  0  0  0  0  0
  1  2  1  0
  2  3  2  0
  3  4  1  0
  4  5  2  0
  5  6  1  0
  6  7  2  0
  6  8  1  0
  8  9  1  0
  9 10  1  0
 10 11  2  0
 11 12  1  0
 12 13  2  0
 13 14  1  0
 14 15  1  0
 15 16  2  0
 15 17  1  0
 17 18  1  0
 18 19  2  0
 19 20  1  0
 20 21  2  0
 21 22  1  0
 22 23  2  0
 22 24  1  0
 24 25  1  0
 25 26  1  0
 14 27  2  0
  9 28  2  0
  7  2  1  0
 27 10  1  0
 28  5  1  0
 23 18  1  0
 26 21  1  0
  1 29  1  0
  1 30  1  0
  1 31  1  0
  3 32  1  0
  4 33  1  0
  7 34  1  0
  8 35  1  0
  8 36  1  0
 11 37  1  0
 12 38  1  0
 13 39  1  0
 17 40  1  0
 19 41  1  0
 20 42  1  0
 23 43  1  0
 24 44  1  0
 24 45  1  0
 25 46  1  0
 25 47  1  0
 26 48  1  0
 26 49  1  0
 27 50  1  0
M  END
>  <smiles>  (33) 
Cc1ccc2c(c1)CC(c1cccc(C(=O)Nc3ccc4c(c3)CCC4)c1)=N2

>  <score_type>  (33) 
oracle

>  <origin>  (33) 
autodockgpu

>  <m_score__min__energy>  (33) 
-9.3399999999999999

>  <m_primary>  (33) 
energy

>  <rmsd>  (33) 
4.519819186913154

>  <m_score__min__rmsd>  (33) 
4.519819186913154

>  <meeko>  (33) 
{"free_energy": -9.32, "intermolecular_energy": -10.22, "internal_energy": -0.77, "cluster_size": 50, "cluster_id": 1, "rank_in_cluster": 7}

>  <energy>  (33) 
-9.31

>  <cluster_rmsd>  (33) 
0.05

>  <cluster>  (33) 
1

$$$$

     RDKit          3D

 50 54  0  0  0  0  0  0  0  0999 V2000
  141.1150   68.1400  228.9630 C   0  0  0  0  0  0  0  0  0  0  0  0
  140.6540   68.4670  227.6040 C   0  0  0  0  0  0  0  0  0  0  0  0
  139.9000   67.5510  226.8890 C   0  0  0  0  0  0  0  0  0  0  0  0
  139.4680   67.8620  225.6130 C   0  0  0  0  0  0  0  0  0  0  0  0
  139.7970   69.0850  225.0680 C   0  0  0  0  0  0  0  0  0  0  0  0
  140.5420   70.0090  225.7550 C   0  0  0  0  0  0  0  0  0  0  0  0
  140.9650   69.6870  227.0230 C   0  0  0  0  0  0  0  0  0  0  0  0
  140.6930   71.1930  224.8560 C   0  0  0  0  0  0  0  0  0  0  0  0
  139.9420   70.7800  223.6300 C   0  0  0  0  0  0  0  0  0  0  0  0
  139.8150   71.6370  222.4560 C   0  0  0  0  0  0  0  0  0  0  0  0
  139.4750   71.1610  221.2090 C   0  0  0  0  0  0  0  0  0  0  0  0
  139.3730   72.0260  220.1430 C   0  0  0  0  0  0  0  0  0  0  0  0
  139.6040   73.3770  220.2870 C   0  0  0  0  0  0  0  0  0  0  0  0
  139.9450   73.8780  221.5260 C   0  0  0  0  0  0  0  0  0  0  0  0
  140.1830   75.3100  221.6460 C   0  0  0  0  0  0  0  0  0  0  0  0
  140.8930   75.8630  220.7680 O   0  0  0  0  0  0  0  0  0  0  0  0
  139.6520   76.1020  222.7000 N   0  0  0  0  0  0  0  0  0  0  0  0
  139.9750   77.4920  222.6790 C   0  0  0  0  0  0  0  0  0  0  0  0
  139.0000   78.3680  222.2330 C   0  0  0  0  0  0  0  0  0  0  0  0
  139.2450   79.7290  222.1870 C   0  0  0  0  0  0  0  0  0  0  0  0
  140.4870   80.1930  222.5960 C   0  0  0  0  0  0  0  0  0  0  0  0
  141.4450   79.3040  223.0370 C   0  0  0  0  0  0  0  0  0  0  0  0
  141.2110   77.9470  223.0870 C   0  0  0  0  0  0  0  0  0  0  0  0
  142.6840   80.0730  223.4140 C   0  0  0  0  0  0  0  0  0  0  0  0
  142.1540   81.4800  223.5890 C   0  0  0  0  0  0  0  0  0  0  0  0
  140.9810   81.5820  222.6380 C   0  0  0  0  0  0  0  0  0  0  0  0
  140.0440   73.0000  222.5840 C   0  0  0  0  0  0  0  0  0  0  0  0
  139.4550   69.5940  223.7840 N   0  0  0  0  0  0  0  0  0  0  0  0
  140.4488   68.6126  229.6998 H   0  0  0  0  0  0  0  0  0  0  0  0
  141.1007   67.0490  229.1024 H   0  0  0  0  0  0  0  0  0  0  0  0
  142.1400   68.5141  229.1024 H   0  0  0  0  0  0  0  0  0  0  0  0
  139.6455   66.5784  227.3354 H   0  0  0  0  0  0  0  0  0  0  0  0
  138.8679   67.1410  225.0385 H   0  0  0  0  0  0  0  0  0  0  0  0
  141.5644   70.4145  227.5900 H   0  0  0  0  0  0  0  0  0  0  0  0
  140.2489   72.0922  225.3079 H   0  0  0  0  0  0  0  0  0  0  0  0
  141.7423   71.4546  224.6550 H   0  0  0  0  0  0  0  0  0  0  0  0
  139.2846   70.0873  221.0646 H   0  0  0  0  0  0  0  0  0  0  0  0
  139.1009   71.6298  219.1536 H   0  0  0  0  0  0  0  0  0  0  0  0
  139.5172   74.0500  219.4212 H   0  0  0  0  0  0  0  0  0  0  0  0
  139.0610   75.6610  223.4380 H   0  0  0  0  0  0  0  0  0  0  0  0
  138.0224   77.9787  221.9125 H   0  0  0  0  0  0  0  0  0  0  0  0
  138.4722   80.4277  221.8340 H   0  0  0  0  0  0  0  0  0  0  0  0
  141.9847   77.2497  223.4408 H   0  0  0  0  0  0  0  0  0  0  0  0
  143.1189   79.6925  224.3500 H   0  0  0  0  0  0  0  0  0  0  0  0
  143.4911   79.9971  222.6704 H   0  0  0  0  0  0  0  0  0  0  0  0
  141.8253   81.6424  224.6261 H   0  0  0  0  0  0  0  0  0  0  0  0
  142.9222   82.2385  223.3779 H   0  0  0  0  0  0  0  0  0  0  0  0
  140.2122   82.2664  223.0260 H   0  0  0  0  0  0  0  0  0  0  0  0
  141.2495   81.9835  221.6497 H   0  0  0  0  0  0  0  0  0  0  0  0
  140.3164   73.3969  223.5731 H   0  0  0  0  0  0  0  0  0  0  0  0
  1  2  1  0
  2  3  2  0
  3  4  1  0
  4  5  2  0
  5  6  1  0
  6  7  2  0
  6  8  1  0
  8  9  1  0
  9 10  1  0
 10 11  2  0
 11 12  1  0
 12 13  2  0
 13 14  1  0
 14 15  1  0
 15 16  2  0
 15 17  1  0
 17 18  1  0
 18 19  2  0
 19 20  1  0
 20 21  2  0
 21 22  1  0
 22 23  2  0
 22 24  1  0
 24 25  1  0
 25 26  1  0
 14 27  2  0
  9 28  2  0
  7  2  1  0
 27 10  1  0
 28  5  1  0
 23 18  1  0
 26 21  1  0
  1 29  1  0
  1 30  1  0
  1 31  1  0
  3 32  1  0
  4 33  1  0
  7 34  1  0
  8 35  1  0
  8 36  1  0
 11 37  1  0
 12 38  1  0
 13 39  1  0
 17 40  1  0
 19 41  1  0
 20 42  1  0
 23 43  1  0
 24 44  1  0
 24 45  1  0
 25 46  1  0
 25 47  1  0
 26 48  1  0
 26 49  1  0
 27 50  1  0
M  END
>  <smiles>  (34) 
Cc1ccc2c(c1)CC(c1cccc(C(=O)Nc3ccc4c(c3)CCC4)c1)=N2

>  <score_type>  (34) 
oracle

>  <origin>  (34) 
autodockgpu

>  <m_score__min__energy>  (34) 
-9.3399999999999999

>  <m_primary>  (34) 
energy

>  <rmsd>  (34) 
4.535144192423117

>  <m_score__min__rmsd>  (34) 
4.535144192423117

>  <meeko>  (34) 
{"free_energy": -9.31, "intermolecular_energy": -10.21, "internal_energy": -0.77, "cluster_size": 50, "cluster_id": 1, "rank_in_cluster": 24}

>  <energy>  (34) 
-9.31

>  <cluster_rmsd>  (34) 
0.12

>  <cluster>  (34) 
1

$$$$

     RDKit          3D

 50 54  0  0  0  0  0  0  0  0999 V2000
  141.0630   68.1470  228.9320 C   0  0  0  0  0  0  0  0  0  0  0  0
  140.6040   68.4790  227.5750 C   0  0  0  0  0  0  0  0  0  0  0  0
  139.8200   67.5800  226.8690 C   0  0  0  0  0  0  0  0  0  0  0  0
  139.3910   67.8960  225.5940 C   0  0  0  0  0  0  0  0  0  0  0  0
  139.7500   69.1070  225.0400 C   0  0  0  0  0  0  0  0  0  0  0  0
  140.5250   70.0140  225.7180 C   0  0  0  0  0  0  0  0  0  0  0  0
  140.9460   69.6870  226.9850 C   0  0  0  0  0  0  0  0  0  0  0  0
  140.7030   71.1880  224.8110 C   0  0  0  0  0  0  0  0  0  0  0  0
  139.9340   70.7880  223.5920 C   0  0  0  0  0  0  0  0  0  0  0  0
  139.8240   71.6430  222.4130 C   0  0  0  0  0  0  0  0  0  0  0  0
  139.5060   71.1630  221.1630 C   0  0  0  0  0  0  0  0  0  0  0  0
  139.4190   72.0250  220.0920 C   0  0  0  0  0  0  0  0  0  0  0  0
  139.6460   73.3760  220.2360 C   0  0  0  0  0  0  0  0  0  0  0  0
  139.9660   73.8810  221.4800 C   0  0  0  0  0  0  0  0  0  0  0  0
  140.2000   75.3140  221.5990 C   0  0  0  0  0  0  0  0  0  0  0  0
  140.8630   75.8790  220.6920 O   0  0  0  0  0  0  0  0  0  0  0  0
  139.7160   76.0940  222.6850 N   0  0  0  0  0  0  0  0  0  0  0  0
  140.0280   77.4870  222.6590 C   0  0  0  0  0  0  0  0  0  0  0  0
  139.0490   78.3530  222.2010 C   0  0  0  0  0  0  0  0  0  0  0  0
  139.2850   79.7150  222.1500 C   0  0  0  0  0  0  0  0  0  0  0  0
  140.5190   80.1910  222.5670 C   0  0  0  0  0  0  0  0  0  0  0  0
  141.4810   79.3120  223.0210 C   0  0  0  0  0  0  0  0  0  0  0  0
  141.2560   77.9530  223.0750 C   0  0  0  0  0  0  0  0  0  0  0  0
  142.7110   80.0920  223.4040 C   0  0  0  0  0  0  0  0  0  0  0  0
  142.1680   81.4960  223.5670 C   0  0  0  0  0  0  0  0  0  0  0  0
  141.0020   81.5840  222.6060 C   0  0  0  0  0  0  0  0  0  0  0  0
  140.0500   73.0060  222.5420 C   0  0  0  0  0  0  0  0  0  0  0  0
  139.4150   69.6180  223.7550 N   0  0  0  0  0  0  0  0  0  0  0  0
  140.4020   68.6251  229.6699 H   0  0  0  0  0  0  0  0  0  0  0  0
  141.0388   67.0560  229.0706 H   0  0  0  0  0  0  0  0  0  0  0  0
  142.0916   68.5115  229.0706 H   0  0  0  0  0  0  0  0  0  0  0  0
  139.5401   66.6177  227.3224 H   0  0  0  0  0  0  0  0  0  0  0  0
  138.7690   67.1884  225.0262 H   0  0  0  0  0  0  0  0  0  0  0  0
  141.5690   70.4003  227.5445 H   0  0  0  0  0  0  0  0  0  0  0  0
  140.2861   72.1017  225.2598 H   0  0  0  0  0  0  0  0  0  0  0  0
  141.7579   71.4199  224.6025 H   0  0  0  0  0  0  0  0  0  0  0  0
  139.3208   70.0883  221.0187 H   0  0  0  0  0  0  0  0  0  0  0  0
  139.1626   71.6256  219.0997 H   0  0  0  0  0  0  0  0  0  0  0  0
  139.5729   74.0466  219.3671 H   0  0  0  0  0  0  0  0  0  0  0  0
  139.1640   75.6430  223.4470 H   0  0  0  0  0  0  0  0  0  0  0  0
  138.0767   77.9548  221.8754 H   0  0  0  0  0  0  0  0  0  0  0  0
  138.5102   80.4060  221.7863 H   0  0  0  0  0  0  0  0  0  0  0  0
  142.0318   77.2630  223.4385 H   0  0  0  0  0  0  0  0  0  0  0  0
  143.1410   79.7198  224.3456 H   0  0  0  0  0  0  0  0  0  0  0  0
  143.5251   80.0183  222.6679 H   0  0  0  0  0  0  0  0  0  0  0  0
  141.8295   81.6612  224.6005 H   0  0  0  0  0  0  0  0  0  0  0  0
  142.9319   82.2593  223.3579 H   0  0  0  0  0  0  0  0  0  0  0  0
  140.2248   82.2644  222.9843 H   0  0  0  0  0  0  0  0  0  0  0  0
  141.2755   81.9825  221.6179 H   0  0  0  0  0  0  0  0  0  0  0  0
  140.3072   73.4054  223.5341 H   0  0  0  0  0  0  0  0  0  0  0  0
  1  2  1  0
  2  3  2  0
  3  4  1  0
  4  5  2  0
  5  6  1  0
  6  7  2  0
  6  8  1  0
  8  9  1  0
  9 10  1  0
 10 11  2  0
 11 12  1  0
 12 13  2  0
 13 14  1  0
 14 15  1  0
 15 16  2  0
 15 17  1  0
 17 18  1  0
 18 19  2  0
 19 20  1  0
 20 21  2  0
 21 22  1  0
 22 23  2  0
 22 24  1  0
 24 25  1  0
 25 26  1  0
 14 27  2  0
  9 28  2  0
  7  2  1  0
 27 10  1  0
 28  5  1  0
 23 18  1  0
 26 21  1  0
  1 29  1  0
  1 30  1  0
  1 31  1  0
  3 32  1  0
  4 33  1  0
  7 34  1  0
  8 35  1  0
  8 36  1  0
 11 37  1  0
 12 38  1  0
 13 39  1  0
 17 40  1  0
 19 41  1  0
 20 42  1  0
 23 43  1  0
 24 44  1  0
 24 45  1  0
 25 46  1  0
 25 47  1  0
 26 48  1  0
 26 49  1  0
 27 50  1  0
M  END
>  <smiles>  (35) 
Cc1ccc2c(c1)CC(c1cccc(C(=O)Nc3ccc4c(c3)CCC4)c1)=N2

>  <score_type>  (35) 
oracle

>  <origin>  (35) 
autodockgpu

>  <m_score__min__energy>  (35) 
-9.3399999999999999

>  <m_primary>  (35) 
energy

>  <rmsd>  (35) 
4.512329794157821

>  <m_score__min__rmsd>  (35) 
4.512329794157821

>  <meeko>  (35) 
{"free_energy": -9.32, "intermolecular_energy": -10.21, "internal_energy": -0.77, "cluster_size": 50, "cluster_id": 1, "rank_in_cluster": 22}

>  <energy>  (35) 
-9.31

>  <cluster_rmsd>  (35) 
0.14

>  <cluster>  (35) 
1

$$$$

     RDKit          3D

 50 54  0  0  0  0  0  0  0  0999 V2000
  141.0490   68.1470  228.9560 C   0  0  0  0  0  0  0  0  0  0  0  0
  140.5920   68.4840  227.5980 C   0  0  0  0  0  0  0  0  0  0  0  0
  139.8060   67.5880  226.8900 C   0  0  0  0  0  0  0  0  0  0  0  0
  139.3790   67.9080  225.6150 C   0  0  0  0  0  0  0  0  0  0  0  0
  139.7430   69.1180  225.0640 C   0  0  0  0  0  0  0  0  0  0  0  0
  140.5190   70.0220  225.7440 C   0  0  0  0  0  0  0  0  0  0  0  0
  140.9380   69.6910  227.0110 C   0  0  0  0  0  0  0  0  0  0  0  0
  140.7020   71.1970  224.8400 C   0  0  0  0  0  0  0  0  0  0  0  0
  139.9330   70.8020  223.6180 C   0  0  0  0  0  0  0  0  0  0  0  0
  139.8270   71.6590  222.4420 C   0  0  0  0  0  0  0  0  0  0  0  0
  139.5110   71.1820  221.1890 C   0  0  0  0  0  0  0  0  0  0  0  0
  139.4280   72.0450  220.1200 C   0  0  0  0  0  0  0  0  0  0  0  0
  139.6560   73.3970  220.2680 C   0  0  0  0  0  0  0  0  0  0  0  0
  139.9730   73.8990  221.5130 C   0  0  0  0  0  0  0  0  0  0  0  0
  140.2080   75.3310  221.6360 C   0  0  0  0  0  0  0  0  0  0  0  0
  140.8740   75.8970  220.7320 O   0  0  0  0  0  0  0  0  0  0  0  0
  139.7200   76.1100  222.7210 N   0  0  0  0  0  0  0  0  0  0  0  0
  140.0340   77.5020  222.6990 C   0  0  0  0  0  0  0  0  0  0  0  0
  139.0530   78.3710  222.2520 C   0  0  0  0  0  0  0  0  0  0  0  0
  139.2890   79.7340  222.2050 C   0  0  0  0  0  0  0  0  0  0  0  0
  140.5270   80.2060  222.6150 C   0  0  0  0  0  0  0  0  0  0  0  0
  141.4910   79.3240  223.0580 C   0  0  0  0  0  0  0  0  0  0  0  0
  141.2660   77.9650  223.1080 C   0  0  0  0  0  0  0  0  0  0  0  0
  142.7240   80.1010  223.4350 C   0  0  0  0  0  0  0  0  0  0  0  0
  142.1850   81.5050  223.6080 C   0  0  0  0  0  0  0  0  0  0  0  0
  141.0110   81.5990  222.6560 C   0  0  0  0  0  0  0  0  0  0  0  0
  140.0530   73.0220  222.5730 C   0  0  0  0  0  0  0  0  0  0  0  0
  139.4110   69.6330  223.7790 N   0  0  0  0  0  0  0  0  0  0  0  0
  140.3928   68.6309  229.6944 H   0  0  0  0  0  0  0  0  0  0  0  0
  141.0148   67.0563  229.0942 H   0  0  0  0  0  0  0  0  0  0  0  0
  142.0809   68.5020  229.0942 H   0  0  0  0  0  0  0  0  0  0  0  0
  139.5231   66.6256  227.3414 H   0  0  0  0  0  0  0  0  0  0  0  0
  138.7547   67.2039  225.0454 H   0  0  0  0  0  0  0  0  0  0  0  0
  141.5629   70.4012  227.5723 H   0  0  0  0  0  0  0  0  0  0  0  0
  140.2874   72.1110  225.2902 H   0  0  0  0  0  0  0  0  0  0  0  0
  141.7579   71.4258  224.6335 H   0  0  0  0  0  0  0  0  0  0  0  0
  139.3244   70.1079  221.0423 H   0  0  0  0  0  0  0  0  0  0  0  0
  139.1743   71.6477  219.1261 H   0  0  0  0  0  0  0  0  0  0  0  0
  139.5857   74.0695  219.4004 H   0  0  0  0  0  0  0  0  0  0  0  0
  139.1650   75.6580  223.4800 H   0  0  0  0  0  0  0  0  0  0  0  0
  138.0781   77.9748  221.9316 H   0  0  0  0  0  0  0  0  0  0  0  0
  138.5121   80.4273  221.8504 H   0  0  0  0  0  0  0  0  0  0  0  0
  142.0440   77.2729  223.4626 H   0  0  0  0  0  0  0  0  0  0  0  0
  143.1605   79.7243  224.3718 H   0  0  0  0  0  0  0  0  0  0  0  0
  143.5321   80.0295  222.6921 H   0  0  0  0  0  0  0  0  0  0  0  0
  141.8549   81.6666  224.6448 H   0  0  0  0  0  0  0  0  0  0  0  0
  142.9486   82.2678  223.3961 H   0  0  0  0  0  0  0  0  0  0  0  0
  140.2374   82.2783  223.0434 H   0  0  0  0  0  0  0  0  0  0  0  0
  141.2766   82.0022  221.6676 H   0  0  0  0  0  0  0  0  0  0  0  0
  140.3071   73.4198  223.5666 H   0  0  0  0  0  0  0  0  0  0  0  0
  1  2  1  0
  2  3  2  0
  3  4  1  0
  4  5  2  0
  5  6  1  0
  6  7  2  0
  6  8  1  0
  8  9  1  0
  9 10  1  0
 10 11  2  0
 11 12  1  0
 12 13  2  0
 13 14  1  0
 14 15  1  0
 15 16  2  0
 15 17  1  0
 17 18  1  0
 18 19  2  0
 19 20  1  0
 20 21  2  0
 21 22  1  0
 22 23  2  0
 22 24  1  0
 24 25  1  0
 25 26  1  0
 14 27  2  0
  9 28  2  0
  7  2  1  0
 27 10  1  0
 28  5  1  0
 23 18  1  0
 26 21  1  0
  1 29  1  0
  1 30  1  0
  1 31  1  0
  3 32  1  0
  4 33  1  0
  7 34  1  0
  8 35  1  0
  8 36  1  0
 11 37  1  0
 12 38  1  0
 13 39  1  0
 17 40  1  0
 19 41  1  0
 20 42  1  0
 23 43  1  0
 24 44  1  0
 24 45  1  0
 25 46  1  0
 25 47  1  0
 26 48  1  0
 26 49  1  0
 27 50  1  0
M  END
>  <smiles>  (36) 
Cc1ccc2c(c1)CC(c1cccc(C(=O)Nc3ccc4c(c3)CCC4)c1)=N2

>  <score_type>  (36) 
oracle

>  <origin>  (36) 
autodockgpu

>  <m_score__min__energy>  (36) 
-9.3399999999999999

>  <m_primary>  (36) 
energy

>  <rmsd>  (36) 
4.521249512446741

>  <m_score__min__rmsd>  (36) 
4.521249512446741

>  <meeko>  (36) 
{"free_energy": -9.32, "intermolecular_energy": -10.21, "internal_energy": -0.77, "cluster_size": 50, "cluster_id": 1, "rank_in_cluster": 18}

>  <energy>  (36) 
-9.31

>  <cluster_rmsd>  (36) 
0.13

>  <cluster>  (36) 
1

$$$$

     RDKit          3D

 50 54  0  0  0  0  0  0  0  0999 V2000
  141.0080   68.1430  228.9530 C   0  0  0  0  0  0  0  0  0  0  0  0
  140.5620   68.4750  227.5910 C   0  0  0  0  0  0  0  0  0  0  0  0
  139.8020   67.5670  226.8710 C   0  0  0  0  0  0  0  0  0  0  0  0
  139.3850   67.8830  225.5910 C   0  0  0  0  0  0  0  0  0  0  0  0
  139.7350   69.1010  225.0480 C   0  0  0  0  0  0  0  0  0  0  0  0
  140.4860   70.0160  225.7400 C   0  0  0  0  0  0  0  0  0  0  0  0
  140.8940   69.6900  227.0120 C   0  0  0  0  0  0  0  0  0  0  0  0
  140.6600   71.1970  224.8410 C   0  0  0  0  0  0  0  0  0  0  0  0
  139.9140   70.7920  223.6090 C   0  0  0  0  0  0  0  0  0  0  0  0
  139.8070   71.6500  222.4330 C   0  0  0  0  0  0  0  0  0  0  0  0
  139.4870   71.1750  221.1810 C   0  0  0  0  0  0  0  0  0  0  0  0
  139.4040   72.0400  220.1130 C   0  0  0  0  0  0  0  0  0  0  0  0
  139.6360   73.3900  220.2610 C   0  0  0  0  0  0  0  0  0  0  0  0
  139.9590   73.8900  221.5060 C   0  0  0  0  0  0  0  0  0  0  0  0
  140.1990   75.3220  221.6290 C   0  0  0  0  0  0  0  0  0  0  0  0
  140.8650   75.8860  220.7240 O   0  0  0  0  0  0  0  0  0  0  0  0
  139.7180   76.1010  222.7170 N   0  0  0  0  0  0  0  0  0  0  0  0
  140.0360   77.4920  222.6950 C   0  0  0  0  0  0  0  0  0  0  0  0
  139.0610   78.3640  222.2380 C   0  0  0  0  0  0  0  0  0  0  0  0
  139.3030   79.7250  222.1900 C   0  0  0  0  0  0  0  0  0  0  0  0
  140.5390   80.1950  222.6100 C   0  0  0  0  0  0  0  0  0  0  0  0
  141.4960   79.3100  223.0630 C   0  0  0  0  0  0  0  0  0  0  0  0
  141.2660   77.9520  223.1140 C   0  0  0  0  0  0  0  0  0  0  0  0
  142.7290   80.0840  223.4500 C   0  0  0  0  0  0  0  0  0  0  0  0
  142.1920   81.4900  223.6160 C   0  0  0  0  0  0  0  0  0  0  0  0
  141.0270   81.5860  222.6530 C   0  0  0  0  0  0  0  0  0  0  0  0
  140.0390   73.0120  222.5650 C   0  0  0  0  0  0  0  0  0  0  0  0
  139.4100   69.6130  223.7600 N   0  0  0  0  0  0  0  0  0  0  0  0
  140.3490   68.6336  229.6844 H   0  0  0  0  0  0  0  0  0  0  0  0
  140.9680   67.0531  229.0965 H   0  0  0  0  0  0  0  0  0  0  0  0
  142.0406   68.4940  229.0965 H   0  0  0  0  0  0  0  0  0  0  0  0
  139.5314   66.5982  227.3162 H   0  0  0  0  0  0  0  0  0  0  0  0
  138.7801   67.1698  225.0118 H   0  0  0  0  0  0  0  0  0  0  0  0
  141.4980   70.4102  227.5835 H   0  0  0  0  0  0  0  0  0  0  0  0
  140.2237   72.1024  225.2881 H   0  0  0  0  0  0  0  0  0  0  0  0
  141.7143   71.4449  224.6486 H   0  0  0  0  0  0  0  0  0  0  0  0
  139.2971   70.1016  221.0336 H   0  0  0  0  0  0  0  0  0  0  0  0
  139.1467   71.6444  219.1194 H   0  0  0  0  0  0  0  0  0  0  0  0
  139.5644   74.0635  219.3942 H   0  0  0  0  0  0  0  0  0  0  0  0
  139.1630   75.6500  223.4770 H   0  0  0  0  0  0  0  0  0  0  0  0
  138.0871   77.9709  221.9109 H   0  0  0  0  0  0  0  0  0  0  0  0
  138.5318   80.4201  221.8265 H   0  0  0  0  0  0  0  0  0  0  0  0
  142.0385   77.2582  223.4771 H   0  0  0  0  0  0  0  0  0  0  0  0
  143.1560   79.7075  224.3912 H   0  0  0  0  0  0  0  0  0  0  0  0
  143.5437   80.0088  222.7148 H   0  0  0  0  0  0  0  0  0  0  0  0
  141.8528   81.6539  224.6495 H   0  0  0  0  0  0  0  0  0  0  0  0
  142.9596   82.2504  223.4099 H   0  0  0  0  0  0  0  0  0  0  0  0
  140.2520   82.2684  223.0321 H   0  0  0  0  0  0  0  0  0  0  0  0
  141.3030   81.9865  221.6664 H   0  0  0  0  0  0  0  0  0  0  0  0
  140.2980   73.4078  223.5581 H   0  0  0  0  0  0  0  0  0  0  0  0
  1  2  1  0
  2  3  2  0
  3  4  1  0
  4  5  2  0
  5  6  1  0
  6  7  2  0
  6  8  1  0
  8  9  1  0
  9 10  1  0
 10 11  2  0
 11 12  1  0
 12 13  2  0
 13 14  1  0
 14 15  1  0
 15 16  2  0
 15 17  1  0
 17 18  1  0
 18 19  2  0
 19 20  1  0
 20 21  2  0
 21 22  1  0
 22 23  2  0
 22 24  1  0
 24 25  1  0
 25 26  1  0
 14 27  2  0
  9 28  2  0
  7  2  1  0
 27 10  1  0
 28  5  1  0
 23 18  1  0
 26 21  1  0
  1 29  1  0
  1 30  1  0
  1 31  1  0
  3 32  1  0
  4 33  1  0
  7 34  1  0
  8 35  1  0
  8 36  1  0
 11 37  1  0
 12 38  1  0
 13 39  1  0
 17 40  1  0
 19 41  1  0
 20 42  1  0
 23 43  1  0
 24 44  1  0
 24 45  1  0
 25 46  1  0
 25 47  1  0
 26 48  1  0
 26 49  1  0
 27 50  1  0
M  END
>  <smiles>  (37) 
Cc1ccc2c(c1)CC(c1cccc(C(=O)Nc3ccc4c(c3)CCC4)c1)=N2

>  <score_type>  (37) 
oracle

>  <origin>  (37) 
autodockgpu

>  <m_score__min__energy>  (37) 
-9.3399999999999999

>  <m_primary>  (37) 
energy

>  <rmsd>  (37) 
4.524855476295631

>  <m_score__min__rmsd>  (37) 
4.524855476295631

>  <meeko>  (37) 
{"free_energy": -9.32, "intermolecular_energy": -10.22, "internal_energy": -0.77, "cluster_size": 50, "cluster_id": 1, "rank_in_cluster": 9}

>  <energy>  (37) 
-9.3

>  <cluster_rmsd>  (37) 
0.06

>  <cluster>  (37) 
1

$$$$

     RDKit          3D

 50 54  0  0  0  0  0  0  0  0999 V2000
  141.1480   68.1380  228.9370 C   0  0  0  0  0  0  0  0  0  0  0  0
  140.6890   68.4520  227.5750 C   0  0  0  0  0  0  0  0  0  0  0  0
  139.9690   67.5130  226.8540 C   0  0  0  0  0  0  0  0  0  0  0  0
  139.5390   67.8120  225.5740 C   0  0  0  0  0  0  0  0  0  0  0  0
  139.8360   69.0450  225.0320 C   0  0  0  0  0  0  0  0  0  0  0  0
  140.5480   69.9910  225.7260 C   0  0  0  0  0  0  0  0  0  0  0  0
  140.9690   69.6800  226.9970 C   0  0  0  0  0  0  0  0  0  0  0  0
  140.6710   71.1780  224.8280 C   0  0  0  0  0  0  0  0  0  0  0  0
  139.9430   70.7430  223.5960 C   0  0  0  0  0  0  0  0  0  0  0  0
  139.8000   71.5980  222.4200 C   0  0  0  0  0  0  0  0  0  0  0  0
  139.4350   71.1190  221.1820 C   0  0  0  0  0  0  0  0  0  0  0  0
  139.3190   71.9800  220.1140 C   0  0  0  0  0  0  0  0  0  0  0  0
  139.5630   73.3300  220.2490 C   0  0  0  0  0  0  0  0  0  0  0  0
  139.9300   73.8330  221.4790 C   0  0  0  0  0  0  0  0  0  0  0  0
  140.1810   75.2640  221.5890 C   0  0  0  0  0  0  0  0  0  0  0  0
  140.8350   75.8180  220.6680 O   0  0  0  0  0  0  0  0  0  0  0  0
  139.7230   76.0540  222.6790 N   0  0  0  0  0  0  0  0  0  0  0  0
  140.0500   77.4430  222.6420 C   0  0  0  0  0  0  0  0  0  0  0  0
  139.1020   78.3080  222.1210 C   0  0  0  0  0  0  0  0  0  0  0  0
  139.3530   79.6680  222.0560 C   0  0  0  0  0  0  0  0  0  0  0  0
  140.5710   80.1400  222.5220 C   0  0  0  0  0  0  0  0  0  0  0  0
  141.5010   79.2620  223.0380 C   0  0  0  0  0  0  0  0  0  0  0  0
  141.2620   77.9060  223.1070 C   0  0  0  0  0  0  0  0  0  0  0  0
  142.7190   80.0390  223.4650 C   0  0  0  0  0  0  0  0  0  0  0  0
  142.1830   81.4500  223.5750 C   0  0  0  0  0  0  0  0  0  0  0  0
  141.0640   81.5300  222.5580 C   0  0  0  0  0  0  0  0  0  0  0  0
  140.0430   72.9590  222.5390 C   0  0  0  0  0  0  0  0  0  0  0  0
  139.4900   69.5440  223.7450 N   0  0  0  0  0  0  0  0  0  0  0  0
  140.4699   68.6019  229.6685 H   0  0  0  0  0  0  0  0  0  0  0  0
  141.1515   67.0474  229.0804 H   0  0  0  0  0  0  0  0  0  0  0  0
  142.1657   68.5300  229.0804 H   0  0  0  0  0  0  0  0  0  0  0  0
  139.7402   66.5330  227.2982 H   0  0  0  0  0  0  0  0  0  0  0  0
  138.9658   67.0738  224.9940 H   0  0  0  0  0  0  0  0  0  0  0  0
  141.5422   70.4241  227.5694 H   0  0  0  0  0  0  0  0  0  0  0  0
  140.1966   72.0637  225.2758 H   0  0  0  0  0  0  0  0  0  0  0  0
  141.7138   71.4704  224.6355 H   0  0  0  0  0  0  0  0  0  0  0  0
  139.2356   70.0458  221.0458 H   0  0  0  0  0  0  0  0  0  0  0  0
  139.0252   71.5820  219.1315 H   0  0  0  0  0  0  0  0  0  0  0  0
  139.4657   74.0004  219.3824 H   0  0  0  0  0  0  0  0  0  0  0  0
  139.1800   75.6120  223.4520 H   0  0  0  0  0  0  0  0  0  0  0  0
  138.1429   77.9116  221.7563 H   0  0  0  0  0  0  0  0  0  0  0  0
  138.6029   80.3590  221.6438 H   0  0  0  0  0  0  0  0  0  0  0  0
  142.0135   77.2166  223.5194 H   0  0  0  0  0  0  0  0  0  0  0  0
  143.0998   79.6815  224.4331 H   0  0  0  0  0  0  0  0  0  0  0  0
  143.5665   79.9440  222.7702 H   0  0  0  0  0  0  0  0  0  0  0  0
  141.7978   81.6384  224.5880 H   0  0  0  0  0  0  0  0  0  0  0  0
  142.9635   82.2021  223.3875 H   0  0  0  0  0  0  0  0  0  0  0  0
  140.2760   82.2236  222.8866 H   0  0  0  0  0  0  0  0  0  0  0  0
  141.3871   81.9080  221.5768 H   0  0  0  0  0  0  0  0  0  0  0  0
  140.3383   73.3574  223.5209 H   0  0  0  0  0  0  0  0  0  0  0  0
  1  2  1  0
  2  3  2  0
  3  4  1  0
  4  5  2  0
  5  6  1  0
  6  7  2  0
  6  8  1  0
  8  9  1  0
  9 10  1  0
 10 11  2  0
 11 12  1  0
 12 13  2  0
 13 14  1  0
 14 15  1  0
 15 16  2  0
 15 17  1  0
 17 18  1  0
 18 19  2  0
 19 20  1  0
 20 21  2  0
 21 22  1  0
 22 23  2  0
 22 24  1  0
 24 25  1  0
 25 26  1  0
 14 27  2  0
  9 28  2  0
  7  2  1  0
 27 10  1  0
 28  5  1  0
 23 18  1  0
 26 21  1  0
  1 29  1  0
  1 30  1  0
  1 31  1  0
  3 32  1  0
  4 33  1  0
  7 34  1  0
  8 35  1  0
  8 36  1  0
 11 37  1  0
 12 38  1  0
 13 39  1  0
 17 40  1  0
 19 41  1  0
 20 42  1  0
 23 43  1  0
 24 44  1  0
 24 45  1  0
 25 46  1  0
 25 47  1  0
 26 48  1  0
 26 49  1  0
 27 50  1  0
M  END
>  <smiles>  (38) 
Cc1ccc2c(c1)CC(c1cccc(C(=O)Nc3ccc4c(c3)CCC4)c1)=N2

>  <score_type>  (38) 
oracle

>  <origin>  (38) 
autodockgpu

>  <m_score__min__energy>  (38) 
-9.3399999999999999

>  <m_primary>  (38) 
energy

>  <rmsd>  (38) 
4.532347340837249

>  <m_score__min__rmsd>  (38) 
4.532347340837249

>  <meeko>  (38) 
{"free_energy": -9.31, "intermolecular_energy": -10.21, "internal_energy": -0.77, "cluster_size": 50, "cluster_id": 1, "rank_in_cluster": 28}

>  <energy>  (38) 
-9.3

>  <cluster_rmsd>  (38) 
0.14

>  <cluster>  (38) 
1

$$$$

     RDKit          3D

 50 54  0  0  0  0  0  0  0  0999 V2000
  141.1450   68.1300  228.9710 C   0  0  0  0  0  0  0  0  0  0  0  0
  140.6910   68.4560  227.6100 C   0  0  0  0  0  0  0  0  0  0  0  0
  139.9800   67.5210  226.8750 C   0  0  0  0  0  0  0  0  0  0  0  0
  139.5550   67.8320  225.5960 C   0  0  0  0  0  0  0  0  0  0  0  0
  139.8480   69.0720  225.0690 C   0  0  0  0  0  0  0  0  0  0  0  0
  140.5500   70.0140  225.7770 C   0  0  0  0  0  0  0  0  0  0  0  0
  140.9660   69.6930  227.0470 C   0  0  0  0  0  0  0  0  0  0  0  0
  140.6700   71.2130  224.8930 C   0  0  0  0  0  0  0  0  0  0  0  0
  139.9520   70.7870  223.6520 C   0  0  0  0  0  0  0  0  0  0  0  0
  139.8100   71.6530  222.4860 C   0  0  0  0  0  0  0  0  0  0  0  0
  139.4490   71.1870  221.2410 C   0  0  0  0  0  0  0  0  0  0  0  0
  139.3340   72.0590  220.1820 C   0  0  0  0  0  0  0  0  0  0  0  0
  139.5740   73.4080  220.3320 C   0  0  0  0  0  0  0  0  0  0  0  0
  139.9370   73.8990  221.5690 C   0  0  0  0  0  0  0  0  0  0  0  0
  140.1840   75.3300  221.6940 C   0  0  0  0  0  0  0  0  0  0  0  0
  140.9330   75.8730  220.8430 O   0  0  0  0  0  0  0  0  0  0  0  0
  139.6200   76.1290  222.7260 N   0  0  0  0  0  0  0  0  0  0  0  0
  139.9570   77.5160  222.7140 C   0  0  0  0  0  0  0  0  0  0  0  0
  138.9820   78.4070  222.2960 C   0  0  0  0  0  0  0  0  0  0  0  0
  139.2410   79.7660  222.2600 C   0  0  0  0  0  0  0  0  0  0  0  0
  140.4950   80.2130  222.6510 C   0  0  0  0  0  0  0  0  0  0  0  0
  141.4520   79.3090  223.0640 C   0  0  0  0  0  0  0  0  0  0  0  0
  141.2040   77.9540  223.1040 C   0  0  0  0  0  0  0  0  0  0  0  0
  142.7060   80.0610  223.4260 C   0  0  0  0  0  0  0  0  0  0  0  0
  142.1930   81.4710  223.6260 C   0  0  0  0  0  0  0  0  0  0  0  0
  141.0040   81.5960  222.6980 C   0  0  0  0  0  0  0  0  0  0  0  0
  140.0490   73.0140  222.6190 C   0  0  0  0  0  0  0  0  0  0  0  0
  139.5050   69.5830  223.7860 N   0  0  0  0  0  0  0  0  0  0  0  0
  140.4789   68.6083  229.7041 H   0  0  0  0  0  0  0  0  0  0  0  0
  141.1239   67.0394  229.1132 H   0  0  0  0  0  0  0  0  0  0  0  0
  142.1716   68.4985  229.1132 H   0  0  0  0  0  0  0  0  0  0  0  0
  139.7544   66.5349  227.3071 H   0  0  0  0  0  0  0  0  0  0  0  0
  138.9887   67.0972  225.0050 H   0  0  0  0  0  0  0  0  0  0  0  0
  141.5305   70.4350  227.6307 H   0  0  0  0  0  0  0  0  0  0  0  0
  140.1869   72.0901  225.3483 H   0  0  0  0  0  0  0  0  0  0  0  0
  141.7118   71.5150  224.7099 H   0  0  0  0  0  0  0  0  0  0  0  0
  139.2521   70.1150  221.0926 H   0  0  0  0  0  0  0  0  0  0  0  0
  139.0442   71.6707  219.1945 H   0  0  0  0  0  0  0  0  0  0  0  0
  139.4769   74.0874  219.4724 H   0  0  0  0  0  0  0  0  0  0  0  0
  138.9960   75.6960  223.4410 H   0  0  0  0  0  0  0  0  0  0  0  0
  137.9943   78.0314  221.9904 H   0  0  0  0  0  0  0  0  0  0  0  0
  138.4694   80.4765  221.9285 H   0  0  0  0  0  0  0  0  0  0  0  0
  141.9765   77.2450  223.4365 H   0  0  0  0  0  0  0  0  0  0  0  0
  143.1544   79.6659  224.3495 H   0  0  0  0  0  0  0  0  0  0  0  0
  143.4986   79.9851  222.6670 H   0  0  0  0  0  0  0  0  0  0  0  0
  141.8848   81.6248  224.6707 H   0  0  0  0  0  0  0  0  0  0  0  0
  142.9649   82.2240  223.4089 H   0  0  0  0  0  0  0  0  0  0  0  0
  140.2499   82.2843  223.1073 H   0  0  0  0  0  0  0  0  0  0  0  0
  141.2583   82.0055  221.7092 H   0  0  0  0  0  0  0  0  0  0  0  0
  140.3405   73.4029  223.6058 H   0  0  0  0  0  0  0  0  0  0  0  0
  1  2  1  0
  2  3  2  0
  3  4  1  0
  4  5  2  0
  5  6  1  0
  6  7  2  0
  6  8  1  0
  8  9  1  0
  9 10  1  0
 10 11  2  0
 11 12  1  0
 12 13  2  0
 13 14  1  0
 14 15  1  0
 15 16  2  0
 15 17  1  0
 17 18  1  0
 18 19  2  0
 19 20  1  0
 20 21  2  0
 21 22  1  0
 22 23  2  0
 22 24  1  0
 24 25  1  0
 25 26  1  0
 14 27  2  0
  9 28  2  0
  7  2  1  0
 27 10  1  0
 28  5  1  0
 23 18  1  0
 26 21  1  0
  1 29  1  0
  1 30  1  0
  1 31  1  0
  3 32  1  0
  4 33  1  0
  7 34  1  0
  8 35  1  0
  8 36  1  0
 11 37  1  0
 12 38  1  0
 13 39  1  0
 17 40  1  0
 19 41  1  0
 20 42  1  0
 23 43  1  0
 24 44  1  0
 24 45  1  0
 25 46  1  0
 25 47  1  0
 26 48  1  0
 26 49  1  0
 27 50  1  0
M  END
>  <smiles>  (39) 
Cc1ccc2c(c1)CC(c1cccc(C(=O)Nc3ccc4c(c3)CCC4)c1)=N2

>  <score_type>  (39) 
oracle

>  <origin>  (39) 
autodockgpu

>  <m_score__min__energy>  (39) 
-9.3399999999999999

>  <m_primary>  (39) 
energy

>  <rmsd>  (39) 
4.550698220810183

>  <m_score__min__rmsd>  (39) 
4.550698220810183

>  <meeko>  (39) 
{"free_energy": -9.32, "intermolecular_energy": -10.21, "internal_energy": -0.77, "cluster_size": 50, "cluster_id": 1, "rank_in_cluster": 21}

>  <energy>  (39) 
-9.3

>  <cluster_rmsd>  (39) 
0.14

>  <cluster>  (39) 
1

$$$$

     RDKit          3D

 50 54  0  0  0  0  0  0  0  0999 V2000
  141.1420   68.1310  228.9840 C   0  0  0  0  0  0  0  0  0  0  0  0
  140.6870   68.4530  227.6220 C   0  0  0  0  0  0  0  0  0  0  0  0
  139.9870   67.5110  226.8850 C   0  0  0  0  0  0  0  0  0  0  0  0
  139.5600   67.8170  225.6070 C   0  0  0  0  0  0  0  0  0  0  0  0
  139.8390   69.0610  225.0810 C   0  0  0  0  0  0  0  0  0  0  0  0
  140.5300   70.0110  225.7900 C   0  0  0  0  0  0  0  0  0  0  0  0
  140.9490   69.6930  227.0600 C   0  0  0  0  0  0  0  0  0  0  0  0
  140.6370   71.2110  224.9070 C   0  0  0  0  0  0  0  0  0  0  0  0
  139.9250   70.7780  223.6650 C   0  0  0  0  0  0  0  0  0  0  0  0
  139.7740   71.6430  222.4990 C   0  0  0  0  0  0  0  0  0  0  0  0
  139.3960   71.1770  221.2600 C   0  0  0  0  0  0  0  0  0  0  0  0
  139.2740   72.0490  220.2010 C   0  0  0  0  0  0  0  0  0  0  0  0
  139.5230   73.3970  220.3460 C   0  0  0  0  0  0  0  0  0  0  0  0
  139.9030   73.8870  221.5770 C   0  0  0  0  0  0  0  0  0  0  0  0
  140.1600   75.3160  221.6980 C   0  0  0  0  0  0  0  0  0  0  0  0
  140.9260   75.8490  220.8540 O   0  0  0  0  0  0  0  0  0  0  0  0
  139.5880   76.1270  222.7160 N   0  0  0  0  0  0  0  0  0  0  0  0
  139.9360   77.5110  222.7000 C   0  0  0  0  0  0  0  0  0  0  0  0
  138.9710   78.4080  222.2730 C   0  0  0  0  0  0  0  0  0  0  0  0
  139.2410   79.7650  222.2330 C   0  0  0  0  0  0  0  0  0  0  0  0
  140.4960   80.2030  222.6300 C   0  0  0  0  0  0  0  0  0  0  0  0
  141.4430   79.2930  223.0530 C   0  0  0  0  0  0  0  0  0  0  0  0
  141.1840   77.9400  223.0960 C   0  0  0  0  0  0  0  0  0  0  0  0
  142.7010   80.0360  223.4200 C   0  0  0  0  0  0  0  0  0  0  0  0
  142.1990   81.4510  223.6110 C   0  0  0  0  0  0  0  0  0  0  0  0
  141.0160   81.5820  222.6750 C   0  0  0  0  0  0  0  0  0  0  0  0
  140.0220   73.0030  222.6280 C   0  0  0  0  0  0  0  0  0  0  0  0
  139.4920   69.5690  223.7980 N   0  0  0  0  0  0  0  0  0  0  0  0
  140.4719   68.6052  229.7162 H   0  0  0  0  0  0  0  0  0  0  0  0
  141.1283   67.0404  229.1269 H   0  0  0  0  0  0  0  0  0  0  0  0
  142.1659   68.5067  229.1269 H   0  0  0  0  0  0  0  0  0  0  0  0
  139.7719   66.5222  227.3163 H   0  0  0  0  0  0  0  0  0  0  0  0
  139.0031   67.0758  225.0150 H   0  0  0  0  0  0  0  0  0  0  0  0
  141.5056   70.4404  227.6445 H   0  0  0  0  0  0  0  0  0  0  0  0
  140.1437   72.0824  225.3623 H   0  0  0  0  0  0  0  0  0  0  0  0
  141.6755   71.5245  224.7249 H   0  0  0  0  0  0  0  0  0  0  0  0
  139.1910   70.1060  221.1155 H   0  0  0  0  0  0  0  0  0  0  0  0
  138.9710   71.6610  219.2173 H   0  0  0  0  0  0  0  0  0  0  0  0
  139.4193   74.0758  219.4867 H   0  0  0  0  0  0  0  0  0  0  0  0
  138.9500   75.7030  223.4240 H   0  0  0  0  0  0  0  0  0  0  0  0
  137.9821   78.0391  221.9632 H   0  0  0  0  0  0  0  0  0  0  0  0
  138.4773   80.4803  221.8939 H   0  0  0  0  0  0  0  0  0  0  0  0
  141.9488   77.2259  223.4354 H   0  0  0  0  0  0  0  0  0  0  0  0
  143.1401   79.6409  224.3479 H   0  0  0  0  0  0  0  0  0  0  0  0
  143.4977   79.9503  222.6663 H   0  0  0  0  0  0  0  0  0  0  0  0
  141.8860   81.6119  224.6532 H   0  0  0  0  0  0  0  0  0  0  0  0
  142.9785   82.1965  223.3953 H   0  0  0  0  0  0  0  0  0  0  0  0
  140.2651   82.2779  223.0773 H   0  0  0  0  0  0  0  0  0  0  0  0
  141.2795   81.9856  221.6862 H   0  0  0  0  0  0  0  0  0  0  0  0
  140.3265   73.3917  223.6110 H   0  0  0  0  0  0  0  0  0  0  0  0
  1  2  1  0
  2  3  2  0
  3  4  1  0
  4  5  2  0
  5  6  1  0
  6  7  2  0
  6  8  1  0
  8  9  1  0
  9 10  1  0
 10 11  2  0
 11 12  1  0
 12 13  2  0
 13 14  1  0
 14 15  1  0
 15 16  2  0
 15 17  1  0
 17 18  1  0
 18 19  2  0
 19 20  1  0
 20 21  2  0
 21 22  1  0
 22 23  2  0
 22 24  1  0
 24 25  1  0
 25 26  1  0
 14 27  2  0
  9 28  2  0
  7  2  1  0
 27 10  1  0
 28  5  1  0
 23 18  1  0
 26 21  1  0
  1 29  1  0
  1 30  1  0
  1 31  1  0
  3 32  1  0
  4 33  1  0
  7 34  1  0
  8 35  1  0
  8 36  1  0
 11 37  1  0
 12 38  1  0
 13 39  1  0
 17 40  1  0
 19 41  1  0
 20 42  1  0
 23 43  1  0
 24 44  1  0
 24 45  1  0
 25 46  1  0
 25 47  1  0
 26 48  1  0
 26 49  1  0
 27 50  1  0
M  END
>  <smiles>  (40) 
Cc1ccc2c(c1)CC(c1cccc(C(=O)Nc3ccc4c(c3)CCC4)c1)=N2

>  <score_type>  (40) 
oracle

>  <origin>  (40) 
autodockgpu

>  <m_score__min__energy>  (40) 
-9.3399999999999999

>  <m_primary>  (40) 
energy

>  <rmsd>  (40) 
4.560406871207486

>  <m_score__min__rmsd>  (40) 
4.560406871207486

>  <meeko>  (40) 
{"free_energy": -9.31, "intermolecular_energy": -10.21, "internal_energy": -0.77, "cluster_size": 50, "cluster_id": 1, "rank_in_cluster": 25}

>  <energy>  (40) 
-9.3

>  <cluster_rmsd>  (40) 
0.09

>  <cluster>  (40) 
1

$$$$

     RDKit          3D

 50 54  0  0  0  0  0  0  0  0999 V2000
  141.0760   68.1820  228.9570 C   0  0  0  0  0  0  0  0  0  0  0  0
  140.6100   68.5060  227.6000 C   0  0  0  0  0  0  0  0  0  0  0  0
  139.8250   67.6010  226.9030 C   0  0  0  0  0  0  0  0  0  0  0  0
  139.3880   67.9100  225.6280 C   0  0  0  0  0  0  0  0  0  0  0  0
  139.7420   69.1180  225.0660 C   0  0  0  0  0  0  0  0  0  0  0  0
  140.5170   70.0310  225.7350 C   0  0  0  0  0  0  0  0  0  0  0  0
  140.9450   69.7120  227.0020 C   0  0  0  0  0  0  0  0  0  0  0  0
  140.6880   71.2010  224.8220 C   0  0  0  0  0  0  0  0  0  0  0  0
  139.9140   70.7930  223.6080 C   0  0  0  0  0  0  0  0  0  0  0  0
  139.7960   71.6410  222.4260 C   0  0  0  0  0  0  0  0  0  0  0  0
  139.4570   71.1560  221.1820 C   0  0  0  0  0  0  0  0  0  0  0  0
  139.3640   72.0120  220.1080 C   0  0  0  0  0  0  0  0  0  0  0  0
  139.6050   73.3620  220.2410 C   0  0  0  0  0  0  0  0  0  0  0  0
  139.9460   73.8720  221.4760 C   0  0  0  0  0  0  0  0  0  0  0  0
  140.1930   75.3040  221.5840 C   0  0  0  0  0  0  0  0  0  0  0  0
  140.8370   75.8600  220.6580 O   0  0  0  0  0  0  0  0  0  0  0  0
  139.7430   76.0920  222.6780 N   0  0  0  0  0  0  0  0  0  0  0  0
  140.0650   77.4820  222.6390 C   0  0  0  0  0  0  0  0  0  0  0  0
  139.1090   78.3450  222.1320 C   0  0  0  0  0  0  0  0  0  0  0  0
  139.3550   79.7050  222.0650 C   0  0  0  0  0  0  0  0  0  0  0  0
  140.5780   80.1810  222.5160 C   0  0  0  0  0  0  0  0  0  0  0  0
  141.5170   79.3040  223.0180 C   0  0  0  0  0  0  0  0  0  0  0  0
  141.2820   77.9480  223.0890 C   0  0  0  0  0  0  0  0  0  0  0  0
  142.7380   80.0840  223.4290 C   0  0  0  0  0  0  0  0  0  0  0  0
  142.2000   81.4930  223.5480 C   0  0  0  0  0  0  0  0  0  0  0  0
  141.0680   81.5720  222.5460 C   0  0  0  0  0  0  0  0  0  0  0  0
  140.0360   73.0030  222.5430 C   0  0  0  0  0  0  0  0  0  0  0  0
  139.4000   69.6220  223.7800 N   0  0  0  0  0  0  0  0  0  0  0  0
  140.4066   68.6474  229.6954 H   0  0  0  0  0  0  0  0  0  0  0  0
  141.0722   67.0907  229.0952 H   0  0  0  0  0  0  0  0  0  0  0  0
  142.0977   68.5656  229.0952 H   0  0  0  0  0  0  0  0  0  0  0  0
  139.5505   66.6401  227.3626 H   0  0  0  0  0  0  0  0  0  0  0  0
  138.7638   67.1986  225.0675 H   0  0  0  0  0  0  0  0  0  0  0  0
  141.5681   70.4304  227.5548 H   0  0  0  0  0  0  0  0  0  0  0  0
  140.2709   72.1157  225.2684 H   0  0  0  0  0  0  0  0  0  0  0  0
  141.7413   71.4347  224.6076 H   0  0  0  0  0  0  0  0  0  0  0  0
  139.2602   70.0823  221.0466 H   0  0  0  0  0  0  0  0  0  0  0  0
  139.0912   71.6092  219.1214 H   0  0  0  0  0  0  0  0  0  0  0  0
  139.5260   74.0278  219.3689 H   0  0  0  0  0  0  0  0  0  0  0  0
  139.2080   75.6480  223.4560 H   0  0  0  0  0  0  0  0  0  0  0  0
  138.1462   77.9466  221.7796 H   0  0  0  0  0  0  0  0  0  0  0  0
  138.5975   80.3939  221.6630 H   0  0  0  0  0  0  0  0  0  0  0  0
  142.0403   77.2602  223.4914 H   0  0  0  0  0  0  0  0  0  0  0  0
  143.1331   79.7265  224.3913 H   0  0  0  0  0  0  0  0  0  0  0  0
  143.5760   79.9922  222.7224 H   0  0  0  0  0  0  0  0  0  0  0  0
  141.8275   81.6789  224.5662 H   0  0  0  0  0  0  0  0  0  0  0  0
  142.9762   82.2472  223.3515 H   0  0  0  0  0  0  0  0  0  0  0  0
  140.2830   82.2638  222.8854 H   0  0  0  0  0  0  0  0  0  0  0  0
  141.3770   81.9518  221.5610 H   0  0  0  0  0  0  0  0  0  0  0  0
  140.3097   73.4066  223.5290 H   0  0  0  0  0  0  0  0  0  0  0  0
  1  2  1  0
  2  3  2  0
  3  4  1  0
  4  5  2  0
  5  6  1  0
  6  7  2  0
  6  8  1  0
  8  9  1  0
  9 10  1  0
 10 11  2  0
 11 12  1  0
 12 13  2  0
 13 14  1  0
 14 15  1  0
 15 16  2  0
 15 17  1  0
 17 18  1  0
 18 19  2  0
 19 20  1  0
 20 21  2  0
 21 22  1  0
 22 23  2  0
 22 24  1  0
 24 25  1  0
 25 26  1  0
 14 27  2  0
  9 28  2  0
  7  2  1  0
 27 10  1  0
 28  5  1  0
 23 18  1  0
 26 21  1  0
  1 29  1  0
  1 30  1  0
  1 31  1  0
  3 32  1  0
  4 33  1  0
  7 34  1  0
  8 35  1  0
  8 36  1  0
 11 37  1  0
 12 38  1  0
 13 39  1  0
 17 40  1  0
 19 41  1  0
 20 42  1  0
 23 43  1  0
 24 44  1  0
 24 45  1  0
 25 46  1  0
 25 47  1  0
 26 48  1  0
 26 49  1  0
 27 50  1  0
M  END
>  <smiles>  (41) 
Cc1ccc2c(c1)CC(c1cccc(C(=O)Nc3ccc4c(c3)CCC4)c1)=N2

>  <score_type>  (41) 
oracle

>  <origin>  (41) 
autodockgpu

>  <m_score__min__energy>  (41) 
-9.3399999999999999

>  <m_primary>  (41) 
energy

>  <rmsd>  (41) 
4.509462790438524

>  <m_score__min__rmsd>  (41) 
4.509462790438524

>  <meeko>  (41) 
{"free_energy": -9.29, "intermolecular_energy": -10.19, "internal_energy": -0.77, "cluster_size": 50, "cluster_id": 1, "rank_in_cluster": 45}

>  <energy>  (41) 
-9.3

>  <cluster_rmsd>  (41) 
0.11

>  <cluster>  (41) 
1

$$$$

     RDKit          3D

 50 54  0  0  0  0  0  0  0  0999 V2000
  141.1150   68.1650  228.9510 C   0  0  0  0  0  0  0  0  0  0  0  0
  140.6650   68.4880  227.5880 C   0  0  0  0  0  0  0  0  0  0  0  0
  139.9280   67.5640  226.8640 C   0  0  0  0  0  0  0  0  0  0  0  0
  139.5070   67.8710  225.5840 C   0  0  0  0  0  0  0  0  0  0  0  0
  139.8260   69.0990  225.0440 C   0  0  0  0  0  0  0  0  0  0  0  0
  140.5530   70.0310  225.7400 C   0  0  0  0  0  0  0  0  0  0  0  0
  140.9670   69.7130  227.0120 C   0  0  0  0  0  0  0  0  0  0  0  0
  140.6990   71.2180  224.8440 C   0  0  0  0  0  0  0  0  0  0  0  0
  139.9650   70.7970  223.6100 C   0  0  0  0  0  0  0  0  0  0  0  0
  139.8400   71.6550  222.4350 C   0  0  0  0  0  0  0  0  0  0  0  0
  139.4990   71.1790  221.1890 C   0  0  0  0  0  0  0  0  0  0  0  0
  139.3980   72.0430  220.1220 C   0  0  0  0  0  0  0  0  0  0  0  0
  139.6330   73.3940  220.2660 C   0  0  0  0  0  0  0  0  0  0  0  0
  139.9760   73.8950  221.5050 C   0  0  0  0  0  0  0  0  0  0  0  0
  140.2170   75.3260  221.6240 C   0  0  0  0  0  0  0  0  0  0  0  0
  140.8760   75.8890  220.7120 O   0  0  0  0  0  0  0  0  0  0  0  0
  139.7460   76.1070  222.7140 N   0  0  0  0  0  0  0  0  0  0  0  0
  140.0640   77.4980  222.6870 C   0  0  0  0  0  0  0  0  0  0  0  0
  139.0960   78.3670  222.2120 C   0  0  0  0  0  0  0  0  0  0  0  0
  139.3380   79.7280  222.1590 C   0  0  0  0  0  0  0  0  0  0  0  0
  140.5690   80.2000  222.5910 C   0  0  0  0  0  0  0  0  0  0  0  0
  141.5200   79.3190  223.0610 C   0  0  0  0  0  0  0  0  0  0  0  0
  141.2890   77.9610  223.1180 C   0  0  0  0  0  0  0  0  0  0  0  0
  142.7480   80.0950  223.4580 C   0  0  0  0  0  0  0  0  0  0  0  0
  142.2090   81.5020  223.6080 C   0  0  0  0  0  0  0  0  0  0  0  0
  141.0570   81.5920  222.6310 C   0  0  0  0  0  0  0  0  0  0  0  0
  140.0730   73.0170  222.5630 C   0  0  0  0  0  0  0  0  0  0  0  0
  139.4910   69.6060  223.7570 N   0  0  0  0  0  0  0  0  0  0  0  0
  140.4466   68.6447  229.6812 H   0  0  0  0  0  0  0  0  0  0  0  0
  141.0937   67.0747  229.0955 H   0  0  0  0  0  0  0  0  0  0  0  0
  142.1411   68.5340  229.0955 H   0  0  0  0  0  0  0  0  0  0  0  0
  139.6788   66.5886  227.3072 H   0  0  0  0  0  0  0  0  0  0  0  0
  138.9232   67.1429  225.0017 H   0  0  0  0  0  0  0  0  0  0  0  0
  141.5513   70.4472  227.5861 H   0  0  0  0  0  0  0  0  0  0  0  0
  140.2397   72.1113  225.2924 H   0  0  0  0  0  0  0  0  0  0  0  0
  141.7470   71.4927  224.6538 H   0  0  0  0  0  0  0  0  0  0  0  0
  139.3067   70.1055  221.0456 H   0  0  0  0  0  0  0  0  0  0  0  0
  139.1239   71.6470  219.1331 H   0  0  0  0  0  0  0  0  0  0  0  0
  139.5477   74.0670  219.4001 H   0  0  0  0  0  0  0  0  0  0  0  0
  139.1980   75.6580  223.4800 H   0  0  0  0  0  0  0  0  0  0  0  0
  138.1267   77.9718  221.8741 H   0  0  0  0  0  0  0  0  0  0  0  0
  138.5711   80.4209  221.7825 H   0  0  0  0  0  0  0  0  0  0  0  0
  142.0569   77.2695  223.4950 H   0  0  0  0  0  0  0  0  0  0  0  0
  143.1633   79.7247  224.4069 H   0  0  0  0  0  0  0  0  0  0  0  0
  143.5719   80.0148  222.7336 H   0  0  0  0  0  0  0  0  0  0  0  0
  141.8570   81.6726  224.6361 H   0  0  0  0  0  0  0  0  0  0  0  0
  142.9793   82.2609  223.4063 H   0  0  0  0  0  0  0  0  0  0  0  0
  140.2776   82.2770  222.9961 H   0  0  0  0  0  0  0  0  0  0  0  0
  141.3452   81.9862  221.6453 H   0  0  0  0  0  0  0  0  0  0  0  0
  140.3470   73.4131  223.5519 H   0  0  0  0  0  0  0  0  0  0  0  0
  1  2  1  0
  2  3  2  0
  3  4  1  0
  4  5  2  0
  5  6  1  0
  6  7  2  0
  6  8  1  0
  8  9  1  0
  9 10  1  0
 10 11  2  0
 11 12  1  0
 12 13  2  0
 13 14  1  0
 14 15  1  0
 15 16  2  0
 15 17  1  0
 17 18  1  0
 18 19  2  0
 19 20  1  0
 20 21  2  0
 21 22  1  0
 22 23  2  0
 22 24  1  0
 24 25  1  0
 25 26  1  0
 14 27  2  0
  9 28  2  0
  7  2  1  0
 27 10  1  0
 28  5  1  0
 23 18  1  0
 26 21  1  0
  1 29  1  0
  1 30  1  0
  1 31  1  0
  3 32  1  0
  4 33  1  0
  7 34  1  0
  8 35  1  0
  8 36  1  0
 11 37  1  0
 12 38  1  0
 13 39  1  0
 17 40  1  0
 19 41  1  0
 20 42  1  0
 23 43  1  0
 24 44  1  0
 24 45  1  0
 25 46  1  0
 25 47  1  0
 26 48  1  0
 26 49  1  0
 27 50  1  0
M  END
>  <smiles>  (42) 
Cc1ccc2c(c1)CC(c1cccc(C(=O)Nc3ccc4c(c3)CCC4)c1)=N2

>  <score_type>  (42) 
oracle

>  <origin>  (42) 
autodockgpu

>  <m_score__min__energy>  (42) 
-9.3399999999999999

>  <m_primary>  (42) 
energy

>  <rmsd>  (42) 
4.51674848936988

>  <m_score__min__rmsd>  (42) 
4.51674848936988

>  <meeko>  (42) 
{"free_energy": -9.32, "intermolecular_energy": -10.21, "internal_energy": -0.77, "cluster_size": 50, "cluster_id": 1, "rank_in_cluster": 13}

>  <energy>  (42) 
-9.3

>  <cluster_rmsd>  (42) 
0.14

>  <cluster>  (42) 
1

$$$$

     RDKit          3D

 50 54  0  0  0  0  0  0  0  0999 V2000
  141.0990   68.1440  228.9420 C   0  0  0  0  0  0  0  0  0  0  0  0
  140.6440   68.4760  227.5830 C   0  0  0  0  0  0  0  0  0  0  0  0
  139.8820   67.5670  226.8660 C   0  0  0  0  0  0  0  0  0  0  0  0
  139.4560   67.8830  225.5890 C   0  0  0  0  0  0  0  0  0  0  0  0
  139.7970   69.1040  225.0460 C   0  0  0  0  0  0  0  0  0  0  0  0
  140.5500   70.0200  225.7350 C   0  0  0  0  0  0  0  0  0  0  0  0
  140.9670   69.6930  227.0030 C   0  0  0  0  0  0  0  0  0  0  0  0
  140.7130   71.2030  224.8370 C   0  0  0  0  0  0  0  0  0  0  0  0
  139.9600   70.7980  223.6090 C   0  0  0  0  0  0  0  0  0  0  0  0
  139.8430   71.6570  222.4350 C   0  0  0  0  0  0  0  0  0  0  0  0
  139.5270   71.1820  221.1820 C   0  0  0  0  0  0  0  0  0  0  0  0
  139.4330   72.0480  220.1170 C   0  0  0  0  0  0  0  0  0  0  0  0
  139.6510   73.4010  220.2680 C   0  0  0  0  0  0  0  0  0  0  0  0
  139.9690   73.9010  221.5130 C   0  0  0  0  0  0  0  0  0  0  0  0
  140.1930   75.3350  221.6400 C   0  0  0  0  0  0  0  0  0  0  0  0
  140.8650   75.9060  220.7430 O   0  0  0  0  0  0  0  0  0  0  0  0
  139.6900   76.1090  222.7210 N   0  0  0  0  0  0  0  0  0  0  0  0
  139.9940   77.5040  222.7040 C   0  0  0  0  0  0  0  0  0  0  0  0
  138.9970   78.3710  222.2880 C   0  0  0  0  0  0  0  0  0  0  0  0
  139.2240   79.7350  222.2470 C   0  0  0  0  0  0  0  0  0  0  0  0
  140.4700   80.2110  222.6310 C   0  0  0  0  0  0  0  0  0  0  0  0
  141.4490   79.3310  223.0420 C   0  0  0  0  0  0  0  0  0  0  0  0
  141.2330   77.9710  223.0860 C   0  0  0  0  0  0  0  0  0  0  0  0
  142.6870   80.1130  223.3960 C   0  0  0  0  0  0  0  0  0  0  0  0
  142.1430   81.5120  223.5940 C   0  0  0  0  0  0  0  0  0  0  0  0
  140.9460   81.6070  222.6720 C   0  0  0  0  0  0  0  0  0  0  0  0
  140.0600   73.0220  222.5700 C   0  0  0  0  0  0  0  0  0  0  0  0
  139.4620   69.6170  223.7610 N   0  0  0  0  0  0  0  0  0  0  0  0
  140.4385   68.6260  229.6778 H   0  0  0  0  0  0  0  0  0  0  0  0
  141.0700   67.0534  229.0822 H   0  0  0  0  0  0  0  0  0  0  0  0
  142.1288   68.5044  229.0822 H   0  0  0  0  0  0  0  0  0  0  0  0
  139.6169   66.5969  227.3116 H   0  0  0  0  0  0  0  0  0  0  0  0
  138.8513   67.1678  225.0121 H   0  0  0  0  0  0  0  0  0  0  0  0
  141.5719   70.4146  227.5717 H   0  0  0  0  0  0  0  0  0  0  0  0
  140.2764   72.1059  225.2890 H   0  0  0  0  0  0  0  0  0  0  0  0
  141.7650   71.4549  224.6377 H   0  0  0  0  0  0  0  0  0  0  0  0
  139.3491   70.1069  221.0319 H   0  0  0  0  0  0  0  0  0  0  0  0
  139.1782   71.6521  219.1229 H   0  0  0  0  0  0  0  0  0  0  0  0
  139.5719   74.0757  219.4028 H   0  0  0  0  0  0  0  0  0  0  0  0
  139.1300   75.6530  223.4740 H   0  0  0  0  0  0  0  0  0  0  0  0
  138.0169   77.9717  221.9879 H   0  0  0  0  0  0  0  0  0  0  0  0
  138.4348   80.4268  221.9175 H   0  0  0  0  0  0  0  0  0  0  0  0
  142.0236   77.2806  223.4152 H   0  0  0  0  0  0  0  0  0  0  0  0
  143.1484   79.7313  224.3187 H   0  0  0  0  0  0  0  0  0  0  0  0
  143.4775   80.0529  222.6335 H   0  0  0  0  0  0  0  0  0  0  0  0
  141.8372   81.6624  224.6399 H   0  0  0  0  0  0  0  0  0  0  0  0
  142.8965   82.2815  223.3699 H   0  0  0  0  0  0  0  0  0  0  0  0
  140.1779   82.2780  223.0841 H   0  0  0  0  0  0  0  0  0  0  0  0
  141.1847   82.0206  221.6810 H   0  0  0  0  0  0  0  0  0  0  0  0
  140.3156   73.4185  223.5637 H   0  0  0  0  0  0  0  0  0  0  0  0
  1  2  1  0
  2  3  2  0
  3  4  1  0
  4  5  2  0
  5  6  1  0
  6  7  2  0
  6  8  1  0
  8  9  1  0
  9 10  1  0
 10 11  2  0
 11 12  1  0
 12 13  2  0
 13 14  1  0
 14 15  1  0
 15 16  2  0
 15 17  1  0
 17 18  1  0
 18 19  2  0
 19 20  1  0
 20 21  2  0
 21 22  1  0
 22 23  2  0
 22 24  1  0
 24 25  1  0
 25 26  1  0
 14 27  2  0
  9 28  2  0
  7  2  1  0
 27 10  1  0
 28  5  1  0
 23 18  1  0
 26 21  1  0
  1 29  1  0
  1 30  1  0
  1 31  1  0
  3 32  1  0
  4 33  1  0
  7 34  1  0
  8 35  1  0
  8 36  1  0
 11 37  1  0
 12 38  1  0
 13 39  1  0
 17 40  1  0
 19 41  1  0
 20 42  1  0
 23 43  1  0
 24 44  1  0
 24 45  1  0
 25 46  1  0
 25 47  1  0
 26 48  1  0
 26 49  1  0
 27 50  1  0
M  END
>  <smiles>  (43) 
Cc1ccc2c(c1)CC(c1cccc(C(=O)Nc3ccc4c(c3)CCC4)c1)=N2

>  <score_type>  (43) 
oracle

>  <origin>  (43) 
autodockgpu

>  <m_score__min__energy>  (43) 
-9.3399999999999999

>  <m_primary>  (43) 
energy

>  <rmsd>  (43) 
4.52014546244466

>  <m_score__min__rmsd>  (43) 
4.52014546244466

>  <meeko>  (43) 
{"free_energy": -9.32, "intermolecular_energy": -10.21, "internal_energy": -0.77, "cluster_size": 50, "cluster_id": 1, "rank_in_cluster": 15}

>  <energy>  (43) 
-9.3

>  <cluster_rmsd>  (43) 
0.14

>  <cluster>  (43) 
1

$$$$

     RDKit          3D

 50 54  0  0  0  0  0  0  0  0999 V2000
  141.0190   68.1440  228.9570 C   0  0  0  0  0  0  0  0  0  0  0  0
  140.5690   68.4750  227.5970 C   0  0  0  0  0  0  0  0  0  0  0  0
  139.8000   67.5700  226.8820 C   0  0  0  0  0  0  0  0  0  0  0  0
  139.3800   67.8860  225.6030 C   0  0  0  0  0  0  0  0  0  0  0  0
  139.7320   69.1010  225.0560 C   0  0  0  0  0  0  0  0  0  0  0  0
  140.4910   70.0140  225.7430 C   0  0  0  0  0  0  0  0  0  0  0  0
  140.9040   69.6880  227.0130 C   0  0  0  0  0  0  0  0  0  0  0  0
  140.6660   71.1920  224.8410 C   0  0  0  0  0  0  0  0  0  0  0  0
  139.9120   70.7890  223.6140 C   0  0  0  0  0  0  0  0  0  0  0  0
  139.8040   71.6450  222.4370 C   0  0  0  0  0  0  0  0  0  0  0  0
  139.4800   71.1690  221.1860 C   0  0  0  0  0  0  0  0  0  0  0  0
  139.3950   72.0320  220.1170 C   0  0  0  0  0  0  0  0  0  0  0  0
  139.6310   73.3820  220.2620 C   0  0  0  0  0  0  0  0  0  0  0  0
  139.9580   73.8840  221.5050 C   0  0  0  0  0  0  0  0  0  0  0  0
  140.2010   75.3150  221.6260 C   0  0  0  0  0  0  0  0  0  0  0  0
  140.8670   75.8760  220.7190 O   0  0  0  0  0  0  0  0  0  0  0  0
  139.7210   76.0970  222.7120 N   0  0  0  0  0  0  0  0  0  0  0  0
  140.0420   77.4880  222.6880 C   0  0  0  0  0  0  0  0  0  0  0  0
  139.0720   78.3600  222.2220 C   0  0  0  0  0  0  0  0  0  0  0  0
  139.3170   79.7210  222.1710 C   0  0  0  0  0  0  0  0  0  0  0  0
  140.5510   80.1890  222.5970 C   0  0  0  0  0  0  0  0  0  0  0  0
  141.5040   79.3040  223.0580 C   0  0  0  0  0  0  0  0  0  0  0  0
  141.2710   77.9470  223.1120 C   0  0  0  0  0  0  0  0  0  0  0  0
  142.7360   80.0770  223.4490 C   0  0  0  0  0  0  0  0  0  0  0  0
  142.2010   81.4840  223.6070 C   0  0  0  0  0  0  0  0  0  0  0  0
  141.0420   81.5790  222.6380 C   0  0  0  0  0  0  0  0  0  0  0  0
  140.0390   73.0070  222.5660 C   0  0  0  0  0  0  0  0  0  0  0  0
  139.4040   69.6120  223.7690 N   0  0  0  0  0  0  0  0  0  0  0  0
  140.3584   68.6299  229.6902 H   0  0  0  0  0  0  0  0  0  0  0  0
  140.9854   67.0537  229.0992 H   0  0  0  0  0  0  0  0  0  0  0  0
  142.0498   68.5007  229.0992 H   0  0  0  0  0  0  0  0  0  0  0  0
  139.5249   66.6040  227.3305 H   0  0  0  0  0  0  0  0  0  0  0  0
  138.7704   67.1740  225.0273 H   0  0  0  0  0  0  0  0  0  0  0  0
  141.5148   70.4062  227.5798 H   0  0  0  0  0  0  0  0  0  0  0  0
  140.2366   72.1004  225.2887 H   0  0  0  0  0  0  0  0  0  0  0  0
  141.7205   71.4340  224.6426 H   0  0  0  0  0  0  0  0  0  0  0  0
  139.2885   70.0956  221.0406 H   0  0  0  0  0  0  0  0  0  0  0  0
  139.1329   71.6353  219.1251 H   0  0  0  0  0  0  0  0  0  0  0  0
  139.5593   74.0538  219.3940 H   0  0  0  0  0  0  0  0  0  0  0  0
  139.1660   75.6490  223.4740 H   0  0  0  0  0  0  0  0  0  0  0  0
  138.0995   77.9677  221.8899 H   0  0  0  0  0  0  0  0  0  0  0  0
  138.5496   80.4166  221.8006 H   0  0  0  0  0  0  0  0  0  0  0  0
  142.0402   77.2528  223.4812 H   0  0  0  0  0  0  0  0  0  0  0  0
  143.1571   79.7030  224.3939 H   0  0  0  0  0  0  0  0  0  0  0  0
  143.5546   79.9977  222.7185 H   0  0  0  0  0  0  0  0  0  0  0  0
  141.8566   81.6522  224.6380 H   0  0  0  0  0  0  0  0  0  0  0  0
  142.9713   82.2421  223.4023 H   0  0  0  0  0  0  0  0  0  0  0  0
  140.2666   82.2645  223.0106 H   0  0  0  0  0  0  0  0  0  0  0  0
  141.3244   81.9754  221.6515 H   0  0  0  0  0  0  0  0  0  0  0  0
  140.3013   73.4040  223.5578 H   0  0  0  0  0  0  0  0  0  0  0  0
  1  2  1  0
  2  3  2  0
  3  4  1  0
  4  5  2  0
  5  6  1  0
  6  7  2  0
  6  8  1  0
  8  9  1  0
  9 10  1  0
 10 11  2  0
 11 12  1  0
 12 13  2  0
 13 14  1  0
 14 15  1  0
 15 16  2  0
 15 17  1  0
 17 18  1  0
 18 19  2  0
 19 20  1  0
 20 21  2  0
 21 22  1  0
 22 23  2  0
 22 24  1  0
 24 25  1  0
 25 26  1  0
 14 27  2  0
  9 28  2  0
  7  2  1  0
 27 10  1  0
 28  5  1  0
 23 18  1  0
 26 21  1  0
  1 29  1  0
  1 30  1  0
  1 31  1  0
  3 32  1  0
  4 33  1  0
  7 34  1  0
  8 35  1  0
  8 36  1  0
 11 37  1  0
 12 38  1  0
 13 39  1  0
 17 40  1  0
 19 41  1  0
 20 42  1  0
 23 43  1  0
 24 44  1  0
 24 45  1  0
 25 46  1  0
 25 47  1  0
 26 48  1  0
 26 49  1  0
 27 50  1  0
M  END
>  <smiles>  (44) 
Cc1ccc2c(c1)CC(c1cccc(C(=O)Nc3ccc4c(c3)CCC4)c1)=N2

>  <score_type>  (44) 
oracle

>  <origin>  (44) 
autodockgpu

>  <m_score__min__energy>  (44) 
-9.3399999999999999

>  <m_primary>  (44) 
energy

>  <rmsd>  (44) 
4.526852100005636

>  <m_score__min__rmsd>  (44) 
4.526852100005636

>  <meeko>  (44) 
{"free_energy": -9.32, "intermolecular_energy": -10.22, "internal_energy": -0.77, "cluster_size": 50, "cluster_id": 1, "rank_in_cluster": 5}

>  <energy>  (44) 
-9.29

>  <cluster_rmsd>  (44) 
0.05

>  <cluster>  (44) 
1

$$$$

     RDKit          3D

 50 54  0  0  0  0  0  0  0  0999 V2000
  141.1460   68.1460  228.9780 C   0  0  0  0  0  0  0  0  0  0  0  0
  140.6890   68.4670  227.6170 C   0  0  0  0  0  0  0  0  0  0  0  0
  139.9760   67.5300  226.8860 C   0  0  0  0  0  0  0  0  0  0  0  0
  139.5490   67.8350  225.6070 C   0  0  0  0  0  0  0  0  0  0  0  0
  139.8390   69.0740  225.0750 C   0  0  0  0  0  0  0  0  0  0  0  0
  140.5430   70.0190  225.7780 C   0  0  0  0  0  0  0  0  0  0  0  0
  140.9620   69.7020  227.0480 C   0  0  0  0  0  0  0  0  0  0  0  0
  140.6600   71.2140  224.8900 C   0  0  0  0  0  0  0  0  0  0  0  0
  139.9390   70.7840  223.6520 C   0  0  0  0  0  0  0  0  0  0  0  0
  139.7940   71.6460  222.4830 C   0  0  0  0  0  0  0  0  0  0  0  0
  139.4290   71.1750  221.2410 C   0  0  0  0  0  0  0  0  0  0  0  0
  139.3110   72.0430  220.1790 C   0  0  0  0  0  0  0  0  0  0  0  0
  139.5520   73.3930  220.3230 C   0  0  0  0  0  0  0  0  0  0  0  0
  139.9200   73.8880  221.5570 C   0  0  0  0  0  0  0  0  0  0  0  0
  140.1680   75.3190  221.6760 C   0  0  0  0  0  0  0  0  0  0  0  0
  140.9010   75.8620  220.8100 O   0  0  0  0  0  0  0  0  0  0  0  0
  139.6230   76.1190  222.7170 N   0  0  0  0  0  0  0  0  0  0  0  0
  139.9590   77.5070  222.6970 C   0  0  0  0  0  0  0  0  0  0  0  0
  138.9880   78.3930  222.2610 C   0  0  0  0  0  0  0  0  0  0  0  0
  139.2460   79.7520  222.2160 C   0  0  0  0  0  0  0  0  0  0  0  0
  140.4960   80.2030  222.6180 C   0  0  0  0  0  0  0  0  0  0  0  0
  141.4490   79.3040  223.0500 C   0  0  0  0  0  0  0  0  0  0  0  0
  141.2010   77.9490  223.0970 C   0  0  0  0  0  0  0  0  0  0  0  0
  142.6970   80.0600  223.4200 C   0  0  0  0  0  0  0  0  0  0  0  0
  142.1820   81.4710  223.6020 C   0  0  0  0  0  0  0  0  0  0  0  0
  141.0020   81.5870  222.6600 C   0  0  0  0  0  0  0  0  0  0  0  0
  140.0340   73.0070  222.6100 C   0  0  0  0  0  0  0  0  0  0  0  0
  139.4940   69.5800  223.7910 N   0  0  0  0  0  0  0  0  0  0  0  0
  140.4748   68.6175  229.7109 H   0  0  0  0  0  0  0  0  0  0  0  0
  141.1362   67.0553  229.1204 H   0  0  0  0  0  0  0  0  0  0  0  0
  142.1687   68.5252  229.1204 H   0  0  0  0  0  0  0  0  0  0  0  0
  139.7504   66.5458  227.3225 H   0  0  0  0  0  0  0  0  0  0  0  0
  138.9835   67.0968  225.0194 H   0  0  0  0  0  0  0  0  0  0  0  0
  141.5279   70.4463  227.6275 H   0  0  0  0  0  0  0  0  0  0  0  0
  140.1778   72.0925  225.3436 H   0  0  0  0  0  0  0  0  0  0  0  0
  141.7013   71.5153  224.7031 H   0  0  0  0  0  0  0  0  0  0  0  0
  139.2313   70.1025  221.0974 H   0  0  0  0  0  0  0  0  0  0  0  0
  139.0180   71.6510  219.1939 H   0  0  0  0  0  0  0  0  0  0  0  0
  139.4517   74.0694  219.4614 H   0  0  0  0  0  0  0  0  0  0  0  0
  139.0130   75.6860  223.4440 H   0  0  0  0  0  0  0  0  0  0  0  0
  138.0041   78.0137  221.9480 H   0  0  0  0  0  0  0  0  0  0  0  0
  138.4778   80.4590  221.8695 H   0  0  0  0  0  0  0  0  0  0  0  0
  141.9703   77.2429  223.4429 H   0  0  0  0  0  0  0  0  0  0  0  0
  143.1348   79.6731  224.3520 H   0  0  0  0  0  0  0  0  0  0  0  0
  143.4981   79.9784  222.6706 H   0  0  0  0  0  0  0  0  0  0  0  0
  141.8630   81.6341  224.6420 H   0  0  0  0  0  0  0  0  0  0  0  0
  142.9559   82.2224  223.3864 H   0  0  0  0  0  0  0  0  0  0  0  0
  140.2424   82.2770  223.0562 H   0  0  0  0  0  0  0  0  0  0  0  0
  141.2660   81.9896  221.6709 H   0  0  0  0  0  0  0  0  0  0  0  0
  140.3281   73.3995  223.5946 H   0  0  0  0  0  0  0  0  0  0  0  0
  1  2  1  0
  2  3  2  0
  3  4  1  0
  4  5  2  0
  5  6  1  0
  6  7  2  0
  6  8  1  0
  8  9  1  0
  9 10  1  0
 10 11  2  0
 11 12  1  0
 12 13  2  0
 13 14  1  0
 14 15  1  0
 15 16  2  0
 15 17  1  0
 17 18  1  0
 18 19  2  0
 19 20  1  0
 20 21  2  0
 21 22  1  0
 22 23  2  0
 22 24  1  0
 24 25  1  0
 25 26  1  0
 14 27  2  0
  9 28  2  0
  7  2  1  0
 27 10  1  0
 28  5  1  0
 23 18  1  0
 26 21  1  0
  1 29  1  0
  1 30  1  0
  1 31  1  0
  3 32  1  0
  4 33  1  0
  7 34  1  0
  8 35  1  0
  8 36  1  0
 11 37  1  0
 12 38  1  0
 13 39  1  0
 17 40  1  0
 19 41  1  0
 20 42  1  0
 23 43  1  0
 24 44  1  0
 24 45  1  0
 25 46  1  0
 25 47  1  0
 26 48  1  0
 26 49  1  0
 27 50  1  0
M  END
>  <smiles>  (45) 
Cc1ccc2c(c1)CC(c1cccc(C(=O)Nc3ccc4c(c3)CCC4)c1)=N2

>  <score_type>  (45) 
oracle

>  <origin>  (45) 
autodockgpu

>  <m_score__min__energy>  (45) 
-9.3399999999999999

>  <m_primary>  (45) 
energy

>  <rmsd>  (45) 
4.547024103760004

>  <m_score__min__rmsd>  (45) 
4.547024103760004

>  <meeko>  (45) 
{"free_energy": -9.32, "intermolecular_energy": -10.21, "internal_energy": -0.77, "cluster_size": 50, "cluster_id": 1, "rank_in_cluster": 19}

>  <energy>  (45) 
-9.29

>  <cluster_rmsd>  (45) 
0.07

>  <cluster>  (45) 
1

$$$$

     RDKit          3D

 50 54  0  0  0  0  0  0  0  0999 V2000
  141.1310   68.1420  228.9910 C   0  0  0  0  0  0  0  0  0  0  0  0
  140.6810   68.4640  227.6280 C   0  0  0  0  0  0  0  0  0  0  0  0
  139.9670   67.5290  226.8950 C   0  0  0  0  0  0  0  0  0  0  0  0
  139.5450   67.8350  225.6150 C   0  0  0  0  0  0  0  0  0  0  0  0
  139.8420   69.0730  225.0840 C   0  0  0  0  0  0  0  0  0  0  0  0
  140.5460   70.0160  225.7890 C   0  0  0  0  0  0  0  0  0  0  0  0
  140.9600   69.6980  227.0610 C   0  0  0  0  0  0  0  0  0  0  0  0
  140.6720   71.2100  224.9000 C   0  0  0  0  0  0  0  0  0  0  0  0
  139.9530   70.7820  223.6600 C   0  0  0  0  0  0  0  0  0  0  0  0
  139.8160   71.6440  222.4900 C   0  0  0  0  0  0  0  0  0  0  0  0
  139.4570   71.1730  221.2470 C   0  0  0  0  0  0  0  0  0  0  0  0
  139.3460   72.0420  220.1840 C   0  0  0  0  0  0  0  0  0  0  0  0
  139.5880   73.3910  220.3290 C   0  0  0  0  0  0  0  0  0  0  0  0
  139.9480   73.8860  221.5650 C   0  0  0  0  0  0  0  0  0  0  0  0
  140.1960   75.3170  221.6850 C   0  0  0  0  0  0  0  0  0  0  0  0
  140.9450   75.8570  220.8320 O   0  0  0  0  0  0  0  0  0  0  0  0
  139.6340   76.1200  222.7140 N   0  0  0  0  0  0  0  0  0  0  0  0
  139.9720   77.5070  222.6980 C   0  0  0  0  0  0  0  0  0  0  0  0
  139.0030   78.3960  222.2640 C   0  0  0  0  0  0  0  0  0  0  0  0
  139.2630   79.7540  222.2220 C   0  0  0  0  0  0  0  0  0  0  0  0
  140.5130   80.2020  222.6250 C   0  0  0  0  0  0  0  0  0  0  0  0
  141.4650   79.3000  223.0540 C   0  0  0  0  0  0  0  0  0  0  0  0
  141.2150   77.9460  223.0990 C   0  0  0  0  0  0  0  0  0  0  0  0
  142.7150   80.0530  223.4260 C   0  0  0  0  0  0  0  0  0  0  0  0
  142.2020   81.4650  223.6110 C   0  0  0  0  0  0  0  0  0  0  0  0
  141.0230   81.5860  222.6700 C   0  0  0  0  0  0  0  0  0  0  0  0
  140.0560   73.0050  222.6190 C   0  0  0  0  0  0  0  0  0  0  0  0
  139.5030   69.5800  223.7980 N   0  0  0  0  0  0  0  0  0  0  0  0
  140.4617   68.6209  229.7208 H   0  0  0  0  0  0  0  0  0  0  0  0
  141.1112   67.0517  229.1357 H   0  0  0  0  0  0  0  0  0  0  0  0
  142.1565   68.5126  229.1357 H   0  0  0  0  0  0  0  0  0  0  0  0
  139.7368   66.5457  227.3311 H   0  0  0  0  0  0  0  0  0  0  0  0
  138.9782   67.0990  225.0258 H   0  0  0  0  0  0  0  0  0  0  0  0
  141.5261   70.4404  227.6427 H   0  0  0  0  0  0  0  0  0  0  0  0
  140.1926   72.0913  225.3510 H   0  0  0  0  0  0  0  0  0  0  0  0
  141.7153   71.5062  224.7164 H   0  0  0  0  0  0  0  0  0  0  0  0
  139.2585   70.1007  221.1025 H   0  0  0  0  0  0  0  0  0  0  0  0
  139.0577   71.6505  219.1973 H   0  0  0  0  0  0  0  0  0  0  0  0
  139.4948   74.0671  219.4663 H   0  0  0  0  0  0  0  0  0  0  0  0
  139.0100   75.6900  223.4310 H   0  0  0  0  0  0  0  0  0  0  0  0
  138.0184   78.0192  221.9501 H   0  0  0  0  0  0  0  0  0  0  0  0
  138.4960   80.4629  221.8768 H   0  0  0  0  0  0  0  0  0  0  0  0
  141.9830   77.2381  223.4440 H   0  0  0  0  0  0  0  0  0  0  0  0
  143.1519   79.6633  224.3573 H   0  0  0  0  0  0  0  0  0  0  0  0
  143.5162   79.9715  222.6767 H   0  0  0  0  0  0  0  0  0  0  0  0
  141.8832   81.6262  224.6514 H   0  0  0  0  0  0  0  0  0  0  0  0
  142.9774   82.2152  223.3967 H   0  0  0  0  0  0  0  0  0  0  0  0
  140.2652   82.2770  223.0677 H   0  0  0  0  0  0  0  0  0  0  0  0
  141.2879   81.9901  221.6818 H   0  0  0  0  0  0  0  0  0  0  0  0
  140.3449   73.3972  223.6052 H   0  0  0  0  0  0  0  0  0  0  0  0
  1  2  1  0
  2  3  2  0
  3  4  1  0
  4  5  2  0
  5  6  1  0
  6  7  2  0
  6  8  1  0
  8  9  1  0
  9 10  1  0
 10 11  2  0
 11 12  1  0
 12 13  2  0
 13 14  1  0
 14 15  1  0
 15 16  2  0
 15 17  1  0
 17 18  1  0
 18 19  2  0
 19 20  1  0
 20 21  2  0
 21 22  1  0
 22 23  2  0
 22 24  1  0
 24 25  1  0
 25 26  1  0
 14 27  2  0
  9 28  2  0
  7  2  1  0
 27 10  1  0
 28  5  1  0
 23 18  1  0
 26 21  1  0
  1 29  1  0
  1 30  1  0
  1 31  1  0
  3 32  1  0
  4 33  1  0
  7 34  1  0
  8 35  1  0
  8 36  1  0
 11 37  1  0
 12 38  1  0
 13 39  1  0
 17 40  1  0
 19 41  1  0
 20 42  1  0
 23 43  1  0
 24 44  1  0
 24 45  1  0
 25 46  1  0
 25 47  1  0
 26 48  1  0
 26 49  1  0
 27 50  1  0
M  END
>  <smiles>  (46) 
Cc1ccc2c(c1)CC(c1cccc(C(=O)Nc3ccc4c(c3)CCC4)c1)=N2

>  <score_type>  (46) 
oracle

>  <origin>  (46) 
autodockgpu

>  <m_score__min__energy>  (46) 
-9.3399999999999999

>  <m_primary>  (46) 
energy

>  <rmsd>  (46) 
4.552213214086352

>  <m_score__min__rmsd>  (46) 
4.552213214086352

>  <meeko>  (46) 
{"free_energy": -9.32, "intermolecular_energy": -10.21, "internal_energy": -0.77, "cluster_size": 50, "cluster_id": 1, "rank_in_cluster": 11}

>  <energy>  (46) 
-9.29

>  <cluster_rmsd>  (46) 
0.15

>  <cluster>  (46) 
1

$$$$

     RDKit          3D

 50 54  0  0  0  0  0  0  0  0999 V2000
  141.1420   68.1380  228.9410 C   0  0  0  0  0  0  0  0  0  0  0  0
  140.6890   68.4510  227.5770 C   0  0  0  0  0  0  0  0  0  0  0  0
  139.9740   67.5100  226.8520 C   0  0  0  0  0  0  0  0  0  0  0  0
  139.5490   67.8070  225.5710 C   0  0  0  0  0  0  0  0  0  0  0  0
  139.8450   69.0410  225.0300 C   0  0  0  0  0  0  0  0  0  0  0  0
  140.5510   69.9890  225.7260 C   0  0  0  0  0  0  0  0  0  0  0  0
  140.9680   69.6800  226.9990 C   0  0  0  0  0  0  0  0  0  0  0  0
  140.6740   71.1770  224.8290 C   0  0  0  0  0  0  0  0  0  0  0  0
  139.9530   70.7390  223.5930 C   0  0  0  0  0  0  0  0  0  0  0  0
  139.8130   71.5930  222.4170 C   0  0  0  0  0  0  0  0  0  0  0  0
  139.4560   71.1130  221.1770 C   0  0  0  0  0  0  0  0  0  0  0  0
  139.3420   71.9730  220.1090 C   0  0  0  0  0  0  0  0  0  0  0  0
  139.5800   73.3240  220.2440 C   0  0  0  0  0  0  0  0  0  0  0  0
  139.9400   73.8290  221.4760 C   0  0  0  0  0  0  0  0  0  0  0  0
  140.1850   75.2610  221.5870 C   0  0  0  0  0  0  0  0  0  0  0  0
  140.8370   75.8180  220.6680 O   0  0  0  0  0  0  0  0  0  0  0  0
  139.7220   76.0480  222.6770 N   0  0  0  0  0  0  0  0  0  0  0  0
  140.0420   77.4380  222.6410 C   0  0  0  0  0  0  0  0  0  0  0  0
  139.0830   78.3030  222.1420 C   0  0  0  0  0  0  0  0  0  0  0  0
  139.3270   79.6630  222.0790 C   0  0  0  0  0  0  0  0  0  0  0  0
  140.5520   80.1380  222.5260 C   0  0  0  0  0  0  0  0  0  0  0  0
  141.4950   79.2610  223.0200 C   0  0  0  0  0  0  0  0  0  0  0  0
  141.2610   77.9040  223.0870 C   0  0  0  0  0  0  0  0  0  0  0  0
  142.7170   80.0400  223.4290 C   0  0  0  0  0  0  0  0  0  0  0  0
  142.1780   81.4480  223.5560 C   0  0  0  0  0  0  0  0  0  0  0  0
  141.0410   81.5300  222.5600 C   0  0  0  0  0  0  0  0  0  0  0  0
  140.0500   72.9550  222.5370 C   0  0  0  0  0  0  0  0  0  0  0  0
  139.5030   69.5390  223.7410 N   0  0  0  0  0  0  0  0  0  0  0  0
  140.4637   68.6066  229.6692 H   0  0  0  0  0  0  0  0  0  0  0  0
  141.1400   67.0477  229.0869 H   0  0  0  0  0  0  0  0  0  0  0  0
  142.1611   68.5256  229.0869 H   0  0  0  0  0  0  0  0  0  0  0  0
  139.7456   66.5295  227.2953 H   0  0  0  0  0  0  0  0  0  0  0  0
  138.9805   67.0670  224.9887 H   0  0  0  0  0  0  0  0  0  0  0  0
  141.5370   70.4261  227.5731 H   0  0  0  0  0  0  0  0  0  0  0  0
  140.1942   72.0608  225.2748 H   0  0  0  0  0  0  0  0  0  0  0  0
  141.7165   71.4736  224.6416 H   0  0  0  0  0  0  0  0  0  0  0  0
  139.2614   70.0391  221.0397 H   0  0  0  0  0  0  0  0  0  0  0  0
  139.0545   71.5734  219.1253 H   0  0  0  0  0  0  0  0  0  0  0  0
  139.4837   73.9936  219.3766 H   0  0  0  0  0  0  0  0  0  0  0  0
  139.1790   75.6030  223.4490 H   0  0  0  0  0  0  0  0  0  0  0  0
  138.1188   77.9052  221.7927 H   0  0  0  0  0  0  0  0  0  0  0  0
  138.5670   80.3528  221.6834 H   0  0  0  0  0  0  0  0  0  0  0  0
  142.0218   77.2154  223.4833 H   0  0  0  0  0  0  0  0  0  0  0  0
  143.1164   79.6789  224.3882 H   0  0  0  0  0  0  0  0  0  0  0  0
  143.5523   79.9518  222.7187 H   0  0  0  0  0  0  0  0  0  0  0  0
  141.8103   81.6295  224.5767 H   0  0  0  0  0  0  0  0  0  0  0  0
  142.9525   82.2037  223.3584 H   0  0  0  0  0  0  0  0  0  0  0  0
  140.2569   82.2194  222.9063 H   0  0  0  0  0  0  0  0  0  0  0  0
  141.3449   81.9144  221.5752 H   0  0  0  0  0  0  0  0  0  0  0  0
  140.3379   73.3546  223.5206 H   0  0  0  0  0  0  0  0  0  0  0  0
  1  2  1  0
  2  3  2  0
  3  4  1  0
  4  5  2  0
  5  6  1  0
  6  7  2  0
  6  8  1  0
  8  9  1  0
  9 10  1  0
 10 11  2  0
 11 12  1  0
 12 13  2  0
 13 14  1  0
 14 15  1  0
 15 16  2  0
 15 17  1  0
 17 18  1  0
 18 19  2  0
 19 20  1  0
 20 21  2  0
 21 22  1  0
 22 23  2  0
 22 24  1  0
 24 25  1  0
 25 26  1  0
 14 27  2  0
  9 28  2  0
  7  2  1  0
 27 10  1  0
 28  5  1  0
 23 18  1  0
 26 21  1  0
  1 29  1  0
  1 30  1  0
  1 31  1  0
  3 32  1  0
  4 33  1  0
  7 34  1  0
  8 35  1  0
  8 36  1  0
 11 37  1  0
 12 38  1  0
 13 39  1  0
 17 40  1  0
 19 41  1  0
 20 42  1  0
 23 43  1  0
 24 44  1  0
 24 45  1  0
 25 46  1  0
 25 47  1  0
 26 48  1  0
 26 49  1  0
 27 50  1  0
M  END
>  <smiles>  (47) 
Cc1ccc2c(c1)CC(c1cccc(C(=O)Nc3ccc4c(c3)CCC4)c1)=N2

>  <score_type>  (47) 
oracle

>  <origin>  (47) 
autodockgpu

>  <m_score__min__energy>  (47) 
-9.3399999999999999

>  <m_primary>  (47) 
energy

>  <rmsd>  (47) 
4.534502129292666

>  <m_score__min__rmsd>  (47) 
4.534502129292666

>  <meeko>  (47) 
{"free_energy": -9.31, "intermolecular_energy": -10.21, "internal_energy": -0.77, "cluster_size": 50, "cluster_id": 1, "rank_in_cluster": 29}

>  <energy>  (47) 
-9.29

>  <cluster_rmsd>  (47) 
0.12

>  <cluster>  (47) 
1

$$$$

     RDKit          3D

 50 54  0  0  0  0  0  0  0  0999 V2000
  141.0370   68.1710  228.9930 C   0  0  0  0  0  0  0  0  0  0  0  0
  140.5910   68.4960  227.6300 C   0  0  0  0  0  0  0  0  0  0  0  0
  139.8310   67.5840  226.9140 C   0  0  0  0  0  0  0  0  0  0  0  0
  139.4140   67.8930  225.6330 C   0  0  0  0  0  0  0  0  0  0  0  0
  139.7620   69.1090  225.0830 C   0  0  0  0  0  0  0  0  0  0  0  0
  140.5130   70.0280  225.7700 C   0  0  0  0  0  0  0  0  0  0  0  0
  140.9220   69.7080  227.0440 C   0  0  0  0  0  0  0  0  0  0  0  0
  140.6850   71.2040  224.8660 C   0  0  0  0  0  0  0  0  0  0  0  0
  139.9380   70.7920  223.6360 C   0  0  0  0  0  0  0  0  0  0  0  0
  139.8310   71.6450  222.4560 C   0  0  0  0  0  0  0  0  0  0  0  0
  139.5100   71.1630  221.2060 C   0  0  0  0  0  0  0  0  0  0  0  0
  139.4250   72.0220  220.1340 C   0  0  0  0  0  0  0  0  0  0  0  0
  139.6570   73.3730  220.2750 C   0  0  0  0  0  0  0  0  0  0  0  0
  139.9790   73.8800  221.5170 C   0  0  0  0  0  0  0  0  0  0  0  0
  140.2180   75.3130  221.6330 C   0  0  0  0  0  0  0  0  0  0  0  0
  140.8930   75.8710  220.7310 O   0  0  0  0  0  0  0  0  0  0  0  0
  139.7260   76.0990  222.7100 N   0  0  0  0  0  0  0  0  0  0  0  0
  140.0440   77.4900  222.6830 C   0  0  0  0  0  0  0  0  0  0  0  0
  139.0730   78.3590  222.2130 C   0  0  0  0  0  0  0  0  0  0  0  0
  139.3140   79.7200  222.1590 C   0  0  0  0  0  0  0  0  0  0  0  0
  140.5480   80.1920  222.5850 C   0  0  0  0  0  0  0  0  0  0  0  0
  141.5020   79.3100  223.0490 C   0  0  0  0  0  0  0  0  0  0  0  0
  141.2710   77.9530  223.1070 C   0  0  0  0  0  0  0  0  0  0  0  0
  142.7320   80.0870  223.4400 C   0  0  0  0  0  0  0  0  0  0  0  0
  142.1940   81.4930  223.5930 C   0  0  0  0  0  0  0  0  0  0  0  0
  141.0360   81.5830  222.6220 C   0  0  0  0  0  0  0  0  0  0  0  0
  140.0610   73.0070  222.5810 C   0  0  0  0  0  0  0  0  0  0  0  0
  139.4360   69.6140  223.7930 N   0  0  0  0  0  0  0  0  0  0  0  0
  140.3713   68.6561  229.7221 H   0  0  0  0  0  0  0  0  0  0  0  0
  141.0077   67.0810  229.1383 H   0  0  0  0  0  0  0  0  0  0  0  0
  142.0656   68.5328  229.1383 H   0  0  0  0  0  0  0  0  0  0  0  0
  139.5607   66.6174  227.3640 H   0  0  0  0  0  0  0  0  0  0  0  0
  138.8103   67.1758  225.0575 H   0  0  0  0  0  0  0  0  0  0  0  0
  141.5262   70.4312  227.6113 H   0  0  0  0  0  0  0  0  0  0  0  0
  140.2482   72.1111  225.3091 H   0  0  0  0  0  0  0  0  0  0  0  0
  141.7389   71.4522  224.6716 H   0  0  0  0  0  0  0  0  0  0  0  0
  139.3211   70.0886  221.0643 H   0  0  0  0  0  0  0  0  0  0  0  0
  139.1662   71.6213  219.1428 H   0  0  0  0  0  0  0  0  0  0  0  0
  139.5860   74.0417  219.4045 H   0  0  0  0  0  0  0  0  0  0  0  0
  139.1640   75.6530  223.4680 H   0  0  0  0  0  0  0  0  0  0  0  0
  138.1021   77.9634  221.8799 H   0  0  0  0  0  0  0  0  0  0  0  0
  138.5450   80.4129  221.7868 H   0  0  0  0  0  0  0  0  0  0  0  0
  142.0410   77.2614  223.4797 H   0  0  0  0  0  0  0  0  0  0  0  0
  143.1523   79.7166  224.3867 H   0  0  0  0  0  0  0  0  0  0  0  0
  143.5520   80.0074  222.7111 H   0  0  0  0  0  0  0  0  0  0  0  0
  141.8478   81.6635  224.6231 H   0  0  0  0  0  0  0  0  0  0  0  0
  142.9630   82.2520  223.3870 H   0  0  0  0  0  0  0  0  0  0  0  0
  140.2587   82.2681  222.9914 H   0  0  0  0  0  0  0  0  0  0  0  0
  141.3187   81.9770  221.6346 H   0  0  0  0  0  0  0  0  0  0  0  0
  140.3201   73.4081  223.5720 H   0  0  0  0  0  0  0  0  0  0  0  0
  1  2  1  0
  2  3  2  0
  3  4  1  0
  4  5  2  0
  5  6  1  0
  6  7  2  0
  6  8  1  0
  8  9  1  0
  9 10  1  0
 10 11  2  0
 11 12  1  0
 12 13  2  0
 13 14  1  0
 14 15  1  0
 15 16  2  0
 15 17  1  0
 17 18  1  0
 18 19  2  0
 19 20  1  0
 20 21  2  0
 21 22  1  0
 22 23  2  0
 22 24  1  0
 24 25  1  0
 25 26  1  0
 14 27  2  0
  9 28  2  0
  7  2  1  0
 27 10  1  0
 28  5  1  0
 23 18  1  0
 26 21  1  0
  1 29  1  0
  1 30  1  0
  1 31  1  0
  3 32  1  0
  4 33  1  0
  7 34  1  0
  8 35  1  0
  8 36  1  0
 11 37  1  0
 12 38  1  0
 13 39  1  0
 17 40  1  0
 19 41  1  0
 20 42  1  0
 23 43  1  0
 24 44  1  0
 24 45  1  0
 25 46  1  0
 25 47  1  0
 26 48  1  0
 26 49  1  0
 27 50  1  0
M  END
>  <smiles>  (48) 
Cc1ccc2c(c1)CC(c1cccc(C(=O)Nc3ccc4c(c3)CCC4)c1)=N2

>  <score_type>  (48) 
oracle

>  <origin>  (48) 
autodockgpu

>  <m_score__min__energy>  (48) 
-9.3399999999999999

>  <m_primary>  (48) 
energy

>  <rmsd>  (48) 
4.528245442188127

>  <m_score__min__rmsd>  (48) 
4.528245442188127

>  <meeko>  (48) 
{"free_energy": -9.31, "intermolecular_energy": -10.2, "internal_energy": -0.77, "cluster_size": 50, "cluster_id": 1, "rank_in_cluster": 32}

>  <energy>  (48) 
-9.29

>  <cluster_rmsd>  (48) 
0.06

>  <cluster>  (48) 
1

$$$$

     RDKit          3D

 50 54  0  0  0  0  0  0  0  0999 V2000
  141.1010   68.1380  228.9790 C   0  0  0  0  0  0  0  0  0  0  0  0
  140.6570   68.4590  227.6130 C   0  0  0  0  0  0  0  0  0  0  0  0
  139.9590   67.5180  226.8730 C   0  0  0  0  0  0  0  0  0  0  0  0
  139.5440   67.8230  225.5900 C   0  0  0  0  0  0  0  0  0  0  0  0
  139.8320   69.0640  225.0640 C   0  0  0  0  0  0  0  0  0  0  0  0
  140.5210   70.0130  225.7760 C   0  0  0  0  0  0  0  0  0  0  0  0
  140.9280   69.6970  227.0500 C   0  0  0  0  0  0  0  0  0  0  0  0
  140.6400   71.2110  224.8920 C   0  0  0  0  0  0  0  0  0  0  0  0
  139.9350   70.7770  223.6450 C   0  0  0  0  0  0  0  0  0  0  0  0
  139.7970   71.6410  222.4760 C   0  0  0  0  0  0  0  0  0  0  0  0
  139.4390   71.1710  221.2320 C   0  0  0  0  0  0  0  0  0  0  0  0
  139.3270   72.0410  220.1700 C   0  0  0  0  0  0  0  0  0  0  0  0
  139.5690   73.3900  220.3160 C   0  0  0  0  0  0  0  0  0  0  0  0
  139.9290   73.8840  221.5530 C   0  0  0  0  0  0  0  0  0  0  0  0
  140.1770   75.3140  221.6750 C   0  0  0  0  0  0  0  0  0  0  0  0
  140.9180   75.8570  220.8170 O   0  0  0  0  0  0  0  0  0  0  0  0
  139.6220   76.1150  222.7100 N   0  0  0  0  0  0  0  0  0  0  0  0
  139.9580   77.5020  222.6940 C   0  0  0  0  0  0  0  0  0  0  0  0
  138.9900   78.3900  222.2580 C   0  0  0  0  0  0  0  0  0  0  0  0
  139.2490   79.7490  222.2170 C   0  0  0  0  0  0  0  0  0  0  0  0
  140.4970   80.1980  222.6220 C   0  0  0  0  0  0  0  0  0  0  0  0
  141.4490   79.2970  223.0530 C   0  0  0  0  0  0  0  0  0  0  0  0
  141.2010   77.9420  223.0980 C   0  0  0  0  0  0  0  0  0  0  0  0
  142.6970   80.0520  223.4270 C   0  0  0  0  0  0  0  0  0  0  0  0
  142.1830   81.4630  223.6120 C   0  0  0  0  0  0  0  0  0  0  0  0
  141.0050   81.5820  222.6680 C   0  0  0  0  0  0  0  0  0  0  0  0
  140.0370   73.0010  222.6060 C   0  0  0  0  0  0  0  0  0  0  0  0
  139.4970   69.5710  223.7770 N   0  0  0  0  0  0  0  0  0  0  0  0
  140.4316   68.6220  229.7054 H   0  0  0  0  0  0  0  0  0  0  0  0
  141.0754   67.0482  229.1263 H   0  0  0  0  0  0  0  0  0  0  0  0
  142.1278   68.5039  229.1263 H   0  0  0  0  0  0  0  0  0  0  0  0
  139.7358   66.5314  227.3051 H   0  0  0  0  0  0  0  0  0  0  0  0
  138.9894   67.0826  224.9948 H   0  0  0  0  0  0  0  0  0  0  0  0
  141.4821   70.4441  227.6373 H   0  0  0  0  0  0  0  0  0  0  0  0
  140.1468   72.0853  225.3417 H   0  0  0  0  0  0  0  0  0  0  0  0
  141.6810   71.5206  224.7174 H   0  0  0  0  0  0  0  0  0  0  0  0
  139.2421   70.0986  221.0862 H   0  0  0  0  0  0  0  0  0  0  0  0
  139.0379   71.6504  219.1832 H   0  0  0  0  0  0  0  0  0  0  0  0
  139.4760   74.0669  219.4539 H   0  0  0  0  0  0  0  0  0  0  0  0
  139.0040   75.6820  223.4310 H   0  0  0  0  0  0  0  0  0  0  0  0
  138.0065   78.0125  221.9414 H   0  0  0  0  0  0  0  0  0  0  0  0
  138.4819   80.4573  221.8708 H   0  0  0  0  0  0  0  0  0  0  0  0
  141.9691   77.2350  223.4447 H   0  0  0  0  0  0  0  0  0  0  0  0
  143.1331   79.6624  224.3587 H   0  0  0  0  0  0  0  0  0  0  0  0
  143.4989   79.9720  222.6783 H   0  0  0  0  0  0  0  0  0  0  0  0
  141.8621   81.6236  224.6518 H   0  0  0  0  0  0  0  0  0  0  0  0
  142.9579   82.2145  223.4001 H   0  0  0  0  0  0  0  0  0  0  0  0
  140.2454   82.2721  223.0641 H   0  0  0  0  0  0  0  0  0  0  0  0
  141.2716   81.9861  221.6802 H   0  0  0  0  0  0  0  0  0  0  0  0
  140.3262   73.3920  223.5927 H   0  0  0  0  0  0  0  0  0  0  0  0
  1  2  1  0
  2  3  2  0
  3  4  1  0
  4  5  2  0
  5  6  1  0
  6  7  2  0
  6  8  1  0
  8  9  1  0
  9 10  1  0
 10 11  2  0
 11 12  1  0
 12 13  2  0
 13 14  1  0
 14 15  1  0
 15 16  2  0
 15 17  1  0
 17 18  1  0
 18 19  2  0
 19 20  1  0
 20 21  2  0
 21 22  1  0
 22 23  2  0
 22 24  1  0
 24 25  1  0
 25 26  1  0
 14 27  2  0
  9 28  2  0
  7  2  1  0
 27 10  1  0
 28  5  1  0
 23 18  1  0
 26 21  1  0
  1 29  1  0
  1 30  1  0
  1 31  1  0
  3 32  1  0
  4 33  1  0
  7 34  1  0
  8 35  1  0
  8 36  1  0
 11 37  1  0
 12 38  1  0
 13 39  1  0
 17 40  1  0
 19 41  1  0
 20 42  1  0
 23 43  1  0
 24 44  1  0
 24 45  1  0
 25 46  1  0
 25 47  1  0
 26 48  1  0
 26 49  1  0
 27 50  1  0
M  END
>  <smiles>  (49) 
Cc1ccc2c(c1)CC(c1cccc(C(=O)Nc3ccc4c(c3)CCC4)c1)=N2

>  <score_type>  (49) 
oracle

>  <origin>  (49) 
autodockgpu

>  <m_score__min__energy>  (49) 
-9.3399999999999999

>  <m_primary>  (49) 
energy

>  <rmsd>  (49) 
4.5490726343957

>  <m_score__min__rmsd>  (49) 
4.5490726343957

>  <meeko>  (49) 
{"free_energy": -9.32, "intermolecular_energy": -10.21, "internal_energy": -0.77, "cluster_size": 50, "cluster_id": 1, "rank_in_cluster": 10}

>  <energy>  (49) 
-9.29

>  <cluster_rmsd>  (49) 
0.11

>  <cluster>  (49) 
1

$$$$

     RDKit          3D

 50 54  0  0  0  0  0  0  0  0999 V2000
  141.1260   68.1700  228.9690 C   0  0  0  0  0  0  0  0  0  0  0  0
  140.6760   68.4870  227.6050 C   0  0  0  0  0  0  0  0  0  0  0  0
  139.9580   67.5520  226.8770 C   0  0  0  0  0  0  0  0  0  0  0  0
  139.5380   67.8540  225.5950 C   0  0  0  0  0  0  0  0  0  0  0  0
  139.8400   69.0870  225.0580 C   0  0  0  0  0  0  0  0  0  0  0  0
  140.5480   70.0300  225.7570 C   0  0  0  0  0  0  0  0  0  0  0  0
  140.9610   69.7170  227.0310 C   0  0  0  0  0  0  0  0  0  0  0  0
  140.6790   71.2200  224.8630 C   0  0  0  0  0  0  0  0  0  0  0  0
  139.9580   70.7880  223.6250 C   0  0  0  0  0  0  0  0  0  0  0  0
  139.8240   71.6450  222.4510 C   0  0  0  0  0  0  0  0  0  0  0  0
  139.4770   71.1680  221.2070 C   0  0  0  0  0  0  0  0  0  0  0  0
  139.3680   72.0310  220.1400 C   0  0  0  0  0  0  0  0  0  0  0  0
  139.6010   73.3830  220.2820 C   0  0  0  0  0  0  0  0  0  0  0  0
  139.9500   73.8850  221.5180 C   0  0  0  0  0  0  0  0  0  0  0  0
  140.1900   75.3170  221.6350 C   0  0  0  0  0  0  0  0  0  0  0  0
  140.8570   75.8770  220.7280 O   0  0  0  0  0  0  0  0  0  0  0  0
  139.7070   76.1010  222.7180 N   0  0  0  0  0  0  0  0  0  0  0  0
  140.0250   77.4920  222.6900 C   0  0  0  0  0  0  0  0  0  0  0  0
  139.0560   78.3600  222.2130 C   0  0  0  0  0  0  0  0  0  0  0  0
  139.2980   79.7210  222.1580 C   0  0  0  0  0  0  0  0  0  0  0  0
  140.5280   80.1940  222.5910 C   0  0  0  0  0  0  0  0  0  0  0  0
  141.4800   79.3140  223.0630 C   0  0  0  0  0  0  0  0  0  0  0  0
  141.2490   77.9560  223.1210 C   0  0  0  0  0  0  0  0  0  0  0  0
  142.7070   80.0910  223.4600 C   0  0  0  0  0  0  0  0  0  0  0  0
  142.1680   81.4980  223.6080 C   0  0  0  0  0  0  0  0  0  0  0  0
  141.0160   81.5860  222.6290 C   0  0  0  0  0  0  0  0  0  0  0  0
  140.0550   73.0080  222.5760 C   0  0  0  0  0  0  0  0  0  0  0  0
  139.5030   69.5890  223.7690 N   0  0  0  0  0  0  0  0  0  0  0  0
  140.4519   68.6448  229.6971 H   0  0  0  0  0  0  0  0  0  0  0  0
  141.1141   67.0798  229.1150 H   0  0  0  0  0  0  0  0  0  0  0  0
  142.1485   68.5483  229.1150 H   0  0  0  0  0  0  0  0  0  0  0  0
  139.7228   66.5721  227.3179 H   0  0  0  0  0  0  0  0  0  0  0  0
  138.9684   67.1175  225.0092 H   0  0  0  0  0  0  0  0  0  0  0  0
  141.5309   70.4599  227.6084 H   0  0  0  0  0  0  0  0  0  0  0  0
  140.2029   72.1052  225.3099 H   0  0  0  0  0  0  0  0  0  0  0  0
  141.7233   71.5121  224.6783 H   0  0  0  0  0  0  0  0  0  0  0  0
  139.2863   70.0940  221.0652 H   0  0  0  0  0  0  0  0  0  0  0  0
  139.0891   71.6338  219.1529 H   0  0  0  0  0  0  0  0  0  0  0  0
  139.5092   74.0554  219.4163 H   0  0  0  0  0  0  0  0  0  0  0  0
  139.1520   75.6540  223.4800 H   0  0  0  0  0  0  0  0  0  0  0  0
  138.0869   77.9639  221.8755 H   0  0  0  0  0  0  0  0  0  0  0  0
  138.5316   80.4131  221.7791 H   0  0  0  0  0  0  0  0  0  0  0  0
  142.0169   77.2651  223.4991 H   0  0  0  0  0  0  0  0  0  0  0  0
  143.1216   79.7219  224.4097 H   0  0  0  0  0  0  0  0  0  0  0  0
  143.5313   80.0103  222.7361 H   0  0  0  0  0  0  0  0  0  0  0  0
  141.8151   81.6699  224.6356 H   0  0  0  0  0  0  0  0  0  0  0  0
  142.9382   82.2570  223.4064 H   0  0  0  0  0  0  0  0  0  0  0  0
  140.2362   82.2716  222.9921 H   0  0  0  0  0  0  0  0  0  0  0  0
  141.3053   81.9782  221.6428 H   0  0  0  0  0  0  0  0  0  0  0  0
  140.3341   73.4057  223.5629 H   0  0  0  0  0  0  0  0  0  0  0  0
  1  2  1  0
  2  3  2  0
  3  4  1  0
  4  5  2  0
  5  6  1  0
  6  7  2  0
  6  8  1  0
  8  9  1  0
  9 10  1  0
 10 11  2  0
 11 12  1  0
 12 13  2  0
 13 14  1  0
 14 15  1  0
 15 16  2  0
 15 17  1  0
 17 18  1  0
 18 19  2  0
 19 20  1  0
 20 21  2  0
 21 22  1  0
 22 23  2  0
 22 24  1  0
 24 25  1  0
 25 26  1  0
 14 27  2  0
  9 28  2  0
  7  2  1  0
 27 10  1  0
 28  5  1  0
 23 18  1  0
 26 21  1  0
  1 29  1  0
  1 30  1  0
  1 31  1  0
  3 32  1  0
  4 33  1  0
  7 34  1  0
  8 35  1  0
  8 36  1  0
 11 37  1  0
 12 38  1  0
 13 39  1  0
 17 40  1  0
 19 41  1  0
 20 42  1  0
 23 43  1  0
 24 44  1  0
 24 45  1  0
 25 46  1  0
 25 47  1  0
 26 48  1  0
 26 49  1  0
 27 50  1  0
M  END
>  <smiles>  (50) 
Cc1ccc2c(c1)CC(c1cccc(C(=O)Nc3ccc4c(c3)CCC4)c1)=N2

>  <score_type>  (50) 
oracle

>  <origin>  (50) 
autodockgpu

>  <m_score__min__energy>  (50) 
-9.3399999999999999

>  <m_primary>  (50) 
energy

>  <rmsd>  (50) 
4.524858372587874

>  <m_score__min__rmsd>  (50) 
4.524858372587874

>  <meeko>  (50) 
{"free_energy": -9.31, "intermolecular_energy": -10.2, "internal_energy": -0.77, "cluster_size": 50, "cluster_id": 1, "rank_in_cluster": 33}

>  <energy>  (50) 
-9.27

>  <cluster_rmsd>  (50) 
0.09

>  <cluster>  (50) 
1

$$$$
