
     RDKit          3D

 55 58  0  0  0  0  0  0  0  0999 V2000
  145.9230   73.0370  221.7840 N   0  0  0  0  0  0  0  0  0  0  0  0
  145.0460   72.8900  220.3270 S   0  0  0  0  0  0  0  0  0  0  0  0
  145.6300   71.7630  219.5150 O   0  0  0  0  0  0  0  0  0  0  0  0
  145.2080   74.1880  219.5770 O   0  0  0  0  0  0  0  0  0  0  0  0
  143.3550   72.6030  220.5910 C   0  0  0  0  0  0  0  0  0  0  0  0
  142.4630   73.6230  220.7960 C   0  0  0  0  0  0  0  0  0  0  0  0
  141.1240   73.3720  221.0030 C   0  0  0  0  0  0  0  0  0  0  0  0
  140.6010   72.0780  221.0170 C   0  0  0  0  0  0  0  0  0  0  0  0
  139.1860   71.8530  221.2390 C   0  0  0  0  0  0  0  0  0  0  0  0
  138.6040   71.8600  222.4240 C   0  0  0  0  0  0  0  0  0  0  0  0
  139.0800   70.9780  223.5060 C   0  0  0  0  0  0  0  0  0  0  0  0
  139.6870   71.6230  224.5320 N   0  0  0  0  0  0  0  0  0  0  0  0
  140.1390   70.9780  225.6230 C   0  0  0  0  0  0  0  0  0  0  0  0
  140.7580   71.6160  226.6730 C   0  0  0  0  0  0  0  0  0  0  0  0
  141.2100   70.9250  227.7820 C   0  0  0  0  0  0  0  0  0  0  0  0
  141.8220   71.5540  228.8220 F   0  0  0  0  0  0  0  0  0  0  0  0
  141.0140   69.5600  227.7940 C   0  0  0  0  0  0  0  0  0  0  0  0
  141.4290   68.8070  228.8470 F   0  0  0  0  0  0  0  0  0  0  0  0
  140.3970   68.9060  226.7530 C   0  0  0  0  0  0  0  0  0  0  0  0
  139.9500   69.6170  225.6460 C   0  0  0  0  0  0  0  0  0  0  0  0
  139.3260   68.9750  224.5890 C   0  0  0  0  0  0  0  0  0  0  0  0
  139.2000   67.7300  224.7120 O   0  0  0  0  0  0  0  0  0  0  0  0
  138.8780   69.6470  223.4880 N   0  0  0  0  0  0  0  0  0  0  0  0
  138.2410   68.9870  222.3990 C   0  0  0  0  0  0  0  0  0  0  0  0
  139.1000   68.1160  221.5270 C   0  0  0  0  0  0  0  0  0  0  0  0
  139.1610   68.5930  220.1010 C   0  0  0  0  0  0  0  0  0  0  0  0
  140.2960   67.8590  219.4070 C   0  0  0  0  0  0  0  0  0  0  0  0
  140.2580   66.3800  219.5480 C   0  0  0  0  0  0  0  0  0  0  0  0
  140.0520   65.9430  220.9800 C   0  0  0  0  0  0  0  0  0  0  0  0
  138.8100   66.6640  221.5480 C   0  0  0  0  0  0  0  0  0  0  0  0
  141.5200   71.0690  220.8090 C   0  0  0  0  0  0  0  0  0  0  0  0
  142.8700   71.3180  220.5990 C   0  0  0  0  0  0  0  0  0  0  0  0
  145.9240   72.1410  222.3120 H   0  0  0  0  0  0  0  0  0  0  0  0
  145.6460   73.8550  222.3650 H   0  0  0  0  0  0  0  0  0  0  0  0
  142.8230   74.6624  220.7953 H   0  0  0  0  0  0  0  0  0  0  0  0
  140.4434   74.2212  221.1628 H   0  0  0  0  0  0  0  0  0  0  0  0
  138.5536   71.6633  220.3592 H   0  0  0  0  0  0  0  0  0  0  0  0
  137.7529   72.5325  222.6067 H   0  0  0  0  0  0  0  0  0  0  0  0
  140.8972   72.7063  226.6290 H   0  0  0  0  0  0  0  0  0  0  0  0
  140.2569   67.8158  226.7970 H   0  0  0  0  0  0  0  0  0  0  0  0
  137.4439   68.3541  222.8162 H   0  0  0  0  0  0  0  0  0  0  0  0
  137.8962   69.7967  221.7391 H   0  0  0  0  0  0  0  0  0  0  0  0
  140.0843   68.2294  222.0048 H   0  0  0  0  0  0  0  0  0  0  0  0
  138.2099   68.3743  219.5935 H   0  0  0  0  0  0  0  0  0  0  0  0
  139.3330   69.6790  220.0690 H   0  0  0  0  0  0  0  0  0  0  0  0
  140.2561   68.1020  218.3349 H   0  0  0  0  0  0  0  0  0  0  0  0
  141.2246   68.1933  219.8926 H   0  0  0  0  0  0  0  0  0  0  0  0
  139.4318   65.9880  218.9367 H   0  0  0  0  0  0  0  0  0  0  0  0
  141.2290   65.9861  219.2135 H   0  0  0  0  0  0  0  0  0  0  0  0
  139.8958   64.8547  221.0153 H   0  0  0  0  0  0  0  0  0  0  0  0
  140.9384   66.1984  221.5793 H   0  0  0  0  0  0  0  0  0  0  0  0
  137.9299   66.4462  220.9251 H   0  0  0  0  0  0  0  0  0  0  0  0
  138.5942   66.3233  222.5714 H   0  0  0  0  0  0  0  0  0  0  0  0
  141.1690   70.0265  220.8097 H   0  0  0  0  0  0  0  0  0  0  0  0
  143.5591   70.4760  220.4371 H   0  0  0  0  0  0  0  0  0  0  0  0
  1  2  1  0
  2  3  2  0
  2  4  2  0
  2  5  1  0
  5  6  2  0
  6  7  1  0
  7  8  2  0
  8  9  1  0
  9 10  2  0
 10 11  1  0
 11 12  2  0
 12 13  1  0
 13 14  2  0
 14 15  1  0
 15 16  1  0
 15 17  2  0
 17 18  1  0
 17 19  1  0
 19 20  2  0
 20 21  1  0
 21 22  2  0
 21 23  1  0
 23 24  1  0
 24 25  1  0
 25 26  1  0
 26 27  1  0
 27 28  1  0
 28 29  1  0
 29 30  1  0
  8 31  1  0
 31 32  2  0
 32  5  1  0
 23 11  1  0
 30 25  1  0
 20 13  1  0
  1 33  1  0
  1 34  1  0
  6 35  1  0
  7 36  1  0
  9 37  1  0
 10 38  1  0
 14 39  1  0
 19 40  1  0
 24 41  1  0
 24 42  1  0
 25 43  1  0
 26 44  1  0
 26 45  1  0
 27 46  1  0
 27 47  1  0
 28 48  1  0
 28 49  1  0
 29 50  1  0
 29 51  1  0
 30 52  1  0
 30 53  1  0
 31 54  1  0
 32 55  1  0
M  END
>  <smiles>  (1) 
NS(=O)(=O)c1ccc(/C=C/c2nc3cc(F)c(F)cc3c(=O)n2CC2CCCCC2)cc1

>  <score_type>  (1) 
oracle

>  <origin>  (1) 
autodockgpu

>  <m_score__min__energy>  (1) 
-8.9800000000000004

>  <m_primary>  (1) 
energy

>  <rmsd>  (1) 
10.67802739445394

>  <m_score__min__rmsd>  (1) 
10.67802739445394

>  <meeko>  (1) 
{"free_energy": -7.61, "intermolecular_energy": -9.7, "internal_energy": -1.82, "cluster_size": 10, "cluster_id": 2, "rank_in_cluster": 10}

>  <energy>  (1) 
-8.98

>  <cluster_rmsd>  (1) 
0.0

>  <cluster>  (1) 
1

$$$$

     RDKit          3D

 55 58  0  0  0  0  0  0  0  0999 V2000
  141.2110   67.6450  226.8080 N   0  0  0  0  0  0  0  0  0  0  0  0
  139.7210   68.4350  226.5490 S   0  0  0  0  0  0  0  0  0  0  0  0
  139.2320   69.0010  227.8570 O   0  0  0  0  0  0  0  0  0  0  0  0
  138.7470   67.3970  226.0520 O   0  0  0  0  0  0  0  0  0  0  0  0
  139.8340   69.7040  225.3710 C   0  0  0  0  0  0  0  0  0  0  0  0
  140.5990   70.8240  225.5710 C   0  0  0  0  0  0  0  0  0  0  0  0
  140.6740   71.8200  224.6220 C   0  0  0  0  0  0  0  0  0  0  0  0
  139.9830   71.7490  223.4110 C   0  0  0  0  0  0  0  0  0  0  0  0
  140.0860   72.8170  222.4360 C   0  0  0  0  0  0  0  0  0  0  0  0
  139.0610   73.4990  221.9620 C   0  0  0  0  0  0  0  0  0  0  0  0
  138.9100   74.9380  222.2510 C   0  0  0  0  0  0  0  0  0  0  0  0
  140.0780   75.6230  222.3170 N   0  0  0  0  0  0  0  0  0  0  0  0
  140.1240   76.9510  222.5240 C   0  0  0  0  0  0  0  0  0  0  0  0
  141.2990   77.6640  222.5950 C   0  0  0  0  0  0  0  0  0  0  0  0
  141.3120   79.0300  222.8080 C   0  0  0  0  0  0  0  0  0  0  0  0
  142.4730   79.7360  222.8780 F   0  0  0  0  0  0  0  0  0  0  0  0
  140.0920   79.6560  222.9470 C   0  0  0  0  0  0  0  0  0  0  0  0
  140.0180   80.9960  223.1590 F   0  0  0  0  0  0  0  0  0  0  0  0
  138.9070   78.9600  222.8790 C   0  0  0  0  0  0  0  0  0  0  0  0
  138.9120   77.5870  222.6660 C   0  0  0  0  0  0  0  0  0  0  0  0
  137.7300   76.8690  222.5940 C   0  0  0  0  0  0  0  0  0  0  0  0
  136.6790   77.5460  222.7340 O   0  0  0  0  0  0  0  0  0  0  0  0
  137.7050   75.5200  222.3870 N   0  0  0  0  0  0  0  0  0  0  0  0
  136.4890   74.7820  222.3180 C   0  0  0  0  0  0  0  0  0  0  0  0
  135.7930   74.4830  223.6160 C   0  0  0  0  0  0  0  0  0  0  0  0
  134.9970   73.2070  223.5730 C   0  0  0  0  0  0  0  0  0  0  0  0
  134.6250   72.8360  224.9990 C   0  0  0  0  0  0  0  0  0  0  0  0
  133.9790   73.9260  225.7760 C   0  0  0  0  0  0  0  0  0  0  0  0
  134.7340   75.2310  225.6760 C   0  0  0  0  0  0  0  0  0  0  0  0
  134.9580   75.5650  224.1850 C   0  0  0  0  0  0  0  0  0  0  0  0
  139.2200   70.6130  223.2330 C   0  0  0  0  0  0  0  0  0  0  0  0
  139.1430   69.6070  224.1880 C   0  0  0  0  0  0  0  0  0  0  0  0
  141.6040   67.2830  225.9160 H   0  0  0  0  0  0  0  0  0  0  0  0
  141.1870   66.9310  227.5660 H   0  0  0  0  0  0  0  0  0  0  0  0
  141.1646   70.9296  226.5085 H   0  0  0  0  0  0  0  0  0  0  0  0
  141.2998   72.7014  224.8255 H   0  0  0  0  0  0  0  0  0  0  0  0
  141.0887   73.0768  222.0657 H   0  0  0  0  0  0  0  0  0  0  0  0
  138.3088   72.9880  221.3430 H   0  0  0  0  0  0  0  0  0  0  0  0
  142.2548   77.1320  222.4790 H   0  0  0  0  0  0  0  0  0  0  0  0
  137.9516   79.4929  222.9938 H   0  0  0  0  0  0  0  0  0  0  0  0
  135.7893   75.3547  221.6915 H   0  0  0  0  0  0  0  0  0  0  0  0
  136.7762   73.7988  221.9169 H   0  0  0  0  0  0  0  0  0  0  0  0
  136.6450   74.3725  224.3029 H   0  0  0  0  0  0  0  0  0  0  0  0
  134.0850   73.3561  222.9763 H   0  0  0  0  0  0  0  0  0  0  0  0
  135.5892   72.4031  223.1116 H   0  0  0  0  0  0  0  0  0  0  0  0
  133.9303   71.9840  224.9612 H   0  0  0  0  0  0  0  0  0  0  0  0
  135.5679   72.6031  225.5154 H   0  0  0  0  0  0  0  0  0  0  0  0
  132.9596   74.0774  225.3915 H   0  0  0  0  0  0  0  0  0  0  0  0
  133.9705   73.6240  226.8337 H   0  0  0  0  0  0  0  0  0  0  0  0
  134.1497   76.0331  226.1506 H   0  0  0  0  0  0  0  0  0  0  0  0
  135.7034   75.1415  226.1881 H   0  0  0  0  0  0  0  0  0  0  0  0
  133.9926   75.6121  223.6599 H   0  0  0  0  0  0  0  0  0  0  0  0
  135.4530   76.5409  224.0730 H   0  0  0  0  0  0  0  0  0  0  0  0
  138.6507   70.4996  222.2987 H   0  0  0  0  0  0  0  0  0  0  0  0
  138.5204   68.7211  223.9942 H   0  0  0  0  0  0  0  0  0  0  0  0
  1  2  1  0
  2  3  2  0
  2  4  2  0
  2  5  1  0
  5  6  2  0
  6  7  1  0
  7  8  2  0
  8  9  1  0
  9 10  2  0
 10 11  1  0
 11 12  2  0
 12 13  1  0
 13 14  2  0
 14 15  1  0
 15 16  1  0
 15 17  2  0
 17 18  1  0
 17 19  1  0
 19 20  2  0
 20 21  1  0
 21 22  2  0
 21 23  1  0
 23 24  1  0
 24 25  1  0
 25 26  1  0
 26 27  1  0
 27 28  1  0
 28 29  1  0
 29 30  1  0
  8 31  1  0
 31 32  2  0
 32  5  1  0
 23 11  1  0
 30 25  1  0
 20 13  1  0
  1 33  1  0
  1 34  1  0
  6 35  1  0
  7 36  1  0
  9 37  1  0
 10 38  1  0
 14 39  1  0
 19 40  1  0
 24 41  1  0
 24 42  1  0
 25 43  1  0
 26 44  1  0
 26 45  1  0
 27 46  1  0
 27 47  1  0
 28 48  1  0
 28 49  1  0
 29 50  1  0
 29 51  1  0
 30 52  1  0
 30 53  1  0
 31 54  1  0
 32 55  1  0
M  END
>  <smiles>  (2) 
NS(=O)(=O)c1ccc(/C=C/c2nc3cc(F)c(F)cc3c(=O)n2CC2CCCCC2)cc1

>  <score_type>  (2) 
oracle

>  <origin>  (2) 
autodockgpu

>  <m_score__min__energy>  (2) 
-8.9800000000000004

>  <m_primary>  (2) 
energy

>  <rmsd>  (2) 
7.138698713717039

>  <m_score__min__rmsd>  (2) 
7.138698713717039

>  <meeko>  (2) 
{"free_energy": -8.37, "intermolecular_energy": -10.46, "internal_energy": -1.41, "cluster_size": 3, "cluster_id": 5, "rank_in_cluster": 1}

>  <energy>  (2) 
-8.9

>  <cluster_rmsd>  (2) 
0.3

>  <cluster>  (2) 
1

$$$$

     RDKit          3D

 55 58  0  0  0  0  0  0  0  0999 V2000
  139.3390   67.2340  226.2070 N   0  0  0  0  0  0  0  0  0  0  0  0
  140.2890   68.6340  226.4250 S   0  0  0  0  0  0  0  0  0  0  0  0
  141.7450   68.2540  226.3580 O   0  0  0  0  0  0  0  0  0  0  0  0
  139.9710   69.1780  227.7960 O   0  0  0  0  0  0  0  0  0  0  0  0
  139.9510   69.8610  225.2450 C   0  0  0  0  0  0  0  0  0  0  0  0
  138.7630   69.9150  224.5640 C   0  0  0  0  0  0  0  0  0  0  0  0
  138.5170   70.8980  223.6310 C   0  0  0  0  0  0  0  0  0  0  0  0
  139.4520   71.8890  223.3260 C   0  0  0  0  0  0  0  0  0  0  0  0
  139.1570   72.9070  222.3380 C   0  0  0  0  0  0  0  0  0  0  0  0
  139.9470   73.2220  221.3280 C   0  0  0  0  0  0  0  0  0  0  0  0
  140.4860   74.5870  221.1860 C   0  0  0  0  0  0  0  0  0  0  0  0
  139.9150   75.5050  222.0030 N   0  0  0  0  0  0  0  0  0  0  0  0
  140.3180   76.7880  222.0400 C   0  0  0  0  0  0  0  0  0  0  0  0
  139.7490   77.7340  222.8620 C   0  0  0  0  0  0  0  0  0  0  0  0
  140.1870   79.0450  222.8760 C   0  0  0  0  0  0  0  0  0  0  0  0
  139.6270   79.9820  223.6890 F   0  0  0  0  0  0  0  0  0  0  0  0
  141.2250   79.3710  222.0290 C   0  0  0  0  0  0  0  0  0  0  0  0
  141.7140   80.6380  221.9830 F   0  0  0  0  0  0  0  0  0  0  0  0
  141.8050   78.4380  221.2000 C   0  0  0  0  0  0  0  0  0  0  0  0
  141.3510   77.1250  221.1980 C   0  0  0  0  0  0  0  0  0  0  0  0
  141.9230   76.1720  220.3710 C   0  0  0  0  0  0  0  0  0  0  0  0
  142.8630   76.5840  219.6430 O   0  0  0  0  0  0  0  0  0  0  0  0
  141.4980   74.8760  220.3460 N   0  0  0  0  0  0  0  0  0  0  0  0
  142.0830   73.8970  219.4920 C   0  0  0  0  0  0  0  0  0  0  0  0
  143.5770   73.7510  219.5400 C   0  0  0  0  0  0  0  0  0  0  0  0
  144.1060   72.7990  218.5010 C   0  0  0  0  0  0  0  0  0  0  0  0
  145.6110   72.9830  218.4160 C   0  0  0  0  0  0  0  0  0  0  0  0
  146.3210   72.9090  219.7210 C   0  0  0  0  0  0  0  0  0  0  0  0
  145.6720   73.7710  220.7790 C   0  0  0  0  0  0  0  0  0  0  0  0
  144.1710   73.4220  220.8560 C   0  0  0  0  0  0  0  0  0  0  0  0
  140.6400   71.8120  224.0250 C   0  0  0  0  0  0  0  0  0  0  0  0
  140.8910   70.8230  224.9670 C   0  0  0  0  0  0  0  0  0  0  0  0
  139.5850   66.5010  226.9020 H   0  0  0  0  0  0  0  0  0  0  0  0
  139.3220   66.8810  225.2270 H   0  0  0  0  0  0  0  0  0  0  0  0
  137.9906   69.1584  224.7665 H   0  0  0  0  0  0  0  0  0  0  0  0
  137.5495   70.9024  223.1076 H   0  0  0  0  0  0  0  0  0  0  0  0
  138.2087   73.4557  222.4362 H   0  0  0  0  0  0  0  0  0  0  0  0
  140.2065   72.4558  220.5826 H   0  0  0  0  0  0  0  0  0  0  0  0
  138.9232   77.4387  223.5259 H   0  0  0  0  0  0  0  0  0  0  0  0
  142.6312   78.7330  220.5364 H   0  0  0  0  0  0  0  0  0  0  0  0
  141.6463   72.9228  219.7571 H   0  0  0  0  0  0  0  0  0  0  0  0
  141.8639   74.2431  218.4711 H   0  0  0  0  0  0  0  0  0  0  0  0
  143.9049   74.7765  219.3146 H   0  0  0  0  0  0  0  0  0  0  0  0
  143.8726   71.7638  218.7905 H   0  0  0  0  0  0  0  0  0  0  0  0
  143.6412   73.0029  217.5251 H   0  0  0  0  0  0  0  0  0  0  0  0
  146.0157   72.1976  217.7607 H   0  0  0  0  0  0  0  0  0  0  0  0
  145.7784   73.9988  218.0285 H   0  0  0  0  0  0  0  0  0  0  0  0
  146.3186   71.8645  220.0658 H   0  0  0  0  0  0  0  0  0  0  0  0
  147.3451   73.2801  219.5674 H   0  0  0  0  0  0  0  0  0  0  0  0
  146.1460   73.5798  221.7530 H   0  0  0  0  0  0  0  0  0  0  0  0
  145.7950   74.8333  220.5215 H   0  0  0  0  0  0  0  0  0  0  0  0
  144.0437   72.3505  221.0697 H   0  0  0  0  0  0  0  0  0  0  0  0
  143.6788   73.9896  221.6595 H   0  0  0  0  0  0  0  0  0  0  0  0
  141.4185   72.5637  223.8280 H   0  0  0  0  0  0  0  0  0  0  0  0
  141.8547   70.8099  225.4971 H   0  0  0  0  0  0  0  0  0  0  0  0
  1  2  1  0
  2  3  2  0
  2  4  2  0
  2  5  1  0
  5  6  2  0
  6  7  1  0
  7  8  2  0
  8  9  1  0
  9 10  2  0
 10 11  1  0
 11 12  2  0
 12 13  1  0
 13 14  2  0
 14 15  1  0
 15 16  1  0
 15 17  2  0
 17 18  1  0
 17 19  1  0
 19 20  2  0
 20 21  1  0
 21 22  2  0
 21 23  1  0
 23 24  1  0
 24 25  1  0
 25 26  1  0
 26 27  1  0
 27 28  1  0
 28 29  1  0
 29 30  1  0
  8 31  1  0
 31 32  2  0
 32  5  1  0
 23 11  1  0
 30 25  1  0
 20 13  1  0
  1 33  1  0
  1 34  1  0
  6 35  1  0
  7 36  1  0
  9 37  1  0
 10 38  1  0
 14 39  1  0
 19 40  1  0
 24 41  1  0
 24 42  1  0
 25 43  1  0
 26 44  1  0
 26 45  1  0
 27 46  1  0
 27 47  1  0
 28 48  1  0
 28 49  1  0
 29 50  1  0
 29 51  1  0
 30 52  1  0
 30 53  1  0
 31 54  1  0
 32 55  1  0
M  END
>  <smiles>  (3) 
NS(=O)(=O)c1ccc(/C=C/c2nc3cc(F)c(F)cc3c(=O)n2CC2CCCCC2)cc1

>  <score_type>  (3) 
oracle

>  <origin>  (3) 
autodockgpu

>  <m_score__min__energy>  (3) 
-8.9800000000000004

>  <m_primary>  (3) 
energy

>  <rmsd>  (3) 
5.321299860256501

>  <m_score__min__rmsd>  (3) 
5.321299860256501

>  <meeko>  (3) 
{"free_energy": -8.34, "intermolecular_energy": -10.43, "internal_energy": -1.28, "cluster_size": 17, "cluster_id": 1, "rank_in_cluster": 17}

>  <energy>  (3) 
-8.88

>  <cluster_rmsd>  (3) 
0.29

>  <cluster>  (3) 
1

$$$$

     RDKit          3D

 55 58  0  0  0  0  0  0  0  0999 V2000
  142.4520   79.0270  222.0520 N   0  0  0  0  0  0  0  0  0  0  0  0
  140.8290   78.7840  222.5180 S   0  0  0  0  0  0  0  0  0  0  0  0
  139.9470   79.7180  221.7300 O   0  0  0  0  0  0  0  0  0  0  0  0
  140.7320   79.1160  223.9860 O   0  0  0  0  0  0  0  0  0  0  0  0
  140.3030   77.1470  222.2790 C   0  0  0  0  0  0  0  0  0  0  0  0
  141.1460   76.1660  221.8250 C   0  0  0  0  0  0  0  0  0  0  0  0
  140.7080   74.8730  221.6430 C   0  0  0  0  0  0  0  0  0  0  0  0
  139.3920   74.4870  221.9070 C   0  0  0  0  0  0  0  0  0  0  0  0
  138.9670   73.1160  221.7020 C   0  0  0  0  0  0  0  0  0  0  0  0
  139.7360   72.0590  221.8850 C   0  0  0  0  0  0  0  0  0  0  0  0
  139.6550   71.2710  223.1290 C   0  0  0  0  0  0  0  0  0  0  0  0
  140.3670   71.7780  224.1640 N   0  0  0  0  0  0  0  0  0  0  0  0
  140.3670   71.2140  225.3860 C   0  0  0  0  0  0  0  0  0  0  0  0
  141.0830   71.7150  226.4480 C   0  0  0  0  0  0  0  0  0  0  0  0
  141.0610   71.1120  227.6920 C   0  0  0  0  0  0  0  0  0  0  0  0
  141.7690   71.6050  228.7440 F   0  0  0  0  0  0  0  0  0  0  0  0
  140.2860   69.9800  227.8270 C   0  0  0  0  0  0  0  0  0  0  0  0
  140.2100   69.3270  229.0170 F   0  0  0  0  0  0  0  0  0  0  0  0
  139.5630   69.4650  226.7760 C   0  0  0  0  0  0  0  0  0  0  0  0
  139.5980   70.0840  225.5320 C   0  0  0  0  0  0  0  0  0  0  0  0
  138.8760   69.5800  224.4630 C   0  0  0  0  0  0  0  0  0  0  0  0
  138.2040   68.5450  224.7050 O   0  0  0  0  0  0  0  0  0  0  0  0
  138.8920   70.1660  223.2300 N   0  0  0  0  0  0  0  0  0  0  0  0
  138.1540   69.6460  222.1290 C   0  0  0  0  0  0  0  0  0  0  0  0
  138.7520   68.4810  221.3910 C   0  0  0  0  0  0  0  0  0  0  0  0
  138.8100   67.2290  222.2230 C   0  0  0  0  0  0  0  0  0  0  0  0
  139.1060   66.0610  221.2970 C   0  0  0  0  0  0  0  0  0  0  0  0
  140.2850   66.2540  220.4120 C   0  0  0  0  0  0  0  0  0  0  0  0
  140.2600   67.5880  219.7030 C   0  0  0  0  0  0  0  0  0  0  0  0
  140.0670   68.7060  220.7490 C   0  0  0  0  0  0  0  0  0  0  0  0
  138.5640   75.4930  222.3620 C   0  0  0  0  0  0  0  0  0  0  0  0
  139.0020   76.7970  222.5470 C   0  0  0  0  0  0  0  0  0  0  0  0
  142.5940   78.7870  221.0500 H   0  0  0  0  0  0  0  0  0  0  0  0
  143.1470   78.5780  222.6840 H   0  0  0  0  0  0  0  0  0  0  0  0
  142.1935   76.4166  221.6015 H   0  0  0  0  0  0  0  0  0  0  0  0
  141.4194   74.1181  221.2770 H   0  0  0  0  0  0  0  0  0  0  0  0
  137.9320   72.9449  221.3710 H   0  0  0  0  0  0  0  0  0  0  0  0
  140.4465   71.7620  221.0995 H   0  0  0  0  0  0  0  0  0  0  0  0
  141.6902   72.6208  226.3036 H   0  0  0  0  0  0  0  0  0  0  0  0
  138.9549   68.5599  226.9207 H   0  0  0  0  0  0  0  0  0  0  0  0
  137.1719   69.3282  222.5092 H   0  0  0  0  0  0  0  0  0  0  0  0
  138.1267   70.4639  221.3939 H   0  0  0  0  0  0  0  0  0  0  0  0
  138.0366   68.3528  220.5653 H   0  0  0  0  0  0  0  0  0  0  0  0
  139.6062   67.3185  222.9767 H   0  0  0  0  0  0  0  0  0  0  0  0
  137.8530   67.0713  222.7420 H   0  0  0  0  0  0  0  0  0  0  0  0
  139.2844   65.1694  221.9161 H   0  0  0  0  0  0  0  0  0  0  0  0
  138.2334   65.9601  220.6349 H   0  0  0  0  0  0  0  0  0  0  0  0
  141.1983   66.1952  221.0223 H   0  0  0  0  0  0  0  0  0  0  0  0
  140.2616   65.4658  219.6451 H   0  0  0  0  0  0  0  0  0  0  0  0
  141.2101   67.7409  219.1701 H   0  0  0  0  0  0  0  0  0  0  0  0
  139.4333   67.6093  218.9777 H   0  0  0  0  0  0  0  0  0  0  0  0
  140.8672   68.6598  221.5023 H   0  0  0  0  0  0  0  0  0  0  0  0
  140.1054   69.6972  220.2735 H   0  0  0  0  0  0  0  0  0  0  0  0
  137.5147   75.2517  222.5871 H   0  0  0  0  0  0  0  0  0  0  0  0
  138.2986   77.5596  222.9127 H   0  0  0  0  0  0  0  0  0  0  0  0
  1  2  1  0
  2  3  2  0
  2  4  2  0
  2  5  1  0
  5  6  2  0
  6  7  1  0
  7  8  2  0
  8  9  1  0
  9 10  2  0
 10 11  1  0
 11 12  2  0
 12 13  1  0
 13 14  2  0
 14 15  1  0
 15 16  1  0
 15 17  2  0
 17 18  1  0
 17 19  1  0
 19 20  2  0
 20 21  1  0
 21 22  2  0
 21 23  1  0
 23 24  1  0
 24 25  1  0
 25 26  1  0
 26 27  1  0
 27 28  1  0
 28 29  1  0
 29 30  1  0
  8 31  1  0
 31 32  2  0
 32  5  1  0
 23 11  1  0
 30 25  1  0
 20 13  1  0
  1 33  1  0
  1 34  1  0
  6 35  1  0
  7 36  1  0
  9 37  1  0
 10 38  1  0
 14 39  1  0
 19 40  1  0
 24 41  1  0
 24 42  1  0
 25 43  1  0
 26 44  1  0
 26 45  1  0
 27 46  1  0
 27 47  1  0
 28 48  1  0
 28 49  1  0
 29 50  1  0
 29 51  1  0
 30 52  1  0
 30 53  1  0
 31 54  1  0
 32 55  1  0
M  END
>  <smiles>  (4) 
NS(=O)(=O)c1ccc(/C=C/c2nc3cc(F)c(F)cc3c(=O)n2CC2CCCCC2)cc1

>  <score_type>  (4) 
oracle

>  <origin>  (4) 
autodockgpu

>  <m_score__min__energy>  (4) 
-8.9800000000000004

>  <m_primary>  (4) 
energy

>  <rmsd>  (4) 
11.124016746975471

>  <m_score__min__rmsd>  (4) 
11.124016746975471

>  <meeko>  (4) 
{"free_energy": -8.07, "intermolecular_energy": -10.15, "internal_energy": -1.3, "cluster_size": 3, "cluster_id": 7, "rank_in_cluster": 2}

>  <energy>  (4) 
-8.87

>  <cluster_rmsd>  (4) 
1.07

>  <cluster>  (4) 
1

$$$$

     RDKit          3D

 55 58  0  0  0  0  0  0  0  0999 V2000
  145.9620   73.4860  218.4710 N   0  0  0  0  0  0  0  0  0  0  0  0
  145.6760   72.6190  219.9120 S   0  0  0  0  0  0  0  0  0  0  0  0
  146.3910   73.3050  221.0470 O   0  0  0  0  0  0  0  0  0  0  0  0
  146.2440   71.2350  219.7200 O   0  0  0  0  0  0  0  0  0  0  0  0
  143.9870   72.4830  220.2860 C   0  0  0  0  0  0  0  0  0  0  0  0
  143.1750   73.5790  220.4190 C   0  0  0  0  0  0  0  0  0  0  0  0
  141.8370   73.4480  220.7160 C   0  0  0  0  0  0  0  0  0  0  0  0
  141.2310   72.2030  220.8980 C   0  0  0  0  0  0  0  0  0  0  0  0
  139.8190   72.1050  221.2100 C   0  0  0  0  0  0  0  0  0  0  0  0
  139.3010   72.3060  222.4080 C   0  0  0  0  0  0  0  0  0  0  0  0
  139.5540   71.3590  223.5100 C   0  0  0  0  0  0  0  0  0  0  0  0
  140.1480   71.9060  224.5980 N   0  0  0  0  0  0  0  0  0  0  0  0
  140.4070   71.1980  225.7120 C   0  0  0  0  0  0  0  0  0  0  0  0
  141.0100   71.7360  226.8250 C   0  0  0  0  0  0  0  0  0  0  0  0
  141.2620   70.9810  227.9560 C   0  0  0  0  0  0  0  0  0  0  0  0
  141.8580   71.5120  229.0580 F   0  0  0  0  0  0  0  0  0  0  0  0
  140.8810   69.6570  227.9230 C   0  0  0  0  0  0  0  0  0  0  0  0
  141.0930   68.8460  228.9940 F   0  0  0  0  0  0  0  0  0  0  0  0
  140.2770   69.1010  226.8190 C   0  0  0  0  0  0  0  0  0  0  0  0
  140.0330   69.8750  225.6910 C   0  0  0  0  0  0  0  0  0  0  0  0
  139.4260   69.3330  224.5710 C   0  0  0  0  0  0  0  0  0  0  0  0
  139.1200   68.1160  224.6570 O   0  0  0  0  0  0  0  0  0  0  0  0
  139.1740   70.0690  223.4480 N   0  0  0  0  0  0  0  0  0  0  0  0
  138.5540   69.5110  222.2940 C   0  0  0  0  0  0  0  0  0  0  0  0
  137.2370   68.8140  222.4920 C   0  0  0  0  0  0  0  0  0  0  0  0
  136.8410   67.9650  221.3140 C   0  0  0  0  0  0  0  0  0  0  0  0
  135.6970   67.0640  221.7470 C   0  0  0  0  0  0  0  0  0  0  0  0
  134.5600   67.7700  222.3920 C   0  0  0  0  0  0  0  0  0  0  0  0
  135.0120   68.7220  223.4750 C   0  0  0  0  0  0  0  0  0  0  0  0
  136.0920   69.6610  222.8950 C   0  0  0  0  0  0  0  0  0  0  0  0
  142.0690   71.1150  220.7600 C   0  0  0  0  0  0  0  0  0  0  0  0
  143.4190   71.2440  220.4600 C   0  0  0  0  0  0  0  0  0  0  0  0
  146.8990   73.9360  218.4840 H   0  0  0  0  0  0  0  0  0  0  0  0
  145.1950   74.1410  218.2100 H   0  0  0  0  0  0  0  0  0  0  0  0
  143.6011   74.5843  220.2857 H   0  0  0  0  0  0  0  0  0  0  0  0
  141.2237   74.3560  220.8134 H   0  0  0  0  0  0  0  0  0  0  0  0
  139.1310   71.8451  220.3920 H   0  0  0  0  0  0  0  0  0  0  0  0
  138.6727   73.1911  222.5863 H   0  0  0  0  0  0  0  0  0  0  0  0
  141.3001   72.7970  226.8153 H   0  0  0  0  0  0  0  0  0  0  0  0
  139.9862   68.0402  226.8293 H   0  0  0  0  0  0  0  0  0  0  0  0
  138.3910   70.3294  221.5773 H   0  0  0  0  0  0  0  0  0  0  0  0
  139.2433   68.7242  221.9538 H   0  0  0  0  0  0  0  0  0  0  0  0
  137.4542   68.1755  223.3610 H   0  0  0  0  0  0  0  0  0  0  0  0
  136.5155   68.6082  220.4831 H   0  0  0  0  0  0  0  0  0  0  0  0
  137.6953   67.3609  220.9745 H   0  0  0  0  0  0  0  0  0  0  0  0
  135.3157   66.5426  220.8566 H   0  0  0  0  0  0  0  0  0  0  0  0
  136.1090   66.3817  222.5051 H   0  0  0  0  0  0  0  0  0  0  0  0
  134.0173   68.3407  221.6241 H   0  0  0  0  0  0  0  0  0  0  0  0
  133.9164   67.0108  222.8604 H   0  0  0  0  0  0  0  0  0  0  0  0
  134.1553   69.3163  223.8257 H   0  0  0  0  0  0  0  0  0  0  0  0
  135.4262   68.1547  224.3215 H   0  0  0  0  0  0  0  0  0  0  0  0
  135.6946   70.1983  222.0213 H   0  0  0  0  0  0  0  0  0  0  0  0
  136.4019   70.4078  223.6408 H   0  0  0  0  0  0  0  0  0  0  0  0
  141.6513   70.1061  220.8928 H   0  0  0  0  0  0  0  0  0  0  0  0
  144.0415   70.3426  220.3604 H   0  0  0  0  0  0  0  0  0  0  0  0
  1  2  1  0
  2  3  2  0
  2  4  2  0
  2  5  1  0
  5  6  2  0
  6  7  1  0
  7  8  2  0
  8  9  1  0
  9 10  2  0
 10 11  1  0
 11 12  2  0
 12 13  1  0
 13 14  2  0
 14 15  1  0
 15 16  1  0
 15 17  2  0
 17 18  1  0
 17 19  1  0
 19 20  2  0
 20 21  1  0
 21 22  2  0
 21 23  1  0
 23 24  1  0
 24 25  1  0
 25 26  1  0
 26 27  1  0
 27 28  1  0
 28 29  1  0
 29 30  1  0
  8 31  1  0
 31 32  2  0
 32  5  1  0
 23 11  1  0
 30 25  1  0
 20 13  1  0
  1 33  1  0
  1 34  1  0
  6 35  1  0
  7 36  1  0
  9 37  1  0
 10 38  1  0
 14 39  1  0
 19 40  1  0
 24 41  1  0
 24 42  1  0
 25 43  1  0
 26 44  1  0
 26 45  1  0
 27 46  1  0
 27 47  1  0
 28 48  1  0
 28 49  1  0
 29 50  1  0
 29 51  1  0
 30 52  1  0
 30 53  1  0
 31 54  1  0
 32 55  1  0
M  END
>  <smiles>  (5) 
NS(=O)(=O)c1ccc(/C=C/c2nc3cc(F)c(F)cc3c(=O)n2CC2CCCCC2)cc1

>  <score_type>  (5) 
oracle

>  <origin>  (5) 
autodockgpu

>  <m_score__min__energy>  (5) 
-8.9800000000000004

>  <m_primary>  (5) 
energy

>  <rmsd>  (5) 
11.170281444165926

>  <m_score__min__rmsd>  (5) 
11.170281444165926

>  <meeko>  (5) 
{"free_energy": -8.42, "intermolecular_energy": -10.5, "internal_energy": -1.35, "cluster_size": 10, "cluster_id": 2, "rank_in_cluster": 5}

>  <energy>  (5) 
-8.83

>  <cluster_rmsd>  (5) 
0.35

>  <cluster>  (5) 
1

$$$$

     RDKit          3D

 55 58  0  0  0  0  0  0  0  0999 V2000
  139.1900   67.1140  226.2400 N   0  0  0  0  0  0  0  0  0  0  0  0
  140.1170   68.4900  226.6360 S   0  0  0  0  0  0  0  0  0  0  0  0
  141.5440   68.0690  226.8710 O   0  0  0  0  0  0  0  0  0  0  0  0
  139.5420   69.0630  227.9080 O   0  0  0  0  0  0  0  0  0  0  0  0
  140.0650   69.7090  225.4010 C   0  0  0  0  0  0  0  0  0  0  0  0
  139.3900   69.5280  224.2220 C   0  0  0  0  0  0  0  0  0  0  0  0
  139.3620   70.5090  223.2550 C   0  0  0  0  0  0  0  0  0  0  0  0
  140.0120   71.7340  223.4160 C   0  0  0  0  0  0  0  0  0  0  0  0
  139.9610   72.7420  222.3760 C   0  0  0  0  0  0  0  0  0  0  0  0
  141.0010   73.1400  221.6670 C   0  0  0  0  0  0  0  0  0  0  0  0
  141.1490   74.5530  221.2700 C   0  0  0  0  0  0  0  0  0  0  0  0
  140.6040   75.4410  222.1360 N   0  0  0  0  0  0  0  0  0  0  0  0
  140.6890   76.7710  221.9550 C   0  0  0  0  0  0  0  0  0  0  0  0
  140.1410   77.6880  222.8230 C   0  0  0  0  0  0  0  0  0  0  0  0
  140.2480   79.0490  222.6090 C   0  0  0  0  0  0  0  0  0  0  0  0
  139.7070   79.9570  223.4660 F   0  0  0  0  0  0  0  0  0  0  0  0
  140.9290   79.4570  221.4820 C   0  0  0  0  0  0  0  0  0  0  0  0
  141.0780   80.7770  221.1980 F   0  0  0  0  0  0  0  0  0  0  0  0
  141.4830   78.5550  220.6030 C   0  0  0  0  0  0  0  0  0  0  0  0
  141.3660   77.1890  220.8340 C   0  0  0  0  0  0  0  0  0  0  0  0
  141.9170   76.2670  219.9600 C   0  0  0  0  0  0  0  0  0  0  0  0
  142.5180   76.7540  218.9680 O   0  0  0  0  0  0  0  0  0  0  0  0
  141.8170   74.9200  220.1610 N   0  0  0  0  0  0  0  0  0  0  0  0
  142.3800   73.9710  219.2600 C   0  0  0  0  0  0  0  0  0  0  0  0
  143.6400   73.2770  219.6950 C   0  0  0  0  0  0  0  0  0  0  0  0
  144.5680   74.1760  220.4650 C   0  0  0  0  0  0  0  0  0  0  0  0
  145.6220   73.3070  221.1300 C   0  0  0  0  0  0  0  0  0  0  0  0
  146.3160   72.3630  220.2150 C   0  0  0  0  0  0  0  0  0  0  0  0
  145.3520   71.5800  219.3560 C   0  0  0  0  0  0  0  0  0  0  0  0
  144.4030   72.5670  218.6430 C   0  0  0  0  0  0  0  0  0  0  0  0
  140.6850   71.8910  224.6110 C   0  0  0  0  0  0  0  0  0  0  0  0
  140.7140   70.9040  225.5880 C   0  0  0  0  0  0  0  0  0  0  0  0
  139.3410   66.3490  226.9280 H   0  0  0  0  0  0  0  0  0  0  0  0
  139.2930   66.8030  225.2510 H   0  0  0  0  0  0  0  0  0  0  0  0
  138.8600   68.5806  224.0442 H   0  0  0  0  0  0  0  0  0  0  0  0
  138.8081   70.3204  222.3235 H   0  0  0  0  0  0  0  0  0  0  0  0
  138.9877   73.2080  222.1625 H   0  0  0  0  0  0  0  0  0  0  0  0
  141.7668   72.4089  221.3686 H   0  0  0  0  0  0  0  0  0  0  0  0
  139.6028   77.3273  223.7120 H   0  0  0  0  0  0  0  0  0  0  0  0
  142.0207   78.9161  219.7139 H   0  0  0  0  0  0  0  0  0  0  0  0
  141.6208   73.1960  219.0782 H   0  0  0  0  0  0  0  0  0  0  0  0
  142.6690   74.5563  218.3746 H   0  0  0  0  0  0  0  0  0  0  0  0
  143.2425   72.4921  220.3552 H   0  0  0  0  0  0  0  0  0  0  0  0
  145.0503   74.8888  219.7800 H   0  0  0  0  0  0  0  0  0  0  0  0
  144.0078   74.7432  221.2229 H   0  0  0  0  0  0  0  0  0  0  0  0
  146.3783   73.9682  221.5783 H   0  0  0  0  0  0  0  0  0  0  0  0
  145.0933   72.6895  221.8711 H   0  0  0  0  0  0  0  0  0  0  0  0
  146.9879   72.9363  219.5593 H   0  0  0  0  0  0  0  0  0  0  0  0
  146.8731   71.6445  220.8341 H   0  0  0  0  0  0  0  0  0  0  0  0
  145.9117   70.9998  218.6076 H   0  0  0  0  0  0  0  0  0  0  0  0
  144.7692   70.8899  219.9837 H   0  0  0  0  0  0  0  0  0  0  0  0
  144.9849   73.2868  218.0486 H   0  0  0  0  0  0  0  0  0  0  0  0
  143.7247   72.0334  217.9610 H   0  0  0  0  0  0  0  0  0  0  0  0
  141.2191   72.8345  224.7968 H   0  0  0  0  0  0  0  0  0  0  0  0
  141.2642   71.0823  226.5237 H   0  0  0  0  0  0  0  0  0  0  0  0
  1  2  1  0
  2  3  2  0
  2  4  2  0
  2  5  1  0
  5  6  2  0
  6  7  1  0
  7  8  2  0
  8  9  1  0
  9 10  2  0
 10 11  1  0
 11 12  2  0
 12 13  1  0
 13 14  2  0
 14 15  1  0
 15 16  1  0
 15 17  2  0
 17 18  1  0
 17 19  1  0
 19 20  2  0
 20 21  1  0
 21 22  2  0
 21 23  1  0
 23 24  1  0
 24 25  1  0
 25 26  1  0
 26 27  1  0
 27 28  1  0
 28 29  1  0
 29 30  1  0
  8 31  1  0
 31 32  2  0
 32  5  1  0
 23 11  1  0
 30 25  1  0
 20 13  1  0
  1 33  1  0
  1 34  1  0
  6 35  1  0
  7 36  1  0
  9 37  1  0
 10 38  1  0
 14 39  1  0
 19 40  1  0
 24 41  1  0
 24 42  1  0
 25 43  1  0
 26 44  1  0
 26 45  1  0
 27 46  1  0
 27 47  1  0
 28 48  1  0
 28 49  1  0
 29 50  1  0
 29 51  1  0
 30 52  1  0
 30 53  1  0
 31 54  1  0
 32 55  1  0
M  END
>  <smiles>  (6) 
NS(=O)(=O)c1ccc(/C=C/c2nc3cc(F)c(F)cc3c(=O)n2CC2CCCCC2)cc1

>  <score_type>  (6) 
oracle

>  <origin>  (6) 
autodockgpu

>  <m_score__min__energy>  (6) 
-8.9800000000000004

>  <m_primary>  (6) 
energy

>  <rmsd>  (6) 
5.476108527686996

>  <m_score__min__rmsd>  (6) 
5.476108527686996

>  <meeko>  (6) 
{"free_energy": -8.77, "intermolecular_energy": -10.86, "internal_energy": -1.27, "cluster_size": 17, "cluster_id": 1, "rank_in_cluster": 8}

>  <energy>  (6) 
-8.81

>  <cluster_rmsd>  (6) 
0.48

>  <cluster>  (6) 
1

$$$$

     RDKit          3D

 55 58  0  0  0  0  0  0  0  0999 V2000
  146.0060   73.3800  217.9960 N   0  0  0  0  0  0  0  0  0  0  0  0
  145.6430   73.0160  219.6230 S   0  0  0  0  0  0  0  0  0  0  0  0
  146.6650   73.6760  220.5120 O   0  0  0  0  0  0  0  0  0  0  0  0
  145.7340   71.5180  219.7750 O   0  0  0  0  0  0  0  0  0  0  0  0
  144.0510   73.5290  220.0830 C   0  0  0  0  0  0  0  0  0  0  0  0
  143.5540   74.7620  219.7490 C   0  0  0  0  0  0  0  0  0  0  0  0
  142.2860   75.1490  220.1240 C   0  0  0  0  0  0  0  0  0  0  0  0
  141.4400   74.3180  220.8610 C   0  0  0  0  0  0  0  0  0  0  0  0
  140.1120   74.7600  221.2390 C   0  0  0  0  0  0  0  0  0  0  0  0
  139.5680   75.9020  220.8610 C   0  0  0  0  0  0  0  0  0  0  0  0
  139.7290   77.1230  221.6730 C   0  0  0  0  0  0  0  0  0  0  0  0
  141.0150   77.5040  221.8650 N   0  0  0  0  0  0  0  0  0  0  0  0
  141.3430   78.6210  222.5400 C   0  0  0  0  0  0  0  0  0  0  0  0
  142.6430   79.0240  222.7460 C   0  0  0  0  0  0  0  0  0  0  0  0
  142.9460   80.1780  223.4430 C   0  0  0  0  0  0  0  0  0  0  0  0
  144.2310   80.5780  223.6470 F   0  0  0  0  0  0  0  0  0  0  0  0
  141.8880   80.9150  223.9290 C   0  0  0  0  0  0  0  0  0  0  0  0
  142.1010   82.0630  224.6260 F   0  0  0  0  0  0  0  0  0  0  0  0
  140.5820   80.5280  223.7330 C   0  0  0  0  0  0  0  0  0  0  0  0
  140.2950   79.3640  223.0300 C   0  0  0  0  0  0  0  0  0  0  0  0
  138.9880   78.9580  222.8230 C   0  0  0  0  0  0  0  0  0  0  0  0
  138.1050   79.7110  223.3100 O   0  0  0  0  0  0  0  0  0  0  0  0
  138.6760   77.8200  222.1370 N   0  0  0  0  0  0  0  0  0  0  0  0
  137.3310   77.4000  221.9280 C   0  0  0  0  0  0  0  0  0  0  0  0
  136.8570   76.2030  222.7040 C   0  0  0  0  0  0  0  0  0  0  0  0
  136.5680   75.0150  221.8280 C   0  0  0  0  0  0  0  0  0  0  0  0
  136.4290   73.7940  222.7220 C   0  0  0  0  0  0  0  0  0  0  0  0
  135.4780   73.9570  223.8530 C   0  0  0  0  0  0  0  0  0  0  0  0
  135.7120   75.2360  224.6220 C   0  0  0  0  0  0  0  0  0  0  0  0
  135.7220   76.4190  223.6300 C   0  0  0  0  0  0  0  0  0  0  0  0
  141.9640   73.0830  221.1850 C   0  0  0  0  0  0  0  0  0  0  0  0
  143.2410   72.6890  220.8070 C   0  0  0  0  0  0  0  0  0  0  0  0
  145.9370   74.4020  217.8160 H   0  0  0  0  0  0  0  0  0  0  0  0
  145.4800   72.8050  217.3050 H   0  0  0  0  0  0  0  0  0  0  0  0
  144.1802   75.4566  219.1698 H   0  0  0  0  0  0  0  0  0  0  0  0
  141.9277   76.1474  219.8326 H   0  0  0  0  0  0  0  0  0  0  0  0
  139.5166   74.0983  221.8853 H   0  0  0  0  0  0  0  0  0  0  0  0
  138.9868   75.9436  219.9280 H   0  0  0  0  0  0  0  0  0  0  0  0
  143.4632   78.4105  222.3448 H   0  0  0  0  0  0  0  0  0  0  0  0
  139.7623   81.1421  224.1342 H   0  0  0  0  0  0  0  0  0  0  0  0
  136.6762   78.2444  222.1893 H   0  0  0  0  0  0  0  0  0  0  0  0
  137.2916   77.0884  220.8738 H   0  0  0  0  0  0  0  0  0  0  0  0
  137.7274   75.9969  223.3442 H   0  0  0  0  0  0  0  0  0  0  0  0
  135.6327   75.1794  221.2729 H   0  0  0  0  0  0  0  0  0  0  0  0
  137.3828   74.8673  221.1040 H   0  0  0  0  0  0  0  0  0  0  0  0
  136.0836   72.9533  222.1024 H   0  0  0  0  0  0  0  0  0  0  0  0
  137.4188   73.6232  223.1706 H   0  0  0  0  0  0  0  0  0  0  0  0
  134.4529   73.9671  223.4540 H   0  0  0  0  0  0  0  0  0  0  0  0
  135.6326   73.1162  224.5452 H   0  0  0  0  0  0  0  0  0  0  0  0
  134.9067   75.3775  225.3578 H   0  0  0  0  0  0  0  0  0  0  0  0
  136.6755   75.1833  225.1501 H   0  0  0  0  0  0  0  0  0  0  0  0
  134.7769   76.4477  223.0679 H   0  0  0  0  0  0  0  0  0  0  0  0
  135.8289   77.3752  224.1631 H   0  0  0  0  0  0  0  0  0  0  0  0
  141.3456   72.3828  221.7658 H   0  0  0  0  0  0  0  0  0  0  0  0
  143.6082   71.6918  221.0911 H   0  0  0  0  0  0  0  0  0  0  0  0
  1  2  1  0
  2  3  2  0
  2  4  2  0
  2  5  1  0
  5  6  2  0
  6  7  1  0
  7  8  2  0
  8  9  1  0
  9 10  2  0
 10 11  1  0
 11 12  2  0
 12 13  1  0
 13 14  2  0
 14 15  1  0
 15 16  1  0
 15 17  2  0
 17 18  1  0
 17 19  1  0
 19 20  2  0
 20 21  1  0
 21 22  2  0
 21 23  1  0
 23 24  1  0
 24 25  1  0
 25 26  1  0
 26 27  1  0
 27 28  1  0
 28 29  1  0
 29 30  1  0
  8 31  1  0
 31 32  2  0
 32  5  1  0
 23 11  1  0
 30 25  1  0
 20 13  1  0
  1 33  1  0
  1 34  1  0
  6 35  1  0
  7 36  1  0
  9 37  1  0
 10 38  1  0
 14 39  1  0
 19 40  1  0
 24 41  1  0
 24 42  1  0
 25 43  1  0
 26 44  1  0
 26 45  1  0
 27 46  1  0
 27 47  1  0
 28 48  1  0
 28 49  1  0
 29 50  1  0
 29 51  1  0
 30 52  1  0
 30 53  1  0
 31 54  1  0
 32 55  1  0
M  END
>  <smiles>  (7) 
NS(=O)(=O)c1ccc(/C=C/c2nc3cc(F)c(F)cc3c(=O)n2CC2CCCCC2)cc1

>  <score_type>  (7) 
oracle

>  <origin>  (7) 
autodockgpu

>  <m_score__min__energy>  (7) 
-8.9800000000000004

>  <m_primary>  (7) 
energy

>  <rmsd>  (7) 
5.334519529891953

>  <m_score__min__rmsd>  (7) 
5.334519529891953

>  <meeko>  (7) 
{"free_energy": -8.09, "intermolecular_energy": -10.17, "internal_energy": -1.42, "cluster_size": 2, "cluster_id": 6, "rank_in_cluster": 2}

>  <energy>  (7) 
-8.8

>  <cluster_rmsd>  (7) 
0.93

>  <cluster>  (7) 
1

$$$$

     RDKit          3D

 55 58  0  0  0  0  0  0  0  0999 V2000
  146.4020   73.7510  217.8430 N   0  0  0  0  0  0  0  0  0  0  0  0
  145.7280   73.0650  219.2520 S   0  0  0  0  0  0  0  0  0  0  0  0
  146.6980   73.2330  220.3920 O   0  0  0  0  0  0  0  0  0  0  0  0
  145.5220   71.5960  218.9770 O   0  0  0  0  0  0  0  0  0  0  0  0
  144.2020   73.7730  219.6760 C   0  0  0  0  0  0  0  0  0  0  0  0
  143.7070   74.8820  219.0410 C   0  0  0  0  0  0  0  0  0  0  0  0
  142.4930   75.4290  219.3940 C   0  0  0  0  0  0  0  0  0  0  0  0
  141.7000   74.8910  220.4090 C   0  0  0  0  0  0  0  0  0  0  0  0
  140.4280   75.4940  220.7530 C   0  0  0  0  0  0  0  0  0  0  0  0
  140.2640   76.4200  221.6800 C   0  0  0  0  0  0  0  0  0  0  0  0
  138.9140   76.8400  222.0990 C   0  0  0  0  0  0  0  0  0  0  0  0
  138.1570   75.8500  222.6330 N   0  0  0  0  0  0  0  0  0  0  0  0
  136.9190   76.0670  223.1120 C   0  0  0  0  0  0  0  0  0  0  0  0
  136.1360   75.0750  223.6570 C   0  0  0  0  0  0  0  0  0  0  0  0
  134.8670   75.3320  224.1410 C   0  0  0  0  0  0  0  0  0  0  0  0
  134.0910   74.3520  224.6810 F   0  0  0  0  0  0  0  0  0  0  0  0
  134.4120   76.6300  224.0570 C   0  0  0  0  0  0  0  0  0  0  0  0
  133.1760   76.9650  224.5110 F   0  0  0  0  0  0  0  0  0  0  0  0
  135.1810   77.6350  223.5150 C   0  0  0  0  0  0  0  0  0  0  0  0
  136.4540   77.3590  223.0320 C   0  0  0  0  0  0  0  0  0  0  0  0
  137.2420   78.3570  222.4840 C   0  0  0  0  0  0  0  0  0  0  0  0
  136.7240   79.5030  222.4620 O   0  0  0  0  0  0  0  0  0  0  0  0
  138.4960   78.1160  222.0000 N   0  0  0  0  0  0  0  0  0  0  0  0
  139.3050   79.1410  221.4320 C   0  0  0  0  0  0  0  0  0  0  0  0
  140.5740   79.4940  222.1570 C   0  0  0  0  0  0  0  0  0  0  0  0
  140.4970   79.2270  223.6350 C   0  0  0  0  0  0  0  0  0  0  0  0
  141.9060   79.2950  224.2000 C   0  0  0  0  0  0  0  0  0  0  0  0
  142.6570   80.5280  223.8470 C   0  0  0  0  0  0  0  0  0  0  0  0
  142.5900   80.8410  222.3700 C   0  0  0  0  0  0  0  0  0  0  0  0
  141.1100   80.8560  221.9300 C   0  0  0  0  0  0  0  0  0  0  0  0
  142.2200   73.7750  221.0340 C   0  0  0  0  0  0  0  0  0  0  0  0
  143.4440   73.2220  220.6800 C   0  0  0  0  0  0  0  0  0  0  0  0
  147.3420   74.1520  218.0340 H   0  0  0  0  0  0  0  0  0  0  0  0
  145.7670   74.4120  217.3470 H   0  0  0  0  0  0  0  0  0  0  0  0
  144.2915   75.3451  218.2324 H   0  0  0  0  0  0  0  0  0  0  0  0
  142.1362   76.3205  218.8575 H   0  0  0  0  0  0  0  0  0  0  0  0
  139.5367   75.1568  220.2035 H   0  0  0  0  0  0  0  0  0  0  0  0
  141.1459   76.8841  222.1457 H   0  0  0  0  0  0  0  0  0  0  0  0
  136.5308   74.0496  223.7088 H   0  0  0  0  0  0  0  0  0  0  0  0
  134.7860   78.6604  223.4642 H   0  0  0  0  0  0  0  0  0  0  0  0
  139.5818   78.8201  220.4169 H   0  0  0  0  0  0  0  0  0  0  0  0
  138.6876   80.0501  221.4809 H   0  0  0  0  0  0  0  0  0  0  0  0
  141.2949   78.8085  221.6876 H   0  0  0  0  0  0  0  0  0  0  0  0
  139.8641   79.9857  224.1186 H   0  0  0  0  0  0  0  0  0  0  0  0
  140.0587   78.2354  223.8212 H   0  0  0  0  0  0  0  0  0  0  0  0
  141.8389   79.2366  225.2964 H   0  0  0  0  0  0  0  0  0  0  0  0
  142.4602   78.4552  223.7554 H   0  0  0  0  0  0  0  0  0  0  0  0
  142.2308   81.3735  224.4069 H   0  0  0  0  0  0  0  0  0  0  0  0
  143.7130   80.3633  224.1071 H   0  0  0  0  0  0  0  0  0  0  0  0
  143.0419   81.8257  222.1801 H   0  0  0  0  0  0  0  0  0  0  0  0
  143.1408   80.0774  221.8012 H   0  0  0  0  0  0  0  0  0  0  0  0
  140.5462   81.5877  222.5273 H   0  0  0  0  0  0  0  0  0  0  0  0
  141.0193   81.1409  220.8714 H   0  0  0  0  0  0  0  0  0  0  0  0
  141.6424   73.3055  221.8439 H   0  0  0  0  0  0  0  0  0  0  0  0
  143.8110   72.3311  221.2107 H   0  0  0  0  0  0  0  0  0  0  0  0
  1  2  1  0
  2  3  2  0
  2  4  2  0
  2  5  1  0
  5  6  2  0
  6  7  1  0
  7  8  2  0
  8  9  1  0
  9 10  2  0
 10 11  1  0
 11 12  2  0
 12 13  1  0
 13 14  2  0
 14 15  1  0
 15 16  1  0
 15 17  2  0
 17 18  1  0
 17 19  1  0
 19 20  2  0
 20 21  1  0
 21 22  2  0
 21 23  1  0
 23 24  1  0
 24 25  1  0
 25 26  1  0
 26 27  1  0
 27 28  1  0
 28 29  1  0
 29 30  1  0
  8 31  1  0
 31 32  2  0
 32  5  1  0
 23 11  1  0
 30 25  1  0
 20 13  1  0
  1 33  1  0
  1 34  1  0
  6 35  1  0
  7 36  1  0
  9 37  1  0
 10 38  1  0
 14 39  1  0
 19 40  1  0
 24 41  1  0
 24 42  1  0
 25 43  1  0
 26 44  1  0
 26 45  1  0
 27 46  1  0
 27 47  1  0
 28 48  1  0
 28 49  1  0
 29 50  1  0
 29 51  1  0
 30 52  1  0
 30 53  1  0
 31 54  1  0
 32 55  1  0
M  END
>  <smiles>  (8) 
NS(=O)(=O)c1ccc(/C=C/c2nc3cc(F)c(F)cc3c(=O)n2CC2CCCCC2)cc1

>  <score_type>  (8) 
oracle

>  <origin>  (8) 
autodockgpu

>  <m_score__min__energy>  (8) 
-8.9800000000000004

>  <m_primary>  (8) 
energy

>  <rmsd>  (8) 
7.051336958759799

>  <m_score__min__rmsd>  (8) 
7.051336958759799

>  <meeko>  (8) 
{"free_energy": -7.71, "intermolecular_energy": -9.8, "internal_energy": -1.24, "cluster_size": 3, "cluster_id": 9, "rank_in_cluster": 3}

>  <energy>  (8) 
-8.77

>  <cluster_rmsd>  (8) 
0.32

>  <cluster>  (8) 
1

$$$$

     RDKit          3D

 55 58  0  0  0  0  0  0  0  0999 V2000
  145.7230   73.6480  218.3240 N   0  0  0  0  0  0  0  0  0  0  0  0
  145.5530   72.8490  219.8220 S   0  0  0  0  0  0  0  0  0  0  0  0
  146.1510   73.7070  220.9070 O   0  0  0  0  0  0  0  0  0  0  0  0
  146.3180   71.5530  219.7250 O   0  0  0  0  0  0  0  0  0  0  0  0
  143.8980   72.4940  220.2060 C   0  0  0  0  0  0  0  0  0  0  0  0
  143.3270   71.2780  219.9340 C   0  0  0  0  0  0  0  0  0  0  0  0
  142.0120   71.0180  220.2470 C   0  0  0  0  0  0  0  0  0  0  0  0
  141.1880   71.9670  220.8540 C   0  0  0  0  0  0  0  0  0  0  0  0
  139.8070   71.6570  221.1690 C   0  0  0  0  0  0  0  0  0  0  0  0
  139.2420   71.8650  222.3440 C   0  0  0  0  0  0  0  0  0  0  0  0
  139.5200   70.9730  223.4850 C   0  0  0  0  0  0  0  0  0  0  0  0
  140.0960   71.5840  224.5490 N   0  0  0  0  0  0  0  0  0  0  0  0
  140.3740   70.9310  225.6920 C   0  0  0  0  0  0  0  0  0  0  0  0
  140.9590   71.5340  226.7820 C   0  0  0  0  0  0  0  0  0  0  0  0
  141.2310   70.8360  227.9440 C   0  0  0  0  0  0  0  0  0  0  0  0
  141.8090   71.4300  229.0220 F   0  0  0  0  0  0  0  0  0  0  0  0
  140.8900   69.5000  227.9680 C   0  0  0  0  0  0  0  0  0  0  0  0
  141.1240   68.7430  229.0720 F   0  0  0  0  0  0  0  0  0  0  0  0
  140.3040   68.8810  226.8880 C   0  0  0  0  0  0  0  0  0  0  0  0
  140.0390   69.5980  225.7280 C   0  0  0  0  0  0  0  0  0  0  0  0
  139.4500   68.9920  224.6310 C   0  0  0  0  0  0  0  0  0  0  0  0
  139.1810   67.7710  224.7690 O   0  0  0  0  0  0  0  0  0  0  0  0
  139.1790   69.6710  223.4780 N   0  0  0  0  0  0  0  0  0  0  0  0
  138.5770   69.0460  222.3480 C   0  0  0  0  0  0  0  0  0  0  0  0
  137.1890   68.5000  222.5250 C   0  0  0  0  0  0  0  0  0  0  0  0
  136.7110   67.7180  221.3310 C   0  0  0  0  0  0  0  0  0  0  0  0
  135.4680   66.9460  221.7410 C   0  0  0  0  0  0  0  0  0  0  0  0
  134.4120   67.7670  222.3880 C   0  0  0  0  0  0  0  0  0  0  0  0
  134.9580   68.6460  223.4890 C   0  0  0  0  0  0  0  0  0  0  0  0
  136.1420   69.4650  222.9320 C   0  0  0  0  0  0  0  0  0  0  0  0
  141.7850   73.1830  221.1180 C   0  0  0  0  0  0  0  0  0  0  0  0
  143.1120   73.4480  220.8040 C   0  0  0  0  0  0  0  0  0  0  0  0
  146.7250   73.7600  218.0710 H   0  0  0  0  0  0  0  0  0  0  0  0
  145.1800   74.5330  218.2520 H   0  0  0  0  0  0  0  0  0  0  0  0
  143.9321   70.4937  219.4557 H   0  0  0  0  0  0  0  0  0  0  0  0
  141.5960   70.0276  220.0104 H   0  0  0  0  0  0  0  0  0  0  0  0
  139.1869   71.2179  220.3736 H   0  0  0  0  0  0  0  0  0  0  0  0
  138.5552   72.7144  222.4735 H   0  0  0  0  0  0  0  0  0  0  0  0
  141.2176   72.6018  226.7271 H   0  0  0  0  0  0  0  0  0  0  0  0
  140.0442   67.8136  226.9433 H   0  0  0  0  0  0  0  0  0  0  0  0
  138.5393   69.7903  221.5390 H   0  0  0  0  0  0  0  0  0  0  0  0
  139.2042   68.1660  222.1426 H   0  0  0  0  0  0  0  0  0  0  0  0
  137.3250   67.8292  223.3861 H   0  0  0  0  0  0  0  0  0  0  0  0
  136.4684   68.4056  220.5074 H   0  0  0  0  0  0  0  0  0  0  0  0
  137.4948   67.0259  220.9893 H   0  0  0  0  0  0  0  0  0  0  0  0
  135.0387   66.4842  220.8396 H   0  0  0  0  0  0  0  0  0  0  0  0
  135.7929   66.2104  222.4916 H   0  0  0  0  0  0  0  0  0  0  0  0
  133.9447   68.4065  221.6247 H   0  0  0  0  0  0  0  0  0  0  0  0
  133.6824   67.0787  222.8397 H   0  0  0  0  0  0  0  0  0  0  0  0
  134.1705   69.3281  223.8421 H   0  0  0  0  0  0  0  0  0  0  0  0
  135.2975   68.0235  224.3300 H   0  0  0  0  0  0  0  0  0  0  0  0
  135.8160   70.0560  222.0634 H   0  0  0  0  0  0  0  0  0  0  0  0
  136.5268   70.1613  223.6917 H   0  0  0  0  0  0  0  0  0  0  0  0
  141.1868   73.9730  221.5956 H   0  0  0  0  0  0  0  0  0  0  0  0
  143.5386   74.4347  221.0374 H   0  0  0  0  0  0  0  0  0  0  0  0
  1  2  1  0
  2  3  2  0
  2  4  2  0
  2  5  1  0
  5  6  2  0
  6  7  1  0
  7  8  2  0
  8  9  1  0
  9 10  2  0
 10 11  1  0
 11 12  2  0
 12 13  1  0
 13 14  2  0
 14 15  1  0
 15 16  1  0
 15 17  2  0
 17 18  1  0
 17 19  1  0
 19 20  2  0
 20 21  1  0
 21 22  2  0
 21 23  1  0
 23 24  1  0
 24 25  1  0
 25 26  1  0
 26 27  1  0
 27 28  1  0
 28 29  1  0
 29 30  1  0
  8 31  1  0
 31 32  2  0
 32  5  1  0
 23 11  1  0
 30 25  1  0
 20 13  1  0
  1 33  1  0
  1 34  1  0
  6 35  1  0
  7 36  1  0
  9 37  1  0
 10 38  1  0
 14 39  1  0
 19 40  1  0
 24 41  1  0
 24 42  1  0
 25 43  1  0
 26 44  1  0
 26 45  1  0
 27 46  1  0
 27 47  1  0
 28 48  1  0
 28 49  1  0
 29 50  1  0
 29 51  1  0
 30 52  1  0
 30 53  1  0
 31 54  1  0
 32 55  1  0
M  END
>  <smiles>  (9) 
NS(=O)(=O)c1ccc(/C=C/c2nc3cc(F)c(F)cc3c(=O)n2CC2CCCCC2)cc1

>  <score_type>  (9) 
oracle

>  <origin>  (9) 
autodockgpu

>  <m_score__min__energy>  (9) 
-8.9800000000000004

>  <m_primary>  (9) 
energy

>  <rmsd>  (9) 
11.385116974043145

>  <m_score__min__rmsd>  (9) 
11.385116974043145

>  <meeko>  (9) 
{"free_energy": -8.38, "intermolecular_energy": -10.47, "internal_energy": -1.35, "cluster_size": 10, "cluster_id": 2, "rank_in_cluster": 6}

>  <energy>  (9) 
-8.75

>  <cluster_rmsd>  (9) 
1.08

>  <cluster>  (9) 
1

$$$$

     RDKit          3D

 55 58  0  0  0  0  0  0  0  0999 V2000
  141.2430   67.5470  226.6690 N   0  0  0  0  0  0  0  0  0  0  0  0
  139.7760   68.4040  226.5120 S   0  0  0  0  0  0  0  0  0  0  0  0
  139.4270   69.0240  227.8400 O   0  0  0  0  0  0  0  0  0  0  0  0
  138.7150   67.4040  226.1270 O   0  0  0  0  0  0  0  0  0  0  0  0
  139.8510   69.6380  225.2940 C   0  0  0  0  0  0  0  0  0  0  0  0
  140.5780   70.7870  225.4590 C   0  0  0  0  0  0  0  0  0  0  0  0
  140.6230   71.7540  224.4790 C   0  0  0  0  0  0  0  0  0  0  0  0
  139.9370   71.6220  223.2690 C   0  0  0  0  0  0  0  0  0  0  0  0
  140.0080   72.6610  222.2610 C   0  0  0  0  0  0  0  0  0  0  0  0
  141.1280   73.1030  221.7180 C   0  0  0  0  0  0  0  0  0  0  0  0
  141.2480   74.5020  221.2670 C   0  0  0  0  0  0  0  0  0  0  0  0
  140.7210   75.4150  222.1180 N   0  0  0  0  0  0  0  0  0  0  0  0
  140.7860   76.7390  221.8880 C   0  0  0  0  0  0  0  0  0  0  0  0
  140.2560   77.6810  222.7400 C   0  0  0  0  0  0  0  0  0  0  0  0
  140.3410   79.0350  222.4740 C   0  0  0  0  0  0  0  0  0  0  0  0
  139.8180   79.9670  223.3150 F   0  0  0  0  0  0  0  0  0  0  0  0
  140.9840   79.4080  221.3120 C   0  0  0  0  0  0  0  0  0  0  0  0
  141.1100   80.7190  220.9780 F   0  0  0  0  0  0  0  0  0  0  0  0
  141.5200   78.4800  220.4490 C   0  0  0  0  0  0  0  0  0  0  0  0
  141.4240   77.1230  220.7320 C   0  0  0  0  0  0  0  0  0  0  0  0
  141.9580   76.1750  219.8740 C   0  0  0  0  0  0  0  0  0  0  0  0
  142.5220   76.6330  218.8480 O   0  0  0  0  0  0  0  0  0  0  0  0
  141.8780   74.8360  220.1250 N   0  0  0  0  0  0  0  0  0  0  0  0
  142.4230   73.8600  219.2420 C   0  0  0  0  0  0  0  0  0  0  0  0
  143.8410   73.4280  219.4880 C   0  0  0  0  0  0  0  0  0  0  0  0
  144.0020   71.9320  219.4990 C   0  0  0  0  0  0  0  0  0  0  0  0
  145.4870   71.6180  219.4170 C   0  0  0  0  0  0  0  0  0  0  0  0
  146.3270   72.3250  220.4190 C   0  0  0  0  0  0  0  0  0  0  0  0
  146.0320   73.8050  220.4770 C   0  0  0  0  0  0  0  0  0  0  0  0
  144.5140   74.0040  220.6740 C   0  0  0  0  0  0  0  0  0  0  0  0
  139.2120   70.4560  223.1270 C   0  0  0  0  0  0  0  0  0  0  0  0
  139.1650   69.4800  224.1140 C   0  0  0  0  0  0  0  0  0  0  0  0
  141.6950   67.4040  225.7430 H   0  0  0  0  0  0  0  0  0  0  0  0
  141.1650   66.6710  227.2270 H   0  0  0  0  0  0  0  0  0  0  0  0
  141.1376   70.9408  226.3935 H   0  0  0  0  0  0  0  0  0  0  0  0
  141.2195   72.6613  224.6551 H   0  0  0  0  0  0  0  0  0  0  0  0
  139.0632   73.1130  221.9247 H   0  0  0  0  0  0  0  0  0  0  0  0
  141.9817   72.4193  221.6007 H   0  0  0  0  0  0  0  0  0  0  0  0
  139.7506   77.3472  223.6583 H   0  0  0  0  0  0  0  0  0  0  0  0
  142.0266   78.8137  219.5314 H   0  0  0  0  0  0  0  0  0  0  0  0
  141.7881   72.9641  219.3063 H   0  0  0  0  0  0  0  0  0  0  0  0
  142.4419   74.3480  218.2563 H   0  0  0  0  0  0  0  0  0  0  0  0
  144.3573   73.8572  218.6167 H   0  0  0  0  0  0  0  0  0  0  0  0
  143.5839   71.5185  220.4286 H   0  0  0  0  0  0  0  0  0  0  0  0
  143.4695   71.4844  218.6469 H   0  0  0  0  0  0  0  0  0  0  0  0
  145.6170   70.5356  219.5633 H   0  0  0  0  0  0  0  0  0  0  0  0
  145.8240   71.9644  218.4288 H   0  0  0  0  0  0  0  0  0  0  0  0
  146.1371   71.8879  221.4104 H   0  0  0  0  0  0  0  0  0  0  0  0
  147.3786   72.2044  220.1197 H   0  0  0  0  0  0  0  0  0  0  0  0
  146.5762   74.2574  221.3191 H   0  0  0  0  0  0  0  0  0  0  0  0
  146.3530   74.2863  219.5415 H   0  0  0  0  0  0  0  0  0  0  0  0
  144.1809   73.4859  221.5854 H   0  0  0  0  0  0  0  0  0  0  0  0
  144.2702   75.0712  220.7822 H   0  0  0  0  0  0  0  0  0  0  0  0
  138.6495   70.2935  222.1958 H   0  0  0  0  0  0  0  0  0  0  0  0
  138.5710   68.5690  223.9490 H   0  0  0  0  0  0  0  0  0  0  0  0
  1  2  1  0
  2  3  2  0
  2  4  2  0
  2  5  1  0
  5  6  2  0
  6  7  1  0
  7  8  2  0
  8  9  1  0
  9 10  2  0
 10 11  1  0
 11 12  2  0
 12 13  1  0
 13 14  2  0
 14 15  1  0
 15 16  1  0
 15 17  2  0
 17 18  1  0
 17 19  1  0
 19 20  2  0
 20 21  1  0
 21 22  2  0
 21 23  1  0
 23 24  1  0
 24 25  1  0
 25 26  1  0
 26 27  1  0
 27 28  1  0
 28 29  1  0
 29 30  1  0
  8 31  1  0
 31 32  2  0
 32  5  1  0
 23 11  1  0
 30 25  1  0
 20 13  1  0
  1 33  1  0
  1 34  1  0
  6 35  1  0
  7 36  1  0
  9 37  1  0
 10 38  1  0
 14 39  1  0
 19 40  1  0
 24 41  1  0
 24 42  1  0
 25 43  1  0
 26 44  1  0
 26 45  1  0
 27 46  1  0
 27 47  1  0
 28 48  1  0
 28 49  1  0
 29 50  1  0
 29 51  1  0
 30 52  1  0
 30 53  1  0
 31 54  1  0
 32 55  1  0
M  END
>  <smiles>  (10) 
NS(=O)(=O)c1ccc(/C=C/c2nc3cc(F)c(F)cc3c(=O)n2CC2CCCCC2)cc1

>  <score_type>  (10) 
oracle

>  <origin>  (10) 
autodockgpu

>  <m_score__min__energy>  (10) 
-8.9800000000000004

>  <m_primary>  (10) 
energy

>  <rmsd>  (10) 
5.718309090402828

>  <m_score__min__rmsd>  (10) 
5.718309090402828

>  <meeko>  (10) 
{"free_energy": -8.62, "intermolecular_energy": -10.71, "internal_energy": -1.3, "cluster_size": 17, "cluster_id": 1, "rank_in_cluster": 12}

>  <energy>  (10) 
-8.68

>  <cluster_rmsd>  (10) 
0.5

>  <cluster>  (10) 
1

$$$$

     RDKit          3D

 55 58  0  0  0  0  0  0  0  0999 V2000
  139.2060   67.1730  226.4000 N   0  0  0  0  0  0  0  0  0  0  0  0
  140.3720   68.3970  226.6290 S   0  0  0  0  0  0  0  0  0  0  0  0
  141.7460   67.7820  226.5720 O   0  0  0  0  0  0  0  0  0  0  0  0
  140.1390   68.9840  227.9990 O   0  0  0  0  0  0  0  0  0  0  0  0
  140.2520   69.6640  225.4500 C   0  0  0  0  0  0  0  0  0  0  0  0
  140.8080   70.9020  225.6450 C   0  0  0  0  0  0  0  0  0  0  0  0
  140.7000   71.8930  224.6950 C   0  0  0  0  0  0  0  0  0  0  0  0
  140.0240   71.7000  223.4880 C   0  0  0  0  0  0  0  0  0  0  0  0
  139.9310   72.7680  222.5120 C   0  0  0  0  0  0  0  0  0  0  0  0
  140.8860   73.0870  221.6580 C   0  0  0  0  0  0  0  0  0  0  0  0
  141.0880   74.4860  221.2380 C   0  0  0  0  0  0  0  0  0  0  0  0
  140.5690   75.4080  222.0840 N   0  0  0  0  0  0  0  0  0  0  0  0
  140.7040   76.7310  221.8800 C   0  0  0  0  0  0  0  0  0  0  0  0
  140.1830   77.6820  222.7280 C   0  0  0  0  0  0  0  0  0  0  0  0
  140.3400   79.0350  222.4900 C   0  0  0  0  0  0  0  0  0  0  0  0
  139.8250   79.9770  223.3270 F   0  0  0  0  0  0  0  0  0  0  0  0
  141.0450   79.3970  221.3630 C   0  0  0  0  0  0  0  0  0  0  0  0
  141.2440   80.7070  221.0580 F   0  0  0  0  0  0  0  0  0  0  0  0
  141.5730   78.4600  220.5050 C   0  0  0  0  0  0  0  0  0  0  0  0
  141.4050   77.1050  220.7580 C   0  0  0  0  0  0  0  0  0  0  0  0
  141.9290   76.1470  219.9050 C   0  0  0  0  0  0  0  0  0  0  0  0
  142.5560   76.5960  218.9110 O   0  0  0  0  0  0  0  0  0  0  0  0
  141.7780   74.8090  220.1280 N   0  0  0  0  0  0  0  0  0  0  0  0
  142.3140   73.8240  219.2490 C   0  0  0  0  0  0  0  0  0  0  0  0
  143.6070   73.1750  219.6530 C   0  0  0  0  0  0  0  0  0  0  0  0
  144.5270   74.1100  220.3910 C   0  0  0  0  0  0  0  0  0  0  0  0
  145.6260   73.2810  221.0330 C   0  0  0  0  0  0  0  0  0  0  0  0
  146.3250   72.3520  220.1060 C   0  0  0  0  0  0  0  0  0  0  0  0
  145.3630   71.5310  219.2790 C   0  0  0  0  0  0  0  0  0  0  0  0
  144.3640   72.4810  218.5860 C   0  0  0  0  0  0  0  0  0  0  0  0
  139.4730   70.4470  223.3160 C   0  0  0  0  0  0  0  0  0  0  0  0
  139.5800   69.4450  224.2720 C   0  0  0  0  0  0  0  0  0  0  0  0
  138.2700   67.5800  226.2020 H   0  0  0  0  0  0  0  0  0  0  0  0
  139.1900   66.4560  227.1540 H   0  0  0  0  0  0  0  0  0  0  0  0
  141.3513   71.1078  226.5791 H   0  0  0  0  0  0  0  0  0  0  0  0
  141.1624   72.8711  224.8937 H   0  0  0  0  0  0  0  0  0  0  0  0
  139.0001   73.3532  222.4808 H   0  0  0  0  0  0  0  0  0  0  0  0
  141.5393   72.2992  221.2547 H   0  0  0  0  0  0  0  0  0  0  0  0
  139.6265   77.3567  223.6194 H   0  0  0  0  0  0  0  0  0  0  0  0
  142.1307   78.7857  219.6146 H   0  0  0  0  0  0  0  0  0  0  0  0
  141.5620   73.0278  219.1460 H   0  0  0  0  0  0  0  0  0  0  0  0
  142.5470   74.3678  218.3216 H   0  0  0  0  0  0  0  0  0  0  0  0
  143.2526   72.3830  220.3291 H   0  0  0  0  0  0  0  0  0  0  0  0
  144.9672   74.8322  219.6877 H   0  0  0  0  0  0  0  0  0  0  0  0
  143.9697   74.6651  221.1599 H   0  0  0  0  0  0  0  0  0  0  0  0
  146.3725   73.9698  221.4553 H   0  0  0  0  0  0  0  0  0  0  0  0
  145.1380   72.6530  221.7930 H   0  0  0  0  0  0  0  0  0  0  0  0
  146.9600   72.9411  219.4279 H   0  0  0  0  0  0  0  0  0  0  0  0
  146.9216   71.6567  220.7148 H   0  0  0  0  0  0  0  0  0  0  0  0
  145.9204   70.9631  218.5195 H   0  0  0  0  0  0  0  0  0  0  0  0
  144.8202   70.8274  219.9274 H   0  0  0  0  0  0  0  0  0  0  0  0
  144.9061   73.2142  217.9707 H   0  0  0  0  0  0  0  0  0  0  0  0
  143.6848   71.9201  217.9271 H   0  0  0  0  0  0  0  0  0  0  0  0
  138.9275   70.2330  222.3851 H   0  0  0  0  0  0  0  0  0  0  0  0
  139.1207   68.4634  224.0834 H   0  0  0  0  0  0  0  0  0  0  0  0
  1  2  1  0
  2  3  2  0
  2  4  2  0
  2  5  1  0
  5  6  2  0
  6  7  1  0
  7  8  2  0
  8  9  1  0
  9 10  2  0
 10 11  1  0
 11 12  2  0
 12 13  1  0
 13 14  2  0
 14 15  1  0
 15 16  1  0
 15 17  2  0
 17 18  1  0
 17 19  1  0
 19 20  2  0
 20 21  1  0
 21 22  2  0
 21 23  1  0
 23 24  1  0
 24 25  1  0
 25 26  1  0
 26 27  1  0
 27 28  1  0
 28 29  1  0
 29 30  1  0
  8 31  1  0
 31 32  2  0
 32  5  1  0
 23 11  1  0
 30 25  1  0
 20 13  1  0
  1 33  1  0
  1 34  1  0
  6 35  1  0
  7 36  1  0
  9 37  1  0
 10 38  1  0
 14 39  1  0
 19 40  1  0
 24 41  1  0
 24 42  1  0
 25 43  1  0
 26 44  1  0
 26 45  1  0
 27 46  1  0
 27 47  1  0
 28 48  1  0
 28 49  1  0
 29 50  1  0
 29 51  1  0
 30 52  1  0
 30 53  1  0
 31 54  1  0
 32 55  1  0
M  END
>  <smiles>  (11) 
NS(=O)(=O)c1ccc(/C=C/c2nc3cc(F)c(F)cc3c(=O)n2CC2CCCCC2)cc1

>  <score_type>  (11) 
oracle

>  <origin>  (11) 
autodockgpu

>  <m_score__min__energy>  (11) 
-8.9800000000000004

>  <m_primary>  (11) 
energy

>  <rmsd>  (11) 
5.487683623012141

>  <m_score__min__rmsd>  (11) 
5.487683623012141

>  <meeko>  (11) 
{"free_energy": -8.83, "intermolecular_energy": -10.92, "internal_energy": -1.27, "cluster_size": 17, "cluster_id": 1, "rank_in_cluster": 5}

>  <energy>  (11) 
-8.63

>  <cluster_rmsd>  (11) 
1.02

>  <cluster>  (11) 
1

$$$$

     RDKit          3D

 55 58  0  0  0  0  0  0  0  0999 V2000
  139.1910   67.2370  226.4450 N   0  0  0  0  0  0  0  0  0  0  0  0
  139.8540   68.7610  226.8310 S   0  0  0  0  0  0  0  0  0  0  0  0
  141.2040   68.5610  227.4700 O   0  0  0  0  0  0  0  0  0  0  0  0
  138.9200   69.4170  227.8170 O   0  0  0  0  0  0  0  0  0  0  0  0
  140.0130   69.7910  225.4430 C   0  0  0  0  0  0  0  0  0  0  0  0
  139.5640   69.4220  224.2010 C   0  0  0  0  0  0  0  0  0  0  0  0
  139.7010   70.2550  223.1130 C   0  0  0  0  0  0  0  0  0  0  0  0
  140.2990   71.5130  223.2070 C   0  0  0  0  0  0  0  0  0  0  0  0
  140.4260   72.3630  222.0390 C   0  0  0  0  0  0  0  0  0  0  0  0
  139.7000   73.4430  221.8170 C   0  0  0  0  0  0  0  0  0  0  0  0
  140.3420   74.7320  221.4960 C   0  0  0  0  0  0  0  0  0  0  0  0
  139.9800   75.7570  222.3060 N   0  0  0  0  0  0  0  0  0  0  0  0
  140.5040   76.9900  222.1860 C   0  0  0  0  0  0  0  0  0  0  0  0
  140.1490   78.0430  222.9980 C   0  0  0  0  0  0  0  0  0  0  0  0
  140.7070   79.2990  222.8500 C   0  0  0  0  0  0  0  0  0  0  0  0
  140.3570   80.3410  223.6520 F   0  0  0  0  0  0  0  0  0  0  0  0
  141.6420   79.4560  221.8490 C   0  0  0  0  0  0  0  0  0  0  0  0
  142.2390   80.6590  221.6370 F   0  0  0  0  0  0  0  0  0  0  0  0
  142.0100   78.4150  221.0280 C   0  0  0  0  0  0  0  0  0  0  0  0
  141.4370   77.1600  221.1910 C   0  0  0  0  0  0  0  0  0  0  0  0
  141.7950   76.1000  220.3740 C   0  0  0  0  0  0  0  0  0  0  0  0
  142.6590   76.3610  219.4980 O   0  0  0  0  0  0  0  0  0  0  0  0
  141.2480   74.8560  220.5100 N   0  0  0  0  0  0  0  0  0  0  0  0
  141.6130   73.7670  219.6670 C   0  0  0  0  0  0  0  0  0  0  0  0
  143.0680   73.3960  219.6160 C   0  0  0  0  0  0  0  0  0  0  0  0
  143.8220   73.8160  220.8480 C   0  0  0  0  0  0  0  0  0  0  0  0
  145.1670   73.1090  220.8410 C   0  0  0  0  0  0  0  0  0  0  0  0
  145.9400   73.2580  219.5790 C   0  0  0  0  0  0  0  0  0  0  0  0
  145.1040   72.9650  218.3550 C   0  0  0  0  0  0  0  0  0  0  0  0
  143.8190   73.8180  218.4120 C   0  0  0  0  0  0  0  0  0  0  0  0
  140.7430   71.8610  224.4670 C   0  0  0  0  0  0  0  0  0  0  0  0
  140.6060   71.0240  225.5660 C   0  0  0  0  0  0  0  0  0  0  0  0
  139.2780   66.5780  227.2440 H   0  0  0  0  0  0  0  0  0  0  0  0
  139.5340   66.8400  225.5460 H   0  0  0  0  0  0  0  0  0  0  0  0
  139.0846   68.4405  224.0711 H   0  0  0  0  0  0  0  0  0  0  0  0
  139.3261   69.9173  222.1356 H   0  0  0  0  0  0  0  0  0  0  0  0
  141.1794   72.0889  221.2859 H   0  0  0  0  0  0  0  0  0  0  0  0
  138.6031   73.3811  221.8720 H   0  0  0  0  0  0  0  0  0  0  0  0
  139.4000   77.8805  223.7871 H   0  0  0  0  0  0  0  0  0  0  0  0
  142.7603   78.5770  220.2401 H   0  0  0  0  0  0  0  0  0  0  0  0
  141.0576   72.8819  220.0107 H   0  0  0  0  0  0  0  0  0  0  0  0
  141.3702   74.1033  218.6482 H   0  0  0  0  0  0  0  0  0  0  0  0
  143.0137   72.2987  219.5623 H   0  0  0  0  0  0  0  0  0  0  0  0
  143.9732   74.9055  220.8395 H   0  0  0  0  0  0  0  0  0  0  0  0
  143.2551   73.5485  221.7519 H   0  0  0  0  0  0  0  0  0  0  0  0
  145.7726   73.5162  221.6641 H   0  0  0  0  0  0  0  0  0  0  0  0
  144.9546   72.0353  220.9507 H   0  0  0  0  0  0  0  0  0  0  0  0
  146.3135   74.2905  219.5131 H   0  0  0  0  0  0  0  0  0  0  0  0
  146.7661   72.5320  219.6033 H   0  0  0  0  0  0  0  0  0  0  0  0
  145.6747   73.2169  217.4490 H   0  0  0  0  0  0  0  0  0  0  0  0
  144.8418   71.8970  218.3294 H   0  0  0  0  0  0  0  0  0  0  0  0
  144.0774   74.8848  218.4834 H   0  0  0  0  0  0  0  0  0  0  0  0
  143.2144   73.6754  217.5042 H   0  0  0  0  0  0  0  0  0  0  0  0
  141.2244   72.8403  224.6056 H   0  0  0  0  0  0  0  0  0  0  0  0
  140.9771   71.3524  226.5481 H   0  0  0  0  0  0  0  0  0  0  0  0
  1  2  1  0
  2  3  2  0
  2  4  2  0
  2  5  1  0
  5  6  2  0
  6  7  1  0
  7  8  2  0
  8  9  1  0
  9 10  2  0
 10 11  1  0
 11 12  2  0
 12 13  1  0
 13 14  2  0
 14 15  1  0
 15 16  1  0
 15 17  2  0
 17 18  1  0
 17 19  1  0
 19 20  2  0
 20 21  1  0
 21 22  2  0
 21 23  1  0
 23 24  1  0
 24 25  1  0
 25 26  1  0
 26 27  1  0
 27 28  1  0
 28 29  1  0
 29 30  1  0
  8 31  1  0
 31 32  2  0
 32  5  1  0
 23 11  1  0
 30 25  1  0
 20 13  1  0
  1 33  1  0
  1 34  1  0
  6 35  1  0
  7 36  1  0
  9 37  1  0
 10 38  1  0
 14 39  1  0
 19 40  1  0
 24 41  1  0
 24 42  1  0
 25 43  1  0
 26 44  1  0
 26 45  1  0
 27 46  1  0
 27 47  1  0
 28 48  1  0
 28 49  1  0
 29 50  1  0
 29 51  1  0
 30 52  1  0
 30 53  1  0
 31 54  1  0
 32 55  1  0
M  END
>  <smiles>  (12) 
NS(=O)(=O)c1ccc(/C=C/c2nc3cc(F)c(F)cc3c(=O)n2CC2CCCCC2)cc1

>  <score_type>  (12) 
oracle

>  <origin>  (12) 
autodockgpu

>  <m_score__min__energy>  (12) 
-8.9800000000000004

>  <m_primary>  (12) 
energy

>  <rmsd>  (12) 
5.25022015247452

>  <m_score__min__rmsd>  (12) 
5.25022015247452

>  <meeko>  (12) 
{"free_energy": -8.5, "intermolecular_energy": -10.58, "internal_energy": -1.21, "cluster_size": 17, "cluster_id": 1, "rank_in_cluster": 15}

>  <energy>  (12) 
-8.62

>  <cluster_rmsd>  (12) 
0.92

>  <cluster>  (12) 
1

$$$$

     RDKit          3D

 55 58  0  0  0  0  0  0  0  0999 V2000
  135.8150   81.4870  230.8250 N   0  0  0  0  0  0  0  0  0  0  0  0
  134.5510   81.8590  229.7400 S   0  0  0  0  0  0  0  0  0  0  0  0
  134.1510   83.2990  229.9290 O   0  0  0  0  0  0  0  0  0  0  0  0
  133.3890   80.9620  230.0860 O   0  0  0  0  0  0  0  0  0  0  0  0
  134.9920   81.5890  228.0840 C   0  0  0  0  0  0  0  0  0  0  0  0
  134.1600   80.9550  227.1980 C   0  0  0  0  0  0  0  0  0  0  0  0
  134.5310   80.7510  225.8880 C   0  0  0  0  0  0  0  0  0  0  0  0
  135.7630   81.1740  225.3860 C   0  0  0  0  0  0  0  0  0  0  0  0
  136.1190   80.9420  224.0000 C   0  0  0  0  0  0  0  0  0  0  0  0
  135.5110   80.0800  223.2060 C   0  0  0  0  0  0  0  0  0  0  0  0
  135.6350   78.6280  223.4290 C   0  0  0  0  0  0  0  0  0  0  0  0
  134.7630   78.1210  224.3340 N   0  0  0  0  0  0  0  0  0  0  0  0
  134.7060   76.8080  224.6240 C   0  0  0  0  0  0  0  0  0  0  0  0
  133.8280   76.2760  225.5400 C   0  0  0  0  0  0  0  0  0  0  0  0
  133.7930   74.9210  225.8150 C   0  0  0  0  0  0  0  0  0  0  0  0
  132.9260   74.3930  226.7210 F   0  0  0  0  0  0  0  0  0  0  0  0
  134.6790   74.1180  225.1280 C   0  0  0  0  0  0  0  0  0  0  0  0
  134.7080   72.7760  225.3400 F   0  0  0  0  0  0  0  0  0  0  0  0
  135.5630   74.6330  224.2090 C   0  0  0  0  0  0  0  0  0  0  0  0
  135.5850   75.9970  223.9460 C   0  0  0  0  0  0  0  0  0  0  0  0
  136.4680   76.5340  223.0240 C   0  0  0  0  0  0  0  0  0  0  0  0
  137.2260   75.7050  222.4570 O   0  0  0  0  0  0  0  0  0  0  0  0
  136.5130   77.8690  222.7460 N   0  0  0  0  0  0  0  0  0  0  0  0
  137.4240   78.4220  221.8010 C   0  0  0  0  0  0  0  0  0  0  0  0
  138.8160   78.7190  222.2830 C   0  0  0  0  0  0  0  0  0  0  0  0
  139.6750   77.4880  222.3880 C   0  0  0  0  0  0  0  0  0  0  0  0
  141.1180   77.9330  222.5500 C   0  0  0  0  0  0  0  0  0  0  0  0
  141.3450   78.9230  223.6360 C   0  0  0  0  0  0  0  0  0  0  0  0
  140.3680   80.0740  223.5800 C   0  0  0  0  0  0  0  0  0  0  0  0
  138.9320   79.5080  223.5300 C   0  0  0  0  0  0  0  0  0  0  0  0
  136.5830   81.8100  226.2970 C   0  0  0  0  0  0  0  0  0  0  0  0
  136.2120   82.0170  227.6190 C   0  0  0  0  0  0  0  0  0  0  0  0
  136.6770   82.0190  230.5920 H   0  0  0  0  0  0  0  0  0  0  0  0
  135.9820   80.4670  230.9480 H   0  0  0  0  0  0  0  0  0  0  0  0
  133.1761   80.6021  227.5406 H   0  0  0  0  0  0  0  0  0  0  0  0
  133.8317   80.2363  225.2127 H   0  0  0  0  0  0  0  0  0  0  0  0
  136.9530   81.5242  223.5810 H   0  0  0  0  0  0  0  0  0  0  0  0
  134.9038   80.4502  222.3668 H   0  0  0  0  0  0  0  0  0  0  0  0
  133.1346   76.9470  226.0683 H   0  0  0  0  0  0  0  0  0  0  0  0
  136.2557   73.9620  223.6798 H   0  0  0  0  0  0  0  0  0  0  0  0
  137.5074   77.7107  220.9661 H   0  0  0  0  0  0  0  0  0  0  0  0
  136.9996   79.4020  221.5374 H   0  0  0  0  0  0  0  0  0  0  0  0
  139.1913   79.3728  221.4819 H   0  0  0  0  0  0  0  0  0  0  0  0
  139.3682   76.8924  223.2604 H   0  0  0  0  0  0  0  0  0  0  0  0
  139.5659   76.8686  221.4855 H   0  0  0  0  0  0  0  0  0  0  0  0
  141.7288   77.0436  222.7641 H   0  0  0  0  0  0  0  0  0  0  0  0
  141.3960   78.4333  221.6106 H   0  0  0  0  0  0  0  0  0  0  0  0
  141.2368   78.4147  224.6055 H   0  0  0  0  0  0  0  0  0  0  0  0
  142.3566   79.3354  223.5076 H   0  0  0  0  0  0  0  0  0  0  0  0
  140.4863   80.7028  224.4748 H   0  0  0  0  0  0  0  0  0  0  0  0
  140.5602   80.6833  222.6846 H   0  0  0  0  0  0  0  0  0  0  0  0
  138.7505   78.8630  224.4024 H   0  0  0  0  0  0  0  0  0  0  0  0
  138.1910   80.3207  223.5483 H   0  0  0  0  0  0  0  0  0  0  0  0
  137.5684   82.1665  225.9624 H   0  0  0  0  0  0  0  0  0  0  0  0
  136.9039   82.5303  228.3029 H   0  0  0  0  0  0  0  0  0  0  0  0
  1  2  1  0
  2  3  2  0
  2  4  2  0
  2  5  1  0
  5  6  2  0
  6  7  1  0
  7  8  2  0
  8  9  1  0
  9 10  2  0
 10 11  1  0
 11 12  2  0
 12 13  1  0
 13 14  2  0
 14 15  1  0
 15 16  1  0
 15 17  2  0
 17 18  1  0
 17 19  1  0
 19 20  2  0
 20 21  1  0
 21 22  2  0
 21 23  1  0
 23 24  1  0
 24 25  1  0
 25 26  1  0
 26 27  1  0
 27 28  1  0
 28 29  1  0
 29 30  1  0
  8 31  1  0
 31 32  2  0
 32  5  1  0
 23 11  1  0
 30 25  1  0
 20 13  1  0
  1 33  1  0
  1 34  1  0
  6 35  1  0
  7 36  1  0
  9 37  1  0
 10 38  1  0
 14 39  1  0
 19 40  1  0
 24 41  1  0
 24 42  1  0
 25 43  1  0
 26 44  1  0
 26 45  1  0
 27 46  1  0
 27 47  1  0
 28 48  1  0
 28 49  1  0
 29 50  1  0
 29 51  1  0
 30 52  1  0
 30 53  1  0
 31 54  1  0
 32 55  1  0
M  END
>  <smiles>  (13) 
NS(=O)(=O)c1ccc(/C=C/c2nc3cc(F)c(F)cc3c(=O)n2CC2CCCCC2)cc1

>  <score_type>  (13) 
oracle

>  <origin>  (13) 
autodockgpu

>  <m_score__min__energy>  (13) 
-8.9800000000000004

>  <m_primary>  (13) 
energy

>  <rmsd>  (13) 
7.057646003475704

>  <m_score__min__rmsd>  (13) 
7.057646003475704

>  <meeko>  (13) 
{"free_energy": -7.68, "intermolecular_energy": -9.77, "internal_energy": -1.65, "cluster_size": 1, "cluster_id": 12, "rank_in_cluster": 1}

>  <energy>  (13) 
-8.6

>  <cluster_rmsd>  (13) 
1.04

>  <cluster>  (13) 
1

$$$$

     RDKit          3D

 55 58  0  0  0  0  0  0  0  0999 V2000
  141.0610   71.8610  228.7080 N   0  0  0  0  0  0  0  0  0  0  0  0
  140.3790   70.4810  227.9710 S   0  0  0  0  0  0  0  0  0  0  0  0
  139.0930   70.1340  228.6750 O   0  0  0  0  0  0  0  0  0  0  0  0
  141.3660   69.3540  228.1380 O   0  0  0  0  0  0  0  0  0  0  0  0
  140.0730   70.7110  226.2780 C   0  0  0  0  0  0  0  0  0  0  0  0
  140.7450   71.6440  225.5320 C   0  0  0  0  0  0  0  0  0  0  0  0
  140.4860   71.8100  224.1900 C   0  0  0  0  0  0  0  0  0  0  0  0
  139.5340   71.0440  223.5130 C   0  0  0  0  0  0  0  0  0  0  0  0
  139.2890   71.2470  222.0990 C   0  0  0  0  0  0  0  0  0  0  0  0
  139.6760   72.3090  221.4170 C   0  0  0  0  0  0  0  0  0  0  0  0
  139.2510   73.6630  221.8190 C   0  0  0  0  0  0  0  0  0  0  0  0
  140.2630   74.5550  221.9490 N   0  0  0  0  0  0  0  0  0  0  0  0
  140.0500   75.8460  222.2620 C   0  0  0  0  0  0  0  0  0  0  0  0
  141.0650   76.7660  222.3990 C   0  0  0  0  0  0  0  0  0  0  0  0
  140.8130   78.0860  222.7200 C   0  0  0  0  0  0  0  0  0  0  0  0
  141.8150   78.9970  222.8560 F   0  0  0  0  0  0  0  0  0  0  0  0
  139.4950   78.4490  222.8990 C   0  0  0  0  0  0  0  0  0  0  0  0
  139.1630   79.7280  223.2170 F   0  0  0  0  0  0  0  0  0  0  0  0
  138.4680   77.5430  222.7660 C   0  0  0  0  0  0  0  0  0  0  0  0
  138.7390   76.2190  222.4440 C   0  0  0  0  0  0  0  0  0  0  0  0
  137.7190   75.2930  222.3050 C   0  0  0  0  0  0  0  0  0  0  0  0
  136.5570   75.7390  222.4890 O   0  0  0  0  0  0  0  0  0  0  0  0
  137.9560   73.9870  221.9900 N   0  0  0  0  0  0  0  0  0  0  0  0
  136.9060   73.0330  221.8520 C   0  0  0  0  0  0  0  0  0  0  0  0
  136.1950   72.6100  223.1070 C   0  0  0  0  0  0  0  0  0  0  0  0
  135.8770   71.1390  223.1310 C   0  0  0  0  0  0  0  0  0  0  0  0
  135.4770   70.7670  224.5480 C   0  0  0  0  0  0  0  0  0  0  0  0
  134.4170   71.6250  225.1400 C   0  0  0  0  0  0  0  0  0  0  0  0
  134.7050   73.0980  224.9680 C   0  0  0  0  0  0  0  0  0  0  0  0
  134.9870   73.3810  223.4770 C   0  0  0  0  0  0  0  0  0  0  0  0
  138.8720   70.1120  224.2860 C   0  0  0  0  0  0  0  0  0  0  0  0
  139.1310   69.9420  225.6400 C   0  0  0  0  0  0  0  0  0  0  0  0
  140.3450   72.6020  228.8500 H   0  0  0  0  0  0  0  0  0  0  0  0
  141.9240   72.2080  228.2410 H   0  0  0  0  0  0  0  0  0  0  0  0
  141.5069   72.2731  226.0154 H   0  0  0  0  0  0  0  0  0  0  0  0
  141.0484   72.5726  223.6313 H   0  0  0  0  0  0  0  0  0  0  0  0
  138.7426   70.4615  221.5564 H   0  0  0  0  0  0  0  0  0  0  0  0
  140.3240   72.1824  220.5372 H   0  0  0  0  0  0  0  0  0  0  0  0
  142.1052   76.4412  222.2488 H   0  0  0  0  0  0  0  0  0  0  0  0
  137.4279   77.8684  222.9153 H   0  0  0  0  0  0  0  0  0  0  0  0
  136.1541   73.4637  221.1744 H   0  0  0  0  0  0  0  0  0  0  0  0
  137.3974   72.1209  221.4825 H   0  0  0  0  0  0  0  0  0  0  0  0
  136.9447   72.8466  223.8764 H   0  0  0  0  0  0  0  0  0  0  0  0
  135.0474   70.9254  222.4409 H   0  0  0  0  0  0  0  0  0  0  0  0
  136.7536   70.5539  222.8159 H   0  0  0  0  0  0  0  0  0  0  0  0
  135.1128   69.7291  224.5399 H   0  0  0  0  0  0  0  0  0  0  0  0
  136.3732   70.9065  225.1705 H   0  0  0  0  0  0  0  0  0  0  0  0
  133.4600   71.3927  224.6500 H   0  0  0  0  0  0  0  0  0  0  0  0
  134.3792   71.4146  226.2190 H   0  0  0  0  0  0  0  0  0  0  0  0
  133.8352   73.6853  225.2973 H   0  0  0  0  0  0  0  0  0  0  0  0
  135.5793   73.3802  225.5730 H   0  0  0  0  0  0  0  0  0  0  0  0
  134.1321   73.0595  222.8640 H   0  0  0  0  0  0  0  0  0  0  0  0
  135.1421   74.4565  223.3058 H   0  0  0  0  0  0  0  0  0  0  0  0
  138.1086   69.4784  223.8108 H   0  0  0  0  0  0  0  0  0  0  0  0
  138.5747   69.1820  226.2082 H   0  0  0  0  0  0  0  0  0  0  0  0
  1  2  1  0
  2  3  2  0
  2  4  2  0
  2  5  1  0
  5  6  2  0
  6  7  1  0
  7  8  2  0
  8  9  1  0
  9 10  2  0
 10 11  1  0
 11 12  2  0
 12 13  1  0
 13 14  2  0
 14 15  1  0
 15 16  1  0
 15 17  2  0
 17 18  1  0
 17 19  1  0
 19 20  2  0
 20 21  1  0
 21 22  2  0
 21 23  1  0
 23 24  1  0
 24 25  1  0
 25 26  1  0
 26 27  1  0
 27 28  1  0
 28 29  1  0
 29 30  1  0
  8 31  1  0
 31 32  2  0
 32  5  1  0
 23 11  1  0
 30 25  1  0
 20 13  1  0
  1 33  1  0
  1 34  1  0
  6 35  1  0
  7 36  1  0
  9 37  1  0
 10 38  1  0
 14 39  1  0
 19 40  1  0
 24 41  1  0
 24 42  1  0
 25 43  1  0
 26 44  1  0
 26 45  1  0
 27 46  1  0
 27 47  1  0
 28 48  1  0
 28 49  1  0
 29 50  1  0
 29 51  1  0
 30 52  1  0
 30 53  1  0
 31 54  1  0
 32 55  1  0
M  END
>  <smiles>  (14) 
NS(=O)(=O)c1ccc(/C=C/c2nc3cc(F)c(F)cc3c(=O)n2CC2CCCCC2)cc1

>  <score_type>  (14) 
oracle

>  <origin>  (14) 
autodockgpu

>  <m_score__min__energy>  (14) 
-8.9800000000000004

>  <m_primary>  (14) 
energy

>  <rmsd>  (14) 
7.5246527424129335

>  <m_score__min__rmsd>  (14) 
7.5246527424129335

>  <meeko>  (14) 
{"free_energy": -7.35, "intermolecular_energy": -9.44, "internal_energy": -1.87, "cluster_size": 1, "cluster_id": 13, "rank_in_cluster": 1}

>  <energy>  (14) 
-8.52

>  <cluster_rmsd>  (14) 
0.73

>  <cluster>  (14) 
1

$$$$

     RDKit          3D

 55 58  0  0  0  0  0  0  0  0999 V2000
  131.8790   72.7420  225.5990 N   0  0  0  0  0  0  0  0  0  0  0  0
  133.2780   73.3770  226.3400 S   0  0  0  0  0  0  0  0  0  0  0  0
  133.9550   72.2850  227.1280 O   0  0  0  0  0  0  0  0  0  0  0  0
  132.8280   74.4710  227.2760 O   0  0  0  0  0  0  0  0  0  0  0  0
  134.3950   74.0470  225.1940 C   0  0  0  0  0  0  0  0  0  0  0  0
  135.0130   73.2810  224.2400 C   0  0  0  0  0  0  0  0  0  0  0  0
  135.8970   73.8330  223.3400 C   0  0  0  0  0  0  0  0  0  0  0  0
  136.2140   75.1930  223.3440 C   0  0  0  0  0  0  0  0  0  0  0  0
  137.1500   75.7390  222.3810 C   0  0  0  0  0  0  0  0  0  0  0  0
  138.2420   76.4100  222.6950 C   0  0  0  0  0  0  0  0  0  0  0  0
  139.5280   76.1130  222.0360 C   0  0  0  0  0  0  0  0  0  0  0  0
  139.8740   74.8030  222.0420 N   0  0  0  0  0  0  0  0  0  0  0  0
  140.9900   74.3490  221.4440 C   0  0  0  0  0  0  0  0  0  0  0  0
  141.3580   73.0230  221.4400 C   0  0  0  0  0  0  0  0  0  0  0  0
  142.5120   72.5880  220.8140 C   0  0  0  0  0  0  0  0  0  0  0  0
  142.8770   71.2770  220.8100 F   0  0  0  0  0  0  0  0  0  0  0  0
  143.2850   73.5420  220.1890 C   0  0  0  0  0  0  0  0  0  0  0  0
  144.4350   73.1970  219.5520 F   0  0  0  0  0  0  0  0  0  0  0  0
  142.9330   74.8720  220.1830 C   0  0  0  0  0  0  0  0  0  0  0  0
  141.7710   75.2920  220.8180 C   0  0  0  0  0  0  0  0  0  0  0  0
  141.4000   76.6260  220.8220 C   0  0  0  0  0  0  0  0  0  0  0  0
  142.1820   77.4050  220.2180 O   0  0  0  0  0  0  0  0  0  0  0  0
  140.2650   77.0680  221.4380 N   0  0  0  0  0  0  0  0  0  0  0  0
  139.8850   78.4410  221.4460 C   0  0  0  0  0  0  0  0  0  0  0  0
  140.8140   79.4050  222.1290 C   0  0  0  0  0  0  0  0  0  0  0  0
  141.4110   78.8470  223.3920 C   0  0  0  0  0  0  0  0  0  0  0  0
  142.5620   79.7460  223.8070 C   0  0  0  0  0  0  0  0  0  0  0  0
  142.2240   81.1920  223.8850 C   0  0  0  0  0  0  0  0  0  0  0  0
  141.4970   81.6810  222.6540 C   0  0  0  0  0  0  0  0  0  0  0  0
  140.2850   80.7620  222.3930 C   0  0  0  0  0  0  0  0  0  0  0  0
  135.5800   75.9430  224.3140 C   0  0  0  0  0  0  0  0  0  0  0  0
  134.6880   75.3890  225.2230 C   0  0  0  0  0  0  0  0  0  0  0  0
  131.4890   73.4070  224.9020 H   0  0  0  0  0  0  0  0  0  0  0  0
  131.1660   72.3870  226.2710 H   0  0  0  0  0  0  0  0  0  0  0  0
  134.7984   72.2032  224.1924 H   0  0  0  0  0  0  0  0  0  0  0  0
  136.3700   73.1799  222.5918 H   0  0  0  0  0  0  0  0  0  0  0  0
  136.9348   75.5830  221.3136 H   0  0  0  0  0  0  0  0  0  0  0  0
  138.1928   77.2009  223.4579 H   0  0  0  0  0  0  0  0  0  0  0  0
  140.7164   72.2886  221.9489 H   0  0  0  0  0  0  0  0  0  0  0  0
  143.5744   75.6060  219.6732 H   0  0  0  0  0  0  0  0  0  0  0  0
  139.7846   78.7631  220.3990 H   0  0  0  0  0  0  0  0  0  0  0  0
  138.9563   78.4756  222.0346 H   0  0  0  0  0  0  0  0  0  0  0  0
  141.5966   79.5343  221.3669 H   0  0  0  0  0  0  0  0  0  0  0  0
  140.6501   78.8250  224.1860 H   0  0  0  0  0  0  0  0  0  0  0  0
  141.7705   77.8213  223.2228 H   0  0  0  0  0  0  0  0  0  0  0  0
  142.9099   79.4215  224.7988 H   0  0  0  0  0  0  0  0  0  0  0  0
  143.3300   79.6481  223.0256 H   0  0  0  0  0  0  0  0  0  0  0  0
  141.5827   81.3580  224.7632 H   0  0  0  0  0  0  0  0  0  0  0  0
  143.1670   81.7530  223.9625 H   0  0  0  0  0  0  0  0  0  0  0  0
  141.1507   82.7126  222.8148 H   0  0  0  0  0  0  0  0  0  0  0  0
  142.1744   81.6606  221.7876 H   0  0  0  0  0  0  0  0  0  0  0  0
  139.6277   80.7454  223.2749 H   0  0  0  0  0  0  0  0  0  0  0  0
  139.6965   81.1251  221.5376 H   0  0  0  0  0  0  0  0  0  0  0  0
  135.7894   77.0215  224.3692 H   0  0  0  0  0  0  0  0  0  0  0  0
  134.2100   76.0329  225.9759 H   0  0  0  0  0  0  0  0  0  0  0  0
  1  2  1  0
  2  3  2  0
  2  4  2  0
  2  5  1  0
  5  6  2  0
  6  7  1  0
  7  8  2  0
  8  9  1  0
  9 10  2  0
 10 11  1  0
 11 12  2  0
 12 13  1  0
 13 14  2  0
 14 15  1  0
 15 16  1  0
 15 17  2  0
 17 18  1  0
 17 19  1  0
 19 20  2  0
 20 21  1  0
 21 22  2  0
 21 23  1  0
 23 24  1  0
 24 25  1  0
 25 26  1  0
 26 27  1  0
 27 28  1  0
 28 29  1  0
 29 30  1  0
  8 31  1  0
 31 32  2  0
 32  5  1  0
 23 11  1  0
 30 25  1  0
 20 13  1  0
  1 33  1  0
  1 34  1  0
  6 35  1  0
  7 36  1  0
  9 37  1  0
 10 38  1  0
 14 39  1  0
 19 40  1  0
 24 41  1  0
 24 42  1  0
 25 43  1  0
 26 44  1  0
 26 45  1  0
 27 46  1  0
 27 47  1  0
 28 48  1  0
 28 49  1  0
 29 50  1  0
 29 51  1  0
 30 52  1  0
 30 53  1  0
 31 54  1  0
 32 55  1  0
M  END
>  <smiles>  (15) 
NS(=O)(=O)c1ccc(/C=C/c2nc3cc(F)c(F)cc3c(=O)n2CC2CCCCC2)cc1

>  <score_type>  (15) 
oracle

>  <origin>  (15) 
autodockgpu

>  <m_score__min__energy>  (15) 
-8.9800000000000004

>  <m_primary>  (15) 
energy

>  <rmsd>  (15) 
7.298371655412019

>  <m_score__min__rmsd>  (15) 
7.298371655412019

>  <meeko>  (15) 
{"free_energy": -7.97, "intermolecular_energy": -10.05, "internal_energy": -1.22, "cluster_size": 4, "cluster_id": 4, "rank_in_cluster": 4}

>  <energy>  (15) 
-8.5

>  <cluster_rmsd>  (15) 
0.71

>  <cluster>  (15) 
1

$$$$

     RDKit          3D

 55 58  0  0  0  0  0  0  0  0999 V2000
  146.0330   73.4550  218.4890 N   0  0  0  0  0  0  0  0  0  0  0  0
  145.4530   72.8150  219.9600 S   0  0  0  0  0  0  0  0  0  0  0  0
  146.4050   73.1870  221.0670 O   0  0  0  0  0  0  0  0  0  0  0  0
  145.4150   71.3150  219.8090 O   0  0  0  0  0  0  0  0  0  0  0  0
  143.8580   73.3780  220.3510 C   0  0  0  0  0  0  0  0  0  0  0  0
  142.8820   72.5410  220.8250 C   0  0  0  0  0  0  0  0  0  0  0  0
  141.6220   73.0090  221.1290 C   0  0  0  0  0  0  0  0  0  0  0  0
  141.2680   74.3500  220.9730 C   0  0  0  0  0  0  0  0  0  0  0  0
  139.9320   74.8060  221.3030 C   0  0  0  0  0  0  0  0  0  0  0  0
  139.4220   75.9640  220.9260 C   0  0  0  0  0  0  0  0  0  0  0  0
  139.6330   77.1820  221.7320 C   0  0  0  0  0  0  0  0  0  0  0  0
  140.9320   77.5380  221.8820 N   0  0  0  0  0  0  0  0  0  0  0  0
  141.3030   78.6480  222.5450 C   0  0  0  0  0  0  0  0  0  0  0  0
  142.6160   79.0260  222.7080 C   0  0  0  0  0  0  0  0  0  0  0  0
  142.9650   80.1740  223.3950 C   0  0  0  0  0  0  0  0  0  0  0  0
  144.2630   80.5490  223.5570 F   0  0  0  0  0  0  0  0  0  0  0  0
  141.9370   80.9320  223.9140 C   0  0  0  0  0  0  0  0  0  0  0  0
  142.1950   82.0750  224.6030 F   0  0  0  0  0  0  0  0  0  0  0  0
  140.6190   80.5700  223.7610 C   0  0  0  0  0  0  0  0  0  0  0  0
  140.2870   79.4120  223.0680 C   0  0  0  0  0  0  0  0  0  0  0  0
  138.9650   79.0320  222.9040 C   0  0  0  0  0  0  0  0  0  0  0  0
  138.1140   79.8020  223.4180 O   0  0  0  0  0  0  0  0  0  0  0  0
  138.6090   77.8990  222.2300 N   0  0  0  0  0  0  0  0  0  0  0  0
  137.2500   77.5060  222.0640 C   0  0  0  0  0  0  0  0  0  0  0  0
  136.7980   76.2760  222.8000 C   0  0  0  0  0  0  0  0  0  0  0  0
  136.4840   75.1260  221.8820 C   0  0  0  0  0  0  0  0  0  0  0  0
  136.3690   73.8680  222.7250 C   0  0  0  0  0  0  0  0  0  0  0  0
  135.4500   73.9810  223.8880 C   0  0  0  0  0  0  0  0  0  0  0  0
  135.7050   75.2260  224.7050 C   0  0  0  0  0  0  0  0  0  0  0  0
  135.6890   76.4510  223.7660 C   0  0  0  0  0  0  0  0  0  0  0  0
  142.2670   75.1720  220.4940 C   0  0  0  0  0  0  0  0  0  0  0  0
  143.5380   74.7030  220.1870 C   0  0  0  0  0  0  0  0  0  0  0  0
  146.9930   73.8390  218.6010 H   0  0  0  0  0  0  0  0  0  0  0  0
  145.3770   74.1180  218.0270 H   0  0  0  0  0  0  0  0  0  0  0  0
  143.1089   71.4739  220.9657 H   0  0  0  0  0  0  0  0  0  0  0  0
  140.8695   72.3015  221.5075 H   0  0  0  0  0  0  0  0  0  0  0  0
  139.2994   74.1412  221.9095 H   0  0  0  0  0  0  0  0  0  0  0  0
  138.8323   76.0216  219.9992 H   0  0  0  0  0  0  0  0  0  0  0  0
  143.4104   78.3971  222.2796 H   0  0  0  0  0  0  0  0  0  0  0  0
  139.8247   81.1994  224.1887 H   0  0  0  0  0  0  0  0  0  0  0  0
  136.6198   78.3430  222.3991 H   0  0  0  0  0  0  0  0  0  0  0  0
  137.1559   77.2504  220.9982 H   0  0  0  0  0  0  0  0  0  0  0  0
  137.6863   76.0431  223.4055 H   0  0  0  0  0  0  0  0  0  0  0  0
  135.5338   75.3137  221.3606 H   0  0  0  0  0  0  0  0  0  0  0  0
  137.2787   75.0101  221.1304 H   0  0  0  0  0  0  0  0  0  0  0  0
  136.0059   73.0549  222.0792 H   0  0  0  0  0  0  0  0  0  0  0  0
  137.3707   73.6784  223.1381 H   0  0  0  0  0  0  0  0  0  0  0  0
  134.4142   74.0070  223.5185 H   0  0  0  0  0  0  0  0  0  0  0  0
  135.6242   73.1114  224.5387 H   0  0  0  0  0  0  0  0  0  0  0  0
  134.9197   75.3347  225.4675 H   0  0  0  0  0  0  0  0  0  0  0  0
  136.6825   75.1511  225.2040 H   0  0  0  0  0  0  0  0  0  0  0  0
  134.7288   76.5042  223.2320 H   0  0  0  0  0  0  0  0  0  0  0  0
  135.8118   77.3829  224.3373 H   0  0  0  0  0  0  0  0  0  0  0  0
  142.0486   76.2404  220.3496 H   0  0  0  0  0  0  0  0  0  0  0  0
  144.2978   75.4022  219.8076 H   0  0  0  0  0  0  0  0  0  0  0  0
  1  2  1  0
  2  3  2  0
  2  4  2  0
  2  5  1  0
  5  6  2  0
  6  7  1  0
  7  8  2  0
  8  9  1  0
  9 10  2  0
 10 11  1  0
 11 12  2  0
 12 13  1  0
 13 14  2  0
 14 15  1  0
 15 16  1  0
 15 17  2  0
 17 18  1  0
 17 19  1  0
 19 20  2  0
 20 21  1  0
 21 22  2  0
 21 23  1  0
 23 24  1  0
 24 25  1  0
 25 26  1  0
 26 27  1  0
 27 28  1  0
 28 29  1  0
 29 30  1  0
  8 31  1  0
 31 32  2  0
 32  5  1  0
 23 11  1  0
 30 25  1  0
 20 13  1  0
  1 33  1  0
  1 34  1  0
  6 35  1  0
  7 36  1  0
  9 37  1  0
 10 38  1  0
 14 39  1  0
 19 40  1  0
 24 41  1  0
 24 42  1  0
 25 43  1  0
 26 44  1  0
 26 45  1  0
 27 46  1  0
 27 47  1  0
 28 48  1  0
 28 49  1  0
 29 50  1  0
 29 51  1  0
 30 52  1  0
 30 53  1  0
 31 54  1  0
 32 55  1  0
M  END
>  <smiles>  (16) 
NS(=O)(=O)c1ccc(/C=C/c2nc3cc(F)c(F)cc3c(=O)n2CC2CCCCC2)cc1

>  <score_type>  (16) 
oracle

>  <origin>  (16) 
autodockgpu

>  <m_score__min__energy>  (16) 
-8.9800000000000004

>  <m_primary>  (16) 
energy

>  <rmsd>  (16) 
5.3582703296157

>  <m_score__min__rmsd>  (16) 
5.3582703296157

>  <meeko>  (16) 
{"free_energy": -8.32, "intermolecular_energy": -10.4, "internal_energy": -1.39, "cluster_size": 2, "cluster_id": 6, "rank_in_cluster": 1}

>  <energy>  (16) 
-8.46

>  <cluster_rmsd>  (16) 
1.05

>  <cluster>  (16) 
1

$$$$

     RDKit          3D

 55 58  0  0  0  0  0  0  0  0999 V2000
  141.2720   67.7540  226.9680 N   0  0  0  0  0  0  0  0  0  0  0  0
  139.8040   68.5300  226.5740 S   0  0  0  0  0  0  0  0  0  0  0  0
  139.2730   69.2260  227.8000 O   0  0  0  0  0  0  0  0  0  0  0  0
  138.8360   67.4580  226.1410 O   0  0  0  0  0  0  0  0  0  0  0  0
  139.9810   69.6770  225.2830 C   0  0  0  0  0  0  0  0  0  0  0  0
  139.5510   69.4170  224.0080 C   0  0  0  0  0  0  0  0  0  0  0  0
  139.7010   70.3420  222.9990 C   0  0  0  0  0  0  0  0  0  0  0  0
  140.2950   71.5880  223.2110 C   0  0  0  0  0  0  0  0  0  0  0  0
  140.4360   72.5360  222.1240 C   0  0  0  0  0  0  0  0  0  0  0  0
  139.6990   73.6220  221.9770 C   0  0  0  0  0  0  0  0  0  0  0  0
  140.3180   74.9140  221.6270 C   0  0  0  0  0  0  0  0  0  0  0  0
  139.9630   75.9440  222.4330 N   0  0  0  0  0  0  0  0  0  0  0  0
  140.4700   77.1820  222.2880 C   0  0  0  0  0  0  0  0  0  0  0  0
  140.1220   78.2400  223.0960 C   0  0  0  0  0  0  0  0  0  0  0  0
  140.6620   79.5000  222.9220 C   0  0  0  0  0  0  0  0  0  0  0  0
  140.3190   80.5470  223.7200 F   0  0  0  0  0  0  0  0  0  0  0  0
  141.5720   79.6570  221.8980 C   0  0  0  0  0  0  0  0  0  0  0  0
  142.1490   80.8640  221.6590 F   0  0  0  0  0  0  0  0  0  0  0  0
  141.9320   78.6110  221.0800 C   0  0  0  0  0  0  0  0  0  0  0  0
  141.3780   77.3510  221.2690 C   0  0  0  0  0  0  0  0  0  0  0  0
  141.7290   76.2860  220.4560 C   0  0  0  0  0  0  0  0  0  0  0  0
  142.5690   76.5470  219.5570 O   0  0  0  0  0  0  0  0  0  0  0  0
  141.2000   75.0380  220.6180 N   0  0  0  0  0  0  0  0  0  0  0  0
  141.5570   73.9440  219.7790 C   0  0  0  0  0  0  0  0  0  0  0  0
  142.9920   73.4970  219.8070 C   0  0  0  0  0  0  0  0  0  0  0  0
  143.1390   72.0000  219.8460 C   0  0  0  0  0  0  0  0  0  0  0  0
  144.5870   71.6610  219.5350 C   0  0  0  0  0  0  0  0  0  0  0  0
  145.5860   72.3870  220.3620 C   0  0  0  0  0  0  0  0  0  0  0  0
  145.3190   73.8730  220.4150 C   0  0  0  0  0  0  0  0  0  0  0  0
  143.8550   74.1020  220.8470 C   0  0  0  0  0  0  0  0  0  0  0  0
  140.7200   71.8260  224.5030 C   0  0  0  0  0  0  0  0  0  0  0  0
  140.5690   70.8950  225.5230 C   0  0  0  0  0  0  0  0  0  0  0  0
  141.8070   67.5080  226.1110 H   0  0  0  0  0  0  0  0  0  0  0  0
  141.1660   66.9570  227.6290 H   0  0  0  0  0  0  0  0  0  0  0  0
  139.0764   68.4498  223.7861 H   0  0  0  0  0  0  0  0  0  0  0  0
  139.3403   70.0907  221.9907 H   0  0  0  0  0  0  0  0  0  0  0  0
  141.2108   72.3372  221.3688 H   0  0  0  0  0  0  0  0  0  0  0  0
  138.6096   73.5621  222.1174 H   0  0  0  0  0  0  0  0  0  0  0  0
  139.3930   78.0781  223.9037 H   0  0  0  0  0  0  0  0  0  0  0  0
  142.6616   78.7730  220.2729 H   0  0  0  0  0  0  0  0  0  0  0  0
  140.9368   73.0847  220.0738 H   0  0  0  0  0  0  0  0  0  0  0  0
  141.3930   74.3074  218.7538 H   0  0  0  0  0  0  0  0  0  0  0  0
  143.3624   73.8876  218.8477 H   0  0  0  0  0  0  0  0  0  0  0  0
  142.8745   71.6251  220.8457 H   0  0  0  0  0  0  0  0  0  0  0  0
  142.4705   71.5315  219.1086 H   0  0  0  0  0  0  0  0  0  0  0  0
  144.7284   70.5820  219.6955 H   0  0  0  0  0  0  0  0  0  0  0  0
  144.7619   71.9701  218.4939 H   0  0  0  0  0  0  0  0  0  0  0  0
  145.5555   71.9859  221.3858 H   0  0  0  0  0  0  0  0  0  0  0  0
  146.5737   72.2399  219.9007 H   0  0  0  0  0  0  0  0  0  0  0  0
  145.9967   74.3444  221.1420 H   0  0  0  0  0  0  0  0  0  0  0  0
  145.4894   74.3182  219.4236 H   0  0  0  0  0  0  0  0  0  0  0  0
  143.6689   73.6203  221.8183 H   0  0  0  0  0  0  0  0  0  0  0  0
  143.6429   75.1760  220.9542 H   0  0  0  0  0  0  0  0  0  0  0  0
  141.1966   72.7902  224.7336 H   0  0  0  0  0  0  0  0  0  0  0  0
  140.9248   71.1362  226.5355 H   0  0  0  0  0  0  0  0  0  0  0  0
  1  2  1  0
  2  3  2  0
  2  4  2  0
  2  5  1  0
  5  6  2  0
  6  7  1  0
  7  8  2  0
  8  9  1  0
  9 10  2  0
 10 11  1  0
 11 12  2  0
 12 13  1  0
 13 14  2  0
 14 15  1  0
 15 16  1  0
 15 17  2  0
 17 18  1  0
 17 19  1  0
 19 20  2  0
 20 21  1  0
 21 22  2  0
 21 23  1  0
 23 24  1  0
 24 25  1  0
 25 26  1  0
 26 27  1  0
 27 28  1  0
 28 29  1  0
 29 30  1  0
  8 31  1  0
 31 32  2  0
 32  5  1  0
 23 11  1  0
 30 25  1  0
 20 13  1  0
  1 33  1  0
  1 34  1  0
  6 35  1  0
  7 36  1  0
  9 37  1  0
 10 38  1  0
 14 39  1  0
 19 40  1  0
 24 41  1  0
 24 42  1  0
 25 43  1  0
 26 44  1  0
 26 45  1  0
 27 46  1  0
 27 47  1  0
 28 48  1  0
 28 49  1  0
 29 50  1  0
 29 51  1  0
 30 52  1  0
 30 53  1  0
 31 54  1  0
 32 55  1  0
M  END
>  <smiles>  (17) 
NS(=O)(=O)c1ccc(/C=C/c2nc3cc(F)c(F)cc3c(=O)n2CC2CCCCC2)cc1

>  <score_type>  (17) 
oracle

>  <origin>  (17) 
autodockgpu

>  <m_score__min__energy>  (17) 
-8.9800000000000004

>  <m_primary>  (17) 
energy

>  <rmsd>  (17) 
5.288066441370502

>  <m_score__min__rmsd>  (17) 
5.288066441370502

>  <meeko>  (17) 
{"free_energy": -8.75, "intermolecular_energy": -10.84, "internal_energy": -1.24, "cluster_size": 17, "cluster_id": 1, "rank_in_cluster": 9}

>  <energy>  (17) 
-8.34

>  <cluster_rmsd>  (17) 
0.52

>  <cluster>  (17) 
1

$$$$

     RDKit          3D

 55 58  0  0  0  0  0  0  0  0999 V2000
  141.2000   67.7790  227.0870 N   0  0  0  0  0  0  0  0  0  0  0  0
  139.7620   68.5680  226.6200 S   0  0  0  0  0  0  0  0  0  0  0  0
  139.1690   69.2590  227.8210 O   0  0  0  0  0  0  0  0  0  0  0  0
  138.8110   67.5070  226.1270 O   0  0  0  0  0  0  0  0  0  0  0  0
  140.0170   69.7240  225.3500 C   0  0  0  0  0  0  0  0  0  0  0  0
  139.6460   69.4810  224.0530 C   0  0  0  0  0  0  0  0  0  0  0  0
  139.8580   70.4120  223.0610 C   0  0  0  0  0  0  0  0  0  0  0  0
  140.4570   71.6480  223.3130 C   0  0  0  0  0  0  0  0  0  0  0  0
  140.6640   72.6030  222.2430 C   0  0  0  0  0  0  0  0  0  0  0  0
  139.8610   73.6180  221.9800 C   0  0  0  0  0  0  0  0  0  0  0  0
  140.4060   74.9430  221.6330 C   0  0  0  0  0  0  0  0  0  0  0  0
  139.9850   75.9520  222.4340 N   0  0  0  0  0  0  0  0  0  0  0  0
  140.4200   77.2170  222.2910 C   0  0  0  0  0  0  0  0  0  0  0  0
  140.0040   78.2540  223.0940 C   0  0  0  0  0  0  0  0  0  0  0  0
  140.4710   79.5430  222.9220 C   0  0  0  0  0  0  0  0  0  0  0  0
  140.0600   80.5700  223.7150 F   0  0  0  0  0  0  0  0  0  0  0  0
  141.3790   79.7520  221.9060 C   0  0  0  0  0  0  0  0  0  0  0  0
  141.8870   80.9900  221.6700 F   0  0  0  0  0  0  0  0  0  0  0  0
  141.8070   78.7270  221.0930 C   0  0  0  0  0  0  0  0  0  0  0  0
  141.3260   77.4370  221.2800 C   0  0  0  0  0  0  0  0  0  0  0  0
  141.7450   76.3930  220.4720 C   0  0  0  0  0  0  0  0  0  0  0  0
  142.5770   76.7020  219.5800 O   0  0  0  0  0  0  0  0  0  0  0  0
  141.2890   75.1170  220.6320 N   0  0  0  0  0  0  0  0  0  0  0  0
  141.7170   74.0440  219.7980 C   0  0  0  0  0  0  0  0  0  0  0  0
  143.0500   73.4250  220.1080 C   0  0  0  0  0  0  0  0  0  0  0  0
  144.1160   74.4450  220.4010 C   0  0  0  0  0  0  0  0  0  0  0  0
  145.3020   73.7240  221.0170 C   0  0  0  0  0  0  0  0  0  0  0  0
  145.7860   72.5500  220.2440 C   0  0  0  0  0  0  0  0  0  0  0  0
  144.6630   71.6210  219.8450 C   0  0  0  0  0  0  0  0  0  0  0  0
  143.5680   72.4400  219.1300 C   0  0  0  0  0  0  0  0  0  0  0  0
  140.8210   71.8690  224.6260 C   0  0  0  0  0  0  0  0  0  0  0  0
  140.6080   70.9320  225.6290 C   0  0  0  0  0  0  0  0  0  0  0  0
  141.7890   67.5520  226.2610 H   0  0  0  0  0  0  0  0  0  0  0  0
  141.0510   66.9660  227.7210 H   0  0  0  0  0  0  0  0  0  0  0  0
  139.1692   68.5227  223.7995 H   0  0  0  0  0  0  0  0  0  0  0  0
  139.5445   70.1738  222.0339 H   0  0  0  0  0  0  0  0  0  0  0  0
  141.5513   72.4736  221.6058 H   0  0  0  0  0  0  0  0  0  0  0  0
  138.7714   73.4728  222.0204 H   0  0  0  0  0  0  0  0  0  0  0  0
  139.2789   78.0510  223.8959 H   0  0  0  0  0  0  0  0  0  0  0  0
  142.5329   78.9301  220.2919 H   0  0  0  0  0  0  0  0  0  0  0  0
  140.9592   73.2495  219.8655 H   0  0  0  0  0  0  0  0  0  0  0  0
  141.8362   74.4902  218.7997 H   0  0  0  0  0  0  0  0  0  0  0  0
  142.8189   72.8496  221.0166 H   0  0  0  0  0  0  0  0  0  0  0  0
  144.4242   74.9407  219.4686 H   0  0  0  0  0  0  0  0  0  0  0  0
  143.7326   75.2088  221.0935 H   0  0  0  0  0  0  0  0  0  0  0  0
  146.1311   74.4416  221.1050 H   0  0  0  0  0  0  0  0  0  0  0  0
  144.9596   73.3366  221.9879 H   0  0  0  0  0  0  0  0  0  0  0  0
  146.2880   72.9090  219.3334 H   0  0  0  0  0  0  0  0  0  0  0  0
  146.4759   71.9852  220.8883 H   0  0  0  0  0  0  0  0  0  0  0  0
  145.0481   70.8466  219.1653 H   0  0  0  0  0  0  0  0  0  0  0  0
  144.2431   71.1377  220.7395 H   0  0  0  0  0  0  0  0  0  0  0  0
  143.9944   72.9609  218.2600 H   0  0  0  0  0  0  0  0  0  0  0  0
  142.7611   71.7842  218.7710 H   0  0  0  0  0  0  0  0  0  0  0  0
  141.2985   72.8246  224.8883 H   0  0  0  0  0  0  0  0  0  0  0  0
  140.9166   71.1603  226.6598 H   0  0  0  0  0  0  0  0  0  0  0  0
  1  2  1  0
  2  3  2  0
  2  4  2  0
  2  5  1  0
  5  6  2  0
  6  7  1  0
  7  8  2  0
  8  9  1  0
  9 10  2  0
 10 11  1  0
 11 12  2  0
 12 13  1  0
 13 14  2  0
 14 15  1  0
 15 16  1  0
 15 17  2  0
 17 18  1  0
 17 19  1  0
 19 20  2  0
 20 21  1  0
 21 22  2  0
 21 23  1  0
 23 24  1  0
 24 25  1  0
 25 26  1  0
 26 27  1  0
 27 28  1  0
 28 29  1  0
 29 30  1  0
  8 31  1  0
 31 32  2  0
 32  5  1  0
 23 11  1  0
 30 25  1  0
 20 13  1  0
  1 33  1  0
  1 34  1  0
  6 35  1  0
  7 36  1  0
  9 37  1  0
 10 38  1  0
 14 39  1  0
 19 40  1  0
 24 41  1  0
 24 42  1  0
 25 43  1  0
 26 44  1  0
 26 45  1  0
 27 46  1  0
 27 47  1  0
 28 48  1  0
 28 49  1  0
 29 50  1  0
 29 51  1  0
 30 52  1  0
 30 53  1  0
 31 54  1  0
 32 55  1  0
M  END
>  <smiles>  (18) 
NS(=O)(=O)c1ccc(/C=C/c2nc3cc(F)c(F)cc3c(=O)n2CC2CCCCC2)cc1

>  <score_type>  (18) 
oracle

>  <origin>  (18) 
autodockgpu

>  <m_score__min__energy>  (18) 
-8.9800000000000004

>  <m_primary>  (18) 
energy

>  <rmsd>  (18) 
5.0484885367598515

>  <m_score__min__rmsd>  (18) 
5.0484885367598515

>  <meeko>  (18) 
{"free_energy": -8.87, "intermolecular_energy": -10.96, "internal_energy": -1.17, "cluster_size": 17, "cluster_id": 1, "rank_in_cluster": 4}

>  <energy>  (18) 
-8.78

>  <cluster_rmsd>  (18) 
0.0

>  <cluster>  (18) 
2

$$$$

     RDKit          3D

 55 58  0  0  0  0  0  0  0  0999 V2000
  140.5710   67.3990  227.2280 N   0  0  0  0  0  0  0  0  0  0  0  0
  140.3450   69.0640  227.5230 S   0  0  0  0  0  0  0  0  0  0  0  0
  141.5720   69.6120  228.2040 O   0  0  0  0  0  0  0  0  0  0  0  0
  139.1560   69.1960  228.4420 O   0  0  0  0  0  0  0  0  0  0  0  0
  140.0320   69.9630  226.0730 C   0  0  0  0  0  0  0  0  0  0  0  0
  138.9000   69.7760  225.3240 C   0  0  0  0  0  0  0  0  0  0  0  0
  138.6720   70.5010  224.1750 C   0  0  0  0  0  0  0  0  0  0  0  0
  139.5720   71.4610  223.7080 C   0  0  0  0  0  0  0  0  0  0  0  0
  139.2980   72.2040  222.4940 C   0  0  0  0  0  0  0  0  0  0  0  0
  139.6200   73.4710  222.3040 C   0  0  0  0  0  0  0  0  0  0  0  0
  140.8130   73.8380  221.5190 C   0  0  0  0  0  0  0  0  0  0  0  0
  141.7430   72.8570  221.4170 N   0  0  0  0  0  0  0  0  0  0  0  0
  142.8710   73.0040  220.6980 C   0  0  0  0  0  0  0  0  0  0  0  0
  143.8260   72.0210  220.5840 C   0  0  0  0  0  0  0  0  0  0  0  0
  144.9740   72.2030  219.8350 C   0  0  0  0  0  0  0  0  0  0  0  0
  145.9200   71.2310  219.7210 F   0  0  0  0  0  0  0  0  0  0  0  0
  145.1260   73.4180  219.2030 C   0  0  0  0  0  0  0  0  0  0  0  0
  146.2260   73.6770  218.4480 F   0  0  0  0  0  0  0  0  0  0  0  0
  144.1810   74.4130  219.3050 C   0  0  0  0  0  0  0  0  0  0  0  0
  143.0330   74.2130  220.0630 C   0  0  0  0  0  0  0  0  0  0  0  0
  142.0710   75.2030  220.1780 C   0  0  0  0  0  0  0  0  0  0  0  0
  142.3160   76.2680  219.5550 O   0  0  0  0  0  0  0  0  0  0  0  0
  140.9350   75.0350  220.9150 N   0  0  0  0  0  0  0  0  0  0  0  0
  139.9470   76.0540  221.0380 C   0  0  0  0  0  0  0  0  0  0  0  0
  140.2070   77.1440  222.0400 C   0  0  0  0  0  0  0  0  0  0  0  0
  139.0500   78.0950  222.1820 C   0  0  0  0  0  0  0  0  0  0  0  0
  139.2780   78.9300  223.4300 C   0  0  0  0  0  0  0  0  0  0  0  0
  140.6110   79.5840  223.5060 C   0  0  0  0  0  0  0  0  0  0  0  0
  141.7410   78.6240  223.2150 C   0  0  0  0  0  0  0  0  0  0  0  0
  141.4600   77.9150  221.8730 C   0  0  0  0  0  0  0  0  0  0  0  0
  140.7040   71.6310  224.4790 C   0  0  0  0  0  0  0  0  0  0  0  0
  140.9370   70.9020  225.6380 C   0  0  0  0  0  0  0  0  0  0  0  0
  139.6610   66.8940  227.2120 H   0  0  0  0  0  0  0  0  0  0  0  0
  141.2780   66.9500  227.8470 H   0  0  0  0  0  0  0  0  0  0  0  0
  138.1576   69.0313  225.6470 H   0  0  0  0  0  0  0  0  0  0  0  0
  137.7489   70.3172  223.6057 H   0  0  0  0  0  0  0  0  0  0  0  0
  138.7870   71.6768  221.6749 H   0  0  0  0  0  0  0  0  0  0  0  0
  138.9902   74.2622  222.7369 H   0  0  0  0  0  0  0  0  0  0  0  0
  143.6724   71.0634  221.1030 H   0  0  0  0  0  0  0  0  0  0  0  0
  144.3345   75.3700  218.7849 H   0  0  0  0  0  0  0  0  0  0  0  0
  139.8374   76.5297  220.0522 H   0  0  0  0  0  0  0  0  0  0  0  0
  139.0496   75.5364  221.4077 H   0  0  0  0  0  0  0  0  0  0  0  0
  140.3366   76.5654  222.9665 H   0  0  0  0  0  0  0  0  0  0  0  0
  138.9948   78.7498  221.2999 H   0  0  0  0  0  0  0  0  0  0  0  0
  138.1053   77.5374  222.2631 H   0  0  0  0  0  0  0  0  0  0  0  0
  138.5088   79.7157  223.4616 H   0  0  0  0  0  0  0  0  0  0  0  0
  139.2238   78.2361  224.2818 H   0  0  0  0  0  0  0  0  0  0  0  0
  140.6452   80.4027  222.7721 H   0  0  0  0  0  0  0  0  0  0  0  0
  140.7436   79.9569  224.5323 H   0  0  0  0  0  0  0  0  0  0  0  0
  142.6888   79.1783  223.1487 H   0  0  0  0  0  0  0  0  0  0  0  0
  141.8156   77.8799  224.0217 H   0  0  0  0  0  0  0  0  0  0  0  0
  141.3410   78.6588  221.0713 H   0  0  0  0  0  0  0  0  0  0  0  0
  142.2936   77.2515  221.5995 H   0  0  0  0  0  0  0  0  0  0  0  0
  141.4515   72.3735  224.1630 H   0  0  0  0  0  0  0  0  0  0  0  0
  141.8569   71.0781  226.2149 H   0  0  0  0  0  0  0  0  0  0  0  0
  1  2  1  0
  2  3  2  0
  2  4  2  0
  2  5  1  0
  5  6  2  0
  6  7  1  0
  7  8  2  0
  8  9  1  0
  9 10  2  0
 10 11  1  0
 11 12  2  0
 12 13  1  0
 13 14  2  0
 14 15  1  0
 15 16  1  0
 15 17  2  0
 17 18  1  0
 17 19  1  0
 19 20  2  0
 20 21  1  0
 21 22  2  0
 21 23  1  0
 23 24  1  0
 24 25  1  0
 25 26  1  0
 26 27  1  0
 27 28  1  0
 28 29  1  0
 29 30  1  0
  8 31  1  0
 31 32  2  0
 32  5  1  0
 23 11  1  0
 30 25  1  0
 20 13  1  0
  1 33  1  0
  1 34  1  0
  6 35  1  0
  7 36  1  0
  9 37  1  0
 10 38  1  0
 14 39  1  0
 19 40  1  0
 24 41  1  0
 24 42  1  0
 25 43  1  0
 26 44  1  0
 26 45  1  0
 27 46  1  0
 27 47  1  0
 28 48  1  0
 28 49  1  0
 29 50  1  0
 29 51  1  0
 30 52  1  0
 30 53  1  0
 31 54  1  0
 32 55  1  0
M  END
>  <smiles>  (19) 
NS(=O)(=O)c1ccc(/C=C/c2nc3cc(F)c(F)cc3c(=O)n2CC2CCCCC2)cc1

>  <score_type>  (19) 
oracle

>  <origin>  (19) 
autodockgpu

>  <m_score__min__energy>  (19) 
-8.9800000000000004

>  <m_primary>  (19) 
energy

>  <rmsd>  (19) 
7.500085349302605

>  <m_score__min__rmsd>  (19) 
7.500085349302605

>  <meeko>  (19) 
{"free_energy": -8.57, "intermolecular_energy": -10.66, "internal_energy": -1.25, "cluster_size": 3, "cluster_id": 3, "rank_in_cluster": 2}

>  <energy>  (19) 
-8.72

>  <cluster_rmsd>  (19) 
0.29

>  <cluster>  (19) 
2

$$$$

     RDKit          3D

 55 58  0  0  0  0  0  0  0  0999 V2000
  139.2270   67.1940  226.2430 N   0  0  0  0  0  0  0  0  0  0  0  0
  140.2010   68.5710  226.5050 S   0  0  0  0  0  0  0  0  0  0  0  0
  141.6480   68.1520  226.5180 O   0  0  0  0  0  0  0  0  0  0  0  0
  139.8250   69.1320  227.8530 O   0  0  0  0  0  0  0  0  0  0  0  0
  139.9600   69.7980  225.3010 C   0  0  0  0  0  0  0  0  0  0  0  0
  138.9060   69.7680  224.4250 C   0  0  0  0  0  0  0  0  0  0  0  0
  138.7340   70.7520  223.4780 C   0  0  0  0  0  0  0  0  0  0  0  0
  139.6130   71.8300  223.3530 C   0  0  0  0  0  0  0  0  0  0  0  0
  139.4000   72.8470  222.3430 C   0  0  0  0  0  0  0  0  0  0  0  0
  140.2630   73.1490  221.3910 C   0  0  0  0  0  0  0  0  0  0  0  0
  140.7060   74.5410  221.1860 C   0  0  0  0  0  0  0  0  0  0  0  0
  140.1070   75.4480  221.9960 N   0  0  0  0  0  0  0  0  0  0  0  0
  140.4260   76.7540  221.9770 C   0  0  0  0  0  0  0  0  0  0  0  0
  139.8280   77.6890  222.7910 C   0  0  0  0  0  0  0  0  0  0  0  0
  140.1800   79.0250  222.7480 C   0  0  0  0  0  0  0  0  0  0  0  0
  139.5890   79.9510  223.5530 F   0  0  0  0  0  0  0  0  0  0  0  0
  141.1620   79.3880  221.8510 C   0  0  0  0  0  0  0  0  0  0  0  0
  141.5650   80.6810  221.7470 F   0  0  0  0  0  0  0  0  0  0  0  0
  141.7700   78.4670  221.0300 C   0  0  0  0  0  0  0  0  0  0  0  0
  141.4040   77.1280  221.0850 C   0  0  0  0  0  0  0  0  0  0  0  0
  142.0050   76.1870  220.2660 C   0  0  0  0  0  0  0  0  0  0  0  0
  142.8890   76.6340  219.4900 O   0  0  0  0  0  0  0  0  0  0  0  0
  141.6650   74.8660  220.2980 N   0  0  0  0  0  0  0  0  0  0  0  0
  142.2800   73.8990  219.4530 C   0  0  0  0  0  0  0  0  0  0  0  0
  143.5910   73.3230  219.9110 C   0  0  0  0  0  0  0  0  0  0  0  0
  144.5130   74.3580  220.4940 C   0  0  0  0  0  0  0  0  0  0  0  0
  145.6370   73.6340  221.2160 C   0  0  0  0  0  0  0  0  0  0  0  0
  146.3280   72.5960  220.4070 C   0  0  0  0  0  0  0  0  0  0  0  0
  145.3590   71.6610  219.7210 C   0  0  0  0  0  0  0  0  0  0  0  0
  144.3330   72.4990  218.9290 C   0  0  0  0  0  0  0  0  0  0  0  0
  140.6660   71.8370  224.2460 C   0  0  0  0  0  0  0  0  0  0  0  0
  140.8420   70.8460  225.2030 C   0  0  0  0  0  0  0  0  0  0  0  0
  139.4380   66.4490  226.9370 H   0  0  0  0  0  0  0  0  0  0  0  0
  139.2300   66.8530  225.2590 H   0  0  0  0  0  0  0  0  0  0  0  0
  138.1830   68.9408  224.4800 H   0  0  0  0  0  0  0  0  0  0  0  0
  137.8738   70.6870  222.7955 H   0  0  0  0  0  0  0  0  0  0  0  0
  138.4532   73.4063  222.3716 H   0  0  0  0  0  0  0  0  0  0  0  0
  140.6568   72.3526  220.7424 H   0  0  0  0  0  0  0  0  0  0  0  0
  139.0482   77.3640  223.4954 H   0  0  0  0  0  0  0  0  0  0  0  0
  142.5502   78.7924  220.3261 H   0  0  0  0  0  0  0  0  0  0  0  0
  141.5738   73.0637  219.3368 H   0  0  0  0  0  0  0  0  0  0  0  0
  142.5163   74.4413  218.5256 H   0  0  0  0  0  0  0  0  0  0  0  0
  143.2633   72.6257  220.6961 H   0  0  0  0  0  0  0  0  0  0  0  0
  144.9280   74.9833  219.6898 H   0  0  0  0  0  0  0  0  0  0  0  0
  143.9652   75.0063  221.1937 H   0  0  0  0  0  0  0  0  0  0  0  0
  146.3832   74.3810  221.5244 H   0  0  0  0  0  0  0  0  0  0  0  0
  145.1737   73.1091  222.0644 H   0  0  0  0  0  0  0  0  0  0  0  0
  146.9402   73.0946  219.6411 H   0  0  0  0  0  0  0  0  0  0  0  0
  146.9472   71.9956  221.0898 H   0  0  0  0  0  0  0  0  0  0  0  0
  145.9071   71.0010  219.0325 H   0  0  0  0  0  0  0  0  0  0  0  0
  144.8394   71.0463  220.4708 H   0  0  0  0  0  0  0  0  0  0  0  0
  144.8521   73.1477  218.2081 H   0  0  0  0  0  0  0  0  0  0  0  0
  143.6470   71.8481  218.3670 H   0  0  0  0  0  0  0  0  0  0  0  0
  141.3943   72.6600  224.1976 H   0  0  0  0  0  0  0  0  0  0  0  0
  141.6985   70.9013  225.8910 H   0  0  0  0  0  0  0  0  0  0  0  0
  1  2  1  0
  2  3  2  0
  2  4  2  0
  2  5  1  0
  5  6  2  0
  6  7  1  0
  7  8  2  0
  8  9  1  0
  9 10  2  0
 10 11  1  0
 11 12  2  0
 12 13  1  0
 13 14  2  0
 14 15  1  0
 15 16  1  0
 15 17  2  0
 17 18  1  0
 17 19  1  0
 19 20  2  0
 20 21  1  0
 21 22  2  0
 21 23  1  0
 23 24  1  0
 24 25  1  0
 25 26  1  0
 26 27  1  0
 27 28  1  0
 28 29  1  0
 29 30  1  0
  8 31  1  0
 31 32  2  0
 32  5  1  0
 23 11  1  0
 30 25  1  0
 20 13  1  0
  1 33  1  0
  1 34  1  0
  6 35  1  0
  7 36  1  0
  9 37  1  0
 10 38  1  0
 14 39  1  0
 19 40  1  0
 24 41  1  0
 24 42  1  0
 25 43  1  0
 26 44  1  0
 26 45  1  0
 27 46  1  0
 27 47  1  0
 28 48  1  0
 28 49  1  0
 29 50  1  0
 29 51  1  0
 30 52  1  0
 30 53  1  0
 31 54  1  0
 32 55  1  0
M  END
>  <smiles>  (20) 
NS(=O)(=O)c1ccc(/C=C/c2nc3cc(F)c(F)cc3c(=O)n2CC2CCCCC2)cc1

>  <score_type>  (20) 
oracle

>  <origin>  (20) 
autodockgpu

>  <m_score__min__energy>  (20) 
-8.9800000000000004

>  <m_primary>  (20) 
energy

>  <rmsd>  (20) 
5.42875398580663

>  <m_score__min__rmsd>  (20) 
5.42875398580663

>  <meeko>  (20) 
{"free_energy": -8.88, "intermolecular_energy": -10.97, "internal_energy": -1.22, "cluster_size": 17, "cluster_id": 1, "rank_in_cluster": 3}

>  <energy>  (20) 
-8.58

>  <cluster_rmsd>  (20) 
0.24

>  <cluster>  (20) 
2

$$$$

     RDKit          3D

 55 58  0  0  0  0  0  0  0  0999 V2000
  139.3790   67.3030  227.0640 N   0  0  0  0  0  0  0  0  0  0  0  0
  140.6260   68.4400  226.8110 S   0  0  0  0  0  0  0  0  0  0  0  0
  141.9020   67.7060  226.4900 O   0  0  0  0  0  0  0  0  0  0  0  0
  140.7960   69.2080  228.0980 O   0  0  0  0  0  0  0  0  0  0  0  0
  140.2610   69.5600  225.5360 C   0  0  0  0  0  0  0  0  0  0  0  0
  139.4840   69.2170  224.4600 C   0  0  0  0  0  0  0  0  0  0  0  0
  139.2070   70.1210  223.4590 C   0  0  0  0  0  0  0  0  0  0  0  0
  139.6950   71.4290  223.4790 C   0  0  0  0  0  0  0  0  0  0  0  0
  139.3830   72.3530  222.4070 C   0  0  0  0  0  0  0  0  0  0  0  0
  140.2010   72.6540  221.4160 C   0  0  0  0  0  0  0  0  0  0  0  0
  140.6400   74.0450  221.1940 C   0  0  0  0  0  0  0  0  0  0  0  0
  140.0490   74.9570  222.0030 N   0  0  0  0  0  0  0  0  0  0  0  0
  140.3660   76.2640  221.9700 C   0  0  0  0  0  0  0  0  0  0  0  0
  139.7760   77.2050  222.7830 C   0  0  0  0  0  0  0  0  0  0  0  0
  140.1260   78.5410  222.7250 C   0  0  0  0  0  0  0  0  0  0  0  0
  139.5430   79.4730  223.5280 F   0  0  0  0  0  0  0  0  0  0  0  0
  141.0970   78.8970  221.8140 C   0  0  0  0  0  0  0  0  0  0  0  0
  141.4970   80.1910  221.6940 F   0  0  0  0  0  0  0  0  0  0  0  0
  141.6980   77.9710  220.9940 C   0  0  0  0  0  0  0  0  0  0  0  0
  141.3330   76.6320  221.0640 C   0  0  0  0  0  0  0  0  0  0  0  0
  141.9270   75.6850  220.2470 C   0  0  0  0  0  0  0  0  0  0  0  0
  142.8020   76.1260  219.4570 O   0  0  0  0  0  0  0  0  0  0  0  0
  141.5890   74.3630  220.2940 N   0  0  0  0  0  0  0  0  0  0  0  0
  142.1960   73.3900  219.4500 C   0  0  0  0  0  0  0  0  0  0  0  0
  143.6680   73.1470  219.6310 C   0  0  0  0  0  0  0  0  0  0  0  0
  144.0390   71.6930  219.5240 C   0  0  0  0  0  0  0  0  0  0  0  0
  145.5490   71.6010  219.3860 C   0  0  0  0  0  0  0  0  0  0  0  0
  146.3140   72.3460  220.4210 C   0  0  0  0  0  0  0  0  0  0  0  0
  145.8150   73.7610  220.5990 C   0  0  0  0  0  0  0  0  0  0  0  0
  144.2920   73.7260  220.8430 C   0  0  0  0  0  0  0  0  0  0  0  0
  140.4760   71.7490  224.5720 C   0  0  0  0  0  0  0  0  0  0  0  0
  140.7560   70.8400  225.5830 C   0  0  0  0  0  0  0  0  0  0  0  0
  138.9760   67.3950  228.0180 H   0  0  0  0  0  0  0  0  0  0  0  0
  139.6410   66.3250  226.8210 H   0  0  0  0  0  0  0  0  0  0  0  0
  139.0733   68.1986  224.3949 H   0  0  0  0  0  0  0  0  0  0  0  0
  138.5793   69.8015  222.6140 H   0  0  0  0  0  0  0  0  0  0  0  0
  138.3954   72.8373  222.4202 H   0  0  0  0  0  0  0  0  0  0  0  0
  140.5600   71.8579  220.7472 H   0  0  0  0  0  0  0  0  0  0  0  0
  139.0045   76.8850  223.4988 H   0  0  0  0  0  0  0  0  0  0  0  0
  142.4708   78.2915  220.2798 H   0  0  0  0  0  0  0  0  0  0  0  0
  141.6792   72.4343  219.6216 H   0  0  0  0  0  0  0  0  0  0  0  0
  142.0985   73.7964  218.4325 H   0  0  0  0  0  0  0  0  0  0  0  0
  144.0894   73.7069  218.7831 H   0  0  0  0  0  0  0  0  0  0  0  0
  143.7138   71.1576  220.4282 H   0  0  0  0  0  0  0  0  0  0  0  0
  143.5478   71.2372  218.6517 H   0  0  0  0  0  0  0  0  0  0  0  0
  145.8346   70.5404  219.4460 H   0  0  0  0  0  0  0  0  0  0  0  0
  145.8015   72.0631  218.4203 H   0  0  0  0  0  0  0  0  0  0  0  0
  146.2203   71.8152  221.3799 H   0  0  0  0  0  0  0  0  0  0  0  0
  147.3618   72.3990  220.0903 H   0  0  0  0  0  0  0  0  0  0  0  0
  146.3168   74.2239  221.4616 H   0  0  0  0  0  0  0  0  0  0  0  0
  146.0347   74.3503  219.6965 H   0  0  0  0  0  0  0  0  0  0  0  0
  144.0649   73.1009  221.7192 H   0  0  0  0  0  0  0  0  0  0  0  0
  143.9041   74.7368  221.0372 H   0  0  0  0  0  0  0  0  0  0  0  0
  140.8927   72.7644  224.6443 H   0  0  0  0  0  0  0  0  0  0  0  0
  141.3825   71.1490  226.4327 H   0  0  0  0  0  0  0  0  0  0  0  0
  1  2  1  0
  2  3  2  0
  2  4  2  0
  2  5  1  0
  5  6  2  0
  6  7  1  0
  7  8  2  0
  8  9  1  0
  9 10  2  0
 10 11  1  0
 11 12  2  0
 12 13  1  0
 13 14  2  0
 14 15  1  0
 15 16  1  0
 15 17  2  0
 17 18  1  0
 17 19  1  0
 19 20  2  0
 20 21  1  0
 21 22  2  0
 21 23  1  0
 23 24  1  0
 24 25  1  0
 25 26  1  0
 26 27  1  0
 27 28  1  0
 28 29  1  0
 29 30  1  0
  8 31  1  0
 31 32  2  0
 32  5  1  0
 23 11  1  0
 30 25  1  0
 20 13  1  0
  1 33  1  0
  1 34  1  0
  6 35  1  0
  7 36  1  0
  9 37  1  0
 10 38  1  0
 14 39  1  0
 19 40  1  0
 24 41  1  0
 24 42  1  0
 25 43  1  0
 26 44  1  0
 26 45  1  0
 27 46  1  0
 27 47  1  0
 28 48  1  0
 28 49  1  0
 29 50  1  0
 29 51  1  0
 30 52  1  0
 30 53  1  0
 31 54  1  0
 32 55  1  0
M  END
>  <smiles>  (21) 
NS(=O)(=O)c1ccc(/C=C/c2nc3cc(F)c(F)cc3c(=O)n2CC2CCCCC2)cc1

>  <score_type>  (21) 
oracle

>  <origin>  (21) 
autodockgpu

>  <m_score__min__energy>  (21) 
-8.9800000000000004

>  <m_primary>  (21) 
energy

>  <rmsd>  (21) 
5.912003702680224

>  <m_score__min__rmsd>  (21) 
5.912003702680224

>  <meeko>  (21) 
{"free_energy": -8.68, "intermolecular_energy": -10.77, "internal_energy": -1.29, "cluster_size": 17, "cluster_id": 1, "rank_in_cluster": 10}

>  <energy>  (21) 
-8.52

>  <cluster_rmsd>  (21) 
1.4

>  <cluster>  (21) 
2

$$$$

     RDKit          3D

 55 58  0  0  0  0  0  0  0  0999 V2000
  141.4390   67.9690  226.7260 N   0  0  0  0  0  0  0  0  0  0  0  0
  139.8620   68.5760  226.4850 S   0  0  0  0  0  0  0  0  0  0  0  0
  139.3430   69.1230  227.7900 O   0  0  0  0  0  0  0  0  0  0  0  0
  139.0020   67.4180  226.0450 O   0  0  0  0  0  0  0  0  0  0  0  0
  139.8010   69.8130  225.2690 C   0  0  0  0  0  0  0  0  0  0  0  0
  140.7720   70.7730  225.1510 C   0  0  0  0  0  0  0  0  0  0  0  0
  140.7030   71.7450  224.1780 C   0  0  0  0  0  0  0  0  0  0  0  0
  139.6510   71.8110  223.2620 C   0  0  0  0  0  0  0  0  0  0  0  0
  139.6130   72.8500  222.2520 C   0  0  0  0  0  0  0  0  0  0  0  0
  140.6280   73.1740  221.4720 C   0  0  0  0  0  0  0  0  0  0  0  0
  140.9480   74.5870  221.1960 C   0  0  0  0  0  0  0  0  0  0  0  0
  140.3920   75.4690  222.0620 N   0  0  0  0  0  0  0  0  0  0  0  0
  140.6180   76.7930  221.9870 C   0  0  0  0  0  0  0  0  0  0  0  0
  140.0610   77.7040  222.8560 C   0  0  0  0  0  0  0  0  0  0  0  0
  140.3150   79.0590  222.7530 C   0  0  0  0  0  0  0  0  0  0  0  0
  139.7660   79.9610  223.6120 F   0  0  0  0  0  0  0  0  0  0  0  0
  141.1540   79.4660  221.7380 C   0  0  0  0  0  0  0  0  0  0  0  0
  141.4540   80.7810  221.5690 F   0  0  0  0  0  0  0  0  0  0  0  0
  141.7190   78.5700  220.8610 C   0  0  0  0  0  0  0  0  0  0  0  0
  141.4530   77.2110  220.9780 C   0  0  0  0  0  0  0  0  0  0  0  0
  142.0130   76.2940  220.1040 C   0  0  0  0  0  0  0  0  0  0  0  0
  142.7640   76.7810  219.2200 O   0  0  0  0  0  0  0  0  0  0  0  0
  141.7680   74.9550  220.1940 N   0  0  0  0  0  0  0  0  0  0  0  0
  142.3400   74.0120  219.2930 C   0  0  0  0  0  0  0  0  0  0  0  0
  143.6180   73.3450  219.7170 C   0  0  0  0  0  0  0  0  0  0  0  0
  144.5490   74.2750  220.4470 C   0  0  0  0  0  0  0  0  0  0  0  0
  145.6280   73.4360  221.1100 C   0  0  0  0  0  0  0  0  0  0  0  0
  146.3160   72.4780  220.2050 C   0  0  0  0  0  0  0  0  0  0  0  0
  145.3450   71.6620  219.3840 C   0  0  0  0  0  0  0  0  0  0  0  0
  144.3690   72.6200  218.6670 C   0  0  0  0  0  0  0  0  0  0  0  0
  138.6870   70.8340  223.4020 C   0  0  0  0  0  0  0  0  0  0  0  0
  138.7530   69.8520  224.3820 C   0  0  0  0  0  0  0  0  0  0  0  0
  141.7800   68.1830  227.6840 H   0  0  0  0  0  0  0  0  0  0  0  0
  142.1150   68.2360  225.9800 H   0  0  0  0  0  0  0  0  0  0  0  0
  141.6234   70.7669  225.8474 H   0  0  0  0  0  0  0  0  0  0  0  0
  141.5048   72.4959  224.1203 H   0  0  0  0  0  0  0  0  0  0  0  0
  138.6731   73.4075  222.1266 H   0  0  0  0  0  0  0  0  0  0  0  0
  141.2426   72.3801  221.0225 H   0  0  0  0  0  0  0  0  0  0  0  0
  139.3955   77.3438  223.6543 H   0  0  0  0  0  0  0  0  0  0  0  0
  142.3847   78.9307  220.0630 H   0  0  0  0  0  0  0  0  0  0  0  0
  141.5942   73.2212  219.1241 H   0  0  0  0  0  0  0  0  0  0  0  0
  142.6082   74.5981  218.4017 H   0  0  0  0  0  0  0  0  0  0  0  0
  143.2450   72.5700  220.4027 H   0  0  0  0  0  0  0  0  0  0  0  0
  145.0073   74.9780  219.7359 H   0  0  0  0  0  0  0  0  0  0  0  0
  143.9964   74.8525  221.2027 H   0  0  0  0  0  0  0  0  0  0  0  0
  146.3845   74.1177  221.5258 H   0  0  0  0  0  0  0  0  0  0  0  0
  145.1224   72.8300  221.8762 H   0  0  0  0  0  0  0  0  0  0  0  0
  146.9680   73.0429  219.5225 H   0  0  0  0  0  0  0  0  0  0  0  0
  146.8938   71.7817  220.8306 H   0  0  0  0  0  0  0  0  0  0  0  0
  145.8972   71.0712  218.6384 H   0  0  0  0  0  0  0  0  0  0  0  0
  144.7839   70.9797  220.0394 H   0  0  0  0  0  0  0  0  0  0  0  0
  144.9295   73.3327  218.0442 H   0  0  0  0  0  0  0  0  0  0  0  0
  143.6843   72.0618  218.0115 H   0  0  0  0  0  0  0  0  0  0  0  0
  137.8320   70.8327  222.7099 H   0  0  0  0  0  0  0  0  0  0  0  0
  137.9564   69.0964  224.4486 H   0  0  0  0  0  0  0  0  0  0  0  0
  1  2  1  0
  2  3  2  0
  2  4  2  0
  2  5  1  0
  5  6  2  0
  6  7  1  0
  7  8  2  0
  8  9  1  0
  9 10  2  0
 10 11  1  0
 11 12  2  0
 12 13  1  0
 13 14  2  0
 14 15  1  0
 15 16  1  0
 15 17  2  0
 17 18  1  0
 17 19  1  0
 19 20  2  0
 20 21  1  0
 21 22  2  0
 21 23  1  0
 23 24  1  0
 24 25  1  0
 25 26  1  0
 26 27  1  0
 27 28  1  0
 28 29  1  0
 29 30  1  0
  8 31  1  0
 31 32  2  0
 32  5  1  0
 23 11  1  0
 30 25  1  0
 20 13  1  0
  1 33  1  0
  1 34  1  0
  6 35  1  0
  7 36  1  0
  9 37  1  0
 10 38  1  0
 14 39  1  0
 19 40  1  0
 24 41  1  0
 24 42  1  0
 25 43  1  0
 26 44  1  0
 26 45  1  0
 27 46  1  0
 27 47  1  0
 28 48  1  0
 28 49  1  0
 29 50  1  0
 29 51  1  0
 30 52  1  0
 30 53  1  0
 31 54  1  0
 32 55  1  0
M  END
>  <smiles>  (22) 
NS(=O)(=O)c1ccc(/C=C/c2nc3cc(F)c(F)cc3c(=O)n2CC2CCCCC2)cc1

>  <score_type>  (22) 
oracle

>  <origin>  (22) 
autodockgpu

>  <m_score__min__energy>  (22) 
-8.9800000000000004

>  <m_primary>  (22) 
energy

>  <rmsd>  (22) 
5.438657486712764

>  <m_score__min__rmsd>  (22) 
5.438657486712764

>  <meeko>  (22) 
{"free_energy": -8.6, "intermolecular_energy": -10.69, "internal_energy": -1.26, "cluster_size": 17, "cluster_id": 1, "rank_in_cluster": 13}

>  <energy>  (22) 
-8.42

>  <cluster_rmsd>  (22) 
0.57

>  <cluster>  (22) 
2

$$$$

     RDKit          3D

 55 58  0  0  0  0  0  0  0  0999 V2000
  132.7890   74.2360  227.5900 N   0  0  0  0  0  0  0  0  0  0  0  0
  133.3170   73.1020  226.4300 S   0  0  0  0  0  0  0  0  0  0  0  0
  132.1160   72.5360  225.7170 O   0  0  0  0  0  0  0  0  0  0  0  0
  134.0270   72.0000  227.1750 O   0  0  0  0  0  0  0  0  0  0  0  0
  134.4110   73.7900  225.2730 C   0  0  0  0  0  0  0  0  0  0  0  0
  134.9970   73.0430  224.2840 C   0  0  0  0  0  0  0  0  0  0  0  0
  135.8630   73.6100  223.3750 C   0  0  0  0  0  0  0  0  0  0  0  0
  136.1940   74.9660  223.4070 C   0  0  0  0  0  0  0  0  0  0  0  0
  137.1110   75.5280  222.4340 C   0  0  0  0  0  0  0  0  0  0  0  0
  138.1590   76.2710  222.7350 C   0  0  0  0  0  0  0  0  0  0  0  0
  139.4680   76.0260  222.1010 C   0  0  0  0  0  0  0  0  0  0  0  0
  139.8460   74.7250  222.0770 N   0  0  0  0  0  0  0  0  0  0  0  0
  140.9880   74.3160  221.4940 C   0  0  0  0  0  0  0  0  0  0  0  0
  141.3890   73.0000  221.4600 C   0  0  0  0  0  0  0  0  0  0  0  0
  142.5680   72.6130  220.8520 C   0  0  0  0  0  0  0  0  0  0  0  0
  142.9660   71.3120  220.8180 F   0  0  0  0  0  0  0  0  0  0  0  0
  143.3330   73.6040  220.2750 C   0  0  0  0  0  0  0  0  0  0  0  0
  144.5060   73.3060  219.6560 F   0  0  0  0  0  0  0  0  0  0  0  0
  142.9470   74.9240  220.2980 C   0  0  0  0  0  0  0  0  0  0  0  0
  141.7590   75.2970  220.9150 C   0  0  0  0  0  0  0  0  0  0  0  0
  141.3550   76.6210  220.9490 C   0  0  0  0  0  0  0  0  0  0  0  0
  142.1320   77.4360  220.3880 O   0  0  0  0  0  0  0  0  0  0  0  0
  140.1940   77.0160  221.5490 N   0  0  0  0  0  0  0  0  0  0  0  0
  139.7810   78.3780  221.5880 C   0  0  0  0  0  0  0  0  0  0  0  0
  140.7340   79.3670  222.1960 C   0  0  0  0  0  0  0  0  0  0  0  0
  141.3810   78.8580  223.4560 C   0  0  0  0  0  0  0  0  0  0  0  0
  142.5470   79.7730  223.7900 C   0  0  0  0  0  0  0  0  0  0  0  0
  142.2100   81.2200  223.8260 C   0  0  0  0  0  0  0  0  0  0  0  0
  141.4340   81.6620  222.6070 C   0  0  0  0  0  0  0  0  0  0  0  0
  140.2140   80.7340  222.4290 C   0  0  0  0  0  0  0  0  0  0  0  0
  135.5930   75.6960  224.4120 C   0  0  0  0  0  0  0  0  0  0  0  0
  134.7180   75.1280  225.3290 C   0  0  0  0  0  0  0  0  0  0  0  0
  132.5790   73.7740  228.4980 H   0  0  0  0  0  0  0  0  0  0  0  0
  132.0220   74.8570  227.2590 H   0  0  0  0  0  0  0  0  0  0  0  0
  134.7710   71.9687  224.2149 H   0  0  0  0  0  0  0  0  0  0  0  0
  136.3090   72.9726  222.5973 H   0  0  0  0  0  0  0  0  0  0  0  0
  136.9194   75.3203  221.3709 H   0  0  0  0  0  0  0  0  0  0  0  0
  138.0551   77.0840  223.4686 H   0  0  0  0  0  0  0  0  0  0  0  0
  140.7534   72.2350  221.9298 H   0  0  0  0  0  0  0  0  0  0  0  0
  143.5818   75.6882  219.8257 H   0  0  0  0  0  0  0  0  0  0  0  0
  139.5904   78.6958  220.5523 H   0  0  0  0  0  0  0  0  0  0  0  0
  138.9014   78.3888  222.2485 H   0  0  0  0  0  0  0  0  0  0  0  0
  141.4853   79.4665  221.3987 H   0  0  0  0  0  0  0  0  0  0  0  0
  140.6519   78.8672  224.2796 H   0  0  0  0  0  0  0  0  0  0  0  0
  141.7347   77.8263  223.3131 H   0  0  0  0  0  0  0  0  0  0  0  0
  142.9349   79.4868  224.7787 H   0  0  0  0  0  0  0  0  0  0  0  0
  143.2833   79.6454  222.9828 H   0  0  0  0  0  0  0  0  0  0  0  0
  141.6037   81.4192  224.7219 H   0  0  0  0  0  0  0  0  0  0  0  0
  143.1545   81.7836  223.8445 H   0  0  0  0  0  0  0  0  0  0  0  0
  141.0928   82.6990  222.7422 H   0  0  0  0  0  0  0  0  0  0  0  0
  142.0767   81.6086  221.7159 H   0  0  0  0  0  0  0  0  0  0  0  0
  139.5920   80.7511  223.3361 H   0  0  0  0  0  0  0  0  0  0  0  0
  139.5920   81.0645  221.5841 H   0  0  0  0  0  0  0  0  0  0  0  0
  135.8157   76.7704  224.4900 H   0  0  0  0  0  0  0  0  0  0  0  0
  134.2653   75.7571  226.1096 H   0  0  0  0  0  0  0  0  0  0  0  0
  1  2  1  0
  2  3  2  0
  2  4  2  0
  2  5  1  0
  5  6  2  0
  6  7  1  0
  7  8  2  0
  8  9  1  0
  9 10  2  0
 10 11  1  0
 11 12  2  0
 12 13  1  0
 13 14  2  0
 14 15  1  0
 15 16  1  0
 15 17  2  0
 17 18  1  0
 17 19  1  0
 19 20  2  0
 20 21  1  0
 21 22  2  0
 21 23  1  0
 23 24  1  0
 24 25  1  0
 25 26  1  0
 26 27  1  0
 27 28  1  0
 28 29  1  0
 29 30  1  0
  8 31  1  0
 31 32  2  0
 32  5  1  0
 23 11  1  0
 30 25  1  0
 20 13  1  0
  1 33  1  0
  1 34  1  0
  6 35  1  0
  7 36  1  0
  9 37  1  0
 10 38  1  0
 14 39  1  0
 19 40  1  0
 24 41  1  0
 24 42  1  0
 25 43  1  0
 26 44  1  0
 26 45  1  0
 27 46  1  0
 27 47  1  0
 28 48  1  0
 28 49  1  0
 29 50  1  0
 29 51  1  0
 30 52  1  0
 30 53  1  0
 31 54  1  0
 32 55  1  0
M  END
>  <smiles>  (23) 
NS(=O)(=O)c1ccc(/C=C/c2nc3cc(F)c(F)cc3c(=O)n2CC2CCCCC2)cc1

>  <score_type>  (23) 
oracle

>  <origin>  (23) 
autodockgpu

>  <m_score__min__energy>  (23) 
-8.9800000000000004

>  <m_primary>  (23) 
energy

>  <rmsd>  (23) 
7.303886849870528

>  <m_score__min__rmsd>  (23) 
7.303886849870528

>  <meeko>  (23) 
{"free_energy": -8.43, "intermolecular_energy": -10.52, "internal_energy": -1.2, "cluster_size": 4, "cluster_id": 4, "rank_in_cluster": 1}

>  <energy>  (23) 
-8.38

>  <cluster_rmsd>  (23) 
0.56

>  <cluster>  (23) 
2

$$$$

     RDKit          3D

 55 58  0  0  0  0  0  0  0  0999 V2000
  139.3000   67.3130  226.1830 N   0  0  0  0  0  0  0  0  0  0  0  0
  139.9900   68.8230  226.5790 S   0  0  0  0  0  0  0  0  0  0  0  0
  141.4520   68.6280  226.8870 O   0  0  0  0  0  0  0  0  0  0  0  0
  139.2780   69.3290  227.8080 O   0  0  0  0  0  0  0  0  0  0  0  0
  139.8120   69.9920  225.3090 C   0  0  0  0  0  0  0  0  0  0  0  0
  140.8250   70.8430  224.9500 C   0  0  0  0  0  0  0  0  0  0  0  0
  140.6620   71.7640  223.9390 C   0  0  0  0  0  0  0  0  0  0  0  0
  139.4680   71.8850  223.2260 C   0  0  0  0  0  0  0  0  0  0  0  0
  139.3330   72.8670  222.1670 C   0  0  0  0  0  0  0  0  0  0  0  0
  140.2930   73.1910  221.3210 C   0  0  0  0  0  0  0  0  0  0  0  0
  140.7220   74.5940  221.1650 C   0  0  0  0  0  0  0  0  0  0  0  0
  140.1120   75.4650  222.0040 N   0  0  0  0  0  0  0  0  0  0  0  0
  140.4170   76.7750  222.0320 C   0  0  0  0  0  0  0  0  0  0  0  0
  139.8080   77.6750  222.8760 C   0  0  0  0  0  0  0  0  0  0  0  0
  140.1460   79.0150  222.8800 C   0  0  0  0  0  0  0  0  0  0  0  0
  139.5450   79.9060  223.7150 F   0  0  0  0  0  0  0  0  0  0  0  0
  141.1250   79.4190  221.9980 C   0  0  0  0  0  0  0  0  0  0  0  0
  141.5150   80.7200  221.9390 F   0  0  0  0  0  0  0  0  0  0  0  0
  141.7450   78.5340  221.1470 C   0  0  0  0  0  0  0  0  0  0  0  0
  141.3920   77.1900  221.1550 C   0  0  0  0  0  0  0  0  0  0  0  0
  142.0050   76.2840  220.3050 C   0  0  0  0  0  0  0  0  0  0  0  0
  142.8850   76.7660  219.5470 O   0  0  0  0  0  0  0  0  0  0  0  0
  141.6780   74.9590  220.2910 N   0  0  0  0  0  0  0  0  0  0  0  0
  142.3050   74.0280  219.4140 C   0  0  0  0  0  0  0  0  0  0  0  0
  143.6010   73.4200  219.8720 C   0  0  0  0  0  0  0  0  0  0  0  0
  144.5390   74.4280  220.4780 C   0  0  0  0  0  0  0  0  0  0  0  0
  145.6430   73.6710  221.1960 C   0  0  0  0  0  0  0  0  0  0  0  0
  146.3200   72.6320  220.3760 C   0  0  0  0  0  0  0  0  0  0  0  0
  145.3380   71.7270  219.6690 C   0  0  0  0  0  0  0  0  0  0  0  0
  144.3340   72.5970  218.8830 C   0  0  0  0  0  0  0  0  0  0  0  0
  138.4640   71.0180  223.6060 C   0  0  0  0  0  0  0  0  0  0  0  0
  138.6250   70.0880  224.6250 C   0  0  0  0  0  0  0  0  0  0  0  0
  139.5290   66.5970  226.9010 H   0  0  0  0  0  0  0  0  0  0  0  0
  139.4980   66.9980  225.2100 H   0  0  0  0  0  0  0  0  0  0  0  0
  141.7874   70.7892  225.4800 H   0  0  0  0  0  0  0  0  0  0  0  0
  141.5019   72.4273  223.6845 H   0  0  0  0  0  0  0  0  0  0  0  0
  138.3639   73.3767  222.0617 H   0  0  0  0  0  0  0  0  0  0  0  0
  140.7794   72.4050  220.7247 H   0  0  0  0  0  0  0  0  0  0  0  0
  139.0302   77.3179  223.5670 H   0  0  0  0  0  0  0  0  0  0  0  0
  142.5236   78.8916  220.4572 H   0  0  0  0  0  0  0  0  0  0  0  0
  141.5955   73.2051  219.2426 H   0  0  0  0  0  0  0  0  0  0  0  0
  142.5659   74.6121  218.5192 H   0  0  0  0  0  0  0  0  0  0  0  0
  143.2539   72.7173  220.6438 H   0  0  0  0  0  0  0  0  0  0  0  0
  144.9720   75.0577  219.6867 H   0  0  0  0  0  0  0  0  0  0  0  0
  143.9988   75.0759  221.1840 H   0  0  0  0  0  0  0  0  0  0  0  0
  146.4014   74.3984  221.5213 H   0  0  0  0  0  0  0  0  0  0  0  0
  145.1630   73.1419  222.0325 H   0  0  0  0  0  0  0  0  0  0  0  0
  146.9475   73.1301  219.6222 H   0  0  0  0  0  0  0  0  0  0  0  0
  146.9225   72.0093  221.0537 H   0  0  0  0  0  0  0  0  0  0  0  0
  145.8781   71.0671  218.9742 H   0  0  0  0  0  0  0  0  0  0  0  0
  144.8012   71.1112  220.4056 H   0  0  0  0  0  0  0  0  0  0  0  0
  144.8708   73.2465  218.1758 H   0  0  0  0  0  0  0  0  0  0  0  0
  143.6396   71.9682  218.3064 H   0  0  0  0  0  0  0  0  0  0  0  0
  137.4983   71.0652  223.0814 H   0  0  0  0  0  0  0  0  0  0  0  0
  137.7914   69.4200  224.8874 H   0  0  0  0  0  0  0  0  0  0  0  0
  1  2  1  0
  2  3  2  0
  2  4  2  0
  2  5  1  0
  5  6  2  0
  6  7  1  0
  7  8  2  0
  8  9  1  0
  9 10  2  0
 10 11  1  0
 11 12  2  0
 12 13  1  0
 13 14  2  0
 14 15  1  0
 15 16  1  0
 15 17  2  0
 17 18  1  0
 17 19  1  0
 19 20  2  0
 20 21  1  0
 21 22  2  0
 21 23  1  0
 23 24  1  0
 24 25  1  0
 25 26  1  0
 26 27  1  0
 27 28  1  0
 28 29  1  0
 29 30  1  0
  8 31  1  0
 31 32  2  0
 32  5  1  0
 23 11  1  0
 30 25  1  0
 20 13  1  0
  1 33  1  0
  1 34  1  0
  6 35  1  0
  7 36  1  0
  9 37  1  0
 10 38  1  0
 14 39  1  0
 19 40  1  0
 24 41  1  0
 24 42  1  0
 25 43  1  0
 26 44  1  0
 26 45  1  0
 27 46  1  0
 27 47  1  0
 28 48  1  0
 28 49  1  0
 29 50  1  0
 29 51  1  0
 30 52  1  0
 30 53  1  0
 31 54  1  0
 32 55  1  0
M  END
>  <smiles>  (24) 
NS(=O)(=O)c1ccc(/C=C/c2nc3cc(F)c(F)cc3c(=O)n2CC2CCCCC2)cc1

>  <score_type>  (24) 
oracle

>  <origin>  (24) 
autodockgpu

>  <m_score__min__energy>  (24) 
-8.9800000000000004

>  <m_primary>  (24) 
energy

>  <rmsd>  (24) 
5.408163562843783

>  <m_score__min__rmsd>  (24) 
5.408163562843783

>  <meeko>  (24) 
{"free_energy": -8.81, "intermolecular_energy": -10.9, "internal_energy": -1.25, "cluster_size": 17, "cluster_id": 1, "rank_in_cluster": 6}

>  <energy>  (24) 
-8.29

>  <cluster_rmsd>  (24) 
1.46

>  <cluster>  (24) 
2

$$$$

     RDKit          3D

 55 58  0  0  0  0  0  0  0  0999 V2000
  146.3200   72.9810  221.1860 N   0  0  0  0  0  0  0  0  0  0  0  0
  145.5600   72.2330  219.8530 S   0  0  0  0  0  0  0  0  0  0  0  0
  146.2960   70.9610  219.5200 O   0  0  0  0  0  0  0  0  0  0  0  0
  145.6540   73.1900  218.6920 O   0  0  0  0  0  0  0  0  0  0  0  0
  143.8880   71.8770  220.1520 C   0  0  0  0  0  0  0  0  0  0  0  0
  143.2990   70.7150  219.7270 C   0  0  0  0  0  0  0  0  0  0  0  0
  141.9700   70.4530  219.9750 C   0  0  0  0  0  0  0  0  0  0  0  0
  141.1500   71.3470  220.6660 C   0  0  0  0  0  0  0  0  0  0  0  0
  139.7540   71.0370  220.9080 C   0  0  0  0  0  0  0  0  0  0  0  0
  139.1110   71.3050  222.0290 C   0  0  0  0  0  0  0  0  0  0  0  0
  139.4190   70.5710  223.2710 C   0  0  0  0  0  0  0  0  0  0  0  0
  139.9550   71.3330  224.2560 N   0  0  0  0  0  0  0  0  0  0  0  0
  140.2510   70.8370  225.4700 C   0  0  0  0  0  0  0  0  0  0  0  0
  140.7970   71.5930  226.4820 C   0  0  0  0  0  0  0  0  0  0  0  0
  141.0890   71.0530  227.7210 C   0  0  0  0  0  0  0  0  0  0  0  0
  141.6290   71.8000  228.7220 F   0  0  0  0  0  0  0  0  0  0  0  0
  140.8100   69.7160  227.9050 C   0  0  0  0  0  0  0  0  0  0  0  0
  141.0670   69.1090  229.0930 F   0  0  0  0  0  0  0  0  0  0  0  0
  140.2640   68.9440  226.9050 C   0  0  0  0  0  0  0  0  0  0  0  0
  139.9780   69.5030  225.6660 C   0  0  0  0  0  0  0  0  0  0  0  0
  139.4280   68.7420  224.6480 C   0  0  0  0  0  0  0  0  0  0  0  0
  139.2140   67.5350  224.9310 O   0  0  0  0  0  0  0  0  0  0  0  0
  139.1380   69.2640  223.4200 N   0  0  0  0  0  0  0  0  0  0  0  0
  138.5770   68.4800  222.3710 C   0  0  0  0  0  0  0  0  0  0  0  0
  137.0780   68.4010  222.3000 C   0  0  0  0  0  0  0  0  0  0  0  0
  136.4050   68.9250  223.5400 C   0  0  0  0  0  0  0  0  0  0  0  0
  134.9290   69.1100  223.2320 C   0  0  0  0  0  0  0  0  0  0  0  0
  134.2630   67.9200  222.6400 C   0  0  0  0  0  0  0  0  0  0  0  0
  135.0450   67.3380  221.4860 C   0  0  0  0  0  0  0  0  0  0  0  0
  136.4980   67.0860  221.9440 C   0  0  0  0  0  0  0  0  0  0  0  0
  141.7660   72.5100  221.0820 C   0  0  0  0  0  0  0  0  0  0  0  0
  143.1060   72.7760  220.8350 C   0  0  0  0  0  0  0  0  0  0  0  0
  146.5680   72.2830  221.9160 H   0  0  0  0  0  0  0  0  0  0  0  0
  145.8040   73.8030  221.5610 H   0  0  0  0  0  0  0  0  0  0  0  0
  143.9001   69.9764  219.1765 H   0  0  0  0  0  0  0  0  0  0  0  0
  141.5395   69.5064  219.6162 H   0  0  0  0  0  0  0  0  0  0  0  0
  139.1920   70.5442  220.1010 H   0  0  0  0  0  0  0  0  0  0  0  0
  138.3358   72.0854  222.0373 H   0  0  0  0  0  0  0  0  0  0  0  0
  141.0071   72.6573  226.3001 H   0  0  0  0  0  0  0  0  0  0  0  0
  140.0533   67.8799  227.0877 H   0  0  0  0  0  0  0  0  0  0  0  0
  138.9319   68.8994  221.4181 H   0  0  0  0  0  0  0  0  0  0  0  0
  138.9060   67.4511  222.5785 H   0  0  0  0  0  0  0  0  0  0  0  0
  136.8633   69.0607  221.4463 H   0  0  0  0  0  0  0  0  0  0  0  0
  136.5270   68.2055  224.3631 H   0  0  0  0  0  0  0  0  0  0  0  0
  136.8546   69.8822  223.8427 H   0  0  0  0  0  0  0  0  0  0  0  0
  134.4122   69.3603  224.1702 H   0  0  0  0  0  0  0  0  0  0  0  0
  134.8672   69.9077  222.4771 H   0  0  0  0  0  0  0  0  0  0  0  0
  134.1569   67.1505  223.4188 H   0  0  0  0  0  0  0  0  0  0  0  0
  133.2839   68.2404  222.2544 H   0  0  0  0  0  0  0  0  0  0  0  0
  134.5871   66.3888  221.1709 H   0  0  0  0  0  0  0  0  0  0  0  0
  135.0373   68.0395  220.6387 H   0  0  0  0  0  0  0  0  0  0  0  0
  136.5073   66.4203  222.8196 H   0  0  0  0  0  0  0  0  0  0  0  0
  137.0817   66.6045  221.1455 H   0  0  0  0  0  0  0  0  0  0  0  0
  141.1718   73.2555  221.6308 H   0  0  0  0  0  0  0  0  0  0  0  0
  143.5470   73.7188  221.1909 H   0  0  0  0  0  0  0  0  0  0  0  0
  1  2  1  0
  2  3  2  0
  2  4  2  0
  2  5  1  0
  5  6  2  0
  6  7  1  0
  7  8  2  0
  8  9  1  0
  9 10  2  0
 10 11  1  0
 11 12  2  0
 12 13  1  0
 13 14  2  0
 14 15  1  0
 15 16  1  0
 15 17  2  0
 17 18  1  0
 17 19  1  0
 19 20  2  0
 20 21  1  0
 21 22  2  0
 21 23  1  0
 23 24  1  0
 24 25  1  0
 25 26  1  0
 26 27  1  0
 27 28  1  0
 28 29  1  0
 29 30  1  0
  8 31  1  0
 31 32  2  0
 32  5  1  0
 23 11  1  0
 30 25  1  0
 20 13  1  0
  1 33  1  0
  1 34  1  0
  6 35  1  0
  7 36  1  0
  9 37  1  0
 10 38  1  0
 14 39  1  0
 19 40  1  0
 24 41  1  0
 24 42  1  0
 25 43  1  0
 26 44  1  0
 26 45  1  0
 27 46  1  0
 27 47  1  0
 28 48  1  0
 28 49  1  0
 29 50  1  0
 29 51  1  0
 30 52  1  0
 30 53  1  0
 31 54  1  0
 32 55  1  0
M  END
>  <smiles>  (25) 
NS(=O)(=O)c1ccc(/C=C/c2nc3cc(F)c(F)cc3c(=O)n2CC2CCCCC2)cc1

>  <score_type>  (25) 
oracle

>  <origin>  (25) 
autodockgpu

>  <m_score__min__energy>  (25) 
-8.9800000000000004

>  <m_primary>  (25) 
energy

>  <rmsd>  (25) 
11.348730567056672

>  <m_score__min__rmsd>  (25) 
11.348730567056672

>  <meeko>  (25) 
{"free_energy": -8.03, "intermolecular_energy": -10.12, "internal_energy": -1.4, "cluster_size": 10, "cluster_id": 2, "rank_in_cluster": 8}

>  <energy>  (25) 
-8.03

>  <cluster_rmsd>  (25) 
1.35

>  <cluster>  (25) 
2

$$$$

     RDKit          3D

 55 58  0  0  0  0  0  0  0  0999 V2000
  139.2330   67.0420  226.4520 N   0  0  0  0  0  0  0  0  0  0  0  0
  140.3490   68.3110  226.6880 S   0  0  0  0  0  0  0  0  0  0  0  0
  141.7470   67.7510  226.6400 O   0  0  0  0  0  0  0  0  0  0  0  0
  140.0830   68.8900  228.0550 O   0  0  0  0  0  0  0  0  0  0  0  0
  140.1850   69.5710  225.5060 C   0  0  0  0  0  0  0  0  0  0  0  0
  140.7390   70.8130  225.6780 C   0  0  0  0  0  0  0  0  0  0  0  0
  140.5970   71.7990  224.7270 C   0  0  0  0  0  0  0  0  0  0  0  0
  139.8870   71.5950  223.5410 C   0  0  0  0  0  0  0  0  0  0  0  0
  139.7580   72.6570  222.5630 C   0  0  0  0  0  0  0  0  0  0  0  0
  140.6550   72.9320  221.6340 C   0  0  0  0  0  0  0  0  0  0  0  0
  140.9540   74.3270  221.2600 C   0  0  0  0  0  0  0  0  0  0  0  0
  140.4150   75.2580  222.0850 N   0  0  0  0  0  0  0  0  0  0  0  0
  140.6270   76.5760  221.9210 C   0  0  0  0  0  0  0  0  0  0  0  0
  140.0880   77.5360  222.7470 C   0  0  0  0  0  0  0  0  0  0  0  0
  140.3260   78.8840  222.5510 C   0  0  0  0  0  0  0  0  0  0  0  0
  139.7940   79.8340  223.3680 F   0  0  0  0  0  0  0  0  0  0  0  0
  141.1300   79.2320  221.4880 C   0  0  0  0  0  0  0  0  0  0  0  0
  141.4130   80.5350  221.2270 F   0  0  0  0  0  0  0  0  0  0  0  0
  141.6780   78.2860  220.6520 C   0  0  0  0  0  0  0  0  0  0  0  0
  141.4270   76.9360  220.8620 C   0  0  0  0  0  0  0  0  0  0  0  0
  141.9690   75.9700  220.0310 C   0  0  0  0  0  0  0  0  0  0  0  0
  142.6900   76.4050  219.0960 O   0  0  0  0  0  0  0  0  0  0  0  0
  141.7400   74.6370  220.2130 N   0  0  0  0  0  0  0  0  0  0  0  0
  142.2940   73.6430  219.3550 C   0  0  0  0  0  0  0  0  0  0  0  0
  143.7430   73.2990  219.5510 C   0  0  0  0  0  0  0  0  0  0  0  0
  144.0090   71.8200  219.4790 C   0  0  0  0  0  0  0  0  0  0  0  0
  145.5090   71.6160  219.3530 C   0  0  0  0  0  0  0  0  0  0  0  0
  146.3210   72.3270  220.3740 C   0  0  0  0  0  0  0  0  0  0  0  0
  145.9260   73.7780  220.5170 C   0  0  0  0  0  0  0  0  0  0  0  0
  144.4020   73.8590  220.7530 C   0  0  0  0  0  0  0  0  0  0  0  0
  139.3390   70.3380  223.3920 C   0  0  0  0  0  0  0  0  0  0  0  0
  139.4810   69.3410  224.3490 C   0  0  0  0  0  0  0  0  0  0  0  0
  139.3550   66.2990  227.1700 H   0  0  0  0  0  0  0  0  0  0  0  0
  139.2090   66.6730  225.4790 H   0  0  0  0  0  0  0  0  0  0  0  0
  141.3087   71.0265  226.5944 H   0  0  0  0  0  0  0  0  0  0  0  0
  141.0585   72.7811  224.9074 H   0  0  0  0  0  0  0  0  0  0  0  0
  138.8499   73.2768  222.5971 H   0  0  0  0  0  0  0  0  0  0  0  0
  141.1863   72.1098  221.1323 H   0  0  0  0  0  0  0  0  0  0  0  0
  139.4501   77.2222  223.5864 H   0  0  0  0  0  0  0  0  0  0  0  0
  142.3174   78.6003  219.8139 H   0  0  0  0  0  0  0  0  0  0  0  0
  141.7123   72.7204  219.4981 H   0  0  0  0  0  0  0  0  0  0  0  0
  142.2389   74.0763  218.3454 H   0  0  0  0  0  0  0  0  0  0  0  0
  144.2071   73.8080  218.6934 H   0  0  0  0  0  0  0  0  0  0  0  0
  143.6415   71.3301  220.3928 H   0  0  0  0  0  0  0  0  0  0  0  0
  143.4907   71.3812  218.6137 H   0  0  0  0  0  0  0  0  0  0  0  0
  145.7166   70.5392  219.4394 H   0  0  0  0  0  0  0  0  0  0  0  0
  145.7985   72.0363  218.3785 H   0  0  0  0  0  0  0  0  0  0  0  0
  146.1851   71.8268  221.3442 H   0  0  0  0  0  0  0  0  0  0  0  0
  147.3710   72.2963  220.0477 H   0  0  0  0  0  0  0  0  0  0  0  0
  146.4565   74.2229  221.3718 H   0  0  0  0  0  0  0  0  0  0  0  0
  146.1920   74.3292  219.6030 H   0  0  0  0  0  0  0  0  0  0  0  0
  144.1264   73.2724  221.6418 H   0  0  0  0  0  0  0  0  0  0  0  0
  144.0875   74.8995  220.9220 H   0  0  0  0  0  0  0  0  0  0  0  0
  138.7668   70.1161  222.4791 H   0  0  0  0  0  0  0  0  0  0  0  0
  139.0240   68.3551  224.1782 H   0  0  0  0  0  0  0  0  0  0  0  0
  1  2  1  0
  2  3  2  0
  2  4  2  0
  2  5  1  0
  5  6  2  0
  6  7  1  0
  7  8  2  0
  8  9  1  0
  9 10  2  0
 10 11  1  0
 11 12  2  0
 12 13  1  0
 13 14  2  0
 14 15  1  0
 15 16  1  0
 15 17  2  0
 17 18  1  0
 17 19  1  0
 19 20  2  0
 20 21  1  0
 21 22  2  0
 21 23  1  0
 23 24  1  0
 24 25  1  0
 25 26  1  0
 26 27  1  0
 27 28  1  0
 28 29  1  0
 29 30  1  0
  8 31  1  0
 31 32  2  0
 32  5  1  0
 23 11  1  0
 30 25  1  0
 20 13  1  0
  1 33  1  0
  1 34  1  0
  6 35  1  0
  7 36  1  0
  9 37  1  0
 10 38  1  0
 14 39  1  0
 19 40  1  0
 24 41  1  0
 24 42  1  0
 25 43  1  0
 26 44  1  0
 26 45  1  0
 27 46  1  0
 27 47  1  0
 28 48  1  0
 28 49  1  0
 29 50  1  0
 29 51  1  0
 30 52  1  0
 30 53  1  0
 31 54  1  0
 32 55  1  0
M  END
>  <smiles>  (26) 
NS(=O)(=O)c1ccc(/C=C/c2nc3cc(F)c(F)cc3c(=O)n2CC2CCCCC2)cc1

>  <score_type>  (26) 
oracle

>  <origin>  (26) 
autodockgpu

>  <m_score__min__energy>  (26) 
-8.9800000000000004

>  <m_primary>  (26) 
energy

>  <rmsd>  (26) 
5.781585614568546

>  <m_score__min__rmsd>  (26) 
5.781585614568546

>  <meeko>  (26) 
{"free_energy": -8.9, "intermolecular_energy": -10.99, "internal_energy": -1.3, "cluster_size": 17, "cluster_id": 1, "rank_in_cluster": 2}

>  <energy>  (26) 
-7.91

>  <cluster_rmsd>  (26) 
1.43

>  <cluster>  (26) 
2

$$$$

     RDKit          3D

 55 58  0  0  0  0  0  0  0  0999 V2000
  145.9020   73.3490  218.0380 N   0  0  0  0  0  0  0  0  0  0  0  0
  145.8060   72.8400  219.6640 S   0  0  0  0  0  0  0  0  0  0  0  0
  146.6720   73.7370  220.5100 O   0  0  0  0  0  0  0  0  0  0  0  0
  146.3340   71.4280  219.7200 O   0  0  0  0  0  0  0  0  0  0  0  0
  144.1820   72.8540  220.2730 C   0  0  0  0  0  0  0  0  0  0  0  0
  143.4450   74.0060  220.3690 C   0  0  0  0  0  0  0  0  0  0  0  0
  142.1570   73.9950  220.8560 C   0  0  0  0  0  0  0  0  0  0  0  0
  141.5290   72.8210  221.2780 C   0  0  0  0  0  0  0  0  0  0  0  0
  140.1720   72.8470  221.7850 C   0  0  0  0  0  0  0  0  0  0  0  0
  139.4320   71.7760  222.0000 C   0  0  0  0  0  0  0  0  0  0  0  0
  139.6370   70.9420  223.1990 C   0  0  0  0  0  0  0  0  0  0  0  0
  140.1640   71.6030  224.2590 N   0  0  0  0  0  0  0  0  0  0  0  0
  140.3720   71.0090  225.4480 C   0  0  0  0  0  0  0  0  0  0  0  0
  140.9070   71.6630  226.5350 C   0  0  0  0  0  0  0  0  0  0  0  0
  141.1080   71.0230  227.7440 C   0  0  0  0  0  0  0  0  0  0  0  0
  141.6360   71.6680  228.8200 F   0  0  0  0  0  0  0  0  0  0  0  0
  140.7480   69.6950  227.8200 C   0  0  0  0  0  0  0  0  0  0  0  0
  140.9130   68.9940  228.9730 F   0  0  0  0  0  0  0  0  0  0  0  0
  140.2120   69.0250  226.7440 C   0  0  0  0  0  0  0  0  0  0  0  0
  140.0190   69.6830  225.5350 C   0  0  0  0  0  0  0  0  0  0  0  0
  139.4810   69.0260  224.4420 C   0  0  0  0  0  0  0  0  0  0  0  0
  139.1880   67.8160  224.6290 O   0  0  0  0  0  0  0  0  0  0  0  0
  139.2800   69.6460  223.2420 N   0  0  0  0  0  0  0  0  0  0  0  0
  138.7310   68.9680  222.1160 C   0  0  0  0  0  0  0  0  0  0  0  0
  137.2580   68.6720  222.1450 C   0  0  0  0  0  0  0  0  0  0  0  0
  136.5750   69.2170  223.3700 C   0  0  0  0  0  0  0  0  0  0  0  0
  135.0750   69.1610  223.1370 C   0  0  0  0  0  0  0  0  0  0  0  0
  134.5630   67.8350  222.7000 C   0  0  0  0  0  0  0  0  0  0  0  0
  135.3670   67.2560  221.5580 C   0  0  0  0  0  0  0  0  0  0  0  0
  136.8600   67.2600  221.9480 C   0  0  0  0  0  0  0  0  0  0  0  0
  142.2920   71.6750  221.1720 C   0  0  0  0  0  0  0  0  0  0  0  0
  143.5910   71.6830  220.6810 C   0  0  0  0  0  0  0  0  0  0  0  0
  145.7910   74.3800  217.9610 H   0  0  0  0  0  0  0  0  0  0  0  0
  145.2820   72.8200  217.3900 H   0  0  0  0  0  0  0  0  0  0  0  0
  143.8920   74.9592  220.0503 H   0  0  0  0  0  0  0  0  0  0  0  0
  141.6035   74.9438  220.9147 H   0  0  0  0  0  0  0  0  0  0  0  0
  139.7275   73.8286  222.0062 H   0  0  0  0  0  0  0  0  0  0  0  0
  138.6516   71.5014  221.2751 H   0  0  0  0  0  0  0  0  0  0  0  0
  141.1821   72.7237  226.4390 H   0  0  0  0  0  0  0  0  0  0  0  0
  139.9353   67.9648  226.8411 H   0  0  0  0  0  0  0  0  0  0  0  0
  138.9268   69.5877  221.2285 H   0  0  0  0  0  0  0  0  0  0  0  0
  139.2188   67.9821  222.1125 H   0  0  0  0  0  0  0  0  0  0  0  0
  136.9094   69.2065  221.2490 H   0  0  0  0  0  0  0  0  0  0  0  0
  136.8393   68.6075  224.2467 H   0  0  0  0  0  0  0  0  0  0  0  0
  136.8939   70.2533  223.5553 H   0  0  0  0  0  0  0  0  0  0  0  0
  134.5719   69.4295  224.0776 H   0  0  0  0  0  0  0  0  0  0  0  0
  134.8617   69.8621  222.3166 H   0  0  0  0  0  0  0  0  0  0  0  0
  134.6080   67.1405  223.5518 H   0  0  0  0  0  0  0  0  0  0  0  0
  133.5302   67.9732  222.3476 H   0  0  0  0  0  0  0  0  0  0  0  0
  135.0393   66.2246  221.3609 H   0  0  0  0  0  0  0  0  0  0  0  0
  135.2162   67.8600  220.6511 H   0  0  0  0  0  0  0  0  0  0  0  0
  137.0076   66.6935  222.8793 H   0  0  0  0  0  0  0  0  0  0  0  0
  137.4696   66.7888  221.1629 H   0  0  0  0  0  0  0  0  0  0  0  0
  141.8533   70.7174  221.4892 H   0  0  0  0  0  0  0  0  0  0  0  0
  144.1537   70.7399  220.6180 H   0  0  0  0  0  0  0  0  0  0  0  0
  1  2  1  0
  2  3  2  0
  2  4  2  0
  2  5  1  0
  5  6  2  0
  6  7  1  0
  7  8  2  0
  8  9  1  0
  9 10  2  0
 10 11  1  0
 11 12  2  0
 12 13  1  0
 13 14  2  0
 14 15  1  0
 15 16  1  0
 15 17  2  0
 17 18  1  0
 17 19  1  0
 19 20  2  0
 20 21  1  0
 21 22  2  0
 21 23  1  0
 23 24  1  0
 24 25  1  0
 25 26  1  0
 26 27  1  0
 27 28  1  0
 28 29  1  0
 29 30  1  0
  8 31  1  0
 31 32  2  0
 32  5  1  0
 23 11  1  0
 30 25  1  0
 20 13  1  0
  1 33  1  0
  1 34  1  0
  6 35  1  0
  7 36  1  0
  9 37  1  0
 10 38  1  0
 14 39  1  0
 19 40  1  0
 24 41  1  0
 24 42  1  0
 25 43  1  0
 26 44  1  0
 26 45  1  0
 27 46  1  0
 27 47  1  0
 28 48  1  0
 28 49  1  0
 29 50  1  0
 29 51  1  0
 30 52  1  0
 30 53  1  0
 31 54  1  0
 32 55  1  0
M  END
>  <smiles>  (27) 
NS(=O)(=O)c1ccc(/C=C/c2nc3cc(F)c(F)cc3c(=O)n2CC2CCCCC2)cc1

>  <score_type>  (27) 
oracle

>  <origin>  (27) 
autodockgpu

>  <m_score__min__energy>  (27) 
-8.9800000000000004

>  <m_primary>  (27) 
energy

>  <rmsd>  (27) 
11.160741651368049

>  <m_score__min__rmsd>  (27) 
11.160741651368049

>  <meeko>  (27) 
{"free_energy": -8.78, "intermolecular_energy": -10.87, "internal_energy": -1.36, "cluster_size": 10, "cluster_id": 2, "rank_in_cluster": 1}

>  <energy>  (27) 
-7.61

>  <cluster_rmsd>  (27) 
1.88

>  <cluster>  (27) 
2

$$$$

     RDKit          3D

 55 58  0  0  0  0  0  0  0  0999 V2000
  132.8180   74.4940  227.5410 N   0  0  0  0  0  0  0  0  0  0  0  0
  133.2840   73.3920  226.3250 S   0  0  0  0  0  0  0  0  0  0  0  0
  132.0550   72.9290  225.5860 O   0  0  0  0  0  0  0  0  0  0  0  0
  133.9310   72.2170  227.0140 O   0  0  0  0  0  0  0  0  0  0  0  0
  134.4170   74.0750  225.2020 C   0  0  0  0  0  0  0  0  0  0  0  0
  134.6960   75.4170  225.1680 C   0  0  0  0  0  0  0  0  0  0  0  0
  135.5990   75.9380  224.2680 C   0  0  0  0  0  0  0  0  0  0  0  0
  136.2770   75.1400  223.3450 C   0  0  0  0  0  0  0  0  0  0  0  0
  137.2200   75.7250  222.4120 C   0  0  0  0  0  0  0  0  0  0  0  0
  138.3240   76.3600  222.7630 C   0  0  0  0  0  0  0  0  0  0  0  0
  139.6000   76.0950  222.0720 C   0  0  0  0  0  0  0  0  0  0  0  0
  139.9800   74.7940  222.0720 N   0  0  0  0  0  0  0  0  0  0  0  0
  141.0920   74.3670  221.4470 C   0  0  0  0  0  0  0  0  0  0  0  0
  141.4940   73.0510  221.4360 C   0  0  0  0  0  0  0  0  0  0  0  0
  142.6420   72.6440  220.7830 C   0  0  0  0  0  0  0  0  0  0  0  0
  143.0410   71.3430  220.7710 F   0  0  0  0  0  0  0  0  0  0  0  0
  143.3750   73.6170  220.1370 C   0  0  0  0  0  0  0  0  0  0  0  0
  144.5170   73.3000  219.4710 F   0  0  0  0  0  0  0  0  0  0  0  0
  142.9890   74.9370  220.1360 C   0  0  0  0  0  0  0  0  0  0  0  0
  141.8320   75.3280  220.7990 C   0  0  0  0  0  0  0  0  0  0  0  0
  141.4270   76.6530  220.8100 C   0  0  0  0  0  0  0  0  0  0  0  0
  142.1730   77.4500  220.1850 O   0  0  0  0  0  0  0  0  0  0  0  0
  140.2960   77.0660  221.4530 N   0  0  0  0  0  0  0  0  0  0  0  0
  139.8820   78.4290  221.4680 C   0  0  0  0  0  0  0  0  0  0  0  0
  140.8130   79.4220  222.1050 C   0  0  0  0  0  0  0  0  0  0  0  0
  141.4310   78.9120  223.3790 C   0  0  0  0  0  0  0  0  0  0  0  0
  142.5820   79.8330  223.7450 C   0  0  0  0  0  0  0  0  0  0  0  0
  142.2350   81.2780  223.7770 C   0  0  0  0  0  0  0  0  0  0  0  0
  141.4890   81.7190  222.5400 C   0  0  0  0  0  0  0  0  0  0  0  0
  140.2790   80.7850  222.3280 C   0  0  0  0  0  0  0  0  0  0  0  0
  135.9780   73.7940  223.3980 C   0  0  0  0  0  0  0  0  0  0  0  0
  135.0690   73.2650  224.3050 C   0  0  0  0  0  0  0  0  0  0  0  0
  133.3840   75.3660  227.4940 H   0  0  0  0  0  0  0  0  0  0  0  0
  132.7800   74.0810  228.4970 H   0  0  0  0  0  0  0  0  0  0  0  0
  134.1884   76.0911  225.8737 H   0  0  0  0  0  0  0  0  0  0  0  0
  135.7927   77.0208  224.2769 H   0  0  0  0  0  0  0  0  0  0  0  0
  137.0011   75.6338  221.3379 H   0  0  0  0  0  0  0  0  0  0  0  0
  138.2913   77.0953  223.5805 H   0  0  0  0  0  0  0  0  0  0  0  0
  140.8842   72.3016  221.9620 H   0  0  0  0  0  0  0  0  0  0  0  0
  143.5982   75.6858  219.6086 H   0  0  0  0  0  0  0  0  0  0  0  0
  139.7299   78.7403  220.4240 H   0  0  0  0  0  0  0  0  0  0  0  0
  138.9785   78.4443  222.0952 H   0  0  0  0  0  0  0  0  0  0  0  0
  141.5846   79.5292  221.3283 H   0  0  0  0  0  0  0  0  0  0  0  0
  140.6814   78.9136  224.1840 H   0  0  0  0  0  0  0  0  0  0  0  0
  141.7944   77.8829  223.2417 H   0  0  0  0  0  0  0  0  0  0  0  0
  142.9467   79.5460  224.7423 H   0  0  0  0  0  0  0  0  0  0  0  0
  143.3392   79.7126  222.9562 H   0  0  0  0  0  0  0  0  0  0  0  0
  141.6040   81.4703  224.6573 H   0  0  0  0  0  0  0  0  0  0  0  0
  143.1750   81.8475  223.8224 H   0  0  0  0  0  0  0  0  0  0  0  0
  141.1389   82.7538  222.6689 H   0  0  0  0  0  0  0  0  0  0  0  0
  142.1549   81.6714  221.6657 H   0  0  0  0  0  0  0  0  0  0  0  0
  139.6336   80.7960  223.2187 H   0  0  0  0  0  0  0  0  0  0  0  0
  139.6768   81.1144  221.4684 H   0  0  0  0  0  0  0  0  0  0  0  0
  136.4793   73.1132  222.6942 H   0  0  0  0  0  0  0  0  0  0  0  0
  134.8687   72.1834  224.3049 H   0  0  0  0  0  0  0  0  0  0  0  0
  1  2  1  0
  2  3  2  0
  2  4  2  0
  2  5  1  0
  5  6  2  0
  6  7  1  0
  7  8  2  0
  8  9  1  0
  9 10  2  0
 10 11  1  0
 11 12  2  0
 12 13  1  0
 13 14  2  0
 14 15  1  0
 15 16  1  0
 15 17  2  0
 17 18  1  0
 17 19  1  0
 19 20  2  0
 20 21  1  0
 21 22  2  0
 21 23  1  0
 23 24  1  0
 24 25  1  0
 25 26  1  0
 26 27  1  0
 27 28  1  0
 28 29  1  0
 29 30  1  0
  8 31  1  0
 31 32  2  0
 32  5  1  0
 23 11  1  0
 30 25  1  0
 20 13  1  0
  1 33  1  0
  1 34  1  0
  6 35  1  0
  7 36  1  0
  9 37  1  0
 10 38  1  0
 14 39  1  0
 19 40  1  0
 24 41  1  0
 24 42  1  0
 25 43  1  0
 26 44  1  0
 26 45  1  0
 27 46  1  0
 27 47  1  0
 28 48  1  0
 28 49  1  0
 29 50  1  0
 29 51  1  0
 30 52  1  0
 30 53  1  0
 31 54  1  0
 32 55  1  0
M  END
>  <smiles>  (28) 
NS(=O)(=O)c1ccc(/C=C/c2nc3cc(F)c(F)cc3c(=O)n2CC2CCCCC2)cc1

>  <score_type>  (28) 
oracle

>  <origin>  (28) 
autodockgpu

>  <m_score__min__energy>  (28) 
-8.9800000000000004

>  <m_primary>  (28) 
energy

>  <rmsd>  (28) 
7.296847847511893

>  <m_score__min__rmsd>  (28) 
7.296847847511893

>  <meeko>  (28) 
{"free_energy": -8.28, "intermolecular_energy": -10.37, "internal_energy": -1.21, "cluster_size": 4, "cluster_id": 4, "rank_in_cluster": 2}

>  <energy>  (28) 
-8.73

>  <cluster_rmsd>  (28) 
0.0

>  <cluster>  (28) 
3

$$$$

     RDKit          3D

 55 58  0  0  0  0  0  0  0  0999 V2000
  131.3150   73.0440  228.3370 N   0  0  0  0  0  0  0  0  0  0  0  0
  132.2340   73.5480  226.9900 S   0  0  0  0  0  0  0  0  0  0  0  0
  133.0630   74.7430  227.3810 O   0  0  0  0  0  0  0  0  0  0  0  0
  131.2600   73.9410  225.9080 O   0  0  0  0  0  0  0  0  0  0  0  0
  133.2700   72.2950  226.3820 C   0  0  0  0  0  0  0  0  0  0  0  0
  133.5630   72.1700  225.0490 C   0  0  0  0  0  0  0  0  0  0  0  0
  134.3870   71.1670  224.5880 C   0  0  0  0  0  0  0  0  0  0  0  0
  134.9680   70.2270  225.4410 C   0  0  0  0  0  0  0  0  0  0  0  0
  135.8310   69.1860  224.9190 C   0  0  0  0  0  0  0  0  0  0  0  0
  136.3810   69.2010  223.7190 C   0  0  0  0  0  0  0  0  0  0  0  0
  137.3870   70.2190  223.3620 C   0  0  0  0  0  0  0  0  0  0  0  0
  136.8810   71.3220  222.7590 N   0  0  0  0  0  0  0  0  0  0  0  0
  137.6500   72.3700  222.4100 C   0  0  0  0  0  0  0  0  0  0  0  0
  137.1540   73.4980  221.7970 C   0  0  0  0  0  0  0  0  0  0  0  0
  137.9710   74.5580  221.4510 C   0  0  0  0  0  0  0  0  0  0  0  0
  137.4830   75.6750  220.8460 F   0  0  0  0  0  0  0  0  0  0  0  0
  139.3120   74.4400  221.7470 C   0  0  0  0  0  0  0  0  0  0  0  0
  140.1820   75.4380  221.4390 F   0  0  0  0  0  0  0  0  0  0  0  0
  139.8250   73.3200  222.3590 C   0  0  0  0  0  0  0  0  0  0  0  0
  138.9900   72.2630  222.6980 C   0  0  0  0  0  0  0  0  0  0  0  0
  139.4880   71.1270  223.3150 C   0  0  0  0  0  0  0  0  0  0  0  0
  140.7260   71.1330  223.5370 O   0  0  0  0  0  0  0  0  0  0  0  0
  138.6920   70.0740  223.6590 N   0  0  0  0  0  0  0  0  0  0  0  0
  139.2050   68.9040  224.2890 C   0  0  0  0  0  0  0  0  0  0  0  0
  139.9150   69.0860  225.6010 C   0  0  0  0  0  0  0  0  0  0  0  0
  139.7530   67.9090  226.5230 C   0  0  0  0  0  0  0  0  0  0  0  0
  140.7640   68.0500  227.6490 C   0  0  0  0  0  0  0  0  0  0  0  0
  140.7440   69.3650  228.3400 C   0  0  0  0  0  0  0  0  0  0  0  0
  140.7630   70.5250  227.3710 C   0  0  0  0  0  0  0  0  0  0  0  0
  139.6280   70.3350  226.3430 C   0  0  0  0  0  0  0  0  0  0  0  0
  134.6580   70.3750  226.7780 C   0  0  0  0  0  0  0  0  0  0  0  0
  133.8270   71.3850  227.2460 C   0  0  0  0  0  0  0  0  0  0  0  0
  131.3480   73.7520  229.0980 H   0  0  0  0  0  0  0  0  0  0  0  0
  131.5340   72.0800  228.6630 H   0  0  0  0  0  0  0  0  0  0  0  0
  133.1315   72.8849  224.3329 H   0  0  0  0  0  0  0  0  0  0  0  0
  134.5945   71.1045  223.5096 H   0  0  0  0  0  0  0  0  0  0  0  0
  136.0424   68.3234  225.5680 H   0  0  0  0  0  0  0  0  0  0  0  0
  136.0855   68.4452  222.9764 H   0  0  0  0  0  0  0  0  0  0  0  0
  136.0780   73.5577  221.5763 H   0  0  0  0  0  0  0  0  0  0  0  0
  140.9008   73.2612  222.5808 H   0  0  0  0  0  0  0  0  0  0  0  0
  138.3585   68.2233  224.4624 H   0  0  0  0  0  0  0  0  0  0  0  0
  139.9744   68.5251  223.6002 H   0  0  0  0  0  0  0  0  0  0  0  0
  140.9623   69.1676  225.2747 H   0  0  0  0  0  0  0  0  0  0  0  0
  138.7337   67.8964  226.9363 H   0  0  0  0  0  0  0  0  0  0  0  0
  139.9202   66.9697  225.9756 H   0  0  0  0  0  0  0  0  0  0  0  0
  140.5578   67.2680  228.3946 H   0  0  0  0  0  0  0  0  0  0  0  0
  141.7581   67.9566  227.1875 H   0  0  0  0  0  0  0  0  0  0  0  0
  139.8312   69.4295  228.9505 H   0  0  0  0  0  0  0  0  0  0  0  0
  141.6495   69.4316  228.9609 H   0  0  0  0  0  0  0  0  0  0  0  0
  140.6113   71.4666  227.9190 H   0  0  0  0  0  0  0  0  0  0  0  0
  141.7328   70.5628  226.8533 H   0  0  0  0  0  0  0  0  0  0  0  0
  138.6607   70.2525  226.8603 H   0  0  0  0  0  0  0  0  0  0  0  0
  139.5740   71.1934  225.6572 H   0  0  0  0  0  0  0  0  0  0  0  0
  135.0859   69.6652  227.5013 H   0  0  0  0  0  0  0  0  0  0  0  0
  133.6125   71.4566  228.3225 H   0  0  0  0  0  0  0  0  0  0  0  0
  1  2  1  0
  2  3  2  0
  2  4  2  0
  2  5  1  0
  5  6  2  0
  6  7  1  0
  7  8  2  0
  8  9  1  0
  9 10  2  0
 10 11  1  0
 11 12  2  0
 12 13  1  0
 13 14  2  0
 14 15  1  0
 15 16  1  0
 15 17  2  0
 17 18  1  0
 17 19  1  0
 19 20  2  0
 20 21  1  0
 21 22  2  0
 21 23  1  0
 23 24  1  0
 24 25  1  0
 25 26  1  0
 26 27  1  0
 27 28  1  0
 28 29  1  0
 29 30  1  0
  8 31  1  0
 31 32  2  0
 32  5  1  0
 23 11  1  0
 30 25  1  0
 20 13  1  0
  1 33  1  0
  1 34  1  0
  6 35  1  0
  7 36  1  0
  9 37  1  0
 10 38  1  0
 14 39  1  0
 19 40  1  0
 24 41  1  0
 24 42  1  0
 25 43  1  0
 26 44  1  0
 26 45  1  0
 27 46  1  0
 27 47  1  0
 28 48  1  0
 28 49  1  0
 29 50  1  0
 29 51  1  0
 30 52  1  0
 30 53  1  0
 31 54  1  0
 32 55  1  0
M  END
>  <smiles>  (29) 
NS(=O)(=O)c1ccc(/C=C/c2nc3cc(F)c(F)cc3c(=O)n2CC2CCCCC2)cc1

>  <score_type>  (29) 
oracle

>  <origin>  (29) 
autodockgpu

>  <m_score__min__energy>  (29) 
-8.9800000000000004

>  <m_primary>  (29) 
energy

>  <rmsd>  (29) 
10.424639764327168

>  <m_score__min__rmsd>  (29) 
10.424639764327168

>  <meeko>  (29) 
{"free_energy": -7.86, "intermolecular_energy": -9.95, "internal_energy": -1.63, "cluster_size": 1, "cluster_id": 11, "rank_in_cluster": 1}

>  <energy>  (29) 
-8.57

>  <cluster_rmsd>  (29) 
0.95

>  <cluster>  (29) 
3

$$$$

     RDKit          3D

 55 58  0  0  0  0  0  0  0  0999 V2000
  145.8010   73.3740  217.9710 N   0  0  0  0  0  0  0  0  0  0  0  0
  145.7740   72.8670  219.6000 S   0  0  0  0  0  0  0  0  0  0  0  0
  146.6650   73.7730  220.4100 O   0  0  0  0  0  0  0  0  0  0  0  0
  146.3160   71.4600  219.6380 O   0  0  0  0  0  0  0  0  0  0  0  0
  144.1740   72.8690  220.2730 C   0  0  0  0  0  0  0  0  0  0  0  0
  143.4290   74.0130  220.3890 C   0  0  0  0  0  0  0  0  0  0  0  0
  142.1620   73.9920  220.9270 C   0  0  0  0  0  0  0  0  0  0  0  0
  141.5650   72.8140  221.3820 C   0  0  0  0  0  0  0  0  0  0  0  0
  140.2280   72.8300  221.9430 C   0  0  0  0  0  0  0  0  0  0  0  0
  139.4840   71.7570  222.1350 C   0  0  0  0  0  0  0  0  0  0  0  0
  139.6750   70.9070  223.3250 C   0  0  0  0  0  0  0  0  0  0  0  0
  140.2010   71.5490  224.3960 N   0  0  0  0  0  0  0  0  0  0  0  0
  140.3970   70.9380  225.5790 C   0  0  0  0  0  0  0  0  0  0  0  0
  140.9300   71.5730  226.6770 C   0  0  0  0  0  0  0  0  0  0  0  0
  141.1180   70.9170  227.8790 C   0  0  0  0  0  0  0  0  0  0  0  0
  141.6450   71.5440  228.9660 F   0  0  0  0  0  0  0  0  0  0  0  0
  140.7480   69.5900  227.9350 C   0  0  0  0  0  0  0  0  0  0  0  0
  140.9000   68.8740  229.0800 F   0  0  0  0  0  0  0  0  0  0  0  0
  140.2140   68.9390  226.8480 C   0  0  0  0  0  0  0  0  0  0  0  0
  140.0320   69.6140  225.6460 C   0  0  0  0  0  0  0  0  0  0  0  0
  139.4960   68.9750  224.5410 C   0  0  0  0  0  0  0  0  0  0  0  0
  139.1930   67.7660  224.7110 O   0  0  0  0  0  0  0  0  0  0  0  0
  139.3070   69.6120  223.3490 N   0  0  0  0  0  0  0  0  0  0  0  0
  138.7600   68.9540  222.2100 C   0  0  0  0  0  0  0  0  0  0  0  0
  137.2820   68.6810  222.2210 C   0  0  0  0  0  0  0  0  0  0  0  0
  136.5980   69.2080  223.4530 C   0  0  0  0  0  0  0  0  0  0  0  0
  135.0990   69.1810  223.2080 C   0  0  0  0  0  0  0  0  0  0  0  0
  134.5700   67.8750  222.7350 C   0  0  0  0  0  0  0  0  0  0  0  0
  135.3740   67.3100  221.5860 C   0  0  0  0  0  0  0  0  0  0  0  0
  136.8640   67.2800  221.9870 C   0  0  0  0  0  0  0  0  0  0  0  0
  142.3350   71.6760  221.2560 C   0  0  0  0  0  0  0  0  0  0  0  0
  143.6130   71.6950  220.7130 C   0  0  0  0  0  0  0  0  0  0  0  0
  146.5020   72.8360  217.4230 H   0  0  0  0  0  0  0  0  0  0  0  0
  145.8860   74.4040  217.8480 H   0  0  0  0  0  0  0  0  0  0  0  0
  143.8522   74.9683  220.0450 H   0  0  0  0  0  0  0  0  0  0  0  0
  141.6006   74.9351  221.0011 H   0  0  0  0  0  0  0  0  0  0  0  0
  139.8044   73.8042  222.2284 H   0  0  0  0  0  0  0  0  0  0  0  0
  138.7113   71.4932  221.3978 H   0  0  0  0  0  0  0  0  0  0  0  0
  141.2145   72.6325  226.5960 H   0  0  0  0  0  0  0  0  0  0  0  0
  139.9295   67.8796  226.9296 H   0  0  0  0  0  0  0  0  0  0  0  0
  138.9749   69.5795  221.3310 H   0  0  0  0  0  0  0  0  0  0  0  0
  139.2327   67.9608  222.2009 H   0  0  0  0  0  0  0  0  0  0  0  0
  136.9483   69.2422  221.3357 H   0  0  0  0  0  0  0  0  0  0  0  0
  136.8461   68.5743  224.3172 H   0  0  0  0  0  0  0  0  0  0  0  0
  136.9314   70.2347  223.6645 H   0  0  0  0  0  0  0  0  0  0  0  0
  134.5931   69.4341  224.1514 H   0  0  0  0  0  0  0  0  0  0  0  0
  134.9028   69.9052  222.4036 H   0  0  0  0  0  0  0  0  0  0  0  0
  134.5965   67.1597  223.5702 H   0  0  0  0  0  0  0  0  0  0  0  0
  133.5428   68.0387  222.3772 H   0  0  0  0  0  0  0  0  0  0  0  0
  135.0311   66.2891  221.3619 H   0  0  0  0  0  0  0  0  0  0  0  0
  135.2405   67.9380  220.6928 H   0  0  0  0  0  0  0  0  0  0  0  0
  136.9954   66.6890  222.9054 H   0  0  0  0  0  0  0  0  0  0  0  0
  137.4724   66.8177  221.1957 H   0  0  0  0  0  0  0  0  0  0  0  0
  141.9205   70.7165  221.5989 H   0  0  0  0  0  0  0  0  0  0  0  0
  144.1834   70.7577  220.6342 H   0  0  0  0  0  0  0  0  0  0  0  0
  1  2  1  0
  2  3  2  0
  2  4  2  0
  2  5  1  0
  5  6  2  0
  6  7  1  0
  7  8  2  0
  8  9  1  0
  9 10  2  0
 10 11  1  0
 11 12  2  0
 12 13  1  0
 13 14  2  0
 14 15  1  0
 15 16  1  0
 15 17  2  0
 17 18  1  0
 17 19  1  0
 19 20  2  0
 20 21  1  0
 21 22  2  0
 21 23  1  0
 23 24  1  0
 24 25  1  0
 25 26  1  0
 26 27  1  0
 27 28  1  0
 28 29  1  0
 29 30  1  0
  8 31  1  0
 31 32  2  0
 32  5  1  0
 23 11  1  0
 30 25  1  0
 20 13  1  0
  1 33  1  0
  1 34  1  0
  6 35  1  0
  7 36  1  0
  9 37  1  0
 10 38  1  0
 14 39  1  0
 19 40  1  0
 24 41  1  0
 24 42  1  0
 25 43  1  0
 26 44  1  0
 26 45  1  0
 27 46  1  0
 27 47  1  0
 28 48  1  0
 28 49  1  0
 29 50  1  0
 29 51  1  0
 30 52  1  0
 30 53  1  0
 31 54  1  0
 32 55  1  0
M  END
>  <smiles>  (30) 
NS(=O)(=O)c1ccc(/C=C/c2nc3cc(F)c(F)cc3c(=O)n2CC2CCCCC2)cc1

>  <score_type>  (30) 
oracle

>  <origin>  (30) 
autodockgpu

>  <m_score__min__energy>  (30) 
-8.9800000000000004

>  <m_primary>  (30) 
energy

>  <rmsd>  (30) 
11.23030996311311

>  <m_score__min__rmsd>  (30) 
11.23030996311311

>  <meeko>  (30) 
{"free_energy": -8.58, "intermolecular_energy": -10.67, "internal_energy": -1.35, "cluster_size": 10, "cluster_id": 2, "rank_in_cluster": 3}

>  <energy>  (30) 
-8.05

>  <cluster_rmsd>  (30) 
1.13

>  <cluster>  (30) 
3

$$$$

     RDKit          3D

 55 58  0  0  0  0  0  0  0  0999 V2000
  146.7230   73.8210  219.7690 N   0  0  0  0  0  0  0  0  0  0  0  0
  145.6470   72.5740  219.3220 S   0  0  0  0  0  0  0  0  0  0  0  0
  146.2460   71.2470  219.7120 O   0  0  0  0  0  0  0  0  0  0  0  0
  145.4910   72.6360  217.8230 O   0  0  0  0  0  0  0  0  0  0  0  0
  144.0840   72.7450  220.0550 C   0  0  0  0  0  0  0  0  0  0  0  0
  143.3440   71.6670  220.4640 C   0  0  0  0  0  0  0  0  0  0  0  0
  142.1050   71.8260  221.0430 C   0  0  0  0  0  0  0  0  0  0  0  0
  141.5330   73.0830  221.2470 C   0  0  0  0  0  0  0  0  0  0  0  0
  140.2250   73.2120  221.8600 C   0  0  0  0  0  0  0  0  0  0  0  0
  139.3740   72.2160  222.0230 C   0  0  0  0  0  0  0  0  0  0  0  0
  139.4830   71.3090  223.1810 C   0  0  0  0  0  0  0  0  0  0  0  0
  140.1440   71.8300  224.2430 N   0  0  0  0  0  0  0  0  0  0  0  0
  140.2940   71.1590  225.3990 C   0  0  0  0  0  0  0  0  0  0  0  0
  140.9620   71.6710  226.4880 C   0  0  0  0  0  0  0  0  0  0  0  0
  141.0980   70.9560  227.6630 C   0  0  0  0  0  0  0  0  0  0  0  0
  141.7580   71.4610  228.7400 F   0  0  0  0  0  0  0  0  0  0  0  0
  140.5330   69.6990  227.7020 C   0  0  0  0  0  0  0  0  0  0  0  0
  140.6220   68.9320  228.8200 F   0  0  0  0  0  0  0  0  0  0  0  0
  139.8610   69.1710  226.6240 C   0  0  0  0  0  0  0  0  0  0  0  0
  139.7350   69.9040  225.4500 C   0  0  0  0  0  0  0  0  0  0  0  0
  139.0620   69.3890  224.3550 C   0  0  0  0  0  0  0  0  0  0  0  0
  138.5860   68.2350  224.5070 O   0  0  0  0  0  0  0  0  0  0  0  0
  138.9240   70.0850  223.1890 N   0  0  0  0  0  0  0  0  0  0  0  0
  138.2360   69.5540  222.0600 C   0  0  0  0  0  0  0  0  0  0  0  0
  138.9960   68.6060  221.1770 C   0  0  0  0  0  0  0  0  0  0  0  0
  139.1460   67.2350  221.7800 C   0  0  0  0  0  0  0  0  0  0  0  0
  139.6180   66.2900  220.6890 C   0  0  0  0  0  0  0  0  0  0  0  0
  140.8150   66.7540  219.9400 C   0  0  0  0  0  0  0  0  0  0  0  0
  140.6840   68.1850  219.4730 C   0  0  0  0  0  0  0  0  0  0  0  0
  140.3120   69.0710  220.6810 C   0  0  0  0  0  0  0  0  0  0  0  0
  142.2970   74.1530  220.8270 C   0  0  0  0  0  0  0  0  0  0  0  0
  143.5470   73.9960  220.2430 C   0  0  0  0  0  0  0  0  0  0  0  0
  146.2200   74.5950  220.2470 H   0  0  0  0  0  0  0  0  0  0  0  0
  147.3390   74.1470  218.9960 H   0  0  0  0  0  0  0  0  0  0  0  0
  143.7482   70.6532  220.3269 H   0  0  0  0  0  0  0  0  0  0  0  0
  141.5464   70.9315  221.3557 H   0  0  0  0  0  0  0  0  0  0  0  0
  139.9211   74.2083  222.2135 H   0  0  0  0  0  0  0  0  0  0  0  0
  138.5729   72.0605  221.2854 H   0  0  0  0  0  0  0  0  0  0  0  0
  141.4001   72.6778  226.4213 H   0  0  0  0  0  0  0  0  0  0  0  0
  139.4217   68.1648  226.6915 H   0  0  0  0  0  0  0  0  0  0  0  0
  137.3498   69.0201  222.4335 H   0  0  0  0  0  0  0  0  0  0  0  0
  138.0215   70.4248  221.4231 H   0  0  0  0  0  0  0  0  0  0  0  0
  138.3437   68.5596  220.2925 H   0  0  0  0  0  0  0  0  0  0  0  0
  139.8855   67.2643  222.5938 H   0  0  0  0  0  0  0  0  0  0  0  0
  138.1855   66.8924  222.1923 H   0  0  0  0  0  0  0  0  0  0  0  0
  139.8587   65.3227  221.1542 H   0  0  0  0  0  0  0  0  0  0  0  0
  138.7991   66.2268  219.9573 H   0  0  0  0  0  0  0  0  0  0  0  0
  141.6944   66.6757  220.5962 H   0  0  0  0  0  0  0  0  0  0  0  0
  140.9194   66.1186  219.0481 H   0  0  0  0  0  0  0  0  0  0  0  0
  141.6398   68.5236  219.0467 H   0  0  0  0  0  0  0  0  0  0  0  0
  139.9021   68.2564  218.7026 H   0  0  0  0  0  0  0  0  0  0  0  0
  141.0702   68.9683  221.4713 H   0  0  0  0  0  0  0  0  0  0  0  0
  140.2668   70.1305  220.3887 H   0  0  0  0  0  0  0  0  0  0  0  0
  141.9000   75.1702  220.9601 H   0  0  0  0  0  0  0  0  0  0  0  0
  144.1143   74.8838  219.9270 H   0  0  0  0  0  0  0  0  0  0  0  0
  1  2  1  0
  2  3  2  0
  2  4  2  0
  2  5  1  0
  5  6  2  0
  6  7  1  0
  7  8  2  0
  8  9  1  0
  9 10  2  0
 10 11  1  0
 11 12  2  0
 12 13  1  0
 13 14  2  0
 14 15  1  0
 15 16  1  0
 15 17  2  0
 17 18  1  0
 17 19  1  0
 19 20  2  0
 20 21  1  0
 21 22  2  0
 21 23  1  0
 23 24  1  0
 24 25  1  0
 25 26  1  0
 26 27  1  0
 27 28  1  0
 28 29  1  0
 29 30  1  0
  8 31  1  0
 31 32  2  0
 32  5  1  0
 23 11  1  0
 30 25  1  0
 20 13  1  0
  1 33  1  0
  1 34  1  0
  6 35  1  0
  7 36  1  0
  9 37  1  0
 10 38  1  0
 14 39  1  0
 19 40  1  0
 24 41  1  0
 24 42  1  0
 25 43  1  0
 26 44  1  0
 26 45  1  0
 27 46  1  0
 27 47  1  0
 28 48  1  0
 28 49  1  0
 29 50  1  0
 29 51  1  0
 30 52  1  0
 30 53  1  0
 31 54  1  0
 32 55  1  0
M  END
>  <smiles>  (31) 
NS(=O)(=O)c1ccc(/C=C/c2nc3cc(F)c(F)cc3c(=O)n2CC2CCCCC2)cc1

>  <score_type>  (31) 
oracle

>  <origin>  (31) 
autodockgpu

>  <m_score__min__energy>  (31) 
-8.9800000000000004

>  <m_primary>  (31) 
energy

>  <rmsd>  (31) 
11.033215881018936

>  <m_score__min__rmsd>  (31) 
11.033215881018936

>  <meeko>  (31) 
{"free_energy": -8.52, "intermolecular_energy": -10.61, "internal_energy": -1.71, "cluster_size": 10, "cluster_id": 2, "rank_in_cluster": 4}

>  <energy>  (31) 
-8.43

>  <cluster_rmsd>  (31) 
0.0

>  <cluster>  (31) 
4

$$$$

     RDKit          3D

 55 58  0  0  0  0  0  0  0  0999 V2000
  146.0150   73.3840  217.8850 N   0  0  0  0  0  0  0  0  0  0  0  0
  145.6200   73.1230  219.5250 S   0  0  0  0  0  0  0  0  0  0  0  0
  146.6990   73.7210  220.3900 O   0  0  0  0  0  0  0  0  0  0  0  0
  145.5690   71.6310  219.7390 O   0  0  0  0  0  0  0  0  0  0  0  0
  144.0830   73.8020  219.9570 C   0  0  0  0  0  0  0  0  0  0  0  0
  143.0700   73.0450  220.4870 C   0  0  0  0  0  0  0  0  0  0  0  0
  141.8580   73.6050  220.8230 C   0  0  0  0  0  0  0  0  0  0  0  0
  141.5880   74.9630  220.6470 C   0  0  0  0  0  0  0  0  0  0  0  0
  140.3000   75.5170  221.0120 C   0  0  0  0  0  0  0  0  0  0  0  0
  140.0780   76.2540  222.0850 C   0  0  0  0  0  0  0  0  0  0  0  0
  138.7340   76.7880  222.3720 C   0  0  0  0  0  0  0  0  0  0  0  0
  137.9120   75.9250  223.0190 N   0  0  0  0  0  0  0  0  0  0  0  0
  136.6670   76.2640  223.4010 C   0  0  0  0  0  0  0  0  0  0  0  0
  135.8190   75.4020  224.0570 C   0  0  0  0  0  0  0  0  0  0  0  0
  134.5450   75.7810  224.4380 C   0  0  0  0  0  0  0  0  0  0  0  0
  133.7050   74.9300  225.0870 F   0  0  0  0  0  0  0  0  0  0  0  0
  134.1550   77.0670  224.1310 C   0  0  0  0  0  0  0  0  0  0  0  0
  132.9190   77.5180  224.4710 F   0  0  0  0  0  0  0  0  0  0  0  0
  134.9900   77.9430  223.4760 C   0  0  0  0  0  0  0  0  0  0  0  0
  136.2670   77.5440  223.1000 C   0  0  0  0  0  0  0  0  0  0  0  0
  137.1210   78.4110  222.4390 C   0  0  0  0  0  0  0  0  0  0  0  0
  136.6570   79.5590  222.2150 O   0  0  0  0  0  0  0  0  0  0  0  0
  138.3800   78.0470  222.0570 N   0  0  0  0  0  0  0  0  0  0  0  0
  139.2570   78.9370  221.3730 C   0  0  0  0  0  0  0  0  0  0  0  0
  140.5210   79.3340  222.0830 C   0  0  0  0  0  0  0  0  0  0  0  0
  140.4030   79.2480  223.5800 C   0  0  0  0  0  0  0  0  0  0  0  0
  141.8010   79.3380  224.1680 C   0  0  0  0  0  0  0  0  0  0  0  0
  142.6030   80.4950  223.6900 C   0  0  0  0  0  0  0  0  0  0  0  0
  142.5780   80.6310  222.1850 C   0  0  0  0  0  0  0  0  0  0  0  0
  141.1090   80.6410  221.7100 C   0  0  0  0  0  0  0  0  0  0  0  0
  142.6230   75.7040  220.1120 C   0  0  0  0  0  0  0  0  0  0  0  0
  143.8470   75.1430  219.7730 C   0  0  0  0  0  0  0  0  0  0  0  0
  145.9610   74.3930  217.6430 H   0  0  0  0  0  0  0  0  0  0  0  0
  145.4940   72.7730  217.2210 H   0  0  0  0  0  0  0  0  0  0  0  0
  143.2290   71.9684  220.6470 H   0  0  0  0  0  0  0  0  0  0  0  0
  141.0743   72.9589  221.2453 H   0  0  0  0  0  0  0  0  0  0  0  0
  139.4473   75.3091  220.3489 H   0  0  0  0  0  0  0  0  0  0  0  0
  140.9071   76.4725  222.7741 H   0  0  0  0  0  0  0  0  0  0  0  0
  136.1641   74.3827  224.2848 H   0  0  0  0  0  0  0  0  0  0  0  0
  134.6455   78.9627  223.2492 H   0  0  0  0  0  0  0  0  0  0  0  0
  139.5457   78.4556  220.4270 H   0  0  0  0  0  0  0  0  0  0  0  0
  138.6863   79.8711  221.2648 H   0  0  0  0  0  0  0  0  0  0  0  0
  141.2275   78.5748  221.7163 H   0  0  0  0  0  0  0  0  0  0  0  0
  139.7867   80.0788  223.9541 H   0  0  0  0  0  0  0  0  0  0  0  0
  139.9265   78.3004  223.8716 H   0  0  0  0  0  0  0  0  0  0  0  0
  141.7085   79.4137  225.2615 H   0  0  0  0  0  0  0  0  0  0  0  0
  142.3346   78.4337  223.8402 H   0  0  0  0  0  0  0  0  0  0  0  0
  142.1956   81.4150  224.1346 H   0  0  0  0  0  0  0  0  0  0  0  0
  143.6468   80.3281  223.9943 H   0  0  0  0  0  0  0  0  0  0  0  0
  143.0680   81.5708  221.8906 H   0  0  0  0  0  0  0  0  0  0  0  0
  143.1136   79.7875  221.7248 H   0  0  0  0  0  0  0  0  0  0  0  0
  140.5589   81.4564  222.2025 H   0  0  0  0  0  0  0  0  0  0  0  0
  141.0504   80.8005  220.6232 H   0  0  0  0  0  0  0  0  0  0  0  0
  142.4719   76.7811  219.9479 H   0  0  0  0  0  0  0  0  0  0  0  0
  144.6382   75.7805  219.3516 H   0  0  0  0  0  0  0  0  0  0  0  0
  1  2  1  0
  2  3  2  0
  2  4  2  0
  2  5  1  0
  5  6  2  0
  6  7  1  0
  7  8  2  0
  8  9  1  0
  9 10  2  0
 10 11  1  0
 11 12  2  0
 12 13  1  0
 13 14  2  0
 14 15  1  0
 15 16  1  0
 15 17  2  0
 17 18  1  0
 17 19  1  0
 19 20  2  0
 20 21  1  0
 21 22  2  0
 21 23  1  0
 23 24  1  0
 24 25  1  0
 25 26  1  0
 26 27  1  0
 27 28  1  0
 28 29  1  0
 29 30  1  0
  8 31  1  0
 31 32  2  0
 32  5  1  0
 23 11  1  0
 30 25  1  0
 20 13  1  0
  1 33  1  0
  1 34  1  0
  6 35  1  0
  7 36  1  0
  9 37  1  0
 10 38  1  0
 14 39  1  0
 19 40  1  0
 24 41  1  0
 24 42  1  0
 25 43  1  0
 26 44  1  0
 26 45  1  0
 27 46  1  0
 27 47  1  0
 28 48  1  0
 28 49  1  0
 29 50  1  0
 29 51  1  0
 30 52  1  0
 30 53  1  0
 31 54  1  0
 32 55  1  0
M  END
>  <smiles>  (32) 
NS(=O)(=O)c1ccc(/C=C/c2nc3cc(F)c(F)cc3c(=O)n2CC2CCCCC2)cc1

>  <score_type>  (32) 
oracle

>  <origin>  (32) 
autodockgpu

>  <m_score__min__energy>  (32) 
-8.9800000000000004

>  <m_primary>  (32) 
energy

>  <rmsd>  (32) 
6.994415371789239

>  <m_score__min__rmsd>  (32) 
6.994415371789239

>  <meeko>  (32) 
{"free_energy": -7.88, "intermolecular_energy": -9.97, "internal_energy": -1.3, "cluster_size": 3, "cluster_id": 9, "rank_in_cluster": 2}

>  <energy>  (32) 
-8.28

>  <cluster_rmsd>  (32) 
0.33

>  <cluster>  (32) 
4

$$$$

     RDKit          3D

 55 58  0  0  0  0  0  0  0  0999 V2000
  146.2010   72.9500  222.1100 N   0  0  0  0  0  0  0  0  0  0  0  0
  145.3620   73.4120  220.6980 S   0  0  0  0  0  0  0  0  0  0  0  0
  145.9100   72.6370  219.5270 O   0  0  0  0  0  0  0  0  0  0  0  0
  145.6140   74.8840  220.4920 O   0  0  0  0  0  0  0  0  0  0  0  0
  143.6510   73.1480  220.8210 C   0  0  0  0  0  0  0  0  0  0  0  0
  142.7520   74.1820  220.8510 C   0  0  0  0  0  0  0  0  0  0  0  0
  141.3980   73.9500  220.9490 C   0  0  0  0  0  0  0  0  0  0  0  0
  140.8650   72.6620  221.0240 C   0  0  0  0  0  0  0  0  0  0  0  0
  139.4330   72.4570  221.1270 C   0  0  0  0  0  0  0  0  0  0  0  0
  138.8630   71.3150  221.4640 C   0  0  0  0  0  0  0  0  0  0  0  0
  139.1820   70.6600  222.7460 C   0  0  0  0  0  0  0  0  0  0  0  0
  139.8200   71.4550  223.6400 N   0  0  0  0  0  0  0  0  0  0  0  0
  140.1430   71.0350  224.8770 C   0  0  0  0  0  0  0  0  0  0  0  0
  140.7910   71.8270  225.7970 C   0  0  0  0  0  0  0  0  0  0  0  0
  141.1080   71.3660  227.0610 C   0  0  0  0  0  0  0  0  0  0  0  0
  141.7480   72.1480  227.9730 F   0  0  0  0  0  0  0  0  0  0  0  0
  140.7470   70.0710  227.3660 C   0  0  0  0  0  0  0  0  0  0  0  0
  141.0230   69.5410  228.5870 F   0  0  0  0  0  0  0  0  0  0  0  0
  140.0990   69.2650  226.4590 C   0  0  0  0  0  0  0  0  0  0  0  0
  139.7890   69.7450  225.1920 C   0  0  0  0  0  0  0  0  0  0  0  0
  139.1370   68.9480  224.2660 C   0  0  0  0  0  0  0  0  0  0  0  0
  138.8560   67.7860  224.6560 O   0  0  0  0  0  0  0  0  0  0  0  0
  138.8210   69.3920  223.0140 N   0  0  0  0  0  0  0  0  0  0  0  0
  138.1540   68.5710  222.0600 C   0  0  0  0  0  0  0  0  0  0  0  0
  139.0020   67.9230  221.0010 C   0  0  0  0  0  0  0  0  0  0  0  0
  139.6630   66.6570  221.4750 C   0  0  0  0  0  0  0  0  0  0  0  0
  140.2040   65.9250  220.2590 C   0  0  0  0  0  0  0  0  0  0  0  0
  141.0540   66.7520  219.3630 C   0  0  0  0  0  0  0  0  0  0  0  0
  140.4150   68.0790  219.0260 C   0  0  0  0  0  0  0  0  0  0  0  0
  140.0070   68.7840  220.3370 C   0  0  0  0  0  0  0  0  0  0  0  0
  141.7910   71.6390  220.9920 C   0  0  0  0  0  0  0  0  0  0  0  0
  143.1570   71.8690  220.8930 C   0  0  0  0  0  0  0  0  0  0  0  0
  145.9220   71.9960  222.4170 H   0  0  0  0  0  0  0  0  0  0  0  0
  146.1630   73.6550  222.8760 H   0  0  0  0  0  0  0  0  0  0  0  0
  143.1191   75.2175  220.7957 H   0  0  0  0  0  0  0  0  0  0  0  0
  140.7124   74.8100  220.9689 H   0  0  0  0  0  0  0  0  0  0  0  0
  138.7764   73.3123  220.9092 H   0  0  0  0  0  0  0  0  0  0  0  0
  138.1408   70.8460  220.7796 H   0  0  0  0  0  0  0  0  0  0  0  0
  141.0643   72.8556  225.5188 H   0  0  0  0  0  0  0  0  0  0  0  0
  139.8251   68.2367  226.7375 H   0  0  0  0  0  0  0  0  0  0  0  0
  137.6439   67.7684  222.6128 H   0  0  0  0  0  0  0  0  0  0  0  0
  137.4887   69.2547  221.5124 H   0  0  0  0  0  0  0  0  0  0  0  0
  138.2531   67.6916  220.2293 H   0  0  0  0  0  0  0  0  0  0  0  0
  140.4875   66.9009  222.1611 H   0  0  0  0  0  0  0  0  0  0  0  0
  138.9385   66.0252  222.0097 H   0  0  0  0  0  0  0  0  0  0  0  0
  140.8046   65.0734  220.6110 H   0  0  0  0  0  0  0  0  0  0  0  0
  139.3295   65.6218  219.6646 H   0  0  0  0  0  0  0  0  0  0  0  0
  142.0157   66.9398  219.8628 H   0  0  0  0  0  0  0  0  0  0  0  0
  141.1898   66.1969  218.4231 H   0  0  0  0  0  0  0  0  0  0  0  0
  141.1332   68.7061  218.4775 H   0  0  0  0  0  0  0  0  0  0  0  0
  139.5267   67.9164  218.3979 H   0  0  0  0  0  0  0  0  0  0  0  0
  140.8854   68.9087  220.9873 H   0  0  0  0  0  0  0  0  0  0  0  0
  139.5925   69.7820  220.1317 H   0  0  0  0  0  0  0  0  0  0  0  0
  141.4328   70.6004  221.0471 H   0  0  0  0  0  0  0  0  0  0  0  0
  143.8515   71.0162  220.8720 H   0  0  0  0  0  0  0  0  0  0  0  0
  1  2  1  0
  2  3  2  0
  2  4  2  0
  2  5  1  0
  5  6  2  0
  6  7  1  0
  7  8  2  0
  8  9  1  0
  9 10  2  0
 10 11  1  0
 11 12  2  0
 12 13  1  0
 13 14  2  0
 14 15  1  0
 15 16  1  0
 15 17  2  0
 17 18  1  0
 17 19  1  0
 19 20  2  0
 20 21  1  0
 21 22  2  0
 21 23  1  0
 23 24  1  0
 24 25  1  0
 25 26  1  0
 26 27  1  0
 27 28  1  0
 28 29  1  0
 29 30  1  0
  8 31  1  0
 31 32  2  0
 32  5  1  0
 23 11  1  0
 30 25  1  0
 20 13  1  0
  1 33  1  0
  1 34  1  0
  6 35  1  0
  7 36  1  0
  9 37  1  0
 10 38  1  0
 14 39  1  0
 19 40  1  0
 24 41  1  0
 24 42  1  0
 25 43  1  0
 26 44  1  0
 26 45  1  0
 27 46  1  0
 27 47  1  0
 28 48  1  0
 28 49  1  0
 29 50  1  0
 29 51  1  0
 30 52  1  0
 30 53  1  0
 31 54  1  0
 32 55  1  0
M  END
>  <smiles>  (33) 
NS(=O)(=O)c1ccc(/C=C/c2nc3cc(F)c(F)cc3c(=O)n2CC2CCCCC2)cc1

>  <score_type>  (33) 
oracle

>  <origin>  (33) 
autodockgpu

>  <m_score__min__energy>  (33) 
-8.9800000000000004

>  <m_primary>  (33) 
energy

>  <rmsd>  (33) 
11.09219592725423

>  <m_score__min__rmsd>  (33) 
11.09219592725423

>  <meeko>  (33) 
{"free_energy": -7.99, "intermolecular_energy": -10.08, "internal_energy": -1.62, "cluster_size": 1, "cluster_id": 8, "rank_in_cluster": 1}

>  <energy>  (33) 
-8.19

>  <cluster_rmsd>  (33) 
0.91

>  <cluster>  (33) 
4

$$$$

     RDKit          3D

 55 58  0  0  0  0  0  0  0  0999 V2000
  139.1790   67.2550  226.4080 N   0  0  0  0  0  0  0  0  0  0  0  0
  140.1650   68.6420  226.5380 S   0  0  0  0  0  0  0  0  0  0  0  0
  141.6110   68.2210  226.5080 O   0  0  0  0  0  0  0  0  0  0  0  0
  139.8540   69.2860  227.8660 O   0  0  0  0  0  0  0  0  0  0  0  0
  139.8670   69.7940  225.2750 C   0  0  0  0  0  0  0  0  0  0  0  0
  140.6150   70.9330  225.1310 C   0  0  0  0  0  0  0  0  0  0  0  0
  140.3610   71.8340  224.1210 C   0  0  0  0  0  0  0  0  0  0  0  0
  139.3360   71.6440  223.1910 C   0  0  0  0  0  0  0  0  0  0  0  0
  139.0980   72.6150  222.1410 C   0  0  0  0  0  0  0  0  0  0  0  0
  139.6180   73.8280  222.1120 C   0  0  0  0  0  0  0  0  0  0  0  0
  140.9050   74.0830  221.4370 C   0  0  0  0  0  0  0  0  0  0  0  0
  141.6950   72.9900  221.3010 N   0  0  0  0  0  0  0  0  0  0  0  0
  142.8810   73.0310  220.6680 C   0  0  0  0  0  0  0  0  0  0  0  0
  143.6970   71.9330  220.5210 C   0  0  0  0  0  0  0  0  0  0  0  0
  144.9100   72.0080  219.8630 C   0  0  0  0  0  0  0  0  0  0  0  0
  145.7180   70.9230  219.7170 F   0  0  0  0  0  0  0  0  0  0  0  0
  145.2750   73.2370  219.3560 C   0  0  0  0  0  0  0  0  0  0  0  0
  146.4520   73.3960  218.6950 F   0  0  0  0  0  0  0  0  0  0  0  0
  144.4720   74.3460  219.4930 C   0  0  0  0  0  0  0  0  0  0  0  0
  143.2550   74.2520  220.1580 C   0  0  0  0  0  0  0  0  0  0  0  0
  142.4340   75.3580  220.3060 C   0  0  0  0  0  0  0  0  0  0  0  0
  142.8690   76.4240  219.8000 O   0  0  0  0  0  0  0  0  0  0  0  0
  141.2350   75.2950  220.9550 N   0  0  0  0  0  0  0  0  0  0  0  0
  140.3920   76.4330  221.1120 C   0  0  0  0  0  0  0  0  0  0  0  0
  141.0340   77.7000  221.6010 C   0  0  0  0  0  0  0  0  0  0  0  0
  141.1090   77.7770  223.1020 C   0  0  0  0  0  0  0  0  0  0  0  0
  142.0550   78.9070  223.4690 C   0  0  0  0  0  0  0  0  0  0  0  0
  141.7560   80.2070  222.8110 C   0  0  0  0  0  0  0  0  0  0  0  0
  141.5470   80.0630  221.3220 C   0  0  0  0  0  0  0  0  0  0  0  0
  140.4870   78.9700  221.0700 C   0  0  0  0  0  0  0  0  0  0  0  0
  138.5970   70.4900  223.3580 C   0  0  0  0  0  0  0  0  0  0  0  0
  138.8510   69.5790  224.3750 C   0  0  0  0  0  0  0  0  0  0  0  0
  139.5800   66.4590  226.9440 H   0  0  0  0  0  0  0  0  0  0  0  0
  138.9260   67.0050  225.4290 H   0  0  0  0  0  0  0  0  0  0  0  0
  141.4352   71.1317  225.8366 H   0  0  0  0  0  0  0  0  0  0  0  0
  140.9872   72.7350  224.0438 H   0  0  0  0  0  0  0  0  0  0  0  0
  138.4386   72.3206  221.3112 H   0  0  0  0  0  0  0  0  0  0  0  0
  139.0851   74.6591  222.5971 H   0  0  0  0  0  0  0  0  0  0  0  0
  143.3747   70.9680  220.9391 H   0  0  0  0  0  0  0  0  0  0  0  0
  144.7945   75.3108  219.0746 H   0  0  0  0  0  0  0  0  0  0  0  0
  139.9399   76.6477  220.1325 H   0  0  0  0  0  0  0  0  0  0  0  0
  139.6803   76.1521  221.9023 H   0  0  0  0  0  0  0  0  0  0  0  0
  142.0450   77.6118  221.1767 H   0  0  0  0  0  0  0  0  0  0  0  0
  140.1097   77.9780  223.5156 H   0  0  0  0  0  0  0  0  0  0  0  0
  141.4737   76.8249  223.5150 H   0  0  0  0  0  0  0  0  0  0  0  0
  142.0058   79.0549  224.5579 H   0  0  0  0  0  0  0  0  0  0  0  0
  143.0522   78.6034  223.1178 H   0  0  0  0  0  0  0  0  0  0  0  0
  140.8425   80.6271  223.2571 H   0  0  0  0  0  0  0  0  0  0  0  0
  142.6209   80.8687  222.9663 H   0  0  0  0  0  0  0  0  0  0  0  0
  141.1986   81.0189  220.9038 H   0  0  0  0  0  0  0  0  0  0  0  0
  142.4941   79.7827  220.8379 H   0  0  0  0  0  0  0  0  0  0  0  0
  139.5519   79.2245  221.5903 H   0  0  0  0  0  0  0  0  0  0  0  0
  140.2647   78.8812  219.9964 H   0  0  0  0  0  0  0  0  0  0  0  0
  137.7742   70.2838  222.6577 H   0  0  0  0  0  0  0  0  0  0  0  0
  138.2313   68.6743  224.4612 H   0  0  0  0  0  0  0  0  0  0  0  0
  1  2  1  0
  2  3  2  0
  2  4  2  0
  2  5  1  0
  5  6  2  0
  6  7  1  0
  7  8  2  0
  8  9  1  0
  9 10  2  0
 10 11  1  0
 11 12  2  0
 12 13  1  0
 13 14  2  0
 14 15  1  0
 15 16  1  0
 15 17  2  0
 17 18  1  0
 17 19  1  0
 19 20  2  0
 20 21  1  0
 21 22  2  0
 21 23  1  0
 23 24  1  0
 24 25  1  0
 25 26  1  0
 26 27  1  0
 27 28  1  0
 28 29  1  0
 29 30  1  0
  8 31  1  0
 31 32  2  0
 32  5  1  0
 23 11  1  0
 30 25  1  0
 20 13  1  0
  1 33  1  0
  1 34  1  0
  6 35  1  0
  7 36  1  0
  9 37  1  0
 10 38  1  0
 14 39  1  0
 19 40  1  0
 24 41  1  0
 24 42  1  0
 25 43  1  0
 26 44  1  0
 26 45  1  0
 27 46  1  0
 27 47  1  0
 28 48  1  0
 28 49  1  0
 29 50  1  0
 29 51  1  0
 30 52  1  0
 30 53  1  0
 31 54  1  0
 32 55  1  0
M  END
>  <smiles>  (34) 
NS(=O)(=O)c1ccc(/C=C/c2nc3cc(F)c(F)cc3c(=O)n2CC2CCCCC2)cc1

>  <score_type>  (34) 
oracle

>  <origin>  (34) 
autodockgpu

>  <m_score__min__energy>  (34) 
-8.9800000000000004

>  <m_primary>  (34) 
energy

>  <rmsd>  (34) 
7.674849746580768

>  <m_score__min__rmsd>  (34) 
7.674849746580768

>  <meeko>  (34) 
{"free_energy": -8.73, "intermolecular_energy": -10.81, "internal_energy": -1.3, "cluster_size": 3, "cluster_id": 3, "rank_in_cluster": 1}

>  <energy>  (34) 
-7.97

>  <cluster_rmsd>  (34) 
0.94

>  <cluster>  (34) 
4

$$$$

     RDKit          3D

 55 58  0  0  0  0  0  0  0  0999 V2000
  139.2190   67.1400  226.4300 N   0  0  0  0  0  0  0  0  0  0  0  0
  140.3460   68.4140  226.5660 S   0  0  0  0  0  0  0  0  0  0  0  0
  141.7380   67.8500  226.4570 O   0  0  0  0  0  0  0  0  0  0  0  0
  140.1560   69.0320  227.9290 O   0  0  0  0  0  0  0  0  0  0  0  0
  140.1170   69.6400  225.3600 C   0  0  0  0  0  0  0  0  0  0  0  0
  139.2430   69.4870  224.3160 C   0  0  0  0  0  0  0  0  0  0  0  0
  139.0770   70.4730  223.3690 C   0  0  0  0  0  0  0  0  0  0  0  0
  139.7820   71.6780  223.4150 C   0  0  0  0  0  0  0  0  0  0  0  0
  139.5820   72.6930  222.4000 C   0  0  0  0  0  0  0  0  0  0  0  0
  140.4440   72.9720  221.4400 C   0  0  0  0  0  0  0  0  0  0  0  0
  140.8270   74.3670  221.1500 C   0  0  0  0  0  0  0  0  0  0  0  0
  140.2750   75.2860  221.9790 N   0  0  0  0  0  0  0  0  0  0  0  0
  140.5540   76.5990  221.8890 C   0  0  0  0  0  0  0  0  0  0  0  0
  140.0030   77.5460  222.7210 C   0  0  0  0  0  0  0  0  0  0  0  0
  140.3110   78.8890  222.6020 C   0  0  0  0  0  0  0  0  0  0  0  0
  139.7670   79.8270  223.4250 F   0  0  0  0  0  0  0  0  0  0  0  0
  141.2000   79.2440  221.6100 C   0  0  0  0  0  0  0  0  0  0  0  0
  141.5550   80.5430  221.4280 F   0  0  0  0  0  0  0  0  0  0  0  0
  141.7610   78.3110  220.7700 C   0  0  0  0  0  0  0  0  0  0  0  0
  141.4390   76.9650  220.9020 C   0  0  0  0  0  0  0  0  0  0  0  0
  141.9930   76.0120  220.0650 C   0  0  0  0  0  0  0  0  0  0  0  0
  142.7920   76.4520  219.1990 O   0  0  0  0  0  0  0  0  0  0  0  0
  141.6950   74.6840  220.1710 N   0  0  0  0  0  0  0  0  0  0  0  0
  142.2610   73.7030  219.3080 C   0  0  0  0  0  0  0  0  0  0  0  0
  143.5750   73.1020  219.7210 C   0  0  0  0  0  0  0  0  0  0  0  0
  144.4540   74.0710  220.4640 C   0  0  0  0  0  0  0  0  0  0  0  0
  145.5790   73.2840  221.1140 C   0  0  0  0  0  0  0  0  0  0  0  0
  146.3180   72.3810  220.1920 C   0  0  0  0  0  0  0  0  0  0  0  0
  145.3930   71.5240  219.3600 C   0  0  0  0  0  0  0  0  0  0  0  0
  144.3640   72.4370  218.6590 C   0  0  0  0  0  0  0  0  0  0  0  0
  140.6570   71.8080  224.4750 C   0  0  0  0  0  0  0  0  0  0  0  0
  140.8250   70.8150  225.4320 C   0  0  0  0  0  0  0  0  0  0  0  0
  139.3390   66.4490  227.1970 H   0  0  0  0  0  0  0  0  0  0  0  0
  139.1850   66.7030  225.4850 H   0  0  0  0  0  0  0  0  0  0  0  0
  138.6616   68.5569  224.2325 H   0  0  0  0  0  0  0  0  0  0  0  0
  138.3644   70.3058  222.5478 H   0  0  0  0  0  0  0  0  0  0  0  0
  138.6467   73.2712  222.4318 H   0  0  0  0  0  0  0  0  0  0  0  0
  140.8822   72.1543  220.8489 H   0  0  0  0  0  0  0  0  0  0  0  0
  139.2980   77.2262  223.5025 H   0  0  0  0  0  0  0  0  0  0  0  0
  142.4677   78.6310  219.9902 H   0  0  0  0  0  0  0  0  0  0  0  0
  141.5347   72.8817  219.2190 H   0  0  0  0  0  0  0  0  0  0  0  0
  142.4757   74.2387  218.3715 H   0  0  0  0  0  0  0  0  0  0  0  0
  143.2466   72.2971  220.3950 H   0  0  0  0  0  0  0  0  0  0  0  0
  144.8715   74.8088  219.7630 H   0  0  0  0  0  0  0  0  0  0  0  0
  143.8712   74.6054  221.2287 H   0  0  0  0  0  0  0  0  0  0  0  0
  146.2966   74.0004  221.5405 H   0  0  0  0  0  0  0  0  0  0  0  0
  145.1100   72.6389  221.8716 H   0  0  0  0  0  0  0  0  0  0  0  0
  146.9346   72.9930  219.5173 H   0  0  0  0  0  0  0  0  0  0  0  0
  146.9363   71.7090  220.8053 H   0  0  0  0  0  0  0  0  0  0  0  0
  145.9760   70.9763  218.6049 H   0  0  0  0  0  0  0  0  0  0  0  0
  144.8724   70.8011  220.0053 H   0  0  0  0  0  0  0  0  0  0  0  0
  144.8829   73.1898  218.0474 H   0  0  0  0  0  0  0  0  0  0  0  0
  143.7107   71.8519  217.9950 H   0  0  0  0  0  0  0  0  0  0  0  0
  141.2440   72.7339  224.5653 H   0  0  0  0  0  0  0  0  0  0  0  0
  141.5342   70.9717  226.2581 H   0  0  0  0  0  0  0  0  0  0  0  0
  1  2  1  0
  2  3  2  0
  2  4  2  0
  2  5  1  0
  5  6  2  0
  6  7  1  0
  7  8  2  0
  8  9  1  0
  9 10  2  0
 10 11  1  0
 11 12  2  0
 12 13  1  0
 13 14  2  0
 14 15  1  0
 15 16  1  0
 15 17  2  0
 17 18  1  0
 17 19  1  0
 19 20  2  0
 20 21  1  0
 21 22  2  0
 21 23  1  0
 23 24  1  0
 24 25  1  0
 25 26  1  0
 26 27  1  0
 27 28  1  0
 28 29  1  0
 29 30  1  0
  8 31  1  0
 31 32  2  0
 32  5  1  0
 23 11  1  0
 30 25  1  0
 20 13  1  0
  1 33  1  0
  1 34  1  0
  6 35  1  0
  7 36  1  0
  9 37  1  0
 10 38  1  0
 14 39  1  0
 19 40  1  0
 24 41  1  0
 24 42  1  0
 25 43  1  0
 26 44  1  0
 26 45  1  0
 27 46  1  0
 27 47  1  0
 28 48  1  0
 28 49  1  0
 29 50  1  0
 29 51  1  0
 30 52  1  0
 30 53  1  0
 31 54  1  0
 32 55  1  0
M  END
>  <smiles>  (35) 
NS(=O)(=O)c1ccc(/C=C/c2nc3cc(F)c(F)cc3c(=O)n2CC2CCCCC2)cc1

>  <score_type>  (35) 
oracle

>  <origin>  (35) 
autodockgpu

>  <m_score__min__energy>  (35) 
-8.9800000000000004

>  <m_primary>  (35) 
energy

>  <rmsd>  (35) 
5.528950641406694

>  <m_score__min__rmsd>  (35) 
5.528950641406694

>  <meeko>  (35) 
{"free_energy": -8.98, "intermolecular_energy": -11.07, "internal_energy": -1.26, "cluster_size": 17, "cluster_id": 1, "rank_in_cluster": 1}

>  <energy>  (35) 
-8.37

>  <cluster_rmsd>  (35) 
0.0

>  <cluster>  (35) 
5

$$$$

     RDKit          3D

 55 58  0  0  0  0  0  0  0  0999 V2000
  145.9430   73.3710  218.1740 N   0  0  0  0  0  0  0  0  0  0  0  0
  145.8130   72.7470  219.7570 S   0  0  0  0  0  0  0  0  0  0  0  0
  146.6820   73.5640  220.6780 O   0  0  0  0  0  0  0  0  0  0  0  0
  146.3150   71.3250  219.7170 O   0  0  0  0  0  0  0  0  0  0  0  0
  144.1800   72.7470  220.3430 C   0  0  0  0  0  0  0  0  0  0  0  0
  143.5520   71.6040  220.7620 C   0  0  0  0  0  0  0  0  0  0  0  0
  142.2540   71.6270  221.2240 C   0  0  0  0  0  0  0  0  0  0  0  0
  141.5080   72.8050  221.2920 C   0  0  0  0  0  0  0  0  0  0  0  0
  140.1440   72.7900  221.7830 C   0  0  0  0  0  0  0  0  0  0  0  0
  139.4400   71.6960  222.0050 C   0  0  0  0  0  0  0  0  0  0  0  0
  139.6480   70.8980  223.2280 C   0  0  0  0  0  0  0  0  0  0  0  0
  140.1780   71.5880  224.2670 N   0  0  0  0  0  0  0  0  0  0  0  0
  140.3890   71.0290  225.4720 C   0  0  0  0  0  0  0  0  0  0  0  0
  140.9260   71.7140  226.5380 C   0  0  0  0  0  0  0  0  0  0  0  0
  141.1290   71.1100  227.7650 C   0  0  0  0  0  0  0  0  0  0  0  0
  141.6600   71.7860  228.8200 F   0  0  0  0  0  0  0  0  0  0  0  0
  140.7700   69.7840  227.8800 C   0  0  0  0  0  0  0  0  0  0  0  0
  140.9380   69.1170  229.0520 F   0  0  0  0  0  0  0  0  0  0  0  0
  140.2320   69.0840  226.8250 C   0  0  0  0  0  0  0  0  0  0  0  0
  140.0350   69.7060  225.5980 C   0  0  0  0  0  0  0  0  0  0  0  0
  139.4950   69.0170  224.5260 C   0  0  0  0  0  0  0  0  0  0  0  0
  139.2030   67.8140  224.7490 O   0  0  0  0  0  0  0  0  0  0  0  0
  139.2910   69.6020  223.3090 N   0  0  0  0  0  0  0  0  0  0  0  0
  138.7390   68.8930  222.2040 C   0  0  0  0  0  0  0  0  0  0  0  0
  137.3480   68.3480  222.3650 C   0  0  0  0  0  0  0  0  0  0  0  0
  136.9430   67.4370  221.2380 C   0  0  0  0  0  0  0  0  0  0  0  0
  135.6870   66.6940  221.6610 C   0  0  0  0  0  0  0  0  0  0  0  0
  134.5890   67.5640  222.1600 C   0  0  0  0  0  0  0  0  0  0  0  0
  135.0680   68.5630  223.1880 C   0  0  0  0  0  0  0  0  0  0  0  0
  136.2720   69.3350  222.6100 C   0  0  0  0  0  0  0  0  0  0  0  0
  142.1620   73.9420  220.8630 C   0  0  0  0  0  0  0  0  0  0  0  0
  143.4700   73.9220  220.3980 C   0  0  0  0  0  0  0  0  0  0  0  0
  145.7310   74.3890  218.1540 H   0  0  0  0  0  0  0  0  0  0  0  0
  145.4160   72.8270  217.4590 H   0  0  0  0  0  0  0  0  0  0  0  0
  144.0951   70.6480  220.7290 H   0  0  0  0  0  0  0  0  0  0  0  0
  141.7897   70.6847  221.5504 H   0  0  0  0  0  0  0  0  0  0  0  0
  139.6622   73.7581  221.9846 H   0  0  0  0  0  0  0  0  0  0  0  0
  138.6885   71.3751  221.2686 H   0  0  0  0  0  0  0  0  0  0  0  0
  141.2013   72.7713  226.4103 H   0  0  0  0  0  0  0  0  0  0  0  0
  139.9564   68.0268  226.9533 H   0  0  0  0  0  0  0  0  0  0  0  0
  138.7289   69.5776  221.3430 H   0  0  0  0  0  0  0  0  0  0  0  0
  139.3796   68.0065  222.0866 H   0  0  0  0  0  0  0  0  0  0  0  0
  137.4430   67.7747  223.2990 H   0  0  0  0  0  0  0  0  0  0  0  0
  136.7391   68.0298  220.3341 H   0  0  0  0  0  0  0  0  0  0  0  0
  137.7507   66.7245  221.0144 H   0  0  0  0  0  0  0  0  0  0  0  0
  135.3118   66.1329  220.7924 H   0  0  0  0  0  0  0  0  0  0  0  0
  135.9771   66.0467  222.5017 H   0  0  0  0  0  0  0  0  0  0  0  0
  134.1578   68.1118  221.3091 H   0  0  0  0  0  0  0  0  0  0  0  0
  133.8418   66.9174  222.6432 H   0  0  0  0  0  0  0  0  0  0  0  0
  134.2568   69.2672  223.4247 H   0  0  0  0  0  0  0  0  0  0  0  0
  135.3678   68.0380  224.1070 H   0  0  0  0  0  0  0  0  0  0  0  0
  135.9881   69.8249  221.6669 H   0  0  0  0  0  0  0  0  0  0  0  0
  136.6087   70.1142  223.3097 H   0  0  0  0  0  0  0  0  0  0  0  0
  141.6258   74.9020  220.8906 H   0  0  0  0  0  0  0  0  0  0  0  0
  143.9439   74.8587  220.0694 H   0  0  0  0  0  0  0  0  0  0  0  0
  1  2  1  0
  2  3  2  0
  2  4  2  0
  2  5  1  0
  5  6  2  0
  6  7  1  0
  7  8  2  0
  8  9  1  0
  9 10  2  0
 10 11  1  0
 11 12  2  0
 12 13  1  0
 13 14  2  0
 14 15  1  0
 15 16  1  0
 15 17  2  0
 17 18  1  0
 17 19  1  0
 19 20  2  0
 20 21  1  0
 21 22  2  0
 21 23  1  0
 23 24  1  0
 24 25  1  0
 25 26  1  0
 26 27  1  0
 27 28  1  0
 28 29  1  0
 29 30  1  0
  8 31  1  0
 31 32  2  0
 32  5  1  0
 23 11  1  0
 30 25  1  0
 20 13  1  0
  1 33  1  0
  1 34  1  0
  6 35  1  0
  7 36  1  0
  9 37  1  0
 10 38  1  0
 14 39  1  0
 19 40  1  0
 24 41  1  0
 24 42  1  0
 25 43  1  0
 26 44  1  0
 26 45  1  0
 27 46  1  0
 27 47  1  0
 28 48  1  0
 28 49  1  0
 29 50  1  0
 29 51  1  0
 30 52  1  0
 30 53  1  0
 31 54  1  0
 32 55  1  0
M  END
>  <smiles>  (36) 
NS(=O)(=O)c1ccc(/C=C/c2nc3cc(F)c(F)cc3c(=O)n2CC2CCCCC2)cc1

>  <score_type>  (36) 
oracle

>  <origin>  (36) 
autodockgpu

>  <m_score__min__energy>  (36) 
-8.9800000000000004

>  <m_primary>  (36) 
energy

>  <rmsd>  (36) 
11.317561041162012

>  <m_score__min__rmsd>  (36) 
11.317561041162012

>  <meeko>  (36) 
{"free_energy": -8.72, "intermolecular_energy": -10.81, "internal_energy": -1.37, "cluster_size": 10, "cluster_id": 2, "rank_in_cluster": 2}

>  <energy>  (36) 
-8.29

>  <cluster_rmsd>  (36) 
0.82

>  <cluster>  (36) 
5

$$$$

     RDKit          3D

 55 58  0  0  0  0  0  0  0  0999 V2000
  142.2000   79.0270  221.1640 N   0  0  0  0  0  0  0  0  0  0  0  0
  140.9860   78.6340  222.2960 S   0  0  0  0  0  0  0  0  0  0  0  0
  139.8250   79.5770  222.1170 O   0  0  0  0  0  0  0  0  0  0  0  0
  141.5810   78.8220  223.6700 O   0  0  0  0  0  0  0  0  0  0  0  0
  140.4360   76.9960  222.1440 C   0  0  0  0  0  0  0  0  0  0  0  0
  141.2670   75.9770  221.7570 C   0  0  0  0  0  0  0  0  0  0  0  0
  140.8090   74.6830  221.6420 C   0  0  0  0  0  0  0  0  0  0  0  0
  139.4840   74.3340  221.9110 C   0  0  0  0  0  0  0  0  0  0  0  0
  139.0380   72.9610  221.7800 C   0  0  0  0  0  0  0  0  0  0  0  0
  139.8230   71.9050  221.8920 C   0  0  0  0  0  0  0  0  0  0  0  0
  139.8360   71.1010  223.1290 C   0  0  0  0  0  0  0  0  0  0  0  0
  140.4180   71.7110  224.1900 N   0  0  0  0  0  0  0  0  0  0  0  0
  140.4740   71.1430  225.4080 C   0  0  0  0  0  0  0  0  0  0  0  0
  141.0620   71.7460  226.4960 C   0  0  0  0  0  0  0  0  0  0  0  0
  141.1020   71.1350  227.7350 C   0  0  0  0  0  0  0  0  0  0  0  0
  141.6820   71.7300  228.8130 F   0  0  0  0  0  0  0  0  0  0  0  0
  140.5250   69.8870  227.8390 C   0  0  0  0  0  0  0  0  0  0  0  0
  140.5220   69.2180  229.0230 F   0  0  0  0  0  0  0  0  0  0  0  0
  139.9330   69.2690  226.7620 C   0  0  0  0  0  0  0  0  0  0  0  0
  139.9030   69.8970  225.5230 C   0  0  0  0  0  0  0  0  0  0  0  0
  139.3120   69.2900  224.4280 C   0  0  0  0  0  0  0  0  0  0  0  0
  138.8160   68.1540  224.6430 O   0  0  0  0  0  0  0  0  0  0  0  0
  139.2680   69.8830  223.1990 N   0  0  0  0  0  0  0  0  0  0  0  0
  138.6640   69.2570  222.0710 C   0  0  0  0  0  0  0  0  0  0  0  0
  139.4740   68.2200  221.3470 C   0  0  0  0  0  0  0  0  0  0  0  0
  140.0850   68.7390  220.0730 C   0  0  0  0  0  0  0  0  0  0  0  0
  141.1320   67.7390  219.6110 C   0  0  0  0  0  0  0  0  0  0  0  0
  140.6530   66.3350  219.5240 C   0  0  0  0  0  0  0  0  0  0  0  0
  139.9180   65.8970  220.7690 C   0  0  0  0  0  0  0  0  0  0  0  0
  138.8090   66.9240  221.0800 C   0  0  0  0  0  0  0  0  0  0  0  0
  138.6680   75.3770  222.2990 C   0  0  0  0  0  0  0  0  0  0  0  0
  139.1260   76.6830  222.4160 C   0  0  0  0  0  0  0  0  0  0  0  0
  142.6050   78.1700  220.7360 H   0  0  0  0  0  0  0  0  0  0  0  0
  142.9220   79.6850  221.5260 H   0  0  0  0  0  0  0  0  0  0  0  0
  142.3214   76.1971  221.5337 H   0  0  0  0  0  0  0  0  0  0  0  0
  141.5115   73.8972  221.3273 H   0  0  0  0  0  0  0  0  0  0  0  0
  137.9718   72.7866  221.5730 H   0  0  0  0  0  0  0  0  0  0  0  0
  140.4751   71.6214  221.0528 H   0  0  0  0  0  0  0  0  0  0  0  0
  141.5128   72.7422  226.3763 H   0  0  0  0  0  0  0  0  0  0  0  0
  139.4814   68.2732  226.8822 H   0  0  0  0  0  0  0  0  0  0  0  0
  137.7391   68.7724  222.4171 H   0  0  0  0  0  0  0  0  0  0  0  0
  138.5206   70.0664  221.3401 H   0  0  0  0  0  0  0  0  0  0  0  0
  140.2618   68.0034  222.0836 H   0  0  0  0  0  0  0  0  0  0  0  0
  139.3069   68.8469  219.3030 H   0  0  0  0  0  0  0  0  0  0  0  0
  140.5465   69.7227  220.2444 H   0  0  0  0  0  0  0  0  0  0  0  0
  141.4812   68.0445  218.6136 H   0  0  0  0  0  0  0  0  0  0  0  0
  141.9283   67.7495  220.3699 H   0  0  0  0  0  0  0  0  0  0  0  0
  139.9734   66.2467  218.6636 H   0  0  0  0  0  0  0  0  0  0  0  0
  141.5347   65.6871  219.4107 H   0  0  0  0  0  0  0  0  0  0  0  0
  139.4687   64.9066  220.6038 H   0  0  0  0  0  0  0  0  0  0  0  0
  140.6189   65.8367  221.6146 H   0  0  0  0  0  0  0  0  0  0  0  0
  138.1310   67.0187  220.2190 H   0  0  0  0  0  0  0  0  0  0  0  0
  138.2137   66.6047  221.9481 H   0  0  0  0  0  0  0  0  0  0  0  0
  137.6124   75.1656  222.5247 H   0  0  0  0  0  0  0  0  0  0  0  0
  138.4317   77.4763  222.7302 H   0  0  0  0  0  0  0  0  0  0  0  0
  1  2  1  0
  2  3  2  0
  2  4  2  0
  2  5  1  0
  5  6  2  0
  6  7  1  0
  7  8  2  0
  8  9  1  0
  9 10  2  0
 10 11  1  0
 11 12  2  0
 12 13  1  0
 13 14  2  0
 14 15  1  0
 15 16  1  0
 15 17  2  0
 17 18  1  0
 17 19  1  0
 19 20  2  0
 20 21  1  0
 21 22  2  0
 21 23  1  0
 23 24  1  0
 24 25  1  0
 25 26  1  0
 26 27  1  0
 27 28  1  0
 28 29  1  0
 29 30  1  0
  8 31  1  0
 31 32  2  0
 32  5  1  0
 23 11  1  0
 30 25  1  0
 20 13  1  0
  1 33  1  0
  1 34  1  0
  6 35  1  0
  7 36  1  0
  9 37  1  0
 10 38  1  0
 14 39  1  0
 19 40  1  0
 24 41  1  0
 24 42  1  0
 25 43  1  0
 26 44  1  0
 26 45  1  0
 27 46  1  0
 27 47  1  0
 28 48  1  0
 28 49  1  0
 29 50  1  0
 29 51  1  0
 30 52  1  0
 30 53  1  0
 31 54  1  0
 32 55  1  0
M  END
>  <smiles>  (37) 
NS(=O)(=O)c1ccc(/C=C/c2nc3cc(F)c(F)cc3c(=O)n2CC2CCCCC2)cc1

>  <score_type>  (37) 
oracle

>  <origin>  (37) 
autodockgpu

>  <m_score__min__energy>  (37) 
-8.9800000000000004

>  <m_primary>  (37) 
energy

>  <rmsd>  (37) 
10.517706722300947

>  <m_score__min__rmsd>  (37) 
10.517706722300947

>  <meeko>  (37) 
{"free_energy": -8.11, "intermolecular_energy": -10.19, "internal_energy": -1.27, "cluster_size": 3, "cluster_id": 7, "rank_in_cluster": 1}

>  <energy>  (37) 
-8.28

>  <cluster_rmsd>  (37) 
0.94

>  <cluster>  (37) 
5

$$$$

     RDKit          3D

 55 58  0  0  0  0  0  0  0  0999 V2000
  140.3320   68.5640  228.1230 N   0  0  0  0  0  0  0  0  0  0  0  0
  140.2940   68.0400  226.4990 S   0  0  0  0  0  0  0  0  0  0  0  0
  139.2070   67.0090  226.3420 O   0  0  0  0  0  0  0  0  0  0  0  0
  141.6330   67.4110  226.2030 O   0  0  0  0  0  0  0  0  0  0  0  0
  140.0290   69.3410  225.3830 C   0  0  0  0  0  0  0  0  0  0  0  0
  138.9680   69.3580  224.5150 C   0  0  0  0  0  0  0  0  0  0  0  0
  138.7770   70.4010  223.6370 C   0  0  0  0  0  0  0  0  0  0  0  0
  139.6430   71.4950  223.5780 C   0  0  0  0  0  0  0  0  0  0  0  0
  139.4100   72.5750  222.6400 C   0  0  0  0  0  0  0  0  0  0  0  0
  140.1390   72.8020  221.5630 C   0  0  0  0  0  0  0  0  0  0  0  0
  140.6380   74.1560  221.2590 C   0  0  0  0  0  0  0  0  0  0  0  0
  140.1010   75.1380  222.0240 N   0  0  0  0  0  0  0  0  0  0  0  0
  140.4780   76.4250  221.9150 C   0  0  0  0  0  0  0  0  0  0  0  0
  139.9450   77.4350  222.6820 C   0  0  0  0  0  0  0  0  0  0  0  0
  140.3550   78.7480  222.5460 C   0  0  0  0  0  0  0  0  0  0  0  0
  139.8290   79.7490  223.3040 F   0  0  0  0  0  0  0  0  0  0  0  0
  141.3270   79.0090  221.6040 C   0  0  0  0  0  0  0  0  0  0  0  0
  141.7850   80.2730  221.4080 F   0  0  0  0  0  0  0  0  0  0  0  0
  141.8720   78.0110  220.8290 C   0  0  0  0  0  0  0  0  0  0  0  0
  141.4470   76.6970  220.9780 C   0  0  0  0  0  0  0  0  0  0  0  0
  141.9840   75.6800  220.2060 C   0  0  0  0  0  0  0  0  0  0  0  0
  142.8650   76.0360  219.3820 O   0  0  0  0  0  0  0  0  0  0  0  0
  141.5850   74.3800  220.3300 N   0  0  0  0  0  0  0  0  0  0  0  0
  142.1340   73.3350  219.5330 C   0  0  0  0  0  0  0  0  0  0  0  0
  143.6160   73.1070  219.6260 C   0  0  0  0  0  0  0  0  0  0  0  0
  143.9970   71.6600  219.4700 C   0  0  0  0  0  0  0  0  0  0  0  0
  145.4980   71.5900  219.2450 C   0  0  0  0  0  0  0  0  0  0  0  0
  146.3120   72.3240  220.2490 C   0  0  0  0  0  0  0  0  0  0  0  0
  145.8080   73.7290  220.4820 C   0  0  0  0  0  0  0  0  0  0  0  0
  144.3010   73.6710  220.8120 C   0  0  0  0  0  0  0  0  0  0  0  0
  140.7030   71.4550  224.4610 C   0  0  0  0  0  0  0  0  0  0  0  0
  140.8990   70.4040  225.3480 C   0  0  0  0  0  0  0  0  0  0  0  0
  141.2320   69.0370  228.3430 H   0  0  0  0  0  0  0  0  0  0  0  0
  140.0760   67.8270  228.8130 H   0  0  0  0  0  0  0  0  0  0  0  0
  138.2545   68.5208  224.5202 H   0  0  0  0  0  0  0  0  0  0  0  0
  137.9120   70.3717  222.9581 H   0  0  0  0  0  0  0  0  0  0  0  0
  138.5669   73.2528  222.8394 H   0  0  0  0  0  0  0  0  0  0  0  0
  140.3773   71.9704  220.8836 H   0  0  0  0  0  0  0  0  0  0  0  0
  139.1709   77.1908  223.4244 H   0  0  0  0  0  0  0  0  0  0  0  0
  142.6477   78.2549  220.0882 H   0  0  0  0  0  0  0  0  0  0  0  0
  141.6361   72.3989  219.8260 H   0  0  0  0  0  0  0  0  0  0  0  0
  141.9602   73.6500  218.4935 H   0  0  0  0  0  0  0  0  0  0  0  0
  143.9823   73.6878  218.7667 H   0  0  0  0  0  0  0  0  0  0  0  0
  143.7299   71.1036  220.3806 H   0  0  0  0  0  0  0  0  0  0  0  0
  143.4623   71.2143  218.6183 H   0  0  0  0  0  0  0  0  0  0  0  0
  145.7987   70.5321  219.2674 H   0  0  0  0  0  0  0  0  0  0  0  0
  145.6896   72.0742  218.2761 H   0  0  0  0  0  0  0  0  0  0  0  0
  146.2787   71.7742  221.2011 H   0  0  0  0  0  0  0  0  0  0  0  0
  147.3388   72.3957  219.8611 H   0  0  0  0  0  0  0  0  0  0  0  0
  146.3531   74.1821  221.3232 H   0  0  0  0  0  0  0  0  0  0  0  0
  145.9689   74.3373  219.5797 H   0  0  0  0  0  0  0  0  0  0  0  0
  144.1311   73.0270  221.6874 H   0  0  0  0  0  0  0  0  0  0  0  0
  143.9134   74.6730  221.0479 H   0  0  0  0  0  0  0  0  0  0  0  0
  141.4210   72.2883  224.4624 H   0  0  0  0  0  0  0  0  0  0  0  0
  141.7613   70.4230  226.0308 H   0  0  0  0  0  0  0  0  0  0  0  0
  1  2  1  0
  2  3  2  0
  2  4  2  0
  2  5  1  0
  5  6  2  0
  6  7  1  0
  7  8  2  0
  8  9  1  0
  9 10  2  0
 10 11  1  0
 11 12  2  0
 12 13  1  0
 13 14  2  0
 14 15  1  0
 15 16  1  0
 15 17  2  0
 17 18  1  0
 17 19  1  0
 19 20  2  0
 20 21  1  0
 21 22  2  0
 21 23  1  0
 23 24  1  0
 24 25  1  0
 25 26  1  0
 26 27  1  0
 27 28  1  0
 28 29  1  0
 29 30  1  0
  8 31  1  0
 31 32  2  0
 32  5  1  0
 23 11  1  0
 30 25  1  0
 20 13  1  0
  1 33  1  0
  1 34  1  0
  6 35  1  0
  7 36  1  0
  9 37  1  0
 10 38  1  0
 14 39  1  0
 19 40  1  0
 24 41  1  0
 24 42  1  0
 25 43  1  0
 26 44  1  0
 26 45  1  0
 27 46  1  0
 27 47  1  0
 28 48  1  0
 28 49  1  0
 29 50  1  0
 29 51  1  0
 30 52  1  0
 30 53  1  0
 31 54  1  0
 32 55  1  0
M  END
>  <smiles>  (38) 
NS(=O)(=O)c1ccc(/C=C/c2nc3cc(F)c(F)cc3c(=O)n2CC2CCCCC2)cc1

>  <score_type>  (38) 
oracle

>  <origin>  (38) 
autodockgpu

>  <m_score__min__energy>  (38) 
-8.9800000000000004

>  <m_primary>  (38) 
energy

>  <rmsd>  (38) 
5.860910805565769

>  <m_score__min__rmsd>  (38) 
5.860910805565769

>  <meeko>  (38) 
{"free_energy": -8.63, "intermolecular_energy": -10.72, "internal_energy": -1.24, "cluster_size": 17, "cluster_id": 1, "rank_in_cluster": 11}

>  <energy>  (38) 
-8.32

>  <cluster_rmsd>  (38) 
0.0

>  <cluster>  (38) 
6

$$$$

     RDKit          3D

 55 58  0  0  0  0  0  0  0  0999 V2000
  139.2050   67.1920  226.4180 N   0  0  0  0  0  0  0  0  0  0  0  0
  140.1180   68.6010  226.7260 S   0  0  0  0  0  0  0  0  0  0  0  0
  141.5570   68.2140  226.9480 O   0  0  0  0  0  0  0  0  0  0  0  0
  139.5620   69.2250  227.9820 O   0  0  0  0  0  0  0  0  0  0  0  0
  140.0180   69.7570  225.4360 C   0  0  0  0  0  0  0  0  0  0  0  0
  139.2590   69.5410  224.3150 C   0  0  0  0  0  0  0  0  0  0  0  0
  139.1940   70.4720  223.3030 C   0  0  0  0  0  0  0  0  0  0  0  0
  139.8900   71.6810  223.3560 C   0  0  0  0  0  0  0  0  0  0  0  0
  139.7970   72.6380  222.2700 C   0  0  0  0  0  0  0  0  0  0  0  0
  138.7160   73.3360  221.9780 C   0  0  0  0  0  0  0  0  0  0  0  0
  138.6380   74.7760  222.2900 C   0  0  0  0  0  0  0  0  0  0  0  0
  139.8340   75.4140  222.2990 N   0  0  0  0  0  0  0  0  0  0  0  0
  139.9430   76.7370  222.5170 C   0  0  0  0  0  0  0  0  0  0  0  0
  141.1470   77.4030  222.5310 C   0  0  0  0  0  0  0  0  0  0  0  0
  141.2260   78.7650  222.7570 C   0  0  0  0  0  0  0  0  0  0  0  0
  142.4160   79.4240  222.7710 F   0  0  0  0  0  0  0  0  0  0  0  0
  140.0400   79.4350  222.9690 C   0  0  0  0  0  0  0  0  0  0  0  0
  140.0310   80.7750  223.1980 F   0  0  0  0  0  0  0  0  0  0  0  0
  138.8270   78.7870  222.9580 C   0  0  0  0  0  0  0  0  0  0  0  0
  138.7670   77.4170  222.7310 C   0  0  0  0  0  0  0  0  0  0  0  0
  137.5550   76.7470  222.7170 C   0  0  0  0  0  0  0  0  0  0  0  0
  136.5400   77.4630  222.9200 O   0  0  0  0  0  0  0  0  0  0  0  0
  137.4660   75.4030  222.4970 N   0  0  0  0  0  0  0  0  0  0  0  0
  136.2200   74.7130  222.4870 C   0  0  0  0  0  0  0  0  0  0  0  0
  135.5710   74.4480  223.8160 C   0  0  0  0  0  0  0  0  0  0  0  0
  134.7570   73.1830  223.8290 C   0  0  0  0  0  0  0  0  0  0  0  0
  134.4360   72.8440  225.2750 C   0  0  0  0  0  0  0  0  0  0  0  0
  133.8350   73.9570  226.0550 C   0  0  0  0  0  0  0  0  0  0  0  0
  134.6030   75.2490  225.9010 C   0  0  0  0  0  0  0  0  0  0  0  0
  134.7730   75.5520  224.3970 C   0  0  0  0  0  0  0  0  0  0  0  0
  140.6470   71.8750  224.4930 C   0  0  0  0  0  0  0  0  0  0  0  0
  140.7140   70.9380  225.5160 C   0  0  0  0  0  0  0  0  0  0  0  0
  139.2510   66.5330  227.2210 H   0  0  0  0  0  0  0  0  0  0  0  0
  139.4170   66.7410  225.5030 H   0  0  0  0  0  0  0  0  0  0  0  0
  138.6900   68.6042  224.2222 H   0  0  0  0  0  0  0  0  0  0  0  0
  138.5720   70.2558  222.4219 H   0  0  0  0  0  0  0  0  0  0  0  0
  140.6899   72.7926  221.6464 H   0  0  0  0  0  0  0  0  0  0  0  0
  137.8620   72.8379  221.4958 H   0  0  0  0  0  0  0  0  0  0  0  0
  142.0733   76.8357  222.3574 H   0  0  0  0  0  0  0  0  0  0  0  0
  137.9008   79.3551  223.1295 H   0  0  0  0  0  0  0  0  0  0  0  0
  135.5162   75.3096  221.8882 H   0  0  0  0  0  0  0  0  0  0  0  0
  136.4507   73.7172  222.0806 H   0  0  0  0  0  0  0  0  0  0  0  0
  136.4482   74.3384  224.4706 H   0  0  0  0  0  0  0  0  0  0  0  0
  133.8245   73.3337  223.2654 H   0  0  0  0  0  0  0  0  0  0  0  0
  135.3201   72.3622  223.3608 H   0  0  0  0  0  0  0  0  0  0  0  0
  133.7293   72.0010  225.2806 H   0  0  0  0  0  0  0  0  0  0  0  0
  135.3951   72.6079  225.7590 H   0  0  0  0  0  0  0  0  0  0  0  0
  132.8036   74.1156  225.7070 H   0  0  0  0  0  0  0  0  0  0  0  0
  133.8631   73.6749  227.1178 H   0  0  0  0  0  0  0  0  0  0  0  0
  134.0486   76.0680  226.3825 H   0  0  0  0  0  0  0  0  0  0  0  0
  135.5904   75.1552  226.3767 H   0  0  0  0  0  0  0  0  0  0  0  0
  133.7885   75.6029  223.9090 H   0  0  0  0  0  0  0  0  0  0  0  0
  135.2763   76.5186  224.2476 H   0  0  0  0  0  0  0  0  0  0  0  0
  141.2201   72.8086  224.5932 H   0  0  0  0  0  0  0  0  0  0  0  0
  141.3326   71.1446  226.4018 H   0  0  0  0  0  0  0  0  0  0  0  0
  1  2  1  0
  2  3  2  0
  2  4  2  0
  2  5  1  0
  5  6  2  0
  6  7  1  0
  7  8  2  0
  8  9  1  0
  9 10  2  0
 10 11  1  0
 11 12  2  0
 12 13  1  0
 13 14  2  0
 14 15  1  0
 15 16  1  0
 15 17  2  0
 17 18  1  0
 17 19  1  0
 19 20  2  0
 20 21  1  0
 21 22  2  0
 21 23  1  0
 23 24  1  0
 24 25  1  0
 25 26  1  0
 26 27  1  0
 27 28  1  0
 28 29  1  0
 29 30  1  0
  8 31  1  0
 31 32  2  0
 32  5  1  0
 23 11  1  0
 30 25  1  0
 20 13  1  0
  1 33  1  0
  1 34  1  0
  6 35  1  0
  7 36  1  0
  9 37  1  0
 10 38  1  0
 14 39  1  0
 19 40  1  0
 24 41  1  0
 24 42  1  0
 25 43  1  0
 26 44  1  0
 26 45  1  0
 27 46  1  0
 27 47  1  0
 28 48  1  0
 28 49  1  0
 29 50  1  0
 29 51  1  0
 30 52  1  0
 30 53  1  0
 31 54  1  0
 32 55  1  0
M  END
>  <smiles>  (39) 
NS(=O)(=O)c1ccc(/C=C/c2nc3cc(F)c(F)cc3c(=O)n2CC2CCCCC2)cc1

>  <score_type>  (39) 
oracle

>  <origin>  (39) 
autodockgpu

>  <m_score__min__energy>  (39) 
-8.9800000000000004

>  <m_primary>  (39) 
energy

>  <rmsd>  (39) 
7.392900546981602

>  <m_score__min__rmsd>  (39) 
7.392900546981602

>  <meeko>  (39) 
{"free_energy": -8.29, "intermolecular_energy": -10.37, "internal_energy": -1.37, "cluster_size": 3, "cluster_id": 5, "rank_in_cluster": 2}

>  <energy>  (39) 
-8.09

>  <cluster_rmsd>  (39) 
0.38

>  <cluster>  (39) 
6

$$$$

     RDKit          3D

 55 58  0  0  0  0  0  0  0  0999 V2000
  142.1920   78.3210  221.0180 N   0  0  0  0  0  0  0  0  0  0  0  0
  141.0010   77.8570  222.1490 S   0  0  0  0  0  0  0  0  0  0  0  0
  139.8000   78.7530  221.9930 O   0  0  0  0  0  0  0  0  0  0  0  0
  141.5960   78.0430  223.5230 O   0  0  0  0  0  0  0  0  0  0  0  0
  140.5190   76.2000  221.9690 C   0  0  0  0  0  0  0  0  0  0  0  0
  139.2220   75.7910  222.1410 C   0  0  0  0  0  0  0  0  0  0  0  0
  138.8610   74.4710  221.9930 C   0  0  0  0  0  0  0  0  0  0  0  0
  139.7850   73.4770  221.6620 C   0  0  0  0  0  0  0  0  0  0  0  0
  139.3680   72.0970  221.5150 C   0  0  0  0  0  0  0  0  0  0  0  0
  138.5230   71.4800  222.3210 C   0  0  0  0  0  0  0  0  0  0  0  0
  139.0100   70.7140  223.4830 C   0  0  0  0  0  0  0  0  0  0  0  0
  139.5930   71.4650  224.4480 N   0  0  0  0  0  0  0  0  0  0  0  0
  140.0490   70.9360  225.5980 C   0  0  0  0  0  0  0  0  0  0  0  0
  140.6440   71.6830  226.5890 C   0  0  0  0  0  0  0  0  0  0  0  0
  141.1020   71.1090  227.7600 C   0  0  0  0  0  0  0  0  0  0  0  0
  141.6910   71.8460  228.7410 F   0  0  0  0  0  0  0  0  0  0  0  0
  140.9370   69.7470  227.8980 C   0  0  0  0  0  0  0  0  0  0  0  0
  141.3590   69.1060  229.0190 F   0  0  0  0  0  0  0  0  0  0  0  0
  140.3440   68.9850  226.9180 C   0  0  0  0  0  0  0  0  0  0  0  0
  139.8910   69.5790  225.7470 C   0  0  0  0  0  0  0  0  0  0  0  0
  139.2910   68.8270  224.7500 C   0  0  0  0  0  0  0  0  0  0  0  0
  139.1930   67.5960  224.9880 O   0  0  0  0  0  0  0  0  0  0  0  0
  138.8380   69.3830  223.5880 N   0  0  0  0  0  0  0  0  0  0  0  0
  138.2250   68.6100  222.5610 C   0  0  0  0  0  0  0  0  0  0  0  0
  136.7240   68.6050  222.5080 C   0  0  0  0  0  0  0  0  0  0  0  0
  136.0910   68.9730  223.8230 C   0  0  0  0  0  0  0  0  0  0  0  0
  134.6210   69.2620  223.5740 C   0  0  0  0  0  0  0  0  0  0  0  0
  133.8950   68.1990  222.8300 C   0  0  0  0  0  0  0  0  0  0  0  0
  134.6360   67.7560  221.5900 C   0  0  0  0  0  0  0  0  0  0  0  0
  136.0810   67.3800  221.9790 C   0  0  0  0  0  0  0  0  0  0  0  0
  141.0840   73.9130  221.4940 C   0  0  0  0  0  0  0  0  0  0  0  0
  141.4510   75.2450  221.6420 C   0  0  0  0  0  0  0  0  0  0  0  0
  142.0500   77.8410  220.1070 H   0  0  0  0  0  0  0  0  0  0  0  0
  143.1670   78.2470  221.3740 H   0  0  0  0  0  0  0  0  0  0  0  0
  138.4536   76.5333  222.4028 H   0  0  0  0  0  0  0  0  0  0  0  0
  137.8080   74.1890  222.1405 H   0  0  0  0  0  0  0  0  0  0  0  0
  139.7841   71.5235  220.6736 H   0  0  0  0  0  0  0  0  0  0  0  0
  137.4425   71.5383  222.1230 H   0  0  0  0  0  0  0  0  0  0  0  0
  140.7583   72.7675  226.4451 H   0  0  0  0  0  0  0  0  0  0  0  0
  140.2281   67.9007  227.0624 H   0  0  0  0  0  0  0  0  0  0  0  0
  138.5888   68.9937  221.5964 H   0  0  0  0  0  0  0  0  0  0  0  0
  138.5040   67.5698  222.7847 H   0  0  0  0  0  0  0  0  0  0  0  0
  136.5282   69.3887  221.7613 H   0  0  0  0  0  0  0  0  0  0  0  0
  136.1920   68.1382  224.5321 H   0  0  0  0  0  0  0  0  0  0  0  0
  136.5864   69.8573  224.2504 H   0  0  0  0  0  0  0  0  0  0  0  0
  134.1284   69.3953  224.5485 H   0  0  0  0  0  0  0  0  0  0  0  0
  134.5845   70.1623  222.9431 H   0  0  0  0  0  0  0  0  0  0  0  0
  133.7639   67.3307  223.4924 H   0  0  0  0  0  0  0  0  0  0  0  0
  132.9267   68.6132  222.5124 H   0  0  0  0  0  0  0  0  0  0  0  0
  134.1324   66.8820  221.1513 H   0  0  0  0  0  0  0  0  0  0  0  0
  134.6489   68.5717  220.8521 H   0  0  0  0  0  0  0  0  0  0  0  0
  136.0719   66.5958  222.7503 H   0  0  0  0  0  0  0  0  0  0  0  0
  136.6321   66.9938  221.1089 H   0  0  0  0  0  0  0  0  0  0  0  0
  141.8588   73.1772  221.2328 H   0  0  0  0  0  0  0  0  0  0  0  0
  142.5009   75.5385  221.4955 H   0  0  0  0  0  0  0  0  0  0  0  0
  1  2  1  0
  2  3  2  0
  2  4  2  0
  2  5  1  0
  5  6  2  0
  6  7  1  0
  7  8  2  0
  8  9  1  0
  9 10  2  0
 10 11  1  0
 11 12  2  0
 12 13  1  0
 13 14  2  0
 14 15  1  0
 15 16  1  0
 15 17  2  0
 17 18  1  0
 17 19  1  0
 19 20  2  0
 20 21  1  0
 21 22  2  0
 21 23  1  0
 23 24  1  0
 24 25  1  0
 25 26  1  0
 26 27  1  0
 27 28  1  0
 28 29  1  0
 29 30  1  0
  8 31  1  0
 31 32  2  0
 32  5  1  0
 23 11  1  0
 30 25  1  0
 20 13  1  0
  1 33  1  0
  1 34  1  0
  6 35  1  0
  7 36  1  0
  9 37  1  0
 10 38  1  0
 14 39  1  0
 19 40  1  0
 24 41  1  0
 24 42  1  0
 25 43  1  0
 26 44  1  0
 26 45  1  0
 27 46  1  0
 27 47  1  0
 28 48  1  0
 28 49  1  0
 29 50  1  0
 29 51  1  0
 30 52  1  0
 30 53  1  0
 31 54  1  0
 32 55  1  0
M  END
>  <smiles>  (40) 
NS(=O)(=O)c1ccc(/C=C/c2nc3cc(F)c(F)cc3c(=O)n2CC2CCCCC2)cc1

>  <score_type>  (40) 
oracle

>  <origin>  (40) 
autodockgpu

>  <m_score__min__energy>  (40) 
-8.9800000000000004

>  <m_primary>  (40) 
energy

>  <rmsd>  (40) 
11.403914546849022

>  <m_score__min__rmsd>  (40) 
11.403914546849022

>  <meeko>  (40) 
{"free_energy": -7.75, "intermolecular_energy": -9.84, "internal_energy": -1.38, "cluster_size": 3, "cluster_id": 7, "rank_in_cluster": 3}

>  <energy>  (40) 
-8.11

>  <cluster_rmsd>  (40) 
0.0

>  <cluster>  (40) 
7

$$$$

     RDKit          3D

 55 58  0  0  0  0  0  0  0  0999 V2000
  141.6100   68.0760  226.2840 N   0  0  0  0  0  0  0  0  0  0  0  0
  139.9830   68.5820  226.1950 S   0  0  0  0  0  0  0  0  0  0  0  0
  139.5560   69.0990  227.5450 O   0  0  0  0  0  0  0  0  0  0  0  0
  139.1590   67.3720  225.8340 O   0  0  0  0  0  0  0  0  0  0  0  0
  139.7290   69.8100  224.9950 C   0  0  0  0  0  0  0  0  0  0  0  0
  140.5770   70.8770  224.8480 C   0  0  0  0  0  0  0  0  0  0  0  0
  140.3570   71.8400  223.8890 C   0  0  0  0  0  0  0  0  0  0  0  0
  139.2680   71.7890  223.0160 C   0  0  0  0  0  0  0  0  0  0  0  0
  139.0680   72.8220  222.0190 C   0  0  0  0  0  0  0  0  0  0  0  0
  139.6860   73.9880  222.0150 C   0  0  0  0  0  0  0  0  0  0  0  0
  140.9070   74.1940  221.2140 C   0  0  0  0  0  0  0  0  0  0  0  0
  141.7570   73.1390  221.2010 N   0  0  0  0  0  0  0  0  0  0  0  0
  142.8940   73.1360  220.4830 C   0  0  0  0  0  0  0  0  0  0  0  0
  143.7690   72.0740  220.4580 C   0  0  0  0  0  0  0  0  0  0  0  0
  144.9300   72.1030  219.7080 C   0  0  0  0  0  0  0  0  0  0  0  0
  145.7960   71.0540  219.6820 F   0  0  0  0  0  0  0  0  0  0  0  0
  145.1790   73.2470  218.9790 C   0  0  0  0  0  0  0  0  0  0  0  0
  146.2980   73.3550  218.2160 F   0  0  0  0  0  0  0  0  0  0  0  0
  144.3160   74.3180  218.9920 C   0  0  0  0  0  0  0  0  0  0  0  0
  143.1540   74.2720  219.7520 C   0  0  0  0  0  0  0  0  0  0  0  0
  142.2730   75.3410  219.7770 C   0  0  0  0  0  0  0  0  0  0  0  0
  142.6030   76.3280  219.0710 O   0  0  0  0  0  0  0  0  0  0  0  0
  141.1250   75.3240  220.5160 N   0  0  0  0  0  0  0  0  0  0  0  0
  140.2210   76.4250  220.5450 C   0  0  0  0  0  0  0  0  0  0  0  0
  140.6310   77.6280  221.3460 C   0  0  0  0  0  0  0  0  0  0  0  0
  141.6560   78.4770  220.6440 C   0  0  0  0  0  0  0  0  0  0  0  0
  141.7420   79.8080  221.3710 C   0  0  0  0  0  0  0  0  0  0  0  0
  141.9490   79.7020  222.8400 C   0  0  0  0  0  0  0  0  0  0  0  0
  140.9920   78.7280  223.4870 C   0  0  0  0  0  0  0  0  0  0  0  0
  141.0690   77.3810  222.7390 C   0  0  0  0  0  0  0  0  0  0  0  0
  138.4290   70.7060  223.1850 C   0  0  0  0  0  0  0  0  0  0  0  0
  138.6490   69.7320  224.1510 C   0  0  0  0  0  0  0  0  0  0  0  0
  142.0400   68.3530  227.1890 H   0  0  0  0  0  0  0  0  0  0  0  0
  142.1840   68.3450  225.4570 H   0  0  0  0  0  0  0  0  0  0  0  0
  141.4511   70.9656  225.5098 H   0  0  0  0  0  0  0  0  0  0  0  0
  141.0637   72.6790  223.8075 H   0  0  0  0  0  0  0  0  0  0  0  0
  138.3512   72.6199  221.2094 H   0  0  0  0  0  0  0  0  0  0  0  0
  139.2853   74.8169  222.6169 H   0  0  0  0  0  0  0  0  0  0  0  0
  143.5381   71.1770  221.0514 H   0  0  0  0  0  0  0  0  0  0  0  0
  144.5469   75.2147  218.3981 H   0  0  0  0  0  0  0  0  0  0  0  0
  140.0677   76.7550  219.5069 H   0  0  0  0  0  0  0  0  0  0  0  0
  139.3220   76.0410  221.0494 H   0  0  0  0  0  0  0  0  0  0  0  0
  139.6791   78.1734  221.4259 H   0  0  0  0  0  0  0  0  0  0  0  0
  142.6348   77.9755  220.6668 H   0  0  0  0  0  0  0  0  0  0  0  0
  141.3677   78.6335  219.5940 H   0  0  0  0  0  0  0  0  0  0  0  0
  142.5828   80.3764  220.9467 H   0  0  0  0  0  0  0  0  0  0  0  0
  140.7697   80.3025  221.2293 H   0  0  0  0  0  0  0  0  0  0  0  0
  142.9786   79.3637  223.0283 H   0  0  0  0  0  0  0  0  0  0  0  0
  141.7648   80.6943  223.2774 H   0  0  0  0  0  0  0  0  0  0  0  0
  141.2705   78.5816  224.5410 H   0  0  0  0  0  0  0  0  0  0  0  0
  139.9669   79.1239  223.4376 H   0  0  0  0  0  0  0  0  0  0  0  0
  142.1022   77.0035  222.7479 H   0  0  0  0  0  0  0  0  0  0  0  0
  140.4282   76.6288  223.2223 H   0  0  0  0  0  0  0  0  0  0  0  0
  137.5514   70.6103  222.5288 H   0  0  0  0  0  0  0  0  0  0  0  0
  137.9493   68.8880  224.2407 H   0  0  0  0  0  0  0  0  0  0  0  0
  1  2  1  0
  2  3  2  0
  2  4  2  0
  2  5  1  0
  5  6  2  0
  6  7  1  0
  7  8  2  0
  8  9  1  0
  9 10  2  0
 10 11  1  0
 11 12  2  0
 12 13  1  0
 13 14  2  0
 14 15  1  0
 15 16  1  0
 15 17  2  0
 17 18  1  0
 17 19  1  0
 19 20  2  0
 20 21  1  0
 21 22  2  0
 21 23  1  0
 23 24  1  0
 24 25  1  0
 25 26  1  0
 26 27  1  0
 27 28  1  0
 28 29  1  0
 29 30  1  0
  8 31  1  0
 31 32  2  0
 32  5  1  0
 23 11  1  0
 30 25  1  0
 20 13  1  0
  1 33  1  0
  1 34  1  0
  6 35  1  0
  7 36  1  0
  9 37  1  0
 10 38  1  0
 14 39  1  0
 19 40  1  0
 24 41  1  0
 24 42  1  0
 25 43  1  0
 26 44  1  0
 26 45  1  0
 27 46  1  0
 27 47  1  0
 28 48  1  0
 28 49  1  0
 29 50  1  0
 29 51  1  0
 30 52  1  0
 30 53  1  0
 31 54  1  0
 32 55  1  0
M  END
>  <smiles>  (41) 
NS(=O)(=O)c1ccc(/C=C/c2nc3cc(F)c(F)cc3c(=O)n2CC2CCCCC2)cc1

>  <score_type>  (41) 
oracle

>  <origin>  (41) 
autodockgpu

>  <m_score__min__energy>  (41) 
-8.9800000000000004

>  <m_primary>  (41) 
energy

>  <rmsd>  (41) 
7.309000875875397

>  <m_score__min__rmsd>  (41) 
7.309000875875397

>  <meeko>  (41) 
{"free_energy": -8.05, "intermolecular_energy": -10.13, "internal_energy": -1.34, "cluster_size": 3, "cluster_id": 3, "rank_in_cluster": 3}

>  <energy>  (41) 
-8.07

>  <cluster_rmsd>  (41) 
0.59

>  <cluster>  (41) 
7

$$$$

     RDKit          3D

 55 58  0  0  0  0  0  0  0  0999 V2000
  145.3500   74.0900  217.4590 N   0  0  0  0  0  0  0  0  0  0  0  0
  145.4280   73.0120  218.7780 S   0  0  0  0  0  0  0  0  0  0  0  0
  146.5940   73.3920  219.6540 O   0  0  0  0  0  0  0  0  0  0  0  0
  145.6500   71.6310  218.2130 O   0  0  0  0  0  0  0  0  0  0  0  0
  143.9710   73.0030  219.7200 C   0  0  0  0  0  0  0  0  0  0  0  0
  143.5560   71.8980  220.4170 C   0  0  0  0  0  0  0  0  0  0  0  0
  142.3950   71.9120  221.1580 C   0  0  0  0  0  0  0  0  0  0  0  0
  141.5790   73.0420  221.2440 C   0  0  0  0  0  0  0  0  0  0  0  0
  140.3640   73.0200  222.0340 C   0  0  0  0  0  0  0  0  0  0  0  0
  139.5910   71.9610  222.1890 C   0  0  0  0  0  0  0  0  0  0  0  0
  139.7490   71.0740  223.3570 C   0  0  0  0  0  0  0  0  0  0  0  0
  140.2620   71.6780  224.4570 N   0  0  0  0  0  0  0  0  0  0  0  0
  140.4280   71.0300  225.6240 C   0  0  0  0  0  0  0  0  0  0  0  0
  140.9480   71.6260  226.7500 C   0  0  0  0  0  0  0  0  0  0  0  0
  141.1050   70.9320  227.9360 C   0  0  0  0  0  0  0  0  0  0  0  0
  141.6190   71.5200  229.0510 F   0  0  0  0  0  0  0  0  0  0  0  0
  140.7160   69.6100  227.9460 C   0  0  0  0  0  0  0  0  0  0  0  0
  140.8370   68.8580  229.0720 F   0  0  0  0  0  0  0  0  0  0  0  0
  140.1940   68.9980  226.8300 C   0  0  0  0  0  0  0  0  0  0  0  0
  140.0440   69.7100  225.6460 C   0  0  0  0  0  0  0  0  0  0  0  0
  139.5210   69.1100  224.5130 C   0  0  0  0  0  0  0  0  0  0  0  0
  139.1990   67.9010  224.6410 O   0  0  0  0  0  0  0  0  0  0  0  0
  139.3640   69.7840  223.3360 N   0  0  0  0  0  0  0  0  0  0  0  0
  138.8290   69.1670  222.1690 C   0  0  0  0  0  0  0  0  0  0  0  0
  139.7660   68.9620  221.0120 C   0  0  0  0  0  0  0  0  0  0  0  0
  139.4350   69.8320  219.8300 C   0  0  0  0  0  0  0  0  0  0  0  0
  140.6130   69.7930  218.8720 C   0  0  0  0  0  0  0  0  0  0  0  0
  141.0740   68.4280  218.5070 C   0  0  0  0  0  0  0  0  0  0  0  0
  141.2570   67.5400  219.7160 C   0  0  0  0  0  0  0  0  0  0  0  0
  139.9630   67.5670  220.5560 C   0  0  0  0  0  0  0  0  0  0  0  0
  142.0180   74.1410  220.5330 C   0  0  0  0  0  0  0  0  0  0  0  0
  143.1880   74.1290  219.7860 C   0  0  0  0  0  0  0  0  0  0  0  0
  146.3000   74.3030  217.0920 H   0  0  0  0  0  0  0  0  0  0  0  0
  144.7800   74.9420  217.6400 H   0  0  0  0  0  0  0  0  0  0  0  0
  144.1628   70.9811  220.3839 H   0  0  0  0  0  0  0  0  0  0  0  0
  142.1004   71.0017  221.7008 H   0  0  0  0  0  0  0  0  0  0  0  0
  140.0652   73.9502  222.5395 H   0  0  0  0  0  0  0  0  0  0  0  0
  138.8194   71.7373  221.4376 H   0  0  0  0  0  0  0  0  0  0  0  0
  141.2471   72.6836  226.7056 H   0  0  0  0  0  0  0  0  0  0  0  0
  139.8941   67.9406  226.8750 H   0  0  0  0  0  0  0  0  0  0  0  0
  138.4446   68.1792  222.4631 H   0  0  0  0  0  0  0  0  0  0  0  0
  138.0689   69.8705  221.7983 H   0  0  0  0  0  0  0  0  0  0  0  0
  140.7271   69.2696  221.4499 H   0  0  0  0  0  0  0  0  0  0  0  0
  138.5331   69.4518  219.3279 H   0  0  0  0  0  0  0  0  0  0  0  0
  139.2439   70.8645  220.1579 H   0  0  0  0  0  0  0  0  0  0  0  0
  140.3204   70.3139  217.9484 H   0  0  0  0  0  0  0  0  0  0  0  0
  141.4530   70.2745  219.3940 H   0  0  0  0  0  0  0  0  0  0  0  0
  140.3281   67.9693  217.8413 H   0  0  0  0  0  0  0  0  0  0  0  0
  142.0509   68.5251  218.0109 H   0  0  0  0  0  0  0  0  0  0  0  0
  141.4641   66.5101  219.3898 H   0  0  0  0  0  0  0  0  0  0  0  0
  142.1015   67.9025  220.3205 H   0  0  0  0  0  0  0  0  0  0  0  0
  139.1083   67.2470  219.9419 H   0  0  0  0  0  0  0  0  0  0  0  0
  140.0401   66.8829  221.4140 H   0  0  0  0  0  0  0  0  0  0  0  0
  141.4172   75.0621  220.5595 H   0  0  0  0  0  0  0  0  0  0  0  0
  143.4920   75.0339  219.2395 H   0  0  0  0  0  0  0  0  0  0  0  0
  1  2  1  0
  2  3  2  0
  2  4  2  0
  2  5  1  0
  5  6  2  0
  6  7  1  0
  7  8  2  0
  8  9  1  0
  9 10  2  0
 10 11  1  0
 11 12  2  0
 12 13  1  0
 13 14  2  0
 14 15  1  0
 15 16  1  0
 15 17  2  0
 17 18  1  0
 17 19  1  0
 19 20  2  0
 20 21  1  0
 21 22  2  0
 21 23  1  0
 23 24  1  0
 24 25  1  0
 25 26  1  0
 26 27  1  0
 27 28  1  0
 28 29  1  0
 29 30  1  0
  8 31  1  0
 31 32  2  0
 32  5  1  0
 23 11  1  0
 30 25  1  0
 20 13  1  0
  1 33  1  0
  1 34  1  0
  6 35  1  0
  7 36  1  0
  9 37  1  0
 10 38  1  0
 14 39  1  0
 19 40  1  0
 24 41  1  0
 24 42  1  0
 25 43  1  0
 26 44  1  0
 26 45  1  0
 27 46  1  0
 27 47  1  0
 28 48  1  0
 28 49  1  0
 29 50  1  0
 29 51  1  0
 30 52  1  0
 30 53  1  0
 31 54  1  0
 32 55  1  0
M  END
>  <smiles>  (42) 
NS(=O)(=O)c1ccc(/C=C/c2nc3cc(F)c(F)cc3c(=O)n2CC2CCCCC2)cc1

>  <score_type>  (42) 
oracle

>  <origin>  (42) 
autodockgpu

>  <m_score__min__energy>  (42) 
-8.9800000000000004

>  <m_primary>  (42) 
energy

>  <rmsd>  (42) 
10.084955271136776

>  <m_score__min__rmsd>  (42) 
10.084955271136776

>  <meeko>  (42) 
{"free_energy": -8.29, "intermolecular_energy": -10.38, "internal_energy": -1.8, "cluster_size": 10, "cluster_id": 2, "rank_in_cluster": 7}

>  <energy>  (42) 
-7.75

>  <cluster_rmsd>  (42) 
1.72

>  <cluster>  (42) 
7

$$$$

     RDKit          3D

 55 58  0  0  0  0  0  0  0  0999 V2000
  146.3020   73.4170  218.4830 N   0  0  0  0  0  0  0  0  0  0  0  0
  145.6160   72.7810  219.9100 S   0  0  0  0  0  0  0  0  0  0  0  0
  146.5750   72.9970  221.0520 O   0  0  0  0  0  0  0  0  0  0  0  0
  145.4190   71.3020  219.6890 O   0  0  0  0  0  0  0  0  0  0  0  0
  144.0830   73.4990  220.2920 C   0  0  0  0  0  0  0  0  0  0  0  0
  143.0500   72.7760  220.8290 C   0  0  0  0  0  0  0  0  0  0  0  0
  141.8410   73.3660  221.1250 C   0  0  0  0  0  0  0  0  0  0  0  0
  141.5970   74.7220  220.8980 C   0  0  0  0  0  0  0  0  0  0  0  0
  140.3110   75.3080  221.2210 C   0  0  0  0  0  0  0  0  0  0  0  0
  140.1160   76.2120  222.1630 C   0  0  0  0  0  0  0  0  0  0  0  0
  138.7820   76.8010  222.3820 C   0  0  0  0  0  0  0  0  0  0  0  0
  137.9260   76.0110  223.0760 N   0  0  0  0  0  0  0  0  0  0  0  0
  136.6840   76.4100  223.4070 C   0  0  0  0  0  0  0  0  0  0  0  0
  135.8020   75.6220  224.1110 C   0  0  0  0  0  0  0  0  0  0  0  0
  134.5320   76.0620  224.4360 C   0  0  0  0  0  0  0  0  0  0  0  0
  133.6580   75.2850  225.1320 F   0  0  0  0  0  0  0  0  0  0  0  0
  134.1820   77.3310  224.0260 C   0  0  0  0  0  0  0  0  0  0  0  0
  132.9530   77.8380  224.3060 F   0  0  0  0  0  0  0  0  0  0  0  0
  135.0520   78.1320  223.3220 C   0  0  0  0  0  0  0  0  0  0  0  0
  136.3240   77.6730  223.0020 C   0  0  0  0  0  0  0  0  0  0  0  0
  137.2120   78.4650  222.2950 C   0  0  0  0  0  0  0  0  0  0  0  0
  136.7840   79.6050  221.9760 O   0  0  0  0  0  0  0  0  0  0  0  0
  138.4670   78.0410  221.9660 N   0  0  0  0  0  0  0  0  0  0  0  0
  139.3800   78.8540  221.2340 C   0  0  0  0  0  0  0  0  0  0  0  0
  140.4290   79.5870  222.0220 C   0  0  0  0  0  0  0  0  0  0  0  0
  141.7500   78.8670  222.0490 C   0  0  0  0  0  0  0  0  0  0  0  0
  142.8020   79.8320  222.5680 C   0  0  0  0  0  0  0  0  0  0  0  0
  142.4530   80.5030  223.8480 C   0  0  0  0  0  0  0  0  0  0  0  0
  141.0610   81.0900  223.8290 C   0  0  0  0  0  0  0  0  0  0  0  0
  140.0630   79.9950  223.3970 C   0  0  0  0  0  0  0  0  0  0  0  0
  142.6520   75.4270  220.3560 C   0  0  0  0  0  0  0  0  0  0  0  0
  143.8730   74.8360  220.0580 C   0  0  0  0  0  0  0  0  0  0  0  0
  147.1760   73.9400  218.6880 H   0  0  0  0  0  0  0  0  0  0  0  0
  145.6320   73.9530  217.8930 H   0  0  0  0  0  0  0  0  0  0  0  0
  143.1891   71.7031  221.0276 H   0  0  0  0  0  0  0  0  0  0  0  0
  141.0397   72.7473  221.5553 H   0  0  0  0  0  0  0  0  0  0  0  0
  139.4372   74.9764  220.6410 H   0  0  0  0  0  0  0  0  0  0  0  0
  140.9598   76.5301  222.7929 H   0  0  0  0  0  0  0  0  0  0  0  0
  136.1158   74.6151  224.4235 H   0  0  0  0  0  0  0  0  0  0  0  0
  134.7392   79.1398  223.0113 H   0  0  0  0  0  0  0  0  0  0  0  0
  139.9000   78.2035  220.5153 H   0  0  0  0  0  0  0  0  0  0  0  0
  138.7598   79.6431  220.7837 H   0  0  0  0  0  0  0  0  0  0  0  0
  140.5202   80.5221  221.4499 H   0  0  0  0  0  0  0  0  0  0  0  0
  141.6850   77.9931  222.7139 H   0  0  0  0  0  0  0  0  0  0  0  0
  142.0158   78.5197  221.0397 H   0  0  0  0  0  0  0  0  0  0  0  0
  143.7364   79.2714  222.7188 H   0  0  0  0  0  0  0  0  0  0  0  0
  142.8914   80.6283  221.8144 H   0  0  0  0  0  0  0  0  0  0  0  0
  142.5144   79.7655  224.6618 H   0  0  0  0  0  0  0  0  0  0  0  0
  143.1636   81.3290  223.9986 H   0  0  0  0  0  0  0  0  0  0  0  0
  140.7993   81.4525  224.8340 H   0  0  0  0  0  0  0  0  0  0  0  0
  141.0208   81.9313  223.1215 H   0  0  0  0  0  0  0  0  0  0  0  0
  140.1318   79.1330  224.0768 H   0  0  0  0  0  0  0  0  0  0  0  0
  139.0304   80.3726  223.4304 H   0  0  0  0  0  0  0  0  0  0  0  0
  142.5208   76.4999  220.1518 H   0  0  0  0  0  0  0  0  0  0  0  0
  144.6817   75.4461  219.6293 H   0  0  0  0  0  0  0  0  0  0  0  0
  1  2  1  0
  2  3  2  0
  2  4  2  0
  2  5  1  0
  5  6  2  0
  6  7  1  0
  7  8  2  0
  8  9  1  0
  9 10  2  0
 10 11  1  0
 11 12  2  0
 12 13  1  0
 13 14  2  0
 14 15  1  0
 15 16  1  0
 15 17  2  0
 17 18  1  0
 17 19  1  0
 19 20  2  0
 20 21  1  0
 21 22  2  0
 21 23  1  0
 23 24  1  0
 24 25  1  0
 25 26  1  0
 26 27  1  0
 27 28  1  0
 28 29  1  0
 29 30  1  0
  8 31  1  0
 31 32  2  0
 32  5  1  0
 23 11  1  0
 30 25  1  0
 20 13  1  0
  1 33  1  0
  1 34  1  0
  6 35  1  0
  7 36  1  0
  9 37  1  0
 10 38  1  0
 14 39  1  0
 19 40  1  0
 24 41  1  0
 24 42  1  0
 25 43  1  0
 26 44  1  0
 26 45  1  0
 27 46  1  0
 27 47  1  0
 28 48  1  0
 28 49  1  0
 29 50  1  0
 29 51  1  0
 30 52  1  0
 30 53  1  0
 31 54  1  0
 32 55  1  0
M  END
>  <smiles>  (43) 
NS(=O)(=O)c1ccc(/C=C/c2nc3cc(F)c(F)cc3c(=O)n2CC2CCCCC2)cc1

>  <score_type>  (43) 
oracle

>  <origin>  (43) 
autodockgpu

>  <m_score__min__energy>  (43) 
-8.9800000000000004

>  <m_primary>  (43) 
energy

>  <rmsd>  (43) 
6.614125773706807

>  <m_score__min__rmsd>  (43) 
6.614125773706807

>  <meeko>  (43) 
{"free_energy": -7.98, "intermolecular_energy": -10.07, "internal_energy": -1.37, "cluster_size": 3, "cluster_id": 9, "rank_in_cluster": 1}

>  <energy>  (43) 
-7.99

>  <cluster_rmsd>  (43) 
0.0

>  <cluster>  (43) 
8

$$$$

     RDKit          3D

 55 58  0  0  0  0  0  0  0  0999 V2000
  141.4010   67.7450  226.7160 N   0  0  0  0  0  0  0  0  0  0  0  0
  139.8570   68.4660  226.6310 S   0  0  0  0  0  0  0  0  0  0  0  0
  139.5280   69.0780  227.9680 O   0  0  0  0  0  0  0  0  0  0  0  0
  138.8690   67.3690  226.3210 O   0  0  0  0  0  0  0  0  0  0  0  0
  139.7530   69.6790  225.3940 C   0  0  0  0  0  0  0  0  0  0  0  0
  138.8460   69.6030  224.3690 C   0  0  0  0  0  0  0  0  0  0  0  0
  138.7810   70.5770  223.3980 C   0  0  0  0  0  0  0  0  0  0  0  0
  139.6260   71.6890  223.3970 C   0  0  0  0  0  0  0  0  0  0  0  0
  139.5280   72.6940  222.3570 C   0  0  0  0  0  0  0  0  0  0  0  0
  140.4770   72.9560  221.4780 C   0  0  0  0  0  0  0  0  0  0  0  0
  140.8570   74.3470  221.1670 C   0  0  0  0  0  0  0  0  0  0  0  0
  140.3240   75.2750  222.0000 N   0  0  0  0  0  0  0  0  0  0  0  0
  140.6030   76.5860  221.8910 C   0  0  0  0  0  0  0  0  0  0  0  0
  140.0710   77.5420  222.7260 C   0  0  0  0  0  0  0  0  0  0  0  0
  140.3790   78.8830  222.5890 C   0  0  0  0  0  0  0  0  0  0  0  0
  139.8540   79.8300  223.4140 F   0  0  0  0  0  0  0  0  0  0  0  0
  141.2470   79.2280  221.5750 C   0  0  0  0  0  0  0  0  0  0  0  0
  141.6010   80.5240  221.3730 F   0  0  0  0  0  0  0  0  0  0  0  0
  141.7880   78.2850  220.7310 C   0  0  0  0  0  0  0  0  0  0  0  0
  141.4670   76.9420  220.8830 C   0  0  0  0  0  0  0  0  0  0  0  0
  142.0020   75.9800  220.0430 C   0  0  0  0  0  0  0  0  0  0  0  0
  142.7840   76.4110  219.1560 O   0  0  0  0  0  0  0  0  0  0  0  0
  141.7040   74.6540  220.1670 N   0  0  0  0  0  0  0  0  0  0  0  0
  142.2500   73.6640  219.3010 C   0  0  0  0  0  0  0  0  0  0  0  0
  143.5690   73.0600  219.6950 C   0  0  0  0  0  0  0  0  0  0  0  0
  144.4700   74.0330  220.4040 C   0  0  0  0  0  0  0  0  0  0  0  0
  145.6030   73.2480  221.0420 C   0  0  0  0  0  0  0  0  0  0  0  0
  146.3160   72.3260  220.1190 C   0  0  0  0  0  0  0  0  0  0  0  0
  145.3680   71.4640  219.3190 C   0  0  0  0  0  0  0  0  0  0  0  0
  144.3300   72.3730  218.6270 C   0  0  0  0  0  0  0  0  0  0  0  0
  140.5300   71.7410  224.4390 C   0  0  0  0  0  0  0  0  0  0  0  0
  140.5980   70.7610  225.4200 C   0  0  0  0  0  0  0  0  0  0  0  0
  141.3670   66.8460  227.2380 H   0  0  0  0  0  0  0  0  0  0  0  0
  142.1510   68.3850  227.0500 H   0  0  0  0  0  0  0  0  0  0  0  0
  138.1566   68.7471  224.3213 H   0  0  0  0  0  0  0  0  0  0  0  0
  138.0369   70.4757  222.5942 H   0  0  0  0  0  0  0  0  0  0  0  0
  138.5983   73.2788  222.2962 H   0  0  0  0  0  0  0  0  0  0  0  0
  140.9912   72.1264  220.9707 H   0  0  0  0  0  0  0  0  0  0  0  0
  139.3816   77.2306  223.5246 H   0  0  0  0  0  0  0  0  0  0  0  0
  142.4776   78.5962  219.9325 H   0  0  0  0  0  0  0  0  0  0  0  0
  141.5186   72.8454  219.2312 H   0  0  0  0  0  0  0  0  0  0  0  0
  142.4500   74.1917  218.3568 H   0  0  0  0  0  0  0  0  0  0  0  0
  143.2497   72.2680  220.3884 H   0  0  0  0  0  0  0  0  0  0  0  0
  144.8777   74.7570  219.6832 H   0  0  0  0  0  0  0  0  0  0  0  0
  143.9073   74.5830  221.1727 H   0  0  0  0  0  0  0  0  0  0  0  0
  146.3343   73.9656  221.4422 H   0  0  0  0  0  0  0  0  0  0  0  0
  145.1457   72.6179  221.8190 H   0  0  0  0  0  0  0  0  0  0  0  0
  146.9232   72.9231  219.4228 H   0  0  0  0  0  0  0  0  0  0  0  0
  146.9417   71.6584  220.7296 H   0  0  0  0  0  0  0  0  0  0  0  0
  145.9314   70.9019  218.5596 H   0  0  0  0  0  0  0  0  0  0  0  0
  144.8565   70.7541  219.9857 H   0  0  0  0  0  0  0  0  0  0  0  0
  144.8402   73.1125  217.9924 H   0  0  0  0  0  0  0  0  0  0  0  0
  143.6583   71.7820  217.9871 H   0  0  0  0  0  0  0  0  0  0  0  0
  141.2240   72.5927  224.4942 H   0  0  0  0  0  0  0  0  0  0  0  0
  141.3383   70.8525  226.2285 H   0  0  0  0  0  0  0  0  0  0  0  0
  1  2  1  0
  2  3  2  0
  2  4  2  0
  2  5  1  0
  5  6  2  0
  6  7  1  0
  7  8  2  0
  8  9  1  0
  9 10  2  0
 10 11  1  0
 11 12  2  0
 12 13  1  0
 13 14  2  0
 14 15  1  0
 15 16  1  0
 15 17  2  0
 17 18  1  0
 17 19  1  0
 19 20  2  0
 20 21  1  0
 21 22  2  0
 21 23  1  0
 23 24  1  0
 24 25  1  0
 25 26  1  0
 26 27  1  0
 27 28  1  0
 28 29  1  0
 29 30  1  0
  8 31  1  0
 31 32  2  0
 32  5  1  0
 23 11  1  0
 30 25  1  0
 20 13  1  0
  1 33  1  0
  1 34  1  0
  6 35  1  0
  7 36  1  0
  9 37  1  0
 10 38  1  0
 14 39  1  0
 19 40  1  0
 24 41  1  0
 24 42  1  0
 25 43  1  0
 26 44  1  0
 26 45  1  0
 27 46  1  0
 27 47  1  0
 28 48  1  0
 28 49  1  0
 29 50  1  0
 29 51  1  0
 30 52  1  0
 30 53  1  0
 31 54  1  0
 32 55  1  0
M  END
>  <smiles>  (44) 
NS(=O)(=O)c1ccc(/C=C/c2nc3cc(F)c(F)cc3c(=O)n2CC2CCCCC2)cc1

>  <score_type>  (44) 
oracle

>  <origin>  (44) 
autodockgpu

>  <m_score__min__energy>  (44) 
-8.9800000000000004

>  <m_primary>  (44) 
energy

>  <rmsd>  (44) 
5.540997212475149

>  <m_score__min__rmsd>  (44) 
5.540997212475149

>  <meeko>  (44) 
{"free_energy": -8.8, "intermolecular_energy": -10.89, "internal_energy": -1.23, "cluster_size": 17, "cluster_id": 1, "rank_in_cluster": 7}

>  <energy>  (44) 
-7.98

>  <cluster_rmsd>  (44) 
0.0

>  <cluster>  (44) 
9

$$$$

     RDKit          3D

 55 58  0  0  0  0  0  0  0  0999 V2000
  139.2660   67.0190  226.8390 N   0  0  0  0  0  0  0  0  0  0  0  0
  140.0360   68.5020  227.1820 S   0  0  0  0  0  0  0  0  0  0  0  0
  141.4630   68.2320  227.5850 O   0  0  0  0  0  0  0  0  0  0  0  0
  139.2960   69.1330  228.3340 O   0  0  0  0  0  0  0  0  0  0  0  0
  140.0090   69.5960  225.8350 C   0  0  0  0  0  0  0  0  0  0  0  0
  139.4550   69.2570  224.6270 C   0  0  0  0  0  0  0  0  0  0  0  0
  139.4440   70.1410  223.5710 C   0  0  0  0  0  0  0  0  0  0  0  0
  139.9920   71.4220  223.6650 C   0  0  0  0  0  0  0  0  0  0  0  0
  139.9620   72.3250  222.5310 C   0  0  0  0  0  0  0  0  0  0  0  0
  141.0330   72.8500  221.9640 C   0  0  0  0  0  0  0  0  0  0  0  0
  141.0060   74.2220  221.4220 C   0  0  0  0  0  0  0  0  0  0  0  0
  140.3790   75.1270  222.2130 N   0  0  0  0  0  0  0  0  0  0  0  0
  140.3040   76.4320  221.8960 C   0  0  0  0  0  0  0  0  0  0  0  0
  139.6720   77.3650  222.6860 C   0  0  0  0  0  0  0  0  0  0  0  0
  139.6130   78.7000  222.3320 C   0  0  0  0  0  0  0  0  0  0  0  0
  138.9890   79.6240  223.1120 F   0  0  0  0  0  0  0  0  0  0  0  0
  140.2180   79.0630  221.1480 C   0  0  0  0  0  0  0  0  0  0  0  0
  140.2050   80.3560  220.7280 F   0  0  0  0  0  0  0  0  0  0  0  0
  140.8540   78.1440  220.3460 C   0  0  0  0  0  0  0  0  0  0  0  0
  140.9030   76.8060  220.7160 C   0  0  0  0  0  0  0  0  0  0  0  0
  141.5390   75.8670  219.9220 C   0  0  0  0  0  0  0  0  0  0  0  0
  142.0570   76.3140  218.8660 O   0  0  0  0  0  0  0  0  0  0  0  0
  141.6010   74.5460  220.2600 N   0  0  0  0  0  0  0  0  0  0  0  0
  142.2520   73.5790  219.4410 C   0  0  0  0  0  0  0  0  0  0  0  0
  143.7160   73.3450  219.6860 C   0  0  0  0  0  0  0  0  0  0  0  0
  144.0660   71.8860  219.7970 C   0  0  0  0  0  0  0  0  0  0  0  0
  145.5760   71.7560  219.7050 C   0  0  0  0  0  0  0  0  0  0  0  0
  146.3330   72.6310  220.6380 C   0  0  0  0  0  0  0  0  0  0  0  0
  145.8540   74.0640  220.6000 C   0  0  0  0  0  0  0  0  0  0  0  0
  144.3260   74.0840  220.8150 C   0  0  0  0  0  0  0  0  0  0  0  0
  140.5430   71.7390  224.8900 C   0  0  0  0  0  0  0  0  0  0  0  0
  140.5550   70.8500  225.9570 C   0  0  0  0  0  0  0  0  0  0  0  0
  138.5470   66.7960  227.5560 H   0  0  0  0  0  0  0  0  0  0  0  0
  139.9230   66.2310  226.6570 H   0  0  0  0  0  0  0  0  0  0  0  0
  139.0105   68.2590  224.4990 H   0  0  0  0  0  0  0  0  0  0  0  0
  138.9877   69.8271  222.6206 H   0  0  0  0  0  0  0  0  0  0  0  0
  138.9794   72.5911  222.1142 H   0  0  0  0  0  0  0  0  0  0  0  0
  141.9568   72.2569  221.8950 H   0  0  0  0  0  0  0  0  0  0  0  0
  139.2007   77.0394  223.6251 H   0  0  0  0  0  0  0  0  0  0  0  0
  141.3259   78.4701  219.4074 H   0  0  0  0  0  0  0  0  0  0  0  0
  141.7345   72.6194  219.5872 H   0  0  0  0  0  0  0  0  0  0  0  0
  142.1971   73.9881  218.4214 H   0  0  0  0  0  0  0  0  0  0  0  0
  144.1621   73.7712  218.7753 H   0  0  0  0  0  0  0  0  0  0  0  0
  143.7156   71.4907  220.7619 H   0  0  0  0  0  0  0  0  0  0  0  0
  143.5840   71.3155  218.9894 H   0  0  0  0  0  0  0  0  0  0  0  0
  145.8437   70.7113  219.9218 H   0  0  0  0  0  0  0  0  0  0  0  0
  145.8536   72.0721  218.6886 H   0  0  0  0  0  0  0  0  0  0  0  0
  146.2121   72.2450  221.6609 H   0  0  0  0  0  0  0  0  0  0  0  0
  147.3877   72.6214  220.3258 H   0  0  0  0  0  0  0  0  0  0  0  0
  146.3470   74.6398  221.3972 H   0  0  0  0  0  0  0  0  0  0  0  0
  146.1003   74.5145  219.6272 H   0  0  0  0  0  0  0  0  0  0  0  0
  144.0728   73.5943  221.7669 H   0  0  0  0  0  0  0  0  0  0  0  0
  143.9504   75.1171  220.8543 H   0  0  0  0  0  0  0  0  0  0  0  0
  140.9901   72.7347  225.0266 H   0  0  0  0  0  0  0  0  0  0  0  0
  141.0077   71.1544  226.9122 H   0  0  0  0  0  0  0  0  0  0  0  0
  1  2  1  0
  2  3  2  0
  2  4  2  0
  2  5  1  0
  5  6  2  0
  6  7  1  0
  7  8  2  0
  8  9  1  0
  9 10  2  0
 10 11  1  0
 11 12  2  0
 12 13  1  0
 13 14  2  0
 14 15  1  0
 15 16  1  0
 15 17  2  0
 17 18  1  0
 17 19  1  0
 19 20  2  0
 20 21  1  0
 21 22  2  0
 21 23  1  0
 23 24  1  0
 24 25  1  0
 25 26  1  0
 26 27  1  0
 27 28  1  0
 28 29  1  0
 29 30  1  0
  8 31  1  0
 31 32  2  0
 32  5  1  0
 23 11  1  0
 30 25  1  0
 20 13  1  0
  1 33  1  0
  1 34  1  0
  6 35  1  0
  7 36  1  0
  9 37  1  0
 10 38  1  0
 14 39  1  0
 19 40  1  0
 24 41  1  0
 24 42  1  0
 25 43  1  0
 26 44  1  0
 26 45  1  0
 27 46  1  0
 27 47  1  0
 28 48  1  0
 28 49  1  0
 29 50  1  0
 29 51  1  0
 30 52  1  0
 30 53  1  0
 31 54  1  0
 32 55  1  0
M  END
>  <smiles>  (45) 
NS(=O)(=O)c1ccc(/C=C/c2nc3cc(F)c(F)cc3c(=O)n2CC2CCCCC2)cc1

>  <score_type>  (45) 
oracle

>  <origin>  (45) 
autodockgpu

>  <m_score__min__energy>  (45) 
-8.9800000000000004

>  <m_primary>  (45) 
energy

>  <rmsd>  (45) 
5.815885160014915

>  <m_score__min__rmsd>  (45) 
5.815885160014915

>  <meeko>  (45) 
{"free_energy": -8.52, "intermolecular_energy": -10.61, "internal_energy": -1.29, "cluster_size": 17, "cluster_id": 1, "rank_in_cluster": 14}

>  <energy>  (45) 
-7.88

>  <cluster_rmsd>  (45) 
0.57

>  <cluster>  (45) 
9

$$$$

     RDKit          3D

 55 58  0  0  0  0  0  0  0  0999 V2000
  133.6060   72.2740  227.1560 N   0  0  0  0  0  0  0  0  0  0  0  0
  133.1040   73.6930  226.3520 S   0  0  0  0  0  0  0  0  0  0  0  0
  132.8380   74.7680  227.3740 O   0  0  0  0  0  0  0  0  0  0  0  0
  131.8260   73.3630  225.6230 O   0  0  0  0  0  0  0  0  0  0  0  0
  134.2740   74.2590  225.2020 C   0  0  0  0  0  0  0  0  0  0  0  0
  134.8940   73.4190  224.3150 C   0  0  0  0  0  0  0  0  0  0  0  0
  135.8200   73.8890  223.4100 C   0  0  0  0  0  0  0  0  0  0  0  0
  136.1800   75.2360  223.3440 C   0  0  0  0  0  0  0  0  0  0  0  0
  137.1600   75.6950  222.3780 C   0  0  0  0  0  0  0  0  0  0  0  0
  138.2530   76.3680  222.6840 C   0  0  0  0  0  0  0  0  0  0  0  0
  139.5350   76.0710  222.0170 C   0  0  0  0  0  0  0  0  0  0  0  0
  139.8870   74.7620  222.0330 N   0  0  0  0  0  0  0  0  0  0  0  0
  141.0000   74.3070  221.4300 C   0  0  0  0  0  0  0  0  0  0  0  0
  141.3740   72.9830  221.4350 C   0  0  0  0  0  0  0  0  0  0  0  0
  142.5240   72.5470  220.8050 C   0  0  0  0  0  0  0  0  0  0  0  0
  142.8960   71.2380  220.8090 F   0  0  0  0  0  0  0  0  0  0  0  0
  143.2890   73.4990  220.1640 C   0  0  0  0  0  0  0  0  0  0  0  0
  144.4350   73.1530  219.5210 F   0  0  0  0  0  0  0  0  0  0  0  0
  142.9310   74.8270  220.1480 C   0  0  0  0  0  0  0  0  0  0  0  0
  141.7710   75.2480  220.7880 C   0  0  0  0  0  0  0  0  0  0  0  0
  141.3950   76.5810  220.7820 C   0  0  0  0  0  0  0  0  0  0  0  0
  142.1680   77.3570  220.1650 O   0  0  0  0  0  0  0  0  0  0  0  0
  140.2620   77.0230  221.4030 N   0  0  0  0  0  0  0  0  0  0  0  0
  139.8770   78.3940  221.4010 C   0  0  0  0  0  0  0  0  0  0  0  0
  140.8050   79.3680  222.0700 C   0  0  0  0  0  0  0  0  0  0  0  0
  141.4240   78.8190  223.3270 C   0  0  0  0  0  0  0  0  0  0  0  0
  142.5720   79.7310  223.7240 C   0  0  0  0  0  0  0  0  0  0  0  0
  142.2220   81.1730  223.8040 C   0  0  0  0  0  0  0  0  0  0  0  0
  141.4740   81.6520  222.5810 C   0  0  0  0  0  0  0  0  0  0  0  0
  140.2670   80.7220  222.3380 C   0  0  0  0  0  0  0  0  0  0  0  0
  135.5430   76.0620  224.2480 C   0  0  0  0  0  0  0  0  0  0  0  0
  134.6080   75.5900  225.1600 C   0  0  0  0  0  0  0  0  0  0  0  0
  133.4170   72.3350  228.1770 H   0  0  0  0  0  0  0  0  0  0  0  0
  134.5810   71.9840  226.9360 H   0  0  0  0  0  0  0  0  0  0  0  0
  134.6473   72.3471  224.3257 H   0  0  0  0  0  0  0  0  0  0  0  0
  136.2920   73.1784  222.7155 H   0  0  0  0  0  0  0  0  0  0  0  0
  136.9796   75.4663  221.3173 H   0  0  0  0  0  0  0  0  0  0  0  0
  138.2077   77.1602  223.4458 H   0  0  0  0  0  0  0  0  0  0  0  0
  140.7394   72.2505  221.9554 H   0  0  0  0  0  0  0  0  0  0  0  0
  143.5653   75.5590  219.6266 H   0  0  0  0  0  0  0  0  0  0  0  0
  139.7697   78.7062  220.3517 H   0  0  0  0  0  0  0  0  0  0  0  0
  138.9517   78.4299  221.9947 H   0  0  0  0  0  0  0  0  0  0  0  0
  141.5760   79.5022  221.2970 H   0  0  0  0  0  0  0  0  0  0  0  0
  140.6739   78.7920  224.1311 H   0  0  0  0  0  0  0  0  0  0  0  0
  141.7910   77.7962  223.1562 H   0  0  0  0  0  0  0  0  0  0  0  0
  142.9370   79.4120  224.7114 H   0  0  0  0  0  0  0  0  0  0  0  0
  143.3293   79.6392  222.9315 H   0  0  0  0  0  0  0  0  0  0  0  0
  141.5909   81.3349  224.6903 H   0  0  0  0  0  0  0  0  0  0  0  0
  143.1604   81.7433  223.8685 H   0  0  0  0  0  0  0  0  0  0  0  0
  141.1206   82.6809  222.7436 H   0  0  0  0  0  0  0  0  0  0  0  0
  142.1402   81.6348  221.7059 H   0  0  0  0  0  0  0  0  0  0  0  0
  139.6214   80.7017  223.2284 H   0  0  0  0  0  0  0  0  0  0  0  0
  139.6641   81.0779  221.4895 H   0  0  0  0  0  0  0  0  0  0  0  0
  135.7852   77.1350  224.2460 H   0  0  0  0  0  0  0  0  0  0  0  0
  134.1286   76.2920  225.8581 H   0  0  0  0  0  0  0  0  0  0  0  0
  1  2  1  0
  2  3  2  0
  2  4  2  0
  2  5  1  0
  5  6  2  0
  6  7  1  0
  7  8  2  0
  8  9  1  0
  9 10  2  0
 10 11  1  0
 11 12  2  0
 12 13  1  0
 13 14  2  0
 14 15  1  0
 15 16  1  0
 15 17  2  0
 17 18  1  0
 17 19  1  0
 19 20  2  0
 20 21  1  0
 21 22  2  0
 21 23  1  0
 23 24  1  0
 24 25  1  0
 25 26  1  0
 26 27  1  0
 27 28  1  0
 28 29  1  0
 29 30  1  0
  8 31  1  0
 31 32  2  0
 32  5  1  0
 23 11  1  0
 30 25  1  0
 20 13  1  0
  1 33  1  0
  1 34  1  0
  6 35  1  0
  7 36  1  0
  9 37  1  0
 10 38  1  0
 14 39  1  0
 19 40  1  0
 24 41  1  0
 24 42  1  0
 25 43  1  0
 26 44  1  0
 26 45  1  0
 27 46  1  0
 27 47  1  0
 28 48  1  0
 28 49  1  0
 29 50  1  0
 29 51  1  0
 30 52  1  0
 30 53  1  0
 31 54  1  0
 32 55  1  0
M  END
>  <smiles>  (46) 
NS(=O)(=O)c1ccc(/C=C/c2nc3cc(F)c(F)cc3c(=O)n2CC2CCCCC2)cc1

>  <score_type>  (46) 
oracle

>  <origin>  (46) 
autodockgpu

>  <m_score__min__energy>  (46) 
-8.9800000000000004

>  <m_primary>  (46) 
energy

>  <rmsd>  (46) 
7.289285619708639

>  <m_score__min__rmsd>  (46) 
7.289285619708639

>  <meeko>  (46) 
{"free_energy": -8.19, "intermolecular_energy": -10.28, "internal_energy": -1.21, "cluster_size": 4, "cluster_id": 4, "rank_in_cluster": 3}

>  <energy>  (46) 
-7.71

>  <cluster_rmsd>  (46) 
0.74

>  <cluster>  (46) 
9

$$$$

     RDKit          3D

 55 58  0  0  0  0  0  0  0  0999 V2000
  145.6030   73.7530  218.0020 N   0  0  0  0  0  0  0  0  0  0  0  0
  145.6470   73.0130  219.5390 S   0  0  0  0  0  0  0  0  0  0  0  0
  146.4660   73.8680  220.4710 O   0  0  0  0  0  0  0  0  0  0  0  0
  146.3130   71.6710  219.3690 O   0  0  0  0  0  0  0  0  0  0  0  0
  144.0650   72.7720  220.2100 C   0  0  0  0  0  0  0  0  0  0  0  0
  143.2760   73.8150  220.6210 C   0  0  0  0  0  0  0  0  0  0  0  0
  142.0230   73.6000  221.1500 C   0  0  0  0  0  0  0  0  0  0  0  0
  141.4850   72.3200  221.2990 C   0  0  0  0  0  0  0  0  0  0  0  0
  140.1620   72.1330  221.8610 C   0  0  0  0  0  0  0  0  0  0  0  0
  139.8650   71.2540  222.8000 C   0  0  0  0  0  0  0  0  0  0  0  0
  138.4830   71.1160  223.2970 C   0  0  0  0  0  0  0  0  0  0  0  0
  137.6700   72.1580  222.9950 N   0  0  0  0  0  0  0  0  0  0  0  0
  136.3670   72.1760  223.3280 C   0  0  0  0  0  0  0  0  0  0  0  0
  135.5270   73.2250  223.0310 C   0  0  0  0  0  0  0  0  0  0  0  0
  134.1910   73.2120  223.3870 C   0  0  0  0  0  0  0  0  0  0  0  0
  133.3590   74.2480  223.0930 F   0  0  0  0  0  0  0  0  0  0  0  0
  133.7300   72.0990  224.0570 C   0  0  0  0  0  0  0  0  0  0  0  0
  132.4300   72.0090  224.4420 F   0  0  0  0  0  0  0  0  0  0  0  0
  134.5550   71.0420  224.3630 C   0  0  0  0  0  0  0  0  0  0  0  0
  135.8960   71.0720  223.9980 C   0  0  0  0  0  0  0  0  0  0  0  0
  136.7420   70.0170  224.2980 C   0  0  0  0  0  0  0  0  0  0  0  0
  136.2090   69.0550  224.9090 O   0  0  0  0  0  0  0  0  0  0  0  0
  138.0630   70.0190  223.9530 N   0  0  0  0  0  0  0  0  0  0  0  0
  138.9340   68.9360  224.2650 C   0  0  0  0  0  0  0  0  0  0  0  0
  139.8260   69.0960  225.4630 C   0  0  0  0  0  0  0  0  0  0  0  0
  139.6300   68.0120  226.4880 C   0  0  0  0  0  0  0  0  0  0  0  0
  140.7870   68.0770  227.4700 C   0  0  0  0  0  0  0  0  0  0  0  0
  141.0320   69.4230  228.0530 C   0  0  0  0  0  0  0  0  0  0  0  0
  141.0790   70.5070  227.0010 C   0  0  0  0  0  0  0  0  0  0  0  0
  139.8050   70.4160  226.1340 C   0  0  0  0  0  0  0  0  0  0  0  0
  142.2980   71.2870  220.8790 C   0  0  0  0  0  0  0  0  0  0  0  0
  143.5620   71.5010  220.3440 C   0  0  0  0  0  0  0  0  0  0  0  0
  146.5550   74.0420  217.6980 H   0  0  0  0  0  0  0  0  0  0  0  0
  144.8960   74.5130  217.9170 H   0  0  0  0  0  0  0  0  0  0  0  0
  143.6515   74.8446  220.5263 H   0  0  0  0  0  0  0  0  0  0  0  0
  141.4247   74.4671  221.4664 H   0  0  0  0  0  0  0  0  0  0  0  0
  139.3490   72.7676  221.4784 H   0  0  0  0  0  0  0  0  0  0  0  0
  140.6583   70.6163  223.2172 H   0  0  0  0  0  0  0  0  0  0  0  0
  135.9295   74.0976  222.4958 H   0  0  0  0  0  0  0  0  0  0  0  0
  134.1522   70.1697  224.8985 H   0  0  0  0  0  0  0  0  0  0  0  0
  138.3090   68.0468  224.4341 H   0  0  0  0  0  0  0  0  0  0  0  0
  139.6199   68.8676  223.4078 H   0  0  0  0  0  0  0  0  0  0  0  0
  140.8236   69.0089  225.0079 H   0  0  0  0  0  0  0  0  0  0  0  0
  138.6801   68.1691  227.0200 H   0  0  0  0  0  0  0  0  0  0  0  0
  139.5991   67.0267  225.9999 H   0  0  0  0  0  0  0  0  0  0  0  0
  140.5765   67.3797  228.2943 H   0  0  0  0  0  0  0  0  0  0  0  0
  141.6918   67.8149  226.9020 H   0  0  0  0  0  0  0  0  0  0  0  0
  140.2230   69.6535  228.7618 H   0  0  0  0  0  0  0  0  0  0  0  0
  142.0114   69.3985  228.5531 H   0  0  0  0  0  0  0  0  0  0  0  0
  141.1251   71.4924  227.4877 H   0  0  0  0  0  0  0  0  0  0  0  0
  141.9703   70.3761  226.3697 H   0  0  0  0  0  0  0  0  0  0  0  0
  138.9104   70.5023  226.7683 H   0  0  0  0  0  0  0  0  0  0  0  0
  139.7767   71.2298  225.3945 H   0  0  0  0  0  0  0  0  0  0  0  0
  141.9309   70.2542  220.9714 H   0  0  0  0  0  0  0  0  0  0  0  0
  144.1682   70.6409  220.0233 H   0  0  0  0  0  0  0  0  0  0  0  0
  1  2  1  0
  2  3  2  0
  2  4  2  0
  2  5  1  0
  5  6  2  0
  6  7  1  0
  7  8  2  0
  8  9  1  0
  9 10  2  0
 10 11  1  0
 11 12  2  0
 12 13  1  0
 13 14  2  0
 14 15  1  0
 15 16  1  0
 15 17  2  0
 17 18  1  0
 17 19  1  0
 19 20  2  0
 20 21  1  0
 21 22  2  0
 21 23  1  0
 23 24  1  0
 24 25  1  0
 25 26  1  0
 26 27  1  0
 27 28  1  0
 28 29  1  0
 29 30  1  0
  8 31  1  0
 31 32  2  0
 32  5  1  0
 23 11  1  0
 30 25  1  0
 20 13  1  0
  1 33  1  0
  1 34  1  0
  6 35  1  0
  7 36  1  0
  9 37  1  0
 10 38  1  0
 14 39  1  0
 19 40  1  0
 24 41  1  0
 24 42  1  0
 25 43  1  0
 26 44  1  0
 26 45  1  0
 27 46  1  0
 27 47  1  0
 28 48  1  0
 28 49  1  0
 29 50  1  0
 29 51  1  0
 30 52  1  0
 30 53  1  0
 31 54  1  0
 32 55  1  0
M  END
>  <smiles>  (47) 
NS(=O)(=O)c1ccc(/C=C/c2nc3cc(F)c(F)cc3c(=O)n2CC2CCCCC2)cc1

>  <score_type>  (47) 
oracle

>  <origin>  (47) 
autodockgpu

>  <m_score__min__energy>  (47) 
-8.9800000000000004

>  <m_primary>  (47) 
energy

>  <rmsd>  (47) 
11.39272327507247

>  <m_score__min__rmsd>  (47) 
11.39272327507247

>  <meeko>  (47) 
{"free_energy": -7.9, "intermolecular_energy": -9.99, "internal_energy": -1.24, "cluster_size": 1, "cluster_id": 10, "rank_in_cluster": 1}

>  <energy>  (47) 
-7.9

>  <cluster_rmsd>  (47) 
0.0

>  <cluster>  (47) 
10

$$$$

     RDKit          3D

 55 58  0  0  0  0  0  0  0  0999 V2000
  146.3520   73.6310  220.2240 N   0  0  0  0  0  0  0  0  0  0  0  0
  145.5470   72.3530  219.4320 S   0  0  0  0  0  0  0  0  0  0  0  0
  146.2670   71.0620  219.7260 O   0  0  0  0  0  0  0  0  0  0  0  0
  145.6050   72.6380  217.9520 O   0  0  0  0  0  0  0  0  0  0  0  0
  143.8840   72.2130  219.9090 C   0  0  0  0  0  0  0  0  0  0  0  0
  143.3200   73.0360  220.8480 C   0  0  0  0  0  0  0  0  0  0  0  0
  141.9980   72.9080  221.2120 C   0  0  0  0  0  0  0  0  0  0  0  0
  141.1600   71.9410  220.6520 C   0  0  0  0  0  0  0  0  0  0  0  0
  139.7730   71.8360  221.0600 C   0  0  0  0  0  0  0  0  0  0  0  0
  139.3050   72.2310  222.2300 C   0  0  0  0  0  0  0  0  0  0  0  0
  139.3810   71.3500  223.4110 C   0  0  0  0  0  0  0  0  0  0  0  0
  140.1070   71.8510  224.4400 N   0  0  0  0  0  0  0  0  0  0  0  0
  140.2400   71.2030  225.6110 C   0  0  0  0  0  0  0  0  0  0  0  0
  140.9730   71.6940  226.6670 C   0  0  0  0  0  0  0  0  0  0  0  0
  141.0890   71.0040  227.8590 C   0  0  0  0  0  0  0  0  0  0  0  0
  141.8140   71.4890  228.9040 F   0  0  0  0  0  0  0  0  0  0  0  0
  140.4360   69.7930  227.9490 C   0  0  0  0  0  0  0  0  0  0  0  0
  140.5000   69.0520  229.0870 F   0  0  0  0  0  0  0  0  0  0  0  0
  139.6990   69.2860  226.9050 C   0  0  0  0  0  0  0  0  0  0  0  0
  139.5930   69.9930  225.7130 C   0  0  0  0  0  0  0  0  0  0  0  0
  138.8550   69.4990  224.6510 C   0  0  0  0  0  0  0  0  0  0  0  0
  138.3020   68.3870  224.8500 O   0  0  0  0  0  0  0  0  0  0  0  0
  138.7350   70.1710  223.4690 N   0  0  0  0  0  0  0  0  0  0  0  0
  137.9800   69.6600  222.3750 C   0  0  0  0  0  0  0  0  0  0  0  0
  138.5690   68.5060  221.6130 C   0  0  0  0  0  0  0  0  0  0  0  0
  138.4510   67.1990  222.3480 C   0  0  0  0  0  0  0  0  0  0  0  0
  138.7610   66.0790  221.3700 C   0  0  0  0  0  0  0  0  0  0  0  0
  140.0370   66.2400  220.6250 C   0  0  0  0  0  0  0  0  0  0  0  0
  140.1810   67.6180  220.0210 C   0  0  0  0  0  0  0  0  0  0  0  0
  139.9570   68.6730  221.1250 C   0  0  0  0  0  0  0  0  0  0  0  0
  141.7520   71.1250  219.7090 C   0  0  0  0  0  0  0  0  0  0  0  0
  143.0840   71.2520  219.3400 C   0  0  0  0  0  0  0  0  0  0  0  0
  145.9420   73.8080  221.1630 H   0  0  0  0  0  0  0  0  0  0  0  0
  146.4470   74.4940  219.6490 H   0  0  0  0  0  0  0  0  0  0  0  0
  143.9359   73.8151  221.3209 H   0  0  0  0  0  0  0  0  0  0  0  0
  141.5877   73.5912  221.9703 H   0  0  0  0  0  0  0  0  0  0  0  0
  139.0610   71.3969  220.3456 H   0  0  0  0  0  0  0  0  0  0  0  0
  138.8529   73.2293  222.3252 H   0  0  0  0  0  0  0  0  0  0  0  0
  141.4813   72.6636  226.5594 H   0  0  0  0  0  0  0  0  0  0  0  0
  139.1909   68.3164  227.0135 H   0  0  0  0  0  0  0  0  0  0  0  0
  137.0061   69.3338  222.7688 H   0  0  0  0  0  0  0  0  0  0  0  0
  137.9371   70.4860  221.6499 H   0  0  0  0  0  0  0  0  0  0  0  0
  137.9375   68.4903  220.7125 H   0  0  0  0  0  0  0  0  0  0  0  0
  139.1672   67.1744  223.1825 H   0  0  0  0  0  0  0  0  0  0  0  0
  137.4358   67.0803  222.7546 H   0  0  0  0  0  0  0  0  0  0  0  0
  138.8101   65.1357  221.9338 H   0  0  0  0  0  0  0  0  0  0  0  0
  137.9585   66.0926  220.6178 H   0  0  0  0  0  0  0  0  0  0  0  0
  140.8744   66.0683  221.3173 H   0  0  0  0  0  0  0  0  0  0  0  0
  140.0392   65.5107  219.8015 H   0  0  0  0  0  0  0  0  0  0  0  0
  141.1906   67.7329  219.5997 H   0  0  0  0  0  0  0  0  0  0  0  0
  139.4395   67.7534  219.2198 H   0  0  0  0  0  0  0  0  0  0  0  0
  140.6682   68.5136  221.9489 H   0  0  0  0  0  0  0  0  0  0  0  0
  140.1142   69.6887  220.7330 H   0  0  0  0  0  0  0  0  0  0  0  0
  141.1439   70.3429  219.2309 H   0  0  0  0  0  0  0  0  0  0  0  0
  143.5044   70.5745  218.5822 H   0  0  0  0  0  0  0  0  0  0  0  0
  1  2  1  0
  2  3  2  0
  2  4  2  0
  2  5  1  0
  5  6  2  0
  6  7  1  0
  7  8  2  0
  8  9  1  0
  9 10  2  0
 10 11  1  0
 11 12  2  0
 12 13  1  0
 13 14  2  0
 14 15  1  0
 15 16  1  0
 15 17  2  0
 17 18  1  0
 17 19  1  0
 19 20  2  0
 20 21  1  0
 21 22  2  0
 21 23  1  0
 23 24  1  0
 24 25  1  0
 25 26  1  0
 26 27  1  0
 27 28  1  0
 28 29  1  0
 29 30  1  0
  8 31  1  0
 31 32  2  0
 32  5  1  0
 23 11  1  0
 30 25  1  0
 20 13  1  0
  1 33  1  0
  1 34  1  0
  6 35  1  0
  7 36  1  0
  9 37  1  0
 10 38  1  0
 14 39  1  0
 19 40  1  0
 24 41  1  0
 24 42  1  0
 25 43  1  0
 26 44  1  0
 26 45  1  0
 27 46  1  0
 27 47  1  0
 28 48  1  0
 28 49  1  0
 29 50  1  0
 29 51  1  0
 30 52  1  0
 30 53  1  0
 31 54  1  0
 32 55  1  0
M  END
>  <smiles>  (48) 
NS(=O)(=O)c1ccc(/C=C/c2nc3cc(F)c(F)cc3c(=O)n2CC2CCCCC2)cc1

>  <score_type>  (48) 
oracle

>  <origin>  (48) 
autodockgpu

>  <m_score__min__energy>  (48) 
-8.9800000000000004

>  <m_primary>  (48) 
energy

>  <rmsd>  (48) 
11.234397959961223

>  <m_score__min__rmsd>  (48) 
11.234397959961223

>  <meeko>  (48) 
{"free_energy": -7.91, "intermolecular_energy": -10.0, "internal_energy": -1.56, "cluster_size": 10, "cluster_id": 2, "rank_in_cluster": 9}

>  <energy>  (48) 
-7.86

>  <cluster_rmsd>  (48) 
0.0

>  <cluster>  (48) 
11

$$$$

     RDKit          3D

 55 58  0  0  0  0  0  0  0  0999 V2000
  139.1540   67.1720  226.4690 N   0  0  0  0  0  0  0  0  0  0  0  0
  140.0640   68.5840  226.7700 S   0  0  0  0  0  0  0  0  0  0  0  0
  141.5020   68.2000  227.0010 O   0  0  0  0  0  0  0  0  0  0  0  0
  139.5020   69.2170  228.0180 O   0  0  0  0  0  0  0  0  0  0  0  0
  139.9680   69.7300  225.4700 C   0  0  0  0  0  0  0  0  0  0  0  0
  140.6270   70.9310  225.5030 C   0  0  0  0  0  0  0  0  0  0  0  0
  140.5380   71.8260  224.4600 C   0  0  0  0  0  0  0  0  0  0  0  0
  139.7770   71.5670  223.3180 C   0  0  0  0  0  0  0  0  0  0  0  0
  139.7060   72.5340  222.2400 C   0  0  0  0  0  0  0  0  0  0  0  0
  138.6360   73.2470  221.9440 C   0  0  0  0  0  0  0  0  0  0  0  0
  138.5740   74.6860  222.2640 C   0  0  0  0  0  0  0  0  0  0  0  0
  139.7750   75.3150  222.2610 N   0  0  0  0  0  0  0  0  0  0  0  0
  139.8980   76.6360  222.4840 C   0  0  0  0  0  0  0  0  0  0  0  0
  141.1080   77.2910  222.4850 C   0  0  0  0  0  0  0  0  0  0  0  0
  141.2000   78.6510  222.7170 C   0  0  0  0  0  0  0  0  0  0  0  0
  142.3960   79.3010  222.7190 F   0  0  0  0  0  0  0  0  0  0  0  0
  140.0230   79.3300  222.9480 C   0  0  0  0  0  0  0  0  0  0  0  0
  140.0270   80.6690  223.1850 F   0  0  0  0  0  0  0  0  0  0  0  0
  138.8040   78.6920  222.9500 C   0  0  0  0  0  0  0  0  0  0  0  0
  138.7300   77.3240  222.7160 C   0  0  0  0  0  0  0  0  0  0  0  0
  137.5130   76.6640  222.7150 C   0  0  0  0  0  0  0  0  0  0  0  0
  136.5070   77.3860  222.9340 O   0  0  0  0  0  0  0  0  0  0  0  0
  137.4100   75.3220  222.4890 N   0  0  0  0  0  0  0  0  0  0  0  0
  136.1580   74.6420  222.4920 C   0  0  0  0  0  0  0  0  0  0  0  0
  135.5070   74.4080  223.8260 C   0  0  0  0  0  0  0  0  0  0  0  0
  134.6830   73.1490  223.8630 C   0  0  0  0  0  0  0  0  0  0  0  0
  134.3590   72.8410  225.3140 C   0  0  0  0  0  0  0  0  0  0  0  0
  133.7660   73.9740  226.0730 C   0  0  0  0  0  0  0  0  0  0  0  0
  134.5440   75.2570  225.8940 C   0  0  0  0  0  0  0  0  0  0  0  0
  134.7170   75.5290  224.3840 C   0  0  0  0  0  0  0  0  0  0  0  0
  139.1230   70.3520  223.3090 C   0  0  0  0  0  0  0  0  0  0  0  0
  139.2120   69.4470  224.3590 C   0  0  0  0  0  0  0  0  0  0  0  0
  138.1660   67.4040  226.2400 H   0  0  0  0  0  0  0  0  0  0  0  0
  139.2440   66.4440  227.2070 H   0  0  0  0  0  0  0  0  0  0  0  0
  141.2396   71.1855  226.3805 H   0  0  0  0  0  0  0  0  0  0  0  0
  141.0852   72.7777  224.5288 H   0  0  0  0  0  0  0  0  0  0  0  0
  140.6066   72.6836  221.6264 H   0  0  0  0  0  0  0  0  0  0  0  0
  137.7794   72.7625  221.4525 H   0  0  0  0  0  0  0  0  0  0  0  0
  142.0272   76.7171  222.2961 H   0  0  0  0  0  0  0  0  0  0  0  0
  137.8849   79.2666  223.1374 H   0  0  0  0  0  0  0  0  0  0  0  0
  135.4590   75.2328  221.8817 H   0  0  0  0  0  0  0  0  0  0  0  0
  136.3803   73.6367  222.1047 H   0  0  0  0  0  0  0  0  0  0  0  0
  136.3829   74.3047  224.4834 H   0  0  0  0  0  0  0  0  0  0  0  0
  133.7519   73.2958  223.2959 H   0  0  0  0  0  0  0  0  0  0  0  0
  135.2401   72.3150  223.4112 H   0  0  0  0  0  0  0  0  0  0  0  0
  133.6458   72.0038  225.3354 H   0  0  0  0  0  0  0  0  0  0  0  0
  135.3162   72.6071  225.8029 H   0  0  0  0  0  0  0  0  0  0  0  0
  132.7358   74.1336  225.7220 H   0  0  0  0  0  0  0  0  0  0  0  0
  133.7918   73.7123  227.1411 H   0  0  0  0  0  0  0  0  0  0  0  0
  133.9956   76.0895  226.3589 H   0  0  0  0  0  0  0  0  0  0  0  0
  135.5304   75.1651  226.3721 H   0  0  0  0  0  0  0  0  0  0  0  0
  133.7331   75.5773  223.8944 H   0  0  0  0  0  0  0  0  0  0  0  0
  135.2273   76.4888  224.2156 H   0  0  0  0  0  0  0  0  0  0  0  0
  138.5070   70.0898  222.4362 H   0  0  0  0  0  0  0  0  0  0  0  0
  138.6701   68.4916  224.2998 H   0  0  0  0  0  0  0  0  0  0  0  0
  1  2  1  0
  2  3  2  0
  2  4  2  0
  2  5  1  0
  5  6  2  0
  6  7  1  0
  7  8  2  0
  8  9  1  0
  9 10  2  0
 10 11  1  0
 11 12  2  0
 12 13  1  0
 13 14  2  0
 14 15  1  0
 15 16  1  0
 15 17  2  0
 17 18  1  0
 17 19  1  0
 19 20  2  0
 20 21  1  0
 21 22  2  0
 21 23  1  0
 23 24  1  0
 24 25  1  0
 25 26  1  0
 26 27  1  0
 27 28  1  0
 28 29  1  0
 29 30  1  0
  8 31  1  0
 31 32  2  0
 32  5  1  0
 23 11  1  0
 30 25  1  0
 20 13  1  0
  1 33  1  0
  1 34  1  0
  6 35  1  0
  7 36  1  0
  9 37  1  0
 10 38  1  0
 14 39  1  0
 19 40  1  0
 24 41  1  0
 24 42  1  0
 25 43  1  0
 26 44  1  0
 26 45  1  0
 27 46  1  0
 27 47  1  0
 28 48  1  0
 28 49  1  0
 29 50  1  0
 29 51  1  0
 30 52  1  0
 30 53  1  0
 31 54  1  0
 32 55  1  0
M  END
>  <smiles>  (49) 
NS(=O)(=O)c1ccc(/C=C/c2nc3cc(F)c(F)cc3c(=O)n2CC2CCCCC2)cc1

>  <score_type>  (49) 
oracle

>  <origin>  (49) 
autodockgpu

>  <m_score__min__energy>  (49) 
-8.9800000000000004

>  <m_primary>  (49) 
energy

>  <rmsd>  (49) 
7.462071849706341

>  <m_score__min__rmsd>  (49) 
7.462071849706341

>  <meeko>  (49) 
{"free_energy": -8.28, "intermolecular_energy": -10.37, "internal_energy": -1.36, "cluster_size": 3, "cluster_id": 5, "rank_in_cluster": 3}

>  <energy>  (49) 
-7.68

>  <cluster_rmsd>  (49) 
0.0

>  <cluster>  (49) 
12

$$$$

     RDKit          3D

 55 58  0  0  0  0  0  0  0  0999 V2000
  141.3630   67.4340  226.9090 N   0  0  0  0  0  0  0  0  0  0  0  0
  139.8480   68.2140  226.8220 S   0  0  0  0  0  0  0  0  0  0  0  0
  139.5050   68.7730  228.1780 O   0  0  0  0  0  0  0  0  0  0  0  0
  138.8310   67.1690  226.4340 O   0  0  0  0  0  0  0  0  0  0  0  0
  139.8190   69.4860  225.6420 C   0  0  0  0  0  0  0  0  0  0  0  0
  140.4940   70.6660  225.8210 C   0  0  0  0  0  0  0  0  0  0  0  0
  140.4570   71.6630  224.8710 C   0  0  0  0  0  0  0  0  0  0  0  0
  139.7370   71.5340  223.6820 C   0  0  0  0  0  0  0  0  0  0  0  0
  139.7210   72.6060  222.7060 C   0  0  0  0  0  0  0  0  0  0  0  0
  140.6150   72.7570  221.7460 C   0  0  0  0  0  0  0  0  0  0  0  0
  140.9900   74.1000  221.2670 C   0  0  0  0  0  0  0  0  0  0  0  0
  140.6770   75.1090  222.1170 N   0  0  0  0  0  0  0  0  0  0  0  0
  140.9900   76.3910  221.8610 C   0  0  0  0  0  0  0  0  0  0  0  0
  140.6800   77.4280  222.7120 C   0  0  0  0  0  0  0  0  0  0  0  0
  141.0170   78.7360  222.4200 C   0  0  0  0  0  0  0  0  0  0  0  0
  140.7110   79.7630  223.2600 F   0  0  0  0  0  0  0  0  0  0  0  0
  141.6830   78.9640  221.2340 C   0  0  0  0  0  0  0  0  0  0  0  0
  142.0500   80.2220  220.8740 F   0  0  0  0  0  0  0  0  0  0  0  0
  142.0010   77.9410  220.3720 C   0  0  0  0  0  0  0  0  0  0  0  0
  141.6540   76.6310  220.6810 C   0  0  0  0  0  0  0  0  0  0  0  0
  141.9660   75.5880  219.8250 C   0  0  0  0  0  0  0  0  0  0  0  0
  142.5760   75.9150  218.7750 O   0  0  0  0  0  0  0  0  0  0  0  0
  141.6360   74.2930  220.1020 N   0  0  0  0  0  0  0  0  0  0  0  0
  141.9530   73.2200  219.2200 C   0  0  0  0  0  0  0  0  0  0  0  0
  143.3740   72.7300  219.2190 C   0  0  0  0  0  0  0  0  0  0  0  0
  143.4760   71.2310  219.2940 C   0  0  0  0  0  0  0  0  0  0  0  0
  144.9030   70.8380  218.9510 C   0  0  0  0  0  0  0  0  0  0  0  0
  145.9480   71.5550  219.7280 C   0  0  0  0  0  0  0  0  0  0  0  0
  145.7280   73.0490  219.7480 C   0  0  0  0  0  0  0  0  0  0  0  0
  144.2860   73.3350  220.2160 C   0  0  0  0  0  0  0  0  0  0  0  0
  139.0660   70.3380  223.5260 C   0  0  0  0  0  0  0  0  0  0  0  0
  139.1010   69.3310  224.4810 C   0  0  0  0  0  0  0  0  0  0  0  0
  141.7150   67.1910  225.9610 H   0  0  0  0  0  0  0  0  0  0  0  0
  141.3900   66.6330  227.5740 H   0  0  0  0  0  0  0  0  0  0  0  0
  141.0766   70.8196  226.7413 H   0  0  0  0  0  0  0  0  0  0  0  0
  141.0143   72.5932  225.0558 H   0  0  0  0  0  0  0  0  0  0  0  0
  138.9081   73.3444  222.7696 H   0  0  0  0  0  0  0  0  0  0  0  0
  141.0859   71.8696  221.2980 H   0  0  0  0  0  0  0  0  0  0  0  0
  140.1493   77.2093  223.6504 H   0  0  0  0  0  0  0  0  0  0  0  0
  142.5322   78.1602  219.4340 H   0  0  0  0  0  0  0  0  0  0  0  0
  141.3096   72.3693  219.4888 H   0  0  0  0  0  0  0  0  0  0  0  0
  141.7916   73.6252  218.2102 H   0  0  0  0  0  0  0  0  0  0  0  0
  143.7278   73.0842  218.2395 H   0  0  0  0  0  0  0  0  0  0  0  0
  143.2295   70.8908  220.3106 H   0  0  0  0  0  0  0  0  0  0  0  0
  142.7721   70.7651  218.5888 H   0  0  0  0  0  0  0  0  0  0  0  0
  145.0160   69.7599  219.1381 H   0  0  0  0  0  0  0  0  0  0  0  0
  145.0562   71.1124  217.8968 H   0  0  0  0  0  0  0  0  0  0  0  0
  145.9364   71.1825  220.7629 H   0  0  0  0  0  0  0  0  0  0  0  0
  146.9163   71.3654  219.2418 H   0  0  0  0  0  0  0  0  0  0  0  0
  146.4413   73.5181  220.4416 H   0  0  0  0  0  0  0  0  0  0  0  0
  145.8818   73.4621  218.7402 H   0  0  0  0  0  0  0  0  0  0  0  0
  144.1147   72.8854  221.2052 H   0  0  0  0  0  0  0  0  0  0  0  0
  144.1101   74.4176  220.2997 H   0  0  0  0  0  0  0  0  0  0  0  0
  138.4805   70.1764  222.6089 H   0  0  0  0  0  0  0  0  0  0  0  0
  138.5468   68.3971  224.3059 H   0  0  0  0  0  0  0  0  0  0  0  0
  1  2  1  0
  2  3  2  0
  2  4  2  0
  2  5  1  0
  5  6  2  0
  6  7  1  0
  7  8  2  0
  8  9  1  0
  9 10  2  0
 10 11  1  0
 11 12  2  0
 12 13  1  0
 13 14  2  0
 14 15  1  0
 15 16  1  0
 15 17  2  0
 17 18  1  0
 17 19  1  0
 19 20  2  0
 20 21  1  0
 21 22  2  0
 21 23  1  0
 23 24  1  0
 24 25  1  0
 25 26  1  0
 26 27  1  0
 27 28  1  0
 28 29  1  0
 29 30  1  0
  8 31  1  0
 31 32  2  0
 32  5  1  0
 23 11  1  0
 30 25  1  0
 20 13  1  0
  1 33  1  0
  1 34  1  0
  6 35  1  0
  7 36  1  0
  9 37  1  0
 10 38  1  0
 14 39  1  0
 19 40  1  0
 24 41  1  0
 24 42  1  0
 25 43  1  0
 26 44  1  0
 26 45  1  0
 27 46  1  0
 27 47  1  0
 28 48  1  0
 28 49  1  0
 29 50  1  0
 29 51  1  0
 30 52  1  0
 30 53  1  0
 31 54  1  0
 32 55  1  0
M  END
>  <smiles>  (50) 
NS(=O)(=O)c1ccc(/C=C/c2nc3cc(F)c(F)cc3c(=O)n2CC2CCCCC2)cc1

>  <score_type>  (50) 
oracle

>  <origin>  (50) 
autodockgpu

>  <m_score__min__energy>  (50) 
-8.9800000000000004

>  <m_primary>  (50) 
energy

>  <rmsd>  (50) 
5.948580447125895

>  <m_score__min__rmsd>  (50) 
5.948580447125895

>  <meeko>  (50) 
{"free_energy": -8.46, "intermolecular_energy": -10.55, "internal_energy": -1.26, "cluster_size": 17, "cluster_id": 1, "rank_in_cluster": 16}

>  <energy>  (50) 
-7.35

>  <cluster_rmsd>  (50) 
0.0

>  <cluster>  (50) 
13

$$$$
