
     RDKit          3D

 54 57  0  0  0  0  0  0  0  0999 V2000
  141.1250   72.3320  221.2940 O   0  0  0  0  0  0  0  0  0  0  0  0
  140.3280   72.6840  222.2200 C   0  0  0  0  0  0  0  0  0  0  0  0
  139.6330   73.9110  222.1870 N   0  0  0  0  0  0  0  0  0  0  0  0
  139.7860   74.8610  221.0810 C   0  0  0  0  0  0  0  0  0  0  0  0
  141.0860   75.5160  221.2470 C   0  0  0  0  0  0  0  0  0  0  0  0
  142.1950   74.9120  221.2230 O   0  0  0  0  0  0  0  0  0  0  0  0
  141.1200   76.9240  221.4490 N   0  0  0  0  0  0  0  0  0  0  0  0
  140.3710   77.4550  222.5940 C   0  0  0  0  0  0  0  0  0  0  0  0
  141.4530   78.1900  223.3920 C   0  0  0  0  0  0  0  0  0  0  0  0
  141.5910   79.5720  222.8950 C   0  0  0  0  0  0  0  0  0  0  0  0
  140.9370   79.8680  221.5850 C   0  0  0  0  0  0  0  0  0  0  0  0
  141.3740   79.1380  220.4160 C   0  0  0  0  0  0  0  0  0  0  0  0
  141.8790   77.7480  220.5310 C   0  0  2  0  0  0  0  0  0  0  0  0
  142.2220   77.0820  219.2600 C   0  0  0  0  0  0  0  0  0  0  0  0
  143.4090   76.4430  219.0070 C   0  0  0  0  0  0  0  0  0  0  0  0
  143.6490   75.8410  217.7810 C   0  0  0  0  0  0  0  0  0  0  0  0
  142.6930   75.8760  216.7940 C   0  0  0  0  0  0  0  0  0  0  0  0
  142.9410   75.1350  215.2330 Cl  0  0  0  0  0  0  0  0  0  0  0  0
  141.4960   76.5180  217.0430 C   0  0  0  0  0  0  0  0  0  0  0  0
  141.2700   77.1090  218.2560 C   0  0  0  0  0  0  0  0  0  0  0  0
  140.1340   71.7860  223.3460 C   0  0  0  0  0  0  0  0  0  0  0  0
  139.4380   70.6050  223.2220 C   0  0  0  0  0  0  0  0  0  0  0  0
  139.2220   69.7210  224.2430 C   0  0  0  0  0  0  0  0  0  0  0  0
  139.7440   70.0460  225.4830 C   0  0  0  0  0  0  0  0  0  0  0  0
  139.5800   69.2240  226.5700 C   0  0  0  0  0  0  0  0  0  0  0  0
  140.1330   69.6190  227.7840 C   0  0  0  0  0  0  0  0  0  0  0  0
  140.8320   70.8030  227.9120 C   0  0  0  0  0  0  0  0  0  0  0  0
  140.9920   71.6280  226.8110 C   0  0  0  0  0  0  0  0  0  0  0  0
  140.4470   71.2440  225.6020 C   0  0  0  0  0  0  0  0  0  0  0  0
  140.6280   72.0750  224.5640 N   0  0  0  0  0  0  0  0  0  0  0  0
  138.9930   74.1460  222.9760 H   0  0  0  0  0  0  0  0  0  0  0  0
  139.7530   74.3279  220.1194 H   0  0  0  0  0  0  0  0  0  0  0  0
  138.9727   75.6016  221.0880 H   0  0  0  0  0  0  0  0  0  0  0  0
  139.5816   78.1469  222.2653 H   0  0  0  0  0  0  0  0  0  0  0  0
  139.8521   76.6781  223.1746 H   0  0  0  0  0  0  0  0  0  0  0  0
  141.1713   78.2110  224.4551 H   0  0  0  0  0  0  0  0  0  0  0  0
  142.4118   77.6643  223.2720 H   0  0  0  0  0  0  0  0  0  0  0  0
  141.1549   80.2450  223.6479 H   0  0  0  0  0  0  0  0  0  0  0  0
  142.6681   79.7194  222.7273 H   0  0  0  0  0  0  0  0  0  0  0  0
  139.8615   79.6720  221.7072 H   0  0  0  0  0  0  0  0  0  0  0  0
  141.2180   80.9101  221.3728 H   0  0  0  0  0  0  0  0  0  0  0  0
  140.5155   79.1036  219.7291 H   0  0  0  0  0  0  0  0  0  0  0  0
  142.2679   79.6962  220.1009 H   0  0  0  0  0  0  0  0  0  0  0  0
  142.8626   77.8776  221.0060 H   0  0  0  0  0  0  0  0  0  0  0  0
  144.1823   76.4075  219.7885 H   0  0  0  0  0  0  0  0  0  0  0  0
  144.6077   75.3338  217.5978 H   0  0  0  0  0  0  0  0  0  0  0  0
  140.7212   76.5544  216.2630 H   0  0  0  0  0  0  0  0  0  0  0  0
  140.3110   77.6165  218.4371 H   0  0  0  0  0  0  0  0  0  0  0  0
  139.0269   70.3547  222.2329 H   0  0  0  0  0  0  0  0  0  0  0  0
  138.6570   68.7905  224.0853 H   0  0  0  0  0  0  0  0  0  0  0  0
  139.0259   68.2777  226.4835 H   0  0  0  0  0  0  0  0  0  0  0  0
  140.0102   68.9714  228.6646 H   0  0  0  0  0  0  0  0  0  0  0  0
  141.2598   71.0897  228.8840 H   0  0  0  0  0  0  0  0  0  0  0  0
  141.5450   72.5749  226.8985 H   0  0  0  0  0  0  0  0  0  0  0  0
  1  2  2  0
  2  3  1  0
  3  4  1  0
  4  5  1  0
  5  6  2  0
  5  7  1  0
  7  8  1  0
  8  9  1  0
  9 10  1  0
 10 11  1  0
 11 12  1  0
 12 13  1  0
 13 14  1  0
 14 15  2  0
 15 16  1  0
 16 17  2  0
 17 18  1  0
 17 19  1  0
 19 20  2  0
  2 21  1  0
 21 22  2  0
 22 23  1  0
 23 24  2  0
 24 25  1  0
 25 26  2  0
 26 27  1  0
 27 28  2  0
 28 29  1  0
 29 30  2  0
 13  7  1  0
 20 14  1  0
 30 21  1  0
 29 24  1  0
  3 31  1  0
  4 32  1  0
  4 33  1  0
  8 34  1  0
  8 35  1  0
  9 36  1  0
  9 37  1  0
 10 38  1  0
 10 39  1  0
 11 40  1  0
 11 41  1  0
 12 42  1  0
 12 43  1  0
 13 44  1  1
 15 45  1  0
 16 46  1  0
 19 47  1  0
 20 48  1  0
 22 49  1  0
 23 50  1  0
 25 51  1  0
 26 52  1  0
 27 53  1  0
 28 54  1  0
M  END
>  <smiles>  (1) 
O=C(NCC(=O)N1CCCCCC1c1ccc(Cl)cc1)c1ccc2ccccc2n1

>  <score_type>  (1) 
oracle

>  <origin>  (1) 
autodockgpu

>  <m_score__min__energy>  (1) 
-6.9900000000000002

>  <m_primary>  (1) 
energy

>  <rmsd>  (1) 
3.0125007221709272

>  <m_score__min__rmsd>  (1) 
3.0125007221709272

>  <meeko>  (1) 
{"free_energy": -6.1, "intermolecular_energy": -9.38, "internal_energy": -1.6, "cluster_size": 3, "cluster_id": 2, "rank_in_cluster": 3}

>  <energy>  (1) 
-6.99

>  <cluster_rmsd>  (1) 
0.0

>  <cluster>  (1) 
1

$$$$

     RDKit          3D

 54 57  0  0  0  0  0  0  0  0999 V2000
  141.3940   72.6670  221.7030 O   0  0  0  0  0  0  0  0  0  0  0  0
  140.3770   72.7720  222.4600 C   0  0  0  0  0  0  0  0  0  0  0  0
  139.4720   73.8480  222.3560 N   0  0  0  0  0  0  0  0  0  0  0  0
  139.6440   74.9150  221.3660 C   0  0  0  0  0  0  0  0  0  0  0  0
  138.8440   76.0580  221.8160 C   0  0  0  0  0  0  0  0  0  0  0  0
  137.5850   76.1220  221.7300 O   0  0  0  0  0  0  0  0  0  0  0  0
  139.5120   77.1760  222.3890 N   0  0  0  0  0  0  0  0  0  0  0  0
  138.6820   78.1720  223.0770 C   0  0  0  0  0  0  0  0  0  0  0  0
  138.7960   79.3950  222.1590 C   0  0  0  0  0  0  0  0  0  0  0  0
  140.0540   80.1140  222.4370 C   0  0  0  0  0  0  0  0  0  0  0  0
  140.9340   79.5120  223.4810 C   0  0  0  0  0  0  0  0  0  0  0  0
  141.5700   78.2440  223.2020 C   0  0  0  0  0  0  0  0  0  0  0  0
  140.9520   77.2720  222.2660 C   0  0  2  0  0  0  0  0  0  0  0  0
  141.4410   77.3210  220.8750 C   0  0  0  0  0  0  0  0  0  0  0  0
  141.1880   78.3410  219.9930 C   0  0  0  0  0  0  0  0  0  0  0  0
  141.6890   78.3080  218.7000 C   0  0  0  0  0  0  0  0  0  0  0  0
  142.4520   77.2440  218.2820 C   0  0  0  0  0  0  0  0  0  0  0  0
  143.1070   77.1490  216.6660 Cl  0  0  0  0  0  0  0  0  0  0  0  0
  142.7090   76.2140  219.1650 C   0  0  0  0  0  0  0  0  0  0  0  0
  142.2110   76.2580  220.4380 C   0  0  0  0  0  0  0  0  0  0  0  0
  140.1510   71.7450  223.4630 C   0  0  0  0  0  0  0  0  0  0  0  0
  139.4090   70.6170  223.1940 C   0  0  0  0  0  0  0  0  0  0  0  0
  139.1610   69.6180  224.0950 C   0  0  0  0  0  0  0  0  0  0  0  0
  139.6980   69.7610  225.3630 C   0  0  0  0  0  0  0  0  0  0  0  0
  139.5050   68.8140  226.3370 C   0  0  0  0  0  0  0  0  0  0  0  0
  140.0770   69.0290  227.5870 C   0  0  0  0  0  0  0  0  0  0  0  0
  140.8210   70.1590  227.8610 C   0  0  0  0  0  0  0  0  0  0  0  0
  141.0110   71.1110  226.8740 C   0  0  0  0  0  0  0  0  0  0  0  0
  140.4480   70.9060  225.6290 C   0  0  0  0  0  0  0  0  0  0  0  0
  140.6590   71.8560  224.7050 N   0  0  0  0  0  0  0  0  0  0  0  0
  138.6550   73.8810  223.0050 H   0  0  0  0  0  0  0  0  0  0  0  0
  140.7043   75.2001  221.2997 H   0  0  0  0  0  0  0  0  0  0  0  0
  139.3191   74.5793  220.3701 H   0  0  0  0  0  0  0  0  0  0  0  0
  137.6390   77.8321  223.1577 H   0  0  0  0  0  0  0  0  0  0  0  0
  139.0026   78.3696  224.1105 H   0  0  0  0  0  0  0  0  0  0  0  0
  138.7880   79.0657  221.1095 H   0  0  0  0  0  0  0  0  0  0  0  0
  137.9453   80.0676  222.3433 H   0  0  0  0  0  0  0  0  0  0  0  0
  140.6281   80.1626  221.5000 H   0  0  0  0  0  0  0  0  0  0  0  0
  139.7537   81.0957  222.8320 H   0  0  0  0  0  0  0  0  0  0  0  0
  141.7343   80.2376  223.6885 H   0  0  0  0  0  0  0  0  0  0  0  0
  140.2503   79.2919  224.3141 H   0  0  0  0  0  0  0  0  0  0  0  0
  142.5675   78.4754  222.8001 H   0  0  0  0  0  0  0  0  0  0  0  0
  141.5092   77.7232  224.1690 H   0  0  0  0  0  0  0  0  0  0  0  0
  141.3355   76.3037  222.6200 H   0  0  0  0  0  0  0  0  0  0  0  0
  140.5787   79.1979  220.3161 H   0  0  0  0  0  0  0  0  0  0  0  0
  141.4751   79.1354  218.0074 H   0  0  0  0  0  0  0  0  0  0  0  0
  143.3164   75.3551  218.8434 H   0  0  0  0  0  0  0  0  0  0  0  0
  142.4274   75.4303  221.1294 H   0  0  0  0  0  0  0  0  0  0  0  0
  138.9860   70.5117  222.1840 H   0  0  0  0  0  0  0  0  0  0  0  0
  138.5599   68.7377  223.8233 H   0  0  0  0  0  0  0  0  0  0  0  0
  138.9137   67.9087  226.1349 H   0  0  0  0  0  0  0  0  0  0  0  0
  139.9325   68.2784  228.3781 H   0  0  0  0  0  0  0  0  0  0  0  0
  141.2609   70.3024  228.8590 H   0  0  0  0  0  0  0  0  0  0  0  0
  141.6011   72.0167  227.0778 H   0  0  0  0  0  0  0  0  0  0  0  0
  1  2  2  0
  2  3  1  0
  3  4  1  0
  4  5  1  0
  5  6  2  0
  5  7  1  0
  7  8  1  0
  8  9  1  0
  9 10  1  0
 10 11  1  0
 11 12  1  0
 12 13  1  0
 13 14  1  0
 14 15  2  0
 15 16  1  0
 16 17  2  0
 17 18  1  0
 17 19  1  0
 19 20  2  0
  2 21  1  0
 21 22  2  0
 22 23  1  0
 23 24  2  0
 24 25  1  0
 25 26  2  0
 26 27  1  0
 27 28  2  0
 28 29  1  0
 29 30  2  0
 13  7  1  0
 20 14  1  0
 30 21  1  0
 29 24  1  0
  3 31  1  0
  4 32  1  0
  4 33  1  0
  8 34  1  0
  8 35  1  0
  9 36  1  0
  9 37  1  0
 10 38  1  0
 10 39  1  0
 11 40  1  0
 11 41  1  0
 12 42  1  0
 12 43  1  0
 13 44  1  1
 15 45  1  0
 16 46  1  0
 19 47  1  0
 20 48  1  0
 22 49  1  0
 23 50  1  0
 25 51  1  0
 26 52  1  0
 27 53  1  0
 28 54  1  0
M  END
>  <smiles>  (2) 
O=C(NCC(=O)N1CCCCCC1c1ccc(Cl)cc1)c1ccc2ccccc2n1

>  <score_type>  (2) 
oracle

>  <origin>  (2) 
autodockgpu

>  <m_score__min__energy>  (2) 
-6.9900000000000002

>  <m_primary>  (2) 
energy

>  <rmsd>  (2) 
3.337443261816405

>  <m_score__min__rmsd>  (2) 
3.337443261816405

>  <meeko>  (2) 
{"free_energy": -6.75, "intermolecular_energy": -10.03, "internal_energy": -1.61, "cluster_size": 3, "cluster_id": 2, "rank_in_cluster": 1}

>  <energy>  (2) 
-6.84

>  <cluster_rmsd>  (2) 
1.36

>  <cluster>  (2) 
1

$$$$

     RDKit          3D

 54 57  0  0  0  0  0  0  0  0999 V2000
  138.8660   75.4430  221.6670 O   0  0  0  0  0  0  0  0  0  0  0  0
  140.0410   75.8650  221.9080 C   0  0  0  0  0  0  0  0  0  0  0  0
  141.1820   75.0580  221.7190 N   0  0  0  0  0  0  0  0  0  0  0  0
  141.0870   73.6790  221.2320 C   0  0  0  0  0  0  0  0  0  0  0  0
  141.7020   73.6440  219.9030 C   0  0  0  0  0  0  0  0  0  0  0  0
  141.0810   73.8620  218.8260 O   0  0  0  0  0  0  0  0  0  0  0  0
  143.0900   73.3460  219.8010 N   0  0  0  0  0  0  0  0  0  0  0  0
  143.4980   71.9590  220.0570 C   0  0  0  0  0  0  0  0  0  0  0  0
  144.7990   71.8390  219.2550 C   0  0  0  0  0  0  0  0  0  0  0  0
  145.9500   72.1820  220.1130 C   0  0  0  0  0  0  0  0  0  0  0  0
  145.8040   73.4010  220.9640 C   0  0  0  0  0  0  0  0  0  0  0  0
  145.1370   74.5600  220.4120 C   0  0  0  0  0  0  0  0  0  0  0  0
  144.0140   74.4080  219.4550 C   0  0  2  0  0  0  0  0  0  0  0  0
  143.3640   75.6600  219.0230 C   0  0  0  0  0  0  0  0  0  0  0  0
  143.1220   76.0050  217.7190 C   0  0  0  0  0  0  0  0  0  0  0  0
  142.5030   77.2050  217.4000 C   0  0  0  0  0  0  0  0  0  0  0  0
  142.1210   78.0720  218.3960 C   0  0  0  0  0  0  0  0  0  0  0  0
  141.3410   79.5950  218.0530 Cl  0  0  0  0  0  0  0  0  0  0  0  0
  142.3630   77.7290  219.7120 C   0  0  0  0  0  0  0  0  0  0  0  0
  142.9740   76.5430  220.0140 C   0  0  0  0  0  0  0  0  0  0  0  0
  140.2030   77.2250  222.3940 C   0  0  0  0  0  0  0  0  0  0  0  0
  139.1230   78.0140  222.7190 C   0  0  0  0  0  0  0  0  0  0  0  0
  139.2120   79.2990  223.1800 C   0  0  0  0  0  0  0  0  0  0  0  0
  140.4810   79.8330  223.3260 C   0  0  0  0  0  0  0  0  0  0  0  0
  140.6740   81.1140  223.7810 C   0  0  0  0  0  0  0  0  0  0  0  0
  141.9790   81.5800  223.9010 C   0  0  0  0  0  0  0  0  0  0  0  0
  143.0640   80.7920  223.5760 C   0  0  0  0  0  0  0  0  0  0  0  0
  142.8620   79.5010  223.1170 C   0  0  0  0  0  0  0  0  0  0  0  0
  141.5700   79.0290  222.9950 C   0  0  0  0  0  0  0  0  0  0  0  0
  141.4230   77.7730  222.5460 N   0  0  0  0  0  0  0  0  0  0  0  0
  142.1210   75.4590  221.9340 H   0  0  0  0  0  0  0  0  0  0  0  0
  141.6229   73.0014  221.9129 H   0  0  0  0  0  0  0  0  0  0  0  0
  140.0372   73.3538  221.1844 H   0  0  0  0  0  0  0  0  0  0  0  0
  143.6755   71.7889  221.1292 H   0  0  0  0  0  0  0  0  0  0  0  0
  142.7368   71.2190  219.7688 H   0  0  0  0  0  0  0  0  0  0  0  0
  144.9097   70.8068  218.8913 H   0  0  0  0  0  0  0  0  0  0  0  0
  144.7639   72.5316  218.4012 H   0  0  0  0  0  0  0  0  0  0  0  0
  146.1359   71.3279  220.7808 H   0  0  0  0  0  0  0  0  0  0  0  0
  146.7744   72.4063  219.4201 H   0  0  0  0  0  0  0  0  0  0  0  0
  145.2438   73.1029  221.8625 H   0  0  0  0  0  0  0  0  0  0  0  0
  146.8383   73.7399  221.1233 H   0  0  0  0  0  0  0  0  0  0  0  0
  144.7457   75.1326  221.2658 H   0  0  0  0  0  0  0  0  0  0  0  0
  145.9219   75.0213  219.7947 H   0  0  0  0  0  0  0  0  0  0  0  0
  144.5132   74.0681  218.5356 H   0  0  0  0  0  0  0  0  0  0  0  0
  143.4231   75.3199  216.9128 H   0  0  0  0  0  0  0  0  0  0  0  0
  142.3174   77.4634  216.3470 H   0  0  0  0  0  0  0  0  0  0  0  0
  142.0632   78.4122  220.5203 H   0  0  0  0  0  0  0  0  0  0  0  0
  143.1592   76.2859  221.0674 H   0  0  0  0  0  0  0  0  0  0  0  0
  138.1187   77.5814  222.5998 H   0  0  0  0  0  0  0  0  0  0  0  0
  138.3128   79.8836  223.4245 H   0  0  0  0  0  0  0  0  0  0  0  0
  139.8193   81.7547  224.0436 H   0  0  0  0  0  0  0  0  0  0  0  0
  142.1506   82.6039  224.2646 H   0  0  0  0  0  0  0  0  0  0  0  0
  144.0851   81.1875  223.6810 H   0  0  0  0  0  0  0  0  0  0  0  0
  143.7175   78.8616  222.8537 H   0  0  0  0  0  0  0  0  0  0  0  0
  1  2  2  0
  2  3  1  0
  3  4  1  0
  4  5  1  0
  5  6  2  0
  5  7  1  0
  7  8  1  0
  8  9  1  0
  9 10  1  0
 10 11  1  0
 11 12  1  0
 12 13  1  0
 13 14  1  0
 14 15  2  0
 15 16  1  0
 16 17  2  0
 17 18  1  0
 17 19  1  0
 19 20  2  0
  2 21  1  0
 21 22  2  0
 22 23  1  0
 23 24  2  0
 24 25  1  0
 25 26  2  0
 26 27  1  0
 27 28  2  0
 28 29  1  0
 29 30  2  0
 13  7  1  0
 20 14  1  0
 30 21  1  0
 29 24  1  0
  3 31  1  0
  4 32  1  0
  4 33  1  0
  8 34  1  0
  8 35  1  0
  9 36  1  0
  9 37  1  0
 10 38  1  0
 10 39  1  0
 11 40  1  0
 11 41  1  0
 12 42  1  0
 12 43  1  0
 13 44  1  6
 15 45  1  0
 16 46  1  0
 19 47  1  0
 20 48  1  0
 22 49  1  0
 23 50  1  0
 25 51  1  0
 26 52  1  0
 27 53  1  0
 28 54  1  0
M  END
>  <smiles>  (3) 
O=C(NCC(=O)N1CCCCCC1c1ccc(Cl)cc1)c1ccc2ccccc2n1

>  <score_type>  (3) 
oracle

>  <origin>  (3) 
autodockgpu

>  <m_score__min__energy>  (3) 
-6.9900000000000002

>  <m_primary>  (3) 
energy

>  <rmsd>  (3) 
7.697011164001955

>  <m_score__min__rmsd>  (3) 
7.697011164001955

>  <meeko>  (3) 
{"free_energy": -5.43, "intermolecular_energy": -8.71, "internal_energy": -2.71, "cluster_size": 12, "cluster_id": 6, "rank_in_cluster": 4}

>  <energy>  (3) 
-6.78

>  <cluster_rmsd>  (3) 
0.54

>  <cluster>  (3) 
1

$$$$

     RDKit          3D

 54 57  0  0  0  0  0  0  0  0999 V2000
  141.9300   78.7360  216.5470 O   0  0  0  0  0  0  0  0  0  0  0  0
  142.4450   78.3860  217.6560 C   0  0  0  0  0  0  0  0  0  0  0  0
  142.5580   79.2740  218.7450 N   0  0  0  0  0  0  0  0  0  0  0  0
  142.0880   80.6600  218.6690 C   0  0  0  0  0  0  0  0  0  0  0  0
  141.8070   81.1000  220.0390 C   0  0  0  0  0  0  0  0  0  0  0  0
  141.7890   82.3070  220.4090 O   0  0  0  0  0  0  0  0  0  0  0  0
  141.5340   80.1150  221.0290 N   0  0  0  0  0  0  0  0  0  0  0  0
  142.5670   79.8830  222.0460 C   0  0  0  0  0  0  0  0  0  0  0  0
  141.9900   80.5920  223.2770 C   0  0  0  0  0  0  0  0  0  0  0  0
  140.8580   79.8140  223.8180 C   0  0  0  0  0  0  0  0  0  0  0  0
  139.5090   80.1710  223.2900 C   0  0  0  0  0  0  0  0  0  0  0  0
  139.2360   79.9610  221.8850 C   0  0  0  0  0  0  0  0  0  0  0  0
  140.2730   79.4020  220.9830 C   0  0  2  0  0  0  0  0  0  0  0  0
  140.4060   77.9330  220.9900 C   0  0  0  0  0  0  0  0  0  0  0  0
  140.1190   77.1170  219.9270 C   0  0  0  0  0  0  0  0  0  0  0  0
  140.2730   75.7410  220.0190 C   0  0  0  0  0  0  0  0  0  0  0  0
  140.7200   75.1730  221.1880 C   0  0  0  0  0  0  0  0  0  0  0  0
  140.9320   73.4490  221.3610 Cl  0  0  0  0  0  0  0  0  0  0  0  0
  141.0110   75.9900  222.2620 C   0  0  0  0  0  0  0  0  0  0  0  0
  140.8550   77.3450  222.1600 C   0  0  0  0  0  0  0  0  0  0  0  0
  142.9300   77.0230  217.7940 C   0  0  0  0  0  0  0  0  0  0  0  0
  143.0260   76.1720  216.7170 C   0  0  0  0  0  0  0  0  0  0  0  0
  143.4750   74.8820  216.7850 C   0  0  0  0  0  0  0  0  0  0  0  0
  143.8560   74.4080  218.0290 C   0  0  0  0  0  0  0  0  0  0  0  0
  144.3180   73.1270  218.2000 C   0  0  0  0  0  0  0  0  0  0  0  0
  144.6810   72.7240  219.4810 C   0  0  0  0  0  0  0  0  0  0  0  0
  144.5860   73.5750  220.5640 C   0  0  0  0  0  0  0  0  0  0  0  0
  144.1180   74.8660  220.3840 C   0  0  0  0  0  0  0  0  0  0  0  0
  143.7550   75.2750  219.1160 C   0  0  0  0  0  0  0  0  0  0  0  0
  143.3070   76.5340  218.9910 N   0  0  0  0  0  0  0  0  0  0  0  0
  142.9900   78.9300  219.6300 H   0  0  0  0  0  0  0  0  0  0  0  0
  142.8647   81.2970  218.2208 H   0  0  0  0  0  0  0  0  0  0  0  0
  141.1858   80.7319  218.0438 H   0  0  0  0  0  0  0  0  0  0  0  0
  142.7040   78.8080  222.2348 H   0  0  0  0  0  0  0  0  0  0  0  0
  143.5603   80.2540  221.7531 H   0  0  0  0  0  0  0  0  0  0  0  0
  142.7714   80.6825  224.0459 H   0  0  0  0  0  0  0  0  0  0  0  0
  141.6371   81.5928  222.9873 H   0  0  0  0  0  0  0  0  0  0  0  0
  141.0390   78.7532  223.5901 H   0  0  0  0  0  0  0  0  0  0  0  0
  140.8265   80.0437  224.8933 H   0  0  0  0  0  0  0  0  0  0  0  0
  138.7732   79.5798  223.8549 H   0  0  0  0  0  0  0  0  0  0  0  0
  139.4539   81.2627  223.4129 H   0  0  0  0  0  0  0  0  0  0  0  0
  138.3741   79.2796  221.8317 H   0  0  0  0  0  0  0  0  0  0  0  0
  139.1106   80.9859  221.5058 H   0  0  0  0  0  0  0  0  0  0  0  0
  139.8664   79.6000  219.9803 H   0  0  0  0  0  0  0  0  0  0  0  0
  139.7609   77.5598  218.9859 H   0  0  0  0  0  0  0  0  0  0  0  0
  140.0368   75.1034  219.1543 H   0  0  0  0  0  0  0  0  0  0  0  0
  141.3699   75.5494  223.2038 H   0  0  0  0  0  0  0  0  0  0  0  0
  141.0913   77.9809  223.0259 H   0  0  0  0  0  0  0  0  0  0  0  0
  142.7203   76.5561  215.7326 H   0  0  0  0  0  0  0  0  0  0  0  0
  143.5312   74.2472  215.8884 H   0  0  0  0  0  0  0  0  0  0  0  0
  144.3991   72.4374  217.3469 H   0  0  0  0  0  0  0  0  0  0  0  0
  145.0535   71.7005  219.6351 H   0  0  0  0  0  0  0  0  0  0  0  0
  144.8808   73.2291  221.5657 H   0  0  0  0  0  0  0  0  0  0  0  0
  144.0367   75.5548  221.2378 H   0  0  0  0  0  0  0  0  0  0  0  0
  1  2  2  0
  2  3  1  0
  3  4  1  0
  4  5  1  0
  5  6  2  0
  5  7  1  0
  7  8  1  0
  8  9  1  0
  9 10  1  0
 10 11  1  0
 11 12  1  0
 12 13  1  0
 13 14  1  0
 14 15  2  0
 15 16  1  0
 16 17  2  0
 17 18  1  0
 17 19  1  0
 19 20  2  0
  2 21  1  0
 21 22  2  0
 22 23  1  0
 23 24  2  0
 24 25  1  0
 25 26  2  0
 26 27  1  0
 27 28  2  0
 28 29  1  0
 29 30  2  0
 13  7  1  0
 20 14  1  0
 30 21  1  0
 29 24  1  0
  3 31  1  0
  4 32  1  0
  4 33  1  0
  8 34  1  0
  8 35  1  0
  9 36  1  0
  9 37  1  0
 10 38  1  0
 10 39  1  0
 11 40  1  0
 11 41  1  0
 12 42  1  0
 12 43  1  0
 13 44  1  6
 15 45  1  0
 16 46  1  0
 19 47  1  0
 20 48  1  0
 22 49  1  0
 23 50  1  0
 25 51  1  0
 26 52  1  0
 27 53  1  0
 28 54  1  0
M  END
>  <smiles>  (4) 
O=C(NCC(=O)N1CCCCCC1c1ccc(Cl)cc1)c1ccc2ccccc2n1

>  <score_type>  (4) 
oracle

>  <origin>  (4) 
autodockgpu

>  <m_score__min__energy>  (4) 
-6.9900000000000002

>  <m_primary>  (4) 
energy

>  <rmsd>  (4) 
8.289095187868256

>  <m_score__min__rmsd>  (4) 
8.289095187868256

>  <meeko>  (4) 
{"free_energy": -4.45, "intermolecular_energy": -7.73, "internal_energy": -3.27, "cluster_size": 5, "cluster_id": 11, "rank_in_cluster": 5}

>  <energy>  (4) 
-6.71

>  <cluster_rmsd>  (4) 
0.53

>  <cluster>  (4) 
1

$$$$

     RDKit          3D

 54 57  0  0  0  0  0  0  0  0999 V2000
  141.2370   71.7080  221.4980 O   0  0  0  0  0  0  0  0  0  0  0  0
  140.5500   72.2480  222.4220 C   0  0  0  0  0  0  0  0  0  0  0  0
  140.0390   73.5580  222.3100 N   0  0  0  0  0  0  0  0  0  0  0  0
  140.2680   74.3820  221.1200 C   0  0  0  0  0  0  0  0  0  0  0  0
  138.9600   74.6380  220.5110 C   0  0  0  0  0  0  0  0  0  0  0  0
  138.4740   73.9620  219.5610 O   0  0  0  0  0  0  0  0  0  0  0  0
  138.1730   75.7140  221.0100 N   0  0  0  0  0  0  0  0  0  0  0  0
  137.2430   76.3550  220.0720 C   0  0  0  0  0  0  0  0  0  0  0  0
  135.9950   75.4720  220.1820 C   0  0  0  0  0  0  0  0  0  0  0  0
  135.2620   75.7910  221.4220 C   0  0  0  0  0  0  0  0  0  0  0  0
  135.9100   75.3670  222.6950 C   0  0  0  0  0  0  0  0  0  0  0  0
  137.0610   76.1070  223.1650 C   0  0  0  0  0  0  0  0  0  0  0  0
  138.3280   76.1150  222.3930 C   0  0  2  0  0  0  0  0  0  0  0  0
  139.1920   77.2940  222.5900 C   0  0  0  0  0  0  0  0  0  0  0  0
  138.7420   78.5870  222.6780 C   0  0  0  0  0  0  0  0  0  0  0  0
  139.6260   79.6400  222.8660 C   0  0  0  0  0  0  0  0  0  0  0  0
  140.9760   79.4000  222.9670 C   0  0  0  0  0  0  0  0  0  0  0  0
  142.1330   80.6850  223.2020 Cl  0  0  0  0  0  0  0  0  0  0  0  0
  141.4340   78.1000  222.8780 C   0  0  0  0  0  0  0  0  0  0  0  0
  140.5540   77.0700  222.6940 C   0  0  0  0  0  0  0  0  0  0  0  0
  140.2890   71.4830  223.6290 C   0  0  0  0  0  0  0  0  0  0  0  0
  139.5590   70.3160  223.6060 C   0  0  0  0  0  0  0  0  0  0  0  0
  139.2800   69.5540  224.7080 C   0  0  0  0  0  0  0  0  0  0  0  0
  139.7700   69.9950  225.9240 C   0  0  0  0  0  0  0  0  0  0  0  0
  139.5430   69.3000  227.0860 C   0  0  0  0  0  0  0  0  0  0  0  0
  140.0680   69.8080  228.2700 C   0  0  0  0  0  0  0  0  0  0  0  0
  140.8000   70.9770  228.2970 C   0  0  0  0  0  0  0  0  0  0  0  0
  141.0250   71.6740  227.1220 C   0  0  0  0  0  0  0  0  0  0  0  0
  140.5080   71.1780  225.9410 C   0  0  0  0  0  0  0  0  0  0  0  0
  140.7510   71.8870  224.8270 N   0  0  0  0  0  0  0  0  0  0  0  0
  139.4820   73.9480  223.1010 H   0  0  0  0  0  0  0  0  0  0  0  0
  140.7431   75.3322  221.4054 H   0  0  0  0  0  0  0  0  0  0  0  0
  140.9342   73.8678  220.4117 H   0  0  0  0  0  0  0  0  0  0  0  0
  137.0249   77.3900  220.3741 H   0  0  0  0  0  0  0  0  0  0  0  0
  137.6371   76.4296  219.0477 H   0  0  0  0  0  0  0  0  0  0  0  0
  135.3422   75.6535  219.3154 H   0  0  0  0  0  0  0  0  0  0  0  0
  136.2997   74.4153  220.2031 H   0  0  0  0  0  0  0  0  0  0  0  0
  135.1267   76.8820  221.4610 H   0  0  0  0  0  0  0  0  0  0  0  0
  134.3230   75.2209  221.3647 H   0  0  0  0  0  0  0  0  0  0  0  0
  135.1445   75.4227  223.4830 H   0  0  0  0  0  0  0  0  0  0  0  0
  136.3067   74.3651  222.4739 H   0  0  0  0  0  0  0  0  0  0  0  0
  136.7431   77.1561  223.2564 H   0  0  0  0  0  0  0  0  0  0  0  0
  137.3387   75.5679  224.0828 H   0  0  0  0  0  0  0  0  0  0  0  0
  138.9124   75.3096  222.8619 H   0  0  0  0  0  0  0  0  0  0  0  0
  137.6642   78.7921  222.5983 H   0  0  0  0  0  0  0  0  0  0  0  0
  139.2455   80.6698  222.9344 H   0  0  0  0  0  0  0  0  0  0  0  0
  142.5115   77.8925  222.9555 H   0  0  0  0  0  0  0  0  0  0  0  0
  140.9366   76.0409  222.6271 H   0  0  0  0  0  0  0  0  0  0  0  0
  139.1734   69.9723  222.6348 H   0  0  0  0  0  0  0  0  0  0  0  0
  138.6902   68.6287  224.6299 H   0  0  0  0  0  0  0  0  0  0  0  0
  138.9615   68.3663  227.0810 H   0  0  0  0  0  0  0  0  0  0  0  0
  139.8948   69.2630  229.2097 H   0  0  0  0  0  0  0  0  0  0  0  0
  141.2034   71.3539  229.2484 H   0  0  0  0  0  0  0  0  0  0  0  0
  141.6062   72.6079  227.1289 H   0  0  0  0  0  0  0  0  0  0  0  0
  1  2  2  0
  2  3  1  0
  3  4  1  0
  4  5  1  0
  5  6  2  0
  5  7  1  0
  7  8  1  0
  8  9  1  0
  9 10  1  0
 10 11  1  0
 11 12  1  0
 12 13  1  0
 13 14  1  0
 14 15  2  0
 15 16  1  0
 16 17  2  0
 17 18  1  0
 17 19  1  0
 19 20  2  0
  2 21  1  0
 21 22  2  0
 22 23  1  0
 23 24  2  0
 24 25  1  0
 25 26  2  0
 26 27  1  0
 27 28  2  0
 28 29  1  0
 29 30  2  0
 13  7  1  0
 20 14  1  0
 30 21  1  0
 29 24  1  0
  3 31  1  0
  4 32  1  0
  4 33  1  0
  8 34  1  0
  8 35  1  0
  9 36  1  0
  9 37  1  0
 10 38  1  0
 10 39  1  0
 11 40  1  0
 11 41  1  0
 12 42  1  0
 12 43  1  0
 13 44  1  1
 15 45  1  0
 16 46  1  0
 19 47  1  0
 20 48  1  0
 22 49  1  0
 23 50  1  0
 25 51  1  0
 26 52  1  0
 27 53  1  0
 28 54  1  0
M  END
>  <smiles>  (5) 
O=C(NCC(=O)N1CCCCCC1c1ccc(Cl)cc1)c1ccc2ccccc2n1

>  <score_type>  (5) 
oracle

>  <origin>  (5) 
autodockgpu

>  <m_score__min__energy>  (5) 
-6.9900000000000002

>  <m_primary>  (5) 
energy

>  <rmsd>  (5) 
3.225014691617448

>  <m_score__min__rmsd>  (5) 
3.225014691617448

>  <meeko>  (5) 
{"free_energy": -6.37, "intermolecular_energy": -9.65, "internal_energy": -1.71, "cluster_size": 1, "cluster_id": 4, "rank_in_cluster": 1}

>  <energy>  (5) 
-6.7

>  <cluster_rmsd>  (5) 
0.21

>  <cluster>  (5) 
1

$$$$

     RDKit          3D

 54 57  0  0  0  0  0  0  0  0999 V2000
  141.4200   72.7060  221.5800 O   0  0  0  0  0  0  0  0  0  0  0  0
  140.4000   72.8440  222.3260 C   0  0  0  0  0  0  0  0  0  0  0  0
  139.5180   73.9370  222.1980 N   0  0  0  0  0  0  0  0  0  0  0  0
  139.7220   74.9860  221.1950 C   0  0  0  0  0  0  0  0  0  0  0  0
  138.9110   76.1380  221.6000 C   0  0  0  0  0  0  0  0  0  0  0  0
  137.6520   76.1830  221.5230 O   0  0  0  0  0  0  0  0  0  0  0  0
  139.5710   77.2890  222.1160 N   0  0  0  0  0  0  0  0  0  0  0  0
  138.7310   78.3200  222.7380 C   0  0  0  0  0  0  0  0  0  0  0  0
  138.8640   79.4940  221.7610 C   0  0  0  0  0  0  0  0  0  0  0  0
  140.1140   80.2310  222.0310 C   0  0  0  0  0  0  0  0  0  0  0  0
  140.9790   79.6770  223.1120 C   0  0  0  0  0  0  0  0  0  0  0  0
  141.6190   78.3970  222.9000 C   0  0  0  0  0  0  0  0  0  0  0  0
  141.0120   77.3820  222.0030 C   0  0  2  0  0  0  0  0  0  0  0  0
  141.5150   77.3690  220.6160 C   0  0  0  0  0  0  0  0  0  0  0  0
  142.4250   76.4700  220.1230 C   0  0  0  0  0  0  0  0  0  0  0  0
  142.8440   76.5280  218.8020 C   0  0  0  0  0  0  0  0  0  0  0  0
  142.3470   77.4960  217.9620 C   0  0  0  0  0  0  0  0  0  0  0  0
  142.8390   77.6170  216.2910 Cl  0  0  0  0  0  0  0  0  0  0  0  0
  141.4310   78.4040  218.4530 C   0  0  0  0  0  0  0  0  0  0  0  0
  141.0250   78.3370  219.7580 C   0  0  0  0  0  0  0  0  0  0  0  0
  140.1420   71.8370  223.3410 C   0  0  0  0  0  0  0  0  0  0  0  0
  139.4300   70.6920  223.0660 C   0  0  0  0  0  0  0  0  0  0  0  0
  139.1560   69.7100  223.9780 C   0  0  0  0  0  0  0  0  0  0  0  0
  139.6320   69.8900  225.2650 C   0  0  0  0  0  0  0  0  0  0  0  0
  139.4090   68.9620  226.2510 C   0  0  0  0  0  0  0  0  0  0  0  0
  139.9200   69.2140  227.5200 C   0  0  0  0  0  0  0  0  0  0  0  0
  140.6350   70.3610  227.8010 C   0  0  0  0  0  0  0  0  0  0  0  0
  140.8560   71.2940  226.8010 C   0  0  0  0  0  0  0  0  0  0  0  0
  140.3530   71.0520  225.5380 C   0  0  0  0  0  0  0  0  0  0  0  0
  140.5920   71.9840  224.6020 N   0  0  0  0  0  0  0  0  0  0  0  0
  138.6970   73.9970  222.8390 H   0  0  0  0  0  0  0  0  0  0  0  0
  140.7844   75.2683  221.1560 H   0  0  0  0  0  0  0  0  0  0  0  0
  139.4267   74.6331  220.1959 H   0  0  0  0  0  0  0  0  0  0  0  0
  137.6860   77.9860  222.8175 H   0  0  0  0  0  0  0  0  0  0  0  0
  139.0337   78.5696  223.7657 H   0  0  0  0  0  0  0  0  0  0  0  0
  138.8816   79.1108  220.7301 H   0  0  0  0  0  0  0  0  0  0  0  0
  138.0077   80.1723  221.8901 H   0  0  0  0  0  0  0  0  0  0  0  0
  140.7035   80.2454  221.1024 H   0  0  0  0  0  0  0  0  0  0  0  0
  139.8019   81.2259  222.3815 H   0  0  0  0  0  0  0  0  0  0  0  0
  141.7766   80.4115  223.2972 H   0  0  0  0  0  0  0  0  0  0  0  0
  140.2835   79.4942  223.9444 H   0  0  0  0  0  0  0  0  0  0  0  0
  142.6211   78.6101  222.4995 H   0  0  0  0  0  0  0  0  0  0  0  0
  141.5471   77.9218  223.8895 H   0  0  0  0  0  0  0  0  0  0  0  0
  141.3933   76.4314  222.4041 H   0  0  0  0  0  0  0  0  0  0  0  0
  142.8293   75.6904  220.7854 H   0  0  0  0  0  0  0  0  0  0  0  0
  143.5756   75.7978  218.4257 H   0  0  0  0  0  0  0  0  0  0  0  0
  141.0256   79.1847  217.7926 H   0  0  0  0  0  0  0  0  0  0  0  0
  140.2936   79.0683  220.1326 H   0  0  0  0  0  0  0  0  0  0  0  0
  139.0548   70.5569  222.0408 H   0  0  0  0  0  0  0  0  0  0  0  0
  138.5811   68.8143  223.7000 H   0  0  0  0  0  0  0  0  0  0  0  0
  138.8411   68.0431  226.0434 H   0  0  0  0  0  0  0  0  0  0  0  0
  139.7498   68.4796  228.3211 H   0  0  0  0  0  0  0  0  0  0  0  0
  141.0274   70.5333  228.8141 H   0  0  0  0  0  0  0  0  0  0  0  0
  141.4232   72.2131  227.0098 H   0  0  0  0  0  0  0  0  0  0  0  0
  1  2  2  0
  2  3  1  0
  3  4  1  0
  4  5  1  0
  5  6  2  0
  5  7  1  0
  7  8  1  0
  8  9  1  0
  9 10  1  0
 10 11  1  0
 11 12  1  0
 12 13  1  0
 13 14  1  0
 14 15  2  0
 15 16  1  0
 16 17  2  0
 17 18  1  0
 17 19  1  0
 19 20  2  0
  2 21  1  0
 21 22  2  0
 22 23  1  0
 23 24  2  0
 24 25  1  0
 25 26  2  0
 26 27  1  0
 27 28  2  0
 28 29  1  0
 29 30  2  0
 13  7  1  0
 20 14  1  0
 30 21  1  0
 29 24  1  0
  3 31  1  0
  4 32  1  0
  4 33  1  0
  8 34  1  0
  8 35  1  0
  9 36  1  0
  9 37  1  0
 10 38  1  0
 10 39  1  0
 11 40  1  0
 11 41  1  0
 12 42  1  0
 12 43  1  0
 13 44  1  1
 15 45  1  0
 16 46  1  0
 19 47  1  0
 20 48  1  0
 22 49  1  0
 23 50  1  0
 25 51  1  0
 26 52  1  0
 27 53  1  0
 28 54  1  0
M  END
>  <smiles>  (6) 
O=C(NCC(=O)N1CCCCCC1c1ccc(Cl)cc1)c1ccc2ccccc2n1

>  <score_type>  (6) 
oracle

>  <origin>  (6) 
autodockgpu

>  <m_score__min__energy>  (6) 
-6.9900000000000002

>  <m_primary>  (6) 
energy

>  <rmsd>  (6) 
3.245252336516897

>  <m_score__min__rmsd>  (6) 
3.245252336516897

>  <meeko>  (6) 
{"free_energy": -6.56, "intermolecular_energy": -9.84, "internal_energy": -1.61, "cluster_size": 3, "cluster_id": 2, "rank_in_cluster": 2}

>  <energy>  (6) 
-6.55

>  <cluster_rmsd>  (6) 
0.34

>  <cluster>  (6) 
1

$$$$

     RDKit          3D

 54 57  0  0  0  0  0  0  0  0999 V2000
  140.3450   71.8990  220.9830 O   0  0  0  0  0  0  0  0  0  0  0  0
  140.0600   72.4260  222.1050 C   0  0  0  0  0  0  0  0  0  0  0  0
  139.8240   73.8080  222.2470 N   0  0  0  0  0  0  0  0  0  0  0  0
  139.8930   74.7300  221.1090 C   0  0  0  0  0  0  0  0  0  0  0  0
  140.8950   75.7480  221.4350 C   0  0  0  0  0  0  0  0  0  0  0  0
  141.2660   76.0310  222.6080 O   0  0  0  0  0  0  0  0  0  0  0  0
  141.4990   76.4760  220.3720 N   0  0  0  0  0  0  0  0  0  0  0  0
  142.5700   75.8060  219.6240 C   0  0  0  0  0  0  0  0  0  0  0  0
  142.0690   75.8840  218.1780 C   0  0  0  0  0  0  0  0  0  0  0  0
  142.6980   77.0290  217.4920 C   0  0  0  0  0  0  0  0  0  0  0  0
  142.2300   78.3830  217.9070 C   0  0  0  0  0  0  0  0  0  0  0  0
  142.0020   78.6350  219.3130 C   0  0  0  0  0  0  0  0  0  0  0  0
  141.0340   77.8180  220.0860 C   0  0  2  0  0  0  0  0  0  0  0  0
  140.3920   78.4950  221.2290 C   0  0  0  0  0  0  0  0  0  0  0  0
  141.0580   78.9770  222.3260 C   0  0  0  0  0  0  0  0  0  0  0  0
  140.3750   79.6030  223.3580 C   0  0  0  0  0  0  0  0  0  0  0  0
  139.0090   79.7490  223.2950 C   0  0  0  0  0  0  0  0  0  0  0  0
  138.0980   80.5270  224.5640 Cl  0  0  0  0  0  0  0  0  0  0  0  0
  138.3340   79.2650  222.1920 C   0  0  0  0  0  0  0  0  0  0  0  0
  139.0180   78.6500  221.1800 C   0  0  0  0  0  0  0  0  0  0  0  0
  139.9760   71.5650  223.2730 C   0  0  0  0  0  0  0  0  0  0  0  0
  139.4050   70.3140  223.2150 C   0  0  0  0  0  0  0  0  0  0  0  0
  139.2980   69.4610  224.2780 C   0  0  0  0  0  0  0  0  0  0  0  0
  139.8010   69.8940  225.4930 C   0  0  0  0  0  0  0  0  0  0  0  0
  139.7400   69.1110  226.6180 C   0  0  0  0  0  0  0  0  0  0  0  0
  140.2670   69.6170  227.8020 C   0  0  0  0  0  0  0  0  0  0  0  0
  140.8410   70.8710  227.8640 C   0  0  0  0  0  0  0  0  0  0  0  0
  140.8990   71.6560  226.7250 C   0  0  0  0  0  0  0  0  0  0  0  0
  140.3780   71.1630  225.5450 C   0  0  0  0  0  0  0  0  0  0  0  0
  140.4560   71.9600  224.4670 N   0  0  0  0  0  0  0  0  0  0  0  0
  139.5930   74.1830  223.1930 H   0  0  0  0  0  0  0  0  0  0  0  0
  140.1908   74.1857  220.2007 H   0  0  0  0  0  0  0  0  0  0  0  0
  138.9129   75.1932  220.9223 H   0  0  0  0  0  0  0  0  0  0  0  0
  143.5271   76.3352  219.7415 H   0  0  0  0  0  0  0  0  0  0  0  0
  142.7638   74.7781  219.9645 H   0  0  0  0  0  0  0  0  0  0  0  0
  142.3294   74.9544  217.6507 H   0  0  0  0  0  0  0  0  0  0  0  0
  140.9770   76.0164  218.1787 H   0  0  0  0  0  0  0  0  0  0  0  0
  143.7812   76.9771  217.6765 H   0  0  0  0  0  0  0  0  0  0  0  0
  142.4138   76.9307  216.4339 H   0  0  0  0  0  0  0  0  0  0  0  0
  142.9857   79.1060  217.5662 H   0  0  0  0  0  0  0  0  0  0  0  0
  141.2323   78.4733  217.4527 H   0  0  0  0  0  0  0  0  0  0  0  0
  142.9754   78.5239  219.8131 H   0  0  0  0  0  0  0  0  0  0  0  0
  141.5320   79.6295  219.3087 H   0  0  0  0  0  0  0  0  0  0  0  0
  140.1969   77.6887  219.3842 H   0  0  0  0  0  0  0  0  0  0  0  0
  142.1505   78.8656  222.3887 H   0  0  0  0  0  0  0  0  0  0  0  0
  140.9276   79.9839  224.2296 H   0  0  0  0  0  0  0  0  0  0  0  0
  137.2414   79.3746  222.1270 H   0  0  0  0  0  0  0  0  0  0  0  0
  138.4641   78.2706  220.3086 H   0  0  0  0  0  0  0  0  0  0  0  0
  139.0072   69.9772  222.2463 H   0  0  0  0  0  0  0  0  0  0  0  0
  138.8311   68.4706  224.1722 H   0  0  0  0  0  0  0  0  0  0  0  0
  139.2863   68.1095  226.5847 H   0  0  0  0  0  0  0  0  0  0  0  0
  140.2252   69.0016  228.7128 H   0  0  0  0  0  0  0  0  0  0  0  0
  141.2504   71.2448  228.8141 H   0  0  0  0  0  0  0  0  0  0  0  0
  141.3532   72.6572  226.7595 H   0  0  0  0  0  0  0  0  0  0  0  0
  1  2  2  0
  2  3  1  0
  3  4  1  0
  4  5  1  0
  5  6  2  0
  5  7  1  0
  7  8  1  0
  8  9  1  0
  9 10  1  0
 10 11  1  0
 11 12  1  0
 12 13  1  0
 13 14  1  0
 14 15  2  0
 15 16  1  0
 16 17  2  0
 17 18  1  0
 17 19  1  0
 19 20  2  0
  2 21  1  0
 21 22  2  0
 22 23  1  0
 23 24  2  0
 24 25  1  0
 25 26  2  0
 26 27  1  0
 27 28  2  0
 28 29  1  0
 29 30  2  0
 13  7  1  0
 20 14  1  0
 30 21  1  0
 29 24  1  0
  3 31  1  0
  4 32  1  0
  4 33  1  0
  8 34  1  0
  8 35  1  0
  9 36  1  0
  9 37  1  0
 10 38  1  0
 10 39  1  0
 11 40  1  0
 11 41  1  0
 12 42  1  0
 12 43  1  0
 13 44  1  6
 15 45  1  0
 16 46  1  0
 19 47  1  0
 20 48  1  0
 22 49  1  0
 23 50  1  0
 25 51  1  0
 26 52  1  0
 27 53  1  0
 28 54  1  0
M  END
>  <smiles>  (7) 
O=C(NCC(=O)N1CCCCCC1c1ccc(Cl)cc1)c1ccc2ccccc2n1

>  <score_type>  (7) 
oracle

>  <origin>  (7) 
autodockgpu

>  <m_score__min__energy>  (7) 
-6.9900000000000002

>  <m_primary>  (7) 
energy

>  <rmsd>  (7) 
1.9948671105702696

>  <m_score__min__rmsd>  (7) 
1.9948671105702696

>  <meeko>  (7) 
{"free_energy": -6.28, "intermolecular_energy": -9.56, "internal_energy": -1.87, "cluster_size": 13, "cluster_id": 1, "rank_in_cluster": 10}

>  <energy>  (7) 
-6.47

>  <cluster_rmsd>  (7) 
1.74

>  <cluster>  (7) 
1

$$$$

     RDKit          3D

 54 57  0  0  0  0  0  0  0  0999 V2000
  140.0370   73.5930  222.3570 O   0  0  0  0  0  0  0  0  0  0  0  0
  140.4660   72.3960  222.3730 C   0  0  0  0  0  0  0  0  0  0  0  0
  141.1380   71.8250  221.2730 N   0  0  0  0  0  0  0  0  0  0  0  0
  141.3860   72.5760  220.0380 C   0  0  0  0  0  0  0  0  0  0  0  0
  142.4830   73.5090  220.3100 C   0  0  0  0  0  0  0  0  0  0  0  0
  143.4920   73.2330  221.0170 O   0  0  0  0  0  0  0  0  0  0  0  0
  142.4220   74.8150  219.7490 N   0  0  0  0  0  0  0  0  0  0  0  0
  143.6750   75.3840  219.2390 C   0  0  0  0  0  0  0  0  0  0  0  0
  143.7380   74.8310  217.8100 C   0  0  0  0  0  0  0  0  0  0  0  0
  142.7760   75.5510  216.9520 C   0  0  0  0  0  0  0  0  0  0  0  0
  141.3310   75.2490  217.1810 C   0  0  0  0  0  0  0  0  0  0  0  0
  140.6790   75.8210  218.3390 C   0  0  0  0  0  0  0  0  0  0  0  0
  141.1480   75.5050  219.7110 C   0  0  2  0  0  0  0  0  0  0  0  0
  141.0170   76.5920  220.7000 C   0  0  0  0  0  0  0  0  0  0  0  0
  141.1470   76.4350  222.0560 C   0  0  0  0  0  0  0  0  0  0  0  0
  141.0090   77.5140  222.9170 C   0  0  0  0  0  0  0  0  0  0  0  0
  140.7380   78.7660  222.4180 C   0  0  0  0  0  0  0  0  0  0  0  0
  140.5540   80.1580  223.4540 Cl  0  0  0  0  0  0  0  0  0  0  0  0
  140.6060   78.9300  221.0530 C   0  0  0  0  0  0  0  0  0  0  0  0
  140.7440   77.8590  220.2140 C   0  0  0  0  0  0  0  0  0  0  0  0
  140.2510   71.5980  223.5680 C   0  0  0  0  0  0  0  0  0  0  0  0
  139.5580   70.4090  223.5340 C   0  0  0  0  0  0  0  0  0  0  0  0
  139.3240   69.6160  224.6240 C   0  0  0  0  0  0  0  0  0  0  0  0
  139.8220   70.0480  225.8410 C   0  0  0  0  0  0  0  0  0  0  0  0
  139.6390   69.3230  226.9920 C   0  0  0  0  0  0  0  0  0  0  0  0
  140.1690   69.8230  228.1760 C   0  0  0  0  0  0  0  0  0  0  0  0
  140.8640   71.0150  228.2150 C   0  0  0  0  0  0  0  0  0  0  0  0
  141.0450   71.7420  227.0500 C   0  0  0  0  0  0  0  0  0  0  0  0
  140.5220   71.2530  225.8690 C   0  0  0  0  0  0  0  0  0  0  0  0
  140.7220   71.9920  224.7660 N   0  0  0  0  0  0  0  0  0  0  0  0
  141.4680   70.8380  221.3440 H   0  0  0  0  0  0  0  0  0  0  0  0
  141.6693   71.8871  219.2286 H   0  0  0  0  0  0  0  0  0  0  0  0
  140.4821   73.1179  219.7228 H   0  0  0  0  0  0  0  0  0  0  0  0
  143.6401   76.4834  219.2379 H   0  0  0  0  0  0  0  0  0  0  0  0
  144.5532   75.1228  219.8477 H   0  0  0  0  0  0  0  0  0  0  0  0
  144.7544   74.9649  217.4111 H   0  0  0  0  0  0  0  0  0  0  0  0
  143.4828   73.7611  217.8231 H   0  0  0  0  0  0  0  0  0  0  0  0
  142.9231   76.6289  217.1146 H   0  0  0  0  0  0  0  0  0  0  0  0
  142.9875   75.2138  215.9265 H   0  0  0  0  0  0  0  0  0  0  0  0
  140.7822   75.5987  216.2942 H   0  0  0  0  0  0  0  0  0  0  0  0
  141.3101   74.1655  217.3694 H   0  0  0  0  0  0  0  0  0  0  0  0
  140.7464   76.9134  218.2287 H   0  0  0  0  0  0  0  0  0  0  0  0
  139.6818   75.3576  218.3102 H   0  0  0  0  0  0  0  0  0  0  0  0
  140.4112   74.7691  220.0653 H   0  0  0  0  0  0  0  0  0  0  0  0
  141.3640   75.4382  222.4674 H   0  0  0  0  0  0  0  0  0  0  0  0
  141.1167   77.3674  224.0019 H   0  0  0  0  0  0  0  0  0  0  0  0
  140.3891   79.9258  220.6392 H   0  0  0  0  0  0  0  0  0  0  0  0
  140.6357   78.0076  219.1295 H   0  0  0  0  0  0  0  0  0  0  0  0
  139.1651   70.0732  222.5630 H   0  0  0  0  0  0  0  0  0  0  0  0
  138.7631   68.6738  224.5368 H   0  0  0  0  0  0  0  0  0  0  0  0
  139.0875   68.3714  226.9780 H   0  0  0  0  0  0  0  0  0  0  0  0
  140.0308   69.2534  229.1068 H   0  0  0  0  0  0  0  0  0  0  0  0
  141.2722   71.3858  229.1668 H   0  0  0  0  0  0  0  0  0  0  0  0
  141.5965   72.6936  227.0652 H   0  0  0  0  0  0  0  0  0  0  0  0
  1  2  2  0
  2  3  1  0
  3  4  1  0
  4  5  1  0
  5  6  2  0
  5  7  1  0
  7  8  1  0
  8  9  1  0
  9 10  1  0
 10 11  1  0
 11 12  1  0
 12 13  1  0
 13 14  1  0
 14 15  2  0
 15 16  1  0
 16 17  2  0
 17 18  1  0
 17 19  1  0
 19 20  2  0
  2 21  1  0
 21 22  2  0
 22 23  1  0
 23 24  2  0
 24 25  1  0
 25 26  2  0
 26 27  1  0
 27 28  2  0
 28 29  1  0
 29 30  2  0
 13  7  1  0
 20 14  1  0
 30 21  1  0
 29 24  1  0
  3 31  1  0
  4 32  1  0
  4 33  1  0
  8 34  1  0
  8 35  1  0
  9 36  1  0
  9 37  1  0
 10 38  1  0
 10 39  1  0
 11 40  1  0
 11 41  1  0
 12 42  1  0
 12 43  1  0
 13 44  1  1
 15 45  1  0
 16 46  1  0
 19 47  1  0
 20 48  1  0
 22 49  1  0
 23 50  1  0
 25 51  1  0
 26 52  1  0
 27 53  1  0
 28 54  1  0
M  END
>  <smiles>  (8) 
O=C(NCC(=O)N1CCCCCC1c1ccc(Cl)cc1)c1ccc2ccccc2n1

>  <score_type>  (8) 
oracle

>  <origin>  (8) 
autodockgpu

>  <m_score__min__energy>  (8) 
-6.9900000000000002

>  <m_primary>  (8) 
energy

>  <rmsd>  (8) 
2.6843736057721133

>  <m_score__min__rmsd>  (8) 
2.6843736057721133

>  <meeko>  (8) 
{"free_energy": -5.52, "intermolecular_energy": -8.8, "internal_energy": -1.89, "cluster_size": 13, "cluster_id": 1, "rank_in_cluster": 13}

>  <energy>  (8) 
-6.35

>  <cluster_rmsd>  (8) 
0.46

>  <cluster>  (8) 
1

$$$$

     RDKit          3D

 54 57  0  0  0  0  0  0  0  0999 V2000
  139.7090   71.0280  221.2920 O   0  0  0  0  0  0  0  0  0  0  0  0
  139.6330   71.7370  222.3450 C   0  0  0  0  0  0  0  0  0  0  0  0
  139.5250   73.1420  222.2970 N   0  0  0  0  0  0  0  0  0  0  0  0
  139.4930   73.8770  221.0280 C   0  0  0  0  0  0  0  0  0  0  0  0
  140.5700   74.8690  221.0730 C   0  0  0  0  0  0  0  0  0  0  0  0
  141.0790   75.3180  222.1380 O   0  0  0  0  0  0  0  0  0  0  0  0
  141.0880   75.3700  219.8460 N   0  0  0  0  0  0  0  0  0  0  0  0
  141.7820   74.4160  218.9730 C   0  0  0  0  0  0  0  0  0  0  0  0
  143.2050   74.4130  219.5430 C   0  0  0  0  0  0  0  0  0  0  0  0
  143.6610   75.8000  219.7600 C   0  0  0  0  0  0  0  0  0  0  0  0
  143.3160   76.7830  218.6960 C   0  0  0  0  0  0  0  0  0  0  0  0
  141.9800   77.3340  218.6700 C   0  0  0  0  0  0  0  0  0  0  0  0
  140.9070   76.7720  219.5270 C   0  0  2  0  0  0  0  0  0  0  0  0
  140.4960   77.6060  220.6720 C   0  0  0  0  0  0  0  0  0  0  0  0
  141.3540   78.1390  221.6000 C   0  0  0  0  0  0  0  0  0  0  0  0
  140.8810   78.9160  222.6470 C   0  0  0  0  0  0  0  0  0  0  0  0
  139.5350   79.1650  222.7700 C   0  0  0  0  0  0  0  0  0  0  0  0
  138.8850   80.1350  224.0680 Cl  0  0  0  0  0  0  0  0  0  0  0  0
  138.6670   78.6310  221.8390 C   0  0  0  0  0  0  0  0  0  0  0  0
  139.1440   77.8670  220.8100 C   0  0  0  0  0  0  0  0  0  0  0  0
  139.6600   71.0690  223.6350 C   0  0  0  0  0  0  0  0  0  0  0  0
  139.0510   69.8510  223.8350 C   0  0  0  0  0  0  0  0  0  0  0  0
  139.0420   69.1750  225.0240 C   0  0  0  0  0  0  0  0  0  0  0  0
  139.6930   69.7650  226.0940 C   0  0  0  0  0  0  0  0  0  0  0  0
  139.7400   69.1650  227.3270 C   0  0  0  0  0  0  0  0  0  0  0  0
  140.4130   69.8200  228.3530 C   0  0  0  0  0  0  0  0  0  0  0  0
  141.0250   71.0420  228.1560 C   0  0  0  0  0  0  0  0  0  0  0  0
  140.9740   71.6420  226.9090 C   0  0  0  0  0  0  0  0  0  0  0  0
  140.3070   70.9980  225.8840 C   0  0  0  0  0  0  0  0  0  0  0  0
  140.2840   71.6180  224.6940 N   0  0  0  0  0  0  0  0  0  0  0  0
  139.4660   73.6720  223.1940 H   0  0  0  0  0  0  0  0  0  0  0  0
  139.6531   73.1852  220.1879 H   0  0  0  0  0  0  0  0  0  0  0  0
  138.5181   74.3662  220.8853 H   0  0  0  0  0  0  0  0  0  0  0  0
  141.3270   73.4165  219.0364 H   0  0  0  0  0  0  0  0  0  0  0  0
  141.7385   74.6869  217.9078 H   0  0  0  0  0  0  0  0  0  0  0  0
  143.2134   73.8720  220.5008 H   0  0  0  0  0  0  0  0  0  0  0  0
  143.8801   73.9166  218.8303 H   0  0  0  0  0  0  0  0  0  0  0  0
  143.2164   76.1554  220.7013 H   0  0  0  0  0  0  0  0  0  0  0  0
  144.7598   75.7494  219.7668 H   0  0  0  0  0  0  0  0  0  0  0  0
  144.0133   77.6278  218.7966 H   0  0  0  0  0  0  0  0  0  0  0  0
  143.3855   76.2041  217.7633 H   0  0  0  0  0  0  0  0  0  0  0  0
  142.0738   78.3958  218.9415 H   0  0  0  0  0  0  0  0  0  0  0  0
  141.6349   77.0867  217.6552 H   0  0  0  0  0  0  0  0  0  0  0  0
  140.0214   76.8082  218.8755 H   0  0  0  0  0  0  0  0  0  0  0  0
  142.4336   77.9473  221.5125 H   0  0  0  0  0  0  0  0  0  0  0  0
  141.5853   79.3342  223.3812 H   0  0  0  0  0  0  0  0  0  0  0  0
  137.5869   78.8208  221.9252 H   0  0  0  0  0  0  0  0  0  0  0  0
  138.4379   77.4510  220.0763 H   0  0  0  0  0  0  0  0  0  0  0  0
  138.5360   69.3894  222.9796 H   0  0  0  0  0  0  0  0  0  0  0  0
  138.5382   68.2025  225.1259 H   0  0  0  0  0  0  0  0  0  0  0  0
  139.2580   68.1914  227.4996 H   0  0  0  0  0  0  0  0  0  0  0  0
  140.4589   69.3522  229.3475 H   0  0  0  0  0  0  0  0  0  0  0  0
  141.5507   71.5367  228.9860 H   0  0  0  0  0  0  0  0  0  0  0  0
  141.4565   72.6154  226.7370 H   0  0  0  0  0  0  0  0  0  0  0  0
  1  2  2  0
  2  3  1  0
  3  4  1  0
  4  5  1  0
  5  6  2  0
  5  7  1  0
  7  8  1  0
  8  9  1  0
  9 10  1  0
 10 11  1  0
 11 12  1  0
 12 13  1  0
 13 14  1  0
 14 15  2  0
 15 16  1  0
 16 17  2  0
 17 18  1  0
 17 19  1  0
 19 20  2  0
  2 21  1  0
 21 22  2  0
 22 23  1  0
 23 24  2  0
 24 25  1  0
 25 26  2  0
 26 27  1  0
 27 28  2  0
 28 29  1  0
 29 30  2  0
 13  7  1  0
 20 14  1  0
 30 21  1  0
 29 24  1  0
  3 31  1  0
  4 32  1  0
  4 33  1  0
  8 34  1  0
  8 35  1  0
  9 36  1  0
  9 37  1  0
 10 38  1  0
 10 39  1  0
 11 40  1  0
 11 41  1  0
 12 42  1  0
 12 43  1  0
 13 44  1  6
 15 45  1  0
 16 46  1  0
 19 47  1  0
 20 48  1  0
 22 49  1  0
 23 50  1  0
 25 51  1  0
 26 52  1  0
 27 53  1  0
 28 54  1  0
M  END
>  <smiles>  (9) 
O=C(NCC(=O)N1CCCCCC1c1ccc(Cl)cc1)c1ccc2ccccc2n1

>  <score_type>  (9) 
oracle

>  <origin>  (9) 
autodockgpu

>  <m_score__min__energy>  (9) 
-6.9900000000000002

>  <m_primary>  (9) 
energy

>  <rmsd>  (9) 
1.7601220133920268

>  <m_score__min__rmsd>  (9) 
1.7601220133920268

>  <meeko>  (9) 
{"free_energy": -6.35, "intermolecular_energy": -9.63, "internal_energy": -1.98, "cluster_size": 13, "cluster_id": 1, "rank_in_cluster": 8}

>  <energy>  (9) 
-6.32

>  <cluster_rmsd>  (9) 
0.64

>  <cluster>  (9) 
1

$$$$

     RDKit          3D

 54 57  0  0  0  0  0  0  0  0999 V2000
  141.1080   72.0730  221.7490 O   0  0  0  0  0  0  0  0  0  0  0  0
  140.1620   72.2180  222.5870 C   0  0  0  0  0  0  0  0  0  0  0  0
  139.1380   73.1700  222.4050 N   0  0  0  0  0  0  0  0  0  0  0  0
  139.0980   74.0550  221.2380 C   0  0  0  0  0  0  0  0  0  0  0  0
  140.3220   74.8610  221.2620 C   0  0  0  0  0  0  0  0  0  0  0  0
  140.9990   75.0940  222.3020 O   0  0  0  0  0  0  0  0  0  0  0  0
  140.7910   75.4260  220.0430 N   0  0  0  0  0  0  0  0  0  0  0  0
  140.7680   74.5670  218.8530 C   0  0  0  0  0  0  0  0  0  0  0  0
  142.1290   73.8650  218.9190 C   0  0  0  0  0  0  0  0  0  0  0  0
  143.2050   74.8320  218.6300 C   0  0  0  0  0  0  0  0  0  0  0  0
  143.5720   75.7680  219.7350 C   0  0  0  0  0  0  0  0  0  0  0  0
  142.7370   76.9250  219.9700 C   0  0  0  0  0  0  0  0  0  0  0  0
  141.2600   76.7970  220.0380 C   0  0  2  0  0  0  0  0  0  0  0  0
  140.5840   77.6730  221.0140 C   0  0  0  0  0  0  0  0  0  0  0  0
  139.2620   78.0310  220.9590 C   0  0  0  0  0  0  0  0  0  0  0  0
  138.7050   78.8600  221.9220 C   0  0  0  0  0  0  0  0  0  0  0  0
  139.4780   79.3390  222.9530 C   0  0  0  0  0  0  0  0  0  0  0  0
  138.8310   80.3850  224.1900 Cl  0  0  0  0  0  0  0  0  0  0  0  0
  140.8110   78.9820  223.0130 C   0  0  0  0  0  0  0  0  0  0  0  0
  141.3490   78.1630  222.0580 C   0  0  0  0  0  0  0  0  0  0  0  0
  140.1440   71.3700  223.7670 C   0  0  0  0  0  0  0  0  0  0  0  0
  139.6410   70.0890  223.7340 C   0  0  0  0  0  0  0  0  0  0  0  0
  139.5980   69.2450  224.8100 C   0  0  0  0  0  0  0  0  0  0  0  0
  140.0960   69.7220  226.0100 C   0  0  0  0  0  0  0  0  0  0  0  0
  140.0960   68.9510  227.1450 C   0  0  0  0  0  0  0  0  0  0  0  0
  140.6140   69.5010  228.3140 C   0  0  0  0  0  0  0  0  0  0  0  0
  141.1200   70.7850  228.3500 C   0  0  0  0  0  0  0  0  0  0  0  0
  141.1160   71.5570  227.2010 C   0  0  0  0  0  0  0  0  0  0  0  0
  140.6040   71.0200  226.0360 C   0  0  0  0  0  0  0  0  0  0  0  0
  140.6210   71.8050  224.9480 N   0  0  0  0  0  0  0  0  0  0  0  0
  138.3870   73.2430  223.1260 H   0  0  0  0  0  0  0  0  0  0  0  0
  139.0575   73.4589  220.3144 H   0  0  0  0  0  0  0  0  0  0  0  0
  138.2065   74.6987  221.2669 H   0  0  0  0  0  0  0  0  0  0  0  0
  139.9438   73.8403  218.9040 H   0  0  0  0  0  0  0  0  0  0  0  0
  140.6075   75.1218  217.9168 H   0  0  0  0  0  0  0  0  0  0  0  0
  142.2753   73.4460  219.9255 H   0  0  0  0  0  0  0  0  0  0  0  0
  142.1572   73.0569  218.1733 H   0  0  0  0  0  0  0  0  0  0  0  0
  144.1059   74.2601  218.3629 H   0  0  0  0  0  0  0  0  0  0  0  0
  142.8148   75.4707  217.8239 H   0  0  0  0  0  0  0  0  0  0  0  0
  143.5829   75.1819  220.6658 H   0  0  0  0  0  0  0  0  0  0  0  0
  144.5351   76.1934  219.4164 H   0  0  0  0  0  0  0  0  0  0  0  0
  143.0589   77.3539  220.9304 H   0  0  0  0  0  0  0  0  0  0  0  0
  142.8877   77.5229  219.0591 H   0  0  0  0  0  0  0  0  0  0  0  0
  140.9279   77.2112  219.0746 H   0  0  0  0  0  0  0  0  0  0  0  0
  138.6329   77.6552  220.1386 H   0  0  0  0  0  0  0  0  0  0  0  0
  137.6417   79.1348  221.8604 H   0  0  0  0  0  0  0  0  0  0  0  0
  141.4425   79.3576  223.8317 H   0  0  0  0  0  0  0  0  0  0  0  0
  142.4122   77.8882  222.1214 H   0  0  0  0  0  0  0  0  0  0  0  0
  139.2464   69.7184  222.7764 H   0  0  0  0  0  0  0  0  0  0  0  0
  139.1847   68.2292  224.7248 H   0  0  0  0  0  0  0  0  0  0  0  0
  139.6974   67.9259  227.1314 H   0  0  0  0  0  0  0  0  0  0  0  0
  140.6204   68.8968  229.2332 H   0  0  0  0  0  0  0  0  0  0  0  0
  141.5247   71.1930  229.2880 H   0  0  0  0  0  0  0  0  0  0  0  0
  141.5144   72.5822  227.2155 H   0  0  0  0  0  0  0  0  0  0  0  0
  1  2  2  0
  2  3  1  0
  3  4  1  0
  4  5  1  0
  5  6  2  0
  5  7  1  0
  7  8  1  0
  8  9  1  0
  9 10  1  0
 10 11  1  0
 11 12  1  0
 12 13  1  0
 13 14  1  0
 14 15  2  0
 15 16  1  0
 16 17  2  0
 17 18  1  0
 17 19  1  0
 19 20  2  0
  2 21  1  0
 21 22  2  0
 22 23  1  0
 23 24  2  0
 24 25  1  0
 25 26  2  0
 26 27  1  0
 27 28  2  0
 28 29  1  0
 29 30  2  0
 13  7  1  0
 20 14  1  0
 30 21  1  0
 29 24  1  0
  3 31  1  0
  4 32  1  0
  4 33  1  0
  8 34  1  0
  8 35  1  0
  9 36  1  0
  9 37  1  0
 10 38  1  0
 10 39  1  0
 11 40  1  0
 11 41  1  0
 12 42  1  0
 12 43  1  0
 13 44  1  6
 15 45  1  0
 16 46  1  0
 19 47  1  0
 20 48  1  0
 22 49  1  0
 23 50  1  0
 25 51  1  0
 26 52  1  0
 27 53  1  0
 28 54  1  0
M  END
>  <smiles>  (10) 
O=C(NCC(=O)N1CCCCCC1c1ccc(Cl)cc1)c1ccc2ccccc2n1

>  <score_type>  (10) 
oracle

>  <origin>  (10) 
autodockgpu

>  <m_score__min__energy>  (10) 
-6.9900000000000002

>  <m_primary>  (10) 
energy

>  <rmsd>  (10) 
1.6616934494218214

>  <m_score__min__rmsd>  (10) 
1.6616934494218214

>  <meeko>  (10) 
{"free_energy": -6.01, "intermolecular_energy": -9.29, "internal_energy": -1.79, "cluster_size": 13, "cluster_id": 1, "rank_in_cluster": 11}

>  <energy>  (10) 
-6.28

>  <cluster_rmsd>  (10) 
1.24

>  <cluster>  (10) 
1

$$$$

     RDKit          3D

 54 57  0  0  0  0  0  0  0  0999 V2000
  138.6160   75.7070  221.5910 O   0  0  0  0  0  0  0  0  0  0  0  0
  139.8220   76.0740  221.7660 C   0  0  0  0  0  0  0  0  0  0  0  0
  140.9130   75.2360  221.4580 N   0  0  0  0  0  0  0  0  0  0  0  0
  140.7290   73.8870  220.9150 C   0  0  0  0  0  0  0  0  0  0  0  0
  141.6590   73.7400  219.7920 C   0  0  0  0  0  0  0  0  0  0  0  0
  141.3120   73.7320  218.5780 O   0  0  0  0  0  0  0  0  0  0  0  0
  143.0470   73.5960  220.0700 N   0  0  0  0  0  0  0  0  0  0  0  0
  143.4610   72.3980  220.8120 C   0  0  0  0  0  0  0  0  0  0  0  0
  144.5530   71.8080  219.9120 C   0  0  0  0  0  0  0  0  0  0  0  0
  145.8630   72.3830  220.2720 C   0  0  0  0  0  0  0  0  0  0  0  0
  145.8360   73.6530  221.0520 C   0  0  0  0  0  0  0  0  0  0  0  0
  145.1480   74.7970  220.4940 C   0  0  0  0  0  0  0  0  0  0  0  0
  143.9660   74.6200  219.6160 C   0  0  2  0  0  0  0  0  0  0  0  0
  143.3120   75.8620  219.1610 C   0  0  0  0  0  0  0  0  0  0  0  0
  142.7990   76.8250  219.9910 C   0  0  0  0  0  0  0  0  0  0  0  0
  142.2000   77.9660  219.4780 C   0  0  0  0  0  0  0  0  0  0  0  0
  142.1130   78.1490  218.1180 C   0  0  0  0  0  0  0  0  0  0  0  0
  141.3710   79.5650  217.4170 Cl  0  0  0  0  0  0  0  0  0  0  0  0
  142.6290   77.1830  217.2770 C   0  0  0  0  0  0  0  0  0  0  0  0
  143.2170   76.0610  217.7940 C   0  0  0  0  0  0  0  0  0  0  0  0
  140.0720   77.4010  222.3030 C   0  0  0  0  0  0  0  0  0  0  0  0
  139.0470   78.2290  222.7010 C   0  0  0  0  0  0  0  0  0  0  0  0
  139.2200   79.4860  223.2120 C   0  0  0  0  0  0  0  0  0  0  0  0
  140.5190   79.9480  223.3340 C   0  0  0  0  0  0  0  0  0  0  0  0
  140.7940   81.1950  223.8350 C   0  0  0  0  0  0  0  0  0  0  0  0
  142.1260   81.5890  223.9260 C   0  0  0  0  0  0  0  0  0  0  0  0
  143.1560   80.7610  223.5280 C   0  0  0  0  0  0  0  0  0  0  0  0
  142.8710   79.5040  223.0230 C   0  0  0  0  0  0  0  0  0  0  0  0
  141.5520   79.1050  222.9290 C   0  0  0  0  0  0  0  0  0  0  0  0
  141.3240   77.8780  222.4320 N   0  0  0  0  0  0  0  0  0  0  0  0
  141.8800   75.5910  221.6240 H   0  0  0  0  0  0  0  0  0  0  0  0
  140.9503   73.1364  221.6880 H   0  0  0  0  0  0  0  0  0  0  0  0
  139.6907   73.7383  220.5835 H   0  0  0  0  0  0  0  0  0  0  0  0
  143.8620   72.6626  221.8015 H   0  0  0  0  0  0  0  0  0  0  0  0
  142.6347   71.7001  221.0122 H   0  0  0  0  0  0  0  0  0  0  0  0
  144.5847   70.7164  220.0442 H   0  0  0  0  0  0  0  0  0  0  0  0
  144.3273   72.0482  218.8625 H   0  0  0  0  0  0  0  0  0  0  0  0
  146.4046   71.6346  220.8692 H   0  0  0  0  0  0  0  0  0  0  0  0
  146.3442   72.6367  219.3159 H   0  0  0  0  0  0  0  0  0  0  0  0
  145.3608   73.4292  222.0185 H   0  0  0  0  0  0  0  0  0  0  0  0
  146.8897   73.9666  221.0879 H   0  0  0  0  0  0  0  0  0  0  0  0
  144.8169   75.4096  221.3455 H   0  0  0  0  0  0  0  0  0  0  0  0
  145.8976   75.2222  219.8103 H   0  0  0  0  0  0  0  0  0  0  0  0
  144.4024   74.2243  218.6870 H   0  0  0  0  0  0  0  0  0  0  0  0
  142.8634   76.6907  221.0809 H   0  0  0  0  0  0  0  0  0  0  0  0
  141.7935   78.7265  220.1609 H   0  0  0  0  0  0  0  0  0  0  0  0
  142.5670   77.3161  216.1868 H   0  0  0  0  0  0  0  0  0  0  0  0
  143.6226   75.3014  217.1096 H   0  0  0  0  0  0  0  0  0  0  0  0
  138.0177   77.8540  222.6013 H   0  0  0  0  0  0  0  0  0  0  0  0
  138.3618   80.1044  223.5137 H   0  0  0  0  0  0  0  0  0  0  0  0
  139.9836   81.8658  224.1563 H   0  0  0  0  0  0  0  0  0  0  0  0
  142.3638   82.5860  224.3254 H   0  0  0  0  0  0  0  0  0  0  0  0
  144.1995   81.0987  223.6118 H   0  0  0  0  0  0  0  0  0  0  0  0
  143.6819   78.8337  222.7017 H   0  0  0  0  0  0  0  0  0  0  0  0
  1  2  2  0
  2  3  1  0
  3  4  1  0
  4  5  1  0
  5  6  2  0
  5  7  1  0
  7  8  1  0
  8  9  1  0
  9 10  1  0
 10 11  1  0
 11 12  1  0
 12 13  1  0
 13 14  1  0
 14 15  2  0
 15 16  1  0
 16 17  2  0
 17 18  1  0
 17 19  1  0
 19 20  2  0
  2 21  1  0
 21 22  2  0
 22 23  1  0
 23 24  2  0
 24 25  1  0
 25 26  2  0
 26 27  1  0
 27 28  2  0
 28 29  1  0
 29 30  2  0
 13  7  1  0
 20 14  1  0
 30 21  1  0
 29 24  1  0
  3 31  1  0
  4 32  1  0
  4 33  1  0
  8 34  1  0
  8 35  1  0
  9 36  1  0
  9 37  1  0
 10 38  1  0
 10 39  1  0
 11 40  1  0
 11 41  1  0
 12 42  1  0
 12 43  1  0
 13 44  1  6
 15 45  1  0
 16 46  1  0
 19 47  1  0
 20 48  1  0
 22 49  1  0
 23 50  1  0
 25 51  1  0
 26 52  1  0
 27 53  1  0
 28 54  1  0
M  END
>  <smiles>  (11) 
O=C(NCC(=O)N1CCCCCC1c1ccc(Cl)cc1)c1ccc2ccccc2n1

>  <score_type>  (11) 
oracle

>  <origin>  (11) 
autodockgpu

>  <m_score__min__energy>  (11) 
-6.9900000000000002

>  <m_primary>  (11) 
energy

>  <rmsd>  (11) 
7.747382033032887

>  <m_score__min__rmsd>  (11) 
7.747382033032887

>  <meeko>  (11) 
{"free_energy": -5.48, "intermolecular_energy": -8.76, "internal_energy": -2.64, "cluster_size": 12, "cluster_id": 6, "rank_in_cluster": 3}

>  <energy>  (11) 
-6.01

>  <cluster_rmsd>  (11) 
0.65

>  <cluster>  (11) 
1

$$$$

     RDKit          3D

 54 57  0  0  0  0  0  0  0  0999 V2000
  138.9760   73.9650  221.4200 O   0  0  0  0  0  0  0  0  0  0  0  0
  140.1210   74.4810  221.6210 C   0  0  0  0  0  0  0  0  0  0  0  0
  140.2790   75.7340  222.2480 N   0  0  0  0  0  0  0  0  0  0  0  0
  139.1330   76.5230  222.7090 C   0  0  0  0  0  0  0  0  0  0  0  0
  139.2070   77.8270  222.0440 C   0  0  0  0  0  0  0  0  0  0  0  0
  138.4710   78.1760  221.0790 O   0  0  0  0  0  0  0  0  0  0  0  0
  140.1660   78.7730  222.5020 N   0  0  0  0  0  0  0  0  0  0  0  0
  139.6630   79.9150  223.2770 C   0  0  0  0  0  0  0  0  0  0  0  0
  139.8420   81.0860  222.3030 C   0  0  0  0  0  0  0  0  0  0  0  0
  141.2500   81.5280  222.3050 C   0  0  0  0  0  0  0  0  0  0  0  0
  142.1600   80.8080  223.2430 C   0  0  0  0  0  0  0  0  0  0  0  0
  142.4880   79.4270  222.9660 C   0  0  0  0  0  0  0  0  0  0  0  0
  141.5650   78.5660  222.1870 C   0  0  2  0  0  0  0  0  0  0  0  0
  141.8520   78.4580  220.7440 C   0  0  0  0  0  0  0  0  0  0  0  0
  141.7990   79.5010  219.8560 C   0  0  0  0  0  0  0  0  0  0  0  0
  142.0860   79.3110  218.5120 C   0  0  0  0  0  0  0  0  0  0  0  0
  142.4300   78.0630  218.0490 C   0  0  0  0  0  0  0  0  0  0  0  0
  142.8010   77.7660  216.3690 Cl  0  0  0  0  0  0  0  0  0  0  0  0
  142.4850   77.0090  218.9390 C   0  0  0  0  0  0  0  0  0  0  0  0
  142.2000   77.2080  220.2620 C   0  0  0  0  0  0  0  0  0  0  0  0
  141.2980   73.7490  221.1860 C   0  0  0  0  0  0  0  0  0  0  0  0
  141.2420   72.4140  220.8550 C   0  0  0  0  0  0  0  0  0  0  0  0
  142.3140   71.6720  220.4400 C   0  0  0  0  0  0  0  0  0  0  0  0
  143.5350   72.3180  220.3500 C   0  0  0  0  0  0  0  0  0  0  0  0
  144.6690   71.6600  219.9440 C   0  0  0  0  0  0  0  0  0  0  0  0
  145.8590   72.3780  219.8790 C   0  0  0  0  0  0  0  0  0  0  0  0
  145.9190   73.7160  220.2100 C   0  0  0  0  0  0  0  0  0  0  0  0
  144.7710   74.3740  220.6190 C   0  0  0  0  0  0  0  0  0  0  0  0
  143.5850   73.6700  220.6870 C   0  0  0  0  0  0  0  0  0  0  0  0
  142.4990   74.3490  221.0890 N   0  0  0  0  0  0  0  0  0  0  0  0
  141.2440   76.1080  222.3850 H   0  0  0  0  0  0  0  0  0  0  0  0
  138.1944   76.0161  222.4406 H   0  0  0  0  0  0  0  0  0  0  0  0
  139.1556   76.6412  223.8024 H   0  0  0  0  0  0  0  0  0  0  0  0
  138.6045   79.7786  223.5435 H   0  0  0  0  0  0  0  0  0  0  0  0
  140.1861   80.0584  224.2340 H   0  0  0  0  0  0  0  0  0  0  0  0
  139.5620   80.7637  221.2892 H   0  0  0  0  0  0  0  0  0  0  0  0
  139.1990   81.9212  222.6176 H   0  0  0  0  0  0  0  0  0  0  0  0
  141.6450   81.3981  221.2866 H   0  0  0  0  0  0  0  0  0  0  0  0
  141.2327   82.5720  222.6512 H   0  0  0  0  0  0  0  0  0  0  0  0
  143.1069   81.3672  223.2693 H   0  0  0  0  0  0  0  0  0  0  0  0
  141.5945   80.7654  224.1855 H   0  0  0  0  0  0  0  0  0  0  0  0
  143.4435   79.4353  222.4210 H   0  0  0  0  0  0  0  0  0  0  0  0
  142.4645   78.9668  223.9648 H   0  0  0  0  0  0  0  0  0  0  0  0
  141.7963   77.5549  222.5533 H   0  0  0  0  0  0  0  0  0  0  0  0
  141.5247   80.5041  220.2146 H   0  0  0  0  0  0  0  0  0  0  0  0
  142.0382   80.1608  217.8152 H   0  0  0  0  0  0  0  0  0  0  0  0
  142.7591   76.0050  218.5827 H   0  0  0  0  0  0  0  0  0  0  0  0
  142.2484   76.3570  220.9573 H   0  0  0  0  0  0  0  0  0  0  0  0
  140.2678   71.9087  220.9293 H   0  0  0  0  0  0  0  0  0  0  0  0
  142.2099   70.6063  220.1883 H   0  0  0  0  0  0  0  0  0  0  0  0
  144.6379   70.5933  219.6771 H   0  0  0  0  0  0  0  0  0  0  0  0
  146.7766   71.8651  219.5550 H   0  0  0  0  0  0  0  0  0  0  0  0
  146.8744   74.2578  220.1494 H   0  0  0  0  0  0  0  0  0  0  0  0
  144.8035   75.4407  220.8855 H   0  0  0  0  0  0  0  0  0  0  0  0
  1  2  2  0
  2  3  1  0
  3  4  1  0
  4  5  1  0
  5  6  2  0
  5  7  1  0
  7  8  1  0
  8  9  1  0
  9 10  1  0
 10 11  1  0
 11 12  1  0
 12 13  1  0
 13 14  1  0
 14 15  2  0
 15 16  1  0
 16 17  2  0
 17 18  1  0
 17 19  1  0
 19 20  2  0
  2 21  1  0
 21 22  2  0
 22 23  1  0
 23 24  2  0
 24 25  1  0
 25 26  2  0
 26 27  1  0
 27 28  2  0
 28 29  1  0
 29 30  2  0
 13  7  1  0
 20 14  1  0
 30 21  1  0
 29 24  1  0
  3 31  1  0
  4 32  1  0
  4 33  1  0
  8 34  1  0
  8 35  1  0
  9 36  1  0
  9 37  1  0
 10 38  1  0
 10 39  1  0
 11 40  1  0
 11 41  1  0
 12 42  1  0
 12 43  1  0
 13 44  1  1
 15 45  1  0
 16 46  1  0
 19 47  1  0
 20 48  1  0
 22 49  1  0
 23 50  1  0
 25 51  1  0
 26 52  1  0
 27 53  1  0
 28 54  1  0
M  END
>  <smiles>  (12) 
O=C(NCC(=O)N1CCCCCC1c1ccc(Cl)cc1)c1ccc2ccccc2n1

>  <score_type>  (12) 
oracle

>  <origin>  (12) 
autodockgpu

>  <m_score__min__energy>  (12) 
-6.9900000000000002

>  <m_primary>  (12) 
energy

>  <rmsd>  (12) 
6.198305653426532

>  <m_score__min__rmsd>  (12) 
6.198305653426532

>  <meeko>  (12) 
{"free_energy": -5.4, "intermolecular_energy": -8.68, "internal_energy": -2.69, "cluster_size": 3, "cluster_id": 9, "rank_in_cluster": 1}

>  <energy>  (12) 
-5.91

>  <cluster_rmsd>  (12) 
1.83

>  <cluster>  (12) 
1

$$$$

     RDKit          3D

 54 57  0  0  0  0  0  0  0  0999 V2000
  137.0550   76.7860  222.5620 O   0  0  0  0  0  0  0  0  0  0  0  0
  138.3250   76.7190  222.5650 C   0  0  0  0  0  0  0  0  0  0  0  0
  139.0140   75.5230  222.2750 N   0  0  0  0  0  0  0  0  0  0  0  0
  138.3090   74.2790  221.9520 C   0  0  0  0  0  0  0  0  0  0  0  0
  139.2650   73.1810  222.1210 C   0  0  0  0  0  0  0  0  0  0  0  0
  140.5140   73.3360  222.2260 O   0  0  0  0  0  0  0  0  0  0  0  0
  138.7710   71.8480  222.1740 N   0  0  0  0  0  0  0  0  0  0  0  0
  137.3380   71.6540  221.9220 C   0  0  0  0  0  0  0  0  0  0  0  0
  136.9710   70.5440  222.9140 C   0  0  0  0  0  0  0  0  0  0  0  0
  137.0040   69.2340  222.2350 C   0  0  0  0  0  0  0  0  0  0  0  0
  138.3540   68.6490  222.0030 C   0  0  0  0  0  0  0  0  0  0  0  0
  139.4460   69.5390  221.6740 C   0  0  0  0  0  0  0  0  0  0  0  0
  139.6920   70.7680  222.4680 C   0  0  2  0  0  0  0  0  0  0  0  0
  139.9480   70.5640  223.9060 C   0  0  0  0  0  0  0  0  0  0  0  0
  140.4540   71.5160  224.7530 C   0  0  0  0  0  0  0  0  0  0  0  0
  140.6630   71.2390  226.0960 C   0  0  0  0  0  0  0  0  0  0  0  0
  140.3630   69.9960  226.6010 C   0  0  0  0  0  0  0  0  0  0  0  0
  140.6070   69.5920  228.2810 Cl  0  0  0  0  0  0  0  0  0  0  0  0
  139.8530   69.0330  225.7520 C   0  0  0  0  0  0  0  0  0  0  0  0
  139.6510   69.3170  224.4290 C   0  0  0  0  0  0  0  0  0  0  0  0
  139.0820   77.9190  222.8780 C   0  0  0  0  0  0  0  0  0  0  0  0
  138.4680   79.0790  223.2900 C   0  0  0  0  0  0  0  0  0  0  0  0
  139.1260   80.2380  223.5990 C   0  0  0  0  0  0  0  0  0  0  0  0
  140.5050   80.2330  223.4850 C   0  0  0  0  0  0  0  0  0  0  0  0
  141.2540   81.3470  223.7710 C   0  0  0  0  0  0  0  0  0  0  0  0
  142.6360   81.2640  223.6320 C   0  0  0  0  0  0  0  0  0  0  0  0
  143.2560   80.1020  223.2190 C   0  0  0  0  0  0  0  0  0  0  0  0
  142.4940   78.9820  222.9320 C   0  0  0  0  0  0  0  0  0  0  0  0
  141.1210   79.0550  223.0660 C   0  0  0  0  0  0  0  0  0  0  0  0
  140.4240   77.9450  222.7760 N   0  0  0  0  0  0  0  0  0  0  0  0
  140.0570   75.5280  222.2930 H   0  0  0  0  0  0  0  0  0  0  0  0
  137.4549   74.1427  222.6317 H   0  0  0  0  0  0  0  0  0  0  0  0
  137.9236   74.3054  220.9220 H   0  0  0  0  0  0  0  0  0  0  0  0
  136.7706   72.5737  222.1275 H   0  0  0  0  0  0  0  0  0  0  0  0
  137.1081   71.4000  220.8767 H   0  0  0  0  0  0  0  0  0  0  0  0
  137.6928   70.5431  223.7441 H   0  0  0  0  0  0  0  0  0  0  0  0
  135.9582   70.7255  223.3029 H   0  0  0  0  0  0  0  0  0  0  0  0
  136.4308   68.5232  222.8484 H   0  0  0  0  0  0  0  0  0  0  0  0
  136.5826   69.4097  221.2342 H   0  0  0  0  0  0  0  0  0  0  0  0
  138.6375   68.1131  222.9208 H   0  0  0  0  0  0  0  0  0  0  0  0
  138.2283   68.0328  221.1005 H   0  0  0  0  0  0  0  0  0  0  0  0
  140.3667   68.9397  221.7308 H   0  0  0  0  0  0  0  0  0  0  0  0
  139.1474   69.9384  220.6935 H   0  0  0  0  0  0  0  0  0  0  0  0
  140.6691   71.1130  222.0989 H   0  0  0  0  0  0  0  0  0  0  0  0
  140.6979   72.5146  224.3616 H   0  0  0  0  0  0  0  0  0  0  0  0
  141.0701   72.0165  226.7592 H   0  0  0  0  0  0  0  0  0  0  0  0
  139.6083   68.0337  226.1413 H   0  0  0  0  0  0  0  0  0  0  0  0
  139.2442   68.5384  223.7670 H   0  0  0  0  0  0  0  0  0  0  0  0
  137.3715   79.0744  223.3771 H   0  0  0  0  0  0  0  0  0  0  0  0
  138.5814   81.1366  223.9246 H   0  0  0  0  0  0  0  0  0  0  0  0
  140.7746   82.2804  224.1012 H   0  0  0  0  0  0  0  0  0  0  0  0
  143.2508   82.1479  223.8573 H   0  0  0  0  0  0  0  0  0  0  0  0
  144.3508   80.0658  223.1183 H   0  0  0  0  0  0  0  0  0  0  0  0
  142.9744   78.0489  222.6025 H   0  0  0  0  0  0  0  0  0  0  0  0
  1  2  2  0
  2  3  1  0
  3  4  1  0
  4  5  1  0
  5  6  2  0
  5  7  1  0
  7  8  1  0
  8  9  1  0
  9 10  1  0
 10 11  1  0
 11 12  1  0
 12 13  1  0
 13 14  1  0
 14 15  2  0
 15 16  1  0
 16 17  2  0
 17 18  1  0
 17 19  1  0
 19 20  2  0
  2 21  1  0
 21 22  2  0
 22 23  1  0
 23 24  2  0
 24 25  1  0
 25 26  2  0
 26 27  1  0
 27 28  2  0
 28 29  1  0
 29 30  2  0
 13  7  1  0
 20 14  1  0
 30 21  1  0
 29 24  1  0
  3 31  1  0
  4 32  1  0
  4 33  1  0
  8 34  1  0
  8 35  1  0
  9 36  1  0
  9 37  1  0
 10 38  1  0
 10 39  1  0
 11 40  1  0
 11 41  1  0
 12 42  1  0
 12 43  1  0
 13 44  1  6
 15 45  1  0
 16 46  1  0
 19 47  1  0
 20 48  1  0
 22 49  1  0
 23 50  1  0
 25 51  1  0
 26 52  1  0
 27 53  1  0
 28 54  1  0
M  END
>  <smiles>  (13) 
O=C(NCC(=O)N1CCCCCC1c1ccc(Cl)cc1)c1ccc2ccccc2n1

>  <score_type>  (13) 
oracle

>  <origin>  (13) 
autodockgpu

>  <m_score__min__energy>  (13) 
-6.9900000000000002

>  <m_primary>  (13) 
energy

>  <rmsd>  (13) 
8.327945419921289

>  <m_score__min__rmsd>  (13) 
8.327945419921289

>  <meeko>  (13) 
{"free_energy": -6.36, "intermolecular_energy": -9.64, "internal_energy": -1.98, "cluster_size": 5, "cluster_id": 5, "rank_in_cluster": 1}

>  <energy>  (13) 
-5.52

>  <cluster_rmsd>  (13) 
1.79

>  <cluster>  (13) 
1

$$$$

     RDKit          3D

 54 57  0  0  0  0  0  0  0  0999 V2000
  139.9560   70.9110  221.2810 O   0  0  0  0  0  0  0  0  0  0  0  0
  139.8310   71.5960  222.3460 C   0  0  0  0  0  0  0  0  0  0  0  0
  139.6410   72.9930  222.3230 N   0  0  0  0  0  0  0  0  0  0  0  0
  139.5740   73.7470  221.0680 C   0  0  0  0  0  0  0  0  0  0  0  0
  140.3530   74.9740  221.2570 C   0  0  0  0  0  0  0  0  0  0  0  0
  140.4440   75.5970  222.3510 O   0  0  0  0  0  0  0  0  0  0  0  0
  141.0600   75.5110  220.1440 N   0  0  0  0  0  0  0  0  0  0  0  0
  140.2900   76.3120  219.1850 C   0  0  0  0  0  0  0  0  0  0  0  0
  140.3740   77.7220  219.7790 C   0  0  0  0  0  0  0  0  0  0  0  0
  141.7870   78.0940  219.9870 C   0  0  0  0  0  0  0  0  0  0  0  0
  142.7650   77.5620  218.9920 C   0  0  0  0  0  0  0  0  0  0  0  0
  143.1850   76.1830  219.1090 C   0  0  0  0  0  0  0  0  0  0  0  0
  142.4790   75.2460  220.0180 C   0  0  2  0  0  0  0  0  0  0  0  0
  142.8180   73.8190  219.8590 C   0  0  0  0  0  0  0  0  0  0  0  0
  142.3290   73.0050  218.8700 C   0  0  0  0  0  0  0  0  0  0  0  0
  142.7020   71.6710  218.7930 C   0  0  0  0  0  0  0  0  0  0  0  0
  143.5730   71.1430  219.7150 C   0  0  0  0  0  0  0  0  0  0  0  0
  144.0760   69.4720  219.6670 Cl  0  0  0  0  0  0  0  0  0  0  0  0
  144.0680   71.9580  220.7140 C   0  0  0  0  0  0  0  0  0  0  0  0
  143.6940   73.2720  220.7800 C   0  0  0  0  0  0  0  0  0  0  0  0
  139.8890   70.9060  223.6240 C   0  0  0  0  0  0  0  0  0  0  0  0
  139.4660   69.6040  223.7670 C   0  0  0  0  0  0  0  0  0  0  0  0
  139.4960   68.9040  224.9420 C   0  0  0  0  0  0  0  0  0  0  0  0
  139.9850   69.5590  226.0580 C   0  0  0  0  0  0  0  0  0  0  0  0
  140.0540   68.9420  227.2820 C   0  0  0  0  0  0  0  0  0  0  0  0
  140.5580   69.6660  228.3570 C   0  0  0  0  0  0  0  0  0  0  0  0
  140.9830   70.9720  228.2180 C   0  0  0  0  0  0  0  0  0  0  0  0
  140.9100   71.5890  226.9800 C   0  0  0  0  0  0  0  0  0  0  0  0
  140.4110   70.8780  225.9070 C   0  0  0  0  0  0  0  0  0  0  0  0
  140.3590   71.5170  224.7280 N   0  0  0  0  0  0  0  0  0  0  0  0
  139.5450   73.5010  223.2290 H   0  0  0  0  0  0  0  0  0  0  0  0
  140.0015   73.1519  220.2476 H   0  0  0  0  0  0  0  0  0  0  0  0
  138.5311   73.9827  220.8095 H   0  0  0  0  0  0  0  0  0  0  0  0
  140.7437   76.2759  218.1836 H   0  0  0  0  0  0  0  0  0  0  0  0
  139.2579   75.9566  219.0490 H   0  0  0  0  0  0  0  0  0  0  0  0
  139.9060   78.4380  219.0874 H   0  0  0  0  0  0  0  0  0  0  0  0
  139.8477   77.7410  220.7447 H   0  0  0  0  0  0  0  0  0  0  0  0
  141.8510   79.1919  219.9657 H   0  0  0  0  0  0  0  0  0  0  0  0
  142.0709   77.6408  220.9482 H   0  0  0  0  0  0  0  0  0  0  0  0
  142.3129   77.6807  217.9963 H   0  0  0  0  0  0  0  0  0  0  0  0
  143.6819   78.1403  219.1787 H   0  0  0  0  0  0  0  0  0  0  0  0
  143.1204   75.7492  218.1002 H   0  0  0  0  0  0  0  0  0  0  0  0
  144.1784   76.2700  219.5733 H   0  0  0  0  0  0  0  0  0  0  0  0
  142.9052   75.4842  221.0037 H   0  0  0  0  0  0  0  0  0  0  0  0
  141.6303   73.4159  218.1263 H   0  0  0  0  0  0  0  0  0  0  0  0
  142.2993   71.0343  217.9915 H   0  0  0  0  0  0  0  0  0  0  0  0
  144.7657   71.5488  221.4595 H   0  0  0  0  0  0  0  0  0  0  0  0
  144.0981   73.9072  221.5820 H   0  0  0  0  0  0  0  0  0  0  0  0
  139.0770   69.0910  222.8751 H   0  0  0  0  0  0  0  0  0  0  0  0
  139.1456   67.8628  224.9971 H   0  0  0  0  0  0  0  0  0  0  0  0
  139.7194   67.9019  227.4094 H   0  0  0  0  0  0  0  0  0  0  0  0
  140.6196   69.1852  229.3444 H   0  0  0  0  0  0  0  0  0  0  0  0
  141.3777   71.5201  229.0862 H   0  0  0  0  0  0  0  0  0  0  0  0
  141.2444   72.6293  226.8538 H   0  0  0  0  0  0  0  0  0  0  0  0
  1  2  2  0
  2  3  1  0
  3  4  1  0
  4  5  1  0
  5  6  2  0
  5  7  1  0
  7  8  1  0
  8  9  1  0
  9 10  1  0
 10 11  1  0
 11 12  1  0
 12 13  1  0
 13 14  1  0
 14 15  2  0
 15 16  1  0
 16 17  2  0
 17 18  1  0
 17 19  1  0
 19 20  2  0
  2 21  1  0
 21 22  2  0
 22 23  1  0
 23 24  2  0
 24 25  1  0
 25 26  2  0
 26 27  1  0
 27 28  2  0
 28 29  1  0
 29 30  2  0
 13  7  1  0
 20 14  1  0
 30 21  1  0
 29 24  1  0
  3 31  1  0
  4 32  1  0
  4 33  1  0
  8 34  1  0
  8 35  1  0
  9 36  1  0
  9 37  1  0
 10 38  1  0
 10 39  1  0
 11 40  1  0
 11 41  1  0
 12 42  1  0
 12 43  1  0
 13 44  1  1
 15 45  1  0
 16 46  1  0
 19 47  1  0
 20 48  1  0
 22 49  1  0
 23 50  1  0
 25 51  1  0
 26 52  1  0
 27 53  1  0
 28 54  1  0
M  END
>  <smiles>  (14) 
O=C(NCC(=O)N1CCCCCC1c1ccc(Cl)cc1)c1ccc2ccccc2n1

>  <score_type>  (14) 
oracle

>  <origin>  (14) 
autodockgpu

>  <m_score__min__energy>  (14) 
-6.9900000000000002

>  <m_primary>  (14) 
energy

>  <rmsd>  (14) 
1.8611771692604342

>  <m_score__min__rmsd>  (14) 
1.8611771692604342

>  <meeko>  (14) 
{"free_energy": -5.8, "intermolecular_energy": -9.08, "internal_energy": -2.54, "cluster_size": 4, "cluster_id": 3, "rank_in_cluster": 3}

>  <energy>  (14) 
-6.75

>  <cluster_rmsd>  (14) 
0.0

>  <cluster>  (14) 
2

$$$$

     RDKit          3D

 54 57  0  0  0  0  0  0  0  0999 V2000
  140.0470   70.9040  221.1980 O   0  0  0  0  0  0  0  0  0  0  0  0
  139.8970   71.6140  222.2420 C   0  0  0  0  0  0  0  0  0  0  0  0
  139.6690   73.0040  222.1770 N   0  0  0  0  0  0  0  0  0  0  0  0
  139.5910   73.7210  220.9010 C   0  0  0  0  0  0  0  0  0  0  0  0
  140.3140   74.9840  221.0670 C   0  0  0  0  0  0  0  0  0  0  0  0
  140.2940   75.6820  222.1190 O   0  0  0  0  0  0  0  0  0  0  0  0
  141.0930   75.4720  219.9810 N   0  0  0  0  0  0  0  0  0  0  0  0
  140.3960   76.2560  218.9540 C   0  0  0  0  0  0  0  0  0  0  0  0
  140.4550   77.6790  219.5210 C   0  0  0  0  0  0  0  0  0  0  0  0
  141.8530   78.0400  219.8250 C   0  0  0  0  0  0  0  0  0  0  0  0
  142.8850   77.4730  218.9070 C   0  0  0  0  0  0  0  0  0  0  0  0
  143.2940   76.0970  219.0850 C   0  0  0  0  0  0  0  0  0  0  0  0
  142.5110   75.1750  219.9440 C   0  0  2  0  0  0  0  0  0  0  0  0
  142.8270   73.7410  219.8020 C   0  0  0  0  0  0  0  0  0  0  0  0
  142.1600   72.8710  218.9780 C   0  0  0  0  0  0  0  0  0  0  0  0
  142.5240   71.5350  218.9040 C   0  0  0  0  0  0  0  0  0  0  0  0
  143.5690   71.0610  219.6610 C   0  0  0  0  0  0  0  0  0  0  0  0
  144.0710   69.3900  219.6080 Cl  0  0  0  0  0  0  0  0  0  0  0  0
  144.2450   71.9320  220.4920 C   0  0  0  0  0  0  0  0  0  0  0  0
  143.8770   73.2480  220.5570 C   0  0  0  0  0  0  0  0  0  0  0  0
  139.9650   70.9630  223.5400 C   0  0  0  0  0  0  0  0  0  0  0  0
  139.5330   69.6700  223.7270 C   0  0  0  0  0  0  0  0  0  0  0  0
  139.5710   69.0060  224.9220 C   0  0  0  0  0  0  0  0  0  0  0  0
  140.0800   69.6900  226.0120 C   0  0  0  0  0  0  0  0  0  0  0  0
  140.1590   69.1090  227.2530 C   0  0  0  0  0  0  0  0  0  0  0  0
  140.6830   69.8620  228.3000 C   0  0  0  0  0  0  0  0  0  0  0  0
  141.1170   71.1590  228.1150 C   0  0  0  0  0  0  0  0  0  0  0  0
  141.0340   71.7390  226.8610 C   0  0  0  0  0  0  0  0  0  0  0  0
  140.5150   71.0000  225.8160 C   0  0  0  0  0  0  0  0  0  0  0  0
  140.4540   71.6030  224.6180 N   0  0  0  0  0  0  0  0  0  0  0  0
  139.5530   73.5360  223.0680 H   0  0  0  0  0  0  0  0  0  0  0  0
  140.0563   73.1227  220.1038 H   0  0  0  0  0  0  0  0  0  0  0  0
  138.5434   73.9055  220.6210 H   0  0  0  0  0  0  0  0  0  0  0  0
  140.9148   76.1925  217.9861 H   0  0  0  0  0  0  0  0  0  0  0  0
  139.3719   75.9060  218.7569 H   0  0  0  0  0  0  0  0  0  0  0  0
  140.0488   78.3839  218.7806 H   0  0  0  0  0  0  0  0  0  0  0  0
  139.8594   77.7262  220.4446 H   0  0  0  0  0  0  0  0  0  0  0  0
  141.9341   79.1364  219.7879 H   0  0  0  0  0  0  0  0  0  0  0  0
  142.0644   77.6089  220.8147 H   0  0  0  0  0  0  0  0  0  0  0  0
  142.4925   77.5640  217.8834 H   0  0  0  0  0  0  0  0  0  0  0  0
  143.7918   78.0522  219.1353 H   0  0  0  0  0  0  0  0  0  0  0  0
  143.3194   75.6454  218.0823 H   0  0  0  0  0  0  0  0  0  0  0  0
  144.2424   76.1942  219.6337 H   0  0  0  0  0  0  0  0  0  0  0  0
  142.8791   75.4017  220.9555 H   0  0  0  0  0  0  0  0  0  0  0  0
  141.3231   73.2388  218.3661 H   0  0  0  0  0  0  0  0  0  0  0  0
  141.9752   70.8529  218.2380 H   0  0  0  0  0  0  0  0  0  0  0  0
  145.0826   71.5664  221.1041 H   0  0  0  0  0  0  0  0  0  0  0  0
  144.4272   73.9287  221.2233 H   0  0  0  0  0  0  0  0  0  0  0  0
  139.1294   69.1336  222.8555 H   0  0  0  0  0  0  0  0  0  0  0  0
  139.2116   67.9704  225.0130 H   0  0  0  0  0  0  0  0  0  0  0  0
  139.8174   68.0761  227.4159 H   0  0  0  0  0  0  0  0  0  0  0  0
  140.7530   69.4115  229.3011 H   0  0  0  0  0  0  0  0  0  0  0  0
  141.5274   71.7297  228.9611 H   0  0  0  0  0  0  0  0  0  0  0  0
  141.3759   72.7719  226.6993 H   0  0  0  0  0  0  0  0  0  0  0  0
  1  2  2  0
  2  3  1  0
  3  4  1  0
  4  5  1  0
  5  6  2  0
  5  7  1  0
  7  8  1  0
  8  9  1  0
  9 10  1  0
 10 11  1  0
 11 12  1  0
 12 13  1  0
 13 14  1  0
 14 15  2  0
 15 16  1  0
 16 17  2  0
 17 18  1  0
 17 19  1  0
 19 20  2  0
  2 21  1  0
 21 22  2  0
 22 23  1  0
 23 24  2  0
 24 25  1  0
 25 26  2  0
 26 27  1  0
 27 28  2  0
 28 29  1  0
 29 30  2  0
 13  7  1  0
 20 14  1  0
 30 21  1  0
 29 24  1  0
  3 31  1  0
  4 32  1  0
  4 33  1  0
  8 34  1  0
  8 35  1  0
  9 36  1  0
  9 37  1  0
 10 38  1  0
 10 39  1  0
 11 40  1  0
 11 41  1  0
 12 42  1  0
 12 43  1  0
 13 44  1  1
 15 45  1  0
 16 46  1  0
 19 47  1  0
 20 48  1  0
 22 49  1  0
 23 50  1  0
 25 51  1  0
 26 52  1  0
 27 53  1  0
 28 54  1  0
M  END
>  <smiles>  (15) 
O=C(NCC(=O)N1CCCCCC1c1ccc(Cl)cc1)c1ccc2ccccc2n1

>  <score_type>  (15) 
oracle

>  <origin>  (15) 
autodockgpu

>  <m_score__min__energy>  (15) 
-6.9900000000000002

>  <m_primary>  (15) 
energy

>  <rmsd>  (15) 
1.880640903410395

>  <m_score__min__rmsd>  (15) 
1.880640903410395

>  <meeko>  (15) 
{"free_energy": -5.85, "intermolecular_energy": -9.13, "internal_energy": -2.5, "cluster_size": 4, "cluster_id": 3, "rank_in_cluster": 2}

>  <energy>  (15) 
-6.56

>  <cluster_rmsd>  (15) 
0.32

>  <cluster>  (15) 
2

$$$$

     RDKit          3D

 54 57  0  0  0  0  0  0  0  0999 V2000
  140.6430   71.0810  221.7220 O   0  0  0  0  0  0  0  0  0  0  0  0
  140.2700   71.7550  222.7350 C   0  0  0  0  0  0  0  0  0  0  0  0
  139.8050   73.0810  222.6240 N   0  0  0  0  0  0  0  0  0  0  0  0
  139.7210   73.7710  221.3330 C   0  0  0  0  0  0  0  0  0  0  0  0
  140.1430   75.1570  221.5530 C   0  0  0  0  0  0  0  0  0  0  0  0
  139.6240   75.9320  222.4040 O   0  0  0  0  0  0  0  0  0  0  0  0
  141.2060   75.6790  220.7650 N   0  0  0  0  0  0  0  0  0  0  0  0
  142.3990   74.8380  220.6060 C   0  0  0  0  0  0  0  0  0  0  0  0
  142.0670   74.0190  219.3530 C   0  0  0  0  0  0  0  0  0  0  0  0
  142.4130   74.7910  218.1440 C   0  0  0  0  0  0  0  0  0  0  0  0
  141.5780   75.9940  217.8810 C   0  0  0  0  0  0  0  0  0  0  0  0
  141.6450   77.1020  218.8090 C   0  0  0  0  0  0  0  0  0  0  0  0
  141.0600   76.9920  220.1690 C   0  0  2  0  0  0  0  0  0  0  0  0
  141.3530   78.1100  221.0850 C   0  0  0  0  0  0  0  0  0  0  0  0
  141.5940   79.4010  220.6920 C   0  0  0  0  0  0  0  0  0  0  0  0
  141.8600   80.3950  221.6230 C   0  0  0  0  0  0  0  0  0  0  0  0
  141.8870   80.0960  222.9640 C   0  0  0  0  0  0  0  0  0  0  0  0
  142.2180   81.3040  224.1790 Cl  0  0  0  0  0  0  0  0  0  0  0  0
  141.6460   78.7970  223.3660 C   0  0  0  0  0  0  0  0  0  0  0  0
  141.3840   77.8250  222.4390 C   0  0  0  0  0  0  0  0  0  0  0  0
  140.3290   71.1270  224.0440 C   0  0  0  0  0  0  0  0  0  0  0  0
  140.8340   71.7840  225.1430 C   0  0  0  0  0  0  0  0  0  0  0  0
  140.9160   71.2470  226.3980 C   0  0  0  0  0  0  0  0  0  0  0  0
  140.4570   69.9520  226.5640 C   0  0  0  0  0  0  0  0  0  0  0  0
  140.4980   69.3260  227.7850 C   0  0  0  0  0  0  0  0  0  0  0  0
  140.0180   68.0220  227.8720 C   0  0  0  0  0  0  0  0  0  0  0  0
  139.5110   67.3600  226.7720 C   0  0  0  0  0  0  0  0  0  0  0  0
  139.4740   67.9980  225.5440 C   0  0  0  0  0  0  0  0  0  0  0  0
  139.9480   69.2920  225.4470 C   0  0  0  0  0  0  0  0  0  0  0  0
  139.8920   69.8690  224.2370 N   0  0  0  0  0  0  0  0  0  0  0  0
  139.5120   73.5840  223.4900 H   0  0  0  0  0  0  0  0  0  0  0  0
  140.3857   73.2862  220.6028 H   0  0  0  0  0  0  0  0  0  0  0  0
  138.6955   73.7337  220.9368 H   0  0  0  0  0  0  0  0  0  0  0  0
  143.2993   75.4511  220.4525 H   0  0  0  0  0  0  0  0  0  0  0  0
  142.6179   74.2184  221.4881 H   0  0  0  0  0  0  0  0  0  0  0  0
  142.6439   73.0825  219.3656 H   0  0  0  0  0  0  0  0  0  0  0  0
  140.9908   73.7918  219.3427 H   0  0  0  0  0  0  0  0  0  0  0  0
  143.4579   75.1206  218.2420 H   0  0  0  0  0  0  0  0  0  0  0  0
  142.2344   74.1131  217.2963 H   0  0  0  0  0  0  0  0  0  0  0  0
  141.8692   76.3807  216.8933 H   0  0  0  0  0  0  0  0  0  0  0  0
  140.5449   75.6282  217.9755 H   0  0  0  0  0  0  0  0  0  0  0  0
  142.7118   77.3335  218.9444 H   0  0  0  0  0  0  0  0  0  0  0  0
  141.0076   77.8598  218.3301 H   0  0  0  0  0  0  0  0  0  0  0  0
  139.9811   77.1067  219.9881 H   0  0  0  0  0  0  0  0  0  0  0  0
  141.5762   79.6530  219.6214 H   0  0  0  0  0  0  0  0  0  0  0  0
  142.0498   81.4250  221.2867 H   0  0  0  0  0  0  0  0  0  0  0  0
  141.6647   78.5425  224.4360 H   0  0  0  0  0  0  0  0  0  0  0  0
  141.1941   76.7956  222.7771 H   0  0  0  0  0  0  0  0  0  0  0  0
  141.1970   72.8128  225.0020 H   0  0  0  0  0  0  0  0  0  0  0  0
  141.3296   71.8206  227.2406 H   0  0  0  0  0  0  0  0  0  0  0  0
  140.8992   69.8406  228.6706 H   0  0  0  0  0  0  0  0  0  0  0  0
  140.0435   67.5057  228.8429 H   0  0  0  0  0  0  0  0  0  0  0  0
  139.1380   66.3299  226.8707 H   0  0  0  0  0  0  0  0  0  0  0  0
  139.0732   67.4824  224.6588 H   0  0  0  0  0  0  0  0  0  0  0  0
  1  2  2  0
  2  3  1  0
  3  4  1  0
  4  5  1  0
  5  6  2  0
  5  7  1  0
  7  8  1  0
  8  9  1  0
  9 10  1  0
 10 11  1  0
 11 12  1  0
 12 13  1  0
 13 14  1  0
 14 15  2  0
 15 16  1  0
 16 17  2  0
 17 18  1  0
 17 19  1  0
 19 20  2  0
  2 21  1  0
 21 22  2  0
 22 23  1  0
 23 24  2  0
 24 25  1  0
 25 26  2  0
 26 27  1  0
 27 28  2  0
 28 29  1  0
 29 30  2  0
 13  7  1  0
 20 14  1  0
 30 21  1  0
 29 24  1  0
  3 31  1  0
  4 32  1  0
  4 33  1  0
  8 34  1  0
  8 35  1  0
  9 36  1  0
  9 37  1  0
 10 38  1  0
 10 39  1  0
 11 40  1  0
 11 41  1  0
 12 42  1  0
 12 43  1  0
 13 44  1  6
 15 45  1  0
 16 46  1  0
 19 47  1  0
 20 48  1  0
 22 49  1  0
 23 50  1  0
 25 51  1  0
 26 52  1  0
 27 53  1  0
 28 54  1  0
M  END
>  <smiles>  (16) 
O=C(NCC(=O)N1CCCCCC1c1ccc(Cl)cc1)c1ccc2ccccc2n1

>  <score_type>  (16) 
oracle

>  <origin>  (16) 
autodockgpu

>  <m_score__min__energy>  (16) 
-6.9900000000000002

>  <m_primary>  (16) 
energy

>  <rmsd>  (16) 
2.996940151742578

>  <m_score__min__rmsd>  (16) 
2.996940151742578

>  <meeko>  (16) 
{"free_energy": -6.84, "intermolecular_energy": -10.12, "internal_energy": -1.31, "cluster_size": 13, "cluster_id": 1, "rank_in_cluster": 2}

>  <energy>  (16) 
-6.1

>  <cluster_rmsd>  (16) 
1.23

>  <cluster>  (16) 
2

$$$$

     RDKit          3D

 54 57  0  0  0  0  0  0  0  0999 V2000
  138.9510   75.2570  221.7660 O   0  0  0  0  0  0  0  0  0  0  0  0
  140.1110   75.7440  221.9550 C   0  0  0  0  0  0  0  0  0  0  0  0
  141.2810   74.9700  221.8160 N   0  0  0  0  0  0  0  0  0  0  0  0
  141.2360   73.5530  221.4440 C   0  0  0  0  0  0  0  0  0  0  0  0
  141.3590   73.4820  219.9860 C   0  0  0  0  0  0  0  0  0  0  0  0
  140.4210   73.7400  219.1800 O   0  0  0  0  0  0  0  0  0  0  0  0
  142.6090   73.1000  219.4240 N   0  0  0  0  0  0  0  0  0  0  0  0
  142.7920   71.6800  219.0990 C   0  0  0  0  0  0  0  0  0  0  0  0
  143.8360   71.2320  220.1270 C   0  0  0  0  0  0  0  0  0  0  0  0
  145.1900   71.5620  219.6420 C   0  0  0  0  0  0  0  0  0  0  0  0
  145.7170   72.9080  220.0100 C   0  0  0  0  0  0  0  0  0  0  0  0
  144.7840   74.0080  220.1190 C   0  0  0  0  0  0  0  0  0  0  0  0
  143.6210   74.1140  219.2040 C   0  0  2  0  0  0  0  0  0  0  0  0
  143.0840   75.4730  219.0030 C   0  0  0  0  0  0  0  0  0  0  0  0
  142.9690   76.4220  219.9860 C   0  0  0  0  0  0  0  0  0  0  0  0
  142.4520   77.6790  219.7090 C   0  0  0  0  0  0  0  0  0  0  0  0
  142.0460   77.9940  218.4340 C   0  0  0  0  0  0  0  0  0  0  0  0
  141.3890   79.5590  218.0290 Cl  0  0  0  0  0  0  0  0  0  0  0  0
  142.1600   77.0420  217.4400 C   0  0  0  0  0  0  0  0  0  0  0  0
  142.6700   75.8060  217.7250 C   0  0  0  0  0  0  0  0  0  0  0  0
  140.2230   77.1440  222.3270 C   0  0  0  0  0  0  0  0  0  0  0  0
  139.1150   77.9470  222.4780 C   0  0  0  0  0  0  0  0  0  0  0  0
  139.1580   79.2690  222.8250 C   0  0  0  0  0  0  0  0  0  0  0  0
  140.4050   79.8300  223.0370 C   0  0  0  0  0  0  0  0  0  0  0  0
  140.5520   81.1480  223.3880 C   0  0  0  0  0  0  0  0  0  0  0  0
  141.8390   81.6390  223.5820 C   0  0  0  0  0  0  0  0  0  0  0  0
  142.9520   80.8370  223.4310 C   0  0  0  0  0  0  0  0  0  0  0  0
  142.7970   79.5070  223.0760 C   0  0  0  0  0  0  0  0  0  0  0  0
  141.5230   79.0120  222.8810 C   0  0  0  0  0  0  0  0  0  0  0  0
  141.4220   77.7180  222.5380 N   0  0  0  0  0  0  0  0  0  0  0  0
  142.2050   75.4240  221.9840 H   0  0  0  0  0  0  0  0  0  0  0  0
  142.0680   73.0124  221.9189 H   0  0  0  0  0  0  0  0  0  0  0  0
  140.2950   73.0919  221.7787 H   0  0  0  0  0  0  0  0  0  0  0  0
  141.8521   71.1212  219.2186 H   0  0  0  0  0  0  0  0  0  0  0  0
  143.1017   71.5065  218.0578 H   0  0  0  0  0  0  0  0  0  0  0  0
  143.6540   71.7486  221.0810 H   0  0  0  0  0  0  0  0  0  0  0  0
  143.7580   70.1445  220.2731 H   0  0  0  0  0  0  0  0  0  0  0  0
  145.8829   70.8094  220.0463 H   0  0  0  0  0  0  0  0  0  0  0  0
  145.1136   71.5683  218.5447 H   0  0  0  0  0  0  0  0  0  0  0  0
  146.2146   72.8063  220.9857 H   0  0  0  0  0  0  0  0  0  0  0  0
  146.3626   73.1852  219.1636 H   0  0  0  0  0  0  0  0  0  0  0  0
  144.3769   73.9734  221.1403 H   0  0  0  0  0  0  0  0  0  0  0  0
  145.3971   74.8758  219.8343 H   0  0  0  0  0  0  0  0  0  0  0  0
  144.0541   73.8801  218.2203 H   0  0  0  0  0  0  0  0  0  0  0  0
  143.2917   76.1828  221.0100 H   0  0  0  0  0  0  0  0  0  0  0  0
  142.3666   78.4260  220.5120 H   0  0  0  0  0  0  0  0  0  0  0  0
  141.8392   77.2792  216.4149 H   0  0  0  0  0  0  0  0  0  0  0  0
  142.7531   75.0599  216.9210 H   0  0  0  0  0  0  0  0  0  0  0  0
  138.1272   77.4940  222.3078 H   0  0  0  0  0  0  0  0  0  0  0  0
  138.2381   79.8627  222.9313 H   0  0  0  0  0  0  0  0  0  0  0  0
  139.6747   81.7998  223.5128 H   0  0  0  0  0  0  0  0  0  0  0  0
  141.9731   82.6940  223.8631 H   0  0  0  0  0  0  0  0  0  0  0  0
  143.9579   81.2521  223.5919 H   0  0  0  0  0  0  0  0  0  0  0  0
  143.6748   78.8558  222.9515 H   0  0  0  0  0  0  0  0  0  0  0  0
  1  2  2  0
  2  3  1  0
  3  4  1  0
  4  5  1  0
  5  6  2  0
  5  7  1  0
  7  8  1  0
  8  9  1  0
  9 10  1  0
 10 11  1  0
 11 12  1  0
 12 13  1  0
 13 14  1  0
 14 15  2  0
 15 16  1  0
 16 17  2  0
 17 18  1  0
 17 19  1  0
 19 20  2  0
  2 21  1  0
 21 22  2  0
 22 23  1  0
 23 24  2  0
 24 25  1  0
 25 26  2  0
 26 27  1  0
 27 28  2  0
 28 29  1  0
 29 30  2  0
 13  7  1  0
 20 14  1  0
 30 21  1  0
 29 24  1  0
  3 31  1  0
  4 32  1  0
  4 33  1  0
  8 34  1  0
  8 35  1  0
  9 36  1  0
  9 37  1  0
 10 38  1  0
 10 39  1  0
 11 40  1  0
 11 41  1  0
 12 42  1  0
 12 43  1  0
 13 44  1  6
 15 45  1  0
 16 46  1  0
 19 47  1  0
 20 48  1  0
 22 49  1  0
 23 50  1  0
 25 51  1  0
 26 52  1  0
 27 53  1  0
 28 54  1  0
M  END
>  <smiles>  (17) 
O=C(NCC(=O)N1CCCCCC1c1ccc(Cl)cc1)c1ccc2ccccc2n1

>  <score_type>  (17) 
oracle

>  <origin>  (17) 
autodockgpu

>  <m_score__min__energy>  (17) 
-6.9900000000000002

>  <m_primary>  (17) 
energy

>  <rmsd>  (17) 
7.656386350680285

>  <m_score__min__rmsd>  (17) 
7.656386350680285

>  <meeko>  (17) 
{"free_energy": -5.24, "intermolecular_energy": -8.53, "internal_energy": -2.85, "cluster_size": 12, "cluster_id": 6, "rank_in_cluster": 8}

>  <energy>  (17) 
-6.39

>  <cluster_rmsd>  (17) 
0.0

>  <cluster>  (17) 
3

$$$$

     RDKit          3D

 54 57  0  0  0  0  0  0  0  0999 V2000
  140.9990   77.1630  217.6990 O   0  0  0  0  0  0  0  0  0  0  0  0
  142.0930   77.1930  218.3460 C   0  0  0  0  0  0  0  0  0  0  0  0
  142.6410   78.3960  218.8380 N   0  0  0  0  0  0  0  0  0  0  0  0
  141.9830   79.6900  218.6360 C   0  0  0  0  0  0  0  0  0  0  0  0
  140.7660   79.6910  219.4520 C   0  0  0  0  0  0  0  0  0  0  0  0
  139.5940   79.6980  218.9810 O   0  0  0  0  0  0  0  0  0  0  0  0
  140.8940   79.6850  220.8690 N   0  0  0  0  0  0  0  0  0  0  0  0
  142.1020   80.2990  221.4350 C   0  0  0  0  0  0  0  0  0  0  0  0
  142.5400   79.2710  222.4850 C   0  0  0  0  0  0  0  0  0  0  0  0
  141.9280   79.5930  223.7880 C   0  0  0  0  0  0  0  0  0  0  0  0
  140.6360   80.3390  223.7390 C   0  0  0  0  0  0  0  0  0  0  0  0
  139.5610   79.8090  222.9290 C   0  0  0  0  0  0  0  0  0  0  0  0
  139.8460   79.0830  221.6670 C   0  0  2  0  0  0  0  0  0  0  0  0
  139.9340   77.6140  221.7780 C   0  0  0  0  0  0  0  0  0  0  0  0
  138.9480   76.8070  222.2840 C   0  0  0  0  0  0  0  0  0  0  0  0
  139.1140   75.4320  222.3510 C   0  0  0  0  0  0  0  0  0  0  0  0
  140.2790   74.8540  221.9060 C   0  0  0  0  0  0  0  0  0  0  0  0
  140.5430   73.1300  221.9670 Cl  0  0  0  0  0  0  0  0  0  0  0  0
  141.2770   75.6620  221.3960 C   0  0  0  0  0  0  0  0  0  0  0  0
  141.1020   77.0170  221.3350 C   0  0  0  0  0  0  0  0  0  0  0  0
  142.7950   75.9430  218.5800 C   0  0  0  0  0  0  0  0  0  0  0  0
  142.5480   74.8180  217.8260 C   0  0  0  0  0  0  0  0  0  0  0  0
  143.1750   73.6150  218.0000 C   0  0  0  0  0  0  0  0  0  0  0  0
  144.1220   73.5330  219.0050 C   0  0  0  0  0  0  0  0  0  0  0  0
  144.8050   72.3690  219.2570 C   0  0  0  0  0  0  0  0  0  0  0  0
  145.7420   72.3650  220.2850 C   0  0  0  0  0  0  0  0  0  0  0  0
  145.9930   73.4910  221.0430 C   0  0  0  0  0  0  0  0  0  0  0  0
  145.3000   74.6620  220.7840 C   0  0  0  0  0  0  0  0  0  0  0  0
  144.3680   74.6750  219.7650 C   0  0  0  0  0  0  0  0  0  0  0  0
  143.7210   75.8320  219.5510 N   0  0  0  0  0  0  0  0  0  0  0  0
  143.5420   78.3590  219.3620 H   0  0  0  0  0  0  0  0  0  0  0  0
  142.6499   80.5052  218.9534 H   0  0  0  0  0  0  0  0  0  0  0  0
  141.7404   79.8424  217.5740 H   0  0  0  0  0  0  0  0  0  0  0  0
  142.8761   80.4349  220.6654 H   0  0  0  0  0  0  0  0  0  0  0  0
  141.9286   81.3024  221.8512 H   0  0  0  0  0  0  0  0  0  0  0  0
  142.2189   78.2674  222.1692 H   0  0  0  0  0  0  0  0  0  0  0  0
  143.6353   79.2971  222.5828 H   0  0  0  0  0  0  0  0  0  0  0  0
  141.7498   78.6463  224.3190 H   0  0  0  0  0  0  0  0  0  0  0  0
  142.6389   80.2651  224.2909 H   0  0  0  0  0  0  0  0  0  0  0  0
  140.2614   80.4068  224.7710 H   0  0  0  0  0  0  0  0  0  0  0  0
  140.8942   81.2912  223.2525 H   0  0  0  0  0  0  0  0  0  0  0  0
  138.9987   79.1142  223.5702 H   0  0  0  0  0  0  0  0  0  0  0  0
  139.0505   80.7176  222.5772 H   0  0  0  0  0  0  0  0  0  0  0  0
  138.9247   79.2238  221.0828 H   0  0  0  0  0  0  0  0  0  0  0  0
  138.0106   77.2573  222.6424 H   0  0  0  0  0  0  0  0  0  0  0  0
  138.3111   74.8020  222.7614 H   0  0  0  0  0  0  0  0  0  0  0  0
  142.2155   75.2139  221.0378 H   0  0  0  0  0  0  0  0  0  0  0  0
  141.9062   77.6458  220.9253 H   0  0  0  0  0  0  0  0  0  0  0  0
  141.7942   74.8917  217.0283 H   0  0  0  0  0  0  0  0  0  0  0  0
  142.9360   72.7480  217.3666 H   0  0  0  0  0  0  0  0  0  0  0  0
  144.6162   71.4635  218.6617 H   0  0  0  0  0  0  0  0  0  0  0  0
  146.2976   71.4402  220.4996 H   0  0  0  0  0  0  0  0  0  0  0  0
  146.7403   73.4585  221.8495 H   0  0  0  0  0  0  0  0  0  0  0  0
  145.4890   75.5669  221.3803 H   0  0  0  0  0  0  0  0  0  0  0  0
  1  2  2  0
  2  3  1  0
  3  4  1  0
  4  5  1  0
  5  6  2  0
  5  7  1  0
  7  8  1  0
  8  9  1  0
  9 10  1  0
 10 11  1  0
 11 12  1  0
 12 13  1  0
 13 14  1  0
 14 15  2  0
 15 16  1  0
 16 17  2  0
 17 18  1  0
 17 19  1  0
 19 20  2  0
  2 21  1  0
 21 22  2  0
 22 23  1  0
 23 24  2  0
 24 25  1  0
 25 26  2  0
 26 27  1  0
 27 28  2  0
 28 29  1  0
 29 30  2  0
 13  7  1  0
 20 14  1  0
 30 21  1  0
 29 24  1  0
  3 31  1  0
  4 32  1  0
  4 33  1  0
  8 34  1  0
  8 35  1  0
  9 36  1  0
  9 37  1  0
 10 38  1  0
 10 39  1  0
 11 40  1  0
 11 41  1  0
 12 42  1  0
 12 43  1  0
 13 44  1  6
 15 45  1  0
 16 46  1  0
 19 47  1  0
 20 48  1  0
 22 49  1  0
 23 50  1  0
 25 51  1  0
 26 52  1  0
 27 53  1  0
 28 54  1  0
M  END
>  <smiles>  (18) 
O=C(NCC(=O)N1CCCCCC1c1ccc(Cl)cc1)c1ccc2ccccc2n1

>  <score_type>  (18) 
oracle

>  <origin>  (18) 
autodockgpu

>  <m_score__min__energy>  (18) 
-6.9900000000000002

>  <m_primary>  (18) 
energy

>  <rmsd>  (18) 
7.578340296423067

>  <m_score__min__rmsd>  (18) 
7.578340296423067

>  <meeko>  (18) 
{"free_energy": -5.15, "intermolecular_energy": -8.43, "internal_energy": -2.84, "cluster_size": 5, "cluster_id": 11, "rank_in_cluster": 1}

>  <energy>  (18) 
-5.85

>  <cluster_rmsd>  (18) 
0.87

>  <cluster>  (18) 
3

$$$$

     RDKit          3D

 54 57  0  0  0  0  0  0  0  0999 V2000
  139.1190   73.2310  222.1030 O   0  0  0  0  0  0  0  0  0  0  0  0
  140.0960   72.4540  222.3490 C   0  0  0  0  0  0  0  0  0  0  0  0
  141.2490   72.4190  221.5380 N   0  0  0  0  0  0  0  0  0  0  0  0
  141.3960   73.2750  220.3570 C   0  0  0  0  0  0  0  0  0  0  0  0
  142.5140   74.1860  220.6180 C   0  0  0  0  0  0  0  0  0  0  0  0
  143.6700   73.8130  220.9630 O   0  0  0  0  0  0  0  0  0  0  0  0
  142.3000   75.5860  220.4790 N   0  0  0  0  0  0  0  0  0  0  0  0
  143.3080   76.3470  219.7310 C   0  0  0  0  0  0  0  0  0  0  0  0
  142.5110   76.8660  218.5280 C   0  0  0  0  0  0  0  0  0  0  0  0
  141.4570   75.8980  218.1700 C   0  0  0  0  0  0  0  0  0  0  0  0
  140.1030   76.1790  218.7360 C   0  0  0  0  0  0  0  0  0  0  0  0
  139.9400   76.1980  220.1730 C   0  0  0  0  0  0  0  0  0  0  0  0
  141.1190   76.1790  221.0730 C   0  0  2  0  0  0  0  0  0  0  0  0
  141.3760   77.4250  221.8200 C   0  0  0  0  0  0  0  0  0  0  0  0
  141.4220   77.5220  223.1870 C   0  0  0  0  0  0  0  0  0  0  0  0
  141.6710   78.7370  223.8090 C   0  0  0  0  0  0  0  0  0  0  0  0
  141.8780   79.8690  223.0580 C   0  0  0  0  0  0  0  0  0  0  0  0
  142.1950   81.4230  223.7870 Cl  0  0  0  0  0  0  0  0  0  0  0  0
  141.8320   79.7770  221.6810 C   0  0  0  0  0  0  0  0  0  0  0  0
  141.5850   78.5750  221.0780 C   0  0  0  0  0  0  0  0  0  0  0  0
  140.0110   71.5790  223.5050 C   0  0  0  0  0  0  0  0  0  0  0  0
  139.3720   70.3610  223.4500 C   0  0  0  0  0  0  0  0  0  0  0  0
  139.2600   69.4950  224.5030 C   0  0  0  0  0  0  0  0  0  0  0  0
  139.8310   69.8800  225.7030 C   0  0  0  0  0  0  0  0  0  0  0  0
  139.7710   69.0810  226.8180 C   0  0  0  0  0  0  0  0  0  0  0  0
  140.3690   69.5380  227.9880 C   0  0  0  0  0  0  0  0  0  0  0  0
  141.0110   70.7580  228.0470 C   0  0  0  0  0  0  0  0  0  0  0  0
  141.0680   71.5590  226.9190 C   0  0  0  0  0  0  0  0  0  0  0  0
  140.4770   71.1150  225.7530 C   0  0  0  0  0  0  0  0  0  0  0  0
  140.5560   71.9260  224.6860 N   0  0  0  0  0  0  0  0  0  0  0  0
  142.0190   71.7610  221.7890 H   0  0  0  0  0  0  0  0  0  0  0  0
  141.6100   72.6602  219.4703 H   0  0  0  0  0  0  0  0  0  0  0  0
  140.4705   73.8378  220.1652 H   0  0  0  0  0  0  0  0  0  0  0  0
  143.7052   77.1779  220.3325 H   0  0  0  0  0  0  0  0  0  0  0  0
  144.1868   75.7488  219.4483 H   0  0  0  0  0  0  0  0  0  0  0  0
  142.0487   77.8304  218.7852 H   0  0  0  0  0  0  0  0  0  0  0  0
  143.1897   76.9961  217.6722 H   0  0  0  0  0  0  0  0  0  0  0  0
  141.3691   75.8835  217.0736 H   0  0  0  0  0  0  0  0  0  0  0  0
  141.7710   74.9372  218.6038 H   0  0  0  0  0  0  0  0  0  0  0  0
  139.7947   77.1666  218.3623 H   0  0  0  0  0  0  0  0  0  0  0  0
  139.4948   75.3223  218.4100 H   0  0  0  0  0  0  0  0  0  0  0  0
  139.3776   77.1125  220.4125 H   0  0  0  0  0  0  0  0  0  0  0  0
  139.4628   75.2280  220.3766 H   0  0  0  0  0  0  0  0  0  0  0  0
  140.8161   75.4813  221.8677 H   0  0  0  0  0  0  0  0  0  0  0  0
  141.2590   76.6231  223.7997 H   0  0  0  0  0  0  0  0  0  0  0  0
  141.7028   78.7943  224.9071 H   0  0  0  0  0  0  0  0  0  0  0  0
  141.9948   80.6747  221.0665 H   0  0  0  0  0  0  0  0  0  0  0  0
  141.5516   78.5205  219.9799 H   0  0  0  0  0  0  0  0  0  0  0  0
  138.9199   70.0633  222.4924 H   0  0  0  0  0  0  0  0  0  0  0  0
  138.7376   68.5325  224.4000 H   0  0  0  0  0  0  0  0  0  0  0  0
  139.2636   68.1055  226.7870 H   0  0  0  0  0  0  0  0  0  0  0  0
  140.3290   68.9100  228.8902 H   0  0  0  0  0  0  0  0  0  0  0  0
  141.4756   71.0928  228.9862 H   0  0  0  0  0  0  0  0  0  0  0  0
  141.5763   72.5340  226.9514 H   0  0  0  0  0  0  0  0  0  0  0  0
  1  2  2  0
  2  3  1  0
  3  4  1  0
  4  5  1  0
  5  6  2  0
  5  7  1  0
  7  8  1  0
  8  9  1  0
  9 10  1  0
 10 11  1  0
 11 12  1  0
 12 13  1  0
 13 14  1  0
 14 15  2  0
 15 16  1  0
 16 17  2  0
 17 18  1  0
 17 19  1  0
 19 20  2  0
  2 21  1  0
 21 22  2  0
 22 23  1  0
 23 24  2  0
 24 25  1  0
 25 26  2  0
 26 27  1  0
 27 28  2  0
 28 29  1  0
 29 30  2  0
 13  7  1  0
 20 14  1  0
 30 21  1  0
 29 24  1  0
  3 31  1  0
  4 32  1  0
  4 33  1  0
  8 34  1  0
  8 35  1  0
  9 36  1  0
  9 37  1  0
 10 38  1  0
 10 39  1  0
 11 40  1  0
 11 41  1  0
 12 42  1  0
 12 43  1  0
 13 44  1  1
 15 45  1  0
 16 46  1  0
 19 47  1  0
 20 48  1  0
 22 49  1  0
 23 50  1  0
 25 51  1  0
 26 52  1  0
 27 53  1  0
 28 54  1  0
M  END
>  <smiles>  (19) 
O=C(NCC(=O)N1CCCCCC1c1ccc(Cl)cc1)c1ccc2ccccc2n1

>  <score_type>  (19) 
oracle

>  <origin>  (19) 
autodockgpu

>  <m_score__min__energy>  (19) 
-6.9900000000000002

>  <m_primary>  (19) 
energy

>  <rmsd>  (19) 
2.5656922015180488

>  <m_score__min__rmsd>  (19) 
2.5656922015180488

>  <meeko>  (19) 
{"free_energy": -5.91, "intermolecular_energy": -9.2, "internal_energy": -1.73, "cluster_size": 13, "cluster_id": 1, "rank_in_cluster": 12}

>  <energy>  (19) 
-5.8

>  <cluster_rmsd>  (19) 
0.85

>  <cluster>  (19) 
3

$$$$

     RDKit          3D

 54 57  0  0  0  0  0  0  0  0999 V2000
  140.2460   71.0630  221.3290 O   0  0  0  0  0  0  0  0  0  0  0  0
  139.9070   71.6820  222.3870 C   0  0  0  0  0  0  0  0  0  0  0  0
  139.5170   73.0370  222.3710 N   0  0  0  0  0  0  0  0  0  0  0  0
  139.4790   73.8210  221.1330 C   0  0  0  0  0  0  0  0  0  0  0  0
  140.4670   74.8950  221.2670 C   0  0  0  0  0  0  0  0  0  0  0  0
  140.6990   75.5160  222.3410 O   0  0  0  0  0  0  0  0  0  0  0  0
  141.2220   75.2740  220.1220 N   0  0  0  0  0  0  0  0  0  0  0  0
  141.8510   74.1980  219.3470 C   0  0  0  0  0  0  0  0  0  0  0  0
  143.1330   73.9190  220.1400 C   0  0  0  0  0  0  0  0  0  0  0  0
  144.0490   75.0700  220.0320 C   0  0  0  0  0  0  0  0  0  0  0  0
  143.6910   76.1040  219.0180 C   0  0  0  0  0  0  0  0  0  0  0  0
  142.6900   77.0910  219.3600 C   0  0  0  0  0  0  0  0  0  0  0  0
  141.3300   76.6790  219.7860 C   0  0  2  0  0  0  0  0  0  0  0  0
  140.6530   77.5840  220.7340 C   0  0  0  0  0  0  0  0  0  0  0  0
  139.2980   77.7910  220.7860 C   0  0  0  0  0  0  0  0  0  0  0  0
  138.7430   78.6610  221.7120 C   0  0  0  0  0  0  0  0  0  0  0  0
  139.5500   79.3330  222.5990 C   0  0  0  0  0  0  0  0  0  0  0  0
  138.9060   80.4400  223.7860 Cl  0  0  0  0  0  0  0  0  0  0  0  0
  140.9150   79.1290  222.5510 C   0  0  0  0  0  0  0  0  0  0  0  0
  141.4510   78.2690  221.6330 C   0  0  0  0  0  0  0  0  0  0  0  0
  139.9240   70.9610  223.6490 C   0  0  0  0  0  0  0  0  0  0  0  0
  139.4680   69.6670  223.7530 C   0  0  0  0  0  0  0  0  0  0  0  0
  139.4590   68.9380  224.9100 C   0  0  0  0  0  0  0  0  0  0  0  0
  139.9440   69.5540  226.0510 C   0  0  0  0  0  0  0  0  0  0  0  0
  139.9760   68.9060  227.2600 C   0  0  0  0  0  0  0  0  0  0  0  0
  140.4780   69.5930  228.3610 C   0  0  0  0  0  0  0  0  0  0  0  0
  140.9370   70.8900  228.2610 C   0  0  0  0  0  0  0  0  0  0  0  0
  140.9020   71.5380  227.0380 C   0  0  0  0  0  0  0  0  0  0  0  0
  140.4050   70.8650  225.9390 C   0  0  0  0  0  0  0  0  0  0  0  0
  140.3890   71.5340  224.7750 N   0  0  0  0  0  0  0  0  0  0  0  0
  139.2500   73.4930  223.2710 H   0  0  0  0  0  0  0  0  0  0  0  0
  139.7322   73.1815  220.2745 H   0  0  0  0  0  0  0  0  0  0  0  0
  138.4739   74.2351  220.9649 H   0  0  0  0  0  0  0  0  0  0  0  0
  141.2064   73.3075  219.3084 H   0  0  0  0  0  0  0  0  0  0  0  0
  142.0364   74.4667  218.2966 H   0  0  0  0  0  0  0  0  0  0  0  0
  142.8792   73.7525  221.1973 H   0  0  0  0  0  0  0  0  0  0  0  0
  143.6250   73.0242  219.7310 H   0  0  0  0  0  0  0  0  0  0  0  0
  144.0863   75.5626  221.0148 H   0  0  0  0  0  0  0  0  0  0  0  0
  145.0099   74.6511  219.6986 H   0  0  0  0  0  0  0  0  0  0  0  0
  144.6137   76.6497  218.7715 H   0  0  0  0  0  0  0  0  0  0  0  0
  143.2331   75.5298  218.1991 H   0  0  0  0  0  0  0  0  0  0  0  0
  143.1083   77.6897  220.1826 H   0  0  0  0  0  0  0  0  0  0  0  0
  142.5029   77.5915  218.3985 H   0  0  0  0  0  0  0  0  0  0  0  0
  140.7327   76.8016  218.8705 H   0  0  0  0  0  0  0  0  0  0  0  0
  138.6415   77.2585  220.0821 H   0  0  0  0  0  0  0  0  0  0  0  0
  137.6540   78.8139  221.7369 H   0  0  0  0  0  0  0  0  0  0  0  0
  141.5735   79.6603  223.2539 H   0  0  0  0  0  0  0  0  0  0  0  0
  142.5404   78.1185  221.6087 H   0  0  0  0  0  0  0  0  0  0  0  0
  139.0838   69.1852  222.8418 H   0  0  0  0  0  0  0  0  0  0  0  0
  139.0820   67.9049  224.9331 H   0  0  0  0  0  0  0  0  0  0  0  0
  139.6146   67.8715  227.3563 H   0  0  0  0  0  0  0  0  0  0  0  0
  140.5097   69.0881  229.3377 H   0  0  0  0  0  0  0  0  0  0  0  0
  141.3291   71.4072  229.1491 H   0  0  0  0  0  0  0  0  0  0  0  0
  141.2642   72.5723  226.9431 H   0  0  0  0  0  0  0  0  0  0  0  0
  1  2  2  0
  2  3  1  0
  3  4  1  0
  4  5  1  0
  5  6  2  0
  5  7  1  0
  7  8  1  0
  8  9  1  0
  9 10  1  0
 10 11  1  0
 11 12  1  0
 12 13  1  0
 13 14  1  0
 14 15  2  0
 15 16  1  0
 16 17  2  0
 17 18  1  0
 17 19  1  0
 19 20  2  0
  2 21  1  0
 21 22  2  0
 22 23  1  0
 23 24  2  0
 24 25  1  0
 25 26  2  0
 26 27  1  0
 27 28  2  0
 28 29  1  0
 29 30  2  0
 13  7  1  0
 20 14  1  0
 30 21  1  0
 29 24  1  0
  3 31  1  0
  4 32  1  0
  4 33  1  0
  8 34  1  0
  8 35  1  0
  9 36  1  0
  9 37  1  0
 10 38  1  0
 10 39  1  0
 11 40  1  0
 11 41  1  0
 12 42  1  0
 12 43  1  0
 13 44  1  6
 15 45  1  0
 16 46  1  0
 19 47  1  0
 20 48  1  0
 22 49  1  0
 23 50  1  0
 25 51  1  0
 26 52  1  0
 27 53  1  0
 28 54  1  0
M  END
>  <smiles>  (20) 
O=C(NCC(=O)N1CCCCCC1c1ccc(Cl)cc1)c1ccc2ccccc2n1

>  <score_type>  (20) 
oracle

>  <origin>  (20) 
autodockgpu

>  <m_score__min__energy>  (20) 
-6.9900000000000002

>  <m_primary>  (20) 
energy

>  <rmsd>  (20) 
1.9217430858611293

>  <m_score__min__rmsd>  (20) 
1.9217430858611293

>  <meeko>  (20) 
{"free_energy": -6.99, "intermolecular_energy": -10.27, "internal_energy": -1.73, "cluster_size": 13, "cluster_id": 1, "rank_in_cluster": 1}

>  <energy>  (20) 
-5.56

>  <cluster_rmsd>  (20) 
1.2

>  <cluster>  (20) 
3

$$$$

     RDKit          3D

 54 57  0  0  0  0  0  0  0  0999 V2000
  141.7450   77.6070  216.9680 O   0  0  0  0  0  0  0  0  0  0  0  0
  142.3100   77.4420  218.0960 C   0  0  0  0  0  0  0  0  0  0  0  0
  142.4810   78.5000  219.0120 N   0  0  0  0  0  0  0  0  0  0  0  0
  142.0180   79.8600  218.7240 C   0  0  0  0  0  0  0  0  0  0  0  0
  140.8560   80.1150  219.5800 C   0  0  0  0  0  0  0  0  0  0  0  0
  139.7460   80.5460  219.1620 O   0  0  0  0  0  0  0  0  0  0  0  0
  140.9700   79.8650  220.9770 N   0  0  0  0  0  0  0  0  0  0  0  0
  142.1880   80.3400  221.6450 C   0  0  0  0  0  0  0  0  0  0  0  0
  142.4310   79.2600  222.7060 C   0  0  0  0  0  0  0  0  0  0  0  0
  141.7780   79.6460  223.9720 C   0  0  0  0  0  0  0  0  0  0  0  0
  140.4630   80.3410  223.8470 C   0  0  0  0  0  0  0  0  0  0  0  0
  139.4810   79.8040  222.9300 C   0  0  0  0  0  0  0  0  0  0  0  0
  139.8970   79.1670  221.6560 C   0  0  2  0  0  0  0  0  0  0  0  0
  140.0540   77.7010  221.6920 C   0  0  0  0  0  0  0  0  0  0  0  0
  141.1320   77.0180  221.1900 C   0  0  0  0  0  0  0  0  0  0  0  0
  141.2000   75.6340  221.2670 C   0  0  0  0  0  0  0  0  0  0  0  0
  140.1790   74.9240  221.8520 C   0  0  0  0  0  0  0  0  0  0  0  0
  140.2100   73.1830  221.9750 Cl  0  0  0  0  0  0  0  0  0  0  0  0
  139.0910   75.6070  222.3580 C   0  0  0  0  0  0  0  0  0  0  0  0
  139.0350   76.9710  222.2770 C   0  0  0  0  0  0  0  0  0  0  0  0
  142.7920   76.1150  218.4410 C   0  0  0  0  0  0  0  0  0  0  0  0
  142.3720   74.9910  217.7680 C   0  0  0  0  0  0  0  0  0  0  0  0
  142.7890   73.7180  218.0470 C   0  0  0  0  0  0  0  0  0  0  0  0
  143.6960   73.5610  219.0810 C   0  0  0  0  0  0  0  0  0  0  0  0
  144.1740   72.3250  219.4370 C   0  0  0  0  0  0  0  0  0  0  0  0
  145.0830   72.2480  220.4870 C   0  0  0  0  0  0  0  0  0  0  0  0
  145.5070   73.3730  221.1640 C   0  0  0  0  0  0  0  0  0  0  0  0
  145.0210   74.6180  220.8000 C   0  0  0  0  0  0  0  0  0  0  0  0
  144.1170   74.7040  219.7590 C   0  0  0  0  0  0  0  0  0  0  0  0
  143.6730   75.9310  219.4420 N   0  0  0  0  0  0  0  0  0  0  0  0
  142.9520   78.3040  219.9220 H   0  0  0  0  0  0  0  0  0  0  0  0
  142.8156   80.5842  218.9464 H   0  0  0  0  0  0  0  0  0  0  0  0
  141.7499   79.9635  217.6622 H   0  0  0  0  0  0  0  0  0  0  0  0
  143.0299   80.4001  220.9396 H   0  0  0  0  0  0  0  0  0  0  0  0
  142.0900   81.3518  222.0653 H   0  0  0  0  0  0  0  0  0  0  0  0
  142.0133   78.3043  222.3564 H   0  0  0  0  0  0  0  0  0  0  0  0
  143.5129   79.1529  222.8736 H   0  0  0  0  0  0  0  0  0  0  0  0
  141.6198   78.7307  224.5613 H   0  0  0  0  0  0  0  0  0  0  0  0
  142.4540   80.3749  224.4430 H   0  0  0  0  0  0  0  0  0  0  0  0
  140.0036   80.3483  224.8465 H   0  0  0  0  0  0  0  0  0  0  0  0
  140.7177   81.3234  223.4226 H   0  0  0  0  0  0  0  0  0  0  0  0
  138.9125   79.0458  223.4884 H   0  0  0  0  0  0  0  0  0  0  0  0
  138.9485   80.7042  222.5893 H   0  0  0  0  0  0  0  0  0  0  0  0
  139.0152   79.2962  221.0112 H   0  0  0  0  0  0  0  0  0  0  0  0
  141.9552   77.5755  220.7192 H   0  0  0  0  0  0  0  0  0  0  0  0
  142.0732   75.1040  220.8588 H   0  0  0  0  0  0  0  0  0  0  0  0
  138.2660   75.0518  222.8282 H   0  0  0  0  0  0  0  0  0  0  0  0
  138.1609   77.4990  222.6858 H   0  0  0  0  0  0  0  0  0  0  0  0
  141.6506   75.1250  216.9485 H   0  0  0  0  0  0  0  0  0  0  0  0
  142.4190   72.8553  217.4736 H   0  0  0  0  0  0  0  0  0  0  0  0
  143.8469   71.4189  218.9060 H   0  0  0  0  0  0  0  0  0  0  0  0
  145.4742   71.2642  220.7855 H   0  0  0  0  0  0  0  0  0  0  0  0
  146.2282   73.2816  221.9896 H   0  0  0  0  0  0  0  0  0  0  0  0
  145.3495   75.5235  221.3312 H   0  0  0  0  0  0  0  0  0  0  0  0
  1  2  2  0
  2  3  1  0
  3  4  1  0
  4  5  1  0
  5  6  2  0
  5  7  1  0
  7  8  1  0
  8  9  1  0
  9 10  1  0
 10 11  1  0
 11 12  1  0
 12 13  1  0
 13 14  1  0
 14 15  2  0
 15 16  1  0
 16 17  2  0
 17 18  1  0
 17 19  1  0
 19 20  2  0
  2 21  1  0
 21 22  2  0
 22 23  1  0
 23 24  2  0
 24 25  1  0
 25 26  2  0
 26 27  1  0
 27 28  2  0
 28 29  1  0
 29 30  2  0
 13  7  1  0
 20 14  1  0
 30 21  1  0
 29 24  1  0
  3 31  1  0
  4 32  1  0
  4 33  1  0
  8 34  1  0
  8 35  1  0
  9 36  1  0
  9 37  1  0
 10 38  1  0
 10 39  1  0
 11 40  1  0
 11 41  1  0
 12 42  1  0
 12 43  1  0
 13 44  1  6
 15 45  1  0
 16 46  1  0
 19 47  1  0
 20 48  1  0
 22 49  1  0
 23 50  1  0
 25 51  1  0
 26 52  1  0
 27 53  1  0
 28 54  1  0
M  END
>  <smiles>  (21) 
O=C(NCC(=O)N1CCCCCC1c1ccc(Cl)cc1)c1ccc2ccccc2n1

>  <score_type>  (21) 
oracle

>  <origin>  (21) 
autodockgpu

>  <m_score__min__energy>  (21) 
-6.9900000000000002

>  <m_primary>  (21) 
energy

>  <rmsd>  (21) 
7.55745127591368

>  <m_score__min__rmsd>  (21) 
7.55745127591368

>  <meeko>  (21) 
{"free_energy": -5.03, "intermolecular_energy": -8.31, "internal_energy": -2.83, "cluster_size": 5, "cluster_id": 11, "rank_in_cluster": 2}

>  <energy>  (21) 
-6.37

>  <cluster_rmsd>  (21) 
0.0

>  <cluster>  (21) 
4

$$$$

     RDKit          3D

 54 57  0  0  0  0  0  0  0  0999 V2000
  139.9750   74.0310  222.4170 O   0  0  0  0  0  0  0  0  0  0  0  0
  140.1150   74.9860  221.5880 C   0  0  0  0  0  0  0  0  0  0  0  0
  140.3080   74.7610  220.2090 N   0  0  0  0  0  0  0  0  0  0  0  0
  140.3610   73.4100  219.6420 C   0  0  0  0  0  0  0  0  0  0  0  0
  141.4580   72.7020  220.3070 C   0  0  0  0  0  0  0  0  0  0  0  0
  141.3010   71.8370  221.2130 O   0  0  0  0  0  0  0  0  0  0  0  0
  142.7950   72.9980  219.9180 N   0  0  0  0  0  0  0  0  0  0  0  0
  143.8490   72.7690  220.9150 C   0  0  0  0  0  0  0  0  0  0  0  0
  144.8550   73.8820  220.6000 C   0  0  0  0  0  0  0  0  0  0  0  0
  145.9140   73.3630  219.7120 C   0  0  0  0  0  0  0  0  0  0  0  0
  145.5610   73.2500  218.2680 C   0  0  0  0  0  0  0  0  0  0  0  0
  144.2100   72.8730  217.9140 C   0  0  0  0  0  0  0  0  0  0  0  0
  143.0440   73.5000  218.5820 C   0  0  2  0  0  0  0  0  0  0  0  0
  142.9450   74.9670  218.4580 C   0  0  0  0  0  0  0  0  0  0  0  0
  142.9470   75.6520  217.2700 C   0  0  0  0  0  0  0  0  0  0  0  0
  142.8490   77.0360  217.2430 C   0  0  0  0  0  0  0  0  0  0  0  0
  142.7470   77.7440  218.4170 C   0  0  0  0  0  0  0  0  0  0  0  0
  142.6210   79.4850  218.4430 Cl  0  0  0  0  0  0  0  0  0  0  0  0
  142.7440   77.0590  219.6160 C   0  0  0  0  0  0  0  0  0  0  0  0
  142.8420   75.6950  219.6300 C   0  0  0  0  0  0  0  0  0  0  0  0
  140.0720   76.3500  222.0880 C   0  0  0  0  0  0  0  0  0  0  0  0
  138.8920   76.9520  222.4590 C   0  0  0  0  0  0  0  0  0  0  0  0
  138.7890   78.2300  222.9350 C   0  0  0  0  0  0  0  0  0  0  0  0
  139.9590   78.9600  223.0480 C   0  0  0  0  0  0  0  0  0  0  0  0
  139.9590   80.2510  223.5150 C   0  0  0  0  0  0  0  0  0  0  0  0
  141.1760   80.9200  223.5990 C   0  0  0  0  0  0  0  0  0  0  0  0
  142.3620   80.3200  223.2280 C   0  0  0  0  0  0  0  0  0  0  0  0
  142.3550   79.0170  222.7570 C   0  0  0  0  0  0  0  0  0  0  0  0
  141.1510   78.3450  222.6700 C   0  0  0  0  0  0  0  0  0  0  0  0
  141.1930   77.0850  222.2080 N   0  0  0  0  0  0  0  0  0  0  0  0
  140.4160   75.5840  219.5770 H   0  0  0  0  0  0  0  0  0  0  0  0
  139.4103   72.8875  219.8243 H   0  0  0  0  0  0  0  0  0  0  0  0
  140.5249   73.4496  218.5550 H   0  0  0  0  0  0  0  0  0  0  0  0
  143.4561   72.8667  221.9378 H   0  0  0  0  0  0  0  0  0  0  0  0
  144.2841   71.7598  220.8677 H   0  0  0  0  0  0  0  0  0  0  0  0
  144.3353   74.7134  220.1013 H   0  0  0  0  0  0  0  0  0  0  0  0
  145.3087   74.2370  221.5371 H   0  0  0  0  0  0  0  0  0  0  0  0
  146.7812   74.0347  219.7946 H   0  0  0  0  0  0  0  0  0  0  0  0
  146.1064   72.3343  220.0509 H   0  0  0  0  0  0  0  0  0  0  0  0
  145.7551   74.2305  217.8088 H   0  0  0  0  0  0  0  0  0  0  0  0
  146.1771   72.4139  217.9054 H   0  0  0  0  0  0  0  0  0  0  0  0
  144.1004   73.0747  216.8382 H   0  0  0  0  0  0  0  0  0  0  0  0
  144.1523   71.8287  218.2547 H   0  0  0  0  0  0  0  0  0  0  0  0
  142.1929   73.1503  217.9792 H   0  0  0  0  0  0  0  0  0  0  0  0
  143.0275   75.0961  216.3243 H   0  0  0  0  0  0  0  0  0  0  0  0
  142.8529   77.5677  216.2801 H   0  0  0  0  0  0  0  0  0  0  0  0
  142.6625   77.6124  220.5632 H   0  0  0  0  0  0  0  0  0  0  0  0
  142.8388   75.1652  220.5940 H   0  0  0  0  0  0  0  0  0  0  0  0
  137.9667   76.3645  222.3663 H   0  0  0  0  0  0  0  0  0  0  0  0
  137.8163   78.6598  223.2164 H   0  0  0  0  0  0  0  0  0  0  0  0
  139.0220   80.7432  223.8147 H   0  0  0  0  0  0  0  0  0  0  0  0
  141.1932   81.9550  223.9711 H   0  0  0  0  0  0  0  0  0  0  0  0
  143.3091   80.8740  223.3059 H   0  0  0  0  0  0  0  0  0  0  0  0
  143.2925   78.5257  222.4573 H   0  0  0  0  0  0  0  0  0  0  0  0
  1  2  2  0
  2  3  1  0
  3  4  1  0
  4  5  1  0
  5  6  2  0
  5  7  1  0
  7  8  1  0
  8  9  1  0
  9 10  1  0
 10 11  1  0
 11 12  1  0
 12 13  1  0
 13 14  1  0
 14 15  2  0
 15 16  1  0
 16 17  2  0
 17 18  1  0
 17 19  1  0
 19 20  2  0
  2 21  1  0
 21 22  2  0
 22 23  1  0
 23 24  2  0
 24 25  1  0
 25 26  2  0
 26 27  1  0
 27 28  2  0
 28 29  1  0
 29 30  2  0
 13  7  1  0
 20 14  1  0
 30 21  1  0
 29 24  1  0
  3 31  1  0
  4 32  1  0
  4 33  1  0
  8 34  1  0
  8 35  1  0
  9 36  1  0
  9 37  1  0
 10 38  1  0
 10 39  1  0
 11 40  1  0
 11 41  1  0
 12 42  1  0
 12 43  1  0
 13 44  1  6
 15 45  1  0
 16 46  1  0
 19 47  1  0
 20 48  1  0
 22 49  1  0
 23 50  1  0
 25 51  1  0
 26 52  1  0
 27 53  1  0
 28 54  1  0
M  END
>  <smiles>  (22) 
O=C(NCC(=O)N1CCCCCC1c1ccc(Cl)cc1)c1ccc2ccccc2n1

>  <score_type>  (22) 
oracle

>  <origin>  (22) 
autodockgpu

>  <m_score__min__energy>  (22) 
-6.9900000000000002

>  <m_primary>  (22) 
energy

>  <rmsd>  (22) 
7.25946030976797

>  <m_score__min__rmsd>  (22) 
7.25946030976797

>  <meeko>  (22) 
{"free_energy": -5.4, "intermolecular_energy": -8.68, "internal_energy": -2.14, "cluster_size": 12, "cluster_id": 6, "rank_in_cluster": 5}

>  <energy>  (22) 
-6.36

>  <cluster_rmsd>  (22) 
0.0

>  <cluster>  (22) 
5

$$$$

     RDKit          3D

 54 57  0  0  0  0  0  0  0  0999 V2000
  140.6420   71.4520  221.3820 O   0  0  0  0  0  0  0  0  0  0  0  0
  140.2490   72.0610  222.4280 C   0  0  0  0  0  0  0  0  0  0  0  0
  139.8710   73.4190  222.4090 N   0  0  0  0  0  0  0  0  0  0  0  0
  139.9060   74.2180  221.1810 C   0  0  0  0  0  0  0  0  0  0  0  0
  139.6090   75.6040  221.5550 C   0  0  0  0  0  0  0  0  0  0  0  0
  139.6980   76.0570  222.7300 O   0  0  0  0  0  0  0  0  0  0  0  0
  139.1920   76.5100  220.5410 N   0  0  0  0  0  0  0  0  0  0  0  0
  139.1080   75.9910  219.1710 C   0  0  0  0  0  0  0  0  0  0  0  0
  140.1640   76.8210  218.4320 C   0  0  0  0  0  0  0  0  0  0  0  0
  139.5200   77.9620  217.7540 C   0  0  0  0  0  0  0  0  0  0  0  0
  139.0010   79.0370  218.6400 C   0  0  0  0  0  0  0  0  0  0  0  0
  138.2460   78.6580  219.8140 C   0  0  0  0  0  0  0  0  0  0  0  0
  138.8760   77.8770  220.9060 C   0  0  2  0  0  0  0  0  0  0  0  0
  139.9440   78.5660  221.6550 C   0  0  0  0  0  0  0  0  0  0  0  0
  141.2790   78.5020  221.3520 C   0  0  0  0  0  0  0  0  0  0  0  0
  142.2190   79.1840  222.1100 C   0  0  0  0  0  0  0  0  0  0  0  0
  141.8200   79.9420  223.1850 C   0  0  0  0  0  0  0  0  0  0  0  0
  142.9580   80.8210  224.1750 Cl  0  0  0  0  0  0  0  0  0  0  0  0
  140.4760   80.0110  223.4960 C   0  0  0  0  0  0  0  0  0  0  0  0
  139.5590   79.3330  222.7410 C   0  0  0  0  0  0  0  0  0  0  0  0
  140.1920   71.3230  223.6790 C   0  0  0  0  0  0  0  0  0  0  0  0
  139.6760   70.0490  223.7490 C   0  0  0  0  0  0  0  0  0  0  0  0
  139.5950   69.3070  224.8950 C   0  0  0  0  0  0  0  0  0  0  0  0
  140.0680   69.8860  226.0590 C   0  0  0  0  0  0  0  0  0  0  0  0
  140.0300   69.2210  227.2600 C   0  0  0  0  0  0  0  0  0  0  0  0
  140.5240   69.8700  228.3870 C   0  0  0  0  0  0  0  0  0  0  0  0
  141.0420   71.1480  228.3210 C   0  0  0  0  0  0  0  0  0  0  0  0
  141.0770   71.8130  227.1070 C   0  0  0  0  0  0  0  0  0  0  0  0
  140.5890   71.1770  225.9820 C   0  0  0  0  0  0  0  0  0  0  0  0
  140.6430   71.8600  224.8280 N   0  0  0  0  0  0  0  0  0  0  0  0
  139.5570   73.8650  223.2980 H   0  0  0  0  0  0  0  0  0  0  0  0
  140.9033   74.1576  220.7207 H   0  0  0  0  0  0  0  0  0  0  0  0
  139.1713   73.8450  220.4522 H   0  0  0  0  0  0  0  0  0  0  0  0
  139.3511   74.9187  219.1373 H   0  0  0  0  0  0  0  0  0  0  0  0
  138.1023   76.0739  218.7333 H   0  0  0  0  0  0  0  0  0  0  0  0
  140.9043   77.1960  219.1540 H   0  0  0  0  0  0  0  0  0  0  0  0
  140.6632   76.1888  217.6829 H   0  0  0  0  0  0  0  0  0  0  0  0
  140.2601   78.4123  217.0762 H   0  0  0  0  0  0  0  0  0  0  0  0
  138.6385   77.5457  217.2445 H   0  0  0  0  0  0  0  0  0  0  0  0
  139.8675   79.6201  218.9852 H   0  0  0  0  0  0  0  0  0  0  0  0
  138.2740   79.5751  218.0139 H   0  0  0  0  0  0  0  0  0  0  0  0
  137.8817   79.5919  220.2669 H   0  0  0  0  0  0  0  0  0  0  0  0
  137.5043   77.9539  219.4087 H   0  0  0  0  0  0  0  0  0  0  0  0
  138.0722   77.7981  221.6528 H   0  0  0  0  0  0  0  0  0  0  0  0
  141.6105   77.8997  220.4933 H   0  0  0  0  0  0  0  0  0  0  0  0
  143.2859   79.1182  221.8505 H   0  0  0  0  0  0  0  0  0  0  0  0
  140.1421   80.6133  224.3538 H   0  0  0  0  0  0  0  0  0  0  0  0
  138.4925   79.3987  223.0025 H   0  0  0  0  0  0  0  0  0  0  0  0
  139.3028   69.5961  222.8186 H   0  0  0  0  0  0  0  0  0  0  0  0
  139.1713   68.2919  224.8914 H   0  0  0  0  0  0  0  0  0  0  0  0
  139.6200   68.2026  227.3290 H   0  0  0  0  0  0  0  0  0  0  0  0
  140.5013   69.3510  229.3566 H   0  0  0  0  0  0  0  0  0  0  0  0
  141.4254   71.6360  229.2292 H   0  0  0  0  0  0  0  0  0  0  0  0
  141.4869   72.8316  227.0395 H   0  0  0  0  0  0  0  0  0  0  0  0
  1  2  2  0
  2  3  1  0
  3  4  1  0
  4  5  1  0
  5  6  2  0
  5  7  1  0
  7  8  1  0
  8  9  1  0
  9 10  1  0
 10 11  1  0
 11 12  1  0
 12 13  1  0
 13 14  1  0
 14 15  2  0
 15 16  1  0
 16 17  2  0
 17 18  1  0
 17 19  1  0
 19 20  2  0
  2 21  1  0
 21 22  2  0
 22 23  1  0
 23 24  2  0
 24 25  1  0
 25 26  2  0
 26 27  1  0
 27 28  2  0
 28 29  1  0
 29 30  2  0
 13  7  1  0
 20 14  1  0
 30 21  1  0
 29 24  1  0
  3 31  1  0
  4 32  1  0
  4 33  1  0
  8 34  1  0
  8 35  1  0
  9 36  1  0
  9 37  1  0
 10 38  1  0
 10 39  1  0
 11 40  1  0
 11 41  1  0
 12 42  1  0
 12 43  1  0
 13 44  1  1
 15 45  1  0
 16 46  1  0
 19 47  1  0
 20 48  1  0
 22 49  1  0
 23 50  1  0
 25 51  1  0
 26 52  1  0
 27 53  1  0
 28 54  1  0
M  END
>  <smiles>  (23) 
O=C(NCC(=O)N1CCCCCC1c1ccc(Cl)cc1)c1ccc2ccccc2n1

>  <score_type>  (23) 
oracle

>  <origin>  (23) 
autodockgpu

>  <m_score__min__energy>  (23) 
-6.9900000000000002

>  <m_primary>  (23) 
energy

>  <rmsd>  (23) 
1.9611582681753548

>  <m_score__min__rmsd>  (23) 
1.9611582681753548

>  <meeko>  (23) 
{"free_energy": -5.79, "intermolecular_energy": -9.07, "internal_energy": -2.09, "cluster_size": 1, "cluster_id": 7, "rank_in_cluster": 1}

>  <energy>  (23) 
-6.2

>  <cluster_rmsd>  (23) 
1.33

>  <cluster>  (23) 
5

$$$$

     RDKit          3D

 54 57  0  0  0  0  0  0  0  0999 V2000
  138.7650   75.4990  221.6970 O   0  0  0  0  0  0  0  0  0  0  0  0
  139.9620   75.8740  221.9090 C   0  0  0  0  0  0  0  0  0  0  0  0
  141.0640   75.0230  221.6880 N   0  0  0  0  0  0  0  0  0  0  0  0
  140.9020   73.6510  221.2000 C   0  0  0  0  0  0  0  0  0  0  0  0
  141.6550   73.5430  219.9470 C   0  0  0  0  0  0  0  0  0  0  0  0
  141.1470   73.6770  218.7990 O   0  0  0  0  0  0  0  0  0  0  0  0
  143.0500   73.2710  220.0100 N   0  0  0  0  0  0  0  0  0  0  0  0
  143.4550   71.9790  220.5790 C   0  0  0  0  0  0  0  0  0  0  0  0
  144.5580   71.5210  219.6180 C   0  0  0  0  0  0  0  0  0  0  0  0
  145.8710   71.9900  220.1010 C   0  0  0  0  0  0  0  0  0  0  0  0
  145.8740   73.2510  220.8970 C   0  0  0  0  0  0  0  0  0  0  0  0
  145.1980   74.4110  220.3580 C   0  0  0  0  0  0  0  0  0  0  0  0
  143.9840   74.2640  219.5190 C   0  0  2  0  0  0  0  0  0  0  0  0
  143.3530   75.5220  219.0760 C   0  0  0  0  0  0  0  0  0  0  0  0
  143.1010   75.8510  217.7690 C   0  0  0  0  0  0  0  0  0  0  0  0
  142.5020   77.0580  217.4390 C   0  0  0  0  0  0  0  0  0  0  0  0
  142.1500   77.9480  218.4250 C   0  0  0  0  0  0  0  0  0  0  0  0
  141.3940   79.4800  218.0680 Cl  0  0  0  0  0  0  0  0  0  0  0  0
  142.4010   77.6210  219.7440 C   0  0  0  0  0  0  0  0  0  0  0  0
  142.9930   76.4280  220.0570 C   0  0  0  0  0  0  0  0  0  0  0  0
  140.1900   77.2240  222.3940 C   0  0  0  0  0  0  0  0  0  0  0  0
  139.1500   78.0610  222.7290 C   0  0  0  0  0  0  0  0  0  0  0  0
  139.3010   79.3400  223.1910 C   0  0  0  0  0  0  0  0  0  0  0  0
  140.5940   79.8160  223.3260 C   0  0  0  0  0  0  0  0  0  0  0  0
  140.8490   81.0860  223.7800 C   0  0  0  0  0  0  0  0  0  0  0  0
  142.1760   81.4920  223.8880 C   0  0  0  0  0  0  0  0  0  0  0  0
  143.2210   80.6560  223.5530 C   0  0  0  0  0  0  0  0  0  0  0  0
  142.9560   79.3760  223.0950 C   0  0  0  0  0  0  0  0  0  0  0  0
  141.6430   78.9640  222.9840 C   0  0  0  0  0  0  0  0  0  0  0  0
  141.4350   77.7160  222.5350 N   0  0  0  0  0  0  0  0  0  0  0  0
  142.0240   75.3860  221.8800 H   0  0  0  0  0  0  0  0  0  0  0  0
  141.2974   72.9391  221.9395 H   0  0  0  0  0  0  0  0  0  0  0  0
  139.8393   73.4181  221.0374 H   0  0  0  0  0  0  0  0  0  0  0  0
  143.8437   72.0996  221.6009 H   0  0  0  0  0  0  0  0  0  0  0  0
  142.6263   71.2611  220.6676 H   0  0  0  0  0  0  0  0  0  0  0  0
  144.5608   70.4224  219.5628 H   0  0  0  0  0  0  0  0  0  0  0  0
  144.3673   71.9428  218.6201 H   0  0  0  0  0  0  0  0  0  0  0  0
  146.2989   71.1960  220.7307 H   0  0  0  0  0  0  0  0  0  0  0  0
  146.4517   72.2159  219.1945 H   0  0  0  0  0  0  0  0  0  0  0  0
  145.4059   73.0239  221.8662 H   0  0  0  0  0  0  0  0  0  0  0  0
  146.9330   73.5471  220.9269 H   0  0  0  0  0  0  0  0  0  0  0  0
  144.9107   75.0338  221.2180 H   0  0  0  0  0  0  0  0  0  0  0  0
  145.9359   74.8143  219.6488 H   0  0  0  0  0  0  0  0  0  0  0  0
  144.3784   73.8498  218.5794 H   0  0  0  0  0  0  0  0  0  0  0  0
  143.3779   75.1473  216.9701 H   0  0  0  0  0  0  0  0  0  0  0  0
  142.3082   77.3034  216.3844 H   0  0  0  0  0  0  0  0  0  0  0  0
  142.1239   78.3223  220.5449 H   0  0  0  0  0  0  0  0  0  0  0  0
  143.1869   76.1840  221.1119 H   0  0  0  0  0  0  0  0  0  0  0  0
  138.1261   77.6748  222.6176 H   0  0  0  0  0  0  0  0  0  0  0  0
  138.4313   79.9640  223.4446 H   0  0  0  0  0  0  0  0  0  0  0  0
  140.0268   81.7646  224.0512 H   0  0  0  0  0  0  0  0  0  0  0  0
  142.3974   82.5068  224.2502 H   0  0  0  0  0  0  0  0  0  0  0  0
  144.2599   81.0044  223.6492 H   0  0  0  0  0  0  0  0  0  0  0  0
  143.7789   78.6982  222.8239 H   0  0  0  0  0  0  0  0  0  0  0  0
  1  2  2  0
  2  3  1  0
  3  4  1  0
  4  5  1  0
  5  6  2  0
  5  7  1  0
  7  8  1  0
  8  9  1  0
  9 10  1  0
 10 11  1  0
 11 12  1  0
 12 13  1  0
 13 14  1  0
 14 15  2  0
 15 16  1  0
 16 17  2  0
 17 18  1  0
 17 19  1  0
 19 20  2  0
  2 21  1  0
 21 22  2  0
 22 23  1  0
 23 24  2  0
 24 25  1  0
 25 26  2  0
 26 27  1  0
 27 28  2  0
 28 29  1  0
 29 30  2  0
 13  7  1  0
 20 14  1  0
 30 21  1  0
 29 24  1  0
  3 31  1  0
  4 32  1  0
  4 33  1  0
  8 34  1  0
  8 35  1  0
  9 36  1  0
  9 37  1  0
 10 38  1  0
 10 39  1  0
 11 40  1  0
 11 41  1  0
 12 42  1  0
 12 43  1  0
 13 44  1  6
 15 45  1  0
 16 46  1  0
 19 47  1  0
 20 48  1  0
 22 49  1  0
 23 50  1  0
 25 51  1  0
 26 52  1  0
 27 53  1  0
 28 54  1  0
M  END
>  <smiles>  (24) 
O=C(NCC(=O)N1CCCCCC1c1ccc(Cl)cc1)c1ccc2ccccc2n1

>  <score_type>  (24) 
oracle

>  <origin>  (24) 
autodockgpu

>  <m_score__min__energy>  (24) 
-6.9900000000000002

>  <m_primary>  (24) 
energy

>  <rmsd>  (24) 
7.7095065273045655

>  <m_score__min__rmsd>  (24) 
7.7095065273045655

>  <meeko>  (24) 
{"free_energy": -5.56, "intermolecular_energy": -8.84, "internal_energy": -2.69, "cluster_size": 12, "cluster_id": 6, "rank_in_cluster": 2}

>  <energy>  (24) 
-5.97

>  <cluster_rmsd>  (24) 
0.67

>  <cluster>  (24) 
5

$$$$

     RDKit          3D

 54 57  0  0  0  0  0  0  0  0999 V2000
  140.7830   77.3510  218.0600 O   0  0  0  0  0  0  0  0  0  0  0  0
  141.6820   77.2350  218.9530 C   0  0  0  0  0  0  0  0  0  0  0  0
  141.9740   78.2710  219.8630 N   0  0  0  0  0  0  0  0  0  0  0  0
  141.2600   79.5500  219.8410 C   0  0  0  0  0  0  0  0  0  0  0  0
  140.1000   79.4160  220.7270 C   0  0  0  0  0  0  0  0  0  0  0  0
  138.9420   79.0980  220.3380 O   0  0  0  0  0  0  0  0  0  0  0  0
  140.2730   79.6580  222.1180 N   0  0  0  0  0  0  0  0  0  0  0  0
  140.0690   81.0330  222.5910 C   0  0  0  0  0  0  0  0  0  0  0  0
  141.4510   81.6640  222.3910 C   0  0  0  0  0  0  0  0  0  0  0  0
  142.3920   81.1400  223.4000 C   0  0  0  0  0  0  0  0  0  0  0  0
  142.8760   79.7520  223.1790 C   0  0  0  0  0  0  0  0  0  0  0  0
  142.0090   78.6510  223.5360 C   0  0  0  0  0  0  0  0  0  0  0  0
  140.6350   78.5530  222.9840 C   0  0  2  0  0  0  0  0  0  0  0  0
  140.2420   77.2270  222.4720 C   0  0  0  0  0  0  0  0  0  0  0  0
  141.1190   76.2510  222.0730 C   0  0  0  0  0  0  0  0  0  0  0  0
  140.6620   75.0280  221.6040 C   0  0  0  0  0  0  0  0  0  0  0  0
  139.3130   74.7750  221.5320 C   0  0  0  0  0  0  0  0  0  0  0  0
  138.6830   73.2560  220.9500 Cl  0  0  0  0  0  0  0  0  0  0  0  0
  138.4250   75.7550  221.9320 C   0  0  0  0  0  0  0  0  0  0  0  0
  138.8870   76.9570  222.3930 C   0  0  0  0  0  0  0  0  0  0  0  0
  142.4270   75.9900  219.0270 C   0  0  0  0  0  0  0  0  0  0  0  0
  142.1130   74.9060  218.2390 C   0  0  0  0  0  0  0  0  0  0  0  0
  142.7760   73.7100  218.2640 C   0  0  0  0  0  0  0  0  0  0  0  0
  143.8350   73.5910  219.1470 C   0  0  0  0  0  0  0  0  0  0  0  0
  144.5620   72.4310  219.2470 C   0  0  0  0  0  0  0  0  0  0  0  0
  145.6120   72.3890  220.1590 C   0  0  0  0  0  0  0  0  0  0  0  0
  145.9300   73.4730  220.9510 C   0  0  0  0  0  0  0  0  0  0  0  0
  145.1930   74.6400  220.8450 C   0  0  0  0  0  0  0  0  0  0  0  0
  144.1480   74.6920  219.9430 C   0  0  0  0  0  0  0  0  0  0  0  0
  143.4610   75.8430  219.8770 N   0  0  0  0  0  0  0  0  0  0  0  0
  142.7230   78.1180  220.5740 H   0  0  0  0  0  0  0  0  0  0  0  0
  141.9178   80.3548  220.2010 H   0  0  0  0  0  0  0  0  0  0  0  0
  140.9424   79.8015  218.8183 H   0  0  0  0  0  0  0  0  0  0  0  0
  139.3058   81.5502  221.9910 H   0  0  0  0  0  0  0  0  0  0  0  0
  139.7083   81.0896  223.6286 H   0  0  0  0  0  0  0  0  0  0  0  0
  141.8216   81.4195  221.3846 H   0  0  0  0  0  0  0  0  0  0  0  0
  141.3708   82.7554  222.5022 H   0  0  0  0  0  0  0  0  0  0  0  0
  143.2691   81.8035  223.4192 H   0  0  0  0  0  0  0  0  0  0  0  0
  141.8292   81.1116  224.3447 H   0  0  0  0  0  0  0  0  0  0  0  0
  143.0999   79.6537  222.1065 H   0  0  0  0  0  0  0  0  0  0  0  0
  143.7303   79.6537  223.8650 H   0  0  0  0  0  0  0  0  0  0  0  0
  142.5326   77.7307  223.2380 H   0  0  0  0  0  0  0  0  0  0  0  0
  141.8287   78.8213  224.6077 H   0  0  0  0  0  0  0  0  0  0  0  0
  139.9980   78.6633  223.8740 H   0  0  0  0  0  0  0  0  0  0  0  0
  142.2012   76.4408  222.1256 H   0  0  0  0  0  0  0  0  0  0  0  0
  141.3817   74.2582  221.2887 H   0  0  0  0  0  0  0  0  0  0  0  0
  137.3423   75.5678  221.8795 H   0  0  0  0  0  0  0  0  0  0  0  0
  138.1659   77.7257  222.7078 H   0  0  0  0  0  0  0  0  0  0  0  0
  141.2698   75.0088  217.5402 H   0  0  0  0  0  0  0  0  0  0  0  0
  142.4798   72.8771  217.6094 H   0  0  0  0  0  0  0  0  0  0  0  0
  144.3209   71.5579  218.6228 H   0  0  0  0  0  0  0  0  0  0  0  0
  146.2045   71.4668  220.2510 H   0  0  0  0  0  0  0  0  0  0  0  0
  146.7656   73.4102  221.6636 H   0  0  0  0  0  0  0  0  0  0  0  0
  145.4357   75.5125  221.4694 H   0  0  0  0  0  0  0  0  0  0  0  0
  1  2  2  0
  2  3  1  0
  3  4  1  0
  4  5  1  0
  5  6  2  0
  5  7  1  0
  7  8  1  0
  8  9  1  0
  9 10  1  0
 10 11  1  0
 11 12  1  0
 12 13  1  0
 13 14  1  0
 14 15  2  0
 15 16  1  0
 16 17  2  0
 17 18  1  0
 17 19  1  0
 19 20  2  0
  2 21  1  0
 21 22  2  0
 22 23  1  0
 23 24  2  0
 24 25  1  0
 25 26  2  0
 26 27  1  0
 27 28  2  0
 28 29  1  0
 29 30  2  0
 13  7  1  0
 20 14  1  0
 30 21  1  0
 29 24  1  0
  3 31  1  0
  4 32  1  0
  4 33  1  0
  8 34  1  0
  8 35  1  0
  9 36  1  0
  9 37  1  0
 10 38  1  0
 10 39  1  0
 11 40  1  0
 11 41  1  0
 12 42  1  0
 12 43  1  0
 13 44  1  1
 15 45  1  0
 16 46  1  0
 19 47  1  0
 20 48  1  0
 22 49  1  0
 23 50  1  0
 25 51  1  0
 26 52  1  0
 27 53  1  0
 28 54  1  0
M  END
>  <smiles>  (25) 
O=C(NCC(=O)N1CCCCCC1c1ccc(Cl)cc1)c1ccc2ccccc2n1

>  <score_type>  (25) 
oracle

>  <origin>  (25) 
autodockgpu

>  <m_score__min__energy>  (25) 
-6.9900000000000002

>  <m_primary>  (25) 
energy

>  <rmsd>  (25) 
7.498337259259154

>  <m_score__min__rmsd>  (25) 
7.498337259259154

>  <meeko>  (25) 
{"free_energy": -4.79, "intermolecular_energy": -8.08, "internal_energy": -3.12, "cluster_size": 5, "cluster_id": 11, "rank_in_cluster": 4}

>  <energy>  (25) 
-5.7

>  <cluster_rmsd>  (25) 
1.55

>  <cluster>  (25) 
5

$$$$

     RDKit          3D

 54 57  0  0  0  0  0  0  0  0999 V2000
  140.9100   71.9050  221.6450 O   0  0  0  0  0  0  0  0  0  0  0  0
  140.0220   72.1630  222.5180 C   0  0  0  0  0  0  0  0  0  0  0  0
  139.0710   73.1880  222.3400 N   0  0  0  0  0  0  0  0  0  0  0  0
  139.0440   74.0240  221.1370 C   0  0  0  0  0  0  0  0  0  0  0  0
  140.1740   74.9530  221.2270 C   0  0  0  0  0  0  0  0  0  0  0  0
  140.6610   75.3760  222.3130 O   0  0  0  0  0  0  0  0  0  0  0  0
  140.7740   75.4170  220.0240 N   0  0  0  0  0  0  0  0  0  0  0  0
  141.3380   74.4050  219.1220 C   0  0  0  0  0  0  0  0  0  0  0  0
  142.7870   74.2920  219.6080 C   0  0  0  0  0  0  0  0  0  0  0  0
  143.6120   75.3370  218.9710 C   0  0  0  0  0  0  0  0  0  0  0  0
  143.3170   76.7420  219.3740 C   0  0  0  0  0  0  0  0  0  0  0  0
  142.0210   77.2960  219.0480 C   0  0  0  0  0  0  0  0  0  0  0  0
  140.7980   76.8410  219.7540 C   0  0  2  0  0  0  0  0  0  0  0  0
  140.3600   77.6800  220.8850 C   0  0  0  0  0  0  0  0  0  0  0  0
  141.1930   78.2030  221.8400 C   0  0  0  0  0  0  0  0  0  0  0  0
  140.6960   78.9850  222.8720 C   0  0  0  0  0  0  0  0  0  0  0  0
  139.3500   79.2490  222.9520 C   0  0  0  0  0  0  0  0  0  0  0  0
  138.6690   80.2260  224.2290 Cl  0  0  0  0  0  0  0  0  0  0  0  0
  138.5050   78.7250  221.9930 C   0  0  0  0  0  0  0  0  0  0  0  0
  139.0070   77.9550  220.9800 C   0  0  0  0  0  0  0  0  0  0  0  0
  139.9950   71.3690  223.7350 C   0  0  0  0  0  0  0  0  0  0  0  0
  139.4670   70.0990  223.7630 C   0  0  0  0  0  0  0  0  0  0  0  0
  139.4130   69.3050  224.8760 C   0  0  0  0  0  0  0  0  0  0  0  0
  139.9290   69.8260  226.0510 C   0  0  0  0  0  0  0  0  0  0  0  0
  139.9200   69.1070  227.2200 C   0  0  0  0  0  0  0  0  0  0  0  0
  140.4560   69.6990  228.3600 C   0  0  0  0  0  0  0  0  0  0  0  0
  140.9870   70.9730  228.3350 C   0  0  0  0  0  0  0  0  0  0  0  0
  140.9910   71.6920  227.1520 C   0  0  0  0  0  0  0  0  0  0  0  0
  140.4620   71.1130  226.0160 C   0  0  0  0  0  0  0  0  0  0  0  0
  140.4880   71.8480  224.8930 N   0  0  0  0  0  0  0  0  0  0  0  0
  138.3660   73.3540  223.0910 H   0  0  0  0  0  0  0  0  0  0  0  0
  139.1437   73.3957  220.2396 H   0  0  0  0  0  0  0  0  0  0  0  0
  138.0933   74.5726  221.0650 H   0  0  0  0  0  0  0  0  0  0  0  0
  140.8098   73.4454  219.2224 H   0  0  0  0  0  0  0  0  0  0  0  0
  141.2535   74.6722  218.0583 H   0  0  0  0  0  0  0  0  0  0  0  0
  142.8166   74.4190  220.7003 H   0  0  0  0  0  0  0  0  0  0  0  0
  143.1838   73.3021  219.3385 H   0  0  0  0  0  0  0  0  0  0  0  0
  144.6642   75.1308  219.2167 H   0  0  0  0  0  0  0  0  0  0  0  0
  143.3801   75.2827  217.8971 H   0  0  0  0  0  0  0  0  0  0  0  0
  143.4278   76.7963  220.4671 H   0  0  0  0  0  0  0  0  0  0  0  0
  144.0235   77.3451  218.7849 H   0  0  0  0  0  0  0  0  0  0  0  0
  142.0934   78.3809  219.2145 H   0  0  0  0  0  0  0  0  0  0  0  0
  141.8556   76.9386  218.0209 H   0  0  0  0  0  0  0  0  0  0  0  0
  140.0035   77.0071  219.0116 H   0  0  0  0  0  0  0  0  0  0  0  0
  142.2726   77.9992  221.7869 H   0  0  0  0  0  0  0  0  0  0  0  0
  141.3813   79.3950  223.6285 H   0  0  0  0  0  0  0  0  0  0  0  0
  137.4250   78.9276  222.0441 H   0  0  0  0  0  0  0  0  0  0  0  0
  138.3204   77.5455  220.2245 H   0  0  0  0  0  0  0  0  0  0  0  0
  139.0598   69.6935  222.8251 H   0  0  0  0  0  0  0  0  0  0  0  0
  138.9780   68.2953  224.8392 H   0  0  0  0  0  0  0  0  0  0  0  0
  139.5007   68.0907  227.2551 H   0  0  0  0  0  0  0  0  0  0  0  0
  140.4565   69.1370  229.3056 H   0  0  0  0  0  0  0  0  0  0  0  0
  141.4052   71.4151  229.2513 H   0  0  0  0  0  0  0  0  0  0  0  0
  141.4092   72.7088  227.1178 H   0  0  0  0  0  0  0  0  0  0  0  0
  1  2  2  0
  2  3  1  0
  3  4  1  0
  4  5  1  0
  5  6  2  0
  5  7  1  0
  7  8  1  0
  8  9  1  0
  9 10  1  0
 10 11  1  0
 11 12  1  0
 12 13  1  0
 13 14  1  0
 14 15  2  0
 15 16  1  0
 16 17  2  0
 17 18  1  0
 17 19  1  0
 19 20  2  0
  2 21  1  0
 21 22  2  0
 22 23  1  0
 23 24  2  0
 24 25  1  0
 25 26  2  0
 26 27  1  0
 27 28  2  0
 28 29  1  0
 29 30  2  0
 13  7  1  0
 20 14  1  0
 30 21  1  0
 29 24  1  0
  3 31  1  0
  4 32  1  0
  4 33  1  0
  8 34  1  0
  8 35  1  0
  9 36  1  0
  9 37  1  0
 10 38  1  0
 10 39  1  0
 11 40  1  0
 11 41  1  0
 12 42  1  0
 12 43  1  0
 13 44  1  6
 15 45  1  0
 16 46  1  0
 19 47  1  0
 20 48  1  0
 22 49  1  0
 23 50  1  0
 25 51  1  0
 26 52  1  0
 27 53  1  0
 28 54  1  0
M  END
>  <smiles>  (26) 
O=C(NCC(=O)N1CCCCCC1c1ccc(Cl)cc1)c1ccc2ccccc2n1

>  <score_type>  (26) 
oracle

>  <origin>  (26) 
autodockgpu

>  <m_score__min__energy>  (26) 
-6.9900000000000002

>  <m_primary>  (26) 
energy

>  <rmsd>  (26) 
1.6674207141845185

>  <m_score__min__rmsd>  (26) 
1.6674207141845185

>  <meeko>  (26) 
{"free_energy": -6.78, "intermolecular_energy": -10.07, "internal_energy": -1.7, "cluster_size": 13, "cluster_id": 1, "rank_in_cluster": 3}

>  <energy>  (26) 
-5.31

>  <cluster_rmsd>  (26) 
1.09

>  <cluster>  (26) 
5

$$$$

     RDKit          3D

 54 57  0  0  0  0  0  0  0  0999 V2000
  139.4120   70.8880  221.3880 O   0  0  0  0  0  0  0  0  0  0  0  0
  139.5390   71.5240  222.4810 C   0  0  0  0  0  0  0  0  0  0  0  0
  139.5520   72.9340  222.5320 N   0  0  0  0  0  0  0  0  0  0  0  0
  139.4190   73.7560  221.3260 C   0  0  0  0  0  0  0  0  0  0  0  0
  140.5260   74.7170  221.3310 C   0  0  0  0  0  0  0  0  0  0  0  0
  140.8920   75.3730  222.3460 O   0  0  0  0  0  0  0  0  0  0  0  0
  141.2440   74.9370  220.1230 N   0  0  0  0  0  0  0  0  0  0  0  0
  141.5170   73.7650  219.2820 C   0  0  0  0  0  0  0  0  0  0  0  0
  142.8140   73.2140  219.8860 C   0  0  0  0  0  0  0  0  0  0  0  0
  143.9570   74.0420  219.4550 C   0  0  0  0  0  0  0  0  0  0  0  0
  144.0400   75.4060  220.0520 C   0  0  0  0  0  0  0  0  0  0  0  0
  143.1250   76.4230  219.5840 C   0  0  0  0  0  0  0  0  0  0  0  0
  141.6620   76.2830  219.7890 C   0  0  2  0  0  0  0  0  0  0  0  0
  141.0240   77.3360  220.6020 C   0  0  0  0  0  0  0  0  0  0  0  0
  139.6820   77.6140  220.6080 C   0  0  0  0  0  0  0  0  0  0  0  0
  139.1640   78.6240  221.4060 C   0  0  0  0  0  0  0  0  0  0  0  0
  139.9970   79.3650  222.2090 C   0  0  0  0  0  0  0  0  0  0  0  0
  139.4010   80.6470  223.2330 Cl  0  0  0  0  0  0  0  0  0  0  0  0
  141.3500   79.0900  222.2070 C   0  0  0  0  0  0  0  0  0  0  0  0
  141.8500   78.0920  221.4160 C   0  0  0  0  0  0  0  0  0  0  0  0
  139.6760   70.7660  223.7130 C   0  0  0  0  0  0  0  0  0  0  0  0
  139.2630   69.4570  223.8100 C   0  0  0  0  0  0  0  0  0  0  0  0
  139.3660   68.6930  224.9410 C   0  0  0  0  0  0  0  0  0  0  0  0
  139.9250   69.2880  226.0590 C   0  0  0  0  0  0  0  0  0  0  0  0
  140.0700   68.6040  227.2400 C   0  0  0  0  0  0  0  0  0  0  0  0
  140.6400   69.2700  228.3200 C   0  0  0  0  0  0  0  0  0  0  0  0
  141.0560   70.5830  228.2260 C   0  0  0  0  0  0  0  0  0  0  0  0
  140.9060   71.2670  227.0320 C   0  0  0  0  0  0  0  0  0  0  0  0
  140.3400   70.6140  225.9540 C   0  0  0  0  0  0  0  0  0  0  0  0
  140.2150   71.3170  224.8170 N   0  0  0  0  0  0  0  0  0  0  0  0
  139.6600   73.4010  223.4590 H   0  0  0  0  0  0  0  0  0  0  0  0
  139.4753   73.1212  220.4294 H   0  0  0  0  0  0  0  0  0  0  0  0
  138.4503   74.2770  221.3139 H   0  0  0  0  0  0  0  0  0  0  0  0
  140.7028   73.0286  219.3509 H   0  0  0  0  0  0  0  0  0  0  0  0
  141.6004   74.0047  218.2117 H   0  0  0  0  0  0  0  0  0  0  0  0
  142.7426   73.2328  220.9835 H   0  0  0  0  0  0  0  0  0  0  0  0
  142.9643   72.1800  219.5422 H   0  0  0  0  0  0  0  0  0  0  0  0
  144.8798   73.5036  219.7168 H   0  0  0  0  0  0  0  0  0  0  0  0
  143.8177   74.1996  218.3753 H   0  0  0  0  0  0  0  0  0  0  0  0
  143.8773   75.2967  221.1344 H   0  0  0  0  0  0  0  0  0  0  0  0
  145.0300   75.7737  219.7443 H   0  0  0  0  0  0  0  0  0  0  0  0
  143.4219   77.3616  220.0748 H   0  0  0  0  0  0  0  0  0  0  0  0
  143.2252   76.3561  218.4906 H   0  0  0  0  0  0  0  0  0  0  0  0
  141.2495   76.4718  218.7869 H   0  0  0  0  0  0  0  0  0  0  0  0
  139.0048   77.0271  219.9701 H   0  0  0  0  0  0  0  0  0  0  0  0
  138.0839   78.8319  221.3957 H   0  0  0  0  0  0  0  0  0  0  0  0
  142.0289   79.6758  222.8441 H   0  0  0  0  0  0  0  0  0  0  0  0
  142.9305   77.8861  221.4270 H   0  0  0  0  0  0  0  0  0  0  0  0
  138.8195   68.9925  222.9170 H   0  0  0  0  0  0  0  0  0  0  0  0
  139.0189   67.6494  224.9608 H   0  0  0  0  0  0  0  0  0  0  0  0
  139.7442   67.5572  227.3301 H   0  0  0  0  0  0  0  0  0  0  0  0
  140.7625   68.7364  229.2741 H   0  0  0  0  0  0  0  0  0  0  0  0
  141.5049   71.0837  229.0965 H   0  0  0  0  0  0  0  0  0  0  0  0
  141.2322   72.3137  226.9428 H   0  0  0  0  0  0  0  0  0  0  0  0
  1  2  2  0
  2  3  1  0
  3  4  1  0
  4  5  1  0
  5  6  2  0
  5  7  1  0
  7  8  1  0
  8  9  1  0
  9 10  1  0
 10 11  1  0
 11 12  1  0
 12 13  1  0
 13 14  1  0
 14 15  2  0
 15 16  1  0
 16 17  2  0
 17 18  1  0
 17 19  1  0
 19 20  2  0
  2 21  1  0
 21 22  2  0
 22 23  1  0
 23 24  2  0
 24 25  1  0
 25 26  2  0
 26 27  1  0
 27 28  2  0
 28 29  1  0
 29 30  2  0
 13  7  1  0
 20 14  1  0
 30 21  1  0
 29 24  1  0
  3 31  1  0
  4 32  1  0
  4 33  1  0
  8 34  1  0
  8 35  1  0
  9 36  1  0
  9 37  1  0
 10 38  1  0
 10 39  1  0
 11 40  1  0
 11 41  1  0
 12 42  1  0
 12 43  1  0
 13 44  1  6
 15 45  1  0
 16 46  1  0
 19 47  1  0
 20 48  1  0
 22 49  1  0
 23 50  1  0
 25 51  1  0
 26 52  1  0
 27 53  1  0
 28 54  1  0
M  END
>  <smiles>  (27) 
O=C(NCC(=O)N1CCCCCC1c1ccc(Cl)cc1)c1ccc2ccccc2n1

>  <score_type>  (27) 
oracle

>  <origin>  (27) 
autodockgpu

>  <m_score__min__energy>  (27) 
-6.9900000000000002

>  <m_primary>  (27) 
energy

>  <rmsd>  (27) 
1.9026410760966725

>  <m_score__min__rmsd>  (27) 
1.9026410760966725

>  <meeko>  (27) 
{"free_energy": -6.71, "intermolecular_energy": -9.99, "internal_energy": -1.87, "cluster_size": 13, "cluster_id": 1, "rank_in_cluster": 4}

>  <energy>  (27) 
-5.8

>  <cluster_rmsd>  (27) 
0.0

>  <cluster>  (27) 
6

$$$$

     RDKit          3D

 54 57  0  0  0  0  0  0  0  0999 V2000
  136.4610   76.1310  222.7540 O   0  0  0  0  0  0  0  0  0  0  0  0
  137.7190   76.1270  222.5690 C   0  0  0  0  0  0  0  0  0  0  0  0
  138.4170   74.9640  222.1820 N   0  0  0  0  0  0  0  0  0  0  0  0
  137.7370   73.6840  221.9700 C   0  0  0  0  0  0  0  0  0  0  0  0
  138.7720   72.6490  221.8930 C   0  0  0  0  0  0  0  0  0  0  0  0
  140.0090   72.8870  221.8000 O   0  0  0  0  0  0  0  0  0  0  0  0
  138.3750   71.2830  221.9240 N   0  0  0  0  0  0  0  0  0  0  0  0
  137.0530   70.9560  221.3770 C   0  0  0  0  0  0  0  0  0  0  0  0
  137.3900   70.4370  219.9740 C   0  0  0  0  0  0  0  0  0  0  0  0
  137.5780   68.9740  220.0140 C   0  0  0  0  0  0  0  0  0  0  0  0
  138.7640   68.4820  220.7760 C   0  0  0  0  0  0  0  0  0  0  0  0
  138.9260   68.8990  222.1510 C   0  0  0  0  0  0  0  0  0  0  0  0
  139.2810   70.3010  222.4860 C   0  0  2  0  0  0  0  0  0  0  0  0
  139.6520   70.5510  223.8910 C   0  0  0  0  0  0  0  0  0  0  0  0
  139.1470   69.8670  224.9670 C   0  0  0  0  0  0  0  0  0  0  0  0
  139.5530   70.1670  226.2590 C   0  0  0  0  0  0  0  0  0  0  0  0
  140.4750   71.1620  226.4810 C   0  0  0  0  0  0  0  0  0  0  0  0
  141.0210   71.5820  228.0840 Cl  0  0  0  0  0  0  0  0  0  0  0  0
  140.9870   71.8550  225.4010 C   0  0  0  0  0  0  0  0  0  0  0  0
  140.5790   71.5500  224.1310 C   0  0  0  0  0  0  0  0  0  0  0  0
  138.4520   77.3660  222.7640 C   0  0  0  0  0  0  0  0  0  0  0  0
  137.8110   78.5640  222.9800 C   0  0  0  0  0  0  0  0  0  0  0  0
  138.4450   79.7610  223.1700 C   0  0  0  0  0  0  0  0  0  0  0  0
  139.8290   79.7570  223.1400 C   0  0  0  0  0  0  0  0  0  0  0  0
  140.5560   80.9070  223.3190 C   0  0  0  0  0  0  0  0  0  0  0  0
  141.9440   80.8210  223.2750 C   0  0  0  0  0  0  0  0  0  0  0  0
  142.5910   79.6220  223.0590 C   0  0  0  0  0  0  0  0  0  0  0  0
  141.8510   78.4650  222.8780 C   0  0  0  0  0  0  0  0  0  0  0  0
  140.4730   78.5400  222.9200 C   0  0  0  0  0  0  0  0  0  0  0  0
  139.7980   77.3940  222.7390 N   0  0  0  0  0  0  0  0  0  0  0  0
  139.4500   75.0220  222.0450 H   0  0  0  0  0  0  0  0  0  0  0  0
  137.0573   73.4751  222.8093 H   0  0  0  0  0  0  0  0  0  0  0  0
  137.1403   73.7080  221.0462 H   0  0  0  0  0  0  0  0  0  0  0  0
  136.5553   70.1808  221.9781 H   0  0  0  0  0  0  0  0  0  0  0  0
  136.3584   71.8089  221.3726 H   0  0  0  0  0  0  0  0  0  0  0  0
  136.5663   70.6807  219.2869 H   0  0  0  0  0  0  0  0  0  0  0  0
  138.3178   70.9129  219.6239 H   0  0  0  0  0  0  0  0  0  0  0  0
  136.6795   68.5326  220.4700 H   0  0  0  0  0  0  0  0  0  0  0  0
  137.7521   68.6711  218.9710 H   0  0  0  0  0  0  0  0  0  0  0  0
  138.7173   67.3830  220.7740 H   0  0  0  0  0  0  0  0  0  0  0  0
  139.6221   68.9333  220.2565 H   0  0  0  0  0  0  0  0  0  0  0  0
  137.9721   68.6881  222.6566 H   0  0  0  0  0  0  0  0  0  0  0  0
  139.8175   68.3397  222.4710 H   0  0  0  0  0  0  0  0  0  0  0  0
  140.2340   70.4525  221.9579 H   0  0  0  0  0  0  0  0  0  0  0  0
  138.4087   69.0682  224.8030 H   0  0  0  0  0  0  0  0  0  0  0  0
  139.1357   69.6068  227.1087 H   0  0  0  0  0  0  0  0  0  0  0  0
  141.7250   72.6545  225.5626 H   0  0  0  0  0  0  0  0  0  0  0  0
  140.9970   72.1112  223.2823 H   0  0  0  0  0  0  0  0  0  0  0  0
  136.7112   78.5589  223.0014 H   0  0  0  0  0  0  0  0  0  0  0  0
  137.8785   80.6885  223.3396 H   0  0  0  0  0  0  0  0  0  0  0  0
  140.0550   81.8708  223.4926 H   0  0  0  0  0  0  0  0  0  0  0  0
  142.5415   81.7337  223.4162 H   0  0  0  0  0  0  0  0  0  0  0  0
  143.6900   79.5848  223.0306 H   0  0  0  0  0  0  0  0  0  0  0  0
  142.3532   77.5020  222.7036 H   0  0  0  0  0  0  0  0  0  0  0  0
  1  2  2  0
  2  3  1  0
  3  4  1  0
  4  5  1  0
  5  6  2  0
  5  7  1  0
  7  8  1  0
  8  9  1  0
  9 10  1  0
 10 11  1  0
 11 12  1  0
 12 13  1  0
 13 14  1  0
 14 15  2  0
 15 16  1  0
 16 17  2  0
 17 18  1  0
 17 19  1  0
 19 20  2  0
  2 21  1  0
 21 22  2  0
 22 23  1  0
 23 24  2  0
 24 25  1  0
 25 26  2  0
 26 27  1  0
 27 28  2  0
 28 29  1  0
 29 30  2  0
 13  7  1  0
 20 14  1  0
 30 21  1  0
 29 24  1  0
  3 31  1  0
  4 32  1  0
  4 33  1  0
  8 34  1  0
  8 35  1  0
  9 36  1  0
  9 37  1  0
 10 38  1  0
 10 39  1  0
 11 40  1  0
 11 41  1  0
 12 42  1  0
 12 43  1  0
 13 44  1  6
 15 45  1  0
 16 46  1  0
 19 47  1  0
 20 48  1  0
 22 49  1  0
 23 50  1  0
 25 51  1  0
 26 52  1  0
 27 53  1  0
 28 54  1  0
M  END
>  <smiles>  (28) 
O=C(NCC(=O)N1CCCCCC1c1ccc(Cl)cc1)c1ccc2ccccc2n1

>  <score_type>  (28) 
oracle

>  <origin>  (28) 
autodockgpu

>  <m_score__min__energy>  (28) 
-6.9900000000000002

>  <m_primary>  (28) 
energy

>  <rmsd>  (28) 
8.118128767661089

>  <m_score__min__rmsd>  (28) 
8.118128767661089

>  <meeko>  (28) 
{"free_energy": -5.31, "intermolecular_energy": -8.59, "internal_energy": -2.19, "cluster_size": 5, "cluster_id": 5, "rank_in_cluster": 5}

>  <energy>  (28) 
-5.56

>  <cluster_rmsd>  (28) 
0.26

>  <cluster>  (28) 
6

$$$$

     RDKit          3D

 54 57  0  0  0  0  0  0  0  0999 V2000
  139.5860   74.3690  222.4590 O   0  0  0  0  0  0  0  0  0  0  0  0
  140.0720   75.2730  221.7070 C   0  0  0  0  0  0  0  0  0  0  0  0
  140.5660   74.9890  220.4170 N   0  0  0  0  0  0  0  0  0  0  0  0
  140.5520   73.6340  219.8590 C   0  0  0  0  0  0  0  0  0  0  0  0
  141.6480   72.8930  220.4890 C   0  0  0  0  0  0  0  0  0  0  0  0
  141.7900   72.7570  221.7360 O   0  0  0  0  0  0  0  0  0  0  0  0
  142.6260   72.2820  219.6560 N   0  0  0  0  0  0  0  0  0  0  0  0
  142.4490   70.8570  219.3500 C   0  0  0  0  0  0  0  0  0  0  0  0
  143.6170   70.2050  220.1000 C   0  0  0  0  0  0  0  0  0  0  0  0
  144.8360   70.2560  219.2710 C   0  0  0  0  0  0  0  0  0  0  0  0
  145.6850   71.4730  219.4310 C   0  0  0  0  0  0  0  0  0  0  0  0
  145.0400   72.7270  219.7520 C   0  0  0  0  0  0  0  0  0  0  0  0
  143.7270   73.0820  219.1600 C   0  0  2  0  0  0  0  0  0  0  0  0
  143.4340   74.5250  219.0650 C   0  0  0  0  0  0  0  0  0  0  0  0
  143.6430   75.4330  220.0720 C   0  0  0  0  0  0  0  0  0  0  0  0
  143.3400   76.7750  219.8980 C   0  0  0  0  0  0  0  0  0  0  0  0
  142.8220   77.2180  218.7040 C   0  0  0  0  0  0  0  0  0  0  0  0
  142.4220   78.8940  218.4300 Cl  0  0  0  0  0  0  0  0  0  0  0  0
  142.6100   76.3080  217.6870 C   0  0  0  0  0  0  0  0  0  0  0  0
  142.9130   74.9870  217.8700 C   0  0  0  0  0  0  0  0  0  0  0  0
  140.1150   76.6380  222.2020 C   0  0  0  0  0  0  0  0  0  0  0  0
  138.9810   77.2940  222.6250 C   0  0  0  0  0  0  0  0  0  0  0  0
  138.9590   78.5760  223.1000 C   0  0  0  0  0  0  0  0  0  0  0  0
  140.1650   79.2530  223.1550 C   0  0  0  0  0  0  0  0  0  0  0  0
  140.2450   80.5430  223.6160 C   0  0  0  0  0  0  0  0  0  0  0  0
  141.4940   81.1570  223.6400 C   0  0  0  0  0  0  0  0  0  0  0  0
  142.6330   80.5020  223.2170 C   0  0  0  0  0  0  0  0  0  0  0  0
  142.5440   79.2010  222.7530 C   0  0  0  0  0  0  0  0  0  0  0  0
  141.3090   78.5830  222.7250 C   0  0  0  0  0  0  0  0  0  0  0  0
  141.2720   77.3220  222.2660 N   0  0  0  0  0  0  0  0  0  0  0  0
  140.9530   75.7720  219.8450 H   0  0  0  0  0  0  0  0  0  0  0  0
  139.5914   73.1457  220.0798 H   0  0  0  0  0  0  0  0  0  0  0  0
  140.6771   73.6610  218.7665 H   0  0  0  0  0  0  0  0  0  0  0  0
  141.4823   70.4880  219.7232 H   0  0  0  0  0  0  0  0  0  0  0  0
  142.4455   70.6386  218.2719 H   0  0  0  0  0  0  0  0  0  0  0  0
  143.7932   70.7456  221.0416 H   0  0  0  0  0  0  0  0  0  0  0  0
  143.3687   69.1552  220.3153 H   0  0  0  0  0  0  0  0  0  0  0  0
  145.4519   69.3803  219.5237 H   0  0  0  0  0  0  0  0  0  0  0  0
  144.4854   70.2737  218.2285 H   0  0  0  0  0  0  0  0  0  0  0  0
  146.4052   71.2630  220.2355 H   0  0  0  0  0  0  0  0  0  0  0  0
  146.1109   71.6377  218.4303 H   0  0  0  0  0  0  0  0  0  0  0  0
  144.9049   72.7393  220.8436 H   0  0  0  0  0  0  0  0  0  0  0  0
  145.7169   73.4698  219.3047 H   0  0  0  0  0  0  0  0  0  0  0  0
  143.8415   72.7917  218.1052 H   0  0  0  0  0  0  0  0  0  0  0  0
  144.0572   75.0913  221.0320 H   0  0  0  0  0  0  0  0  0  0  0  0
  143.5146   77.4873  220.7178 H   0  0  0  0  0  0  0  0  0  0  0  0
  142.1958   76.6470  216.7260 H   0  0  0  0  0  0  0  0  0  0  0  0
  142.7385   74.2763  217.0487 H   0  0  0  0  0  0  0  0  0  0  0  0
  138.0266   76.7491  222.5776 H   0  0  0  0  0  0  0  0  0  0  0  0
  138.0211   79.0500  223.4252 H   0  0  0  0  0  0  0  0  0  0  0  0
  139.3463   81.0775  223.9574 H   0  0  0  0  0  0  0  0  0  0  0  0
  141.5755   82.1912  224.0056 H   0  0  0  0  0  0  0  0  0  0  0  0
  143.6072   81.0118  223.2485 H   0  0  0  0  0  0  0  0  0  0  0  0
  143.4432   78.6673  222.4117 H   0  0  0  0  0  0  0  0  0  0  0  0
  1  2  2  0
  2  3  1  0
  3  4  1  0
  4  5  1  0
  5  6  2  0
  5  7  1  0
  7  8  1  0
  8  9  1  0
  9 10  1  0
 10 11  1  0
 11 12  1  0
 12 13  1  0
 13 14  1  0
 14 15  2  0
 15 16  1  0
 16 17  2  0
 17 18  1  0
 17 19  1  0
 19 20  2  0
  2 21  1  0
 21 22  2  0
 22 23  1  0
 23 24  2  0
 24 25  1  0
 25 26  2  0
 26 27  1  0
 27 28  2  0
 28 29  1  0
 29 30  2  0
 13  7  1  0
 20 14  1  0
 30 21  1  0
 29 24  1  0
  3 31  1  0
  4 32  1  0
  4 33  1  0
  8 34  1  0
  8 35  1  0
  9 36  1  0
  9 37  1  0
 10 38  1  0
 10 39  1  0
 11 40  1  0
 11 41  1  0
 12 42  1  0
 12 43  1  0
 13 44  1  6
 15 45  1  0
 16 46  1  0
 19 47  1  0
 20 48  1  0
 22 49  1  0
 23 50  1  0
 25 51  1  0
 26 52  1  0
 27 53  1  0
 28 54  1  0
M  END
>  <smiles>  (29) 
O=C(NCC(=O)N1CCCCCC1c1ccc(Cl)cc1)c1ccc2ccccc2n1

>  <score_type>  (29) 
oracle

>  <origin>  (29) 
autodockgpu

>  <m_score__min__energy>  (29) 
-6.9900000000000002

>  <m_primary>  (29) 
energy

>  <rmsd>  (29) 
7.515259768072452

>  <m_score__min__rmsd>  (29) 
7.515259768072452

>  <meeko>  (29) 
{"free_energy": -4.97, "intermolecular_energy": -8.26, "internal_energy": -2.52, "cluster_size": 12, "cluster_id": 6, "rank_in_cluster": 10}

>  <energy>  (29) 
-5.48

>  <cluster_rmsd>  (29) 
0.47

>  <cluster>  (29) 
6

$$$$

     RDKit          3D

 54 57  0  0  0  0  0  0  0  0999 V2000
  138.8060   75.5150  221.6950 O   0  0  0  0  0  0  0  0  0  0  0  0
  139.9920   75.9000  221.9460 C   0  0  0  0  0  0  0  0  0  0  0  0
  141.1040   75.0460  221.7960 N   0  0  0  0  0  0  0  0  0  0  0  0
  140.9650   73.6600  221.3420 C   0  0  0  0  0  0  0  0  0  0  0  0
  141.6020   73.5670  220.0260 C   0  0  0  0  0  0  0  0  0  0  0  0
  141.0160   73.8090  218.9340 O   0  0  0  0  0  0  0  0  0  0  0  0
  142.9700   73.1820  219.9550 N   0  0  0  0  0  0  0  0  0  0  0  0
  143.3130   71.8380  220.4360 C   0  0  0  0  0  0  0  0  0  0  0  0
  144.2620   71.3240  219.3470 C   0  0  0  0  0  0  0  0  0  0  0  0
  145.6560   71.6560  219.6980 C   0  0  0  0  0  0  0  0  0  0  0  0
  145.8480   72.8660  220.5540 C   0  0  0  0  0  0  0  0  0  0  0  0
  145.2380   74.1100  220.1370 C   0  0  0  0  0  0  0  0  0  0  0  0
  143.9380   74.1190  219.4220 C   0  0  2  0  0  0  0  0  0  0  0  0
  143.3860   75.4510  219.1110 C   0  0  0  0  0  0  0  0  0  0  0  0
  143.0330   76.3890  220.0460 C   0  0  0  0  0  0  0  0  0  0  0  0
  142.5200   77.6200  219.6650 C   0  0  0  0  0  0  0  0  0  0  0  0
  142.3580   77.9200  218.3340 C   0  0  0  0  0  0  0  0  0  0  0  0
  141.7180   79.4520  217.7980 Cl  0  0  0  0  0  0  0  0  0  0  0  0
  142.7110   76.9780  217.3870 C   0  0  0  0  0  0  0  0  0  0  0  0
  143.2160   75.7670  217.7740 C   0  0  0  0  0  0  0  0  0  0  0  0
  140.1970   77.2640  222.4010 C   0  0  0  0  0  0  0  0  0  0  0  0
  139.1430   78.0990  222.6920 C   0  0  0  0  0  0  0  0  0  0  0  0
  139.2730   79.3910  223.1230 C   0  0  0  0  0  0  0  0  0  0  0  0
  140.5580   79.8830  223.2730 C   0  0  0  0  0  0  0  0  0  0  0  0
  140.7920   81.1670  223.7000 C   0  0  0  0  0  0  0  0  0  0  0  0
  142.1120   81.5880  223.8250 C   0  0  0  0  0  0  0  0  0  0  0  0
  143.1710   80.7540  223.5330 C   0  0  0  0  0  0  0  0  0  0  0  0
  142.9280   79.4600  223.1030 C   0  0  0  0  0  0  0  0  0  0  0  0
  141.6210   79.0320  222.9760 C   0  0  0  0  0  0  0  0  0  0  0  0
  141.4350   77.7710  222.5550 N   0  0  0  0  0  0  0  0  0  0  0  0
  142.0540   75.4170  222.0170 H   0  0  0  0  0  0  0  0  0  0  0  0
  141.4621   72.9803  222.0498 H   0  0  0  0  0  0  0  0  0  0  0  0
  139.9045   73.3741  221.2825 H   0  0  0  0  0  0  0  0  0  0  0  0
  143.8168   71.8826  221.4128 H   0  0  0  0  0  0  0  0  0  0  0  0
  142.4361   71.1925  220.5919 H   0  0  0  0  0  0  0  0  0  0  0  0
  144.1583   70.2325  219.2583 H   0  0  0  0  0  0  0  0  0  0  0  0
  144.0063   71.8009  218.3893 H   0  0  0  0  0  0  0  0  0  0  0  0
  146.0821   70.7946  220.2332 H   0  0  0  0  0  0  0  0  0  0  0  0
  146.1540   71.8864  218.7446 H   0  0  0  0  0  0  0  0  0  0  0  0
  145.4479   72.6260  221.5502 H   0  0  0  0  0  0  0  0  0  0  0  0
  146.9286   73.0647  220.5012 H   0  0  0  0  0  0  0  0  0  0  0  0
  145.0989   74.7113  221.0475 H   0  0  0  0  0  0  0  0  0  0  0  0
  145.9380   74.4799  219.3733 H   0  0  0  0  0  0  0  0  0  0  0  0
  144.1969   73.7291  218.4265 H   0  0  0  0  0  0  0  0  0  0  0  0
  143.1585   76.1620  221.1150 H   0  0  0  0  0  0  0  0  0  0  0  0
  142.2419   78.3587  220.4311 H   0  0  0  0  0  0  0  0  0  0  0  0
  142.5855   77.2027  216.3175 H   0  0  0  0  0  0  0  0  0  0  0  0
  143.4928   75.0289  217.0068 H   0  0  0  0  0  0  0  0  0  0  0  0
  138.1252   77.7002  222.5697 H   0  0  0  0  0  0  0  0  0  0  0  0
  138.3925   80.0131  223.3413 H   0  0  0  0  0  0  0  0  0  0  0  0
  139.9582   81.8443  223.9368 H   0  0  0  0  0  0  0  0  0  0  0  0
  142.3167   82.6136  224.1659 H   0  0  0  0  0  0  0  0  0  0  0  0
  144.2044   81.1151  223.6412 H   0  0  0  0  0  0  0  0  0  0  0  0
  143.7628   78.7839  222.8664 H   0  0  0  0  0  0  0  0  0  0  0  0
  1  2  2  0
  2  3  1  0
  3  4  1  0
  4  5  1  0
  5  6  2  0
  5  7  1  0
  7  8  1  0
  8  9  1  0
  9 10  1  0
 10 11  1  0
 11 12  1  0
 12 13  1  0
 13 14  1  0
 14 15  2  0
 15 16  1  0
 16 17  2  0
 17 18  1  0
 17 19  1  0
 19 20  2  0
  2 21  1  0
 21 22  2  0
 22 23  1  0
 23 24  2  0
 24 25  1  0
 25 26  2  0
 26 27  1  0
 27 28  2  0
 28 29  1  0
 29 30  2  0
 13  7  1  0
 20 14  1  0
 30 21  1  0
 29 24  1  0
  3 31  1  0
  4 32  1  0
  4 33  1  0
  8 34  1  0
  8 35  1  0
  9 36  1  0
  9 37  1  0
 10 38  1  0
 10 39  1  0
 11 40  1  0
 11 41  1  0
 12 42  1  0
 12 43  1  0
 13 44  1  6
 15 45  1  0
 16 46  1  0
 19 47  1  0
 20 48  1  0
 22 49  1  0
 23 50  1  0
 25 51  1  0
 26 52  1  0
 27 53  1  0
 28 54  1  0
M  END
>  <smiles>  (30) 
O=C(NCC(=O)N1CCCCCC1c1ccc(Cl)cc1)c1ccc2ccccc2n1

>  <score_type>  (30) 
oracle

>  <origin>  (30) 
autodockgpu

>  <m_score__min__energy>  (30) 
-6.9900000000000002

>  <m_primary>  (30) 
energy

>  <rmsd>  (30) 
7.742596038397956

>  <m_score__min__rmsd>  (30) 
7.742596038397956

>  <meeko>  (30) 
{"free_energy": -5.8, "intermolecular_energy": -9.08, "internal_energy": -2.64, "cluster_size": 12, "cluster_id": 6, "rank_in_cluster": 1}

>  <energy>  (30) 
-5.43

>  <cluster_rmsd>  (30) 
0.35

>  <cluster>  (30) 
6

$$$$

     RDKit          3D

 54 57  0  0  0  0  0  0  0  0999 V2000
  139.9510   70.9660  221.3910 O   0  0  0  0  0  0  0  0  0  0  0  0
  139.7250   71.5950  222.4730 C   0  0  0  0  0  0  0  0  0  0  0  0
  139.4310   72.9740  222.4940 N   0  0  0  0  0  0  0  0  0  0  0  0
  139.3670   73.7730  221.2670 C   0  0  0  0  0  0  0  0  0  0  0  0
  140.2940   74.8960  221.4310 C   0  0  0  0  0  0  0  0  0  0  0  0
  140.3940   75.5870  222.4830 O   0  0  0  0  0  0  0  0  0  0  0  0
  141.1440   75.2450  220.3440 N   0  0  0  0  0  0  0  0  0  0  0  0
  141.7870   74.1440  219.6170 C   0  0  0  0  0  0  0  0  0  0  0  0
  143.0550   73.8930  220.4410 C   0  0  0  0  0  0  0  0  0  0  0  0
  144.0690   74.9170  220.1250 C   0  0  0  0  0  0  0  0  0  0  0  0
  143.6430   75.9840  219.1790 C   0  0  0  0  0  0  0  0  0  0  0  0
  142.7220   76.9950  219.6490 C   0  0  0  0  0  0  0  0  0  0  0  0
  141.3280   76.6440  220.0170 C   0  0  2  0  0  0  0  0  0  0  0  0
  140.6530   77.5770  220.9390 C   0  0  0  0  0  0  0  0  0  0  0  0
  139.3100   77.8570  220.9230 C   0  0  0  0  0  0  0  0  0  0  0  0
  138.7560   78.7490  221.8300 C   0  0  0  0  0  0  0  0  0  0  0  0
  139.5510   79.3690  222.7640 C   0  0  0  0  0  0  0  0  0  0  0  0
  138.9080   80.5000  223.9280 Cl  0  0  0  0  0  0  0  0  0  0  0  0
  140.9030   79.0910  222.7840 C   0  0  0  0  0  0  0  0  0  0  0  0
  141.4390   78.2100  221.8850 C   0  0  0  0  0  0  0  0  0  0  0  0
  139.7730   70.8580  223.7250 C   0  0  0  0  0  0  0  0  0  0  0  0
  139.3270   69.5600  223.8230 C   0  0  0  0  0  0  0  0  0  0  0  0
  139.3460   68.8180  224.9710 C   0  0  0  0  0  0  0  0  0  0  0  0
  139.8520   69.4220  226.1090 C   0  0  0  0  0  0  0  0  0  0  0  0
  139.9140   68.7600  227.3090 C   0  0  0  0  0  0  0  0  0  0  0  0
  140.4350   69.4360  228.4080 C   0  0  0  0  0  0  0  0  0  0  0  0
  140.8840   70.7370  228.3140 C   0  0  0  0  0  0  0  0  0  0  0  0
  140.8190   71.4000  227.1000 C   0  0  0  0  0  0  0  0  0  0  0  0
  140.3020   70.7380  226.0030 C   0  0  0  0  0  0  0  0  0  0  0  0
  140.2590   71.4200  224.8480 N   0  0  0  0  0  0  0  0  0  0  0  0
  139.2540   73.4350  223.4120 H   0  0  0  0  0  0  0  0  0  0  0  0
  139.6657   73.1611  220.4031 H   0  0  0  0  0  0  0  0  0  0  0  0
  138.3434   74.1349  221.0902 H   0  0  0  0  0  0  0  0  0  0  0  0
  141.1435   73.2521  219.5973 H   0  0  0  0  0  0  0  0  0  0  0  0
  141.9908   74.3774  218.5615 H   0  0  0  0  0  0  0  0  0  0  0  0
  142.8095   73.9409  221.5122 H   0  0  0  0  0  0  0  0  0  0  0  0
  143.4556   72.8983  220.1959 H   0  0  0  0  0  0  0  0  0  0  0  0
  144.3645   75.4008  221.0677 H   0  0  0  0  0  0  0  0  0  0  0  0
  144.8861   74.3807  219.6202 H   0  0  0  0  0  0  0  0  0  0  0  0
  144.5529   76.5038  218.8446 H   0  0  0  0  0  0  0  0  0  0  0  0
  143.0794   75.4462  218.4024 H   0  0  0  0  0  0  0  0  0  0  0  0
  143.1788   77.4432  220.5437 H   0  0  0  0  0  0  0  0  0  0  0  0
  142.5863   77.6313  218.7620 H   0  0  0  0  0  0  0  0  0  0  0  0
  140.7752   76.7949  219.0780 H   0  0  0  0  0  0  0  0  0  0  0  0
  138.6630   77.3672  220.1803 H   0  0  0  0  0  0  0  0  0  0  0  0
  137.6769   78.9606  221.8014 H   0  0  0  0  0  0  0  0  0  0  0  0
  141.5519   79.5797  223.5256 H   0  0  0  0  0  0  0  0  0  0  0  0
  142.5184   78.0005  221.9151 H   0  0  0  0  0  0  0  0  0  0  0  0
  138.9273   69.0864  222.9142 H   0  0  0  0  0  0  0  0  0  0  0  0
  138.9742   67.7829  224.9896 H   0  0  0  0  0  0  0  0  0  0  0  0
  139.5611   67.7221  227.4000 H   0  0  0  0  0  0  0  0  0  0  0  0
  140.4903   68.9193  229.3775 H   0  0  0  0  0  0  0  0  0  0  0  0
  141.2920   71.2457  229.1998 H   0  0  0  0  0  0  0  0  0  0  0  0
  141.1734   72.4375  227.0104 H   0  0  0  0  0  0  0  0  0  0  0  0
  1  2  2  0
  2  3  1  0
  3  4  1  0
  4  5  1  0
  5  6  2  0
  5  7  1  0
  7  8  1  0
  8  9  1  0
  9 10  1  0
 10 11  1  0
 11 12  1  0
 12 13  1  0
 13 14  1  0
 14 15  2  0
 15 16  1  0
 16 17  2  0
 17 18  1  0
 17 19  1  0
 19 20  2  0
  2 21  1  0
 21 22  2  0
 22 23  1  0
 23 24  2  0
 24 25  1  0
 25 26  2  0
 26 27  1  0
 27 28  2  0
 28 29  1  0
 29 30  2  0
 13  7  1  0
 20 14  1  0
 30 21  1  0
 29 24  1  0
  3 31  1  0
  4 32  1  0
  4 33  1  0
  8 34  1  0
  8 35  1  0
  9 36  1  0
  9 37  1  0
 10 38  1  0
 10 39  1  0
 11 40  1  0
 11 41  1  0
 12 42  1  0
 12 43  1  0
 13 44  1  6
 15 45  1  0
 16 46  1  0
 19 47  1  0
 20 48  1  0
 22 49  1  0
 23 50  1  0
 25 51  1  0
 26 52  1  0
 27 53  1  0
 28 54  1  0
M  END
>  <smiles>  (31) 
O=C(NCC(=O)N1CCCCCC1c1ccc(Cl)cc1)c1ccc2ccccc2n1

>  <score_type>  (31) 
oracle

>  <origin>  (31) 
autodockgpu

>  <m_score__min__energy>  (31) 
-6.9900000000000002

>  <m_primary>  (31) 
energy

>  <rmsd>  (31) 
1.9495219179393355

>  <m_score__min__rmsd>  (31) 
1.9495219179393355

>  <meeko>  (31) 
{"free_energy": -6.7, "intermolecular_energy": -9.98, "internal_energy": -1.57, "cluster_size": 13, "cluster_id": 1, "rank_in_cluster": 5}

>  <energy>  (31) 
-5.4

>  <cluster_rmsd>  (31) 
1.33

>  <cluster>  (31) 
6

$$$$

     RDKit          3D

 54 57  0  0  0  0  0  0  0  0999 V2000
  139.0300   74.0490  221.4100 O   0  0  0  0  0  0  0  0  0  0  0  0
  140.1790   74.5570  221.6090 C   0  0  0  0  0  0  0  0  0  0  0  0
  140.3480   75.8080  222.2370 N   0  0  0  0  0  0  0  0  0  0  0  0
  139.2090   76.6060  222.7000 C   0  0  0  0  0  0  0  0  0  0  0  0
  139.2970   77.9120  222.0400 C   0  0  0  0  0  0  0  0  0  0  0  0
  138.5300   78.2930  221.1130 O   0  0  0  0  0  0  0  0  0  0  0  0
  140.3060   78.8220  222.4610 N   0  0  0  0  0  0  0  0  0  0  0  0
  139.8740   79.9930  223.2330 C   0  0  0  0  0  0  0  0  0  0  0  0
  140.0400   81.1380  222.2280 C   0  0  0  0  0  0  0  0  0  0  0  0
  141.4620   81.5200  222.1350 C   0  0  0  0  0  0  0  0  0  0  0  0
  142.3900   80.8100  223.0620 C   0  0  0  0  0  0  0  0  0  0  0  0
  142.6640   79.4100  222.8260 C   0  0  0  0  0  0  0  0  0  0  0  0
  141.6870   78.5520  222.1120 C   0  0  2  0  0  0  0  0  0  0  0  0
  141.9230   78.3740  220.6670 C   0  0  0  0  0  0  0  0  0  0  0  0
  142.3380   77.2060  220.0800 C   0  0  0  0  0  0  0  0  0  0  0  0
  142.5350   77.1250  218.7100 C   0  0  0  0  0  0  0  0  0  0  0  0
  142.3160   78.2240  217.9140 C   0  0  0  0  0  0  0  0  0  0  0  0
  142.5500   78.1810  216.1850 Cl  0  0  0  0  0  0  0  0  0  0  0  0
  141.8990   79.4040  218.4990 C   0  0  0  0  0  0  0  0  0  0  0  0
  141.7080   79.4710  219.8520 C   0  0  0  0  0  0  0  0  0  0  0  0
  141.3490   73.8150  221.1720 C   0  0  0  0  0  0  0  0  0  0  0  0
  141.2830   72.4800  220.8430 C   0  0  0  0  0  0  0  0  0  0  0  0
  142.3480   71.7300  220.4270 C   0  0  0  0  0  0  0  0  0  0  0  0
  143.5740   72.3660  220.3340 C   0  0  0  0  0  0  0  0  0  0  0  0
  144.7020   71.6990  219.9260 C   0  0  0  0  0  0  0  0  0  0  0  0
  145.8970   72.4080  219.8580 C   0  0  0  0  0  0  0  0  0  0  0  0
  145.9680   73.7460  220.1870 C   0  0  0  0  0  0  0  0  0  0  0  0
  144.8260   74.4130  220.5980 C   0  0  0  0  0  0  0  0  0  0  0  0
  143.6350   73.7180  220.6690 C   0  0  0  0  0  0  0  0  0  0  0  0
  142.5550   74.4060  221.0730 N   0  0  0  0  0  0  0  0  0  0  0  0
  141.3160   76.1740  222.3730 H   0  0  0  0  0  0  0  0  0  0  0  0
  138.2658   76.1094  222.4284 H   0  0  0  0  0  0  0  0  0  0  0  0
  139.2310   76.7194  223.7939 H   0  0  0  0  0  0  0  0  0  0  0  0
  138.8259   79.8935  223.5516 H   0  0  0  0  0  0  0  0  0  0  0  0
  140.4462   80.1398  224.1609 H   0  0  0  0  0  0  0  0  0  0  0  0
  139.6845   80.8108  221.2398 H   0  0  0  0  0  0  0  0  0  0  0  0
  139.4527   82.0048  222.5652 H   0  0  0  0  0  0  0  0  0  0  0  0
  141.7973   81.3225  221.1061 H   0  0  0  0  0  0  0  0  0  0  0  0
  141.5047   82.5800  222.4257 H   0  0  0  0  0  0  0  0  0  0  0  0
  143.3533   81.3399  223.0259 H   0  0  0  0  0  0  0  0  0  0  0  0
  141.8660   80.8224  224.0291 H   0  0  0  0  0  0  0  0  0  0  0  0
  143.5993   79.3670  222.2486 H   0  0  0  0  0  0  0  0  0  0  0  0
  142.6615   78.9875  223.8416 H   0  0  0  0  0  0  0  0  0  0  0  0
  141.8955   77.5492  222.5132 H   0  0  0  0  0  0  0  0  0  0  0  0
  142.5174   76.3195  220.7060 H   0  0  0  0  0  0  0  0  0  0  0  0
  142.8675   76.1785  218.2588 H   0  0  0  0  0  0  0  0  0  0  0  0
  141.7201   80.2922  217.8752 H   0  0  0  0  0  0  0  0  0  0  0  0
  141.3760   80.4183  220.3019 H   0  0  0  0  0  0  0  0  0  0  0  0
  140.3053   71.9818  220.9201 H   0  0  0  0  0  0  0  0  0  0  0  0
  142.2351   70.6649  220.1765 H   0  0  0  0  0  0  0  0  0  0  0  0
  144.6622   70.6324  219.6599 H   0  0  0  0  0  0  0  0  0  0  0  0
  146.8101   71.8877  219.5331 H   0  0  0  0  0  0  0  0  0  0  0  0
  146.9273   74.2805  220.1231 H   0  0  0  0  0  0  0  0  0  0  0  0
  144.8671   75.4796  220.8637 H   0  0  0  0  0  0  0  0  0  0  0  0
  1  2  2  0
  2  3  1  0
  3  4  1  0
  4  5  1  0
  5  6  2  0
  5  7  1  0
  7  8  1  0
  8  9  1  0
  9 10  1  0
 10 11  1  0
 11 12  1  0
 12 13  1  0
 13 14  1  0
 14 15  2  0
 15 16  1  0
 16 17  2  0
 17 18  1  0
 17 19  1  0
 19 20  2  0
  2 21  1  0
 21 22  2  0
 22 23  1  0
 23 24  2  0
 24 25  1  0
 25 26  2  0
 26 27  1  0
 27 28  2  0
 28 29  1  0
 29 30  2  0
 13  7  1  0
 20 14  1  0
 30 21  1  0
 29 24  1  0
  3 31  1  0
  4 32  1  0
  4 33  1  0
  8 34  1  0
  8 35  1  0
  9 36  1  0
  9 37  1  0
 10 38  1  0
 10 39  1  0
 11 40  1  0
 11 41  1  0
 12 42  1  0
 12 43  1  0
 13 44  1  1
 15 45  1  0
 16 46  1  0
 19 47  1  0
 20 48  1  0
 22 49  1  0
 23 50  1  0
 25 51  1  0
 26 52  1  0
 27 53  1  0
 28 54  1  0
M  END
>  <smiles>  (32) 
O=C(NCC(=O)N1CCCCCC1c1ccc(Cl)cc1)c1ccc2ccccc2n1

>  <score_type>  (32) 
oracle

>  <origin>  (32) 
autodockgpu

>  <m_score__min__energy>  (32) 
-6.9900000000000002

>  <m_primary>  (32) 
energy

>  <rmsd>  (32) 
6.232001723629391

>  <m_score__min__rmsd>  (32) 
6.232001723629391

>  <meeko>  (32) 
{"free_energy": -5.24, "intermolecular_energy": -8.52, "internal_energy": -2.63, "cluster_size": 3, "cluster_id": 9, "rank_in_cluster": 2}

>  <energy>  (32) 
-5.39

>  <cluster_rmsd>  (32) 
0.28

>  <cluster>  (32) 
6

$$$$

     RDKit          3D

 54 57  0  0  0  0  0  0  0  0999 V2000
  139.5140   70.9780  221.3570 O   0  0  0  0  0  0  0  0  0  0  0  0
  139.5640   71.6500  222.4350 C   0  0  0  0  0  0  0  0  0  0  0  0
  139.5110   73.0590  222.4450 N   0  0  0  0  0  0  0  0  0  0  0  0
  139.3940   73.8410  221.2100 C   0  0  0  0  0  0  0  0  0  0  0  0
  140.4440   74.8630  221.2420 C   0  0  0  0  0  0  0  0  0  0  0  0
  140.9060   75.3740  222.3000 O   0  0  0  0  0  0  0  0  0  0  0  0
  140.9880   75.3210  220.0100 N   0  0  0  0  0  0  0  0  0  0  0  0
  141.5490   74.3090  219.1070 C   0  0  0  0  0  0  0  0  0  0  0  0
  142.9300   74.0430  219.7180 C   0  0  0  0  0  0  0  0  0  0  0  0
  143.6970   75.3020  219.7890 C   0  0  0  0  0  0  0  0  0  0  0  0
  143.3160   76.3620  218.8140 C   0  0  0  0  0  0  0  0  0  0  0  0
  142.2340   77.2590  219.1560 C   0  0  0  0  0  0  0  0  0  0  0  0
  140.9610   76.7390  219.7140 C   0  0  2  0  0  0  0  0  0  0  0  0
  140.3340   77.5670  220.7620 C   0  0  0  0  0  0  0  0  0  0  0  0
  138.9830   77.7230  220.9300 C   0  0  0  0  0  0  0  0  0  0  0  0
  138.4770   78.5210  221.9460 C   0  0  0  0  0  0  0  0  0  0  0  0
  139.3300   79.1710  222.8050 C   0  0  0  0  0  0  0  0  0  0  0  0
  138.7500   80.1870  224.1000 Cl  0  0  0  0  0  0  0  0  0  0  0  0
  140.6930   79.0170  222.6400 C   0  0  0  0  0  0  0  0  0  0  0  0
  141.1810   78.2270  221.6350 C   0  0  0  0  0  0  0  0  0  0  0  0
  139.6800   70.9340  223.6940 C   0  0  0  0  0  0  0  0  0  0  0  0
  139.2590   69.6300  223.8300 C   0  0  0  0  0  0  0  0  0  0  0  0
  139.3430   68.9050  224.9870 C   0  0  0  0  0  0  0  0  0  0  0  0
  139.8890   69.5350  226.0920 C   0  0  0  0  0  0  0  0  0  0  0  0
  140.0150   68.8910  227.2980 C   0  0  0  0  0  0  0  0  0  0  0  0
  140.5740   69.5910  228.3620 C   0  0  0  0  0  0  0  0  0  0  0  0
  140.9970   70.8980  228.2290 C   0  0  0  0  0  0  0  0  0  0  0  0
  140.8670   71.5420  227.0100 C   0  0  0  0  0  0  0  0  0  0  0  0
  140.3130   70.8550  225.9480 C   0  0  0  0  0  0  0  0  0  0  0  0
  140.2070   71.5190  224.7860 N   0  0  0  0  0  0  0  0  0  0  0  0
  139.5560   73.5570  223.3610 H   0  0  0  0  0  0  0  0  0  0  0  0
  139.5310   73.1874  220.3359 H   0  0  0  0  0  0  0  0  0  0  0  0
  138.3997   74.3055  221.1351 H   0  0  0  0  0  0  0  0  0  0  0  0
  140.9345   73.3967  219.1025 H   0  0  0  0  0  0  0  0  0  0  0  0
  141.5908   74.6348  218.0572 H   0  0  0  0  0  0  0  0  0  0  0  0
  142.8080   73.6323  220.7311 H   0  0  0  0  0  0  0  0  0  0  0  0
  143.4727   73.3225  219.0884 H   0  0  0  0  0  0  0  0  0  0  0  0
  143.5700   75.7154  220.8004 H   0  0  0  0  0  0  0  0  0  0  0  0
  144.7325   75.0296  219.5369 H   0  0  0  0  0  0  0  0  0  0  0  0
  144.2089   76.9811  218.6423 H   0  0  0  0  0  0  0  0  0  0  0  0
  142.9381   75.8042  217.9445 H   0  0  0  0  0  0  0  0  0  0  0  0
  142.6354   77.9658  219.8972 H   0  0  0  0  0  0  0  0  0  0  0  0
  141.9267   77.6540  218.1764 H   0  0  0  0  0  0  0  0  0  0  0  0
  140.2575   76.8436  218.8749 H   0  0  0  0  0  0  0  0  0  0  0  0
  138.2893   77.2079  220.2492 H   0  0  0  0  0  0  0  0  0  0  0  0
  137.3892   78.6337  222.0642 H   0  0  0  0  0  0  0  0  0  0  0  0
  141.3886   79.5315  223.3192 H   0  0  0  0  0  0  0  0  0  0  0  0
  142.2690   78.1142  221.5186 H   0  0  0  0  0  0  0  0  0  0  0  0
  138.8252   69.1373  222.9474 H   0  0  0  0  0  0  0  0  0  0  0  0
  138.9911   67.8640  225.0372 H   0  0  0  0  0  0  0  0  0  0  0  0
  139.6828   67.8494  227.4195 H   0  0  0  0  0  0  0  0  0  0  0  0
  140.6818   69.0897  229.3352 H   0  0  0  0  0  0  0  0  0  0  0  0
  141.4358   71.4263  229.0883 H   0  0  0  0  0  0  0  0  0  0  0  0
  141.1996   72.5836  226.8897 H   0  0  0  0  0  0  0  0  0  0  0  0
  1  2  2  0
  2  3  1  0
  3  4  1  0
  4  5  1  0
  5  6  2  0
  5  7  1  0
  7  8  1  0
  8  9  1  0
  9 10  1  0
 10 11  1  0
 11 12  1  0
 12 13  1  0
 13 14  1  0
 14 15  2  0
 15 16  1  0
 16 17  2  0
 17 18  1  0
 17 19  1  0
 19 20  2  0
  2 21  1  0
 21 22  2  0
 22 23  1  0
 23 24  2  0
 24 25  1  0
 25 26  2  0
 26 27  1  0
 27 28  2  0
 28 29  1  0
 29 30  2  0
 13  7  1  0
 20 14  1  0
 30 21  1  0
 29 24  1  0
  3 31  1  0
  4 32  1  0
  4 33  1  0
  8 34  1  0
  8 35  1  0
  9 36  1  0
  9 37  1  0
 10 38  1  0
 10 39  1  0
 11 40  1  0
 11 41  1  0
 12 42  1  0
 12 43  1  0
 13 44  1  6
 15 45  1  0
 16 46  1  0
 19 47  1  0
 20 48  1  0
 22 49  1  0
 23 50  1  0
 25 51  1  0
 26 52  1  0
 27 53  1  0
 28 54  1  0
M  END
>  <smiles>  (33) 
O=C(NCC(=O)N1CCCCCC1c1ccc(Cl)cc1)c1ccc2ccccc2n1

>  <score_type>  (33) 
oracle

>  <origin>  (33) 
autodockgpu

>  <m_score__min__energy>  (33) 
-6.9900000000000002

>  <m_primary>  (33) 
energy

>  <rmsd>  (33) 
1.7387142183519078

>  <m_score__min__rmsd>  (33) 
1.7387142183519078

>  <meeko>  (33) 
{"free_energy": -6.55, "intermolecular_energy": -9.83, "internal_energy": -2.04, "cluster_size": 13, "cluster_id": 1, "rank_in_cluster": 6}

>  <energy>  (33) 
-5.36

>  <cluster_rmsd>  (33) 
0.36

>  <cluster>  (33) 
6

$$$$

     RDKit          3D

 54 57  0  0  0  0  0  0  0  0999 V2000
  135.3990   77.2620  223.3890 O   0  0  0  0  0  0  0  0  0  0  0  0
  135.8620   76.0920  223.5750 C   0  0  0  0  0  0  0  0  0  0  0  0
  137.0280   75.6340  222.9270 N   0  0  0  0  0  0  0  0  0  0  0  0
  137.7830   76.4780  221.9970 C   0  0  0  0  0  0  0  0  0  0  0  0
  139.1730   76.5000  222.4610 C   0  0  0  0  0  0  0  0  0  0  0  0
  139.8740   75.4680  222.6540 O   0  0  0  0  0  0  0  0  0  0  0  0
  139.7880   77.7580  222.7150 N   0  0  0  0  0  0  0  0  0  0  0  0
  138.9230   78.8430  223.1950 C   0  0  0  0  0  0  0  0  0  0  0  0
  139.0600   79.8960  222.0890 C   0  0  0  0  0  0  0  0  0  0  0  0
  140.2440   80.7390  222.3450 C   0  0  0  0  0  0  0  0  0  0  0  0
  141.1530   80.2700  223.4320 C   0  0  0  0  0  0  0  0  0  0  0  0
  141.8330   79.0040  223.2660 C   0  0  0  0  0  0  0  0  0  0  0  0
  141.2120   77.9020  222.4900 C   0  0  2  0  0  0  0  0  0  0  0  0
  141.6160   77.8080  221.0740 C   0  0  0  0  0  0  0  0  0  0  0  0
  141.8740   76.6350  220.4110 C   0  0  0  0  0  0  0  0  0  0  0  0
  142.2470   76.6370  219.0750 C   0  0  0  0  0  0  0  0  0  0  0  0
  142.3650   77.8240  218.3920 C   0  0  0  0  0  0  0  0  0  0  0  0
  142.8330   77.8850  216.7110 Cl  0  0  0  0  0  0  0  0  0  0  0  0
  142.1070   79.0080  219.0550 C   0  0  0  0  0  0  0  0  0  0  0  0
  141.7390   78.9940  220.3720 C   0  0  0  0  0  0  0  0  0  0  0  0
  135.1580   75.2050  224.4850 C   0  0  0  0  0  0  0  0  0  0  0  0
  134.3360   75.6860  225.4790 C   0  0  0  0  0  0  0  0  0  0  0  0
  133.6490   74.9030  226.3650 C   0  0  0  0  0  0  0  0  0  0  0  0
  133.7970   73.5320  226.2460 C   0  0  0  0  0  0  0  0  0  0  0  0
  133.1500   72.6620  227.0880 C   0  0  0  0  0  0  0  0  0  0  0  0
  133.3500   71.2980  226.9050 C   0  0  0  0  0  0  0  0  0  0  0  0
  134.1730   70.8110  225.9100 C   0  0  0  0  0  0  0  0  0  0  0  0
  134.8240   71.6940  225.0640 C   0  0  0  0  0  0  0  0  0  0  0  0
  134.6310   73.0500  225.2380 C   0  0  0  0  0  0  0  0  0  0  0  0
  135.2830   73.8670  224.3950 N   0  0  0  0  0  0  0  0  0  0  0  0
  137.3600   74.6640  223.1190 H   0  0  0  0  0  0  0  0  0  0  0  0
  137.7315   76.0588  220.9813 H   0  0  0  0  0  0  0  0  0  0  0  0
  137.3657   77.4953  221.9669 H   0  0  0  0  0  0  0  0  0  0  0  0
  137.8809   78.5052  223.2945 H   0  0  0  0  0  0  0  0  0  0  0  0
  139.2027   79.2166  224.1911 H   0  0  0  0  0  0  0  0  0  0  0  0
  139.1733   79.3926  221.1175 H   0  0  0  0  0  0  0  0  0  0  0  0
  138.1600   80.5283  222.0761 H   0  0  0  0  0  0  0  0  0  0  0  0
  140.8289   80.7907  221.4148 H   0  0  0  0  0  0  0  0  0  0  0  0
  139.8520   81.7100  222.6818 H   0  0  0  0  0  0  0  0  0  0  0  0
  141.9278   81.0400  223.5620 H   0  0  0  0  0  0  0  0  0  0  0  0
  140.4841   80.1055  224.2896 H   0  0  0  0  0  0  0  0  0  0  0  0
  142.7946   79.2262  222.7802 H   0  0  0  0  0  0  0  0  0  0  0  0
  141.8503   78.6011  224.2894 H   0  0  0  0  0  0  0  0  0  0  0  0
  141.6643   77.0001  222.9281 H   0  0  0  0  0  0  0  0  0  0  0  0
  141.7837   75.6786  220.9469 H   0  0  0  0  0  0  0  0  0  0  0  0
  142.4489   75.6859  218.5606 H   0  0  0  0  0  0  0  0  0  0  0  0
  142.1979   79.9657  218.5216 H   0  0  0  0  0  0  0  0  0  0  0  0
  141.5364   79.9461  220.8843 H   0  0  0  0  0  0  0  0  0  0  0  0
  134.2239   76.7767  225.5667 H   0  0  0  0  0  0  0  0  0  0  0  0
  133.0054   75.3445  227.1402 H   0  0  0  0  0  0  0  0  0  0  0  0
  132.4908   73.0339  227.8863 H   0  0  0  0  0  0  0  0  0  0  0  0
  132.8383   70.5880  227.5714 H   0  0  0  0  0  0  0  0  0  0  0  0
  134.3115   69.7265  225.7892 H   0  0  0  0  0  0  0  0  0  0  0  0
  135.4838   71.3209  224.2668 H   0  0  0  0  0  0  0  0  0  0  0  0
  1  2  2  0
  2  3  1  0
  3  4  1  0
  4  5  1  0
  5  6  2  0
  5  7  1  0
  7  8  1  0
  8  9  1  0
  9 10  1  0
 10 11  1  0
 11 12  1  0
 12 13  1  0
 13 14  1  0
 14 15  2  0
 15 16  1  0
 16 17  2  0
 17 18  1  0
 17 19  1  0
 19 20  2  0
  2 21  1  0
 21 22  2  0
 22 23  1  0
 23 24  2  0
 24 25  1  0
 25 26  2  0
 26 27  1  0
 27 28  2  0
 28 29  1  0
 29 30  2  0
 13  7  1  0
 20 14  1  0
 30 21  1  0
 29 24  1  0
  3 31  1  0
  4 32  1  0
  4 33  1  0
  8 34  1  0
  8 35  1  0
  9 36  1  0
  9 37  1  0
 10 38  1  0
 10 39  1  0
 11 40  1  0
 11 41  1  0
 12 42  1  0
 12 43  1  0
 13 44  1  1
 15 45  1  0
 16 46  1  0
 19 47  1  0
 20 48  1  0
 22 49  1  0
 23 50  1  0
 25 51  1  0
 26 52  1  0
 27 53  1  0
 28 54  1  0
M  END
>  <smiles>  (34) 
O=C(NCC(=O)N1CCCCCC1c1ccc(Cl)cc1)c1ccc2ccccc2n1

>  <score_type>  (34) 
oracle

>  <origin>  (34) 
autodockgpu

>  <m_score__min__energy>  (34) 
-6.9900000000000002

>  <m_primary>  (34) 
energy

>  <rmsd>  (34) 
6.197508553542668

>  <m_score__min__rmsd>  (34) 
6.197508553542668

>  <meeko>  (34) 
{"free_energy": -5.32, "intermolecular_energy": -8.6, "internal_energy": -1.9, "cluster_size": 1, "cluster_id": 10, "rank_in_cluster": 1}

>  <energy>  (34) 
-5.24

>  <cluster_rmsd>  (34) 
0.47

>  <cluster>  (34) 
6

$$$$

     RDKit          3D

 54 57  0  0  0  0  0  0  0  0999 V2000
  140.5490   71.0950  221.3130 O   0  0  0  0  0  0  0  0  0  0  0  0
  140.2470   71.8070  222.3230 C   0  0  0  0  0  0  0  0  0  0  0  0
  139.9830   73.1880  222.2160 N   0  0  0  0  0  0  0  0  0  0  0  0
  140.0390   73.8930  220.9330 C   0  0  0  0  0  0  0  0  0  0  0  0
  140.5480   75.2410  221.1990 C   0  0  0  0  0  0  0  0  0  0  0  0
  140.5620   75.7830  222.3390 O   0  0  0  0  0  0  0  0  0  0  0  0
  141.0650   76.0020  220.1130 N   0  0  0  0  0  0  0  0  0  0  0  0
  140.0910   76.6510  219.2270 C   0  0  0  0  0  0  0  0  0  0  0  0
  139.8690   78.0070  219.9080 C   0  0  0  0  0  0  0  0  0  0  0  0
  141.1590   78.7080  220.0590 C   0  0  0  0  0  0  0  0  0  0  0  0
  142.1700   78.4410  218.9990 C   0  0  0  0  0  0  0  0  0  0  0  0
  142.9260   77.2100  219.0580 C   0  0  0  0  0  0  0  0  0  0  0  0
  142.5000   76.0960  219.9410 C   0  0  2  0  0  0  0  0  0  0  0  0
  143.1700   74.8020  219.7100 C   0  0  0  0  0  0  0  0  0  0  0  0
  142.7380   73.8440  218.8290 C   0  0  0  0  0  0  0  0  0  0  0  0
  143.4300   72.6520  218.6730 C   0  0  0  0  0  0  0  0  0  0  0  0
  144.5680   72.4130  219.4050 C   0  0  0  0  0  0  0  0  0  0  0  0
  145.4780   70.9320  219.2500 Cl  0  0  0  0  0  0  0  0  0  0  0  0
  145.0080   73.3740  220.2940 C   0  0  0  0  0  0  0  0  0  0  0  0
  144.3180   74.5460  220.4400 C   0  0  0  0  0  0  0  0  0  0  0  0
  140.1760   71.1670  223.6260 C   0  0  0  0  0  0  0  0  0  0  0  0
  139.6240   69.9170  223.7920 C   0  0  0  0  0  0  0  0  0  0  0  0
  139.5290   69.2650  224.9910 C   0  0  0  0  0  0  0  0  0  0  0  0
  140.0240   69.9150  226.1080 C   0  0  0  0  0  0  0  0  0  0  0  0
  139.9740   69.3440  227.3540 C   0  0  0  0  0  0  0  0  0  0  0  0
  140.4930   70.0600  228.4280 C   0  0  0  0  0  0  0  0  0  0  0  0
  141.0470   71.3130  228.2650 C   0  0  0  0  0  0  0  0  0  0  0  0
  141.0940   71.8840  227.0050 C   0  0  0  0  0  0  0  0  0  0  0  0
  140.5820   71.1810  225.9320 C   0  0  0  0  0  0  0  0  0  0  0  0
  140.6490   71.7750  224.7300 N   0  0  0  0  0  0  0  0  0  0  0  0
  139.7410   73.7200  223.0800 H   0  0  0  0  0  0  0  0  0  0  0  0
  140.7134   73.3653  220.2425 H   0  0  0  0  0  0  0  0  0  0  0  0
  139.0427   73.9372  220.4689 H   0  0  0  0  0  0  0  0  0  0  0  0
  140.4994   76.7780  218.2135 H   0  0  0  0  0  0  0  0  0  0  0  0
  139.1655   76.0712  219.0957 H   0  0  0  0  0  0  0  0  0  0  0  0
  139.1913   78.6177  219.2933 H   0  0  0  0  0  0  0  0  0  0  0  0
  139.4248   77.8460  220.9014 H   0  0  0  0  0  0  0  0  0  0  0  0
  140.9565   79.7892  220.0675 H   0  0  0  0  0  0  0  0  0  0  0  0
  141.5981   78.3274  220.9930 H   0  0  0  0  0  0  0  0  0  0  0  0
  141.6396   78.4499  218.0354 H   0  0  0  0  0  0  0  0  0  0  0  0
  142.9256   79.2270  219.1449 H   0  0  0  0  0  0  0  0  0  0  0  0
  142.9492   76.8073  218.0346 H   0  0  0  0  0  0  0  0  0  0  0  0
  143.8761   77.5296  219.5110 H   0  0  0  0  0  0  0  0  0  0  0  0
  142.8885   76.3938  220.9261 H   0  0  0  0  0  0  0  0  0  0  0  0
  141.8286   74.0236  218.2368 H   0  0  0  0  0  0  0  0  0  0  0  0
  143.0667   71.8960  217.9613 H   0  0  0  0  0  0  0  0  0  0  0  0
  145.9171   73.1962  220.8871 H   0  0  0  0  0  0  0  0  0  0  0  0
  144.6829   75.3007  221.1522 H   0  0  0  0  0  0  0  0  0  0  0  0
  139.2324   69.4073  222.8993 H   0  0  0  0  0  0  0  0  0  0  0  0
  139.0775   68.2646  225.0642 H   0  0  0  0  0  0  0  0  0  0  0  0
  139.5350   68.3461  227.5003 H   0  0  0  0  0  0  0  0  0  0  0  0
  140.4608   69.6154  229.4336 H   0  0  0  0  0  0  0  0  0  0  0  0
  141.4497   71.8560  229.1328 H   0  0  0  0  0  0  0  0  0  0  0  0
  141.5324   72.8824  226.8604 H   0  0  0  0  0  0  0  0  0  0  0  0
  1  2  2  0
  2  3  1  0
  3  4  1  0
  4  5  1  0
  5  6  2  0
  5  7  1  0
  7  8  1  0
  8  9  1  0
  9 10  1  0
 10 11  1  0
 11 12  1  0
 12 13  1  0
 13 14  1  0
 14 15  2  0
 15 16  1  0
 16 17  2  0
 17 18  1  0
 17 19  1  0
 19 20  2  0
  2 21  1  0
 21 22  2  0
 22 23  1  0
 23 24  2  0
 24 25  1  0
 25 26  2  0
 26 27  1  0
 27 28  2  0
 28 29  1  0
 29 30  2  0
 13  7  1  0
 20 14  1  0
 30 21  1  0
 29 24  1  0
  3 31  1  0
  4 32  1  0
  4 33  1  0
  8 34  1  0
  8 35  1  0
  9 36  1  0
  9 37  1  0
 10 38  1  0
 10 39  1  0
 11 40  1  0
 11 41  1  0
 12 42  1  0
 12 43  1  0
 13 44  1  1
 15 45  1  0
 16 46  1  0
 19 47  1  0
 20 48  1  0
 22 49  1  0
 23 50  1  0
 25 51  1  0
 26 52  1  0
 27 53  1  0
 28 54  1  0
M  END
>  <smiles>  (35) 
O=C(NCC(=O)N1CCCCCC1c1ccc(Cl)cc1)c1ccc2ccccc2n1

>  <score_type>  (35) 
oracle

>  <origin>  (35) 
autodockgpu

>  <m_score__min__energy>  (35) 
-6.9900000000000002

>  <m_primary>  (35) 
energy

>  <rmsd>  (35) 
1.9725170923136766

>  <m_score__min__rmsd>  (35) 
1.9725170923136766

>  <meeko>  (35) 
{"free_energy": -6.39, "intermolecular_energy": -9.68, "internal_energy": -2.33, "cluster_size": 4, "cluster_id": 3, "rank_in_cluster": 1}

>  <energy>  (35) 
-5.07

>  <cluster_rmsd>  (35) 
0.23

>  <cluster>  (35) 
6

$$$$

     RDKit          3D

 54 57  0  0  0  0  0  0  0  0999 V2000
  137.7750   75.8190  222.3050 O   0  0  0  0  0  0  0  0  0  0  0  0
  139.0260   76.0470  222.3380 C   0  0  0  0  0  0  0  0  0  0  0  0
  139.9790   75.0450  222.0640 N   0  0  0  0  0  0  0  0  0  0  0  0
  139.5890   73.6730  221.7230 C   0  0  0  0  0  0  0  0  0  0  0  0
  140.5620   73.1750  220.7470 C   0  0  0  0  0  0  0  0  0  0  0  0
  140.6320   71.9750  220.3620 O   0  0  0  0  0  0  0  0  0  0  0  0
  141.4960   74.0900  220.1860 N   0  0  0  0  0  0  0  0  0  0  0  0
  142.8070   74.1940  220.8370 C   0  0  0  0  0  0  0  0  0  0  0  0
  143.7440   73.5460  219.8120 C   0  0  0  0  0  0  0  0  0  0  0  0
  144.0480   74.5060  218.7340 C   0  0  0  0  0  0  0  0  0  0  0  0
  143.1500   74.4620  217.5430 C   0  0  0  0  0  0  0  0  0  0  0  0
  141.7220   74.3790  217.7560 C   0  0  0  0  0  0  0  0  0  0  0  0
  141.1120   74.8600  219.0200 C   0  0  2  0  0  0  0  0  0  0  0  0
  141.1280   76.3210  219.2250 C   0  0  0  0  0  0  0  0  0  0  0  0
  142.2520   77.0610  219.4900 C   0  0  0  0  0  0  0  0  0  0  0  0
  142.1770   78.4340  219.6680 C   0  0  0  0  0  0  0  0  0  0  0  0
  140.9660   79.0780  219.5810 C   0  0  0  0  0  0  0  0  0  0  0  0
  140.8130   80.8040  219.7980 Cl  0  0  0  0  0  0  0  0  0  0  0  0
  139.8310   78.3380  219.3150 C   0  0  0  0  0  0  0  0  0  0  0  0
  139.9160   76.9840  219.1400 C   0  0  0  0  0  0  0  0  0  0  0  0
  139.4780   77.3880  222.6710 C   0  0  0  0  0  0  0  0  0  0  0  0
  138.5930   78.4120  222.9200 C   0  0  0  0  0  0  0  0  0  0  0  0
  138.9570   79.6920  223.2360 C   0  0  0  0  0  0  0  0  0  0  0  0
  140.3120   79.9660  223.3090 C   0  0  0  0  0  0  0  0  0  0  0  0
  140.7770   81.2190  223.6190 C   0  0  0  0  0  0  0  0  0  0  0  0
  142.1530   81.4160  223.6710 C   0  0  0  0  0  0  0  0  0  0  0  0
  143.0430   80.3920  223.4220 C   0  0  0  0  0  0  0  0  0  0  0  0
  142.5670   79.1300  223.1090 C   0  0  0  0  0  0  0  0  0  0  0  0
  141.2030   78.9240  223.0550 C   0  0  0  0  0  0  0  0  0  0  0  0
  140.7880   77.6850  222.7470 N   0  0  0  0  0  0  0  0  0  0  0  0
  140.9920   75.2910  222.1070 H   0  0  0  0  0  0  0  0  0  0  0  0
  139.6029   73.0424  222.6242 H   0  0  0  0  0  0  0  0  0  0  0  0
  138.5712   73.6488  221.3065 H   0  0  0  0  0  0  0  0  0  0  0  0
  143.0794   75.2448  221.0148 H   0  0  0  0  0  0  0  0  0  0  0  0
  142.8427   73.7139  221.8261 H   0  0  0  0  0  0  0  0  0  0  0  0
  144.6787   73.2477  220.3094 H   0  0  0  0  0  0  0  0  0  0  0  0
  143.2536   72.6605  219.3814 H   0  0  0  0  0  0  0  0  0  0  0  0
  143.9918   75.5186  219.1600 H   0  0  0  0  0  0  0  0  0  0  0  0
  145.0451   74.2271  218.3626 H   0  0  0  0  0  0  0  0  0  0  0  0
  143.3385   75.3760  216.9607 H   0  0  0  0  0  0  0  0  0  0  0  0
  143.4036   73.5116  217.0506 H   0  0  0  0  0  0  0  0  0  0  0  0
  141.2501   74.9502  216.9430 H   0  0  0  0  0  0  0  0  0  0  0  0
  141.5447   73.2942  217.7974 H   0  0  0  0  0  0  0  0  0  0  0  0
  140.0417   74.6502  218.8773 H   0  0  0  0  0  0  0  0  0  0  0  0
  143.2274   76.5577  219.5624 H   0  0  0  0  0  0  0  0  0  0  0  0
  143.0900   79.0099  219.8796 H   0  0  0  0  0  0  0  0  0  0  0  0
  138.8545   78.8393  219.2435 H   0  0  0  0  0  0  0  0  0  0  0  0
  139.0020   76.4101  218.9273 H   0  0  0  0  0  0  0  0  0  0  0  0
  137.5182   78.1854  222.8608 H   0  0  0  0  0  0  0  0  0  0  0  0
  138.2041   80.4716  223.4243 H   0  0  0  0  0  0  0  0  0  0  0  0
  140.0802   82.0458  223.8211 H   0  0  0  0  0  0  0  0  0  0  0  0
  142.5418   82.4151  223.9173 H   0  0  0  0  0  0  0  0  0  0  0  0
  144.1262   80.5772  223.4719 H   0  0  0  0  0  0  0  0  0  0  0  0
  143.2649   78.3043  222.9065 H   0  0  0  0  0  0  0  0  0  0  0  0
  1  2  2  0
  2  3  1  0
  3  4  1  0
  4  5  1  0
  5  6  2  0
  5  7  1  0
  7  8  1  0
  8  9  1  0
  9 10  1  0
 10 11  1  0
 11 12  1  0
 12 13  1  0
 13 14  1  0
 14 15  2  0
 15 16  1  0
 16 17  2  0
 17 18  1  0
 17 19  1  0
 19 20  2  0
  2 21  1  0
 21 22  2  0
 22 23  1  0
 23 24  2  0
 24 25  1  0
 25 26  2  0
 26 27  1  0
 27 28  2  0
 28 29  1  0
 29 30  2  0
 13  7  1  0
 20 14  1  0
 30 21  1  0
 29 24  1  0
  3 31  1  0
  4 32  1  0
  4 33  1  0
  8 34  1  0
  8 35  1  0
  9 36  1  0
  9 37  1  0
 10 38  1  0
 10 39  1  0
 11 40  1  0
 11 41  1  0
 12 42  1  0
 12 43  1  0
 13 44  1  6
 15 45  1  0
 16 46  1  0
 19 47  1  0
 20 48  1  0
 22 49  1  0
 23 50  1  0
 25 51  1  0
 26 52  1  0
 27 53  1  0
 28 54  1  0
M  END
>  <smiles>  (36) 
O=C(NCC(=O)N1CCCCCC1c1ccc(Cl)cc1)c1ccc2ccccc2n1

>  <score_type>  (36) 
oracle

>  <origin>  (36) 
autodockgpu

>  <m_score__min__energy>  (36) 
-6.9900000000000002

>  <m_primary>  (36) 
energy

>  <rmsd>  (36) 
7.363636752936297

>  <m_score__min__rmsd>  (36) 
7.363636752936297

>  <meeko>  (36) 
{"free_energy": -4.03, "intermolecular_energy": -7.31, "internal_energy": -3.73, "cluster_size": 12, "cluster_id": 6, "rank_in_cluster": 11}

>  <energy>  (36) 
-4.97

>  <cluster_rmsd>  (36) 
1.21

>  <cluster>  (36) 
6

$$$$

     RDKit          3D

 54 57  0  0  0  0  0  0  0  0999 V2000
  140.0080   71.1610  221.2840 O   0  0  0  0  0  0  0  0  0  0  0  0
  139.8700   71.8580  222.3390 C   0  0  0  0  0  0  0  0  0  0  0  0
  139.6700   73.2530  222.2960 N   0  0  0  0  0  0  0  0  0  0  0  0
  139.6080   73.9900  221.0300 C   0  0  0  0  0  0  0  0  0  0  0  0
  140.2700   75.2800  221.2460 C   0  0  0  0  0  0  0  0  0  0  0  0
  140.1440   75.9770  222.2910 O   0  0  0  0  0  0  0  0  0  0  0  0
  141.1120   75.7950  220.2210 N   0  0  0  0  0  0  0  0  0  0  0  0
  140.4740   76.5960  219.1690 C   0  0  0  0  0  0  0  0  0  0  0  0
  140.6580   75.7210  217.9240 C   0  0  0  0  0  0  0  0  0  0  0  0
  142.0040   75.9320  217.3570 C   0  0  0  0  0  0  0  0  0  0  0  0
  142.9060   76.8330  218.1230 C   0  0  0  0  0  0  0  0  0  0  0  0
  143.3540   76.4180  219.4340 C   0  0  0  0  0  0  0  0  0  0  0  0
  142.5310   75.5080  220.2670 C   0  0  2  0  0  0  0  0  0  0  0  0
  142.8640   74.0730  220.1710 C   0  0  0  0  0  0  0  0  0  0  0  0
  143.8800   73.4580  220.8560 C   0  0  0  0  0  0  0  0  0  0  0  0
  144.1230   72.1010  220.7070 C   0  0  0  0  0  0  0  0  0  0  0  0
  143.3420   71.3470  219.8640 C   0  0  0  0  0  0  0  0  0  0  0  0
  143.6030   69.6360  219.6370 Cl  0  0  0  0  0  0  0  0  0  0  0  0
  142.3170   71.9610  219.1710 C   0  0  0  0  0  0  0  0  0  0  0  0
  142.0860   73.3010  219.3260 C   0  0  0  0  0  0  0  0  0  0  0  0
  139.9220   71.1860  223.6260 C   0  0  0  0  0  0  0  0  0  0  0  0
  139.4960   69.8870  223.7860 C   0  0  0  0  0  0  0  0  0  0  0  0
  139.5200   69.2030  224.9700 C   0  0  0  0  0  0  0  0  0  0  0  0
  140.0080   69.8710  226.0790 C   0  0  0  0  0  0  0  0  0  0  0  0
  140.0730   69.2700  227.3110 C   0  0  0  0  0  0  0  0  0  0  0  0
  140.5760   70.0080  228.3780 C   0  0  0  0  0  0  0  0  0  0  0  0
  141.0040   71.3110  228.2220 C   0  0  0  0  0  0  0  0  0  0  0  0
  140.9360   71.9110  226.9760 C   0  0  0  0  0  0  0  0  0  0  0  0
  140.4380   71.1870  225.9110 C   0  0  0  0  0  0  0  0  0  0  0  0
  140.3910   71.8100  224.7230 N   0  0  0  0  0  0  0  0  0  0  0  0
  139.5630   73.7730  223.1940 H   0  0  0  0  0  0  0  0  0  0  0  0
  140.1278   73.4273  220.2406 H   0  0  0  0  0  0  0  0  0  0  0  0
  138.5645   74.1350  220.7135 H   0  0  0  0  0  0  0  0  0  0  0  0
  139.4079   76.7591  219.3856 H   0  0  0  0  0  0  0  0  0  0  0  0
  140.9050   77.6026  219.0637 H   0  0  0  0  0  0  0  0  0  0  0  0
  140.5406   74.6630  218.2011 H   0  0  0  0  0  0  0  0  0  0  0  0
  139.9017   75.9947  217.1736 H   0  0  0  0  0  0  0  0  0  0  0  0
  142.4945   74.9502  217.2828 H   0  0  0  0  0  0  0  0  0  0  0  0
  141.8410   76.4313  216.3905 H   0  0  0  0  0  0  0  0  0  0  0  0
  143.8048   76.9897  217.5085 H   0  0  0  0  0  0  0  0  0  0  0  0
  142.2893   77.7221  218.3211 H   0  0  0  0  0  0  0  0  0  0  0  0
  144.3241   75.9197  219.2904 H   0  0  0  0  0  0  0  0  0  0  0  0
  143.3333   77.3570  220.0065 H   0  0  0  0  0  0  0  0  0  0  0  0
  142.8411   75.7576  221.2924 H   0  0  0  0  0  0  0  0  0  0  0  0
  144.5121   74.0501  221.5342 H   0  0  0  0  0  0  0  0  0  0  0  0
  144.9434   71.6264  221.2652 H   0  0  0  0  0  0  0  0  0  0  0  0
  141.6841   71.3708  218.4920 H   0  0  0  0  0  0  0  0  0  0  0  0
  141.2650   73.7742  218.7674 H   0  0  0  0  0  0  0  0  0  0  0  0
  139.1093   69.3625  222.8998 H   0  0  0  0  0  0  0  0  0  0  0  0
  139.1657   68.1638  225.0379 H   0  0  0  0  0  0  0  0  0  0  0  0
  139.7363   68.2322  227.4513 H   0  0  0  0  0  0  0  0  0  0  0  0
  140.6341   69.5407  229.3721 H   0  0  0  0  0  0  0  0  0  0  0  0
  141.3973   71.8702  229.0837 H   0  0  0  0  0  0  0  0  0  0  0  0
  141.2736   72.9486  226.8367 H   0  0  0  0  0  0  0  0  0  0  0  0
  1  2  2  0
  2  3  1  0
  3  4  1  0
  4  5  1  0
  5  6  2  0
  5  7  1  0
  7  8  1  0
  8  9  1  0
  9 10  1  0
 10 11  1  0
 11 12  1  0
 12 13  1  0
 13 14  1  0
 14 15  2  0
 15 16  1  0
 16 17  2  0
 17 18  1  0
 17 19  1  0
 19 20  2  0
  2 21  1  0
 21 22  2  0
 22 23  1  0
 23 24  2  0
 24 25  1  0
 25 26  2  0
 26 27  1  0
 27 28  2  0
 28 29  1  0
 29 30  2  0
 13  7  1  0
 20 14  1  0
 30 21  1  0
 29 24  1  0
  3 31  1  0
  4 32  1  0
  4 33  1  0
  8 34  1  0
  8 35  1  0
  9 36  1  0
  9 37  1  0
 10 38  1  0
 10 39  1  0
 11 40  1  0
 11 41  1  0
 12 42  1  0
 12 43  1  0
 13 44  1  1
 15 45  1  0
 16 46  1  0
 19 47  1  0
 20 48  1  0
 22 49  1  0
 23 50  1  0
 25 51  1  0
 26 52  1  0
 27 53  1  0
 28 54  1  0
M  END
>  <smiles>  (37) 
O=C(NCC(=O)N1CCCCCC1c1ccc(Cl)cc1)c1ccc2ccccc2n1

>  <score_type>  (37) 
oracle

>  <origin>  (37) 
autodockgpu

>  <m_score__min__energy>  (37) 
-6.9900000000000002

>  <m_primary>  (37) 
energy

>  <rmsd>  (37) 
1.8367232202696346

>  <m_score__min__rmsd>  (37) 
1.8367232202696346

>  <meeko>  (37) 
{"free_energy": -5.56, "intermolecular_energy": -8.84, "internal_energy": -2.53, "cluster_size": 4, "cluster_id": 3, "rank_in_cluster": 4}

>  <energy>  (37) 
-4.03

>  <cluster_rmsd>  (37) 
1.89

>  <cluster>  (37) 
6

$$$$

     RDKit          3D

 54 57  0  0  0  0  0  0  0  0999 V2000
  138.9300   72.4060  222.6960 O   0  0  0  0  0  0  0  0  0  0  0  0
  140.0810   71.9530  222.9930 C   0  0  0  0  0  0  0  0  0  0  0  0
  141.1870   72.0920  222.1310 N   0  0  0  0  0  0  0  0  0  0  0  0
  141.0830   72.7680  220.8340 C   0  0  0  0  0  0  0  0  0  0  0  0
  142.3930   73.3560  220.5440 C   0  0  0  0  0  0  0  0  0  0  0  0
  143.4730   72.7020  220.5040 O   0  0  0  0  0  0  0  0  0  0  0  0
  142.4720   74.7530  220.2880 N   0  0  0  0  0  0  0  0  0  0  0  0
  143.8050   75.3150  220.0390 C   0  0  0  0  0  0  0  0  0  0  0  0
  143.6320   76.0000  218.6790 C   0  0  0  0  0  0  0  0  0  0  0  0
  142.7810   75.1700  217.8050 C   0  0  0  0  0  0  0  0  0  0  0  0
  141.3410   75.5510  217.7390 C   0  0  0  0  0  0  0  0  0  0  0  0
  140.5770   75.5910  218.9670 C   0  0  0  0  0  0  0  0  0  0  0  0
  141.2540   75.5380  220.2870 C   0  0  2  0  0  0  0  0  0  0  0  0
  141.3570   76.8210  221.0080 C   0  0  0  0  0  0  0  0  0  0  0  0
  141.7410   78.0080  220.4390 C   0  0  0  0  0  0  0  0  0  0  0  0
  141.8100   79.1710  221.1920 C   0  0  0  0  0  0  0  0  0  0  0  0
  141.4930   79.1500  222.5290 C   0  0  0  0  0  0  0  0  0  0  0  0
  141.5630   80.5820  223.5240 Cl  0  0  0  0  0  0  0  0  0  0  0  0
  141.1060   77.9560  223.1070 C   0  0  0  0  0  0  0  0  0  0  0  0
  141.0410   76.8160  222.3550 C   0  0  0  0  0  0  0  0  0  0  0  0
  140.2500   71.2710  224.2650 C   0  0  0  0  0  0  0  0  0  0  0  0
  140.8490   71.8820  225.3430 C   0  0  0  0  0  0  0  0  0  0  0  0
  141.0370   71.2930  226.5630 C   0  0  0  0  0  0  0  0  0  0  0  0
  140.5900   69.9920  226.7140 C   0  0  0  0  0  0  0  0  0  0  0  0
  140.7330   69.3150  227.8990 C   0  0  0  0  0  0  0  0  0  0  0  0
  140.2580   68.0090  227.9730 C   0  0  0  0  0  0  0  0  0  0  0  0
  139.6570   67.3930  226.8940 C   0  0  0  0  0  0  0  0  0  0  0  0
  139.5160   68.0820  225.7010 C   0  0  0  0  0  0  0  0  0  0  0  0
  139.9840   69.3780  225.6180 C   0  0  0  0  0  0  0  0  0  0  0  0
  139.8270   70.0060  224.4420 N   0  0  0  0  0  0  0  0  0  0  0  0
  142.1070   71.7000  222.4280 H   0  0  0  0  0  0  0  0  0  0  0  0
  140.8142   72.0428  220.0518 H   0  0  0  0  0  0  0  0  0  0  0  0
  140.3044   73.5445  220.8605 H   0  0  0  0  0  0  0  0  0  0  0  0
  144.0809   76.0419  220.8172 H   0  0  0  0  0  0  0  0  0  0  0  0
  144.6060   74.5611  220.0498 H   0  0  0  0  0  0  0  0  0  0  0  0
  143.1589   76.9826  218.8228 H   0  0  0  0  0  0  0  0  0  0  0  0
  144.6184   76.1282  218.2093 H   0  0  0  0  0  0  0  0  0  0  0  0
  143.1906   75.2258  216.7856 H   0  0  0  0  0  0  0  0  0  0  0  0
  142.8003   74.1617  218.2444 H   0  0  0  0  0  0  0  0  0  0  0  0
  141.2918   76.5557  217.2939 H   0  0  0  0  0  0  0  0  0  0  0  0
  140.8757   74.7392  217.1606 H   0  0  0  0  0  0  0  0  0  0  0  0
  140.0012   76.5281  218.9475 H   0  0  0  0  0  0  0  0  0  0  0  0
  140.0223   74.6415  218.9396 H   0  0  0  0  0  0  0  0  0  0  0  0
  140.5462   74.9715  220.9100 H   0  0  0  0  0  0  0  0  0  0  0  0
  141.9981   78.0385  219.3699 H   0  0  0  0  0  0  0  0  0  0  0  0
  142.1196   80.1136  220.7171 H   0  0  0  0  0  0  0  0  0  0  0  0
  140.8493   77.9226  224.1761 H   0  0  0  0  0  0  0  0  0  0  0  0
  140.7307   75.8743  222.8313 H   0  0  0  0  0  0  0  0  0  0  0  0
  141.2011   72.9162  225.2144 H   0  0  0  0  0  0  0  0  0  0  0  0
  141.5234   71.8311  227.3900 H   0  0  0  0  0  0  0  0  0  0  0  0
  141.2105   69.7920  228.7676 H   0  0  0  0  0  0  0  0  0  0  0  0
  140.3643   67.4531  228.9162 H   0  0  0  0  0  0  0  0  0  0  0  0
  139.2915   66.3592  226.9813 H   0  0  0  0  0  0  0  0  0  0  0  0
  139.0385   67.6039  224.8330 H   0  0  0  0  0  0  0  0  0  0  0  0
  1  2  2  0
  2  3  1  0
  3  4  1  0
  4  5  1  0
  5  6  2  0
  5  7  1  0
  7  8  1  0
  8  9  1  0
  9 10  1  0
 10 11  1  0
 11 12  1  0
 12 13  1  0
 13 14  1  0
 14 15  2  0
 15 16  1  0
 16 17  2  0
 17 18  1  0
 17 19  1  0
 19 20  2  0
  2 21  1  0
 21 22  2  0
 22 23  1  0
 23 24  2  0
 24 25  1  0
 25 26  2  0
 26 27  1  0
 27 28  2  0
 28 29  1  0
 29 30  2  0
 13  7  1  0
 20 14  1  0
 30 21  1  0
 29 24  1  0
  3 31  1  0
  4 32  1  0
  4 33  1  0
  8 34  1  0
  8 35  1  0
  9 36  1  0
  9 37  1  0
 10 38  1  0
 10 39  1  0
 11 40  1  0
 11 41  1  0
 12 42  1  0
 12 43  1  0
 13 44  1  1
 15 45  1  0
 16 46  1  0
 19 47  1  0
 20 48  1  0
 22 49  1  0
 23 50  1  0
 25 51  1  0
 26 52  1  0
 27 53  1  0
 28 54  1  0
M  END
>  <smiles>  (38) 
O=C(NCC(=O)N1CCCCCC1c1ccc(Cl)cc1)c1ccc2ccccc2n1

>  <score_type>  (38) 
oracle

>  <origin>  (38) 
autodockgpu

>  <m_score__min__energy>  (38) 
-6.9900000000000002

>  <m_primary>  (38) 
energy

>  <rmsd>  (38) 
3.4383915594926524

>  <m_score__min__rmsd>  (38) 
3.4383915594926524

>  <meeko>  (38) 
{"free_energy": -6.47, "intermolecular_energy": -9.75, "internal_energy": -1.81, "cluster_size": 13, "cluster_id": 1, "rank_in_cluster": 7}

>  <energy>  (38) 
-3.85

>  <cluster_rmsd>  (38) 
1.42

>  <cluster>  (38) 
6

$$$$

     RDKit          3D

 54 57  0  0  0  0  0  0  0  0999 V2000
  141.0430   71.9840  221.6510 O   0  0  0  0  0  0  0  0  0  0  0  0
  140.1340   72.2370  222.5030 C   0  0  0  0  0  0  0  0  0  0  0  0
  139.1930   73.2700  222.3130 N   0  0  0  0  0  0  0  0  0  0  0  0
  139.2020   74.1200  221.1190 C   0  0  0  0  0  0  0  0  0  0  0  0
  140.4070   74.9520  221.1870 C   0  0  0  0  0  0  0  0  0  0  0  0
  140.9130   75.3830  222.2610 O   0  0  0  0  0  0  0  0  0  0  0  0
  141.0600   75.3080  219.9750 N   0  0  0  0  0  0  0  0  0  0  0  0
  141.8090   74.2520  219.2820 C   0  0  0  0  0  0  0  0  0  0  0  0
  143.2040   74.3640  219.9070 C   0  0  0  0  0  0  0  0  0  0  0  0
  143.7220   75.7350  219.7330 C   0  0  0  0  0  0  0  0  0  0  0  0
  143.2950   76.4600  218.5030 C   0  0  0  0  0  0  0  0  0  0  0  0
  141.9620   77.0200  218.4600 C   0  0  0  0  0  0  0  0  0  0  0  0
  140.9560   76.6710  219.4930 C   0  0  2  0  0  0  0  0  0  0  0  0
  140.7500   77.6750  220.5540 C   0  0  0  0  0  0  0  0  0  0  0  0
  139.5280   78.0380  221.0600 C   0  0  0  0  0  0  0  0  0  0  0  0
  139.4250   78.9930  222.0610 C   0  0  0  0  0  0  0  0  0  0  0  0
  140.5540   79.5930  222.5640 C   0  0  0  0  0  0  0  0  0  0  0  0
  140.4830   80.8000  223.8220 Cl  0  0  0  0  0  0  0  0  0  0  0  0
  141.7870   79.2310  222.0580 C   0  0  0  0  0  0  0  0  0  0  0  0
  141.8780   78.2880  221.0710 C   0  0  0  0  0  0  0  0  0  0  0  0
  140.0710   71.4300  223.7100 C   0  0  0  0  0  0  0  0  0  0  0  0
  139.5240   70.1670  223.7120 C   0  0  0  0  0  0  0  0  0  0  0  0
  139.4360   69.3620  224.8150 C   0  0  0  0  0  0  0  0  0  0  0  0
  139.9350   69.8600  226.0050 C   0  0  0  0  0  0  0  0  0  0  0  0
  139.8930   69.1290  227.1660 C   0  0  0  0  0  0  0  0  0  0  0  0
  140.4150   69.6990  228.3230 C   0  0  0  0  0  0  0  0  0  0  0  0
  140.9650   70.9650  228.3240 C   0  0  0  0  0  0  0  0  0  0  0  0
  141.0030   71.6980  227.1500 C   0  0  0  0  0  0  0  0  0  0  0  0
  140.4880   71.1400  225.9960 C   0  0  0  0  0  0  0  0  0  0  0  0
  140.5470   71.8880  224.8830 N   0  0  0  0  0  0  0  0  0  0  0  0
  138.4700   73.4310  223.0470 H   0  0  0  0  0  0  0  0  0  0  0  0
  139.2253   73.4966  220.2130 H   0  0  0  0  0  0  0  0  0  0  0  0
  138.2980   74.7454  221.0786 H   0  0  0  0  0  0  0  0  0  0  0  0
  141.3675   73.2625  219.4717 H   0  0  0  0  0  0  0  0  0  0  0  0
  141.8104   74.3636  218.1877 H   0  0  0  0  0  0  0  0  0  0  0  0
  143.1430   74.1303  220.9801 H   0  0  0  0  0  0  0  0  0  0  0  0
  143.8821   73.6542  219.4106 H   0  0  0  0  0  0  0  0  0  0  0  0
  143.3947   76.3277  220.6000 H   0  0  0  0  0  0  0  0  0  0  0  0
  144.8122   75.6227  219.6389 H   0  0  0  0  0  0  0  0  0  0  0  0
  144.0010   77.2902  218.3537 H   0  0  0  0  0  0  0  0  0  0  0  0
  143.2869   75.6849  217.7225 H   0  0  0  0  0  0  0  0  0  0  0  0
  142.0801   78.1131  218.4943 H   0  0  0  0  0  0  0  0  0  0  0  0
  141.5396   76.5728  217.5481 H   0  0  0  0  0  0  0  0  0  0  0  0
  140.0061   76.7092  218.9396 H   0  0  0  0  0  0  0  0  0  0  0  0
  138.6162   77.5650  220.6664 H   0  0  0  0  0  0  0  0  0  0  0  0
  138.4357   79.2709  222.4535 H   0  0  0  0  0  0  0  0  0  0  0  0
  142.6999   79.7030  222.4503 H   0  0  0  0  0  0  0  0  0  0  0  0
  142.8683   78.0113  220.6802 H   0  0  0  0  0  0  0  0  0  0  0  0
  139.1304   69.7779  222.7614 H   0  0  0  0  0  0  0  0  0  0  0  0
  138.9867   68.3596  224.7576 H   0  0  0  0  0  0  0  0  0  0  0  0
  139.4580   68.1188  227.1813 H   0  0  0  0  0  0  0  0  0  0  0  0
  140.3887   69.1257  229.2614 H   0  0  0  0  0  0  0  0  0  0  0  0
  141.3714   71.3898  229.2537 H   0  0  0  0  0  0  0  0  0  0  0  0
  141.4365   72.7089  227.1364 H   0  0  0  0  0  0  0  0  0  0  0  0
  1  2  2  0
  2  3  1  0
  3  4  1  0
  4  5  1  0
  5  6  2  0
  5  7  1  0
  7  8  1  0
  8  9  1  0
  9 10  1  0
 10 11  1  0
 11 12  1  0
 12 13  1  0
 13 14  1  0
 14 15  2  0
 15 16  1  0
 16 17  2  0
 17 18  1  0
 17 19  1  0
 19 20  2  0
  2 21  1  0
 21 22  2  0
 22 23  1  0
 23 24  2  0
 24 25  1  0
 25 26  2  0
 26 27  1  0
 27 28  2  0
 28 29  1  0
 29 30  2  0
 13  7  1  0
 20 14  1  0
 30 21  1  0
 29 24  1  0
  3 31  1  0
  4 32  1  0
  4 33  1  0
  8 34  1  0
  8 35  1  0
  9 36  1  0
  9 37  1  0
 10 38  1  0
 10 39  1  0
 11 40  1  0
 11 41  1  0
 12 42  1  0
 12 43  1  0
 13 44  1  6
 15 45  1  0
 16 46  1  0
 19 47  1  0
 20 48  1  0
 22 49  1  0
 23 50  1  0
 25 51  1  0
 26 52  1  0
 27 53  1  0
 28 54  1  0
M  END
>  <smiles>  (39) 
O=C(NCC(=O)N1CCCCCC1c1ccc(Cl)cc1)c1ccc2ccccc2n1

>  <score_type>  (39) 
oracle

>  <origin>  (39) 
autodockgpu

>  <m_score__min__energy>  (39) 
-6.9900000000000002

>  <m_primary>  (39) 
energy

>  <rmsd>  (39) 
1.8588418005076879

>  <m_score__min__rmsd>  (39) 
1.8588418005076879

>  <meeko>  (39) 
{"free_energy": -6.32, "intermolecular_energy": -9.6, "internal_energy": -1.84, "cluster_size": 13, "cluster_id": 1, "rank_in_cluster": 9}

>  <energy>  (39) 
-5.79

>  <cluster_rmsd>  (39) 
0.0

>  <cluster>  (39) 
7

$$$$

     RDKit          3D

 54 57  0  0  0  0  0  0  0  0999 V2000
  141.2670   74.4830  220.9280 O   0  0  0  0  0  0  0  0  0  0  0  0
  140.2820   74.6950  221.7040 C   0  0  0  0  0  0  0  0  0  0  0  0
  139.4240   73.6600  222.1290 N   0  0  0  0  0  0  0  0  0  0  0  0
  139.6130   72.2700  221.7030 C   0  0  0  0  0  0  0  0  0  0  0  0
  138.6420   71.4540  222.4380 C   0  0  0  0  0  0  0  0  0  0  0  0
  137.7960   71.9180  223.2520 O   0  0  0  0  0  0  0  0  0  0  0  0
  138.6400   70.0460  222.2330 N   0  0  0  0  0  0  0  0  0  0  0  0
  137.9280   69.5420  221.0520 C   0  0  0  0  0  0  0  0  0  0  0  0
  138.9560   68.5980  220.4190 C   0  0  0  0  0  0  0  0  0  0  0  0
  138.7850   67.2350  220.9580 C   0  0  0  0  0  0  0  0  0  0  0  0
  138.1100   67.1430  222.2930 C   0  0  0  0  0  0  0  0  0  0  0  0
  138.6700   67.8850  223.4010 C   0  0  0  0  0  0  0  0  0  0  0  0
  139.3280   69.1960  223.1830 C   0  0  2  0  0  0  0  0  0  0  0  0
  139.7870   69.8940  224.3990 C   0  0  0  0  0  0  0  0  0  0  0  0
  140.7150   70.9040  224.4190 C   0  0  0  0  0  0  0  0  0  0  0  0
  141.0890   71.5080  225.6100 C   0  0  0  0  0  0  0  0  0  0  0  0
  140.5320   71.0990  226.7980 C   0  0  0  0  0  0  0  0  0  0  0  0
  140.9660   71.8220  228.3260 Cl  0  0  0  0  0  0  0  0  0  0  0  0
  139.5970   70.0820  226.7840 C   0  0  0  0  0  0  0  0  0  0  0  0
  139.2350   69.4940  225.6040 C   0  0  0  0  0  0  0  0  0  0  0  0
  140.0410   76.0530  222.1620 C   0  0  0  0  0  0  0  0  0  0  0  0
  138.7680   76.5410  222.3510 C   0  0  0  0  0  0  0  0  0  0  0  0
  138.4790   77.8080  222.7790 C   0  0  0  0  0  0  0  0  0  0  0  0
  139.5470   78.6490  223.0380 C   0  0  0  0  0  0  0  0  0  0  0  0
  139.3600   79.9380  223.4710 C   0  0  0  0  0  0  0  0  0  0  0  0
  140.4840   80.7220  223.7090 C   0  0  0  0  0  0  0  0  0  0  0  0
  141.7620   80.2360  223.5210 C   0  0  0  0  0  0  0  0  0  0  0  0
  141.9440   78.9350  223.0830 C   0  0  0  0  0  0  0  0  0  0  0  0
  140.8340   78.1480  222.8440 C   0  0  0  0  0  0  0  0  0  0  0  0
  141.0590   76.8940  222.4210 N   0  0  0  0  0  0  0  0  0  0  0  0
  138.6320   73.8940  222.7660 H   0  0  0  0  0  0  0  0  0  0  0  0
  139.4375   72.1806  220.6208 H   0  0  0  0  0  0  0  0  0  0  0  0
  140.6400   71.9349  221.9103 H   0  0  0  0  0  0  0  0  0  0  0  0
  137.0154   68.9996  221.3401 H   0  0  0  0  0  0  0  0  0  0  0  0
  137.5890   70.3382  220.3729 H   0  0  0  0  0  0  0  0  0  0  0  0
  138.8116   68.5798  219.3287 H   0  0  0  0  0  0  0  0  0  0  0  0
  139.9692   68.9559  220.6540 H   0  0  0  0  0  0  0  0  0  0  0  0
  138.1868   66.6591  220.2366 H   0  0  0  0  0  0  0  0  0  0  0  0
  139.8016   66.8430  221.1089 H   0  0  0  0  0  0  0  0  0  0  0  0
  137.0753   67.4913  222.1586 H   0  0  0  0  0  0  0  0  0  0  0  0
  138.2319   66.0894  222.5848 H   0  0  0  0  0  0  0  0  0  0  0  0
  137.8463   68.0615  224.1083 H   0  0  0  0  0  0  0  0  0  0  0  0
  139.5036   67.2451  223.7261 H   0  0  0  0  0  0  0  0  0  0  0  0
  140.2736   68.9223  222.6921 H   0  0  0  0  0  0  0  0  0  0  0  0
  141.1697   71.2401  223.4755 H   0  0  0  0  0  0  0  0  0  0  0  0
  141.8340   72.3172  225.6038 H   0  0  0  0  0  0  0  0  0  0  0  0
  139.1417   69.7438  227.7265 H   0  0  0  0  0  0  0  0  0  0  0  0
  138.4890   68.6856  225.6122 H   0  0  0  0  0  0  0  0  0  0  0  0
  137.9248   75.8658  222.1436 H   0  0  0  0  0  0  0  0  0  0  0  0
  137.4402   78.1444  222.9118 H   0  0  0  0  0  0  0  0  0  0  0  0
  138.3480   80.3404  223.6257 H   0  0  0  0  0  0  0  0  0  0  0  0
  140.3507   81.7572  224.0564 H   0  0  0  0  0  0  0  0  0  0  0  0
  142.6322   80.8793  223.7182 H   0  0  0  0  0  0  0  0  0  0  0  0
  142.9566   78.5344  222.9278 H   0  0  0  0  0  0  0  0  0  0  0  0
  1  2  2  0
  2  3  1  0
  3  4  1  0
  4  5  1  0
  5  6  2  0
  5  7  1  0
  7  8  1  0
  8  9  1  0
  9 10  1  0
 10 11  1  0
 11 12  1  0
 12 13  1  0
 13 14  1  0
 14 15  2  0
 15 16  1  0
 16 17  2  0
 17 18  1  0
 17 19  1  0
 19 20  2  0
  2 21  1  0
 21 22  2  0
 22 23  1  0
 23 24  2  0
 24 25  1  0
 25 26  2  0
 26 27  1  0
 27 28  2  0
 28 29  1  0
 29 30  2  0
 13  7  1  0
 20 14  1  0
 30 21  1  0
 29 24  1  0
  3 31  1  0
  4 32  1  0
  4 33  1  0
  8 34  1  0
  8 35  1  0
  9 36  1  0
  9 37  1  0
 10 38  1  0
 10 39  1  0
 11 40  1  0
 11 41  1  0
 12 42  1  0
 12 43  1  0
 13 44  1  6
 15 45  1  0
 16 46  1  0
 19 47  1  0
 20 48  1  0
 22 49  1  0
 23 50  1  0
 25 51  1  0
 26 52  1  0
 27 53  1  0
 28 54  1  0
M  END
>  <smiles>  (40) 
O=C(NCC(=O)N1CCCCCC1c1ccc(Cl)cc1)c1ccc2ccccc2n1

>  <score_type>  (40) 
oracle

>  <origin>  (40) 
autodockgpu

>  <m_score__min__energy>  (40) 
-6.9900000000000002

>  <m_primary>  (40) 
energy

>  <rmsd>  (40) 
8.05406926278882

>  <m_score__min__rmsd>  (40) 
8.05406926278882

>  <meeko>  (40) 
{"free_energy": -5.7, "intermolecular_energy": -8.99, "internal_energy": -1.96, "cluster_size": 5, "cluster_id": 5, "rank_in_cluster": 4}

>  <energy>  (40) 
-5.6

>  <cluster_rmsd>  (40) 
0.0

>  <cluster>  (40) 
8

$$$$

     RDKit          3D

 54 57  0  0  0  0  0  0  0  0999 V2000
  141.2600   77.1390  217.3860 O   0  0  0  0  0  0  0  0  0  0  0  0
  142.0000   77.0370  218.4160 C   0  0  0  0  0  0  0  0  0  0  0  0
  142.1060   78.0690  219.3700 N   0  0  0  0  0  0  0  0  0  0  0  0
  141.3680   79.3290  219.2370 C   0  0  0  0  0  0  0  0  0  0  0  0
  140.2550   79.2830  220.1880 C   0  0  0  0  0  0  0  0  0  0  0  0
  139.0960   78.8700  219.9060 O   0  0  0  0  0  0  0  0  0  0  0  0
  140.4770   79.7300  221.5200 N   0  0  0  0  0  0  0  0  0  0  0  0
  140.3720   81.1730  221.7700 C   0  0  0  0  0  0  0  0  0  0  0  0
  141.8210   81.5670  222.0770 C   0  0  0  0  0  0  0  0  0  0  0  0
  142.0720   81.4620  223.5270 C   0  0  0  0  0  0  0  0  0  0  0  0
  142.3510   80.0930  224.0520 C   0  0  0  0  0  0  0  0  0  0  0  0
  142.1130   78.9610  223.1840 C   0  0  0  0  0  0  0  0  0  0  0  0
  140.7900   78.7550  222.5460 C   0  0  2  0  0  0  0  0  0  0  0  0
  140.4630   77.3640  222.1810 C   0  0  0  0  0  0  0  0  0  0  0  0
  141.3660   76.4470  221.7090 C   0  0  0  0  0  0  0  0  0  0  0  0
  140.9720   75.1550  221.3900 C   0  0  0  0  0  0  0  0  0  0  0  0
  139.6610   74.7740  221.5430 C   0  0  0  0  0  0  0  0  0  0  0  0
  139.1100   73.1640  221.1570 Cl  0  0  0  0  0  0  0  0  0  0  0  0
  138.7470   75.6950  222.0170 C   0  0  0  0  0  0  0  0  0  0  0  0
  139.1460   76.9650  222.3290 C   0  0  0  0  0  0  0  0  0  0  0  0
  142.7580   75.8110  218.6050 C   0  0  0  0  0  0  0  0  0  0  0  0
  142.5780   74.7130  217.7960 C   0  0  0  0  0  0  0  0  0  0  0  0
  143.2600   73.5340  217.9250 C   0  0  0  0  0  0  0  0  0  0  0  0
  144.1940   73.4510  218.9440 C   0  0  0  0  0  0  0  0  0  0  0  0
  144.9290   72.3110  219.1550 C   0  0  0  0  0  0  0  0  0  0  0  0
  145.8480   72.3040  220.1990 C   0  0  0  0  0  0  0  0  0  0  0  0
  146.0310   73.4040  221.0120 C   0  0  0  0  0  0  0  0  0  0  0  0
  145.2860   74.5500  220.7940 C   0  0  0  0  0  0  0  0  0  0  0  0
  144.3710   74.5670  219.7600 C   0  0  0  0  0  0  0  0  0  0  0  0
  143.6720   75.7000  219.5870 N   0  0  0  0  0  0  0  0  0  0  0  0
  142.7290   77.9280  220.1940 H   0  0  0  0  0  0  0  0  0  0  0  0
  142.0274   80.1781  219.4698 H   0  0  0  0  0  0  0  0  0  0  0  0
  140.9976   79.4573  218.2092 H   0  0  0  0  0  0  0  0  0  0  0  0
  139.9961   81.7032  220.8825 H   0  0  0  0  0  0  0  0  0  0  0  0
  139.6698   81.4265  222.5779 H   0  0  0  0  0  0  0  0  0  0  0  0
  142.5042   80.8937  221.5386 H   0  0  0  0  0  0  0  0  0  0  0  0
  141.9911   82.6045  221.7536 H   0  0  0  0  0  0  0  0  0  0  0  0
  142.9399   82.0951  223.7637 H   0  0  0  0  0  0  0  0  0  0  0  0
  141.1353   81.7765  224.0105 H   0  0  0  0  0  0  0  0  0  0  0  0
  143.4125   80.0650  224.3390 H   0  0  0  0  0  0  0  0  0  0  0  0
  141.6257   79.9641  224.8689 H   0  0  0  0  0  0  0  0  0  0  0  0
  142.8467   79.0327  222.3675 H   0  0  0  0  0  0  0  0  0  0  0  0
  142.1859   78.1069  223.8733 H   0  0  0  0  0  0  0  0  0  0  0  0
  140.0828   78.9599  223.3633 H   0  0  0  0  0  0  0  0  0  0  0  0
  142.4187   76.7395  221.5812 H   0  0  0  0  0  0  0  0  0  0  0  0
  141.7120   74.4336  221.0134 H   0  0  0  0  0  0  0  0  0  0  0  0
  137.6934   75.4053  222.1440 H   0  0  0  0  0  0  0  0  0  0  0  0
  138.4045   77.6849  222.7056 H   0  0  0  0  0  0  0  0  0  0  0  0
  141.8340   74.7882  216.9893 H   0  0  0  0  0  0  0  0  0  0  0  0
  143.0742   72.6874  217.2476 H   0  0  0  0  0  0  0  0  0  0  0  0
  144.7947   71.4263  218.5153 H   0  0  0  0  0  0  0  0  0  0  0  0
  146.4445   71.3980  220.3814 H   0  0  0  0  0  0  0  0  0  0  0  0
  146.7659   73.3702  221.8298 H   0  0  0  0  0  0  0  0  0  0  0  0
  145.4208   75.4339  221.4348 H   0  0  0  0  0  0  0  0  0  0  0  0
  1  2  2  0
  2  3  1  0
  3  4  1  0
  4  5  1  0
  5  6  2  0
  5  7  1  0
  7  8  1  0
  8  9  1  0
  9 10  1  0
 10 11  1  0
 11 12  1  0
 12 13  1  0
 13 14  1  0
 14 15  2  0
 15 16  1  0
 16 17  2  0
 17 18  1  0
 17 19  1  0
 19 20  2  0
  2 21  1  0
 21 22  2  0
 22 23  1  0
 23 24  2  0
 24 25  1  0
 25 26  2  0
 26 27  1  0
 27 28  2  0
 28 29  1  0
 29 30  2  0
 13  7  1  0
 20 14  1  0
 30 21  1  0
 29 24  1  0
  3 31  1  0
  4 32  1  0
  4 33  1  0
  8 34  1  0
  8 35  1  0
  9 36  1  0
  9 37  1  0
 10 38  1  0
 10 39  1  0
 11 40  1  0
 11 41  1  0
 12 42  1  0
 12 43  1  0
 13 44  1  1
 15 45  1  0
 16 46  1  0
 19 47  1  0
 20 48  1  0
 22 49  1  0
 23 50  1  0
 25 51  1  0
 26 52  1  0
 27 53  1  0
 28 54  1  0
M  END
>  <smiles>  (41) 
O=C(NCC(=O)N1CCCCCC1c1ccc(Cl)cc1)c1ccc2ccccc2n1

>  <score_type>  (41) 
oracle

>  <origin>  (41) 
autodockgpu

>  <m_score__min__energy>  (41) 
-6.9900000000000002

>  <m_primary>  (41) 
energy

>  <rmsd>  (41) 
7.531372141021056

>  <m_score__min__rmsd>  (41) 
7.531372141021056

>  <meeko>  (41) 
{"free_energy": -4.91, "intermolecular_energy": -8.19, "internal_energy": -2.89, "cluster_size": 5, "cluster_id": 11, "rank_in_cluster": 3}

>  <energy>  (41) 
-5.4

>  <cluster_rmsd>  (41) 
0.0

>  <cluster>  (41) 
9

$$$$

     RDKit          3D

 54 57  0  0  0  0  0  0  0  0999 V2000
  138.3840   75.5770  222.3430 O   0  0  0  0  0  0  0  0  0  0  0  0
  139.5880   75.9530  222.1810 C   0  0  0  0  0  0  0  0  0  0  0  0
  140.5780   75.0950  221.6590 N   0  0  0  0  0  0  0  0  0  0  0  0
  140.2830   73.7140  221.2680 C   0  0  0  0  0  0  0  0  0  0  0  0
  141.2810   73.3220  220.2690 C   0  0  0  0  0  0  0  0  0  0  0  0
  141.3160   72.1940  219.7040 O   0  0  0  0  0  0  0  0  0  0  0  0
  142.2820   74.2630  219.8990 N   0  0  0  0  0  0  0  0  0  0  0  0
  143.4090   74.4410  220.8230 C   0  0  0  0  0  0  0  0  0  0  0  0
  144.3890   73.3530  220.3710 C   0  0  0  0  0  0  0  0  0  0  0  0
  144.9860   73.7250  219.0740 C   0  0  0  0  0  0  0  0  0  0  0  0
  144.1040   73.5570  217.8760 C   0  0  0  0  0  0  0  0  0  0  0  0
  143.1030   74.5640  217.6030 C   0  0  0  0  0  0  0  0  0  0  0  0
  142.1410   74.9860  218.6510 C   0  0  2  0  0  0  0  0  0  0  0  0
  141.9620   76.4420  218.8090 C   0  0  0  0  0  0  0  0  0  0  0  0
  142.9210   77.3820  218.5330 C   0  0  0  0  0  0  0  0  0  0  0  0
  142.6670   78.7350  218.7100 C   0  0  0  0  0  0  0  0  0  0  0  0
  141.4400   79.1540  219.1670 C   0  0  0  0  0  0  0  0  0  0  0  0
  141.0660   80.8410  219.4090 Cl  0  0  0  0  0  0  0  0  0  0  0  0
  140.4710   78.2110  219.4470 C   0  0  0  0  0  0  0  0  0  0  0  0
  140.7320   76.8800  219.2690 C   0  0  0  0  0  0  0  0  0  0  0  0
  139.9450   77.3120  222.5510 C   0  0  0  0  0  0  0  0  0  0  0  0
  138.9930   78.2520  222.8710 C   0  0  0  0  0  0  0  0  0  0  0  0
  139.2670   79.5450  223.2250 C   0  0  0  0  0  0  0  0  0  0  0  0
  140.5980   79.9230  223.2610 C   0  0  0  0  0  0  0  0  0  0  0  0
  140.9750   81.1980  223.6040 C   0  0  0  0  0  0  0  0  0  0  0  0
  142.3320   81.5020  223.6160 C   0  0  0  0  0  0  0  0  0  0  0  0
  143.2900   80.5610  223.2960 C   0  0  0  0  0  0  0  0  0  0  0  0
  142.9030   79.2780  222.9500 C   0  0  0  0  0  0  0  0  0  0  0  0
  141.5580   78.9660  222.9350 C   0  0  0  0  0  0  0  0  0  0  0  0
  141.2310   77.7100  222.5930 N   0  0  0  0  0  0  0  0  0  0  0  0
  141.5500   75.4600  221.5490 H   0  0  0  0  0  0  0  0  0  0  0  0
  140.3476   73.0525  222.1445 H   0  0  0  0  0  0  0  0  0  0  0  0
  139.2664   73.6345  220.8554 H   0  0  0  0  0  0  0  0  0  0  0  0
  143.8525   75.4423  220.7197 H   0  0  0  0  0  0  0  0  0  0  0  0
  143.1229   74.3588  221.8820 H   0  0  0  0  0  0  0  0  0  0  0  0
  145.1856   73.2443  221.1218 H   0  0  0  0  0  0  0  0  0  0  0  0
  143.8493   72.4007  220.2624 H   0  0  0  0  0  0  0  0  0  0  0  0
  145.2807   74.7833  219.1298 H   0  0  0  0  0  0  0  0  0  0  0  0
  145.8272   73.0322  218.9239 H   0  0  0  0  0  0  0  0  0  0  0  0
  144.7609   73.5065  216.9951 H   0  0  0  0  0  0  0  0  0  0  0  0
  143.5187   72.6531  218.1005 H   0  0  0  0  0  0  0  0  0  0  0  0
  143.6457   75.4692  217.2932 H   0  0  0  0  0  0  0  0  0  0  0  0
  142.4557   74.0691  216.8641 H   0  0  0  0  0  0  0  0  0  0  0  0
  141.1697   74.6693  218.2433 H   0  0  0  0  0  0  0  0  0  0  0  0
  143.9064   77.0592  218.1658 H   0  0  0  0  0  0  0  0  0  0  0  0
  143.4497   79.4741  218.4840 H   0  0  0  0  0  0  0  0  0  0  0  0
  139.4850   78.5314  219.8147 H   0  0  0  0  0  0  0  0  0  0  0  0
  139.9482   76.1424  219.4961 H   0  0  0  0  0  0  0  0  0  0  0  0
  137.9379   77.9426  222.8402 H   0  0  0  0  0  0  0  0  0  0  0  0
  138.4631   80.2544  223.4707 H   0  0  0  0  0  0  0  0  0  0  0  0
  140.2237   81.9587  223.8624 H   0  0  0  0  0  0  0  0  0  0  0  0
  142.6504   82.5193  223.8877 H   0  0  0  0  0  0  0  0  0  0  0  0
  144.3565   80.8297  223.3159 H   0  0  0  0  0  0  0  0  0  0  0  0
  143.6554   78.5185  222.6909 H   0  0  0  0  0  0  0  0  0  0  0  0
  1  2  2  0
  2  3  1  0
  3  4  1  0
  4  5  1  0
  5  6  2  0
  5  7  1  0
  7  8  1  0
  8  9  1  0
  9 10  1  0
 10 11  1  0
 11 12  1  0
 12 13  1  0
 13 14  1  0
 14 15  2  0
 15 16  1  0
 16 17  2  0
 17 18  1  0
 17 19  1  0
 19 20  2  0
  2 21  1  0
 21 22  2  0
 22 23  1  0
 23 24  2  0
 24 25  1  0
 25 26  2  0
 26 27  1  0
 27 28  2  0
 28 29  1  0
 29 30  2  0
 13  7  1  0
 20 14  1  0
 30 21  1  0
 29 24  1  0
  3 31  1  0
  4 32  1  0
  4 33  1  0
  8 34  1  0
  8 35  1  0
  9 36  1  0
  9 37  1  0
 10 38  1  0
 10 39  1  0
 11 40  1  0
 11 41  1  0
 12 42  1  0
 12 43  1  0
 13 44  1  6
 15 45  1  0
 16 46  1  0
 19 47  1  0
 20 48  1  0
 22 49  1  0
 23 50  1  0
 25 51  1  0
 26 52  1  0
 27 53  1  0
 28 54  1  0
M  END
>  <smiles>  (42) 
O=C(NCC(=O)N1CCCCCC1c1ccc(Cl)cc1)c1ccc2ccccc2n1

>  <score_type>  (42) 
oracle

>  <origin>  (42) 
autodockgpu

>  <m_score__min__energy>  (42) 
-6.9900000000000002

>  <m_primary>  (42) 
energy

>  <rmsd>  (42) 
7.504230541161198

>  <m_score__min__rmsd>  (42) 
7.504230541161198

>  <meeko>  (42) 
{"free_energy": -3.85, "intermolecular_energy": -7.13, "internal_energy": -3.38, "cluster_size": 12, "cluster_id": 6, "rank_in_cluster": 12}

>  <energy>  (42) 
-5.24

>  <cluster_rmsd>  (42) 
0.19

>  <cluster>  (42) 
9

$$$$

     RDKit          3D

 54 57  0  0  0  0  0  0  0  0999 V2000
  139.2270   74.2710  221.4730 O   0  0  0  0  0  0  0  0  0  0  0  0
  140.3830   74.7830  221.6100 C   0  0  0  0  0  0  0  0  0  0  0  0
  140.5770   76.0610  222.1740 N   0  0  0  0  0  0  0  0  0  0  0  0
  139.4560   76.8830  222.6390 C   0  0  0  0  0  0  0  0  0  0  0  0
  139.8190   78.2840  222.4080 C   0  0  0  0  0  0  0  0  0  0  0  0
  138.9850   79.2120  222.2130 O   0  0  0  0  0  0  0  0  0  0  0  0
  141.1970   78.6390  222.4010 N   0  0  0  0  0  0  0  0  0  0  0  0
  141.8910   78.6610  223.6940 C   0  0  0  0  0  0  0  0  0  0  0  0
  142.3050   80.1310  223.8280 C   0  0  0  0  0  0  0  0  0  0  0  0
  141.3010   80.9950  223.1780 C   0  0  0  0  0  0  0  0  0  0  0  0
  141.6030   81.4120  221.7750 C   0  0  0  0  0  0  0  0  0  0  0  0
  141.7440   80.3880  220.7640 C   0  0  0  0  0  0  0  0  0  0  0  0
  141.8350   78.9550  221.1380 C   0  0  2  0  0  0  0  0  0  0  0  0
  141.5540   77.9900  220.0580 C   0  0  0  0  0  0  0  0  0  0  0  0
  142.4410   77.0520  219.5980 C   0  0  0  0  0  0  0  0  0  0  0  0
  142.0940   76.1800  218.5760 C   0  0  0  0  0  0  0  0  0  0  0  0
  140.8440   76.2450  218.0070 C   0  0  0  0  0  0  0  0  0  0  0  0
  140.3540   75.1750  216.7190 Cl  0  0  0  0  0  0  0  0  0  0  0  0
  139.9460   77.1890  218.4670 C   0  0  0  0  0  0  0  0  0  0  0  0
  140.3000   78.0430  219.4750 C   0  0  0  0  0  0  0  0  0  0  0  0
  141.5370   74.0180  221.1680 C   0  0  0  0  0  0  0  0  0  0  0  0
  141.4170   72.7320  220.6910 C   0  0  0  0  0  0  0  0  0  0  0  0
  142.4630   71.9640  220.2610 C   0  0  0  0  0  0  0  0  0  0  0  0
  143.7270   72.5270  220.3140 C   0  0  0  0  0  0  0  0  0  0  0  0
  144.8400   71.8350  219.9060 C   0  0  0  0  0  0  0  0  0  0  0  0
  146.0760   72.4690  219.9890 C   0  0  0  0  0  0  0  0  0  0  0  0
  146.2000   73.7580  220.4660 C   0  0  0  0  0  0  0  0  0  0  0  0
  145.0730   74.4500  220.8770 C   0  0  0  0  0  0  0  0  0  0  0  0
  143.8410   73.8290  220.7980 C   0  0  0  0  0  0  0  0  0  0  0  0
  142.7780   74.5380  221.2070 N   0  0  0  0  0  0  0  0  0  0  0  0
  141.5490   76.4290  222.2610 H   0  0  0  0  0  0  0  0  0  0  0  0
  138.5455   76.6319  222.0751 H   0  0  0  0  0  0  0  0  0  0  0  0
  139.2564   76.7027  223.7056 H   0  0  0  0  0  0  0  0  0  0  0  0
  141.2177   78.3623  224.5109 H   0  0  0  0  0  0  0  0  0  0  0  0
  142.7385   77.9618  223.7470 H   0  0  0  0  0  0  0  0  0  0  0  0
  142.3779   80.3940  224.8936 H   0  0  0  0  0  0  0  0  0  0  0  0
  143.2805   80.2790  223.3417 H   0  0  0  0  0  0  0  0  0  0  0  0
  140.3449   80.4511  223.1687 H   0  0  0  0  0  0  0  0  0  0  0  0
  141.2855   81.9245  223.7660 H   0  0  0  0  0  0  0  0  0  0  0  0
  140.7884   82.0768  221.4518 H   0  0  0  0  0  0  0  0  0  0  0  0
  142.6033   81.8652  221.8392 H   0  0  0  0  0  0  0  0  0  0  0  0
  140.8735   80.4832  220.0983 H   0  0  0  0  0  0  0  0  0  0  0  0
  142.7409   80.5940  220.3471 H   0  0  0  0  0  0  0  0  0  0  0  0
  142.9111   78.8092  221.3137 H   0  0  0  0  0  0  0  0  0  0  0  0
  143.4437   76.9894  220.0460 H   0  0  0  0  0  0  0  0  0  0  0  0
  142.8207   75.4349  218.2201 H   0  0  0  0  0  0  0  0  0  0  0  0
  138.9426   77.2540  218.0208 H   0  0  0  0  0  0  0  0  0  0  0  0
  139.5725   78.7878  219.8299 H   0  0  0  0  0  0  0  0  0  0  0  0
  140.4095   72.2920  220.6533 H   0  0  0  0  0  0  0  0  0  0  0  0
  142.3070   70.9409  219.8883 H   0  0  0  0  0  0  0  0  0  0  0  0
  144.7572   70.8069  219.5237 H   0  0  0  0  0  0  0  0  0  0  0  0
  146.9779   71.9285  219.6659 H   0  0  0  0  0  0  0  0  0  0  0  0
  147.1902   74.2340  220.5196 H   0  0  0  0  0  0  0  0  0  0  0  0
  145.1572   75.4776  221.2602 H   0  0  0  0  0  0  0  0  0  0  0  0
  1  2  2  0
  2  3  1  0
  3  4  1  0
  4  5  1  0
  5  6  2  0
  5  7  1  0
  7  8  1  0
  8  9  1  0
  9 10  1  0
 10 11  1  0
 11 12  1  0
 12 13  1  0
 13 14  1  0
 14 15  2  0
 15 16  1  0
 16 17  2  0
 17 18  1  0
 17 19  1  0
 19 20  2  0
  2 21  1  0
 21 22  2  0
 22 23  1  0
 23 24  2  0
 24 25  1  0
 25 26  2  0
 26 27  1  0
 27 28  2  0
 28 29  1  0
 29 30  2  0
 13  7  1  0
 20 14  1  0
 30 21  1  0
 29 24  1  0
  3 31  1  0
  4 32  1  0
  4 33  1  0
  8 34  1  0
  8 35  1  0
  9 36  1  0
  9 37  1  0
 10 38  1  0
 10 39  1  0
 11 40  1  0
 11 41  1  0
 12 42  1  0
 12 43  1  0
 13 44  1  1
 15 45  1  0
 16 46  1  0
 19 47  1  0
 20 48  1  0
 22 49  1  0
 23 50  1  0
 25 51  1  0
 26 52  1  0
 27 53  1  0
 28 54  1  0
M  END
>  <smiles>  (43) 
O=C(NCC(=O)N1CCCCCC1c1ccc(Cl)cc1)c1ccc2ccccc2n1

>  <score_type>  (43) 
oracle

>  <origin>  (43) 
autodockgpu

>  <m_score__min__energy>  (43) 
-6.9900000000000002

>  <m_primary>  (43) 
energy

>  <rmsd>  (43) 
6.330953437067667

>  <m_score__min__rmsd>  (43) 
6.330953437067667

>  <meeko>  (43) 
{"free_energy": -4.82, "intermolecular_energy": -8.11, "internal_energy": -3.06, "cluster_size": 3, "cluster_id": 9, "rank_in_cluster": 3}

>  <energy>  (43) 
-4.82

>  <cluster_rmsd>  (43) 
1.21

>  <cluster>  (43) 
9

$$$$

     RDKit          3D

 54 57  0  0  0  0  0  0  0  0999 V2000
  138.6730   75.5980  221.7250 O   0  0  0  0  0  0  0  0  0  0  0  0
  139.8680   75.9590  221.9730 C   0  0  0  0  0  0  0  0  0  0  0  0
  140.9630   75.0830  221.8250 N   0  0  0  0  0  0  0  0  0  0  0  0
  140.7950   73.6980  221.3740 C   0  0  0  0  0  0  0  0  0  0  0  0
  141.4830   73.5740  220.0860 C   0  0  0  0  0  0  0  0  0  0  0  0
  140.9380   73.7800  218.9660 O   0  0  0  0  0  0  0  0  0  0  0  0
  142.8560   73.1980  220.0800 N   0  0  0  0  0  0  0  0  0  0  0  0
  143.2180   71.9720  220.8010 C   0  0  0  0  0  0  0  0  0  0  0  0
  143.9140   71.1400  219.7180 C   0  0  0  0  0  0  0  0  0  0  0  0
  145.3510   71.4730  219.6770 C   0  0  0  0  0  0  0  0  0  0  0  0
  145.7550   72.7290  220.3810 C   0  0  0  0  0  0  0  0  0  0  0  0
  145.1810   73.9800  219.9360 C   0  0  0  0  0  0  0  0  0  0  0  0
  143.8090   74.0300  219.3730 C   0  0  2  0  0  0  0  0  0  0  0  0
  143.3050   75.3730  219.0300 C   0  0  0  0  0  0  0  0  0  0  0  0
  143.0780   75.8210  217.7540 C   0  0  0  0  0  0  0  0  0  0  0  0
  142.6010   77.1020  217.5200 C   0  0  0  0  0  0  0  0  0  0  0  0
  142.3460   77.9480  218.5730 C   0  0  0  0  0  0  0  0  0  0  0  0
  141.7460   79.5700  218.3380 Cl  0  0  0  0  0  0  0  0  0  0  0  0
  142.5730   77.5020  219.8610 C   0  0  0  0  0  0  0  0  0  0  0  0
  143.0440   76.2370  220.0800 C   0  0  0  0  0  0  0  0  0  0  0  0
  140.1010   77.3200  222.4250 C   0  0  0  0  0  0  0  0  0  0  0  0
  139.0640   78.1760  222.7180 C   0  0  0  0  0  0  0  0  0  0  0  0
  139.2200   79.4660  223.1460 C   0  0  0  0  0  0  0  0  0  0  0  0
  140.5150   79.9330  223.2910 C   0  0  0  0  0  0  0  0  0  0  0  0
  140.7750   81.2120  223.7140 C   0  0  0  0  0  0  0  0  0  0  0  0
  142.1030   81.6080  223.8350 C   0  0  0  0  0  0  0  0  0  0  0  0
  143.1460   80.7530  223.5430 C   0  0  0  0  0  0  0  0  0  0  0  0
  142.8760   79.4630  223.1160 C   0  0  0  0  0  0  0  0  0  0  0  0
  141.5610   79.0610  222.9930 C   0  0  0  0  0  0  0  0  0  0  0  0
  141.3480   77.8030  222.5750 N   0  0  0  0  0  0  0  0  0  0  0  0
  141.9200   75.4350  222.0440 H   0  0  0  0  0  0  0  0  0  0  0  0
  141.2386   73.0071  222.1060 H   0  0  0  0  0  0  0  0  0  0  0  0
  139.7287   73.4476  221.2723 H   0  0  0  0  0  0  0  0  0  0  0  0
  143.9013   72.1891  221.6353 H   0  0  0  0  0  0  0  0  0  0  0  0
  142.3566   71.4627  221.2578 H   0  0  0  0  0  0  0  0  0  0  0  0
  143.7935   70.0706  219.9455 H   0  0  0  0  0  0  0  0  0  0  0  0
  143.4614   71.3648  218.7409 H   0  0  0  0  0  0  0  0  0  0  0  0
  145.9026   70.6387  220.1348 H   0  0  0  0  0  0  0  0  0  0  0  0
  145.5856   71.6404  218.6154 H   0  0  0  0  0  0  0  0  0  0  0  0
  145.4892   72.6078  221.4415 H   0  0  0  0  0  0  0  0  0  0  0  0
  146.8282   72.8297  220.1617 H   0  0  0  0  0  0  0  0  0  0  0  0
  145.1881   74.6548  220.8047 H   0  0  0  0  0  0  0  0  0  0  0  0
  145.8087   74.2421  219.0716 H   0  0  0  0  0  0  0  0  0  0  0  0
  143.9252   73.5590  218.3857 H   0  0  0  0  0  0  0  0  0  0  0  0
  143.2774   75.1537  216.9025 H   0  0  0  0  0  0  0  0  0  0  0  0
  142.4262   77.4421  216.4886 H   0  0  0  0  0  0  0  0  0  0  0  0
  142.3739   78.1675  220.7139 H   0  0  0  0  0  0  0  0  0  0  0  0
  143.2192   75.8988  221.1119 H   0  0  0  0  0  0  0  0  0  0  0  0
  138.0383   77.7966  222.5998 H   0  0  0  0  0  0  0  0  0  0  0  0
  138.3524   80.1055  223.3658 H   0  0  0  0  0  0  0  0  0  0  0  0
  139.9551   81.9059  223.9512 H   0  0  0  0  0  0  0  0  0  0  0  0
  142.3278   82.6305  224.1726 H   0  0  0  0  0  0  0  0  0  0  0  0
  144.1865   81.0939  223.6487 H   0  0  0  0  0  0  0  0  0  0  0  0
  143.6966   78.7699  222.8787 H   0  0  0  0  0  0  0  0  0  0  0  0
  1  2  2  0
  2  3  1  0
  3  4  1  0
  4  5  1  0
  5  6  2  0
  5  7  1  0
  7  8  1  0
  8  9  1  0
  9 10  1  0
 10 11  1  0
 11 12  1  0
 12 13  1  0
 13 14  1  0
 14 15  2  0
 15 16  1  0
 16 17  2  0
 17 18  1  0
 17 19  1  0
 19 20  2  0
  2 21  1  0
 21 22  2  0
 22 23  1  0
 23 24  2  0
 24 25  1  0
 25 26  2  0
 26 27  1  0
 27 28  2  0
 28 29  1  0
 29 30  2  0
 13  7  1  0
 20 14  1  0
 30 21  1  0
 29 24  1  0
  3 31  1  0
  4 32  1  0
  4 33  1  0
  8 34  1  0
  8 35  1  0
  9 36  1  0
  9 37  1  0
 10 38  1  0
 10 39  1  0
 11 40  1  0
 11 41  1  0
 12 42  1  0
 12 43  1  0
 13 44  1  6
 15 45  1  0
 16 46  1  0
 19 47  1  0
 20 48  1  0
 22 49  1  0
 23 50  1  0
 25 51  1  0
 26 52  1  0
 27 53  1  0
 28 54  1  0
M  END
>  <smiles>  (44) 
O=C(NCC(=O)N1CCCCCC1c1ccc(Cl)cc1)c1ccc2ccccc2n1

>  <score_type>  (44) 
oracle

>  <origin>  (44) 
autodockgpu

>  <m_score__min__energy>  (44) 
-6.9900000000000002

>  <m_primary>  (44) 
energy

>  <rmsd>  (44) 
7.7560919166496

>  <m_score__min__rmsd>  (44) 
7.7560919166496

>  <meeko>  (44) 
{"free_energy": -5.07, "intermolecular_energy": -8.35, "internal_energy": -2.66, "cluster_size": 12, "cluster_id": 6, "rank_in_cluster": 9}

>  <energy>  (44) 
-5.32

>  <cluster_rmsd>  (44) 
0.0

>  <cluster>  (44) 
10

$$$$

     RDKit          3D

 54 57  0  0  0  0  0  0  0  0999 V2000
  136.6540   73.2310  220.8380 O   0  0  0  0  0  0  0  0  0  0  0  0
  136.9660   73.5490  222.0300 C   0  0  0  0  0  0  0  0  0  0  0  0
  136.8300   72.6490  223.1070 N   0  0  0  0  0  0  0  0  0  0  0  0
  136.3200   71.2870  222.9220 C   0  0  0  0  0  0  0  0  0  0  0  0
  137.3820   70.3650  223.3330 C   0  0  0  0  0  0  0  0  0  0  0  0
  137.2110   69.3820  224.1070 O   0  0  0  0  0  0  0  0  0  0  0  0
  138.6990   70.5770  222.8360 N   0  0  0  0  0  0  0  0  0  0  0  0
  139.0190   70.0090  221.5210 C   0  0  0  0  0  0  0  0  0  0  0  0
  138.8140   71.2020  220.5810 C   0  0  0  0  0  0  0  0  0  0  0  0
  140.0760   71.9540  220.4440 C   0  0  0  0  0  0  0  0  0  0  0  0
  140.5540   72.6580  221.6660 C   0  0  0  0  0  0  0  0  0  0  0  0
  140.7790   71.8840  222.8670 C   0  0  0  0  0  0  0  0  0  0  0  0
  139.6410   71.3290  223.6400 C   0  0  2  0  0  0  0  0  0  0  0  0
  139.9870   70.6920  224.9250 C   0  0  0  0  0  0  0  0  0  0  0  0
  140.3380   71.3700  226.0640 C   0  0  0  0  0  0  0  0  0  0  0  0
  140.6480   70.6900  227.2330 C   0  0  0  0  0  0  0  0  0  0  0  0
  140.6070   69.3160  227.2650 C   0  0  0  0  0  0  0  0  0  0  0  0
  140.9880   68.4100  228.7070 Cl  0  0  0  0  0  0  0  0  0  0  0  0
  140.2550   68.6290  226.1210 C   0  0  0  0  0  0  0  0  0  0  0  0
  139.9510   69.3090  224.9740 C   0  0  0  0  0  0  0  0  0  0  0  0
  137.4790   74.8850  222.2790 C   0  0  0  0  0  0  0  0  0  0  0  0
  136.6460   75.9390  222.5800 C   0  0  0  0  0  0  0  0  0  0  0  0
  137.0680   77.2170  222.8230 C   0  0  0  0  0  0  0  0  0  0  0  0
  138.4300   77.4570  222.7600 C   0  0  0  0  0  0  0  0  0  0  0  0
  138.9510   78.7060  222.9880 C   0  0  0  0  0  0  0  0  0  0  0  0
  140.3300   78.8680  222.9050 C   0  0  0  0  0  0  0  0  0  0  0  0
  141.1690   77.8140  222.6040 C   0  0  0  0  0  0  0  0  0  0  0  0
  140.6360   76.5570  222.3750 C   0  0  0  0  0  0  0  0  0  0  0  0
  139.2680   76.3860  222.4540 C   0  0  0  0  0  0  0  0  0  0  0  0
  138.7970   75.1500  222.2230 N   0  0  0  0  0  0  0  0  0  0  0  0
  137.1030   72.9660  224.0620 H   0  0  0  0  0  0  0  0  0  0  0  0
  135.4257   71.1322  223.5434 H   0  0  0  0  0  0  0  0  0  0  0  0
  136.0395   71.1152  221.8723 H   0  0  0  0  0  0  0  0  0  0  0  0
  140.0582   69.6502  221.4859 H   0  0  0  0  0  0  0  0  0  0  0  0
  138.4023   69.1363  221.2602 H   0  0  0  0  0  0  0  0  0  0  0  0
  138.4970   70.8377  219.5927 H   0  0  0  0  0  0  0  0  0  0  0  0
  138.0407   71.8639  220.9980 H   0  0  0  0  0  0  0  0  0  0  0  0
  140.8585   71.2446  220.1369 H   0  0  0  0  0  0  0  0  0  0  0  0
  139.8706   72.7452  219.7080 H   0  0  0  0  0  0  0  0  0  0  0  0
  141.5075   73.1426  221.4091 H   0  0  0  0  0  0  0  0  0  0  0  0
  139.7239   73.3294  221.9310 H   0  0  0  0  0  0  0  0  0  0  0  0
  141.4064   71.0288  222.5755 H   0  0  0  0  0  0  0  0  0  0  0  0
  141.2034   72.6266  223.5587 H   0  0  0  0  0  0  0  0  0  0  0  0
  139.0932   72.2278  223.9595 H   0  0  0  0  0  0  0  0  0  0  0  0
  140.3743   72.4693  226.0507 H   0  0  0  0  0  0  0  0  0  0  0  0
  140.9273   71.2516  228.1366 H   0  0  0  0  0  0  0  0  0  0  0  0
  140.2188   67.5296  226.1318 H   0  0  0  0  0  0  0  0  0  0  0  0
  139.6721   68.7452  224.0716 H   0  0  0  0  0  0  0  0  0  0  0  0
  135.5654   75.7392  222.6284 H   0  0  0  0  0  0  0  0  0  0  0  0
  136.3549   78.0207  223.0587 H   0  0  0  0  0  0  0  0  0  0  0  0
  138.2959   79.5559  223.2298 H   0  0  0  0  0  0  0  0  0  0  0  0
  140.7637   79.8629  223.0841 H   0  0  0  0  0  0  0  0  0  0  0  0
  142.2561   77.9721  222.5464 H   0  0  0  0  0  0  0  0  0  0  0  0
  141.2920   75.7076  222.1339 H   0  0  0  0  0  0  0  0  0  0  0  0
  1  2  2  0
  2  3  1  0
  3  4  1  0
  4  5  1  0
  5  6  2  0
  5  7  1  0
  7  8  1  0
  8  9  1  0
  9 10  1  0
 10 11  1  0
 11 12  1  0
 12 13  1  0
 13 14  1  0
 14 15  2  0
 15 16  1  0
 16 17  2  0
 17 18  1  0
 17 19  1  0
 19 20  2  0
  2 21  1  0
 21 22  2  0
 22 23  1  0
 23 24  2  0
 24 25  1  0
 25 26  2  0
 26 27  1  0
 27 28  2  0
 28 29  1  0
 29 30  2  0
 13  7  1  0
 20 14  1  0
 30 21  1  0
 29 24  1  0
  3 31  1  0
  4 32  1  0
  4 33  1  0
  8 34  1  0
  8 35  1  0
  9 36  1  0
  9 37  1  0
 10 38  1  0
 10 39  1  0
 11 40  1  0
 11 41  1  0
 12 42  1  0
 12 43  1  0
 13 44  1  1
 15 45  1  0
 16 46  1  0
 19 47  1  0
 20 48  1  0
 22 49  1  0
 23 50  1  0
 25 51  1  0
 26 52  1  0
 27 53  1  0
 28 54  1  0
M  END
>  <smiles>  (45) 
O=C(NCC(=O)N1CCCCCC1c1ccc(Cl)cc1)c1ccc2ccccc2n1

>  <score_type>  (45) 
oracle

>  <origin>  (45) 
autodockgpu

>  <m_score__min__energy>  (45) 
-6.9900000000000002

>  <m_primary>  (45) 
energy

>  <rmsd>  (45) 
6.989326404358246

>  <m_score__min__rmsd>  (45) 
6.989326404358246

>  <meeko>  (45) 
{"free_energy": -5.6, "intermolecular_energy": -8.88, "internal_energy": -2.4, "cluster_size": 1, "cluster_id": 8, "rank_in_cluster": 1}

>  <energy>  (45) 
-5.15

>  <cluster_rmsd>  (45) 
0.0

>  <cluster>  (45) 
11

$$$$

     RDKit          3D

 54 57  0  0  0  0  0  0  0  0999 V2000
  134.2500   70.0940  227.2150 O   0  0  0  0  0  0  0  0  0  0  0  0
  134.1800   71.0340  226.3600 C   0  0  0  0  0  0  0  0  0  0  0  0
  134.8040   70.9490  225.0990 N   0  0  0  0  0  0  0  0  0  0  0  0
  135.5750   69.7720  224.6900 C   0  0  0  0  0  0  0  0  0  0  0  0
  136.1900   70.0830  223.3970 C   0  0  0  0  0  0  0  0  0  0  0  0
  135.7160   70.9040  222.5630 O   0  0  0  0  0  0  0  0  0  0  0  0
  137.4010   69.4250  223.0410 N   0  0  0  0  0  0  0  0  0  0  0  0
  137.2850   68.1070  222.4040 C   0  0  0  0  0  0  0  0  0  0  0  0
  136.9430   68.4650  220.9530 C   0  0  0  0  0  0  0  0  0  0  0  0
  137.9840   69.3500  220.3960 C   0  0  0  0  0  0  0  0  0  0  0  0
  139.3410   69.2600  221.0040 C   0  0  0  0  0  0  0  0  0  0  0  0
  139.6200   70.0450  222.1870 C   0  0  0  0  0  0  0  0  0  0  0  0
  138.6640   70.0770  223.3210 C   0  0  2  0  0  0  0  0  0  0  0  0
  139.2300   69.7600  224.6460 C   0  0  0  0  0  0  0  0  0  0  0  0
  139.8880   70.6550  225.4500 C   0  0  0  0  0  0  0  0  0  0  0  0
  140.3890   70.2730  226.6850 C   0  0  0  0  0  0  0  0  0  0  0  0
  140.2310   68.9800  227.1250 C   0  0  0  0  0  0  0  0  0  0  0  0
  140.8410   68.4440  228.6700 Cl  0  0  0  0  0  0  0  0  0  0  0  0
  139.5690   68.0740  226.3200 C   0  0  0  0  0  0  0  0  0  0  0  0
  139.0790   68.4630  225.1030 C   0  0  0  0  0  0  0  0  0  0  0  0
  133.4290   72.2290  226.7050 C   0  0  0  0  0  0  0  0  0  0  0  0
  132.1680   72.1630  227.2520 C   0  0  0  0  0  0  0  0  0  0  0  0
  131.4140   73.2520  227.5960 C   0  0  0  0  0  0  0  0  0  0  0  0
  131.9670   74.5010  227.3760 C   0  0  0  0  0  0  0  0  0  0  0  0
  131.2890   75.6530  227.6880 C   0  0  0  0  0  0  0  0  0  0  0  0
  131.9110   76.8720  227.4360 C   0  0  0  0  0  0  0  0  0  0  0  0
  133.1760   76.9420  226.8880 C   0  0  0  0  0  0  0  0  0  0  0  0
  133.8540   75.7750  226.5750 C   0  0  0  0  0  0  0  0  0  0  0  0
  133.2450   74.5610  226.8210 C   0  0  0  0  0  0  0  0  0  0  0  0
  133.9400   73.4580  226.5020 N   0  0  0  0  0  0  0  0  0  0  0  0
  134.7110   71.7520  224.4390 H   0  0  0  0  0  0  0  0  0  0  0  0
  136.3544   69.5547  225.4352 H   0  0  0  0  0  0  0  0  0  0  0  0
  134.9247   68.8885  224.6099 H   0  0  0  0  0  0  0  0  0  0  0  0
  138.2333   67.5527  222.4632 H   0  0  0  0  0  0  0  0  0  0  0  0
  136.5385   67.4550  222.8811 H   0  0  0  0  0  0  0  0  0  0  0  0
  136.8877   67.5444  220.3534 H   0  0  0  0  0  0  0  0  0  0  0  0
  135.9737   68.9844  220.9267 H   0  0  0  0  0  0  0  0  0  0  0  0
  138.0829   69.1143  219.3261 H   0  0  0  0  0  0  0  0  0  0  0  0
  137.6390   70.3714  220.6144 H   0  0  0  0  0  0  0  0  0  0  0  0
  139.5101   68.2053  221.2666 H   0  0  0  0  0  0  0  0  0  0  0  0
  140.0084   69.6808  220.2375 H   0  0  0  0  0  0  0  0  0  0  0  0
  140.5737   69.6748  222.5912 H   0  0  0  0  0  0  0  0  0  0  0  0
  139.5841   71.0773  221.8087 H   0  0  0  0  0  0  0  0  0  0  0  0
  138.4208   71.1458  223.4137 H   0  0  0  0  0  0  0  0  0  0  0  0
  140.0204   71.6926  225.1096 H   0  0  0  0  0  0  0  0  0  0  0  0
  140.9143   71.0063  227.3145 H   0  0  0  0  0  0  0  0  0  0  0  0
  139.4351   67.0359  226.6583 H   0  0  0  0  0  0  0  0  0  0  0  0
  138.5538   67.7287  224.4746 H   0  0  0  0  0  0  0  0  0  0  0  0
  131.7363   71.1661  227.4247 H   0  0  0  0  0  0  0  0  0  0  0  0
  130.4094   73.1389  228.0296 H   0  0  0  0  0  0  0  0  0  0  0  0
  130.2806   75.6136  228.1257 H   0  0  0  0  0  0  0  0  0  0  0  0
  131.3807   77.8044  227.6799 H   0  0  0  0  0  0  0  0  0  0  0  0
  133.6436   77.9199  226.7007 H   0  0  0  0  0  0  0  0  0  0  0  0
  134.8623   75.8153  226.1371 H   0  0  0  0  0  0  0  0  0  0  0  0
  1  2  2  0
  2  3  1  0
  3  4  1  0
  4  5  1  0
  5  6  2  0
  5  7  1  0
  7  8  1  0
  8  9  1  0
  9 10  1  0
 10 11  1  0
 11 12  1  0
 12 13  1  0
 13 14  1  0
 14 15  2  0
 15 16  1  0
 16 17  2  0
 17 18  1  0
 17 19  1  0
 19 20  2  0
  2 21  1  0
 21 22  2  0
 22 23  1  0
 23 24  2  0
 24 25  1  0
 25 26  2  0
 26 27  1  0
 27 28  2  0
 28 29  1  0
 29 30  2  0
 13  7  1  0
 20 14  1  0
 30 21  1  0
 29 24  1  0
  3 31  1  0
  4 32  1  0
  4 33  1  0
  8 34  1  0
  8 35  1  0
  9 36  1  0
  9 37  1  0
 10 38  1  0
 10 39  1  0
 11 40  1  0
 11 41  1  0
 12 42  1  0
 12 43  1  0
 13 44  1  1
 15 45  1  0
 16 46  1  0
 19 47  1  0
 20 48  1  0
 22 49  1  0
 23 50  1  0
 25 51  1  0
 26 52  1  0
 27 53  1  0
 28 54  1  0
M  END
>  <smiles>  (46) 
O=C(NCC(=O)N1CCCCCC1c1ccc(Cl)cc1)c1ccc2ccccc2n1

>  <score_type>  (46) 
oracle

>  <origin>  (46) 
autodockgpu

>  <m_score__min__energy>  (46) 
-6.9900000000000002

>  <m_primary>  (46) 
energy

>  <rmsd>  (46) 
8.360564678301444

>  <m_score__min__rmsd>  (46) 
8.360564678301444

>  <meeko>  (46) 
{"free_energy": -4.82, "intermolecular_energy": -8.1, "internal_energy": -2.14, "cluster_size": 1, "cluster_id": 12, "rank_in_cluster": 1}

>  <energy>  (46) 
-5.03

>  <cluster_rmsd>  (46) 
0.41

>  <cluster>  (46) 
11

$$$$

     RDKit          3D

 54 57  0  0  0  0  0  0  0  0999 V2000
  138.6350   75.5230  221.7750 O   0  0  0  0  0  0  0  0  0  0  0  0
  139.8370   75.8900  221.9710 C   0  0  0  0  0  0  0  0  0  0  0  0
  140.9290   75.0240  221.7620 N   0  0  0  0  0  0  0  0  0  0  0  0
  140.7500   73.6430  221.3050 C   0  0  0  0  0  0  0  0  0  0  0  0
  141.3630   73.5410  219.9780 C   0  0  0  0  0  0  0  0  0  0  0  0
  140.7590   73.7810  218.8960 O   0  0  0  0  0  0  0  0  0  0  0  0
  142.7270   73.1460  219.8850 N   0  0  0  0  0  0  0  0  0  0  0  0
  143.0640   71.7890  220.3330 C   0  0  0  0  0  0  0  0  0  0  0  0
  144.0880   71.3350  219.2860 C   0  0  0  0  0  0  0  0  0  0  0  0
  145.4550   71.5560  219.7940 C   0  0  0  0  0  0  0  0  0  0  0  0
  145.9490   72.9620  219.7630 C   0  0  0  0  0  0  0  0  0  0  0  0
  145.0140   74.0300  220.0420 C   0  0  0  0  0  0  0  0  0  0  0  0
  143.6970   74.0870  219.3620 C   0  0  2  0  0  0  0  0  0  0  0  0
  143.1600   75.4380  219.1160 C   0  0  0  0  0  0  0  0  0  0  0  0
  142.8790   76.3580  220.0930 C   0  0  0  0  0  0  0  0  0  0  0  0
  142.3750   77.6110  219.7720 C   0  0  0  0  0  0  0  0  0  0  0  0
  142.1490   77.9490  218.4600 C   0  0  0  0  0  0  0  0  0  0  0  0
  141.5170   79.5090  217.9990 Cl  0  0  0  0  0  0  0  0  0  0  0  0
  142.4300   77.0270  217.4710 C   0  0  0  0  0  0  0  0  0  0  0  0
  142.9260   75.7950  217.7990 C   0  0  0  0  0  0  0  0  0  0  0  0
  140.0820   77.2480  222.4250 C   0  0  0  0  0  0  0  0  0  0  0  0
  139.0520   78.1150  222.7130 C   0  0  0  0  0  0  0  0  0  0  0  0
  139.2200   79.4030  223.1430 C   0  0  0  0  0  0  0  0  0  0  0  0
  140.5190   79.8560  223.2960 C   0  0  0  0  0  0  0  0  0  0  0  0
  140.7900   81.1320  223.7220 C   0  0  0  0  0  0  0  0  0  0  0  0
  142.1220   81.5140  223.8510 C   0  0  0  0  0  0  0  0  0  0  0  0
  143.1570   80.6470  223.5640 C   0  0  0  0  0  0  0  0  0  0  0  0
  142.8760   79.3610  223.1340 C   0  0  0  0  0  0  0  0  0  0  0  0
  141.5570   78.9730  223.0030 C   0  0  0  0  0  0  0  0  0  0  0  0
  141.3330   77.7180  222.5830 N   0  0  0  0  0  0  0  0  0  0  0  0
  141.8930   75.3810  221.9400 H   0  0  0  0  0  0  0  0  0  0  0  0
  141.2427   72.9489  222.0018 H   0  0  0  0  0  0  0  0  0  0  0  0
  139.6823   73.3819  221.2622 H   0  0  0  0  0  0  0  0  0  0  0  0
  143.5054   71.8017  221.3405 H   0  0  0  0  0  0  0  0  0  0  0  0
  142.1911   71.1239  220.4079 H   0  0  0  0  0  0  0  0  0  0  0  0
  143.9452   70.2647  219.0760 H   0  0  0  0  0  0  0  0  0  0  0  0
  143.9455   71.9165  218.3632 H   0  0  0  0  0  0  0  0  0  0  0  0
  145.4844   71.2128  220.8387 H   0  0  0  0  0  0  0  0  0  0  0  0
  146.1155   70.9967  219.1151 H   0  0  0  0  0  0  0  0  0  0  0  0
  146.7586   73.0378  220.5038 H   0  0  0  0  0  0  0  0  0  0  0  0
  146.2351   73.1230  218.7131 H   0  0  0  0  0  0  0  0  0  0  0  0
  144.8075   73.9912  221.1218 H   0  0  0  0  0  0  0  0  0  0  0  0
  145.5312   74.9156  219.6441 H   0  0  0  0  0  0  0  0  0  0  0  0
  143.9238   73.7313  218.3461 H   0  0  0  0  0  0  0  0  0  0  0  0
  143.0556   76.0992  221.1474 H   0  0  0  0  0  0  0  0  0  0  0  0
  142.1560   78.3352  220.5705 H   0  0  0  0  0  0  0  0  0  0  0  0
  142.2544   77.2841  216.4160 H   0  0  0  0  0  0  0  0  0  0  0  0
  143.1436   75.0722  216.9989 H   0  0  0  0  0  0  0  0  0  0  0  0
  138.0229   77.7468  222.5888 H   0  0  0  0  0  0  0  0  0  0  0  0
  138.3582   80.0518  223.3583 H   0  0  0  0  0  0  0  0  0  0  0  0
  139.9761   81.8342  223.9553 H   0  0  0  0  0  0  0  0  0  0  0  0
  142.3562   82.5337  224.1906 H   0  0  0  0  0  0  0  0  0  0  0  0
  144.2006   80.9762  223.6764 H   0  0  0  0  0  0  0  0  0  0  0  0
  143.6905   78.6595  222.9005 H   0  0  0  0  0  0  0  0  0  0  0  0
  1  2  2  0
  2  3  1  0
  3  4  1  0
  4  5  1  0
  5  6  2  0
  5  7  1  0
  7  8  1  0
  8  9  1  0
  9 10  1  0
 10 11  1  0
 11 12  1  0
 12 13  1  0
 13 14  1  0
 14 15  2  0
 15 16  1  0
 16 17  2  0
 17 18  1  0
 17 19  1  0
 19 20  2  0
  2 21  1  0
 21 22  2  0
 22 23  1  0
 23 24  2  0
 24 25  1  0
 25 26  2  0
 26 27  1  0
 27 28  2  0
 28 29  1  0
 29 30  2  0
 13  7  1  0
 20 14  1  0
 30 21  1  0
 29 24  1  0
  3 31  1  0
  4 32  1  0
  4 33  1  0
  8 34  1  0
  8 35  1  0
  9 36  1  0
  9 37  1  0
 10 38  1  0
 10 39  1  0
 11 40  1  0
 11 41  1  0
 12 42  1  0
 12 43  1  0
 13 44  1  6
 15 45  1  0
 16 46  1  0
 19 47  1  0
 20 48  1  0
 22 49  1  0
 23 50  1  0
 25 51  1  0
 26 52  1  0
 27 53  1  0
 28 54  1  0
M  END
>  <smiles>  (47) 
O=C(NCC(=O)N1CCCCCC1c1ccc(Cl)cc1)c1ccc2ccccc2n1

>  <score_type>  (47) 
oracle

>  <origin>  (47) 
autodockgpu

>  <m_score__min__energy>  (47) 
-6.9900000000000002

>  <m_primary>  (47) 
energy

>  <rmsd>  (47) 
7.669238170736652

>  <m_score__min__rmsd>  (47) 
7.669238170736652

>  <meeko>  (47) 
{"free_energy": -5.39, "intermolecular_energy": -8.67, "internal_energy": -2.65, "cluster_size": 12, "cluster_id": 6, "rank_in_cluster": 6}

>  <energy>  (47) 
-4.91

>  <cluster_rmsd>  (47) 
0.92

>  <cluster>  (47) 
11

$$$$

     RDKit          3D

 54 57  0  0  0  0  0  0  0  0999 V2000
  141.0030   74.6130  221.3690 O   0  0  0  0  0  0  0  0  0  0  0  0
  139.9860   75.0410  222.0030 C   0  0  0  0  0  0  0  0  0  0  0  0
  138.8960   74.2060  222.3250 N   0  0  0  0  0  0  0  0  0  0  0  0
  138.8650   72.7900  221.9500 C   0  0  0  0  0  0  0  0  0  0  0  0
  137.7710   72.1660  222.7000 C   0  0  0  0  0  0  0  0  0  0  0  0
  136.7210   72.7690  223.0590 O   0  0  0  0  0  0  0  0  0  0  0  0
  137.8840   70.7930  223.0550 N   0  0  0  0  0  0  0  0  0  0  0  0
  136.6370   70.0670  223.3280 C   0  0  0  0  0  0  0  0  0  0  0  0
  136.5610   69.0790  222.1570 C   0  0  0  0  0  0  0  0  0  0  0  0
  137.3280   67.8610  222.4790 C   0  0  0  0  0  0  0  0  0  0  0  0
  138.7720   67.8910  222.1160 C   0  0  0  0  0  0  0  0  0  0  0  0
  139.4500   69.1680  222.0830 C   0  0  0  0  0  0  0  0  0  0  0  0
  139.2000   70.1910  223.1280 C   0  0  2  0  0  0  0  0  0  0  0  0
  139.6270   69.8320  224.4930 C   0  0  0  0  0  0  0  0  0  0  0  0
  140.4420   70.6000  225.2850 C   0  0  0  0  0  0  0  0  0  0  0  0
  140.7940   70.1860  226.5610 C   0  0  0  0  0  0  0  0  0  0  0  0
  140.3290   68.9900  227.0540 C   0  0  0  0  0  0  0  0  0  0  0  0
  140.7410   68.4190  228.6510 Cl  0  0  0  0  0  0  0  0  0  0  0  0
  139.5080   68.2120  226.2600 C   0  0  0  0  0  0  0  0  0  0  0  0
  139.1670   68.6300  225.0040 C   0  0  0  0  0  0  0  0  0  0  0  0
  139.9570   76.4380  222.4030 C   0  0  0  0  0  0  0  0  0  0  0  0
  138.7740   77.1250  222.5580 C   0  0  0  0  0  0  0  0  0  0  0  0
  138.6830   78.4370  222.9320 C   0  0  0  0  0  0  0  0  0  0  0  0
  139.8680   79.1130  223.1680 C   0  0  0  0  0  0  0  0  0  0  0  0
  139.8810   80.4320  223.5460 C   0  0  0  0  0  0  0  0  0  0  0  0
  141.1120   81.0420  223.7650 C   0  0  0  0  0  0  0  0  0  0  0  0
  142.3000   80.3560  223.6100 C   0  0  0  0  0  0  0  0  0  0  0  0
  142.2790   79.0260  223.2280 C   0  0  0  0  0  0  0  0  0  0  0  0
  141.0620   78.4120  223.0090 C   0  0  0  0  0  0  0  0  0  0  0  0
  141.0920   77.1210  222.6390 N   0  0  0  0  0  0  0  0  0  0  0  0
  138.0900   74.6140  222.8470 H   0  0  0  0  0  0  0  0  0  0  0  0
  138.6858   72.6903  220.8693 H   0  0  0  0  0  0  0  0  0  0  0  0
  139.8241   72.3039  222.1820 H   0  0  0  0  0  0  0  0  0  0  0  0
  136.6883   69.5380  224.2911 H   0  0  0  0  0  0  0  0  0  0  0  0
  135.7571   70.7227  223.4047 H   0  0  0  0  0  0  0  0  0  0  0  0
  135.5101   68.8107  221.9734 H   0  0  0  0  0  0  0  0  0  0  0  0
  136.9867   69.5486  221.2580 H   0  0  0  0  0  0  0  0  0  0  0  0
  137.2559   67.6934  223.5638 H   0  0  0  0  0  0  0  0  0  0  0  0
  136.8835   67.0582  221.8724 H   0  0  0  0  0  0  0  0  0  0  0  0
  139.3029   67.2605  222.8445 H   0  0  0  0  0  0  0  0  0  0  0  0
  138.7936   67.5482  221.0710 H   0  0  0  0  0  0  0  0  0  0  0  0
  140.5281   68.9509  222.1088 H   0  0  0  0  0  0  0  0  0  0  0  0
  139.0371   69.6388  221.1786 H   0  0  0  0  0  0  0  0  0  0  0  0
  139.9005   70.9964  222.8620 H   0  0  0  0  0  0  0  0  0  0  0  0
  140.8221   71.5587  224.9024 H   0  0  0  0  0  0  0  0  0  0  0  0
  141.4478   70.8171  227.1809 H   0  0  0  0  0  0  0  0  0  0  0  0
  139.1274   67.2525  226.6402 H   0  0  0  0  0  0  0  0  0  0  0  0
  138.5129   67.9977  224.3857 H   0  0  0  0  0  0  0  0  0  0  0  0
  137.8372   76.5807  222.3678 H   0  0  0  0  0  0  0  0  0  0  0  0
  137.7083   78.9350  223.0409 H   0  0  0  0  0  0  0  0  0  0  0  0
  138.9429   80.9923  223.6725 H   0  0  0  0  0  0  0  0  0  0  0  0
  141.1395   82.0986  224.0696 H   0  0  0  0  0  0  0  0  0  0  0  0
  143.2589   80.8643  223.7893 H   0  0  0  0  0  0  0  0  0  0  0  0
  143.2176   78.4666  223.1008 H   0  0  0  0  0  0  0  0  0  0  0  0
  1  2  2  0
  2  3  1  0
  3  4  1  0
  4  5  1  0
  5  6  2  0
  5  7  1  0
  7  8  1  0
  8  9  1  0
  9 10  1  0
 10 11  1  0
 11 12  1  0
 12 13  1  0
 13 14  1  0
 14 15  2  0
 15 16  1  0
 16 17  2  0
 17 18  1  0
 17 19  1  0
 19 20  2  0
  2 21  1  0
 21 22  2  0
 22 23  1  0
 23 24  2  0
 24 25  1  0
 25 26  2  0
 26 27  1  0
 27 28  2  0
 28 29  1  0
 29 30  2  0
 13  7  1  0
 20 14  1  0
 30 21  1  0
 29 24  1  0
  3 31  1  0
  4 32  1  0
  4 33  1  0
  8 34  1  0
  8 35  1  0
  9 36  1  0
  9 37  1  0
 10 38  1  0
 10 39  1  0
 11 40  1  0
 11 41  1  0
 12 42  1  0
 12 43  1  0
 13 44  1  6
 15 45  1  0
 16 46  1  0
 19 47  1  0
 20 48  1  0
 22 49  1  0
 23 50  1  0
 25 51  1  0
 26 52  1  0
 27 53  1  0
 28 54  1  0
M  END
>  <smiles>  (48) 
O=C(NCC(=O)N1CCCCCC1c1ccc(Cl)cc1)c1ccc2ccccc2n1

>  <score_type>  (48) 
oracle

>  <origin>  (48) 
autodockgpu

>  <m_score__min__energy>  (48) 
-6.9900000000000002

>  <m_primary>  (48) 
energy

>  <rmsd>  (48) 
8.144721849975534

>  <m_score__min__rmsd>  (48) 
8.144721849975534

>  <meeko>  (48) 
{"free_energy": -6.2, "intermolecular_energy": -9.48, "internal_energy": -1.83, "cluster_size": 5, "cluster_id": 5, "rank_in_cluster": 2}

>  <energy>  (48) 
-4.79

>  <cluster_rmsd>  (48) 
1.07

>  <cluster>  (48) 
11

$$$$

     RDKit          3D

 54 57  0  0  0  0  0  0  0  0999 V2000
  137.2340   76.5270  222.4670 O   0  0  0  0  0  0  0  0  0  0  0  0
  138.4980   76.5780  222.3360 C   0  0  0  0  0  0  0  0  0  0  0  0
  139.2460   75.4910  221.8380 N   0  0  0  0  0  0  0  0  0  0  0  0
  138.6130   74.2310  221.4380 C   0  0  0  0  0  0  0  0  0  0  0  0
  139.4030   73.1440  222.0220 C   0  0  0  0  0  0  0  0  0  0  0  0
  140.6090   73.2540  222.3810 O   0  0  0  0  0  0  0  0  0  0  0  0
  138.7870   71.8740  222.2040 N   0  0  0  0  0  0  0  0  0  0  0  0
  137.3250   71.8140  222.0800 C   0  0  0  0  0  0  0  0  0  0  0  0
  137.1250   71.5570  220.5830 C   0  0  0  0  0  0  0  0  0  0  0  0
  137.2590   70.1150  220.3000 C   0  0  0  0  0  0  0  0  0  0  0  0
  137.8330   69.2770  221.3960 C   0  0  0  0  0  0  0  0  0  0  0  0
  139.2110   69.4920  221.7780 C   0  0  0  0  0  0  0  0  0  0  0  0
  139.6190   70.7240  222.4960 C   0  0  2  0  0  0  0  0  0  0  0  0
  139.9420   70.5570  223.9250 C   0  0  0  0  0  0  0  0  0  0  0  0
  140.6660   71.4500  224.6730 C   0  0  0  0  0  0  0  0  0  0  0  0
  140.9240   71.2150  226.0150 C   0  0  0  0  0  0  0  0  0  0  0  0
  140.4540   70.0740  226.6200 C   0  0  0  0  0  0  0  0  0  0  0  0
  140.7480   69.7270  228.3050 Cl  0  0  0  0  0  0  0  0  0  0  0  0
  139.7240   69.1710  225.8720 C   0  0  0  0  0  0  0  0  0  0  0  0
  139.4760   69.4130  224.5490 C   0  0  0  0  0  0  0  0  0  0  0  0
  139.1860   77.8010  222.7160 C   0  0  0  0  0  0  0  0  0  0  0  0
  138.5020   78.9190  223.1350 C   0  0  0  0  0  0  0  0  0  0  0  0
  139.0920   80.0970  223.5040 C   0  0  0  0  0  0  0  0  0  0  0  0
  140.4740   80.1570  223.4490 C   0  0  0  0  0  0  0  0  0  0  0  0
  141.1580   81.2940  223.7990 C   0  0  0  0  0  0  0  0  0  0  0  0
  142.5470   81.2780  223.7170 C   0  0  0  0  0  0  0  0  0  0  0  0
  143.2360   80.1580  223.2970 C   0  0  0  0  0  0  0  0  0  0  0  0
  142.5390   79.0150  222.9450 C   0  0  0  0  0  0  0  0  0  0  0  0
  141.1610   79.0210  223.0240 C   0  0  0  0  0  0  0  0  0  0  0  0
  140.5280   77.8910  222.6720 N   0  0  0  0  0  0  0  0  0  0  0  0
  140.2810   75.5920  221.7530 H   0  0  0  0  0  0  0  0  0  0  0  0
  137.5806   74.1915  221.8157 H   0  0  0  0  0  0  0  0  0  0  0  0
  138.5779   74.1426  220.3421 H   0  0  0  0  0  0  0  0  0  0  0  0
  136.9090   70.9931  222.6826 H   0  0  0  0  0  0  0  0  0  0  0  0
  136.8186   72.7222  222.4388 H   0  0  0  0  0  0  0  0  0  0  0  0
  136.1216   71.8956  220.2854 H   0  0  0  0  0  0  0  0  0  0  0  0
  137.8872   72.1105  220.0149 H   0  0  0  0  0  0  0  0  0  0  0  0
  136.2572   69.7241  220.0686 H   0  0  0  0  0  0  0  0  0  0  0  0
  137.9765   70.0440  219.4693 H   0  0  0  0  0  0  0  0  0  0  0  0
  137.2172   69.4470  222.2915 H   0  0  0  0  0  0  0  0  0  0  0  0
  137.8223   68.2554  220.9883 H   0  0  0  0  0  0  0  0  0  0  0  0
  139.4931   68.6461  222.4221 H   0  0  0  0  0  0  0  0  0  0  0  0
  139.7186   69.5968  220.8078 H   0  0  0  0  0  0  0  0  0  0  0  0
  140.5992   70.9578  222.0550 H   0  0  0  0  0  0  0  0  0  0  0  0
  141.0480   72.3671  224.2009 H   0  0  0  0  0  0  0  0  0  0  0  0
  141.5067   71.9441  226.5972 H   0  0  0  0  0  0  0  0  0  0  0  0
  139.3406   68.2535  226.3423 H   0  0  0  0  0  0  0  0  0  0  0  0
  138.8935   68.6826  223.9683 H   0  0  0  0  0  0  0  0  0  0  0  0
  137.4043   78.8617  223.1761 H   0  0  0  0  0  0  0  0  0  0  0  0
  138.4934   80.9601  223.8306 H   0  0  0  0  0  0  0  0  0  0  0  0
  140.6226   82.1941  224.1354 H   0  0  0  0  0  0  0  0  0  0  0  0
  143.1105   82.1812  223.9940 H   0  0  0  0  0  0  0  0  0  0  0  0
  144.3345   80.1737  223.2422 H   0  0  0  0  0  0  0  0  0  0  0  0
  143.0751   78.1157  222.6075 H   0  0  0  0  0  0  0  0  0  0  0  0
  1  2  2  0
  2  3  1  0
  3  4  1  0
  4  5  1  0
  5  6  2  0
  5  7  1  0
  7  8  1  0
  8  9  1  0
  9 10  1  0
 10 11  1  0
 11 12  1  0
 12 13  1  0
 13 14  1  0
 14 15  2  0
 15 16  1  0
 16 17  2  0
 17 18  1  0
 17 19  1  0
 19 20  2  0
  2 21  1  0
 21 22  2  0
 22 23  1  0
 23 24  2  0
 24 25  1  0
 25 26  2  0
 26 27  1  0
 27 28  2  0
 28 29  1  0
 29 30  2  0
 13  7  1  0
 20 14  1  0
 30 21  1  0
 29 24  1  0
  3 31  1  0
  4 32  1  0
  4 33  1  0
  8 34  1  0
  8 35  1  0
  9 36  1  0
  9 37  1  0
 10 38  1  0
 10 39  1  0
 11 40  1  0
 11 41  1  0
 12 42  1  0
 12 43  1  0
 13 44  1  6
 15 45  1  0
 16 46  1  0
 19 47  1  0
 20 48  1  0
 22 49  1  0
 23 50  1  0
 25 51  1  0
 26 52  1  0
 27 53  1  0
 28 54  1  0
M  END
>  <smiles>  (49) 
O=C(NCC(=O)N1CCCCCC1c1ccc(Cl)cc1)c1ccc2ccccc2n1

>  <score_type>  (49) 
oracle

>  <origin>  (49) 
autodockgpu

>  <m_score__min__energy>  (49) 
-6.9900000000000002

>  <m_primary>  (49) 
energy

>  <rmsd>  (49) 
8.170223183460601

>  <m_score__min__rmsd>  (49) 
8.170223183460601

>  <meeko>  (49) 
{"free_energy": -5.97, "intermolecular_energy": -9.25, "internal_energy": -2.04, "cluster_size": 5, "cluster_id": 5, "rank_in_cluster": 3}

>  <energy>  (49) 
-4.45

>  <cluster_rmsd>  (49) 
1.33

>  <cluster>  (49) 
11

$$$$

     RDKit          3D

 54 57  0  0  0  0  0  0  0  0999 V2000
  138.7060   75.5540  221.7060 O   0  0  0  0  0  0  0  0  0  0  0  0
  139.9010   75.9280  221.9290 C   0  0  0  0  0  0  0  0  0  0  0  0
  141.0060   75.0790  221.7100 N   0  0  0  0  0  0  0  0  0  0  0  0
  140.8480   73.7100  221.2100 C   0  0  0  0  0  0  0  0  0  0  0  0
  141.6500   73.5980  219.9890 C   0  0  0  0  0  0  0  0  0  0  0  0
  141.1820   73.6880  218.8200 O   0  0  0  0  0  0  0  0  0  0  0  0
  143.0500   73.3710  220.1110 N   0  0  0  0  0  0  0  0  0  0  0  0
  143.4740   72.0850  220.6780 C   0  0  0  0  0  0  0  0  0  0  0  0
  144.6040   71.6590  219.7330 C   0  0  0  0  0  0  0  0  0  0  0  0
  145.8950   72.1620  220.2380 C   0  0  0  0  0  0  0  0  0  0  0  0
  145.8530   73.4000  221.0690 C   0  0  0  0  0  0  0  0  0  0  0  0
  145.1550   74.5570  220.5540 C   0  0  0  0  0  0  0  0  0  0  0  0
  143.9690   74.4040  219.6770 C   0  0  2  0  0  0  0  0  0  0  0  0
  143.3170   75.6570  219.2520 C   0  0  0  0  0  0  0  0  0  0  0  0
  142.8250   76.6100  220.1070 C   0  0  0  0  0  0  0  0  0  0  0  0
  142.2260   77.7640  219.6220 C   0  0  0  0  0  0  0  0  0  0  0  0
  142.1180   77.9690  218.2670 C   0  0  0  0  0  0  0  0  0  0  0  0
  141.3740   79.4010  217.6010 Cl  0  0  0  0  0  0  0  0  0  0  0  0
  142.6120   77.0130  217.4020 C   0  0  0  0  0  0  0  0  0  0  0  0
  143.2000   75.8790  217.8910 C   0  0  0  0  0  0  0  0  0  0  0  0
  140.1250   77.2750  222.4260 C   0  0  0  0  0  0  0  0  0  0  0  0
  139.0830   78.1150  222.7450 C   0  0  0  0  0  0  0  0  0  0  0  0
  139.2310   79.3900  223.2160 C   0  0  0  0  0  0  0  0  0  0  0  0
  140.5220   79.8600  223.3790 C   0  0  0  0  0  0  0  0  0  0  0  0
  140.7740   81.1260  223.8450 C   0  0  0  0  0  0  0  0  0  0  0  0
  142.1000   81.5260  223.9810 C   0  0  0  0  0  0  0  0  0  0  0  0
  143.1480   80.6860  223.6630 C   0  0  0  0  0  0  0  0  0  0  0  0
  142.8870   79.4100  223.1920 C   0  0  0  0  0  0  0  0  0  0  0  0
  141.5740   79.0050  223.0530 C   0  0  0  0  0  0  0  0  0  0  0  0
  141.3700   77.7600  222.5940 N   0  0  0  0  0  0  0  0  0  0  0  0
  141.9640   75.4410  221.9110 H   0  0  0  0  0  0  0  0  0  0  0  0
  141.2046   72.9908  221.9621 H   0  0  0  0  0  0  0  0  0  0  0  0
  139.7902   73.4901  221.0033 H   0  0  0  0  0  0  0  0  0  0  0  0
  143.8420   72.2069  221.7074 H   0  0  0  0  0  0  0  0  0  0  0  0
  142.6604   71.3479  220.7473 H   0  0  0  0  0  0  0  0  0  0  0  0
  144.6373   70.5610  219.6755 H   0  0  0  0  0  0  0  0  0  0  0  0
  144.4177   72.0774  218.7329 H   0  0  0  0  0  0  0  0  0  0  0  0
  146.3471   71.3662  220.8482 H   0  0  0  0  0  0  0  0  0  0  0  0
  146.4695   72.4356  219.3407 H   0  0  0  0  0  0  0  0  0  0  0  0
  145.3772   73.1331  222.0242 H   0  0  0  0  0  0  0  0  0  0  0  0
  146.9033   73.7226  221.1221 H   0  0  0  0  0  0  0  0  0  0  0  0
  144.8253   75.1383  221.4278 H   0  0  0  0  0  0  0  0  0  0  0  0
  145.8981   75.0087  219.8804 H   0  0  0  0  0  0  0  0  0  0  0  0
  144.4002   74.0299  218.7367 H   0  0  0  0  0  0  0  0  0  0  0  0
  142.9064   76.4573  221.1933 H   0  0  0  0  0  0  0  0  0  0  0  0
  141.8367   78.5165  220.3235 H   0  0  0  0  0  0  0  0  0  0  0  0
  142.5324   77.1639  216.3153 H   0  0  0  0  0  0  0  0  0  0  0  0
  143.5881   75.1276  217.1876 H   0  0  0  0  0  0  0  0  0  0  0  0
  138.0596   77.7343  222.6118 H   0  0  0  0  0  0  0  0  0  0  0  0
  138.3592   80.0165  223.4556 H   0  0  0  0  0  0  0  0  0  0  0  0
  139.9496   81.8066  224.1042 H   0  0  0  0  0  0  0  0  0  0  0  0
  142.3186   82.5383  224.3517 H   0  0  0  0  0  0  0  0  0  0  0  0
  144.1863   81.0286  223.7832 H   0  0  0  0  0  0  0  0  0  0  0  0
  143.7121   78.7302  222.9329 H   0  0  0  0  0  0  0  0  0  0  0  0
  1  2  2  0
  2  3  1  0
  3  4  1  0
  4  5  1  0
  5  6  2  0
  5  7  1  0
  7  8  1  0
  8  9  1  0
  9 10  1  0
 10 11  1  0
 11 12  1  0
 12 13  1  0
 13 14  1  0
 14 15  2  0
 15 16  1  0
 16 17  2  0
 17 18  1  0
 17 19  1  0
 19 20  2  0
  2 21  1  0
 21 22  2  0
 22 23  1  0
 23 24  2  0
 24 25  1  0
 25 26  2  0
 26 27  1  0
 27 28  2  0
 28 29  1  0
 29 30  2  0
 13  7  1  0
 20 14  1  0
 30 21  1  0
 29 24  1  0
  3 31  1  0
  4 32  1  0
  4 33  1  0
  8 34  1  0
  8 35  1  0
  9 36  1  0
  9 37  1  0
 10 38  1  0
 10 39  1  0
 11 40  1  0
 11 41  1  0
 12 42  1  0
 12 43  1  0
 13 44  1  6
 15 45  1  0
 16 46  1  0
 19 47  1  0
 20 48  1  0
 22 49  1  0
 23 50  1  0
 25 51  1  0
 26 52  1  0
 27 53  1  0
 28 54  1  0
M  END
>  <smiles>  (50) 
O=C(NCC(=O)N1CCCCCC1c1ccc(Cl)cc1)c1ccc2ccccc2n1

>  <score_type>  (50) 
oracle

>  <origin>  (50) 
autodockgpu

>  <m_score__min__energy>  (50) 
-6.9900000000000002

>  <m_primary>  (50) 
energy

>  <rmsd>  (50) 
7.706895590811931

>  <m_score__min__rmsd>  (50) 
7.706895590811931

>  <meeko>  (50) 
{"free_energy": -5.36, "intermolecular_energy": -8.64, "internal_energy": -2.65, "cluster_size": 12, "cluster_id": 6, "rank_in_cluster": 7}

>  <energy>  (50) 
-4.82

>  <cluster_rmsd>  (50) 
0.0

>  <cluster>  (50) 
12

$$$$

     RDKit          3D

 54 57  0  0  0  0  0  0  0  0999 V2000
  141.3910   71.8440  222.0050 O   0  0  0  0  0  0  0  0  0  0  0  0
  140.4560   71.9650  222.8410 C   0  0  0  0  0  0  0  0  0  0  0  0
  139.3870   72.8320  222.4720 N   0  0  0  0  0  0  0  0  0  0  0  0
  139.4980   73.4790  221.1700 C   0  0  0  0  0  0  0  0  0  0  0  0
  140.4700   74.6130  221.2270 C   0  0  0  0  0  0  0  0  0  0  0  0
  140.9260   74.9550  222.3400 O   0  0  0  0  0  0  0  0  0  0  0  0
  140.8240   75.2480  220.0050 N   0  0  0  0  0  0  0  0  0  0  0  0
  140.5220   74.5590  218.7550 C   0  0  0  0  0  0  0  0  0  0  0  0
  141.7960   74.0370  218.1400 C   0  0  0  0  0  0  0  0  0  0  0  0
  142.9280   74.9170  218.6240 C   0  0  0  0  0  0  0  0  0  0  0  0
  142.8000   76.3360  218.1540 C   0  0  0  0  0  0  0  0  0  0  0  0
  141.7210   77.1360  218.8440 C   0  0  0  0  0  0  0  0  0  0  0  0
  141.4570   76.5280  220.1880 C   0  0  1  0  0  0  0  0  0  0  0  0
  140.6830   77.4170  221.0880 C   0  0  0  0  0  0  0  0  0  0  0  0
  139.3190   77.5980  220.9940 C   0  0  0  0  0  0  0  0  0  0  0  0
  138.6550   78.4380  221.8580 C   0  0  0  0  0  0  0  0  0  0  0  0
  139.3530   79.1230  222.8490 C   0  0  0  0  0  0  0  0  0  0  0  0
  138.5140   80.2000  223.9610 Cl  0  0  0  0  0  0  0  0  0  0  0  0
  140.7220   78.9340  222.9340 C   0  0  0  0  0  0  0  0  0  0  0  0
  141.3880   78.0920  222.0670 C   0  0  0  0  0  0  0  0  0  0  0  0
  140.4330   71.2750  224.1220 C   0  0  0  0  0  0  0  0  0  0  0  0
  140.9520   71.9350  225.2230 C   0  0  0  0  0  0  0  0  0  0  0  0
  140.9410   71.3020  226.4470 C   0  0  0  0  0  0  0  0  0  0  0  0
  140.4150   70.0240  226.5510 C   0  0  0  0  0  0  0  0  0  0  0  0
  140.3940   69.3690  227.7650 C   0  0  0  0  0  0  0  0  0  0  0  0
  139.8760   68.1040  227.8860 C   0  0  0  0  0  0  0  0  0  0  0  0
  139.3650   67.4750  226.7590 C   0  0  0  0  0  0  0  0  0  0  0  0
  139.3750   68.1140  225.5180 C   0  0  0  0  0  0  0  0  0  0  0  0
  139.9030   69.3880  225.4360 C   0  0  0  0  0  0  0  0  0  0  0  0
  139.9200   70.0180  224.2500 N   0  0  0  0  0  0  0  0  0  0  0  0
  138.5610   72.9990  223.1030 H   0  0  0  0  0  0  0  0  0  0  0  0
  139.8440   72.7433  220.4291 H   0  0  0  0  0  0  0  0  0  0  0  0
  138.5112   73.8719  220.8841 H   0  0  0  0  0  0  0  0  0  0  0  0
  139.8422   73.7180  218.9564 H   0  0  0  0  0  0  0  0  0  0  0  0
  140.0436   75.2629  218.0581 H   0  0  0  0  0  0  0  0  0  0  0  0
  141.9671   72.9973  218.4558 H   0  0  0  0  0  0  0  0  0  0  0  0
  141.7325   74.0560  217.0420 H   0  0  0  0  0  0  0  0  0  0  0  0
  142.9337   74.9098  219.7240 H   0  0  0  0  0  0  0  0  0  0  0  0
  143.8634   74.5129  218.2096 H   0  0  0  0  0  0  0  0  0  0  0  0
  143.7623   76.8411  218.3241 H   0  0  0  0  0  0  0  0  0  0  0  0
  142.5180   76.2865  217.0919 H   0  0  0  0  0  0  0  0  0  0  0  0
  142.0540   78.1771  218.9677 H   0  0  0  0  0  0  0  0  0  0  0  0
  140.8016   77.1241  218.2402 H   0  0  0  0  0  0  0  0  0  0  0  0
  142.4203   76.3857  220.6996 H   0  0  0  0  0  0  0  0  0  0  0  0
  138.7536   77.0629  220.2168 H   0  0  0  0  0  0  0  0  0  0  0  0
  137.5668   78.5691  221.7653 H   0  0  0  0  0  0  0  0  0  0  0  0
  141.2913   79.4668  223.7099 H   0  0  0  0  0  0  0  0  0  0  0  0
  142.4763   77.9583  222.1546 H   0  0  0  0  0  0  0  0  0  0  0  0
  141.3666   72.9489  225.1222 H   0  0  0  0  0  0  0  0  0  0  0  0
  141.3470   71.8077  227.3355 H   0  0  0  0  0  0  0  0  0  0  0  0
  140.8011   69.8714  228.6549 H   0  0  0  0  0  0  0  0  0  0  0  0
  139.8659   67.5960  228.8616 H   0  0  0  0  0  0  0  0  0  0  0  0
  138.9473   66.4610  226.8449 H   0  0  0  0  0  0  0  0  0  0  0  0
  138.9714   67.6142  224.6251 H   0  0  0  0  0  0  0  0  0  0  0  0
  1  2  2  0
  2  3  1  0
  3  4  1  0
  4  5  1  0
  5  6  2  0
  5  7  1  0
  7  8  1  0
  8  9  1  0
  9 10  1  0
 10 11  1  0
 11 12  1  0
 12 13  1  0
 13 14  1  0
 14 15  2  0
 15 16  1  0
 16 17  2  0
 17 18  1  0
 17 19  1  0
 19 20  2  0
  2 21  1  0
 21 22  2  0
 22 23  1  0
 23 24  2  0
 24 25  1  0
 25 26  2  0
 26 27  1  0
 27 28  2  0
 28 29  1  0
 29 30  2  0
 13  7  1  0
 20 14  1  0
 30 21  1  0
 29 24  1  0
  3 31  1  0
  4 32  1  0
  4 33  1  0
  8 34  1  0
  8 35  1  0
  9 36  1  0
  9 37  1  0
 10 38  1  0
 10 39  1  0
 11 40  1  0
 11 41  1  0
 12 42  1  0
 12 43  1  0
 13 44  1  1
 15 45  1  0
 16 46  1  0
 19 47  1  0
 20 48  1  0
 22 49  1  0
 23 50  1  0
 25 51  1  0
 26 52  1  0
 27 53  1  0
 28 54  1  0
M  END
>  <smiles>  (51) 
O=C(NCC(=O)N1CCCCCC1c1ccc(Cl)cc1)c1ccc2ccccc2n1

>  <score_type>  (51) 
oracle

>  <origin>  (51) 
autodockgpu

>  <m_score__min__energy>  (51) 
-6.8499999999999996

>  <m_primary>  (51) 
energy

>  <rmsd>  (51) 
2.6560779478298393

>  <m_score__min__rmsd>  (51) 
2.6560779478298393

>  <meeko>  (51) 
{"free_energy": -5.39, "intermolecular_energy": -8.67, "internal_energy": -1.61, "cluster_size": 8, "cluster_id": 1, "rank_in_cluster": 8}

>  <energy>  (51) 
-6.85

>  <cluster_rmsd>  (51) 
0.0

>  <cluster>  (51) 
1

$$$$

     RDKit          3D

 54 57  0  0  0  0  0  0  0  0999 V2000
  139.3830   74.4030  221.3930 O   0  0  0  0  0  0  0  0  0  0  0  0
  140.6030   74.7080  221.4670 C   0  0  0  0  0  0  0  0  0  0  0  0
  140.9030   75.9860  222.0230 N   0  0  0  0  0  0  0  0  0  0  0  0
  139.7630   76.7930  222.4420 C   0  0  0  0  0  0  0  0  0  0  0  0
  139.5780   77.9590  221.5250 C   0  0  0  0  0  0  0  0  0  0  0  0
  138.8990   77.8020  220.4870 O   0  0  0  0  0  0  0  0  0  0  0  0
  140.1900   79.1910  221.8850 N   0  0  0  0  0  0  0  0  0  0  0  0
  139.4710   80.0820  222.7880 C   0  0  0  0  0  0  0  0  0  0  0  0
  140.3050   81.3070  223.0650 C   0  0  0  0  0  0  0  0  0  0  0  0
  141.4840   80.8730  223.9090 C   0  0  0  0  0  0  0  0  0  0  0  0
  142.6780   80.5120  223.0890 C   0  0  0  0  0  0  0  0  0  0  0  0
  142.5400   79.2180  222.3240 C   0  0  0  0  0  0  0  0  0  0  0  0
  141.4810   79.3870  221.2780 C   0  0  1  0  0  0  0  0  0  0  0  0
  141.6870   78.5190  220.0930 C   0  0  0  0  0  0  0  0  0  0  0  0
  141.0610   78.7210  218.8820 C   0  0  0  0  0  0  0  0  0  0  0  0
  141.2900   77.8810  217.8170 C   0  0  0  0  0  0  0  0  0  0  0  0
  142.1650   76.8060  217.9450 C   0  0  0  0  0  0  0  0  0  0  0  0
  142.4690   75.7230  216.5900 Cl  0  0  0  0  0  0  0  0  0  0  0  0
  142.7890   76.6120  219.1670 C   0  0  0  0  0  0  0  0  0  0  0  0
  142.5580   77.4550  220.2340 C   0  0  0  0  0  0  0  0  0  0  0  0
  141.6760   73.8310  221.0210 C   0  0  0  0  0  0  0  0  0  0  0  0
  141.3400   72.5500  220.6170 C   0  0  0  0  0  0  0  0  0  0  0  0
  142.3390   71.7020  220.1900 C   0  0  0  0  0  0  0  0  0  0  0  0
  143.6520   72.1450  220.1720 C   0  0  0  0  0  0  0  0  0  0  0  0
  144.6680   71.3150  219.7500 C   0  0  0  0  0  0  0  0  0  0  0  0
  145.9740   71.7370  219.7250 C   0  0  0  0  0  0  0  0  0  0  0  0
  146.2710   73.0290  220.1370 C   0  0  0  0  0  0  0  0  0  0  0  0
  145.2620   73.8900  220.5710 C   0  0  0  0  0  0  0  0  0  0  0  0
  143.9590   73.4290  220.5800 C   0  0  0  0  0  0  0  0  0  0  0  0
  142.9750   74.2450  220.9940 N   0  0  0  0  0  0  0  0  0  0  0  0
  141.8910   76.3320  222.1260 H   0  0  0  0  0  0  0  0  0  0  0  0
  138.8550   76.1723  222.4251 H   0  0  0  0  0  0  0  0  0  0  0  0
  139.9489   77.1680  223.4593 H   0  0  0  0  0  0  0  0  0  0  0  0
  138.5208   80.3841  222.3235 H   0  0  0  0  0  0  0  0  0  0  0  0
  139.2699   79.5571  223.7335 H   0  0  0  0  0  0  0  0  0  0  0  0
  140.6600   81.7415  222.1189 H   0  0  0  0  0  0  0  0  0  0  0  0
  139.7114   82.0691  223.5911 H   0  0  0  0  0  0  0  0  0  0  0  0
  141.7567   81.6982  224.5833 H   0  0  0  0  0  0  0  0  0  0  0  0
  141.1804   79.9749  224.4669 H   0  0  0  0  0  0  0  0  0  0  0  0
  142.8568   81.3217  222.3663 H   0  0  0  0  0  0  0  0  0  0  0  0
  143.5123   80.3738  223.7925 H   0  0  0  0  0  0  0  0  0  0  0  0
  143.4976   78.9683  221.8438 H   0  0  0  0  0  0  0  0  0  0  0  0
  142.2610   78.4053  223.0109 H   0  0  0  0  0  0  0  0  0  0  0  0
  141.5434   80.4120  220.8837 H   0  0  0  0  0  0  0  0  0  0  0  0
  140.3676   79.5669  218.7652 H   0  0  0  0  0  0  0  0  0  0  0  0
  140.7791   78.0597  216.8594 H   0  0  0  0  0  0  0  0  0  0  0  0
  143.4834   75.7676  219.2887 H   0  0  0  0  0  0  0  0  0  0  0  0
  143.0654   77.2811  221.1943 H   0  0  0  0  0  0  0  0  0  0  0  0
  140.2926   72.2145  220.6365 H   0  0  0  0  0  0  0  0  0  0  0  0
  142.0956   70.6796  219.8654 H   0  0  0  0  0  0  0  0  0  0  0  0
  144.4271   70.2918  219.4260 H   0  0  0  0  0  0  0  0  0  0  0  0
  146.7727   71.0620  219.3839 H   0  0  0  0  0  0  0  0  0  0  0  0
  147.3140   73.3783  220.1212 H   0  0  0  0  0  0  0  0  0  0  0  0
  145.4985   74.9131  220.8987 H   0  0  0  0  0  0  0  0  0  0  0  0
  1  2  2  0
  2  3  1  0
  3  4  1  0
  4  5  1  0
  5  6  2  0
  5  7  1  0
  7  8  1  0
  8  9  1  0
  9 10  1  0
 10 11  1  0
 11 12  1  0
 12 13  1  0
 13 14  1  0
 14 15  2  0
 15 16  1  0
 16 17  2  0
 17 18  1  0
 17 19  1  0
 19 20  2  0
  2 21  1  0
 21 22  2  0
 22 23  1  0
 23 24  2  0
 24 25  1  0
 25 26  2  0
 26 27  1  0
 27 28  2  0
 28 29  1  0
 29 30  2  0
 13  7  1  0
 20 14  1  0
 30 21  1  0
 29 24  1  0
  3 31  1  0
  4 32  1  0
  4 33  1  0
  8 34  1  0
  8 35  1  0
  9 36  1  0
  9 37  1  0
 10 38  1  0
 10 39  1  0
 11 40  1  0
 11 41  1  0
 12 42  1  0
 12 43  1  0
 13 44  1  6
 15 45  1  0
 16 46  1  0
 19 47  1  0
 20 48  1  0
 22 49  1  0
 23 50  1  0
 25 51  1  0
 26 52  1  0
 27 53  1  0
 28 54  1  0
M  END
>  <smiles>  (52) 
O=C(NCC(=O)N1CCCCCC1c1ccc(Cl)cc1)c1ccc2ccccc2n1

>  <score_type>  (52) 
oracle

>  <origin>  (52) 
autodockgpu

>  <m_score__min__energy>  (52) 
-6.8499999999999996

>  <m_primary>  (52) 
energy

>  <rmsd>  (52) 
6.323349647544945

>  <m_score__min__rmsd>  (52) 
6.323349647544945

>  <meeko>  (52) 
{"free_energy": -5.0, "intermolecular_energy": -8.28, "internal_energy": -2.58, "cluster_size": 7, "cluster_id": 8, "rank_in_cluster": 2}

>  <energy>  (52) 
-6.56

>  <cluster_rmsd>  (52) 
0.86

>  <cluster>  (52) 
1

$$$$

     RDKit          3D

 54 57  0  0  0  0  0  0  0  0999 V2000
  140.2210   70.9550  221.4800 O   0  0  0  0  0  0  0  0  0  0  0  0
  140.1300   71.6260  222.5420 C   0  0  0  0  0  0  0  0  0  0  0  0
  139.8840   73.0220  222.3910 N   0  0  0  0  0  0  0  0  0  0  0  0
  139.7660   73.5130  221.0230 C   0  0  0  0  0  0  0  0  0  0  0  0
  140.2050   74.9390  220.9360 C   0  0  0  0  0  0  0  0  0  0  0  0
  140.4090   75.5680  221.9980 O   0  0  0  0  0  0  0  0  0  0  0  0
  140.3670   75.5080  219.6430 N   0  0  0  0  0  0  0  0  0  0  0  0
  139.7800   76.8180  219.3860 C   0  0  0  0  0  0  0  0  0  0  0  0
  140.8620   77.8670  219.3680 C   0  0  0  0  0  0  0  0  0  0  0  0
  141.4770   77.8620  217.9850 C   0  0  0  0  0  0  0  0  0  0  0  0
  142.2010   76.5920  217.6830 C   0  0  0  0  0  0  0  0  0  0  0  0
  141.3020   75.4030  217.4450 C   0  0  0  0  0  0  0  0  0  0  0  0
  141.1170   74.6740  218.7410 C   0  0  1  0  0  0  0  0  0  0  0  0
  142.3930   74.2040  219.3330 C   0  0  0  0  0  0  0  0  0  0  0  0
  142.7770   72.8800  219.3650 C   0  0  0  0  0  0  0  0  0  0  0  0
  143.9730   72.5030  219.9300 C   0  0  0  0  0  0  0  0  0  0  0  0
  144.8220   73.4580  220.4820 C   0  0  0  0  0  0  0  0  0  0  0  0
  146.3560   72.9890  221.2080 Cl  0  0  0  0  0  0  0  0  0  0  0  0
  144.4260   74.7850  220.4450 C   0  0  0  0  0  0  0  0  0  0  0  0
  143.2270   75.1620  219.8780 C   0  0  0  0  0  0  0  0  0  0  0  0
  140.2620   71.0440  223.8700 C   0  0  0  0  0  0  0  0  0  0  0  0
  140.7770   71.8400  224.8790 C   0  0  0  0  0  0  0  0  0  0  0  0
  140.9110   71.3110  226.1440 C   0  0  0  0  0  0  0  0  0  0  0  0
  140.5310   69.9990  226.3810 C   0  0  0  0  0  0  0  0  0  0  0  0
  140.6560   69.4470  227.6380 C   0  0  0  0  0  0  0  0  0  0  0  0
  140.2840   68.1500  227.8900 C   0  0  0  0  0  0  0  0  0  0  0  0
  139.7710   67.3830  226.8530 C   0  0  0  0  0  0  0  0  0  0  0  0
  139.6350   67.9170  225.5700 C   0  0  0  0  0  0  0  0  0  0  0  0
  140.0190   69.2260  225.3550 C   0  0  0  0  0  0  0  0  0  0  0  0
  139.8940   69.7560  224.1280 N   0  0  0  0  0  0  0  0  0  0  0  0
  139.7920   73.6650  223.2180 H   0  0  0  0  0  0  0  0  0  0  0  0
  140.3971   72.8996  220.3631 H   0  0  0  0  0  0  0  0  0  0  0  0
  138.7130   73.4466  220.7121 H   0  0  0  0  0  0  0  0  0  0  0  0
  139.2683   76.8043  218.4124 H   0  0  0  0  0  0  0  0  0  0  0  0
  139.0574   77.0548  220.1809 H   0  0  0  0  0  0  0  0  0  0  0  0
  140.4304   78.8556  219.5836 H   0  0  0  0  0  0  0  0  0  0  0  0
  141.6237   77.6513  220.1317 H   0  0  0  0  0  0  0  0  0  0  0  0
  140.6762   77.9960  217.2429 H   0  0  0  0  0  0  0  0  0  0  0  0
  142.2100   78.6812  217.9435 H   0  0  0  0  0  0  0  0  0  0  0  0
  142.8096   76.7493  216.7803 H   0  0  0  0  0  0  0  0  0  0  0  0
  142.8049   76.3560  218.5716 H   0  0  0  0  0  0  0  0  0  0  0  0
  140.3262   75.7458  217.0705 H   0  0  0  0  0  0  0  0  0  0  0  0
  141.7556   74.7333  216.6995 H   0  0  0  0  0  0  0  0  0  0  0  0
  140.5483   73.7534  218.5432 H   0  0  0  0  0  0  0  0  0  0  0  0
  142.1169   72.1139  218.9322 H   0  0  0  0  0  0  0  0  0  0  0  0
  144.2601   71.4412  219.9457 H   0  0  0  0  0  0  0  0  0  0  0  0
  145.0823   75.5546  220.8774 H   0  0  0  0  0  0  0  0  0  0  0  0
  142.9350   76.2224  219.8595 H   0  0  0  0  0  0  0  0  0  0  0  0
  141.0746   72.8789  224.6738 H   0  0  0  0  0  0  0  0  0  0  0  0
  141.3169   71.9258  226.9608 H   0  0  0  0  0  0  0  0  0  0  0  0
  141.0626   70.0590  228.4566 H   0  0  0  0  0  0  0  0  0  0  0  0
  140.3908   67.7247  228.8988 H   0  0  0  0  0  0  0  0  0  0  0  0
  139.4682   66.3429  227.0441 H   0  0  0  0  0  0  0  0  0  0  0  0
  139.2306   67.3080  224.7481 H   0  0  0  0  0  0  0  0  0  0  0  0
  1  2  2  0
  2  3  1  0
  3  4  1  0
  4  5  1  0
  5  6  2  0
  5  7  1  0
  7  8  1  0
  8  9  1  0
  9 10  1  0
 10 11  1  0
 11 12  1  0
 12 13  1  0
 13 14  1  0
 14 15  2  0
 15 16  1  0
 16 17  2  0
 17 18  1  0
 17 19  1  0
 19 20  2  0
  2 21  1  0
 21 22  2  0
 22 23  1  0
 23 24  2  0
 24 25  1  0
 25 26  2  0
 26 27  1  0
 27 28  2  0
 28 29  1  0
 29 30  2  0
 13  7  1  0
 20 14  1  0
 30 21  1  0
 29 24  1  0
  3 31  1  0
  4 32  1  0
  4 33  1  0
  8 34  1  0
  8 35  1  0
  9 36  1  0
  9 37  1  0
 10 38  1  0
 10 39  1  0
 11 40  1  0
 11 41  1  0
 12 42  1  0
 12 43  1  0
 13 44  1  6
 15 45  1  0
 16 46  1  0
 19 47  1  0
 20 48  1  0
 22 49  1  0
 23 50  1  0
 25 51  1  0
 26 52  1  0
 27 53  1  0
 28 54  1  0
M  END
>  <smiles>  (53) 
O=C(NCC(=O)N1CCCCCC1c1ccc(Cl)cc1)c1ccc2ccccc2n1

>  <score_type>  (53) 
oracle

>  <origin>  (53) 
autodockgpu

>  <m_score__min__energy>  (53) 
-6.8499999999999996

>  <m_primary>  (53) 
energy

>  <rmsd>  (53) 
2.90453724529787

>  <m_score__min__rmsd>  (53) 
2.90453724529787

>  <meeko>  (53) 
{"free_energy": -6.09, "intermolecular_energy": -9.37, "internal_energy": -1.9, "cluster_size": 10, "cluster_id": 3, "rank_in_cluster": 4}

>  <energy>  (53) 
-6.37

>  <cluster_rmsd>  (53) 
1.07

>  <cluster>  (53) 
1

$$$$

     RDKit          3D

 54 57  0  0  0  0  0  0  0  0999 V2000
  139.5860   73.4310  222.6250 O   0  0  0  0  0  0  0  0  0  0  0  0
  140.2800   72.3810  222.6840 C   0  0  0  0  0  0  0  0  0  0  0  0
  141.2390   72.1960  221.6470 N   0  0  0  0  0  0  0  0  0  0  0  0
  141.3070   73.2430  220.6340 C   0  0  0  0  0  0  0  0  0  0  0  0
  141.6200   72.6600  219.2940 C   0  0  0  0  0  0  0  0  0  0  0  0
  140.7290   72.6650  218.4160 O   0  0  0  0  0  0  0  0  0  0  0  0
  142.9210   72.1260  219.0880 N   0  0  0  0  0  0  0  0  0  0  0  0
  143.0390   70.7360  218.6640 C   0  0  0  0  0  0  0  0  0  0  0  0
  143.8760   69.9700  219.6570 C   0  0  0  0  0  0  0  0  0  0  0  0
  145.3260   70.1390  219.2550 C   0  0  0  0  0  0  0  0  0  0  0  0
  145.8450   71.5120  219.5310 C   0  0  0  0  0  0  0  0  0  0  0  0
  145.2300   72.5940  218.6770 C   0  0  0  0  0  0  0  0  0  0  0  0
  143.9750   73.0750  219.3400 C   0  0  1  0  0  0  0  0  0  0  0  0
  143.5990   74.4550  218.9470 C   0  0  0  0  0  0  0  0  0  0  0  0
  143.3810   74.8440  217.6420 C   0  0  0  0  0  0  0  0  0  0  0  0
  143.0350   76.1400  217.3380 C   0  0  0  0  0  0  0  0  0  0  0  0
  142.8980   77.0870  218.3490 C   0  0  0  0  0  0  0  0  0  0  0  0
  142.4550   78.7490  217.9730 Cl  0  0  0  0  0  0  0  0  0  0  0  0
  143.1200   76.6860  219.6560 C   0  0  0  0  0  0  0  0  0  0  0  0
  143.4660   75.3860  219.9600 C   0  0  0  0  0  0  0  0  0  0  0  0
  140.1390   71.3890  223.7400 C   0  0  0  0  0  0  0  0  0  0  0  0
  139.5270   70.1880  223.4230 C   0  0  0  0  0  0  0  0  0  0  0  0
  139.3820   69.2330  224.4060 C   0  0  0  0  0  0  0  0  0  0  0  0
  139.8500   69.4910  225.6850 C   0  0  0  0  0  0  0  0  0  0  0  0
  139.7160   68.5520  226.6860 C   0  0  0  0  0  0  0  0  0  0  0  0
  140.1750   68.7900  227.9570 C   0  0  0  0  0  0  0  0  0  0  0  0
  140.7840   70.0060  228.2360 C   0  0  0  0  0  0  0  0  0  0  0  0
  140.9310   70.9760  227.2420 C   0  0  0  0  0  0  0  0  0  0  0  0
  140.4580   70.6980  225.9740 C   0  0  0  0  0  0  0  0  0  0  0  0
  140.5920   71.6190  225.0060 N   0  0  0  0  0  0  0  0  0  0  0  0
  141.8640   71.3510  221.6090 H   0  0  0  0  0  0  0  0  0  0  0  0
  140.3383   73.7619  220.5850 H   0  0  0  0  0  0  0  0  0  0  0  0
  142.1042   73.9497  220.9079 H   0  0  0  0  0  0  0  0  0  0  0  0
  142.0372   70.2854  218.6059 H   0  0  0  0  0  0  0  0  0  0  0  0
  143.5202   70.6967  217.6756 H   0  0  0  0  0  0  0  0  0  0  0  0
  143.7177   70.3700  220.6694 H   0  0  0  0  0  0  0  0  0  0  0  0
  143.5962   68.9062  219.6610 H   0  0  0  0  0  0  0  0  0  0  0  0
  145.9335   69.4138  219.8163 H   0  0  0  0  0  0  0  0  0  0  0  0
  145.3914   69.9713  218.1698 H   0  0  0  0  0  0  0  0  0  0  0  0
  145.6439   71.7503  220.5859 H   0  0  0  0  0  0  0  0  0  0  0  0
  146.9187   71.4958  219.2924 H   0  0  0  0  0  0  0  0  0  0  0  0
  145.9373   73.4300  218.5728 H   0  0  0  0  0  0  0  0  0  0  0  0
  144.9971   72.1959  217.6783 H   0  0  0  0  0  0  0  0  0  0  0  0
  144.1564   73.1357  220.4232 H   0  0  0  0  0  0  0  0  0  0  0  0
  143.4854   74.1069  216.8322 H   0  0  0  0  0  0  0  0  0  0  0  0
  142.8657   76.4297  216.2904 H   0  0  0  0  0  0  0  0  0  0  0  0
  143.0182   77.4200  220.4689 H   0  0  0  0  0  0  0  0  0  0  0  0
  143.6357   75.0908  221.0060 H   0  0  0  0  0  0  0  0  0  0  0  0
  139.1623   69.9992  222.4026 H   0  0  0  0  0  0  0  0  0  0  0  0
  138.8980   68.2721  224.1771 H   0  0  0  0  0  0  0  0  0  0  0  0
  139.2305   67.5910  226.4606 H   0  0  0  0  0  0  0  0  0  0  0  0
  140.0621   68.0288  228.7430 H   0  0  0  0  0  0  0  0  0  0  0  0
  141.1550   70.2078  229.2517 H   0  0  0  0  0  0  0  0  0  0  0  0
  141.4126   71.9398  227.4637 H   0  0  0  0  0  0  0  0  0  0  0  0
  1  2  2  0
  2  3  1  0
  3  4  1  0
  4  5  1  0
  5  6  2  0
  5  7  1  0
  7  8  1  0
  8  9  1  0
  9 10  1  0
 10 11  1  0
 11 12  1  0
 12 13  1  0
 13 14  1  0
 14 15  2  0
 15 16  1  0
 16 17  2  0
 17 18  1  0
 17 19  1  0
 19 20  2  0
  2 21  1  0
 21 22  2  0
 22 23  1  0
 23 24  2  0
 24 25  1  0
 25 26  2  0
 26 27  1  0
 27 28  2  0
 28 29  1  0
 29 30  2  0
 13  7  1  0
 20 14  1  0
 30 21  1  0
 29 24  1  0
  3 31  1  0
  4 32  1  0
  4 33  1  0
  8 34  1  0
  8 35  1  0
  9 36  1  0
  9 37  1  0
 10 38  1  0
 10 39  1  0
 11 40  1  0
 11 41  1  0
 12 42  1  0
 12 43  1  0
 13 44  1  1
 15 45  1  0
 16 46  1  0
 19 47  1  0
 20 48  1  0
 22 49  1  0
 23 50  1  0
 25 51  1  0
 26 52  1  0
 27 53  1  0
 28 54  1  0
M  END
>  <smiles>  (54) 
O=C(NCC(=O)N1CCCCCC1c1ccc(Cl)cc1)c1ccc2ccccc2n1

>  <score_type>  (54) 
oracle

>  <origin>  (54) 
autodockgpu

>  <m_score__min__energy>  (54) 
-6.8499999999999996

>  <m_primary>  (54) 
energy

>  <rmsd>  (54) 
3.9719902931902786

>  <m_score__min__rmsd>  (54) 
3.9719902931902786

>  <meeko>  (54) 
{"free_energy": -5.61, "intermolecular_energy": -8.89, "internal_energy": -1.5, "cluster_size": 2, "cluster_id": 9, "rank_in_cluster": 1}

>  <energy>  (54) 
-6.33

>  <cluster_rmsd>  (54) 
1.1

>  <cluster>  (54) 
1

$$$$

     RDKit          3D

 54 57  0  0  0  0  0  0  0  0999 V2000
  139.2020   74.4770  221.4280 O   0  0  0  0  0  0  0  0  0  0  0  0
  140.4110   74.8200  221.5180 C   0  0  0  0  0  0  0  0  0  0  0  0
  140.6680   76.0810  222.1300 N   0  0  0  0  0  0  0  0  0  0  0  0
  139.5010   76.8310  222.5810 C   0  0  0  0  0  0  0  0  0  0  0  0
  139.6000   78.2620  222.1600 C   0  0  0  0  0  0  0  0  0  0  0  0
  138.5440   78.9060  221.9780 O   0  0  0  0  0  0  0  0  0  0  0  0
  140.8970   78.8160  221.9850 N   0  0  0  0  0  0  0  0  0  0  0  0
  141.8510   78.7030  223.0830 C   0  0  0  0  0  0  0  0  0  0  0  0
  142.3160   80.0760  223.4970 C   0  0  0  0  0  0  0  0  0  0  0  0
  141.1630   81.0320  223.2780 C   0  0  0  0  0  0  0  0  0  0  0  0
  141.1270   81.5690  221.8880 C   0  0  0  0  0  0  0  0  0  0  0  0
  141.8510   80.7100  220.8800 C   0  0  0  0  0  0  0  0  0  0  0  0
  141.0870   79.4340  220.6980 C   0  0  1  0  0  0  0  0  0  0  0  0
  141.7120   78.5150  219.7160 C   0  0  0  0  0  0  0  0  0  0  0  0
  142.5360   77.4670  220.0690 C   0  0  0  0  0  0  0  0  0  0  0  0
  143.0880   76.6470  219.1130 C   0  0  0  0  0  0  0  0  0  0  0  0
  142.8220   76.8620  217.7630 C   0  0  0  0  0  0  0  0  0  0  0  0
  143.5220   75.8190  216.5290 Cl  0  0  0  0  0  0  0  0  0  0  0  0
  141.9930   77.9170  217.4200 C   0  0  0  0  0  0  0  0  0  0  0  0
  141.4390   78.7390  218.3800 C   0  0  0  0  0  0  0  0  0  0  0  0
  141.5130   73.9990  221.0370 C   0  0  0  0  0  0  0  0  0  0  0  0
  141.2200   72.7280  220.5740 C   0  0  0  0  0  0  0  0  0  0  0  0
  142.2460   71.9320  220.1130 C   0  0  0  0  0  0  0  0  0  0  0  0
  143.5440   72.4180  220.1200 C   0  0  0  0  0  0  0  0  0  0  0  0
  144.5880   71.6410  219.6640 C   0  0  0  0  0  0  0  0  0  0  0  0
  145.8790   72.1060  219.6630 C   0  0  0  0  0  0  0  0  0  0  0  0
  146.1340   73.3870  220.1340 C   0  0  0  0  0  0  0  0  0  0  0  0
  145.0960   74.1950  220.6030 C   0  0  0  0  0  0  0  0  0  0  0  0
  143.8090   73.6920  220.5860 C   0  0  0  0  0  0  0  0  0  0  0  0
  142.7980   74.4550  221.0330 N   0  0  0  0  0  0  0  0  0  0  0  0
  141.6440   76.4550  222.2500 H   0  0  0  0  0  0  0  0  0  0  0  0
  138.5948   76.3872  222.1430 H   0  0  0  0  0  0  0  0  0  0  0  0
  139.4539   76.7870  223.6791 H   0  0  0  0  0  0  0  0  0  0  0  0
  141.3673   78.2078  223.9379 H   0  0  0  0  0  0  0  0  0  0  0  0
  142.7167   78.1098  222.7532 H   0  0  0  0  0  0  0  0  0  0  0  0
  142.6032   80.0709  224.5588 H   0  0  0  0  0  0  0  0  0  0  0  0
  143.1915   80.3831  222.9061 H   0  0  0  0  0  0  0  0  0  0  0  0
  140.2206   80.5003  223.4759 H   0  0  0  0  0  0  0  0  0  0  0  0
  141.2972   81.8822  223.9629 H   0  0  0  0  0  0  0  0  0  0  0  0
  140.0753   81.6551  221.5774 H   0  0  0  0  0  0  0  0  0  0  0  0
  141.6431   82.5402  221.9082 H   0  0  0  0  0  0  0  0  0  0  0  0
  141.9166   81.2422  219.9196 H   0  0  0  0  0  0  0  0  0  0  0  0
  142.8678   80.4899  221.2373 H   0  0  0  0  0  0  0  0  0  0  0  0
  140.1054   79.6761  220.2646 H   0  0  0  0  0  0  0  0  0  0  0  0
  142.7550   77.2842  221.1314 H   0  0  0  0  0  0  0  0  0  0  0  0
  143.7430   75.8169  219.4162 H   0  0  0  0  0  0  0  0  0  0  0  0
  141.7713   78.1038  216.3589 H   0  0  0  0  0  0  0  0  0  0  0  0
  140.7822   79.5698  218.0828 H   0  0  0  0  0  0  0  0  0  0  0  0
  140.1838   72.3589  220.5740 H   0  0  0  0  0  0  0  0  0  0  0  0
  142.0363   70.9179  219.7420 H   0  0  0  0  0  0  0  0  0  0  0  0
  144.3814   70.6263  219.2930 H   0  0  0  0  0  0  0  0  0  0  0  0
  146.6998   71.4732  219.2945 H   0  0  0  0  0  0  0  0  0  0  0  0
  147.1653   73.7697  220.1378 H   0  0  0  0  0  0  0  0  0  0  0  0
  145.2983   75.2093  220.9776 H   0  0  0  0  0  0  0  0  0  0  0  0
  1  2  2  0
  2  3  1  0
  3  4  1  0
  4  5  1  0
  5  6  2  0
  5  7  1  0
  7  8  1  0
  8  9  1  0
  9 10  1  0
 10 11  1  0
 11 12  1  0
 12 13  1  0
 13 14  1  0
 14 15  2  0
 15 16  1  0
 16 17  2  0
 17 18  1  0
 17 19  1  0
 19 20  2  0
  2 21  1  0
 21 22  2  0
 22 23  1  0
 23 24  2  0
 24 25  1  0
 25 26  2  0
 26 27  1  0
 27 28  2  0
 28 29  1  0
 29 30  2  0
 13  7  1  0
 20 14  1  0
 30 21  1  0
 29 24  1  0
  3 31  1  0
  4 32  1  0
  4 33  1  0
  8 34  1  0
  8 35  1  0
  9 36  1  0
  9 37  1  0
 10 38  1  0
 10 39  1  0
 11 40  1  0
 11 41  1  0
 12 42  1  0
 12 43  1  0
 13 44  1  6
 15 45  1  0
 16 46  1  0
 19 47  1  0
 20 48  1  0
 22 49  1  0
 23 50  1  0
 25 51  1  0
 26 52  1  0
 27 53  1  0
 28 54  1  0
M  END
>  <smiles>  (55) 
O=C(NCC(=O)N1CCCCCC1c1ccc(Cl)cc1)c1ccc2ccccc2n1

>  <score_type>  (55) 
oracle

>  <origin>  (55) 
autodockgpu

>  <m_score__min__energy>  (55) 
-6.8499999999999996

>  <m_primary>  (55) 
energy

>  <rmsd>  (55) 
6.328428722116125

>  <m_score__min__rmsd>  (55) 
6.328428722116125

>  <meeko>  (55) 
{"free_energy": -4.65, "intermolecular_energy": -7.93, "internal_energy": -2.79, "cluster_size": 7, "cluster_id": 8, "rank_in_cluster": 5}

>  <energy>  (55) 
-5.95

>  <cluster_rmsd>  (55) 
1.09

>  <cluster>  (55) 
1

$$$$

     RDKit          3D

 54 57  0  0  0  0  0  0  0  0999 V2000
  141.0850   71.7770  221.4470 O   0  0  0  0  0  0  0  0  0  0  0  0
  140.3180   72.1630  222.3690 C   0  0  0  0  0  0  0  0  0  0  0  0
  139.6050   73.3740  222.1330 N   0  0  0  0  0  0  0  0  0  0  0  0
  139.8450   74.0280  220.8520 C   0  0  0  0  0  0  0  0  0  0  0  0
  141.0060   74.9650  220.9480 C   0  0  0  0  0  0  0  0  0  0  0  0
  142.1350   74.4940  221.2040 O   0  0  0  0  0  0  0  0  0  0  0  0
  140.7610   76.3510  220.7450 N   0  0  0  0  0  0  0  0  0  0  0  0
  140.6800   76.8440  219.3750 C   0  0  0  0  0  0  0  0  0  0  0  0
  141.9630   77.5490  219.0110 C   0  0  0  0  0  0  0  0  0  0  0  0
  141.8350   78.9870  219.4660 C   0  0  0  0  0  0  0  0  0  0  0  0
  140.9730   79.1370  220.6740 C   0  0  0  0  0  0  0  0  0  0  0  0
  141.4400   78.3470  221.8730 C   0  0  0  0  0  0  0  0  0  0  0  0
  140.6250   77.0940  221.9710 C   0  0  1  0  0  0  0  0  0  0  0  0
  139.2070   77.3460  222.3240 C   0  0  0  0  0  0  0  0  0  0  0  0
  138.2230   76.3810  222.2710 C   0  0  0  0  0  0  0  0  0  0  0  0
  136.9230   76.6740  222.6100 C   0  0  0  0  0  0  0  0  0  0  0  0
  136.5750   77.9590  223.0160 C   0  0  0  0  0  0  0  0  0  0  0  0
  134.9150   78.3480  223.4540 Cl  0  0  0  0  0  0  0  0  0  0  0  0
  137.5700   78.9220  223.0660 C   0  0  0  0  0  0  0  0  0  0  0  0
  138.8740   78.6260  222.7260 C   0  0  0  0  0  0  0  0  0  0  0  0
  140.1430   71.4390  223.6190 C   0  0  0  0  0  0  0  0  0  0  0  0
  139.4250   70.2560  223.5880 C   0  0  0  0  0  0  0  0  0  0  0  0
  139.2470   69.5520  224.7600 C   0  0  0  0  0  0  0  0  0  0  0  0
  139.7860   70.0400  225.9390 C   0  0  0  0  0  0  0  0  0  0  0  0
  139.6210   69.3550  227.1240 C   0  0  0  0  0  0  0  0  0  0  0  0
  140.1490   69.8230  228.3010 C   0  0  0  0  0  0  0  0  0  0  0  0
  140.8630   71.0130  228.2930 C   0  0  0  0  0  0  0  0  0  0  0  0
  141.0450   71.7280  227.1070 C   0  0  0  0  0  0  0  0  0  0  0  0
  140.4990   71.2240  225.9420 C   0  0  0  0  0  0  0  0  0  0  0  0
  140.6650   71.8980  224.7920 N   0  0  0  0  0  0  0  0  0  0  0  0
  138.9410   73.7780  222.8420 H   0  0  0  0  0  0  0  0  0  0  0  0
  140.0595   73.2636  220.0906 H   0  0  0  0  0  0  0  0  0  0  0  0
  138.9487   74.6018  220.5738 H   0  0  0  0  0  0  0  0  0  0  0  0
  140.5212   75.9975  218.6907 H   0  0  0  0  0  0  0  0  0  0  0  0
  139.8404   77.5497  219.2911 H   0  0  0  0  0  0  0  0  0  0  0  0
  142.8128   77.0686  219.5180 H   0  0  0  0  0  0  0  0  0  0  0  0
  142.1388   77.4994  217.9263 H   0  0  0  0  0  0  0  0  0  0  0  0
  142.8384   79.3720  219.7004 H   0  0  0  0  0  0  0  0  0  0  0  0
  141.3615   79.5516  218.6493 H   0  0  0  0  0  0  0  0  0  0  0  0
  140.9499   80.2014  220.9506 H   0  0  0  0  0  0  0  0  0  0  0  0
  139.9818   78.7435  220.4043 H   0  0  0  0  0  0  0  0  0  0  0  0
  142.5027   78.0888  221.7548 H   0  0  0  0  0  0  0  0  0  0  0  0
  141.3167   78.9462  222.7872 H   0  0  0  0  0  0  0  0  0  0  0  0
  141.0152   76.4917  222.8046 H   0  0  0  0  0  0  0  0  0  0  0  0
  138.4824   75.3606  221.9524 H   0  0  0  0  0  0  0  0  0  0  0  0
  136.1542   75.8889  222.5601 H   0  0  0  0  0  0  0  0  0  0  0  0
  137.3150   79.9439  223.3834 H   0  0  0  0  0  0  0  0  0  0  0  0
  139.6471   79.4070  222.7747 H   0  0  0  0  0  0  0  0  0  0  0  0
  139.0030   69.8833  222.6430 H   0  0  0  0  0  0  0  0  0  0  0  0
  138.6807   68.6090  224.7588 H   0  0  0  0  0  0  0  0  0  0  0  0
  139.0537   68.4126  227.1261 H   0  0  0  0  0  0  0  0  0  0  0  0
  140.0083   69.2630  229.2373 H   0  0  0  0  0  0  0  0  0  0  0  0
  141.2903   71.3973  229.2309 H   0  0  0  0  0  0  0  0  0  0  0  0
  141.6105   72.6715  227.1005 H   0  0  0  0  0  0  0  0  0  0  0  0
  1  2  2  0
  2  3  1  0
  3  4  1  0
  4  5  1  0
  5  6  2  0
  5  7  1  0
  7  8  1  0
  8  9  1  0
  9 10  1  0
 10 11  1  0
 11 12  1  0
 12 13  1  0
 13 14  1  0
 14 15  2  0
 15 16  1  0
 16 17  2  0
 17 18  1  0
 17 19  1  0
 19 20  2  0
  2 21  1  0
 21 22  2  0
 22 23  1  0
 23 24  2  0
 24 25  1  0
 25 26  2  0
 26 27  1  0
 27 28  2  0
 28 29  1  0
 29 30  2  0
 13  7  1  0
 20 14  1  0
 30 21  1  0
 29 24  1  0
  3 31  1  0
  4 32  1  0
  4 33  1  0
  8 34  1  0
  8 35  1  0
  9 36  1  0
  9 37  1  0
 10 38  1  0
 10 39  1  0
 11 40  1  0
 11 41  1  0
 12 42  1  0
 12 43  1  0
 13 44  1  1
 15 45  1  0
 16 46  1  0
 19 47  1  0
 20 48  1  0
 22 49  1  0
 23 50  1  0
 25 51  1  0
 26 52  1  0
 27 53  1  0
 28 54  1  0
M  END
>  <smiles>  (56) 
O=C(NCC(=O)N1CCCCCC1c1ccc(Cl)cc1)c1ccc2ccccc2n1

>  <score_type>  (56) 
oracle

>  <origin>  (56) 
autodockgpu

>  <m_score__min__energy>  (56) 
-6.8499999999999996

>  <m_primary>  (56) 
energy

>  <rmsd>  (56) 
2.233869072941685

>  <m_score__min__rmsd>  (56) 
2.233869072941685

>  <meeko>  (56) 
{"free_energy": -6.19, "intermolecular_energy": -9.47, "internal_energy": -1.5, "cluster_size": 2, "cluster_id": 6, "rank_in_cluster": 1}

>  <energy>  (56) 
-5.87

>  <cluster_rmsd>  (56) 
1.83

>  <cluster>  (56) 
1

$$$$

     RDKit          3D

 54 57  0  0  0  0  0  0  0  0999 V2000
  140.4960   75.2630  220.8130 O   0  0  0  0  0  0  0  0  0  0  0  0
  139.8620   75.7330  221.7950 C   0  0  0  0  0  0  0  0  0  0  0  0
  138.9000   74.8730  222.3980 N   0  0  0  0  0  0  0  0  0  0  0  0
  138.7600   73.5460  221.8100 C   0  0  0  0  0  0  0  0  0  0  0  0
  139.8490   72.6400  222.2870 C   0  0  0  0  0  0  0  0  0  0  0  0
  141.0110   73.0950  222.3700 O   0  0  0  0  0  0  0  0  0  0  0  0
  139.5040   71.3020  222.6210 N   0  0  0  0  0  0  0  0  0  0  0  0
  140.0420   70.2240  221.8000 C   0  0  0  0  0  0  0  0  0  0  0  0
  139.2240   70.0870  220.5410 C   0  0  0  0  0  0  0  0  0  0  0  0
  137.7810   69.8940  220.9550 C   0  0  0  0  0  0  0  0  0  0  0  0
  137.6540   69.4520  222.3760 C   0  0  0  0  0  0  0  0  0  0  0  0
  137.3490   70.5640  223.3490 C   0  0  0  0  0  0  0  0  0  0  0  0
  138.6380   71.2040  223.7680 C   0  0  1  0  0  0  0  0  0  0  0  0
  139.2870   70.5160  224.9100 C   0  0  0  0  0  0  0  0  0  0  0  0
  140.3720   71.0270  225.5910 C   0  0  0  0  0  0  0  0  0  0  0  0
  140.9340   70.3420  226.6430 C   0  0  0  0  0  0  0  0  0  0  0  0
  140.4130   69.1140  227.0420 C   0  0  0  0  0  0  0  0  0  0  0  0
  141.1220   68.2280  228.3880 Cl  0  0  0  0  0  0  0  0  0  0  0  0
  139.3240   68.6100  226.3500 C   0  0  0  0  0  0  0  0  0  0  0  0
  138.7610   69.2980  225.2950 C   0  0  0  0  0  0  0  0  0  0  0  0
  140.0730   77.0770  222.3140 C   0  0  0  0  0  0  0  0  0  0  0  0
  138.9600   77.8070  222.6950 C   0  0  0  0  0  0  0  0  0  0  0  0
  139.1350   79.0820  223.1890 C   0  0  0  0  0  0  0  0  0  0  0  0
  140.4140   79.6050  223.2940 C   0  0  0  0  0  0  0  0  0  0  0  0
  140.6140   80.8780  223.7850 C   0  0  0  0  0  0  0  0  0  0  0  0
  141.8740   81.4110  223.8970 C   0  0  0  0  0  0  0  0  0  0  0  0
  142.9650   80.6480  223.5060 C   0  0  0  0  0  0  0  0  0  0  0  0
  142.7910   79.3570  223.0040 C   0  0  0  0  0  0  0  0  0  0  0  0
  141.5080   78.8540  222.9070 C   0  0  0  0  0  0  0  0  0  0  0  0
  141.3220   77.6130  222.4280 N   0  0  0  0  0  0  0  0  0  0  0  0
  138.3210   75.1740  223.2230 H   0  0  0  0  0  0  0  0  0  0  0  0
  137.7863   73.1237  222.0990 H   0  0  0  0  0  0  0  0  0  0  0  0
  138.8274   73.6348  220.7157 H   0  0  0  0  0  0  0  0  0  0  0  0
  141.0851   70.4517  221.5353 H   0  0  0  0  0  0  0  0  0  0  0  0
  140.0016   69.2810  222.3650 H   0  0  0  0  0  0  0  0  0  0  0  0
  139.3209   70.9961  219.9293 H   0  0  0  0  0  0  0  0  0  0  0  0
  139.5732   69.2323  219.9431 H   0  0  0  0  0  0  0  0  0  0  0  0
  137.2470   70.8478  220.8320 H   0  0  0  0  0  0  0  0  0  0  0  0
  137.3501   69.1076  220.3179 H   0  0  0  0  0  0  0  0  0  0  0  0
  136.8430   68.7111  222.4348 H   0  0  0  0  0  0  0  0  0  0  0  0
  138.6321   69.0405  222.6657 H   0  0  0  0  0  0  0  0  0  0  0  0
  136.7044   71.3126  222.8652 H   0  0  0  0  0  0  0  0  0  0  0  0
  136.8285   70.1590  224.2294 H   0  0  0  0  0  0  0  0  0  0  0  0
  138.4184   72.2144  224.1432 H   0  0  0  0  0  0  0  0  0  0  0  0
  140.7941   71.9967  225.2884 H   0  0  0  0  0  0  0  0  0  0  0  0
  141.7999   70.7667  227.1721 H   0  0  0  0  0  0  0  0  0  0  0  0
  138.8989   67.6402  226.6481 H   0  0  0  0  0  0  0  0  0  0  0  0
  137.8955   68.8778  224.7618 H   0  0  0  0  0  0  0  0  0  0  0  0
  137.9518   77.3763  222.6049 H   0  0  0  0  0  0  0  0  0  0  0  0
  138.2651   79.6803  223.4978 H   0  0  0  0  0  0  0  0  0  0  0  0
  139.7457   81.4789  224.0933 H   0  0  0  0  0  0  0  0  0  0  0  0
  142.0167   82.4281  224.2909 H   0  0  0  0  0  0  0  0  0  0  0  0
  143.9791   81.0653  223.5926 H   0  0  0  0  0  0  0  0  0  0  0  0
  143.6564   78.7536  222.6926 H   0  0  0  0  0  0  0  0  0  0  0  0
  1  2  2  0
  2  3  1  0
  3  4  1  0
  4  5  1  0
  5  6  2  0
  5  7  1  0
  7  8  1  0
  8  9  1  0
  9 10  1  0
 10 11  1  0
 11 12  1  0
 12 13  1  0
 13 14  1  0
 14 15  2  0
 15 16  1  0
 16 17  2  0
 17 18  1  0
 17 19  1  0
 19 20  2  0
  2 21  1  0
 21 22  2  0
 22 23  1  0
 23 24  2  0
 24 25  1  0
 25 26  2  0
 26 27  1  0
 27 28  2  0
 28 29  1  0
 29 30  2  0
 13  7  1  0
 20 14  1  0
 30 21  1  0
 29 24  1  0
  3 31  1  0
  4 32  1  0
  4 33  1  0
  8 34  1  0
  8 35  1  0
  9 36  1  0
  9 37  1  0
 10 38  1  0
 10 39  1  0
 11 40  1  0
 11 41  1  0
 12 42  1  0
 12 43  1  0
 13 44  1  1
 15 45  1  0
 16 46  1  0
 19 47  1  0
 20 48  1  0
 22 49  1  0
 23 50  1  0
 25 51  1  0
 26 52  1  0
 27 53  1  0
 28 54  1  0
M  END
>  <smiles>  (57) 
O=C(NCC(=O)N1CCCCCC1c1ccc(Cl)cc1)c1ccc2ccccc2n1

>  <score_type>  (57) 
oracle

>  <origin>  (57) 
autodockgpu

>  <m_score__min__energy>  (57) 
-6.8499999999999996

>  <m_primary>  (57) 
energy

>  <rmsd>  (57) 
8.0462449865585

>  <m_score__min__rmsd>  (57) 
8.0462449865585

>  <meeko>  (57) 
{"free_energy": -6.57, "intermolecular_energy": -9.86, "internal_energy": -1.47, "cluster_size": 5, "cluster_id": 4, "rank_in_cluster": 1}

>  <energy>  (57) 
-5.77

>  <cluster_rmsd>  (57) 
1.4

>  <cluster>  (57) 
1

$$$$

     RDKit          3D

 54 57  0  0  0  0  0  0  0  0999 V2000
  141.6220   76.2480  218.0390 O   0  0  0  0  0  0  0  0  0  0  0  0
  142.5120   76.2540  218.9300 C   0  0  0  0  0  0  0  0  0  0  0  0
  142.6330   77.4510  219.6950 N   0  0  0  0  0  0  0  0  0  0  0  0
  141.7130   78.5300  219.3580 C   0  0  0  0  0  0  0  0  0  0  0  0
  140.7670   78.7870  220.4860 C   0  0  0  0  0  0  0  0  0  0  0  0
  139.5390   78.7780  220.2510 O   0  0  0  0  0  0  0  0  0  0  0  0
  141.3180   79.0300  221.7740 N   0  0  0  0  0  0  0  0  0  0  0  0
  142.3940   80.0060  221.8920 C   0  0  0  0  0  0  0  0  0  0  0  0
  141.8120   81.3870  222.0600 C   0  0  0  0  0  0  0  0  0  0  0  0
  140.3470   81.2250  222.4030 C   0  0  0  0  0  0  0  0  0  0  0  0
  140.1350   80.4600  223.6680 C   0  0  0  0  0  0  0  0  0  0  0  0
  139.6300   79.0520  223.4680 C   0  0  0  0  0  0  0  0  0  0  0  0
  140.7080   78.2430  222.8150 C   0  0  1  0  0  0  0  0  0  0  0  0
  140.2340   76.9260  222.3240 C   0  0  0  0  0  0  0  0  0  0  0  0
  138.9020   76.5930  222.2000 C   0  0  0  0  0  0  0  0  0  0  0  0
  138.5210   75.3540  221.7390 C   0  0  0  0  0  0  0  0  0  0  0  0
  139.4810   74.4090  221.3860 C   0  0  0  0  0  0  0  0  0  0  0  0
  139.0070   72.8210  220.7940 Cl  0  0  0  0  0  0  0  0  0  0  0  0
  140.8160   74.7550  221.5140 C   0  0  0  0  0  0  0  0  0  0  0  0
  141.1970   75.9970  221.9770 C   0  0  0  0  0  0  0  0  0  0  0  0
  143.3880   75.1220  219.1940 C   0  0  0  0  0  0  0  0  0  0  0  0
  144.3420   75.2580  220.1880 C   0  0  0  0  0  0  0  0  0  0  0  0
  145.1820   74.1990  220.4570 C   0  0  0  0  0  0  0  0  0  0  0  0
  145.0570   73.0250  219.7300 C   0  0  0  0  0  0  0  0  0  0  0  0
  145.8860   71.9520  219.9800 C   0  0  0  0  0  0  0  0  0  0  0  0
  145.7750   70.7820  219.2710 C   0  0  0  0  0  0  0  0  0  0  0  0
  144.8060   70.6840  218.2820 C   0  0  0  0  0  0  0  0  0  0  0  0
  143.9540   71.7550  218.0070 C   0  0  0  0  0  0  0  0  0  0  0  0
  144.0950   72.9160  218.7440 C   0  0  0  0  0  0  0  0  0  0  0  0
  143.2830   73.9560  218.4940 N   0  0  0  0  0  0  0  0  0  0  0  0
  143.3470   77.5530  220.4610 H   0  0  0  0  0  0  0  0  0  0  0  0
  142.2884   79.4449  219.1533 H   0  0  0  0  0  0  0  0  0  0  0  0
  141.1340   78.2375  218.4696 H   0  0  0  0  0  0  0  0  0  0  0  0
  143.0146   79.7619  222.7668 H   0  0  0  0  0  0  0  0  0  0  0  0
  143.0112   79.9793  220.9819 H   0  0  0  0  0  0  0  0  0  0  0  0
  142.3314   81.9171  222.8719 H   0  0  0  0  0  0  0  0  0  0  0  0
  141.9310   81.9724  221.1364 H   0  0  0  0  0  0  0  0  0  0  0  0
  139.8990   82.2233  222.5156 H   0  0  0  0  0  0  0  0  0  0  0  0
  139.8744   80.6581  221.5874 H   0  0  0  0  0  0  0  0  0  0  0  0
  141.0943   80.4086  224.2038 H   0  0  0  0  0  0  0  0  0  0  0  0
  139.3570   80.9954  224.2319 H   0  0  0  0  0  0  0  0  0  0  0  0
  139.3733   78.6091  224.4416 H   0  0  0  0  0  0  0  0  0  0  0  0
  138.7325   79.0627  222.8322 H   0  0  0  0  0  0  0  0  0  0  0  0
  141.4653   77.9987  223.5745 H   0  0  0  0  0  0  0  0  0  0  0  0
  138.1320   77.3292  222.4738 H   0  0  0  0  0  0  0  0  0  0  0  0
  137.4525   75.1086  221.6488 H   0  0  0  0  0  0  0  0  0  0  0  0
  141.5898   74.0227  221.2402 H   0  0  0  0  0  0  0  0  0  0  0  0
  142.2640   76.2476  222.0699 H   0  0  0  0  0  0  0  0  0  0  0  0
  144.4282   76.1970  220.7545 H   0  0  0  0  0  0  0  0  0  0  0  0
  145.9465   74.2846  221.2432 H   0  0  0  0  0  0  0  0  0  0  0  0
  146.6527   72.0354  220.7644 H   0  0  0  0  0  0  0  0  0  0  0  0
  146.4438   69.9349  219.4833 H   0  0  0  0  0  0  0  0  0  0  0  0
  144.7083   69.7508  217.7078 H   0  0  0  0  0  0  0  0  0  0  0  0
  143.1878   71.6769  217.2216 H   0  0  0  0  0  0  0  0  0  0  0  0
  1  2  2  0
  2  3  1  0
  3  4  1  0
  4  5  1  0
  5  6  2  0
  5  7  1  0
  7  8  1  0
  8  9  1  0
  9 10  1  0
 10 11  1  0
 11 12  1  0
 12 13  1  0
 13 14  1  0
 14 15  2  0
 15 16  1  0
 16 17  2  0
 17 18  1  0
 17 19  1  0
 19 20  2  0
  2 21  1  0
 21 22  2  0
 22 23  1  0
 23 24  2  0
 24 25  1  0
 25 26  2  0
 26 27  1  0
 27 28  2  0
 28 29  1  0
 29 30  2  0
 13  7  1  0
 20 14  1  0
 30 21  1  0
 29 24  1  0
  3 31  1  0
  4 32  1  0
  4 33  1  0
  8 34  1  0
  8 35  1  0
  9 36  1  0
  9 37  1  0
 10 38  1  0
 10 39  1  0
 11 40  1  0
 11 41  1  0
 12 42  1  0
 12 43  1  0
 13 44  1  1
 15 45  1  0
 16 46  1  0
 19 47  1  0
 20 48  1  0
 22 49  1  0
 23 50  1  0
 25 51  1  0
 26 52  1  0
 27 53  1  0
 28 54  1  0
M  END
>  <smiles>  (58) 
O=C(NCC(=O)N1CCCCCC1c1ccc(Cl)cc1)c1ccc2ccccc2n1

>  <score_type>  (58) 
oracle

>  <origin>  (58) 
autodockgpu

>  <m_score__min__energy>  (58) 
-6.8499999999999996

>  <m_primary>  (58) 
energy

>  <rmsd>  (58) 
7.676326458471026

>  <m_score__min__rmsd>  (58) 
7.676326458471026

>  <meeko>  (58) 
{"free_energy": -4.8, "intermolecular_energy": -8.08, "internal_energy": -2.32, "cluster_size": 4, "cluster_id": 11, "rank_in_cluster": 1}

>  <energy>  (58) 
-5.39

>  <cluster_rmsd>  (58) 
1.6

>  <cluster>  (58) 
1

$$$$

     RDKit          3D

 54 57  0  0  0  0  0  0  0  0999 V2000
  140.8230   71.5920  222.0520 O   0  0  0  0  0  0  0  0  0  0  0  0
  139.9990   71.7400  222.9930 C   0  0  0  0  0  0  0  0  0  0  0  0
  138.8770   72.5760  222.7270 N   0  0  0  0  0  0  0  0  0  0  0  0
  138.8100   73.1640  221.3940 C   0  0  0  0  0  0  0  0  0  0  0  0
  138.6940   74.6520  221.4810 C   0  0  0  0  0  0  0  0  0  0  0  0
  137.5710   75.1520  221.7150 O   0  0  0  0  0  0  0  0  0  0  0  0
  139.8720   75.4240  221.2920 N   0  0  0  0  0  0  0  0  0  0  0  0
  140.2620   76.3600  222.3400 C   0  0  0  0  0  0  0  0  0  0  0  0
  141.0770   77.4800  221.7460 C   0  0  0  0  0  0  0  0  0  0  0  0
  140.1780   78.2410  220.7950 C   0  0  0  0  0  0  0  0  0  0  0  0
  139.4700   77.3490  219.8270 C   0  0  0  0  0  0  0  0  0  0  0  0
  140.3510   76.3380  219.1350 C   0  0  0  0  0  0  0  0  0  0  0  0
  140.5350   75.1590  220.0410 C   0  0  1  0  0  0  0  0  0  0  0  0
  141.9560   74.7790  220.2230 C   0  0  0  0  0  0  0  0  0  0  0  0
  143.0120   75.6320  219.9790 C   0  0  0  0  0  0  0  0  0  0  0  0
  144.3120   75.2230  220.1660 C   0  0  0  0  0  0  0  0  0  0  0  0
  144.5860   73.9310  220.6080 C   0  0  0  0  0  0  0  0  0  0  0  0
  146.2450   73.3950  220.8510 Cl  0  0  0  0  0  0  0  0  0  0  0  0
  143.5180   73.0820  220.8490 C   0  0  0  0  0  0  0  0  0  0  0  0
  142.2150   73.4940  220.6620 C   0  0  0  0  0  0  0  0  0  0  0  0
  140.1520   71.1070  224.2960 C   0  0  0  0  0  0  0  0  0  0  0  0
  140.8280   71.8070  225.2810 C   0  0  0  0  0  0  0  0  0  0  0  0
  140.9850   71.2290  226.5220 C   0  0  0  0  0  0  0  0  0  0  0  0
  140.4650   69.9670  226.7590 C   0  0  0  0  0  0  0  0  0  0  0  0
  140.6100   69.3670  227.9920 C   0  0  0  0  0  0  0  0  0  0  0  0
  140.1010   68.1170  228.2450 C   0  0  0  0  0  0  0  0  0  0  0  0
  139.4290   67.4470  227.2320 C   0  0  0  0  0  0  0  0  0  0  0  0
  139.2690   68.0300  225.9730 C   0  0  0  0  0  0  0  0  0  0  0  0
  139.7940   69.2900  225.7580 C   0  0  0  0  0  0  0  0  0  0  0  0
  139.6490   69.8660  224.5540 N   0  0  0  0  0  0  0  0  0  0  0  0
  138.1350   72.7610  223.4490 H   0  0  0  0  0  0  0  0  0  0  0  0
  139.7229   72.9044  220.8380 H   0  0  0  0  0  0  0  0  0  0  0  0
  137.9238   72.7687  220.8759 H   0  0  0  0  0  0  0  0  0  0  0  0
  139.3599   76.7756  222.8128 H   0  0  0  0  0  0  0  0  0  0  0  0
  140.8649   75.8317  223.0932 H   0  0  0  0  0  0  0  0  0  0  0  0
  141.4330   78.1493  222.5431 H   0  0  0  0  0  0  0  0  0  0  0  0
  141.9544   77.0819  221.2153 H   0  0  0  0  0  0  0  0  0  0  0  0
  139.4264   78.7874  221.3836 H   0  0  0  0  0  0  0  0  0  0  0  0
  140.8148   78.9226  220.2119 H   0  0  0  0  0  0  0  0  0  0  0  0
  138.6877   76.8029  220.3745 H   0  0  0  0  0  0  0  0  0  0  0  0
  139.0720   78.0037  219.0377 H   0  0  0  0  0  0  0  0  0  0  0  0
  139.8758   76.0135  218.1975 H   0  0  0  0  0  0  0  0  0  0  0  0
  141.3276   76.7885  218.9042 H   0  0  0  0  0  0  0  0  0  0  0  0
  140.0733   74.2809  219.5659 H   0  0  0  0  0  0  0  0  0  0  0  0
  142.8115   76.6555  219.6294 H   0  0  0  0  0  0  0  0  0  0  0  0
  145.1392   75.9198  219.9655 H   0  0  0  0  0  0  0  0  0  0  0  0
  143.7135   72.0570  221.1971 H   0  0  0  0  0  0  0  0  0  0  0  0
  141.3839   72.8017  220.8617 H   0  0  0  0  0  0  0  0  0  0  0  0
  141.2334   72.8088  225.0761 H   0  0  0  0  0  0  0  0  0  0  0  0
  141.5197   71.7661  227.3192 H   0  0  0  0  0  0  0  0  0  0  0  0
  141.1453   69.9015  228.7906 H   0  0  0  0  0  0  0  0  0  0  0  0
  140.2239   67.6538  229.2351 H   0  0  0  0  0  0  0  0  0  0  0  0
  139.0176   66.4449  227.4231 H   0  0  0  0  0  0  0  0  0  0  0  0
  138.7370   67.4981  225.1705 H   0  0  0  0  0  0  0  0  0  0  0  0
  1  2  2  0
  2  3  1  0
  3  4  1  0
  4  5  1  0
  5  6  2  0
  5  7  1  0
  7  8  1  0
  8  9  1  0
  9 10  1  0
 10 11  1  0
 11 12  1  0
 12 13  1  0
 13 14  1  0
 14 15  2  0
 15 16  1  0
 16 17  2  0
 17 18  1  0
 17 19  1  0
 19 20  2  0
  2 21  1  0
 21 22  2  0
 22 23  1  0
 23 24  2  0
 24 25  1  0
 25 26  2  0
 26 27  1  0
 27 28  2  0
 28 29  1  0
 29 30  2  0
 13  7  1  0
 20 14  1  0
 30 21  1  0
 29 24  1  0
  3 31  1  0
  4 32  1  0
  4 33  1  0
  8 34  1  0
  8 35  1  0
  9 36  1  0
  9 37  1  0
 10 38  1  0
 10 39  1  0
 11 40  1  0
 11 41  1  0
 12 42  1  0
 12 43  1  0
 13 44  1  6
 15 45  1  0
 16 46  1  0
 19 47  1  0
 20 48  1  0
 22 49  1  0
 23 50  1  0
 25 51  1  0
 26 52  1  0
 27 53  1  0
 28 54  1  0
M  END
>  <smiles>  (59) 
O=C(NCC(=O)N1CCCCCC1c1ccc(Cl)cc1)c1ccc2ccccc2n1

>  <score_type>  (59) 
oracle

>  <origin>  (59) 
autodockgpu

>  <m_score__min__energy>  (59) 
-6.8499999999999996

>  <m_primary>  (59) 
energy

>  <rmsd>  (59) 
3.3213436093405324

>  <m_score__min__rmsd>  (59) 
3.3213436093405324

>  <meeko>  (59) 
{"free_energy": -5.9, "intermolecular_energy": -9.19, "internal_energy": -1.83, "cluster_size": 10, "cluster_id": 3, "rank_in_cluster": 8}

>  <energy>  (59) 
-6.69

>  <cluster_rmsd>  (59) 
0.0

>  <cluster>  (59) 
2

$$$$

     RDKit          3D

 54 57  0  0  0  0  0  0  0  0999 V2000
  139.0580   70.9390  221.5550 O   0  0  0  0  0  0  0  0  0  0  0  0
  139.3960   71.4330  222.6640 C   0  0  0  0  0  0  0  0  0  0  0  0
  139.6360   72.8370  222.6860 N   0  0  0  0  0  0  0  0  0  0  0  0
  139.4640   73.5420  221.4210 C   0  0  0  0  0  0  0  0  0  0  0  0
  140.5780   74.5160  221.2050 C   0  0  0  0  0  0  0  0  0  0  0  0
  140.4780   75.6590  221.7030 O   0  0  0  0  0  0  0  0  0  0  0  0
  141.6970   74.0880  220.4410 N   0  0  0  0  0  0  0  0  0  0  0  0
  141.6570   72.7590  219.8410 C   0  0  0  0  0  0  0  0  0  0  0  0
  142.3370   71.7680  220.7530 C   0  0  0  0  0  0  0  0  0  0  0  0
  143.8300   71.9390  220.5760 C   0  0  0  0  0  0  0  0  0  0  0  0
  144.3080   73.2910  220.9870 C   0  0  0  0  0  0  0  0  0  0  0  0
  144.0260   74.3840  219.9860 C   0  0  0  0  0  0  0  0  0  0  0  0
  142.7490   75.0680  220.3680 C   0  0  1  0  0  0  0  0  0  0  0  0
  142.4040   76.2020  219.4760 C   0  0  0  0  0  0  0  0  0  0  0  0
  142.0500   76.0500  218.1520 C   0  0  0  0  0  0  0  0  0  0  0  0
  141.7410   77.1400  217.3720 C   0  0  0  0  0  0  0  0  0  0  0  0
  141.7810   78.4240  217.9090 C   0  0  0  0  0  0  0  0  0  0  0  0
  141.3870   79.8280  216.9220 Cl  0  0  0  0  0  0  0  0  0  0  0  0
  142.1390   78.5650  219.2400 C   0  0  0  0  0  0  0  0  0  0  0  0
  142.4480   77.4710  220.0220 C   0  0  0  0  0  0  0  0  0  0  0  0
  139.5420   70.6440  223.8790 C   0  0  0  0  0  0  0  0  0  0  0  0
  139.1100   69.3290  223.8540 C   0  0  0  0  0  0  0  0  0  0  0  0
  139.2390   68.5610  224.9910 C   0  0  0  0  0  0  0  0  0  0  0  0
  139.7950   69.1180  226.1320 C   0  0  0  0  0  0  0  0  0  0  0  0
  139.9340   68.3710  227.2830 C   0  0  0  0  0  0  0  0  0  0  0  0
  140.4830   68.9060  228.4210 C   0  0  0  0  0  0  0  0  0  0  0  0
  140.9050   70.2280  228.4080 C   0  0  0  0  0  0  0  0  0  0  0  0
  140.7760   71.0080  227.2570 C   0  0  0  0  0  0  0  0  0  0  0  0
  140.2190   70.4340  226.1300 C   0  0  0  0  0  0  0  0  0  0  0  0
  140.0870   71.1680  225.0140 N   0  0  0  0  0  0  0  0  0  0  0  0
  139.9230   73.3410  223.5640 H   0  0  0  0  0  0  0  0  0  0  0  0
  139.4577   72.8119  220.5983 H   0  0  0  0  0  0  0  0  0  0  0  0
  138.5122   74.0927  221.4487 H   0  0  0  0  0  0  0  0  0  0  0  0
  140.6100   72.4577  219.6896 H   0  0  0  0  0  0  0  0  0  0  0  0
  142.1791   72.7807  218.8731 H   0  0  0  0  0  0  0  0  0  0  0  0
  142.0574   71.9660  221.7983 H   0  0  0  0  0  0  0  0  0  0  0  0
  142.0322   70.7405  220.5055 H   0  0  0  0  0  0  0  0  0  0  0  0
  144.3455   71.1830  221.1865 H   0  0  0  0  0  0  0  0  0  0  0  0
  144.0533   71.8192  219.5056 H   0  0  0  0  0  0  0  0  0  0  0  0
  143.8154   73.5566  221.9340 H   0  0  0  0  0  0  0  0  0  0  0  0
  145.4022   73.2227  221.0765 H   0  0  0  0  0  0  0  0  0  0  0  0
  144.8511   75.1115  219.9901 H   0  0  0  0  0  0  0  0  0  0  0  0
  143.9335   73.9539  218.9778 H   0  0  0  0  0  0  0  0  0  0  0  0
  142.8854   75.5265  221.3585 H   0  0  0  0  0  0  0  0  0  0  0  0
  142.0142   75.0420  217.7130 H   0  0  0  0  0  0  0  0  0  0  0  0
  141.4607   76.9965  216.3180 H   0  0  0  0  0  0  0  0  0  0  0  0
  142.1778   79.5711  219.6830 H   0  0  0  0  0  0  0  0  0  0  0  0
  142.7285   77.6083  221.0767 H   0  0  0  0  0  0  0  0  0  0  0  0
  138.6702   68.9034  222.9400 H   0  0  0  0  0  0  0  0  0  0  0  0
  138.9032   67.5135  224.9930 H   0  0  0  0  0  0  0  0  0  0  0  0
  139.5975   67.3238  227.2888 H   0  0  0  0  0  0  0  0  0  0  0  0
  140.5871   68.2959  229.3304 H   0  0  0  0  0  0  0  0  0  0  0  0
  141.3463   70.6666  229.3151 H   0  0  0  0  0  0  0  0  0  0  0  0
  141.1103   72.0559  227.2476 H   0  0  0  0  0  0  0  0  0  0  0  0
  1  2  2  0
  2  3  1  0
  3  4  1  0
  4  5  1  0
  5  6  2  0
  5  7  1  0
  7  8  1  0
  8  9  1  0
  9 10  1  0
 10 11  1  0
 11 12  1  0
 12 13  1  0
 13 14  1  0
 14 15  2  0
 15 16  1  0
 16 17  2  0
 17 18  1  0
 17 19  1  0
 19 20  2  0
  2 21  1  0
 21 22  2  0
 22 23  1  0
 23 24  2  0
 24 25  1  0
 25 26  2  0
 26 27  1  0
 27 28  2  0
 28 29  1  0
 29 30  2  0
 13  7  1  0
 20 14  1  0
 30 21  1  0
 29 24  1  0
  3 31  1  0
  4 32  1  0
  4 33  1  0
  8 34  1  0
  8 35  1  0
  9 36  1  0
  9 37  1  0
 10 38  1  0
 10 39  1  0
 11 40  1  0
 11 41  1  0
 12 42  1  0
 12 43  1  0
 13 44  1  1
 15 45  1  0
 16 46  1  0
 19 47  1  0
 20 48  1  0
 22 49  1  0
 23 50  1  0
 25 51  1  0
 26 52  1  0
 27 53  1  0
 28 54  1  0
M  END
>  <smiles>  (60) 
O=C(NCC(=O)N1CCCCCC1c1ccc(Cl)cc1)c1ccc2ccccc2n1

>  <score_type>  (60) 
oracle

>  <origin>  (60) 
autodockgpu

>  <m_score__min__energy>  (60) 
-6.8499999999999996

>  <m_primary>  (60) 
energy

>  <rmsd>  (60) 
2.623980967902355

>  <m_score__min__rmsd>  (60) 
2.623980967902355

>  <meeko>  (60) 
{"free_energy": -5.74, "intermolecular_energy": -9.02, "internal_energy": -1.99, "cluster_size": 6, "cluster_id": 5, "rank_in_cluster": 3}

>  <energy>  (60) 
-6.04

>  <cluster_rmsd>  (60) 
0.96

>  <cluster>  (60) 
2

$$$$

     RDKit          3D

 54 57  0  0  0  0  0  0  0  0999 V2000
  137.9660   75.3130  222.0330 O   0  0  0  0  0  0  0  0  0  0  0  0
  139.1510   75.7400  221.9920 C   0  0  0  0  0  0  0  0  0  0  0  0
  140.1330   74.8360  221.4950 N   0  0  0  0  0  0  0  0  0  0  0  0
  139.6550   73.5200  221.0890 C   0  0  0  0  0  0  0  0  0  0  0  0
  140.4480   72.4430  221.7570 C   0  0  0  0  0  0  0  0  0  0  0  0
  141.6880   72.5790  221.8430 O   0  0  0  0  0  0  0  0  0  0  0  0
  139.7460   71.3130  222.2590 N   0  0  0  0  0  0  0  0  0  0  0  0
  139.8460   70.0560  221.5280 C   0  0  0  0  0  0  0  0  0  0  0  0
  139.2160   68.9470  222.3320 C   0  0  0  0  0  0  0  0  0  0  0  0
  137.7170   69.1500  222.2900 C   0  0  0  0  0  0  0  0  0  0  0  0
  137.3330   70.5660  222.0070 C   0  0  0  0  0  0  0  0  0  0  0  0
  137.5420   71.5110  223.1660 C   0  0  0  0  0  0  0  0  0  0  0  0
  139.0080   71.5880  223.4650 C   0  0  1  0  0  0  0  0  0  0  0  0
  139.4200   70.7160  224.5910 C   0  0  0  0  0  0  0  0  0  0  0  0
  138.5600   69.8650  225.2520 C   0  0  0  0  0  0  0  0  0  0  0  0
  139.0000   69.0800  226.2920 C   0  0  0  0  0  0  0  0  0  0  0  0
  140.3310   69.1300  226.6970 C   0  0  0  0  0  0  0  0  0  0  0  0
  140.9080   68.1300  228.0260 Cl  0  0  0  0  0  0  0  0  0  0  0  0
  141.1870   69.9890  226.0270 C   0  0  0  0  0  0  0  0  0  0  0  0
  140.7450   70.7760  224.9840 C   0  0  0  0  0  0  0  0  0  0  0  0
  139.5330   77.0780  222.4210 C   0  0  0  0  0  0  0  0  0  0  0  0
  138.5230   77.9820  222.7010 C   0  0  0  0  0  0  0  0  0  0  0  0
  138.8600   79.2540  223.1100 C   0  0  0  0  0  0  0  0  0  0  0  0
  140.1970   79.6020  223.2320 C   0  0  0  0  0  0  0  0  0  0  0  0
  140.5600   80.8680  223.6380 C   0  0  0  0  0  0  0  0  0  0  0  0
  141.8780   81.2290  223.7640 C   0  0  0  0  0  0  0  0  0  0  0  0
  142.8620   80.2950  223.4750 C   0  0  0  0  0  0  0  0  0  0  0  0
  142.5230   79.0050  223.0610 C   0  0  0  0  0  0  0  0  0  0  0  0
  141.1850   78.6790  222.9460 C   0  0  0  0  0  0  0  0  0  0  0  0
  140.8410   77.4430  222.5500 N   0  0  0  0  0  0  0  0  0  0  0  0
  141.1490   75.1000  221.4220 H   0  0  0  0  0  0  0  0  0  0  0  0
  138.5966   73.4171  221.3705 H   0  0  0  0  0  0  0  0  0  0  0  0
  139.7703   73.4214  219.9995 H   0  0  0  0  0  0  0  0  0  0  0  0
  139.3235   70.1511  220.5647 H   0  0  0  0  0  0  0  0  0  0  0  0
  140.9061   69.8208  221.3526 H   0  0  0  0  0  0  0  0  0  0  0  0
  139.4754   67.9717  221.8943 H   0  0  0  0  0  0  0  0  0  0  0  0
  139.5806   68.9653  223.3697 H   0  0  0  0  0  0  0  0  0  0  0  0
  137.2971   68.5076  221.5019 H   0  0  0  0  0  0  0  0  0  0  0  0
  137.3194   68.8906  223.2823 H   0  0  0  0  0  0  0  0  0  0  0  0
  137.9353   70.9231  221.1586 H   0  0  0  0  0  0  0  0  0  0  0  0
  136.2537   70.5628  221.7944 H   0  0  0  0  0  0  0  0  0  0  0  0
  137.1653   72.5101  222.9015 H   0  0  0  0  0  0  0  0  0  0  0  0
  136.9980   71.1461  224.0497 H   0  0  0  0  0  0  0  0  0  0  0  0
  139.2392   72.6080  223.8057 H   0  0  0  0  0  0  0  0  0  0  0  0
  137.5056   69.8131  224.9428 H   0  0  0  0  0  0  0  0  0  0  0  0
  138.2965   68.4090  226.8066 H   0  0  0  0  0  0  0  0  0  0  0  0
  142.2420   70.0446  226.3335 H   0  0  0  0  0  0  0  0  0  0  0  0
  141.4440   71.4493  224.4663 H   0  0  0  0  0  0  0  0  0  0  0  0
  137.4675   77.6896  222.5986 H   0  0  0  0  0  0  0  0  0  0  0  0
  138.0737   79.9886  223.3383 H   0  0  0  0  0  0  0  0  0  0  0  0
  139.7761   81.6052  223.8660 H   0  0  0  0  0  0  0  0  0  0  0  0
  142.1501   82.2439  224.0894 H   0  0  0  0  0  0  0  0  0  0  0  0
  143.9216   80.5736  223.5730 H   0  0  0  0  0  0  0  0  0  0  0  0
  143.3037   78.2648  222.8315 H   0  0  0  0  0  0  0  0  0  0  0  0
  1  2  2  0
  2  3  1  0
  3  4  1  0
  4  5  1  0
  5  6  2  0
  5  7  1  0
  7  8  1  0
  8  9  1  0
  9 10  1  0
 10 11  1  0
 11 12  1  0
 12 13  1  0
 13 14  1  0
 14 15  2  0
 15 16  1  0
 16 17  2  0
 17 18  1  0
 17 19  1  0
 19 20  2  0
  2 21  1  0
 21 22  2  0
 22 23  1  0
 23 24  2  0
 24 25  1  0
 25 26  2  0
 26 27  1  0
 27 28  2  0
 28 29  1  0
 29 30  2  0
 13  7  1  0
 20 14  1  0
 30 21  1  0
 29 24  1  0
  3 31  1  0
  4 32  1  0
  4 33  1  0
  8 34  1  0
  8 35  1  0
  9 36  1  0
  9 37  1  0
 10 38  1  0
 10 39  1  0
 11 40  1  0
 11 41  1  0
 12 42  1  0
 12 43  1  0
 13 44  1  1
 15 45  1  0
 16 46  1  0
 19 47  1  0
 20 48  1  0
 22 49  1  0
 23 50  1  0
 25 51  1  0
 26 52  1  0
 27 53  1  0
 28 54  1  0
M  END
>  <smiles>  (61) 
O=C(NCC(=O)N1CCCCCC1c1ccc(Cl)cc1)c1ccc2ccccc2n1

>  <score_type>  (61) 
oracle

>  <origin>  (61) 
autodockgpu

>  <m_score__min__energy>  (61) 
-6.8499999999999996

>  <m_primary>  (61) 
energy

>  <rmsd>  (61) 
8.076773042403415

>  <m_score__min__rmsd>  (61) 
8.076773042403415

>  <meeko>  (61) 
{"free_energy": -6.12, "intermolecular_energy": -9.41, "internal_energy": -1.73, "cluster_size": 5, "cluster_id": 4, "rank_in_cluster": 2}

>  <energy>  (61) 
-6.59

>  <cluster_rmsd>  (61) 
0.0

>  <cluster>  (61) 
3

$$$$

     RDKit          3D

 54 57  0  0  0  0  0  0  0  0999 V2000
  140.8050   71.4540  221.4750 O   0  0  0  0  0  0  0  0  0  0  0  0
  140.2400   71.7910  222.5490 C   0  0  0  0  0  0  0  0  0  0  0  0
  139.6810   73.1020  222.5860 N   0  0  0  0  0  0  0  0  0  0  0  0
  139.8270   73.9020  221.3750 C   0  0  0  0  0  0  0  0  0  0  0  0
  139.2250   75.2560  221.5640 C   0  0  0  0  0  0  0  0  0  0  0  0
  138.2680   75.3800  222.3600 O   0  0  0  0  0  0  0  0  0  0  0  0
  139.7730   76.3380  220.8230 N   0  0  0  0  0  0  0  0  0  0  0  0
  138.8920   77.0800  219.9280 C   0  0  0  0  0  0  0  0  0  0  0  0
  138.7670   76.3500  218.6150 C   0  0  0  0  0  0  0  0  0  0  0  0
  140.1480   76.2850  217.9980 C   0  0  0  0  0  0  0  0  0  0  0  0
  141.1210   75.5380  218.8490 C   0  0  0  0  0  0  0  0  0  0  0  0
  141.9260   76.4060  219.7840 C   0  0  0  0  0  0  0  0  0  0  0  0
  141.1760   76.5500  221.0730 C   0  0  1  0  0  0  0  0  0  0  0  0
  141.4390   77.8370  221.7610 C   0  0  0  0  0  0  0  0  0  0  0  0
  141.7730   79.0010  221.1010 C   0  0  0  0  0  0  0  0  0  0  0  0
  142.0070   80.1660  221.7940 C   0  0  0  0  0  0  0  0  0  0  0  0
  141.9080   80.1910  223.1820 C   0  0  0  0  0  0  0  0  0  0  0  0
  142.2040   81.6750  224.0810 Cl  0  0  0  0  0  0  0  0  0  0  0  0
  141.5720   79.0160  223.8350 C   0  0  0  0  0  0  0  0  0  0  0  0
  141.3370   77.8480  223.1400 C   0  0  0  0  0  0  0  0  0  0  0  0
  140.1430   70.9190  223.7100 C   0  0  0  0  0  0  0  0  0  0  0  0
  139.5500   69.6790  223.5420 C   0  0  0  0  0  0  0  0  0  0  0  0
  139.4480   68.8350  224.6260 C   0  0  0  0  0  0  0  0  0  0  0  0
  139.9370   69.2410  225.8580 C   0  0  0  0  0  0  0  0  0  0  0  0
  139.8460   68.4150  226.9580 C   0  0  0  0  0  0  0  0  0  0  0  0
  140.3270   68.8000  228.1840 C   0  0  0  0  0  0  0  0  0  0  0  0
  140.9150   70.0510  228.3140 C   0  0  0  0  0  0  0  0  0  0  0  0
  141.0200   70.9080  227.2160 C   0  0  0  0  0  0  0  0  0  0  0  0
  140.5260   70.4840  225.9980 C   0  0  0  0  0  0  0  0  0  0  0  0
  140.6190   71.2950  224.9320 N   0  0  0  0  0  0  0  0  0  0  0  0
  139.1900   73.4750  223.4380 H   0  0  0  0  0  0  0  0  0  0  0  0
  140.8961   74.0112  221.1405 H   0  0  0  0  0  0  0  0  0  0  0  0
  139.3065   73.3944  220.5496 H   0  0  0  0  0  0  0  0  0  0  0  0
  137.8980   77.1746  220.3895 H   0  0  0  0  0  0  0  0  0  0  0  0
  139.3139   78.0800  219.7492 H   0  0  0  0  0  0  0  0  0  0  0  0
  138.3835   75.3332  218.7855 H   0  0  0  0  0  0  0  0  0  0  0  0
  138.0676   76.8726  217.9459 H   0  0  0  0  0  0  0  0  0  0  0  0
  140.0749   75.7826  217.0221 H   0  0  0  0  0  0  0  0  0  0  0  0
  140.5168   77.3163  217.8960 H   0  0  0  0  0  0  0  0  0  0  0  0
  140.5609   74.8090  219.4530 H   0  0  0  0  0  0  0  0  0  0  0  0
  141.8393   75.0651  218.1632 H   0  0  0  0  0  0  0  0  0  0  0  0
  142.9028   75.9376  219.9747 H   0  0  0  0  0  0  0  0  0  0  0  0
  142.0858   77.3957  219.3314 H   0  0  0  0  0  0  0  0  0  0  0  0
  141.5393   75.7830  221.7728 H   0  0  0  0  0  0  0  0  0  0  0  0
  141.8535   78.9977  220.0040 H   0  0  0  0  0  0  0  0  0  0  0  0
  142.2739   81.0829  221.2481 H   0  0  0  0  0  0  0  0  0  0  0  0
  141.4909   79.0147  224.9320 H   0  0  0  0  0  0  0  0  0  0  0  0
  141.0694   76.9283  223.6809 H   0  0  0  0  0  0  0  0  0  0  0  0
  139.1661   69.3725  222.5578 H   0  0  0  0  0  0  0  0  0  0  0  0
  138.9814   67.8451  224.5147 H   0  0  0  0  0  0  0  0  0  0  0  0
  139.3775   67.4256  226.8505 H   0  0  0  0  0  0  0  0  0  0  0  0
  140.2479   68.1276  229.0509 H   0  0  0  0  0  0  0  0  0  0  0  0
  141.3025   70.3708  229.2926 H   0  0  0  0  0  0  0  0  0  0  0  0
  141.4860   71.8990  227.3192 H   0  0  0  0  0  0  0  0  0  0  0  0
  1  2  2  0
  2  3  1  0
  3  4  1  0
  4  5  1  0
  5  6  2  0
  5  7  1  0
  7  8  1  0
  8  9  1  0
  9 10  1  0
 10 11  1  0
 11 12  1  0
 12 13  1  0
 13 14  1  0
 14 15  2  0
 15 16  1  0
 16 17  2  0
 17 18  1  0
 17 19  1  0
 19 20  2  0
  2 21  1  0
 21 22  2  0
 22 23  1  0
 23 24  2  0
 24 25  1  0
 25 26  2  0
 26 27  1  0
 27 28  2  0
 28 29  1  0
 29 30  2  0
 13  7  1  0
 20 14  1  0
 30 21  1  0
 29 24  1  0
  3 31  1  0
  4 32  1  0
  4 33  1  0
  8 34  1  0
  8 35  1  0
  9 36  1  0
  9 37  1  0
 10 38  1  0
 10 39  1  0
 11 40  1  0
 11 41  1  0
 12 42  1  0
 12 43  1  0
 13 44  1  1
 15 45  1  0
 16 46  1  0
 19 47  1  0
 20 48  1  0
 22 49  1  0
 23 50  1  0
 25 51  1  0
 26 52  1  0
 27 53  1  0
 28 54  1  0
M  END
>  <smiles>  (62) 
O=C(NCC(=O)N1CCCCCC1c1ccc(Cl)cc1)c1ccc2ccccc2n1

>  <score_type>  (62) 
oracle

>  <origin>  (62) 
autodockgpu

>  <m_score__min__energy>  (62) 
-6.8499999999999996

>  <m_primary>  (62) 
energy

>  <rmsd>  (62) 
1.7547348743060627

>  <m_score__min__rmsd>  (62) 
1.7547348743060627

>  <meeko>  (62) 
{"free_energy": -6.56, "intermolecular_energy": -9.84, "internal_energy": -1.95, "cluster_size": 8, "cluster_id": 1, "rank_in_cluster": 2}

>  <energy>  (62) 
-6.35

>  <cluster_rmsd>  (62) 
0.28

>  <cluster>  (62) 
3

$$$$

     RDKit          3D

 54 57  0  0  0  0  0  0  0  0999 V2000
  141.0560   74.7830  221.0730 O   0  0  0  0  0  0  0  0  0  0  0  0
  140.1470   75.2550  221.8070 C   0  0  0  0  0  0  0  0  0  0  0  0
  139.1040   74.3590  222.1780 N   0  0  0  0  0  0  0  0  0  0  0  0
  139.2070   72.9970  221.6660 C   0  0  0  0  0  0  0  0  0  0  0  0
  138.1290   72.1360  222.2400 C   0  0  0  0  0  0  0  0  0  0  0  0
  137.3330   72.6420  223.0610 O   0  0  0  0  0  0  0  0  0  0  0  0
  138.0670   70.7790  221.8210 N   0  0  0  0  0  0  0  0  0  0  0  0
  136.9270   70.3560  221.0160 C   0  0  0  0  0  0  0  0  0  0  0  0
  137.3140   70.3300  219.5590 C   0  0  0  0  0  0  0  0  0  0  0  0
  138.6820   69.6900  219.4630 C   0  0  0  0  0  0  0  0  0  0  0  0
  139.7710   70.5760  219.9720 C   0  0  0  0  0  0  0  0  0  0  0  0
  140.3240   70.1720  221.3170 C   0  0  0  0  0  0  0  0  0  0  0  0
  139.1840   69.9890  222.2710 C   0  0  1  0  0  0  0  0  0  0  0  0
  139.5500   70.2790  223.6790 C   0  0  0  0  0  0  0  0  0  0  0  0
  138.9330   69.6920  224.7640 C   0  0  0  0  0  0  0  0  0  0  0  0
  139.3150   70.0010  226.0490 C   0  0  0  0  0  0  0  0  0  0  0  0
  140.3370   70.9170  226.2780 C   0  0  0  0  0  0  0  0  0  0  0  0
  140.8360   71.3210  227.9170 Cl  0  0  0  0  0  0  0  0  0  0  0  0
  140.9500   71.5020  225.1810 C   0  0  0  0  0  0  0  0  0  0  0  0
  140.5670   71.1910  223.8930 C   0  0  0  0  0  0  0  0  0  0  0  0
  140.1310   76.6350  222.2710 C   0  0  0  0  0  0  0  0  0  0  0  0
  138.9040   77.2020  222.5720 C   0  0  0  0  0  0  0  0  0  0  0  0
  138.8630   78.5070  223.0140 C   0  0  0  0  0  0  0  0  0  0  0  0
  140.0430   79.2220  223.1460 C   0  0  0  0  0  0  0  0  0  0  0  0
  140.0280   80.5290  223.5850 C   0  0  0  0  0  0  0  0  0  0  0  0
  141.1870   81.2520  223.7230 C   0  0  0  0  0  0  0  0  0  0  0  0
  142.3970   80.6480  223.4110 C   0  0  0  0  0  0  0  0  0  0  0  0
  142.4420   79.3260  222.9630 C   0  0  0  0  0  0  0  0  0  0  0  0
  141.2540   78.6310  222.8390 C   0  0  0  0  0  0  0  0  0  0  0  0
  141.2780   77.3590  222.4100 N   0  0  0  0  0  0  0  0  0  0  0  0
  138.3010   74.6590  222.7880 H   0  0  0  0  0  0  0  0  0  0  0  0
  139.1106   73.0145  220.5704 H   0  0  0  0  0  0  0  0  0  0  0  0
  140.1838   72.5823  221.9557 H   0  0  0  0  0  0  0  0  0  0  0  0
  136.6123   69.3494  221.3286 H   0  0  0  0  0  0  0  0  0  0  0  0
  136.0975   71.0641  221.1595 H   0  0  0  0  0  0  0  0  0  0  0  0
  136.5826   69.7406  218.9866 H   0  0  0  0  0  0  0  0  0  0  0  0
  137.3331   71.3489  219.1450 H   0  0  0  0  0  0  0  0  0  0  0  0
  138.6785   68.7622  220.0538 H   0  0  0  0  0  0  0  0  0  0  0  0
  138.8831   69.4949  218.3993 H   0  0  0  0  0  0  0  0  0  0  0  0
  140.5946   70.5628  219.2430 H   0  0  0  0  0  0  0  0  0  0  0  0
  139.3293   71.5752  220.1007 H   0  0  0  0  0  0  0  0  0  0  0  0
  140.8803   69.2280  221.2199 H   0  0  0  0  0  0  0  0  0  0  0  0
  141.0040   70.9513  221.6915 H   0  0  0  0  0  0  0  0  0  0  0  0
  138.8991   68.9265  222.2713 H   0  0  0  0  0  0  0  0  0  0  0  0
  138.1233   68.9659  224.5994 H   0  0  0  0  0  0  0  0  0  0  0  0
  138.8097   69.5212  226.9001 H   0  0  0  0  0  0  0  0  0  0  0  0
  141.7591   72.2298  225.3411 H   0  0  0  0  0  0  0  0  0  0  0  0
  141.0694   71.6673  223.0382 H   0  0  0  0  0  0  0  0  0  0  0  0
  137.9771   76.6204  222.4602 H   0  0  0  0  0  0  0  0  0  0  0  0
  137.8999   78.9779  223.2604 H   0  0  0  0  0  0  0  0  0  0  0  0
  139.0661   81.0030  223.8301 H   0  0  0  0  0  0  0  0  0  0  0  0
  141.1570   82.2936  224.0753 H   0  0  0  0  0  0  0  0  0  0  0  0
  143.3320   81.2175  223.5179 H   0  0  0  0  0  0  0  0  0  0  0  0
  143.4014   78.8487  222.7144 H   0  0  0  0  0  0  0  0  0  0  0  0
  1  2  2  0
  2  3  1  0
  3  4  1  0
  4  5  1  0
  5  6  2  0
  5  7  1  0
  7  8  1  0
  8  9  1  0
  9 10  1  0
 10 11  1  0
 11 12  1  0
 12 13  1  0
 13 14  1  0
 14 15  2  0
 15 16  1  0
 16 17  2  0
 17 18  1  0
 17 19  1  0
 19 20  2  0
  2 21  1  0
 21 22  2  0
 22 23  1  0
 23 24  2  0
 24 25  1  0
 25 26  2  0
 26 27  1  0
 27 28  2  0
 28 29  1  0
 29 30  2  0
 13  7  1  0
 20 14  1  0
 30 21  1  0
 29 24  1  0
  3 31  1  0
  4 32  1  0
  4 33  1  0
  8 34  1  0
  8 35  1  0
  9 36  1  0
  9 37  1  0
 10 38  1  0
 10 39  1  0
 11 40  1  0
 11 41  1  0
 12 42  1  0
 12 43  1  0
 13 44  1  1
 15 45  1  0
 16 46  1  0
 19 47  1  0
 20 48  1  0
 22 49  1  0
 23 50  1  0
 25 51  1  0
 26 52  1  0
 27 53  1  0
 28 54  1  0
M  END
>  <smiles>  (63) 
O=C(NCC(=O)N1CCCCCC1c1ccc(Cl)cc1)c1ccc2ccccc2n1

>  <score_type>  (63) 
oracle

>  <origin>  (63) 
autodockgpu

>  <m_score__min__energy>  (63) 
-6.8499999999999996

>  <m_primary>  (63) 
energy

>  <rmsd>  (63) 
7.815427095248558

>  <m_score__min__rmsd>  (63) 
7.815427095248558

>  <meeko>  (63) 
{"free_energy": -5.7, "intermolecular_energy": -8.98, "internal_energy": -1.89, "cluster_size": 5, "cluster_id": 4, "rank_in_cluster": 3}

>  <energy>  (63) 
-6.28

>  <cluster_rmsd>  (63) 
1.16

>  <cluster>  (63) 
3

$$$$

     RDKit          3D

 54 57  0  0  0  0  0  0  0  0999 V2000
  140.8740   71.5700  221.3270 O   0  0  0  0  0  0  0  0  0  0  0  0
  140.3620   72.0270  222.3830 C   0  0  0  0  0  0  0  0  0  0  0  0
  139.9100   73.3780  222.3360 N   0  0  0  0  0  0  0  0  0  0  0  0
  140.0920   74.0760  221.0680 C   0  0  0  0  0  0  0  0  0  0  0  0
  140.3270   75.5340  221.3000 C   0  0  0  0  0  0  0  0  0  0  0  0
  140.0850   76.0060  222.4320 O   0  0  0  0  0  0  0  0  0  0  0  0
  140.8150   76.3100  220.2140 N   0  0  0  0  0  0  0  0  0  0  0  0
  140.0660   76.2970  218.9630 C   0  0  0  0  0  0  0  0  0  0  0  0
  140.5070   75.1300  218.1170 C   0  0  0  0  0  0  0  0  0  0  0  0
  141.9140   75.4200  217.6410 C   0  0  0  0  0  0  0  0  0  0  0  0
  142.4370   76.7260  218.1280 C   0  0  0  0  0  0  0  0  0  0  0  0
  143.0680   76.6750  219.4990 C   0  0  0  0  0  0  0  0  0  0  0  0
  142.0280   77.0240  220.5200 C   0  0  1  0  0  0  0  0  0  0  0  0
  141.8060   78.4840  220.6520 C   0  0  0  0  0  0  0  0  0  0  0  0
  141.6340   79.3310  219.5780 C   0  0  0  0  0  0  0  0  0  0  0  0
  141.4330   80.6790  219.7620 C   0  0  0  0  0  0  0  0  0  0  0  0
  141.3990   81.2150  221.0460 C   0  0  0  0  0  0  0  0  0  0  0  0
  141.1410   82.9390  221.2970 Cl  0  0  0  0  0  0  0  0  0  0  0  0
  141.5730   80.3560  222.1190 C   0  0  0  0  0  0  0  0  0  0  0  0
  141.7750   79.0040  221.9330 C   0  0  0  0  0  0  0  0  0  0  0  0
  140.2230   71.2490  223.6060 C   0  0  0  0  0  0  0  0  0  0  0  0
  139.5910   70.0200  223.5230 C   0  0  0  0  0  0  0  0  0  0  0  0
  139.4480   69.2640  224.6670 C   0  0  0  0  0  0  0  0  0  0  0  0
  139.9370   69.7470  225.8710 C   0  0  0  0  0  0  0  0  0  0  0  0
  139.8050   69.0100  227.0290 C   0  0  0  0  0  0  0  0  0  0  0  0
  140.2840   69.4720  228.2290 C   0  0  0  0  0  0  0  0  0  0  0  0
  140.9120   70.7090  228.2720 C   0  0  0  0  0  0  0  0  0  0  0  0
  141.0580   71.4770  227.1150 C   0  0  0  0  0  0  0  0  0  0  0  0
  140.5640   70.9770  225.9250 C   0  0  0  0  0  0  0  0  0  0  0  0
  140.6970   71.7010  224.8020 N   0  0  0  0  0  0  0  0  0  0  0  0
  139.4700   73.8490  223.1670 H   0  0  0  0  0  0  0  0  0  0  0  0
  140.9584   73.6493  220.5414 H   0  0  0  0  0  0  0  0  0  0  0  0
  139.1817   73.9551  220.4623 H   0  0  0  0  0  0  0  0  0  0  0  0
  138.9918   76.2047  219.1813 H   0  0  0  0  0  0  0  0  0  0  0  0
  140.2538   77.2333  218.4171 H   0  0  0  0  0  0  0  0  0  0  0  0
  140.4955   74.2069  218.7151 H   0  0  0  0  0  0  0  0  0  0  0  0
  139.8289   74.9930  217.2618 H   0  0  0  0  0  0  0  0  0  0  0  0
  142.5776   74.6204  218.0020 H   0  0  0  0  0  0  0  0  0  0  0  0
  141.8858   75.4667  216.5424 H   0  0  0  0  0  0  0  0  0  0  0  0
  143.1947   77.0807  217.4138 H   0  0  0  0  0  0  0  0  0  0  0  0
  141.5715   77.4004  218.2065 H   0  0  0  0  0  0  0  0  0  0  0  0
  143.4515   75.6623  219.6925 H   0  0  0  0  0  0  0  0  0  0  0  0
  143.9022   77.3898  219.5544 H   0  0  0  0  0  0  0  0  0  0  0  0
  142.3939   76.7094  221.5085 H   0  0  0  0  0  0  0  0  0  0  0  0
  141.6579   78.9220  218.5572 H   0  0  0  0  0  0  0  0  0  0  0  0
  141.2985   81.3365  218.8905 H   0  0  0  0  0  0  0  0  0  0  0  0
  141.5496   80.7608  223.1415 H   0  0  0  0  0  0  0  0  0  0  0  0
  141.9109   78.3418  222.8008 H   0  0  0  0  0  0  0  0  0  0  0  0
  139.2089   69.6524  222.5592 H   0  0  0  0  0  0  0  0  0  0  0  0
  138.9494   68.2844  224.6248 H   0  0  0  0  0  0  0  0  0  0  0  0
  139.3051   68.0309  226.9899 H   0  0  0  0  0  0  0  0  0  0  0  0
  140.1719   68.8709  229.1434 H   0  0  0  0  0  0  0  0  0  0  0  0
  141.2993   71.0889  229.2289 H   0  0  0  0  0  0  0  0  0  0  0  0
  141.5549   72.4577  227.1499 H   0  0  0  0  0  0  0  0  0  0  0  0
  1  2  2  0
  2  3  1  0
  3  4  1  0
  4  5  1  0
  5  6  2  0
  5  7  1  0
  7  8  1  0
  8  9  1  0
  9 10  1  0
 10 11  1  0
 11 12  1  0
 12 13  1  0
 13 14  1  0
 14 15  2  0
 15 16  1  0
 16 17  2  0
 17 18  1  0
 17 19  1  0
 19 20  2  0
  2 21  1  0
 21 22  2  0
 22 23  1  0
 23 24  2  0
 24 25  1  0
 25 26  2  0
 26 27  1  0
 27 28  2  0
 28 29  1  0
 29 30  2  0
 13  7  1  0
 20 14  1  0
 30 21  1  0
 29 24  1  0
  3 31  1  0
  4 32  1  0
  4 33  1  0
  8 34  1  0
  8 35  1  0
  9 36  1  0
  9 37  1  0
 10 38  1  0
 10 39  1  0
 11 40  1  0
 11 41  1  0
 12 42  1  0
 12 43  1  0
 13 44  1  1
 15 45  1  0
 16 46  1  0
 19 47  1  0
 20 48  1  0
 22 49  1  0
 23 50  1  0
 25 51  1  0
 26 52  1  0
 27 53  1  0
 28 54  1  0
M  END
>  <smiles>  (64) 
O=C(NCC(=O)N1CCCCCC1c1ccc(Cl)cc1)c1ccc2ccccc2n1

>  <score_type>  (64) 
oracle

>  <origin>  (64) 
autodockgpu

>  <m_score__min__energy>  (64) 
-6.8499999999999996

>  <m_primary>  (64) 
energy

>  <rmsd>  (64) 
1.685934811992924

>  <m_score__min__rmsd>  (64) 
1.685934811992924

>  <meeko>  (64) 
{"free_energy": -5.95, "intermolecular_energy": -9.23, "internal_energy": -1.86, "cluster_size": 8, "cluster_id": 1, "rank_in_cluster": 5}

>  <energy>  (64) 
-6.09

>  <cluster_rmsd>  (64) 
1.75

>  <cluster>  (64) 
3

$$$$

     RDKit          3D

 54 57  0  0  0  0  0  0  0  0999 V2000
  141.0150   72.4660  221.7010 O   0  0  0  0  0  0  0  0  0  0  0  0
  140.0870   72.4370  222.5530 C   0  0  0  0  0  0  0  0  0  0  0  0
  139.0040   73.3390  222.3400 N   0  0  0  0  0  0  0  0  0  0  0  0
  139.0940   74.1910  221.1610 C   0  0  0  0  0  0  0  0  0  0  0  0
  140.0530   75.3140  221.3950 C   0  0  0  0  0  0  0  0  0  0  0  0
  140.8540   75.2270  222.3510 O   0  0  0  0  0  0  0  0  0  0  0  0
  140.0010   76.4280  220.5130 N   0  0  0  0  0  0  0  0  0  0  0  0
  139.0280   77.4800  220.7850 C   0  0  0  0  0  0  0  0  0  0  0  0
  139.5920   78.4480  221.7930 C   0  0  0  0  0  0  0  0  0  0  0  0
  140.7500   79.1670  221.1340 C   0  0  0  0  0  0  0  0  0  0  0  0
  141.8430   78.2340  220.7190 C   0  0  0  0  0  0  0  0  0  0  0  0
  141.6760   77.6600  219.3330 C   0  0  0  0  0  0  0  0  0  0  0  0
  140.9550   76.3510  219.4370 C   0  0  1  0  0  0  0  0  0  0  0  0
  141.8680   75.1910  219.5730 C   0  0  0  0  0  0  0  0  0  0  0  0
  143.0120   75.2060  220.3430 C   0  0  0  0  0  0  0  0  0  0  0  0
  143.8220   74.0980  220.4310 C   0  0  0  0  0  0  0  0  0  0  0  0
  143.4990   72.9340  219.7390 C   0  0  0  0  0  0  0  0  0  0  0  0
  144.5270   71.5090  219.8430 Cl  0  0  0  0  0  0  0  0  0  0  0  0
  142.3480   72.9300  218.9680 C   0  0  0  0  0  0  0  0  0  0  0  0
  141.5360   74.0410  218.8810 C   0  0  0  0  0  0  0  0  0  0  0  0
  140.0860   71.5460  223.7040 C   0  0  0  0  0  0  0  0  0  0  0  0
  139.5710   70.2710  223.5360 C   0  0  0  0  0  0  0  0  0  0  0  0
  139.5600   69.4090  224.6110 C   0  0  0  0  0  0  0  0  0  0  0  0
  140.0610   69.8320  225.8320 C   0  0  0  0  0  0  0  0  0  0  0  0
  140.0610   68.9880  226.9230 C   0  0  0  0  0  0  0  0  0  0  0  0
  140.5540   69.3900  228.1390 C   0  0  0  0  0  0  0  0  0  0  0  0
  141.0620   70.6750  228.2680 C   0  0  0  0  0  0  0  0  0  0  0  0
  141.0740   71.5510  227.1800 C   0  0  0  0  0  0  0  0  0  0  0  0
  140.5700   71.1100  225.9720 C   0  0  0  0  0  0  0  0  0  0  0  0
  140.5750   71.9380  224.9150 N   0  0  0  0  0  0  0  0  0  0  0  0
  138.1830   73.3900  222.9960 H   0  0  0  0  0  0  0  0  0  0  0  0
  139.4415   73.5910  220.3071 H   0  0  0  0  0  0  0  0  0  0  0  0
  138.0996   74.6119  220.9509 H   0  0  0  0  0  0  0  0  0  0  0  0
  138.7992   78.0161  219.8521 H   0  0  0  0  0  0  0  0  0  0  0  0
  138.1090   77.0297  221.1883 H   0  0  0  0  0  0  0  0  0  0  0  0
  138.8200   79.1729  222.0905 H   0  0  0  0  0  0  0  0  0  0  0  0
  139.9287   77.9161  222.6950 H   0  0  0  0  0  0  0  0  0  0  0  0
  140.3774   79.6924  220.2423 H   0  0  0  0  0  0  0  0  0  0  0  0
  141.1707   79.8675  221.8704 H   0  0  0  0  0  0  0  0  0  0  0  0
  142.7957   78.7828  220.7522 H   0  0  0  0  0  0  0  0  0  0  0  0
  141.8147   77.3847  221.4175 H   0  0  0  0  0  0  0  0  0  0  0  0
  141.0919   78.3556  218.7125 H   0  0  0  0  0  0  0  0  0  0  0  0
  142.6621   77.5081  218.8697 H   0  0  0  0  0  0  0  0  0  0  0  0
  140.4211   76.1732  218.4919 H   0  0  0  0  0  0  0  0  0  0  0  0
  143.2808   76.1184  220.8954 H   0  0  0  0  0  0  0  0  0  0  0  0
  144.7298   74.1317  221.0514 H   0  0  0  0  0  0  0  0  0  0  0  0
  142.0758   72.0202  218.4128 H   0  0  0  0  0  0  0  0  0  0  0  0
  140.6266   74.0125  218.2628 H   0  0  0  0  0  0  0  0  0  0  0  0
  139.1771   69.9517  222.5598 H   0  0  0  0  0  0  0  0  0  0  0  0
  139.1562   68.3918  224.5008 H   0  0  0  0  0  0  0  0  0  0  0  0
  139.6570   67.9705  226.8160 H   0  0  0  0  0  0  0  0  0  0  0  0
  140.5466   68.7038  228.9987 H   0  0  0  0  0  0  0  0  0  0  0  0
  141.4598   71.0075  229.2382 H   0  0  0  0  0  0  0  0  0  0  0  0
  141.4760   72.5697  227.2830 H   0  0  0  0  0  0  0  0  0  0  0  0
  1  2  2  0
  2  3  1  0
  3  4  1  0
  4  5  1  0
  5  6  2  0
  5  7  1  0
  7  8  1  0
  8  9  1  0
  9 10  1  0
 10 11  1  0
 11 12  1  0
 12 13  1  0
 13 14  1  0
 14 15  2  0
 15 16  1  0
 16 17  2  0
 17 18  1  0
 17 19  1  0
 19 20  2  0
  2 21  1  0
 21 22  2  0
 22 23  1  0
 23 24  2  0
 24 25  1  0
 25 26  2  0
 26 27  1  0
 27 28  2  0
 28 29  1  0
 29 30  2  0
 13  7  1  0
 20 14  1  0
 30 21  1  0
 29 24  1  0
  3 31  1  0
  4 32  1  0
  4 33  1  0
  8 34  1  0
  8 35  1  0
  9 36  1  0
  9 37  1  0
 10 38  1  0
 10 39  1  0
 11 40  1  0
 11 41  1  0
 12 42  1  0
 12 43  1  0
 13 44  1  6
 15 45  1  0
 16 46  1  0
 19 47  1  0
 20 48  1  0
 22 49  1  0
 23 50  1  0
 25 51  1  0
 26 52  1  0
 27 53  1  0
 28 54  1  0
M  END
>  <smiles>  (65) 
O=C(NCC(=O)N1CCCCCC1c1ccc(Cl)cc1)c1ccc2ccccc2n1

>  <score_type>  (65) 
oracle

>  <origin>  (65) 
autodockgpu

>  <m_score__min__energy>  (65) 
-6.8499999999999996

>  <m_primary>  (65) 
energy

>  <rmsd>  (65) 
2.2601959268841503

>  <m_score__min__rmsd>  (65) 
2.2601959268841503

>  <meeko>  (65) 
{"free_energy": -5.75, "intermolecular_energy": -9.03, "internal_energy": -1.96, "cluster_size": 10, "cluster_id": 3, "rank_in_cluster": 9}

>  <energy>  (65) 
-6.06

>  <cluster_rmsd>  (65) 
1.16

>  <cluster>  (65) 
3

$$$$

     RDKit          3D

 54 57  0  0  0  0  0  0  0  0999 V2000
  140.3970   71.4190  221.2580 O   0  0  0  0  0  0  0  0  0  0  0  0
  140.1270   71.9600  222.3630 C   0  0  0  0  0  0  0  0  0  0  0  0
  139.8130   73.3490  222.3280 N   0  0  0  0  0  0  0  0  0  0  0  0
  139.8390   73.9850  221.0150 C   0  0  0  0  0  0  0  0  0  0  0  0
  140.3240   75.3950  221.1230 C   0  0  0  0  0  0  0  0  0  0  0  0
  140.7230   75.8070  222.2350 O   0  0  0  0  0  0  0  0  0  0  0  0
  140.3040   76.1970  219.9500 N   0  0  0  0  0  0  0  0  0  0  0  0
  139.0130   76.6540  219.4470 C   0  0  0  0  0  0  0  0  0  0  0  0
  139.0660   78.1380  219.1820 C   0  0  0  0  0  0  0  0  0  0  0  0
  139.9580   78.7560  220.2370 C   0  0  0  0  0  0  0  0  0  0  0  0
  141.3850   78.8520  219.8030 C   0  0  0  0  0  0  0  0  0  0  0  0
  142.2120   77.6280  220.1130 C   0  0  0  0  0  0  0  0  0  0  0  0
  141.6130   76.4510  219.4070 C   0  0  1  0  0  0  0  0  0  0  0  0
  142.4810   75.2480  219.4390 C   0  0  0  0  0  0  0  0  0  0  0  0
  142.1510   74.0530  218.8350 C   0  0  0  0  0  0  0  0  0  0  0  0
  142.9960   72.9700  218.8990 C   0  0  0  0  0  0  0  0  0  0  0  0
  144.2080   73.0620  219.5800 C   0  0  0  0  0  0  0  0  0  0  0  0
  145.2990   71.6830  219.6690 Cl  0  0  0  0  0  0  0  0  0  0  0  0
  144.5290   74.2670  220.1830 C   0  0  0  0  0  0  0  0  0  0  0  0
  143.6810   75.3530  220.1180 C   0  0  0  0  0  0  0  0  0  0  0  0
  140.1270   71.2390  223.6280 C   0  0  0  0  0  0  0  0  0  0  0  0
  139.6320   69.9460  223.6370 C   0  0  0  0  0  0  0  0  0  0  0  0
  139.6220   69.2430  224.8220 C   0  0  0  0  0  0  0  0  0  0  0  0
  140.1050   69.8410  225.9760 C   0  0  0  0  0  0  0  0  0  0  0  0
  140.1040   69.1580  227.1740 C   0  0  0  0  0  0  0  0  0  0  0  0
  140.5800   69.7340  228.3260 C   0  0  0  0  0  0  0  0  0  0  0  0
  141.0690   71.0320  228.2770 C   0  0  0  0  0  0  0  0  0  0  0  0
  141.0800   71.7470  227.0770 C   0  0  0  0  0  0  0  0  0  0  0  0
  140.5940   71.1330  225.9390 C   0  0  0  0  0  0  0  0  0  0  0  0
  140.5980   71.8050  224.7760 N   0  0  0  0  0  0  0  0  0  0  0  0
  139.5750   73.8900  223.1980 H   0  0  0  0  0  0  0  0  0  0  0  0
  140.5125   73.4207  220.3532 H   0  0  0  0  0  0  0  0  0  0  0  0
  138.8188   73.9914  220.6037 H   0  0  0  0  0  0  0  0  0  0  0  0
  138.7765   76.1241  218.5125 H   0  0  0  0  0  0  0  0  0  0  0  0
  138.2358   76.4458  220.1971 H   0  0  0  0  0  0  0  0  0  0  0  0
  139.4817   78.3263  218.1812 H   0  0  0  0  0  0  0  0  0  0  0  0
  138.0575   78.5754  219.2222 H   0  0  0  0  0  0  0  0  0  0  0  0
  139.5894   79.7681  220.4604 H   0  0  0  0  0  0  0  0  0  0  0  0
  139.9237   78.1053  221.1232 H   0  0  0  0  0  0  0  0  0  0  0  0
  141.4041   79.0142  218.7152 H   0  0  0  0  0  0  0  0  0  0  0  0
  141.8306   79.6845  220.3672 H   0  0  0  0  0  0  0  0  0  0  0  0
  143.2445   77.7815  219.7659 H   0  0  0  0  0  0  0  0  0  0  0  0
  142.2222   77.4481  221.1982 H   0  0  0  0  0  0  0  0  0  0  0  0
  141.5200   76.6979  218.3391 H   0  0  0  0  0  0  0  0  0  0  0  0
  141.1974   73.9648  218.2938 H   0  0  0  0  0  0  0  0  0  0  0  0
  142.7135   72.0261  218.4099 H   0  0  0  0  0  0  0  0  0  0  0  0
  145.4813   74.3600  220.7257 H   0  0  0  0  0  0  0  0  0  0  0  0
  143.9585   76.2996  220.6048 H   0  0  0  0  0  0  0  0  0  0  0  0
  139.2525   69.4869  222.7122 H   0  0  0  0  0  0  0  0  0  0  0  0
  139.2335   68.2143  224.8523 H   0  0  0  0  0  0  0  0  0  0  0  0
  139.7137   68.1301  227.2074 H   0  0  0  0  0  0  0  0  0  0  0  0
  140.5739   69.1751  229.2734 H   0  0  0  0  0  0  0  0  0  0  0  0
  141.4524   71.5033  229.1940 H   0  0  0  0  0  0  0  0  0  0  0  0
  141.4670   72.7760  227.0391 H   0  0  0  0  0  0  0  0  0  0  0  0
  1  2  2  0
  2  3  1  0
  3  4  1  0
  4  5  1  0
  5  6  2  0
  5  7  1  0
  7  8  1  0
  8  9  1  0
  9 10  1  0
 10 11  1  0
 11 12  1  0
 12 13  1  0
 13 14  1  0
 14 15  2  0
 15 16  1  0
 16 17  2  0
 17 18  1  0
 17 19  1  0
 19 20  2  0
  2 21  1  0
 21 22  2  0
 22 23  1  0
 23 24  2  0
 24 25  1  0
 25 26  2  0
 26 27  1  0
 27 28  2  0
 28 29  1  0
 29 30  2  0
 13  7  1  0
 20 14  1  0
 30 21  1  0
 29 24  1  0
  3 31  1  0
  4 32  1  0
  4 33  1  0
  8 34  1  0
  8 35  1  0
  9 36  1  0
  9 37  1  0
 10 38  1  0
 10 39  1  0
 11 40  1  0
 11 41  1  0
 12 42  1  0
 12 43  1  0
 13 44  1  6
 15 45  1  0
 16 46  1  0
 19 47  1  0
 20 48  1  0
 22 49  1  0
 23 50  1  0
 25 51  1  0
 26 52  1  0
 27 53  1  0
 28 54  1  0
M  END
>  <smiles>  (66) 
O=C(NCC(=O)N1CCCCCC1c1ccc(Cl)cc1)c1ccc2ccccc2n1

>  <score_type>  (66) 
oracle

>  <origin>  (66) 
autodockgpu

>  <m_score__min__energy>  (66) 
-6.8499999999999996

>  <m_primary>  (66) 
energy

>  <rmsd>  (66) 
1.9011019503240805

>  <m_score__min__rmsd>  (66) 
1.9011019503240805

>  <meeko>  (66) 
{"free_energy": -6.06, "intermolecular_energy": -9.34, "internal_energy": -2.2, "cluster_size": 10, "cluster_id": 3, "rank_in_cluster": 5}

>  <energy>  (66) 
-6.04

>  <cluster_rmsd>  (66) 
1.21

>  <cluster>  (66) 
3

$$$$

     RDKit          3D

 54 57  0  0  0  0  0  0  0  0999 V2000
  141.4400   72.2750  221.7380 O   0  0  0  0  0  0  0  0  0  0  0  0
  140.4810   72.3640  222.5500 C   0  0  0  0  0  0  0  0  0  0  0  0
  139.5700   73.4390  222.3370 N   0  0  0  0  0  0  0  0  0  0  0  0
  139.8510   74.3120  221.2030 C   0  0  0  0  0  0  0  0  0  0  0  0
  139.2530   75.6640  221.4190 C   0  0  0  0  0  0  0  0  0  0  0  0
  138.3760   75.7970  222.3000 O   0  0  0  0  0  0  0  0  0  0  0  0
  139.7150   76.7340  220.6050 N   0  0  0  0  0  0  0  0  0  0  0  0
  138.7370   77.4760  219.8180 C   0  0  0  0  0  0  0  0  0  0  0  0
  138.6430   76.8850  218.4340 C   0  0  0  0  0  0  0  0  0  0  0  0
  139.8220   77.4030  217.6380 C   0  0  0  0  0  0  0  0  0  0  0  0
  140.8930   78.0020  218.4930 C   0  0  0  0  0  0  0  0  0  0  0  0
  141.6940   77.0000  219.2880 C   0  0  0  0  0  0  0  0  0  0  0  0
  141.1390   76.9350  220.6780 C   0  0  1  0  0  0  0  0  0  0  0  0
  141.5020   78.1110  221.5060 C   0  0  0  0  0  0  0  0  0  0  0  0
  141.9040   79.3210  220.9800 C   0  0  0  0  0  0  0  0  0  0  0  0
  142.2290   80.3770  221.7990 C   0  0  0  0  0  0  0  0  0  0  0  0
  142.1560   80.2430  223.1830 C   0  0  0  0  0  0  0  0  0  0  0  0
  142.5690   81.5870  224.2420 Cl  0  0  0  0  0  0  0  0  0  0  0  0
  141.7510   79.0230  223.7010 C   0  0  0  0  0  0  0  0  0  0  0  0
  141.4250   77.9640  222.8790 C   0  0  0  0  0  0  0  0  0  0  0  0
  140.2820   71.4400  223.6570 C   0  0  0  0  0  0  0  0  0  0  0  0
  139.5720   70.2770  223.4100 C   0  0  0  0  0  0  0  0  0  0  0  0
  139.3710   69.3860  224.4420 C   0  0  0  0  0  0  0  0  0  0  0  0
  139.8800   69.6700  225.7000 C   0  0  0  0  0  0  0  0  0  0  0  0
  139.6920   68.7960  226.7490 C   0  0  0  0  0  0  0  0  0  0  0  0
  140.1900   69.0610  228.0000 C   0  0  0  0  0  0  0  0  0  0  0  0
  140.8960   70.2370  228.2080 C   0  0  0  0  0  0  0  0  0  0  0  0
  141.1010   71.1410  227.1640 C   0  0  0  0  0  0  0  0  0  0  0  0
  140.5860   70.8390  225.9180 C   0  0  0  0  0  0  0  0  0  0  0  0
  140.7740   71.6970  224.9020 N   0  0  0  0  0  0  0  0  0  0  0  0
  138.7380   73.5970  222.9610 H   0  0  0  0  0  0  0  0  0  0  0  0
  140.9401   74.4130  221.0857 H   0  0  0  0  0  0  0  0  0  0  0  0
  139.4100   73.8699  220.2974 H   0  0  0  0  0  0  0  0  0  0  0  0
  137.7538   77.4178  220.3078 H   0  0  0  0  0  0  0  0  0  0  0  0
  139.0517   78.5274  219.7440 H   0  0  0  0  0  0  0  0  0  0  0  0
  138.6813   75.7871  218.4909 H   0  0  0  0  0  0  0  0  0  0  0  0
  137.6954   77.1706  217.9539 H   0  0  0  0  0  0  0  0  0  0  0  0
  140.2551   76.5663  217.0702 H   0  0  0  0  0  0  0  0  0  0  0  0
  139.4465   78.1995  216.9787 H   0  0  0  0  0  0  0  0  0  0  0  0
  141.5849   78.5543  217.8401 H   0  0  0  0  0  0  0  0  0  0  0  0
  140.3844   78.6467  219.2249 H   0  0  0  0  0  0  0  0  0  0  0  0
  141.6226   76.0098  218.8143 H   0  0  0  0  0  0  0  0  0  0  0  0
  142.7502   77.3057  219.3203 H   0  0  0  0  0  0  0  0  0  0  0  0
  141.5982   76.0792  221.1944 H   0  0  0  0  0  0  0  0  0  0  0  0
  141.9656   79.4433  219.8886 H   0  0  0  0  0  0  0  0  0  0  0  0
  142.5484   81.3329  221.3582 H   0  0  0  0  0  0  0  0  0  0  0  0
  141.6881   78.8962  224.7919 H   0  0  0  0  0  0  0  0  0  0  0  0
  141.1049   77.0058  223.3143 H   0  0  0  0  0  0  0  0  0  0  0  0
  139.1747   70.0676  222.4059 H   0  0  0  0  0  0  0  0  0  0  0  0
  138.8104   68.4556  224.2688 H   0  0  0  0  0  0  0  0  0  0  0  0
  139.1304   67.8655  226.5797 H   0  0  0  0  0  0  0  0  0  0  0  0
  140.0318   68.3515  228.8256 H   0  0  0  0  0  0  0  0  0  0  0  0
  141.2989   70.4598  229.2070 H   0  0  0  0  0  0  0  0  0  0  0  0
  141.6604   72.0735  227.3299 H   0  0  0  0  0  0  0  0  0  0  0  0
  1  2  2  0
  2  3  1  0
  3  4  1  0
  4  5  1  0
  5  6  2  0
  5  7  1  0
  7  8  1  0
  8  9  1  0
  9 10  1  0
 10 11  1  0
 11 12  1  0
 12 13  1  0
 13 14  1  0
 14 15  2  0
 15 16  1  0
 16 17  2  0
 17 18  1  0
 17 19  1  0
 19 20  2  0
  2 21  1  0
 21 22  2  0
 22 23  1  0
 23 24  2  0
 24 25  1  0
 25 26  2  0
 26 27  1  0
 27 28  2  0
 28 29  1  0
 29 30  2  0
 13  7  1  0
 20 14  1  0
 30 21  1  0
 29 24  1  0
  3 31  1  0
  4 32  1  0
  4 33  1  0
  8 34  1  0
  8 35  1  0
  9 36  1  0
  9 37  1  0
 10 38  1  0
 10 39  1  0
 11 40  1  0
 11 41  1  0
 12 42  1  0
 12 43  1  0
 13 44  1  1
 15 45  1  0
 16 46  1  0
 19 47  1  0
 20 48  1  0
 22 49  1  0
 23 50  1  0
 25 51  1  0
 26 52  1  0
 27 53  1  0
 28 54  1  0
M  END
>  <smiles>  (67) 
O=C(NCC(=O)N1CCCCCC1c1ccc(Cl)cc1)c1ccc2ccccc2n1

>  <score_type>  (67) 
oracle

>  <origin>  (67) 
autodockgpu

>  <m_score__min__energy>  (67) 
-6.8499999999999996

>  <m_primary>  (67) 
energy

>  <rmsd>  (67) 
1.832437667401505

>  <m_score__min__rmsd>  (67) 
1.832437667401505

>  <meeko>  (67) 
{"free_energy": -6.33, "intermolecular_energy": -9.62, "internal_energy": -1.85, "cluster_size": 8, "cluster_id": 1, "rank_in_cluster": 4}

>  <energy>  (67) 
-6.02

>  <cluster_rmsd>  (67) 
1.32

>  <cluster>  (67) 
3

$$$$

     RDKit          3D

 54 57  0  0  0  0  0  0  0  0999 V2000
  139.7840   73.6180  222.6370 O   0  0  0  0  0  0  0  0  0  0  0  0
  140.1860   72.4250  222.5770 C   0  0  0  0  0  0  0  0  0  0  0  0
  140.6900   71.9900  221.3170 N   0  0  0  0  0  0  0  0  0  0  0  0
  140.6830   72.9760  220.2420 C   0  0  0  0  0  0  0  0  0  0  0  0
  141.6570   74.0730  220.5270 C   0  0  0  0  0  0  0  0  0  0  0  0
  142.6860   73.8030  221.1840 O   0  0  0  0  0  0  0  0  0  0  0  0
  141.3580   75.3730  220.0350 N   0  0  0  0  0  0  0  0  0  0  0  0
  141.0590   75.5230  218.6160 C   0  0  0  0  0  0  0  0  0  0  0  0
  142.2100   76.2050  217.9220 C   0  0  0  0  0  0  0  0  0  0  0  0
  141.9700   77.6980  218.0040 C   0  0  0  0  0  0  0  0  0  0  0  0
  141.3990   78.1150  219.3170 C   0  0  0  0  0  0  0  0  0  0  0  0
  142.1400   77.5800  220.5190 C   0  0  0  0  0  0  0  0  0  0  0  0
  141.3990   76.3920  221.0510 C   0  0  1  0  0  0  0  0  0  0  0  0
  140.0500   76.7290  221.5680 C   0  0  0  0  0  0  0  0  0  0  0  0
  139.8010   77.7810  222.4240 C   0  0  0  0  0  0  0  0  0  0  0  0
  138.5270   78.0450  222.8710 C   0  0  0  0  0  0  0  0  0  0  0  0
  137.4600   77.2500  222.4630 C   0  0  0  0  0  0  0  0  0  0  0  0
  135.8250   77.5770  223.0270 Cl  0  0  0  0  0  0  0  0  0  0  0  0
  137.7210   76.1950  221.6040 C   0  0  0  0  0  0  0  0  0  0  0  0
  138.9990   75.9310  221.1550 C   0  0  0  0  0  0  0  0  0  0  0  0
  140.1530   71.5120  223.7100 C   0  0  0  0  0  0  0  0  0  0  0  0
  139.6100   70.2540  223.5130 C   0  0  0  0  0  0  0  0  0  0  0  0
  139.5690   69.3710  224.5710 C   0  0  0  0  0  0  0  0  0  0  0  0
  140.0680   69.7590  225.8040 C   0  0  0  0  0  0  0  0  0  0  0  0
  140.0370   68.8940  226.8780 C   0  0  0  0  0  0  0  0  0  0  0  0
  140.5280   69.2600  228.1060 C   0  0  0  0  0  0  0  0  0  0  0  0
  141.0660   70.5300  228.2640 C   0  0  0  0  0  0  0  0  0  0  0  0
  141.1080   71.4270  227.1940 C   0  0  0  0  0  0  0  0  0  0  0  0
  140.6060   71.0210  225.9730 C   0  0  0  0  0  0  0  0  0  0  0  0
  140.6400   71.8690  224.9330 N   0  0  0  0  0  0  0  0  0  0  0  0
  141.0480   71.0130  221.1660 H   0  0  0  0  0  0  0  0  0  0  0  0
  140.9595   72.4835  219.2981 H   0  0  0  0  0  0  0  0  0  0  0  0
  139.6746   73.4087  220.1648 H   0  0  0  0  0  0  0  0  0  0  0  0
  140.8994   74.5305  218.1694 H   0  0  0  0  0  0  0  0  0  0  0  0
  140.1508   76.1324  218.4982 H   0  0  0  0  0  0  0  0  0  0  0  0
  143.1555   75.9485  218.4222 H   0  0  0  0  0  0  0  0  0  0  0  0
  142.2777   75.8802  216.8732 H   0  0  0  0  0  0  0  0  0  0  0  0
  142.9280   78.2177  217.8553 H   0  0  0  0  0  0  0  0  0  0  0  0
  141.2405   77.9618  217.2242 H   0  0  0  0  0  0  0  0  0  0  0  0
  141.4139   79.2138  219.3650 H   0  0  0  0  0  0  0  0  0  0  0  0
  140.3827   77.6968  219.3637 H   0  0  0  0  0  0  0  0  0  0  0  0
  143.1565   77.2804  220.2239 H   0  0  0  0  0  0  0  0  0  0  0  0
  142.2071   78.3575  221.2942 H   0  0  0  0  0  0  0  0  0  0  0  0
  141.9434   76.0081  221.9263 H   0  0  0  0  0  0  0  0  0  0  0  0
  140.6339   78.4190  222.7545 H   0  0  0  0  0  0  0  0  0  0  0  0
  138.3507   78.8887  223.5544 H   0  0  0  0  0  0  0  0  0  0  0  0
  136.8912   75.5535  221.2725 H   0  0  0  0  0  0  0  0  0  0  0  0
  139.1809   75.0889  220.4711 H   0  0  0  0  0  0  0  0  0  0  0  0
  139.2173   69.9633  222.5275 H   0  0  0  0  0  0  0  0  0  0  0  0
  139.1432   68.3656  224.4372 H   0  0  0  0  0  0  0  0  0  0  0  0
  139.6094   67.8890  226.7473 H   0  0  0  0  0  0  0  0  0  0  0  0
  140.4958   68.5579  228.9522 H   0  0  0  0  0  0  0  0  0  0  0  0
  141.4640   70.8336  229.2435 H   0  0  0  0  0  0  0  0  0  0  0  0
  141.5314   72.4343  227.3210 H   0  0  0  0  0  0  0  0  0  0  0  0
  1  2  2  0
  2  3  1  0
  3  4  1  0
  4  5  1  0
  5  6  2  0
  5  7  1  0
  7  8  1  0
  8  9  1  0
  9 10  1  0
 10 11  1  0
 11 12  1  0
 12 13  1  0
 13 14  1  0
 14 15  2  0
 15 16  1  0
 16 17  2  0
 17 18  1  0
 17 19  1  0
 19 20  2  0
  2 21  1  0
 21 22  2  0
 22 23  1  0
 23 24  2  0
 24 25  1  0
 25 26  2  0
 26 27  1  0
 27 28  2  0
 28 29  1  0
 29 30  2  0
 13  7  1  0
 20 14  1  0
 30 21  1  0
 29 24  1  0
  3 31  1  0
  4 32  1  0
  4 33  1  0
  8 34  1  0
  8 35  1  0
  9 36  1  0
  9 37  1  0
 10 38  1  0
 10 39  1  0
 11 40  1  0
 11 41  1  0
 12 42  1  0
 12 43  1  0
 13 44  1  1
 15 45  1  0
 16 46  1  0
 19 47  1  0
 20 48  1  0
 22 49  1  0
 23 50  1  0
 25 51  1  0
 26 52  1  0
 27 53  1  0
 28 54  1  0
M  END
>  <smiles>  (68) 
O=C(NCC(=O)N1CCCCCC1c1ccc(Cl)cc1)c1ccc2ccccc2n1

>  <score_type>  (68) 
oracle

>  <origin>  (68) 
autodockgpu

>  <m_score__min__energy>  (68) 
-6.8499999999999996

>  <m_primary>  (68) 
energy

>  <rmsd>  (68) 
2.0609787856723774

>  <m_score__min__rmsd>  (68) 
2.0609787856723774

>  <meeko>  (68) 
{"free_energy": -5.51, "intermolecular_energy": -8.79, "internal_energy": -1.86, "cluster_size": 2, "cluster_id": 6, "rank_in_cluster": 2}

>  <energy>  (68) 
-5.9

>  <cluster_rmsd>  (68) 
1.29

>  <cluster>  (68) 
3

$$$$

     RDKit          3D

 54 57  0  0  0  0  0  0  0  0999 V2000
  139.3680   74.8550  219.9490 O   0  0  0  0  0  0  0  0  0  0  0  0
  140.1410   75.1950  220.8850 C   0  0  0  0  0  0  0  0  0  0  0  0
  140.4970   74.1740  221.8130 N   0  0  0  0  0  0  0  0  0  0  0  0
  139.9270   72.8540  221.5740 C   0  0  0  0  0  0  0  0  0  0  0  0
  139.9170   72.0490  222.8330 C   0  0  0  0  0  0  0  0  0  0  0  0
  140.3750   72.5650  223.8760 O   0  0  0  0  0  0  0  0  0  0  0  0
  139.3860   70.7310  222.7770 N   0  0  0  0  0  0  0  0  0  0  0  0
  139.8350   69.8500  221.7050 C   0  0  0  0  0  0  0  0  0  0  0  0
  138.6630   69.4630  220.8390 C   0  0  0  0  0  0  0  0  0  0  0  0
  137.6410   70.5750  220.9350 C   0  0  0  0  0  0  0  0  0  0  0  0
  136.7180   70.4200  222.0980 C   0  0  0  0  0  0  0  0  0  0  0  0
  137.3050   69.6580  223.2610 C   0  0  0  0  0  0  0  0  0  0  0  0
  138.4440   70.4480  223.8290 C   0  0  1  0  0  0  0  0  0  0  0  0
  139.0820   69.7960  224.9980 C   0  0  0  0  0  0  0  0  0  0  0  0
  139.0180   68.4410  225.2460 C   0  0  0  0  0  0  0  0  0  0  0  0
  139.6290   67.8930  226.3490 C   0  0  0  0  0  0  0  0  0  0  0  0
  140.3280   68.7020  227.2410 C   0  0  0  0  0  0  0  0  0  0  0  0
  141.1150   68.0120  228.6560 Cl  0  0  0  0  0  0  0  0  0  0  0  0
  140.3860   70.0620  226.9830 C   0  0  0  0  0  0  0  0  0  0  0  0
  139.7730   70.6110  225.8760 C   0  0  0  0  0  0  0  0  0  0  0  0
  140.6610   76.5450  221.0410 C   0  0  0  0  0  0  0  0  0  0  0  0
  140.8420   77.3060  219.8990 C   0  0  0  0  0  0  0  0  0  0  0  0
  141.3340   78.5880  220.0220 C   0  0  0  0  0  0  0  0  0  0  0  0
  141.6350   79.0870  221.2790 C   0  0  0  0  0  0  0  0  0  0  0  0
  142.1280   80.3660  221.4280 C   0  0  0  0  0  0  0  0  0  0  0  0
  142.4310   80.8770  222.6660 C   0  0  0  0  0  0  0  0  0  0  0  0
  142.2350   80.0840  223.7870 C   0  0  0  0  0  0  0  0  0  0  0  0
  141.7380   78.7840  223.6660 C   0  0  0  0  0  0  0  0  0  0  0  0
  141.4440   78.3060  222.4030 C   0  0  0  0  0  0  0  0  0  0  0  0
  140.9640   77.0590  222.2670 N   0  0  0  0  0  0  0  0  0  0  0  0
  141.1370   74.3600  222.6270 H   0  0  0  0  0  0  0  0  0  0  0  0
  138.8955   72.9665  221.2087 H   0  0  0  0  0  0  0  0  0  0  0  0
  140.5415   72.3329  220.8251 H   0  0  0  0  0  0  0  0  0  0  0  0
  140.5850   70.3722  221.0928 H   0  0  0  0  0  0  0  0  0  0  0  0
  140.2798   68.9435  222.1414 H   0  0  0  0  0  0  0  0  0  0  0  0
  138.9903   69.3425  219.7958 H   0  0  0  0  0  0  0  0  0  0  0  0
  138.2308   68.5089  221.1750 H   0  0  0  0  0  0  0  0  0  0  0  0
  138.1732   71.5325  221.0350 H   0  0  0  0  0  0  0  0  0  0  0  0
  137.0287   70.5389  220.0219 H   0  0  0  0  0  0  0  0  0  0  0  0
  136.4369   71.4233  222.4505 H   0  0  0  0  0  0  0  0  0  0  0  0
  135.8576   69.8350  221.7409 H   0  0  0  0  0  0  0  0  0  0  0  0
  136.5354   69.5111  224.0331 H   0  0  0  0  0  0  0  0  0  0  0  0
  137.6639   68.6752  222.9214 H   0  0  0  0  0  0  0  0  0  0  0  0
  138.0460   71.3945  224.2236 H   0  0  0  0  0  0  0  0  0  0  0  0
  138.4696   67.7885  224.5506 H   0  0  0  0  0  0  0  0  0  0  0  0
  139.5653   66.8095  226.5278 H   0  0  0  0  0  0  0  0  0  0  0  0
  140.9328   70.7183  227.6761 H   0  0  0  0  0  0  0  0  0  0  0  0
  139.8336   71.6938  225.6921 H   0  0  0  0  0  0  0  0  0  0  0  0
  140.5971   76.8943  218.9088 H   0  0  0  0  0  0  0  0  0  0  0  0
  141.4866   79.2106  219.1281 H   0  0  0  0  0  0  0  0  0  0  0  0
  142.2820   80.9906  220.5357 H   0  0  0  0  0  0  0  0  0  0  0  0
  142.8232   81.8997  222.7672 H   0  0  0  0  0  0  0  0  0  0  0  0
  142.4738   80.4837  224.7836 H   0  0  0  0  0  0  0  0  0  0  0  0
  141.5842   78.1553  224.5555 H   0  0  0  0  0  0  0  0  0  0  0  0
  1  2  2  0
  2  3  1  0
  3  4  1  0
  4  5  1  0
  5  6  2  0
  5  7  1  0
  7  8  1  0
  8  9  1  0
  9 10  1  0
 10 11  1  0
 11 12  1  0
 12 13  1  0
 13 14  1  0
 14 15  2  0
 15 16  1  0
 16 17  2  0
 17 18  1  0
 17 19  1  0
 19 20  2  0
  2 21  1  0
 21 22  2  0
 22 23  1  0
 23 24  2  0
 24 25  1  0
 25 26  2  0
 26 27  1  0
 27 28  2  0
 28 29  1  0
 29 30  2  0
 13  7  1  0
 20 14  1  0
 30 21  1  0
 29 24  1  0
  3 31  1  0
  4 32  1  0
  4 33  1  0
  8 34  1  0
  8 35  1  0
  9 36  1  0
  9 37  1  0
 10 38  1  0
 10 39  1  0
 11 40  1  0
 11 41  1  0
 12 42  1  0
 12 43  1  0
 13 44  1  1
 15 45  1  0
 16 46  1  0
 19 47  1  0
 20 48  1  0
 22 49  1  0
 23 50  1  0
 25 51  1  0
 26 52  1  0
 27 53  1  0
 28 54  1  0
M  END
>  <smiles>  (69) 
O=C(NCC(=O)N1CCCCCC1c1ccc(Cl)cc1)c1ccc2ccccc2n1

>  <score_type>  (69) 
oracle

>  <origin>  (69) 
autodockgpu

>  <m_score__min__energy>  (69) 
-6.8499999999999996

>  <m_primary>  (69) 
energy

>  <rmsd>  (69) 
8.257125442406267

>  <m_score__min__rmsd>  (69) 
8.257125442406267

>  <meeko>  (69) 
{"free_energy": -5.4, "intermolecular_energy": -8.68, "internal_energy": -2.02, "cluster_size": 5, "cluster_id": 4, "rank_in_cluster": 4}

>  <energy>  (69) 
-5.75

>  <cluster_rmsd>  (69) 
1.0

>  <cluster>  (69) 
3

$$$$

     RDKit          3D

 54 57  0  0  0  0  0  0  0  0999 V2000
  139.9000   70.9590  221.3610 O   0  0  0  0  0  0  0  0  0  0  0  0
  139.7760   71.4640  222.5080 C   0  0  0  0  0  0  0  0  0  0  0  0
  139.6610   72.8830  222.5670 N   0  0  0  0  0  0  0  0  0  0  0  0
  139.6980   73.5880  221.2910 C   0  0  0  0  0  0  0  0  0  0  0  0
  140.9250   74.4360  221.1940 C   0  0  0  0  0  0  0  0  0  0  0  0
  141.0220   75.4360  221.9400 O   0  0  0  0  0  0  0  0  0  0  0  0
  141.9220   74.0610  220.2530 N   0  0  0  0  0  0  0  0  0  0  0  0
  141.7870   72.7750  219.5800 C   0  0  0  0  0  0  0  0  0  0  0  0
  142.7810   71.7940  220.1490 C   0  0  0  0  0  0  0  0  0  0  0  0
  143.8490   72.5940  220.8640 C   0  0  0  0  0  0  0  0  0  0  0  0
  144.7240   73.3600  219.9250 C   0  0  0  0  0  0  0  0  0  0  0  0
  144.0280   74.4880  219.2040 C   0  0  0  0  0  0  0  0  0  0  0  0
  142.9620   75.0450  220.0970 C   0  0  1  0  0  0  0  0  0  0  0  0
  142.4380   76.3530  219.6350 C   0  0  0  0  0  0  0  0  0  0  0  0
  142.1910   77.4170  220.4760 C   0  0  0  0  0  0  0  0  0  0  0  0
  141.7030   78.6070  219.9890 C   0  0  0  0  0  0  0  0  0  0  0  0
  141.4490   78.7590  218.6290 C   0  0  0  0  0  0  0  0  0  0  0  0
  140.8250   80.2780  217.9930 Cl  0  0  0  0  0  0  0  0  0  0  0  0
  141.6990   77.6840  217.7930 C   0  0  0  0  0  0  0  0  0  0  0  0
  142.1890   76.4910  218.2820 C   0  0  0  0  0  0  0  0  0  0  0  0
  139.7490   70.6740  223.7300 C   0  0  0  0  0  0  0  0  0  0  0  0
  139.1350   69.4330  223.6870 C   0  0  0  0  0  0  0  0  0  0  0  0
  139.0970   68.6670  224.8310 C   0  0  0  0  0  0  0  0  0  0  0  0
  139.6710   69.1490  225.9970 C   0  0  0  0  0  0  0  0  0  0  0  0
  139.6450   68.4010  227.1550 C   0  0  0  0  0  0  0  0  0  0  0  0
  140.2090   68.8630  228.3180 C   0  0  0  0  0  0  0  0  0  0  0  0
  140.8160   70.1110  228.3220 C   0  0  0  0  0  0  0  0  0  0  0  0
  140.8550   70.8900  227.1640 C   0  0  0  0  0  0  0  0  0  0  0  0
  140.2780   70.3900  226.0130 C   0  0  0  0  0  0  0  0  0  0  0  0
  140.3070   71.1260  224.8890 N   0  0  0  0  0  0  0  0  0  0  0  0
  139.5540   73.3970  223.4780 H   0  0  0  0  0  0  0  0  0  0  0  0
  139.7005   72.8535  220.4721 H   0  0  0  0  0  0  0  0  0  0  0  0
  138.8122   74.2362  221.2181 H   0  0  0  0  0  0  0  0  0  0  0  0
  140.7675   72.3899  219.7293 H   0  0  0  0  0  0  0  0  0  0  0  0
  141.9801   72.9056  218.5050 H   0  0  0  0  0  0  0  0  0  0  0  0
  142.2792   71.1190  220.8579 H   0  0  0  0  0  0  0  0  0  0  0  0
  143.2243   71.1826  219.3492 H   0  0  0  0  0  0  0  0  0  0  0  0
  143.3587   73.3042  221.5461 H   0  0  0  0  0  0  0  0  0  0  0  0
  144.4884   71.8824  221.4069 H   0  0  0  0  0  0  0  0  0  0  0  0
  145.5593   73.7839  220.5017 H   0  0  0  0  0  0  0  0  0  0  0  0
  145.0530   72.6494  219.1524 H   0  0  0  0  0  0  0  0  0  0  0  0
  144.7557   75.2762  218.9604 H   0  0  0  0  0  0  0  0  0  0  0  0
  143.5784   74.1154  218.2718 H   0  0  0  0  0  0  0  0  0  0  0  0
  143.4092   75.2576  221.0793 H   0  0  0  0  0  0  0  0  0  0  0  0
  142.3873   77.3126  221.5533 H   0  0  0  0  0  0  0  0  0  0  0  0
  141.5124   79.4431  220.6779 H   0  0  0  0  0  0  0  0  0  0  0  0
  141.5026   77.7835  216.7153 H   0  0  0  0  0  0  0  0  0  0  0  0
  142.3811   75.6517  217.5974 H   0  0  0  0  0  0  0  0  0  0  0  0
  138.6846   69.0649  222.7534 H   0  0  0  0  0  0  0  0  0  0  0  0
  138.6141   67.6787  224.8194 H   0  0  0  0  0  0  0  0  0  0  0  0
  139.1619   67.4128  227.1466 H   0  0  0  0  0  0  0  0  0  0  0  0
  140.1803   68.2532  229.2331 H   0  0  0  0  0  0  0  0  0  0  0  0
  141.2717   70.4909  229.2483 H   0  0  0  0  0  0  0  0  0  0  0  0
  141.3346   71.8799  227.1682 H   0  0  0  0  0  0  0  0  0  0  0  0
  1  2  2  0
  2  3  1  0
  3  4  1  0
  4  5  1  0
  5  6  2  0
  5  7  1  0
  7  8  1  0
  8  9  1  0
  9 10  1  0
 10 11  1  0
 11 12  1  0
 12 13  1  0
 13 14  1  0
 14 15  2  0
 15 16  1  0
 16 17  2  0
 17 18  1  0
 17 19  1  0
 19 20  2  0
  2 21  1  0
 21 22  2  0
 22 23  1  0
 23 24  2  0
 24 25  1  0
 25 26  2  0
 26 27  1  0
 27 28  2  0
 28 29  1  0
 29 30  2  0
 13  7  1  0
 20 14  1  0
 30 21  1  0
 29 24  1  0
  3 31  1  0
  4 32  1  0
  4 33  1  0
  8 34  1  0
  8 35  1  0
  9 36  1  0
  9 37  1  0
 10 38  1  0
 10 39  1  0
 11 40  1  0
 11 41  1  0
 12 42  1  0
 12 43  1  0
 13 44  1  1
 15 45  1  0
 16 46  1  0
 19 47  1  0
 20 48  1  0
 22 49  1  0
 23 50  1  0
 25 51  1  0
 26 52  1  0
 27 53  1  0
 28 54  1  0
M  END
>  <smiles>  (70) 
O=C(NCC(=O)N1CCCCCC1c1ccc(Cl)cc1)c1ccc2ccccc2n1

>  <score_type>  (70) 
oracle

>  <origin>  (70) 
autodockgpu

>  <m_score__min__energy>  (70) 
-6.8499999999999996

>  <m_primary>  (70) 
energy

>  <rmsd>  (70) 
2.569156695446896

>  <m_score__min__rmsd>  (70) 
2.569156695446896

>  <meeko>  (70) 
{"free_energy": -6.23, "intermolecular_energy": -9.51, "internal_energy": -1.81, "cluster_size": 6, "cluster_id": 5, "rank_in_cluster": 2}

>  <energy>  (70) 
-5.44

>  <cluster_rmsd>  (70) 
1.22

>  <cluster>  (70) 
3

$$$$

     RDKit          3D

 54 57  0  0  0  0  0  0  0  0999 V2000
  139.4540   75.0100  222.0620 O   0  0  0  0  0  0  0  0  0  0  0  0
  140.5450   75.6180  221.8980 C   0  0  0  0  0  0  0  0  0  0  0  0
  141.6870   74.8090  221.6310 N   0  0  0  0  0  0  0  0  0  0  0  0
  141.4620   73.3690  221.5770 C   0  0  0  0  0  0  0  0  0  0  0  0
  141.4410   72.8930  220.1610 C   0  0  0  0  0  0  0  0  0  0  0  0
  140.3380   72.6150  219.6390 O   0  0  0  0  0  0  0  0  0  0  0  0
  142.6830   72.7780  219.4790 N   0  0  0  0  0  0  0  0  0  0  0  0
  142.8980   71.6140  218.6270 C   0  0  0  0  0  0  0  0  0  0  0  0
  143.6480   70.5540  219.3920 C   0  0  0  0  0  0  0  0  0  0  0  0
  145.1090   70.9470  219.4010 C   0  0  0  0  0  0  0  0  0  0  0  0
  145.3580   72.2330  220.1170 C   0  0  0  0  0  0  0  0  0  0  0  0
  144.9680   73.4660  219.3390 C   0  0  0  0  0  0  0  0  0  0  0  0
  143.5830   73.8710  219.7410 C   0  0  1  0  0  0  0  0  0  0  0  0
  143.1370   75.1350  219.1060 C   0  0  0  0  0  0  0  0  0  0  0  0
  143.3840   76.3830  219.6360 C   0  0  0  0  0  0  0  0  0  0  0  0
  142.9440   77.5220  219.0020 C   0  0  0  0  0  0  0  0  0  0  0  0
  142.2380   77.4330  217.8050 C   0  0  0  0  0  0  0  0  0  0  0  0
  141.6700   78.8820  216.9830 Cl  0  0  0  0  0  0  0  0  0  0  0  0
  141.9950   76.1730  217.2820 C   0  0  0  0  0  0  0  0  0  0  0  0
  142.4370   75.0320  217.9180 C   0  0  0  0  0  0  0  0  0  0  0  0
  140.6710   77.0670  221.9710 C   0  0  0  0  0  0  0  0  0  0  0  0
  139.9390   77.8270  221.0740 C   0  0  0  0  0  0  0  0  0  0  0  0
  140.0420   79.2000  221.1240 C   0  0  0  0  0  0  0  0  0  0  0  0
  140.8710   79.7900  222.0650 C   0  0  0  0  0  0  0  0  0  0  0  0
  140.9910   81.1620  222.1340 C   0  0  0  0  0  0  0  0  0  0  0  0
  141.8070   81.7630  223.0600 C   0  0  0  0  0  0  0  0  0  0  0  0
  142.5240   80.9680  223.9430 C   0  0  0  0  0  0  0  0  0  0  0  0
  142.4220   79.5760  223.8940 C   0  0  0  0  0  0  0  0  0  0  0  0
  141.5900   79.0080  222.9490 C   0  0  0  0  0  0  0  0  0  0  0  0
  141.4790   77.6710  222.8890 N   0  0  0  0  0  0  0  0  0  0  0  0
  142.6420   75.2240  221.4800 H   0  0  0  0  0  0  0  0  0  0  0  0
  142.2704   72.8562  222.1188 H   0  0  0  0  0  0  0  0  0  0  0  0
  140.4905   73.1441  222.0413 H   0  0  0  0  0  0  0  0  0  0  0  0
  141.9259   71.2128  218.3044 H   0  0  0  0  0  0  0  0  0  0  0  0
  143.4863   71.9117  217.7465 H   0  0  0  0  0  0  0  0  0  0  0  0
  143.2685   70.4956  220.4228 H   0  0  0  0  0  0  0  0  0  0  0  0
  143.5148   69.5691  218.9207 H   0  0  0  0  0  0  0  0  0  0  0  0
  145.6839   70.1514  219.8975 H   0  0  0  0  0  0  0  0  0  0  0  0
  145.4213   71.0845  218.3553 H   0  0  0  0  0  0  0  0  0  0  0  0
  144.7828   72.2216  221.0545 H   0  0  0  0  0  0  0  0  0  0  0  0
  146.4440   72.2958  220.2806 H   0  0  0  0  0  0  0  0  0  0  0  0
  145.6713   74.2819  219.5619 H   0  0  0  0  0  0  0  0  0  0  0  0
  144.9973   73.2527  218.2603 H   0  0  0  0  0  0  0  0  0  0  0  0
  143.5844   74.0886  220.8193 H   0  0  0  0  0  0  0  0  0  0  0  0
  143.9414   76.4698  220.5803 H   0  0  0  0  0  0  0  0  0  0  0  0
  143.1510   78.5082  219.4430 H   0  0  0  0  0  0  0  0  0  0  0  0
  141.4371   76.0809  216.3385 H   0  0  0  0  0  0  0  0  0  0  0  0
  142.2333   74.0430  217.4816 H   0  0  0  0  0  0  0  0  0  0  0  0
  139.2858   77.3422  220.3335 H   0  0  0  0  0  0  0  0  0  0  0  0
  139.4699   79.8239  220.4215 H   0  0  0  0  0  0  0  0  0  0  0  0
  140.4207   81.7882  221.4321 H   0  0  0  0  0  0  0  0  0  0  0  0
  141.8913   82.8590  223.1015 H   0  0  0  0  0  0  0  0  0  0  0  0
  143.1799   81.4394  224.6897 H   0  0  0  0  0  0  0  0  0  0  0  0
  142.9918   78.9458  224.5927 H   0  0  0  0  0  0  0  0  0  0  0  0
  1  2  2  0
  2  3  1  0
  3  4  1  0
  4  5  1  0
  5  6  2  0
  5  7  1  0
  7  8  1  0
  8  9  1  0
  9 10  1  0
 10 11  1  0
 11 12  1  0
 12 13  1  0
 13 14  1  0
 14 15  2  0
 15 16  1  0
 16 17  2  0
 17 18  1  0
 17 19  1  0
 19 20  2  0
  2 21  1  0
 21 22  2  0
 22 23  1  0
 23 24  2  0
 24 25  1  0
 25 26  2  0
 26 27  1  0
 27 28  2  0
 28 29  1  0
 29 30  2  0
 13  7  1  0
 20 14  1  0
 30 21  1  0
 29 24  1  0
  3 31  1  0
  4 32  1  0
  4 33  1  0
  8 34  1  0
  8 35  1  0
  9 36  1  0
  9 37  1  0
 10 38  1  0
 10 39  1  0
 11 40  1  0
 11 41  1  0
 12 42  1  0
 12 43  1  0
 13 44  1  1
 15 45  1  0
 16 46  1  0
 19 47  1  0
 20 48  1  0
 22 49  1  0
 23 50  1  0
 25 51  1  0
 26 52  1  0
 27 53  1  0
 28 54  1  0
M  END
>  <smiles>  (71) 
O=C(NCC(=O)N1CCCCCC1c1ccc(Cl)cc1)c1ccc2ccccc2n1

>  <score_type>  (71) 
oracle

>  <origin>  (71) 
autodockgpu

>  <m_score__min__energy>  (71) 
-6.8499999999999996

>  <m_primary>  (71) 
energy

>  <rmsd>  (71) 
7.783160809332354

>  <m_score__min__rmsd>  (71) 
7.783160809332354

>  <meeko>  (71) 
{"free_energy": -4.95, "intermolecular_energy": -8.23, "internal_energy": -2.43, "cluster_size": 2, "cluster_id": 10, "rank_in_cluster": 2}

>  <energy>  (71) 
-6.57

>  <cluster_rmsd>  (71) 
0.0

>  <cluster>  (71) 
4

$$$$

     RDKit          3D

 54 57  0  0  0  0  0  0  0  0999 V2000
  140.6160   71.4140  221.2970 O   0  0  0  0  0  0  0  0  0  0  0  0
  140.2390   71.9490  222.3740 C   0  0  0  0  0  0  0  0  0  0  0  0
  139.8790   73.3260  222.3040 N   0  0  0  0  0  0  0  0  0  0  0  0
  139.9880   73.9580  220.9950 C   0  0  0  0  0  0  0  0  0  0  0  0
  140.4170   75.3830  221.1320 C   0  0  0  0  0  0  0  0  0  0  0  0
  140.8380   75.7770  222.2420 O   0  0  0  0  0  0  0  0  0  0  0  0
  140.3210   76.2210  219.9880 N   0  0  0  0  0  0  0  0  0  0  0  0
  139.0050   76.7170  219.6020 C   0  0  0  0  0  0  0  0  0  0  0  0
  139.1460   78.0400  218.8950 C   0  0  0  0  0  0  0  0  0  0  0  0
  139.9930   78.9370  219.7720 C   0  0  0  0  0  0  0  0  0  0  0  0
  141.4410   78.9050  219.4030 C   0  0  0  0  0  0  0  0  0  0  0  0
  142.1920   77.7080  219.9310 C   0  0  0  0  0  0  0  0  0  0  0  0
  141.5890   76.4660  219.3500 C   0  0  1  0  0  0  0  0  0  0  0  0
  142.4910   75.2920  219.4170 C   0  0  0  0  0  0  0  0  0  0  0  0
  143.6450   75.2580  220.1720 C   0  0  0  0  0  0  0  0  0  0  0  0
  144.4450   74.1390  220.1940 C   0  0  0  0  0  0  0  0  0  0  0  0
  144.1000   73.0130  219.4510 C   0  0  0  0  0  0  0  0  0  0  0  0
  145.1150   71.5740  219.4720 Cl  0  0  0  0  0  0  0  0  0  0  0  0
  142.9390   73.0580  218.6970 C   0  0  0  0  0  0  0  0  0  0  0  0
  142.1380   74.1800  218.6750 C   0  0  0  0  0  0  0  0  0  0  0  0
  140.1630   71.2320  223.6380 C   0  0  0  0  0  0  0  0  0  0  0  0
  139.5890   69.9720  223.6360 C   0  0  0  0  0  0  0  0  0  0  0  0
  139.5050   69.2740  224.8210 C   0  0  0  0  0  0  0  0  0  0  0  0
  139.9950   69.8440  225.9860 C   0  0  0  0  0  0  0  0  0  0  0  0
  139.9220   69.1650  227.1840 C   0  0  0  0  0  0  0  0  0  0  0  0
  140.4030   69.7140  228.3470 C   0  0  0  0  0  0  0  0  0  0  0  0
  140.9720   70.9790  228.3100 C   0  0  0  0  0  0  0  0  0  0  0  0
  141.0570   71.6890  227.1100 C   0  0  0  0  0  0  0  0  0  0  0  0
  140.5640   71.1030  225.9600 C   0  0  0  0  0  0  0  0  0  0  0  0
  140.6380   71.7710  224.7980 N   0  0  0  0  0  0  0  0  0  0  0  0
  139.5530   73.8610  223.1490 H   0  0  0  0  0  0  0  0  0  0  0  0
  140.7295   73.4138  220.3916 H   0  0  0  0  0  0  0  0  0  0  0  0
  139.0036   73.9300  220.5050 H   0  0  0  0  0  0  0  0  0  0  0  0
  138.5246   75.9922  218.9283 H   0  0  0  0  0  0  0  0  0  0  0  0
  138.3883   76.8504  220.5030 H   0  0  0  0  0  0  0  0  0  0  0  0
  139.6367   77.8950  217.9213 H   0  0  0  0  0  0  0  0  0  0  0  0
  138.1587   78.4917  218.7181 H   0  0  0  0  0  0  0  0  0  0  0  0
  139.6280   79.9701  219.6750 H   0  0  0  0  0  0  0  0  0  0  0  0
  139.9055   78.5696  220.8051 H   0  0  0  0  0  0  0  0  0  0  0  0
  141.5164   78.9019  218.3056 H   0  0  0  0  0  0  0  0  0  0  0  0
  141.9017   79.7922  219.8618 H   0  0  0  0  0  0  0  0  0  0  0  0
  143.2502   77.7770  219.6388 H   0  0  0  0  0  0  0  0  0  0  0  0
  142.1246   77.6784  221.0285 H   0  0  0  0  0  0  0  0  0  0  0  0
  141.4282   76.6295  218.2742 H   0  0  0  0  0  0  0  0  0  0  0  0
  143.9300   76.1392  220.7656 H   0  0  0  0  0  0  0  0  0  0  0  0
  145.3619   74.1338  220.8017 H   0  0  0  0  0  0  0  0  0  0  0  0
  142.6495   72.1789  218.1025 H   0  0  0  0  0  0  0  0  0  0  0  0
  141.2203   74.1905  218.0686 H   0  0  0  0  0  0  0  0  0  0  0  0
  139.2057   69.5347  222.7022 H   0  0  0  0  0  0  0  0  0  0  0  0
  139.0524   68.2717  224.8426 H   0  0  0  0  0  0  0  0  0  0  0  0
  139.4691   68.1629  227.2084 H   0  0  0  0  0  0  0  0  0  0  0  0
  140.3382   69.1589  229.2945 H   0  0  0  0  0  0  0  0  0  0  0  0
  141.3605   71.4278  229.2361 H   0  0  0  0  0  0  0  0  0  0  0  0
  141.5066   72.6925  227.0813 H   0  0  0  0  0  0  0  0  0  0  0  0
  1  2  2  0
  2  3  1  0
  3  4  1  0
  4  5  1  0
  5  6  2  0
  5  7  1  0
  7  8  1  0
  8  9  1  0
  9 10  1  0
 10 11  1  0
 11 12  1  0
 12 13  1  0
 13 14  1  0
 14 15  2  0
 15 16  1  0
 16 17  2  0
 17 18  1  0
 17 19  1  0
 19 20  2  0
  2 21  1  0
 21 22  2  0
 22 23  1  0
 23 24  2  0
 24 25  1  0
 25 26  2  0
 26 27  1  0
 27 28  2  0
 28 29  1  0
 29 30  2  0
 13  7  1  0
 20 14  1  0
 30 21  1  0
 29 24  1  0
  3 31  1  0
  4 32  1  0
  4 33  1  0
  8 34  1  0
  8 35  1  0
  9 36  1  0
  9 37  1  0
 10 38  1  0
 10 39  1  0
 11 40  1  0
 11 41  1  0
 12 42  1  0
 12 43  1  0
 13 44  1  6
 15 45  1  0
 16 46  1  0
 19 47  1  0
 20 48  1  0
 22 49  1  0
 23 50  1  0
 25 51  1  0
 26 52  1  0
 27 53  1  0
 28 54  1  0
M  END
>  <smiles>  (72) 
O=C(NCC(=O)N1CCCCCC1c1ccc(Cl)cc1)c1ccc2ccccc2n1

>  <score_type>  (72) 
oracle

>  <origin>  (72) 
autodockgpu

>  <m_score__min__energy>  (72) 
-6.8499999999999996

>  <m_primary>  (72) 
energy

>  <rmsd>  (72) 
1.8948273627746033

>  <m_score__min__rmsd>  (72) 
1.8948273627746033

>  <meeko>  (72) 
{"free_energy": -6.04, "intermolecular_energy": -9.32, "internal_energy": -2.11, "cluster_size": 10, "cluster_id": 3, "rank_in_cluster": 6}

>  <energy>  (72) 
-6.12

>  <cluster_rmsd>  (72) 
1.05

>  <cluster>  (72) 
4

$$$$

     RDKit          3D

 54 57  0  0  0  0  0  0  0  0999 V2000
  139.1190   70.9310  221.5910 O   0  0  0  0  0  0  0  0  0  0  0  0
  139.4990   71.6000  222.5890 C   0  0  0  0  0  0  0  0  0  0  0  0
  139.5350   73.0150  222.4270 N   0  0  0  0  0  0  0  0  0  0  0  0
  139.1270   73.5270  221.1230 C   0  0  0  0  0  0  0  0  0  0  0  0
  139.8860   74.7700  220.7860 C   0  0  0  0  0  0  0  0  0  0  0  0
  140.9880   74.6590  220.2060 O   0  0  0  0  0  0  0  0  0  0  0  0
  139.3110   76.0190  221.1460 N   0  0  0  0  0  0  0  0  0  0  0  0
  138.2770   76.0340  222.1740 C   0  0  0  0  0  0  0  0  0  0  0  0
  138.0970   77.4370  222.6960 C   0  0  0  0  0  0  0  0  0  0  0  0
  137.3980   78.2360  221.6170 C   0  0  0  0  0  0  0  0  0  0  0  0
  137.4550   77.5740  220.2760 C   0  0  0  0  0  0  0  0  0  0  0  0
  138.7750   77.7280  219.5610 C   0  0  0  0  0  0  0  0  0  0  0  0
  139.8550   77.1320  220.4120 C   0  0  1  0  0  0  0  0  0  0  0  0
  140.5160   78.1230  221.2950 C   0  0  0  0  0  0  0  0  0  0  0  0
  140.5520   79.4760  221.0310 C   0  0  0  0  0  0  0  0  0  0  0  0
  141.1810   80.3490  221.8880 C   0  0  0  0  0  0  0  0  0  0  0  0
  141.7960   79.8780  223.0450 C   0  0  0  0  0  0  0  0  0  0  0  0
  142.6040   80.9840  224.1510 Cl  0  0  0  0  0  0  0  0  0  0  0  0
  141.7540   78.5170  223.3000 C   0  0  0  0  0  0  0  0  0  0  0  0
  141.1220   77.6430  222.4410 C   0  0  0  0  0  0  0  0  0  0  0  0
  139.8880   70.9950  223.8550 C   0  0  0  0  0  0  0  0  0  0  0  0
  140.5960   71.7740  224.7540 C   0  0  0  0  0  0  0  0  0  0  0  0
  140.9750   71.2230  225.9600 C   0  0  0  0  0  0  0  0  0  0  0  0
  140.6410   69.9090  226.2460 C   0  0  0  0  0  0  0  0  0  0  0  0
  141.0090   69.3360  227.4450 C   0  0  0  0  0  0  0  0  0  0  0  0
  140.6860   68.0360  227.7460 C   0  0  0  0  0  0  0  0  0  0  0  0
  139.9750   67.2880  226.8190 C   0  0  0  0  0  0  0  0  0  0  0  0
  139.5900   67.8420  225.5960 C   0  0  0  0  0  0  0  0  0  0  0  0
  139.9330   69.1540  225.3310 C   0  0  0  0  0  0  0  0  0  0  0  0
  139.5700   69.7040  224.1600 N   0  0  0  0  0  0  0  0  0  0  0  0
  139.8380   73.6580  223.2020 H   0  0  0  0  0  0  0  0  0  0  0  0
  139.3250   72.7633  220.3565 H   0  0  0  0  0  0  0  0  0  0  0  0
  138.0533   73.7642  221.1547 H   0  0  0  0  0  0  0  0  0  0  0  0
  137.3287   75.6800  221.7435 H   0  0  0  0  0  0  0  0  0  0  0  0
  138.5773   75.3741  223.0013 H   0  0  0  0  0  0  0  0  0  0  0  0
  137.4843   77.4224  223.6094 H   0  0  0  0  0  0  0  0  0  0  0  0
  139.0699   77.8869  222.9433 H   0  0  0  0  0  0  0  0  0  0  0  0
  136.3431   78.3632  221.9016 H   0  0  0  0  0  0  0  0  0  0  0  0
  137.9170   79.2021  221.5317 H   0  0  0  0  0  0  0  0  0  0  0  0
  137.2616   76.5000  220.4139 H   0  0  0  0  0  0  0  0  0  0  0  0
  136.6985   78.0686  219.6490 H   0  0  0  0  0  0  0  0  0  0  0  0
  138.7352   77.2055  218.5938 H   0  0  0  0  0  0  0  0  0  0  0  0
  138.9829   78.7935  219.3835 H   0  0  0  0  0  0  0  0  0  0  0  0
  140.6574   76.7717  219.7514 H   0  0  0  0  0  0  0  0  0  0  0  0
  140.0703   79.8632  220.1210 H   0  0  0  0  0  0  0  0  0  0  0  0
  141.1982   81.4246  221.6581 H   0  0  0  0  0  0  0  0  0  0  0  0
  142.2355   78.1249  224.2079 H   0  0  0  0  0  0  0  0  0  0  0  0
  141.1001   76.5667  222.6670 H   0  0  0  0  0  0  0  0  0  0  0  0
  140.8521   72.8156  224.5103 H   0  0  0  0  0  0  0  0  0  0  0  0
  141.5386   71.8225  226.6900 H   0  0  0  0  0  0  0  0  0  0  0  0
  141.5735   69.9333  228.1761 H   0  0  0  0  0  0  0  0  0  0  0  0
  140.9864   67.5943  228.7076 H   0  0  0  0  0  0  0  0  0  0  0  0
  139.7111   66.2454  227.0500 H   0  0  0  0  0  0  0  0  0  0  0  0
  139.0270   67.2479  224.8611 H   0  0  0  0  0  0  0  0  0  0  0  0
  1  2  2  0
  2  3  1  0
  3  4  1  0
  4  5  1  0
  5  6  2  0
  5  7  1  0
  7  8  1  0
  8  9  1  0
  9 10  1  0
 10 11  1  0
 11 12  1  0
 12 13  1  0
 13 14  1  0
 14 15  2  0
 15 16  1  0
 16 17  2  0
 17 18  1  0
 17 19  1  0
 19 20  2  0
  2 21  1  0
 21 22  2  0
 22 23  1  0
 23 24  2  0
 24 25  1  0
 25 26  2  0
 26 27  1  0
 27 28  2  0
 28 29  1  0
 29 30  2  0
 13  7  1  0
 20 14  1  0
 30 21  1  0
 29 24  1  0
  3 31  1  0
  4 32  1  0
  4 33  1  0
  8 34  1  0
  8 35  1  0
  9 36  1  0
  9 37  1  0
 10 38  1  0
 10 39  1  0
 11 40  1  0
 11 41  1  0
 12 42  1  0
 12 43  1  0
 13 44  1  6
 15 45  1  0
 16 46  1  0
 19 47  1  0
 20 48  1  0
 22 49  1  0
 23 50  1  0
 25 51  1  0
 26 52  1  0
 27 53  1  0
 28 54  1  0
M  END
>  <smiles>  (73) 
O=C(NCC(=O)N1CCCCCC1c1ccc(Cl)cc1)c1ccc2ccccc2n1

>  <score_type>  (73) 
oracle

>  <origin>  (73) 
autodockgpu

>  <m_score__min__energy>  (73) 
-6.8499999999999996

>  <m_primary>  (73) 
energy

>  <rmsd>  (73) 
3.3465327248110874

>  <m_score__min__rmsd>  (73) 
3.3465327248110874

>  <meeko>  (73) 
{"free_energy": -6.04, "intermolecular_energy": -9.32, "internal_energy": -1.2, "cluster_size": 2, "cluster_id": 2, "rank_in_cluster": 2}

>  <energy>  (73) 
-5.7

>  <cluster_rmsd>  (73) 
1.47

>  <cluster>  (73) 
4

$$$$

     RDKit          3D

 54 57  0  0  0  0  0  0  0  0999 V2000
  140.4880   74.8360  220.5310 O   0  0  0  0  0  0  0  0  0  0  0  0
  139.8290   75.2080  221.5380 C   0  0  0  0  0  0  0  0  0  0  0  0
  138.9720   74.2350  222.1280 N   0  0  0  0  0  0  0  0  0  0  0  0
  138.9560   72.9190  221.4990 C   0  0  0  0  0  0  0  0  0  0  0  0
  138.0070   72.0080  222.2070 C   0  0  0  0  0  0  0  0  0  0  0  0
  137.2780   72.4840  223.1050 O   0  0  0  0  0  0  0  0  0  0  0  0
  137.9850   70.6390  221.8220 N   0  0  0  0  0  0  0  0  0  0  0  0
  136.8510   70.1590  221.0420 C   0  0  0  0  0  0  0  0  0  0  0  0
  137.3420   69.5280  219.7640 C   0  0  0  0  0  0  0  0  0  0  0  0
  138.6320   70.2230  219.3810 C   0  0  0  0  0  0  0  0  0  0  0  0
  139.8380   69.5580  219.9640 C   0  0  0  0  0  0  0  0  0  0  0  0
  140.2570   70.0970  221.3100 C   0  0  0  0  0  0  0  0  0  0  0  0
  139.1320   69.8980  222.2790 C   0  0  1  0  0  0  0  0  0  0  0  0
  139.5000   70.2310  223.6770 C   0  0  0  0  0  0  0  0  0  0  0  0
  138.9090   69.6520  224.7800 C   0  0  0  0  0  0  0  0  0  0  0  0
  139.2910   70.0020  226.0540 C   0  0  0  0  0  0  0  0  0  0  0  0
  140.2900   70.9510  226.2530 C   0  0  0  0  0  0  0  0  0  0  0  0
  140.7900   71.4070  227.8780 Cl  0  0  0  0  0  0  0  0  0  0  0  0
  140.8770   71.5260  225.1380 C   0  0  0  0  0  0  0  0  0  0  0  0
  140.4930   71.1750  223.8600 C   0  0  0  0  0  0  0  0  0  0  0  0
  139.9120   76.5490  222.0970 C   0  0  0  0  0  0  0  0  0  0  0  0
  138.7350   77.1570  222.5010 C   0  0  0  0  0  0  0  0  0  0  0  0
  138.7880   78.4270  223.0340 C   0  0  0  0  0  0  0  0  0  0  0  0
  140.0110   79.0670  223.1540 C   0  0  0  0  0  0  0  0  0  0  0  0
  140.0910   80.3380  223.6830 C   0  0  0  0  0  0  0  0  0  0  0  0
  141.2930   80.9870  223.8100 C   0  0  0  0  0  0  0  0  0  0  0  0
  142.4510   80.3450  223.3950 C   0  0  0  0  0  0  0  0  0  0  0  0
  142.4010   79.0580  222.8540 C   0  0  0  0  0  0  0  0  0  0  0  0
  141.1710   78.4380  222.7430 C   0  0  0  0  0  0  0  0  0  0  0  0
  141.1030   77.2000  222.2270 N   0  0  0  0  0  0  0  0  0  0  0  0
  138.3810   74.4490  222.9720 H   0  0  0  0  0  0  0  0  0  0  0  0
  138.6417   73.0237  220.4501 H   0  0  0  0  0  0  0  0  0  0  0  0
  139.9668   72.4885  221.5528 H   0  0  0  0  0  0  0  0  0  0  0  0
  136.2945   69.4125  221.6277 H   0  0  0  0  0  0  0  0  0  0  0  0
  136.1919   71.0057  220.7997 H   0  0  0  0  0  0  0  0  0  0  0  0
  137.5256   68.4549  219.9211 H   0  0  0  0  0  0  0  0  0  0  0  0
  136.5924   69.6341  218.9660 H   0  0  0  0  0  0  0  0  0  0  0  0
  138.7226   70.2187  218.2847 H   0  0  0  0  0  0  0  0  0  0  0  0
  138.5902   71.2471  219.7803 H   0  0  0  0  0  0  0  0  0  0  0  0
  139.6195   68.4857  220.0755 H   0  0  0  0  0  0  0  0  0  0  0  0
  140.6708   69.7561  219.2732 H   0  0  0  0  0  0  0  0  0  0  0  0
  141.1490   69.5586  221.6629 H   0  0  0  0  0  0  0  0  0  0  0  0
  140.4950   71.1677  221.2271 H   0  0  0  0  0  0  0  0  0  0  0  0
  138.8832   68.8268  222.3058 H   0  0  0  0  0  0  0  0  0  0  0  0
  138.1200   68.8987  224.6388 H   0  0  0  0  0  0  0  0  0  0  0  0
  138.8047   69.5296  226.9202 H   0  0  0  0  0  0  0  0  0  0  0  0
  141.6669   72.2793  225.2743 H   0  0  0  0  0  0  0  0  0  0  0  0
  140.9753   71.6447  222.9901 H   0  0  0  0  0  0  0  0  0  0  0  0
  137.7726   76.6343  222.3981 H   0  0  0  0  0  0  0  0  0  0  0  0
  137.8657   78.9290  223.3618 H   0  0  0  0  0  0  0  0  0  0  0  0
  139.1702   80.8429  224.0105 H   0  0  0  0  0  0  0  0  0  0  0  0
  141.3381   82.0009  224.2343 H   0  0  0  0  0  0  0  0  0  0  0  0
  143.4203   80.8557  223.4932 H   0  0  0  0  0  0  0  0  0  0  0  0
  143.3192   78.5500  222.5241 H   0  0  0  0  0  0  0  0  0  0  0  0
  1  2  2  0
  2  3  1  0
  3  4  1  0
  4  5  1  0
  5  6  2  0
  5  7  1  0
  7  8  1  0
  8  9  1  0
  9 10  1  0
 10 11  1  0
 11 12  1  0
 12 13  1  0
 13 14  1  0
 14 15  2  0
 15 16  1  0
 16 17  2  0
 17 18  1  0
 17 19  1  0
 19 20  2  0
  2 21  1  0
 21 22  2  0
 22 23  1  0
 23 24  2  0
 24 25  1  0
 25 26  2  0
 26 27  1  0
 27 28  2  0
 28 29  1  0
 29 30  2  0
 13  7  1  0
 20 14  1  0
 30 21  1  0
 29 24  1  0
  3 31  1  0
  4 32  1  0
  4 33  1  0
  8 34  1  0
  8 35  1  0
  9 36  1  0
  9 37  1  0
 10 38  1  0
 10 39  1  0
 11 40  1  0
 11 41  1  0
 12 42  1  0
 12 43  1  0
 13 44  1  1
 15 45  1  0
 16 46  1  0
 19 47  1  0
 20 48  1  0
 22 49  1  0
 23 50  1  0
 25 51  1  0
 26 52  1  0
 27 53  1  0
 28 54  1  0
M  END
>  <smiles>  (74) 
O=C(NCC(=O)N1CCCCCC1c1ccc(Cl)cc1)c1ccc2ccccc2n1

>  <score_type>  (74) 
oracle

>  <origin>  (74) 
autodockgpu

>  <m_score__min__energy>  (74) 
-6.8499999999999996

>  <m_primary>  (74) 
energy

>  <rmsd>  (74) 
7.771247007179734

>  <m_score__min__rmsd>  (74) 
7.771247007179734

>  <meeko>  (74) 
{"free_energy": -5.36, "intermolecular_energy": -8.65, "internal_energy": -2.09, "cluster_size": 5, "cluster_id": 4, "rank_in_cluster": 5}

>  <energy>  (74) 
-5.4

>  <cluster_rmsd>  (74) 
1.33

>  <cluster>  (74) 
4

$$$$

     RDKit          3D

 54 57  0  0  0  0  0  0  0  0999 V2000
  139.2660   74.2110  220.8900 O   0  0  0  0  0  0  0  0  0  0  0  0
  140.4140   74.5830  221.2520 C   0  0  0  0  0  0  0  0  0  0  0  0
  140.4800   75.7860  222.0130 N   0  0  0  0  0  0  0  0  0  0  0  0
  139.2100   76.4490  222.2850 C   0  0  0  0  0  0  0  0  0  0  0  0
  139.3090   77.9130  222.0030 C   0  0  0  0  0  0  0  0  0  0  0  0
  138.2570   78.5520  221.7810 O   0  0  0  0  0  0  0  0  0  0  0  0
  140.6020   78.5040  222.0010 N   0  0  0  0  0  0  0  0  0  0  0  0
  141.3450   78.5480  223.2550 C   0  0  0  0  0  0  0  0  0  0  0  0
  141.1660   79.8960  223.9050 C   0  0  0  0  0  0  0  0  0  0  0  0
  142.1040   80.8620  223.2140 C   0  0  0  0  0  0  0  0  0  0  0  0
  141.7710   81.0570  221.7700 C   0  0  0  0  0  0  0  0  0  0  0  0
  142.1780   79.9090  220.8780 C   0  0  0  0  0  0  0  0  0  0  0  0
  141.0050   78.9930  220.7080 C   0  0  1  0  0  0  0  0  0  0  0  0
  141.2560   77.8970  219.7410 C   0  0  0  0  0  0  0  0  0  0  0  0
  142.4930   77.3200  219.5460 C   0  0  0  0  0  0  0  0  0  0  0  0
  142.6660   76.3060  218.6340 C   0  0  0  0  0  0  0  0  0  0  0  0
  141.5880   75.8400  217.8870 C   0  0  0  0  0  0  0  0  0  0  0  0
  141.7960   74.5410  216.7170 Cl  0  0  0  0  0  0  0  0  0  0  0  0
  140.3490   76.4260  218.0910 C   0  0  0  0  0  0  0  0  0  0  0  0
  140.1770   77.4440  219.0060 C   0  0  0  0  0  0  0  0  0  0  0  0
  141.6310   73.8500  220.9300 C   0  0  0  0  0  0  0  0  0  0  0  0
  141.5060   72.5300  220.5330 C   0  0  0  0  0  0  0  0  0  0  0  0
  142.6430   71.8160  220.2220 C   0  0  0  0  0  0  0  0  0  0  0  0
  143.8820   72.4300  220.3130 C   0  0  0  0  0  0  0  0  0  0  0  0
  145.0340   71.7360  220.0090 C   0  0  0  0  0  0  0  0  0  0  0  0
  146.2700   72.3290  220.0920 C   0  0  0  0  0  0  0  0  0  0  0  0
  146.3540   73.6550  220.4940 C   0  0  0  0  0  0  0  0  0  0  0  0
  145.2030   74.3810  220.8100 C   0  0  0  0  0  0  0  0  0  0  0  0
  143.9780   73.7500  220.7120 C   0  0  0  0  0  0  0  0  0  0  0  0
  142.8610   74.4330  221.0110 N   0  0  0  0  0  0  0  0  0  0  0  0
  141.3920   76.1780  222.3600 H   0  0  0  0  0  0  0  0  0  0  0  0
  138.4292   76.0100  221.6465 H   0  0  0  0  0  0  0  0  0  0  0  0
  138.9575   76.3090  223.3464 H   0  0  0  0  0  0  0  0  0  0  0  0
  140.9702   77.7642  223.9297 H   0  0  0  0  0  0  0  0  0  0  0  0
  142.4130   78.3809  223.0515 H   0  0  0  0  0  0  0  0  0  0  0  0
  140.1258   80.2341  223.7883 H   0  0  0  0  0  0  0  0  0  0  0  0
  141.3901   79.8405  224.9805 H   0  0  0  0  0  0  0  0  0  0  0  0
  142.0446   81.8352  223.7233 H   0  0  0  0  0  0  0  0  0  0  0  0
  143.1169   80.4362  223.2666 H   0  0  0  0  0  0  0  0  0  0  0  0
  140.6828   81.1921  221.6826 H   0  0  0  0  0  0  0  0  0  0  0  0
  142.3395   81.9358  221.4315 H   0  0  0  0  0  0  0  0  0  0  0  0
  142.4909   80.2956  219.8969 H   0  0  0  0  0  0  0  0  0  0  0  0
  143.0178   79.3620  221.3313 H   0  0  0  0  0  0  0  0  0  0  0  0
  140.1778   79.5677  220.2659 H   0  0  0  0  0  0  0  0  0  0  0  0
  143.3548   77.6766  220.1292 H   0  0  0  0  0  0  0  0  0  0  0  0
  143.6619   75.8605  218.4938 H   0  0  0  0  0  0  0  0  0  0  0  0
  139.4841   76.0719  217.5109 H   0  0  0  0  0  0  0  0  0  0  0  0
  139.1836   77.8939  219.1501 H   0  0  0  0  0  0  0  0  0  0  0  0
  140.5146   72.0581  220.4668 H   0  0  0  0  0  0  0  0  0  0  0  0
  142.5676   70.7658  219.9037 H   0  0  0  0  0  0  0  0  0  0  0  0
  144.9615   70.6848  219.6932 H   0  0  0  0  0  0  0  0  0  0  0  0
  147.1793   71.7620  219.8437 H   0  0  0  0  0  0  0  0  0  0  0  0
  147.3388   74.1400  220.5646 H   0  0  0  0  0  0  0  0  0  0  0  0
  145.2706   75.4314  221.1296 H   0  0  0  0  0  0  0  0  0  0  0  0
  1  2  2  0
  2  3  1  0
  3  4  1  0
  4  5  1  0
  5  6  2  0
  5  7  1  0
  7  8  1  0
  8  9  1  0
  9 10  1  0
 10 11  1  0
 11 12  1  0
 12 13  1  0
 13 14  1  0
 14 15  2  0
 15 16  1  0
 16 17  2  0
 17 18  1  0
 17 19  1  0
 19 20  2  0
  2 21  1  0
 21 22  2  0
 22 23  1  0
 23 24  2  0
 24 25  1  0
 25 26  2  0
 26 27  1  0
 27 28  2  0
 28 29  1  0
 29 30  2  0
 13  7  1  0
 20 14  1  0
 30 21  1  0
 29 24  1  0
  3 31  1  0
  4 32  1  0
  4 33  1  0
  8 34  1  0
  8 35  1  0
  9 36  1  0
  9 37  1  0
 10 38  1  0
 10 39  1  0
 11 40  1  0
 11 41  1  0
 12 42  1  0
 12 43  1  0
 13 44  1  6
 15 45  1  0
 16 46  1  0
 19 47  1  0
 20 48  1  0
 22 49  1  0
 23 50  1  0
 25 51  1  0
 26 52  1  0
 27 53  1  0
 28 54  1  0
M  END
>  <smiles>  (75) 
O=C(NCC(=O)N1CCCCCC1c1ccc(Cl)cc1)c1ccc2ccccc2n1

>  <score_type>  (75) 
oracle

>  <origin>  (75) 
autodockgpu

>  <m_score__min__energy>  (75) 
-6.8499999999999996

>  <m_primary>  (75) 
energy

>  <rmsd>  (75) 
6.16649777585146

>  <m_score__min__rmsd>  (75) 
6.16649777585146

>  <meeko>  (75) 
{"free_energy": -4.41, "intermolecular_energy": -7.7, "internal_energy": -3.21, "cluster_size": 7, "cluster_id": 8, "rank_in_cluster": 7}

>  <energy>  (75) 
-5.36

>  <cluster_rmsd>  (75) 
1.5

>  <cluster>  (75) 
4

$$$$

     RDKit          3D

 54 57  0  0  0  0  0  0  0  0999 V2000
  141.0170   72.2320  221.6530 O   0  0  0  0  0  0  0  0  0  0  0  0
  140.1440   72.3300  222.5560 C   0  0  0  0  0  0  0  0  0  0  0  0
  139.1770   73.3640  222.3920 N   0  0  0  0  0  0  0  0  0  0  0  0
  139.3090   74.1890  221.1970 C   0  0  0  0  0  0  0  0  0  0  0  0
  139.2560   75.6400  221.5510 C   0  0  0  0  0  0  0  0  0  0  0  0
  138.1920   76.1030  222.0180 O   0  0  0  0  0  0  0  0  0  0  0  0
  140.4230   76.4220  221.3340 N   0  0  0  0  0  0  0  0  0  0  0  0
  140.9910   77.1450  222.4660 C   0  0  0  0  0  0  0  0  0  0  0  0
  140.3480   78.5040  222.5760 C   0  0  0  0  0  0  0  0  0  0  0  0
  140.8890   79.3560  221.4480 C   0  0  0  0  0  0  0  0  0  0  0  0
  141.7780   78.5960  220.5200 C   0  0  0  0  0  0  0  0  0  0  0  0
  141.0490   77.7880  219.4740 C   0  0  0  0  0  0  0  0  0  0  0  0
  140.8930   76.3840  219.9730 C   0  0  1  0  0  0  0  0  0  0  0  0
  142.1230   75.5700  219.8220 C   0  0  0  0  0  0  0  0  0  0  0  0
  142.8880   75.5500  218.6750 C   0  0  0  0  0  0  0  0  0  0  0  0
  144.0200   74.7730  218.5920 C   0  0  0  0  0  0  0  0  0  0  0  0
  144.4160   73.9900  219.6720 C   0  0  0  0  0  0  0  0  0  0  0  0
  145.8640   72.9920  219.5800 Cl  0  0  0  0  0  0  0  0  0  0  0  0
  143.6400   74.0170  220.8200 C   0  0  0  0  0  0  0  0  0  0  0  0
  142.5050   74.7960  220.9020 C   0  0  0  0  0  0  0  0  0  0  0  0
  140.0930   71.4550  223.7180 C   0  0  0  0  0  0  0  0  0  0  0  0
  139.5420   70.1950  223.5560 C   0  0  0  0  0  0  0  0  0  0  0  0
  139.4830   69.3480  224.6420 C   0  0  0  0  0  0  0  0  0  0  0  0
  139.9750   69.7710  225.8670 C   0  0  0  0  0  0  0  0  0  0  0  0
  139.9270   68.9430  226.9680 C   0  0  0  0  0  0  0  0  0  0  0  0
  140.4090   69.3450  228.1890 C   0  0  0  0  0  0  0  0  0  0  0  0
  140.9550   70.6150  228.3110 C   0  0  0  0  0  0  0  0  0  0  0  0
  141.0150   71.4760  227.2120 C   0  0  0  0  0  0  0  0  0  0  0  0
  140.5200   71.0340  226.0000 C   0  0  0  0  0  0  0  0  0  0  0  0
  140.5710   71.8480  224.9330 N   0  0  0  0  0  0  0  0  0  0  0  0
  138.4090   73.5260  223.0920 H   0  0  0  0  0  0  0  0  0  0  0  0
  140.2714   73.9703  220.7113 H   0  0  0  0  0  0  0  0  0  0  0  0
  138.4774   73.9599  220.5143 H   0  0  0  0  0  0  0  0  0  0  0  0
  140.8080   76.5781  223.3908 H   0  0  0  0  0  0  0  0  0  0  0  0
  142.0738   77.2658  222.3145 H   0  0  0  0  0  0  0  0  0  0  0  0
  139.2557   78.4110  222.4858 H   0  0  0  0  0  0  0  0  0  0  0  0
  140.5743   78.9619  223.5502 H   0  0  0  0  0  0  0  0  0  0  0  0
  140.0411   79.7560  220.8726 H   0  0  0  0  0  0  0  0  0  0  0  0
  141.4919   80.1574  221.8999 H   0  0  0  0  0  0  0  0  0  0  0  0
  142.4313   79.3153  220.0044 H   0  0  0  0  0  0  0  0  0  0  0  0
  142.3335   77.8763  221.1393 H   0  0  0  0  0  0  0  0  0  0  0  0
  140.0575   78.2280  219.2911 H   0  0  0  0  0  0  0  0  0  0  0  0
  141.6202   77.7900  218.5339 H   0  0  0  0  0  0  0  0  0  0  0  0
  140.1464   75.8745  219.3461 H   0  0  0  0  0  0  0  0  0  0  0  0
  142.5885   76.1647  217.8133 H   0  0  0  0  0  0  0  0  0  0  0  0
  144.6153   74.7706  217.6670 H   0  0  0  0  0  0  0  0  0  0  0  0
  143.9357   73.4040  221.6842 H   0  0  0  0  0  0  0  0  0  0  0  0
  141.9053   74.8015  221.8241 H   0  0  0  0  0  0  0  0  0  0  0  0
  139.1575   69.8750  222.5763 H   0  0  0  0  0  0  0  0  0  0  0  0
  139.0483   68.3430  224.5372 H   0  0  0  0  0  0  0  0  0  0  0  0
  139.4927   67.9375  226.8660 H   0  0  0  0  0  0  0  0  0  0  0  0
  140.3631   68.6710  229.0571 H   0  0  0  0  0  0  0  0  0  0  0  0
  141.3451   70.9478  229.2842 H   0  0  0  0  0  0  0  0  0  0  0  0
  141.4466   72.4831  227.3096 H   0  0  0  0  0  0  0  0  0  0  0  0
  1  2  2  0
  2  3  1  0
  3  4  1  0
  4  5  1  0
  5  6  2  0
  5  7  1  0
  7  8  1  0
  8  9  1  0
  9 10  1  0
 10 11  1  0
 11 12  1  0
 12 13  1  0
 13 14  1  0
 14 15  2  0
 15 16  1  0
 16 17  2  0
 17 18  1  0
 17 19  1  0
 19 20  2  0
  2 21  1  0
 21 22  2  0
 22 23  1  0
 23 24  2  0
 24 25  1  0
 25 26  2  0
 26 27  1  0
 27 28  2  0
 28 29  1  0
 29 30  2  0
 13  7  1  0
 20 14  1  0
 30 21  1  0
 29 24  1  0
  3 31  1  0
  4 32  1  0
  4 33  1  0
  8 34  1  0
  8 35  1  0
  9 36  1  0
  9 37  1  0
 10 38  1  0
 10 39  1  0
 11 40  1  0
 11 41  1  0
 12 42  1  0
 12 43  1  0
 13 44  1  6
 15 45  1  0
 16 46  1  0
 19 47  1  0
 20 48  1  0
 22 49  1  0
 23 50  1  0
 25 51  1  0
 26 52  1  0
 27 53  1  0
 28 54  1  0
M  END
>  <smiles>  (76) 
O=C(NCC(=O)N1CCCCCC1c1ccc(Cl)cc1)c1ccc2ccccc2n1

>  <score_type>  (76) 
oracle

>  <origin>  (76) 
autodockgpu

>  <m_score__min__energy>  (76) 
-6.8499999999999996

>  <m_primary>  (76) 
energy

>  <rmsd>  (76) 
2.6102693493099913

>  <m_score__min__rmsd>  (76) 
2.6102693493099913

>  <meeko>  (76) 
{"free_energy": -6.59, "intermolecular_energy": -9.87, "internal_energy": -1.92, "cluster_size": 10, "cluster_id": 3, "rank_in_cluster": 1}

>  <energy>  (76) 
-6.54

>  <cluster_rmsd>  (76) 
0.0

>  <cluster>  (76) 
5

$$$$

     RDKit          3D

 54 57  0  0  0  0  0  0  0  0999 V2000
  141.2890   72.4500  221.7410 O   0  0  0  0  0  0  0  0  0  0  0  0
  140.3100   72.5080  222.5320 C   0  0  0  0  0  0  0  0  0  0  0  0
  139.3710   73.5550  222.3010 N   0  0  0  0  0  0  0  0  0  0  0  0
  139.6510   74.4390  221.1750 C   0  0  0  0  0  0  0  0  0  0  0  0
  139.1590   75.8220  221.4570 C   0  0  0  0  0  0  0  0  0  0  0  0
  138.2810   75.9770  222.3340 O   0  0  0  0  0  0  0  0  0  0  0  0
  139.7180   76.8930  220.7070 N   0  0  0  0  0  0  0  0  0  0  0  0
  138.8250   77.7020  219.8870 C   0  0  0  0  0  0  0  0  0  0  0  0
  138.7010   77.0900  218.5140 C   0  0  0  0  0  0  0  0  0  0  0  0
  139.9940   77.3630  217.7760 C   0  0  0  0  0  0  0  0  0  0  0  0
  141.0240   78.0150  218.6420 C   0  0  0  0  0  0  0  0  0  0  0  0
  141.7890   77.0580  219.5230 C   0  0  0  0  0  0  0  0  0  0  0  0
  141.1420   77.0260  220.8740 C   0  0  1  0  0  0  0  0  0  0  0  0
  141.5060   78.1860  221.7230 C   0  0  0  0  0  0  0  0  0  0  0  0
  141.8660   79.4180  221.2180 C   0  0  0  0  0  0  0  0  0  0  0  0
  142.1940   80.4590  222.0560 C   0  0  0  0  0  0  0  0  0  0  0  0
  142.1680   80.2860  223.4370 C   0  0  0  0  0  0  0  0  0  0  0  0
  142.5850   81.6090  224.5190 Cl  0  0  0  0  0  0  0  0  0  0  0  0
  141.8050   79.0440  223.9330 C   0  0  0  0  0  0  0  0  0  0  0  0
  141.4760   78.0010  223.0930 C   0  0  0  0  0  0  0  0  0  0  0  0
  140.1140   71.5760  223.6320 C   0  0  0  0  0  0  0  0  0  0  0  0
  139.3210   70.4640  223.4060 C   0  0  0  0  0  0  0  0  0  0  0  0
  139.1220   69.5660  224.4330 C   0  0  0  0  0  0  0  0  0  0  0  0
  139.7160   69.7920  225.6640 C   0  0  0  0  0  0  0  0  0  0  0  0
  139.5310   68.9100  226.7070 C   0  0  0  0  0  0  0  0  0  0  0  0
  140.1120   69.1180  227.9330 C   0  0  0  0  0  0  0  0  0  0  0  0
  140.9010   70.2440  228.1210 C   0  0  0  0  0  0  0  0  0  0  0  0
  141.1040   71.1550  227.0830 C   0  0  0  0  0  0  0  0  0  0  0  0
  140.5030   70.9100  225.8630 C   0  0  0  0  0  0  0  0  0  0  0  0
  140.6890   71.7760  224.8530 N   0  0  0  0  0  0  0  0  0  0  0  0
  138.5210   73.6860  222.9070 H   0  0  0  0  0  0  0  0  0  0  0  0
  140.7367   74.4700  221.0010 H   0  0  0  0  0  0  0  0  0  0  0  0
  139.1337   74.0533  220.2841 H   0  0  0  0  0  0  0  0  0  0  0  0
  137.8325   77.7441  220.3595 H   0  0  0  0  0  0  0  0  0  0  0  0
  139.2347   78.7188  219.7968 H   0  0  0  0  0  0  0  0  0  0  0  0
  138.5391   76.0053  218.5995 H   0  0  0  0  0  0  0  0  0  0  0  0
  137.8469   77.5228  217.9725 H   0  0  0  0  0  0  0  0  0  0  0  0
  140.3972   76.4085  217.4069 H   0  0  0  0  0  0  0  0  0  0  0  0
  139.7670   78.0539  216.9507 H   0  0  0  0  0  0  0  0  0  0  0  0
  141.7430   78.5342  217.9912 H   0  0  0  0  0  0  0  0  0  0  0  0
  140.4845   78.6992  219.3134 H   0  0  0  0  0  0  0  0  0  0  0  0
  141.7702   76.0514  219.0798 H   0  0  0  0  0  0  0  0  0  0  0  0
  142.8341   77.3884  219.6160 H   0  0  0  0  0  0  0  0  0  0  0  0
  141.5250   76.1519  221.4210 H   0  0  0  0  0  0  0  0  0  0  0  0
  141.8913   79.5707  220.1289 H   0  0  0  0  0  0  0  0  0  0  0  0
  142.4784   81.4334  221.6322 H   0  0  0  0  0  0  0  0  0  0  0  0
  141.7787   78.8865  225.0214 H   0  0  0  0  0  0  0  0  0  0  0  0
  141.1905   77.0246  223.5116 H   0  0  0  0  0  0  0  0  0  0  0  0
  138.8569   70.2995  222.4224 H   0  0  0  0  0  0  0  0  0  0  0  0
  138.4955   68.6756  224.2760 H   0  0  0  0  0  0  0  0  0  0  0  0
  138.9037   68.0195  226.5534 H   0  0  0  0  0  0  0  0  0  0  0  0
  139.9546   68.4030  228.7540 H   0  0  0  0  0  0  0  0  0  0  0  0
  141.3719   70.4207  229.0993 H   0  0  0  0  0  0  0  0  0  0  0  0
  141.7285   72.0481  227.2328 H   0  0  0  0  0  0  0  0  0  0  0  0
  1  2  2  0
  2  3  1  0
  3  4  1  0
  4  5  1  0
  5  6  2  0
  5  7  1  0
  7  8  1  0
  8  9  1  0
  9 10  1  0
 10 11  1  0
 11 12  1  0
 12 13  1  0
 13 14  1  0
 14 15  2  0
 15 16  1  0
 16 17  2  0
 17 18  1  0
 17 19  1  0
 19 20  2  0
  2 21  1  0
 21 22  2  0
 22 23  1  0
 23 24  2  0
 24 25  1  0
 25 26  2  0
 26 27  1  0
 27 28  2  0
 28 29  1  0
 29 30  2  0
 13  7  1  0
 20 14  1  0
 30 21  1  0
 29 24  1  0
  3 31  1  0
  4 32  1  0
  4 33  1  0
  8 34  1  0
  8 35  1  0
  9 36  1  0
  9 37  1  0
 10 38  1  0
 10 39  1  0
 11 40  1  0
 11 41  1  0
 12 42  1  0
 12 43  1  0
 13 44  1  1
 15 45  1  0
 16 46  1  0
 19 47  1  0
 20 48  1  0
 22 49  1  0
 23 50  1  0
 25 51  1  0
 26 52  1  0
 27 53  1  0
 28 54  1  0
M  END
>  <smiles>  (77) 
O=C(NCC(=O)N1CCCCCC1c1ccc(Cl)cc1)c1ccc2ccccc2n1

>  <score_type>  (77) 
oracle

>  <origin>  (77) 
autodockgpu

>  <m_score__min__energy>  (77) 
-6.8499999999999996

>  <m_primary>  (77) 
energy

>  <rmsd>  (77) 
1.9047376241318639

>  <m_score__min__rmsd>  (77) 
1.9047376241318639

>  <meeko>  (77) 
{"free_energy": -6.37, "intermolecular_energy": -9.66, "internal_energy": -1.86, "cluster_size": 8, "cluster_id": 1, "rank_in_cluster": 3}

>  <energy>  (77) 
-6.23

>  <cluster_rmsd>  (77) 
0.79

>  <cluster>  (77) 
5

$$$$

     RDKit          3D

 54 57  0  0  0  0  0  0  0  0999 V2000
  137.6630   71.5310  222.7720 O   0  0  0  0  0  0  0  0  0  0  0  0
  138.8190   71.4740  223.2700 C   0  0  0  0  0  0  0  0  0  0  0  0
  139.7700   72.4100  222.7720 N   0  0  0  0  0  0  0  0  0  0  0  0
  139.2960   73.3280  221.7420 C   0  0  0  0  0  0  0  0  0  0  0  0
  140.1970   74.5160  221.6410 C   0  0  0  0  0  0  0  0  0  0  0  0
  141.4340   74.3300  221.6360 O   0  0  0  0  0  0  0  0  0  0  0  0
  139.5970   75.8020  221.5570 N   0  0  0  0  0  0  0  0  0  0  0  0
  138.3000   76.0020  222.1930 C   0  0  0  0  0  0  0  0  0  0  0  0
  138.1650   77.4380  222.6330 C   0  0  0  0  0  0  0  0  0  0  0  0
  138.0300   78.2850  221.3860 C   0  0  0  0  0  0  0  0  0  0  0  0
  138.1620   77.4860  220.1300 C   0  0  0  0  0  0  0  0  0  0  0  0
  139.5840   77.2730  219.6720 C   0  0  0  0  0  0  0  0  0  0  0  0
  140.3890   76.7560  220.8250 C   0  0  1  0  0  0  0  0  0  0  0  0
  140.9220   77.8330  221.6940 C   0  0  0  0  0  0  0  0  0  0  0  0
  141.1970   77.6660  223.0350 C   0  0  0  0  0  0  0  0  0  0  0  0
  141.6890   78.7040  223.7920 C   0  0  0  0  0  0  0  0  0  0  0  0
  141.9210   79.9480  223.2140 C   0  0  0  0  0  0  0  0  0  0  0  0
  142.5520   81.2840  224.1710 Cl  0  0  0  0  0  0  0  0  0  0  0  0
  141.6410   80.1060  221.8660 C   0  0  0  0  0  0  0  0  0  0  0  0
  141.1470   79.0650  221.1070 C   0  0  0  0  0  0  0  0  0  0  0  0
  139.2000   70.5170  224.2990 C   0  0  0  0  0  0  0  0  0  0  0  0
  138.8360   69.1940  224.1210 C   0  0  0  0  0  0  0  0  0  0  0  0
  139.1850   68.2690  225.0820 C   0  0  0  0  0  0  0  0  0  0  0  0
  139.8900   68.6810  226.2020 C   0  0  0  0  0  0  0  0  0  0  0  0
  140.2510   67.7760  227.1770 C   0  0  0  0  0  0  0  0  0  0  0  0
  140.9500   68.1650  228.2920 C   0  0  0  0  0  0  0  0  0  0  0  0
  141.2980   69.5010  228.4350 C   0  0  0  0  0  0  0  0  0  0  0  0
  140.9440   70.4400  227.4640 C   0  0  0  0  0  0  0  0  0  0  0  0
  140.2420   70.0090  226.3550 C   0  0  0  0  0  0  0  0  0  0  0  0
  139.8950   70.8970  225.4100 N   0  0  0  0  0  0  0  0  0  0  0  0
  140.7610   72.4410  223.1240 H   0  0  0  0  0  0  0  0  0  0  0  0
  139.2761   72.8060  220.7739 H   0  0  0  0  0  0  0  0  0  0  0  0
  138.2858   73.6709  222.0103 H   0  0  0  0  0  0  0  0  0  0  0  0
  137.5006   75.7626  221.4762 H   0  0  0  0  0  0  0  0  0  0  0  0
  138.2194   75.3434  223.0703 H   0  0  0  0  0  0  0  0  0  0  0  0
  137.2722   77.5549  223.2649 H   0  0  0  0  0  0  0  0  0  0  0  0
  139.0430   77.7480  223.2188 H   0  0  0  0  0  0  0  0  0  0  0  0
  137.0418   78.7680  221.3938 H   0  0  0  0  0  0  0  0  0  0  0  0
  138.8440   79.0248  221.3967 H   0  0  0  0  0  0  0  0  0  0  0  0
  137.7042   76.5003  220.2998 H   0  0  0  0  0  0  0  0  0  0  0  0
  137.6605   78.0617  219.3381 H   0  0  0  0  0  0  0  0  0  0  0  0
  139.6024   76.5417  218.8505 H   0  0  0  0  0  0  0  0  0  0  0  0
  140.0086   78.2230  219.3152 H   0  0  0  0  0  0  0  0  0  0  0  0
  141.2829   76.2541  220.4262 H   0  0  0  0  0  0  0  0  0  0  0  0
  141.0203   76.6880  223.5065 H   0  0  0  0  0  0  0  0  0  0  0  0
  141.9001   78.5495  224.8604 H   0  0  0  0  0  0  0  0  0  0  0  0
  141.8164   81.0825  221.3908 H   0  0  0  0  0  0  0  0  0  0  0  0
  140.9328   79.2144  220.0384 H   0  0  0  0  0  0  0  0  0  0  0  0
  138.2764   68.8847  223.2259 H   0  0  0  0  0  0  0  0  0  0  0  0
  138.9060   67.2119  224.9608 H   0  0  0  0  0  0  0  0  0  0  0  0
  139.9726   66.7184  227.0587 H   0  0  0  0  0  0  0  0  0  0  0  0
  141.2301   67.4295  229.0605 H   0  0  0  0  0  0  0  0  0  0  0  0
  141.8595   69.8240  229.3240 H   0  0  0  0  0  0  0  0  0  0  0  0
  141.2179   71.4991  227.5796 H   0  0  0  0  0  0  0  0  0  0  0  0
  1  2  2  0
  2  3  1  0
  3  4  1  0
  4  5  1  0
  5  6  2  0
  5  7  1  0
  7  8  1  0
  8  9  1  0
  9 10  1  0
 10 11  1  0
 11 12  1  0
 12 13  1  0
 13 14  1  0
 14 15  2  0
 15 16  1  0
 16 17  2  0
 17 18  1  0
 17 19  1  0
 19 20  2  0
  2 21  1  0
 21 22  2  0
 22 23  1  0
 23 24  2  0
 24 25  1  0
 25 26  2  0
 26 27  1  0
 27 28  2  0
 28 29  1  0
 29 30  2  0
 13  7  1  0
 20 14  1  0
 30 21  1  0
 29 24  1  0
  3 31  1  0
  4 32  1  0
  4 33  1  0
  8 34  1  0
  8 35  1  0
  9 36  1  0
  9 37  1  0
 10 38  1  0
 10 39  1  0
 11 40  1  0
 11 41  1  0
 12 42  1  0
 12 43  1  0
 13 44  1  6
 15 45  1  0
 16 46  1  0
 19 47  1  0
 20 48  1  0
 22 49  1  0
 23 50  1  0
 25 51  1  0
 26 52  1  0
 27 53  1  0
 28 54  1  0
M  END
>  <smiles>  (78) 
O=C(NCC(=O)N1CCCCCC1c1ccc(Cl)cc1)c1ccc2ccccc2n1

>  <score_type>  (78) 
oracle

>  <origin>  (78) 
autodockgpu

>  <m_score__min__energy>  (78) 
-6.8499999999999996

>  <m_primary>  (78) 
energy

>  <rmsd>  (78) 
2.510385089063824

>  <m_score__min__rmsd>  (78) 
2.510385089063824

>  <meeko>  (78) 
{"free_energy": -6.69, "intermolecular_energy": -9.97, "internal_energy": -1.46, "cluster_size": 2, "cluster_id": 2, "rank_in_cluster": 1}

>  <energy>  (78) 
-5.74

>  <cluster_rmsd>  (78) 
1.05

>  <cluster>  (78) 
5

$$$$

     RDKit          3D

 54 57  0  0  0  0  0  0  0  0999 V2000
  140.9590   71.9090  221.5150 O   0  0  0  0  0  0  0  0  0  0  0  0
  140.1240   72.1160  222.4350 C   0  0  0  0  0  0  0  0  0  0  0  0
  139.1850   73.1650  222.2130 N   0  0  0  0  0  0  0  0  0  0  0  0
  139.2990   73.8780  220.9460 C   0  0  0  0  0  0  0  0  0  0  0  0
  140.2900   74.9920  221.0570 C   0  0  0  0  0  0  0  0  0  0  0  0
  141.0680   75.0050  222.0360 O   0  0  0  0  0  0  0  0  0  0  0  0
  140.2940   75.9830  220.0370 N   0  0  0  0  0  0  0  0  0  0  0  0
  139.0150   76.5220  219.5930 C   0  0  0  0  0  0  0  0  0  0  0  0
  139.0250   78.0250  219.7150 C   0  0  0  0  0  0  0  0  0  0  0  0
  140.3080   78.5230  219.0830 C   0  0  0  0  0  0  0  0  0  0  0  0
  141.4080   78.7050  220.0740 C   0  0  0  0  0  0  0  0  0  0  0  0
  142.1540   77.4380  220.4150 C   0  0  0  0  0  0  0  0  0  0  0  0
  141.6150   76.3210  219.5740 C   0  0  1  0  0  0  0  0  0  0  0  0
  142.5150   75.1430  219.5210 C   0  0  0  0  0  0  0  0  0  0  0  0
  142.2080   73.9780  218.8510 C   0  0  0  0  0  0  0  0  0  0  0  0
  143.0830   72.9170  218.8380 C   0  0  0  0  0  0  0  0  0  0  0  0
  144.3020   73.0020  219.5060 C   0  0  0  0  0  0  0  0  0  0  0  0
  145.4310   71.6510  219.4970 Cl  0  0  0  0  0  0  0  0  0  0  0  0
  144.5990   74.1770  220.1770 C   0  0  0  0  0  0  0  0  0  0  0  0
  143.7220   75.2410  220.1890 C   0  0  0  0  0  0  0  0  0  0  0  0
  140.0880   71.3470  223.6700 C   0  0  0  0  0  0  0  0  0  0  0  0
  139.5450   70.0740  223.6260 C   0  0  0  0  0  0  0  0  0  0  0  0
  139.5010   69.3260  224.7830 C   0  0  0  0  0  0  0  0  0  0  0  0
  139.9970   69.8600  225.9610 C   0  0  0  0  0  0  0  0  0  0  0  0
  139.9630   69.1330  227.1320 C   0  0  0  0  0  0  0  0  0  0  0  0
  140.4510   69.6460  228.3080 C   0  0  0  0  0  0  0  0  0  0  0  0
  140.9880   70.9250  228.3130 C   0  0  0  0  0  0  0  0  0  0  0  0
  141.0340   71.6850  227.1420 C   0  0  0  0  0  0  0  0  0  0  0  0
  140.5340   71.1340  225.9780 C   0  0  0  0  0  0  0  0  0  0  0  0
  140.5710   71.8500  224.8420 N   0  0  0  0  0  0  0  0  0  0  0  0
  138.4490   73.4140  222.9220 H   0  0  0  0  0  0  0  0  0  0  0  0
  139.6288   73.1771  220.1650 H   0  0  0  0  0  0  0  0  0  0  0  0
  138.3171   74.3010  220.6872 H   0  0  0  0  0  0  0  0  0  0  0  0
  138.8452   76.2418  218.5429 H   0  0  0  0  0  0  0  0  0  0  0  0
  138.2101   76.1117  220.2205 H   0  0  0  0  0  0  0  0  0  0  0  0
  138.1574   78.4505  219.1895 H   0  0  0  0  0  0  0  0  0  0  0  0
  138.9690   78.3290  220.7707 H   0  0  0  0  0  0  0  0  0  0  0  0
  140.6334   77.7935  218.3267 H   0  0  0  0  0  0  0  0  0  0  0  0
  140.0976   79.5065  218.6374 H   0  0  0  0  0  0  0  0  0  0  0  0
  142.1273   79.4276  219.6612 H   0  0  0  0  0  0  0  0  0  0  0  0
  140.9378   79.0536  221.0054 H   0  0  0  0  0  0  0  0  0  0  0  0
  143.2260   77.5728  220.2082 H   0  0  0  0  0  0  0  0  0  0  0  0
  142.0222   77.2013  221.4811 H   0  0  0  0  0  0  0  0  0  0  0  0
  141.5547   76.6695  218.5324 H   0  0  0  0  0  0  0  0  0  0  0  0
  141.2488   73.8958  218.3188 H   0  0  0  0  0  0  0  0  0  0  0  0
  142.8186   71.9964  218.2971 H   0  0  0  0  0  0  0  0  0  0  0  0
  145.5561   74.2632  220.7123 H   0  0  0  0  0  0  0  0  0  0  0  0
  143.9814   76.1642  220.7278 H   0  0  0  0  0  0  0  0  0  0  0  0
  139.1547   69.6658  222.6821 H   0  0  0  0  0  0  0  0  0  0  0  0
  139.0749   68.3119  224.7709 H   0  0  0  0  0  0  0  0  0  0  0  0
  139.5354   68.1196  227.1237 H   0  0  0  0  0  0  0  0  0  0  0  0
  140.4167   69.0515  229.2329 H   0  0  0  0  0  0  0  0  0  0  0  0
  141.3821   71.3455  229.2499 H   0  0  0  0  0  0  0  0  0  0  0  0
  141.4589   72.6996  227.1465 H   0  0  0  0  0  0  0  0  0  0  0  0
  1  2  2  0
  2  3  1  0
  3  4  1  0
  4  5  1  0
  5  6  2  0
  5  7  1  0
  7  8  1  0
  8  9  1  0
  9 10  1  0
 10 11  1  0
 11 12  1  0
 12 13  1  0
 13 14  1  0
 14 15  2  0
 15 16  1  0
 16 17  2  0
 17 18  1  0
 17 19  1  0
 19 20  2  0
  2 21  1  0
 21 22  2  0
 22 23  1  0
 23 24  2  0
 24 25  1  0
 25 26  2  0
 26 27  1  0
 27 28  2  0
 28 29  1  0
 29 30  2  0
 13  7  1  0
 20 14  1  0
 30 21  1  0
 29 24  1  0
  3 31  1  0
  4 32  1  0
  4 33  1  0
  8 34  1  0
  8 35  1  0
  9 36  1  0
  9 37  1  0
 10 38  1  0
 10 39  1  0
 11 40  1  0
 11 41  1  0
 12 42  1  0
 12 43  1  0
 13 44  1  6
 15 45  1  0
 16 46  1  0
 19 47  1  0
 20 48  1  0
 22 49  1  0
 23 50  1  0
 25 51  1  0
 26 52  1  0
 27 53  1  0
 28 54  1  0
M  END
>  <smiles>  (79) 
O=C(NCC(=O)N1CCCCCC1c1ccc(Cl)cc1)c1ccc2ccccc2n1

>  <score_type>  (79) 
oracle

>  <origin>  (79) 
autodockgpu

>  <m_score__min__energy>  (79) 
-6.8499999999999996

>  <m_primary>  (79) 
energy

>  <rmsd>  (79) 
1.8721320019186602

>  <m_score__min__rmsd>  (79) 
1.8721320019186602

>  <meeko>  (79) 
{"free_energy": -6.28, "intermolecular_energy": -9.56, "internal_energy": -1.85, "cluster_size": 10, "cluster_id": 3, "rank_in_cluster": 3}

>  <energy>  (79) 
-5.45

>  <cluster_rmsd>  (79) 
1.63

>  <cluster>  (79) 
5

$$$$

     RDKit          3D

 54 57  0  0  0  0  0  0  0  0999 V2000
  140.8560   77.4910  218.2500 O   0  0  0  0  0  0  0  0  0  0  0  0
  141.8110   77.2590  219.0380 C   0  0  0  0  0  0  0  0  0  0  0  0
  142.1840   78.3210  219.9110 N   0  0  0  0  0  0  0  0  0  0  0  0
  141.4170   79.5560  219.7920 C   0  0  0  0  0  0  0  0  0  0  0  0
  141.1440   80.1370  221.1420 C   0  0  0  0  0  0  0  0  0  0  0  0
  142.0550   80.7730  221.7150 O   0  0  0  0  0  0  0  0  0  0  0  0
  139.8550   79.9340  221.7060 N   0  0  0  0  0  0  0  0  0  0  0  0
  138.7210   80.6280  221.1080 C   0  0  0  0  0  0  0  0  0  0  0  0
  138.5260   81.9620  221.7840 C   0  0  0  0  0  0  0  0  0  0  0  0
  137.9010   81.6980  223.1370 C   0  0  0  0  0  0  0  0  0  0  0  0
  138.7740   80.8720  224.0270 C   0  0  0  0  0  0  0  0  0  0  0  0
  138.7210   79.3910  223.7400 C   0  0  0  0  0  0  0  0  0  0  0  0
  139.8580   79.0360  222.8320 C   0  0  1  0  0  0  0  0  0  0  0  0
  139.8530   77.6120  222.4200 C   0  0  0  0  0  0  0  0  0  0  0  0
  140.9930   76.8440  222.3100 C   0  0  0  0  0  0  0  0  0  0  0  0
  140.9260   75.5270  221.9210 C   0  0  0  0  0  0  0  0  0  0  0  0
  139.6970   74.9410  221.6300 C   0  0  0  0  0  0  0  0  0  0  0  0
  139.5970   73.2550  221.1320 Cl  0  0  0  0  0  0  0  0  0  0  0  0
  138.5580   75.7210  221.7430 C   0  0  0  0  0  0  0  0  0  0  0  0
  138.6260   77.0420  222.1330 C   0  0  0  0  0  0  0  0  0  0  0  0
  142.5190   75.9880  219.0830 C   0  0  0  0  0  0  0  0  0  0  0  0
  142.0710   74.9660  218.2630 C   0  0  0  0  0  0  0  0  0  0  0  0
  142.7250   73.7540  218.2890 C   0  0  0  0  0  0  0  0  0  0  0  0
  143.8140   73.5820  219.1290 C   0  0  0  0  0  0  0  0  0  0  0  0
  144.4850   72.3780  219.1730 C   0  0  0  0  0  0  0  0  0  0  0  0
  145.5650   72.1900  219.9980 C   0  0  0  0  0  0  0  0  0  0  0  0
  145.9860   73.2380  220.8050 C   0  0  0  0  0  0  0  0  0  0  0  0
  145.3240   74.4680  220.7820 C   0  0  0  0  0  0  0  0  0  0  0  0
  144.2410   74.6180  219.9370 C   0  0  0  0  0  0  0  0  0  0  0  0
  143.5940   75.7940  219.9010 N   0  0  0  0  0  0  0  0  0  0  0  0
  142.9690   78.2240  220.6050 H   0  0  0  0  0  0  0  0  0  0  0  0
  141.9896   80.2812  219.1952 H   0  0  0  0  0  0  0  0  0  0  0  0
  140.4583   79.3325  219.3012 H   0  0  0  0  0  0  0  0  0  0  0  0
  138.9129   80.7859  220.0364 H   0  0  0  0  0  0  0  0  0  0  0  0
  137.8136   80.0194  221.2356 H   0  0  0  0  0  0  0  0  0  0  0  0
  139.4962   82.4649  221.9099 H   0  0  0  0  0  0  0  0  0  0  0  0
  137.8787   82.6130  221.1780 H   0  0  0  0  0  0  0  0  0  0  0  0
  137.7091   82.6625  223.6298 H   0  0  0  0  0  0  0  0  0  0  0  0
  136.9717   81.1341  222.9684 H   0  0  0  0  0  0  0  0  0  0  0  0
  139.8131   81.2110  223.9028 H   0  0  0  0  0  0  0  0  0  0  0  0
  138.4019   81.0098  225.0529 H   0  0  0  0  0  0  0  0  0  0  0  0
  138.8095   78.8284  224.6811 H   0  0  0  0  0  0  0  0  0  0  0  0
  137.7647   79.1367  223.2596 H   0  0  0  0  0  0  0  0  0  0  0  0
  140.7982   79.1591  223.3896 H   0  0  0  0  0  0  0  0  0  0  0  0
  141.9715   77.2922  222.5371 H   0  0  0  0  0  0  0  0  0  0  0  0
  141.8483   74.9331  221.8393 H   0  0  0  0  0  0  0  0  0  0  0  0
  137.5774   75.2769  221.5166 H   0  0  0  0  0  0  0  0  0  0  0  0
  137.7069   77.6407  222.2156 H   0  0  0  0  0  0  0  0  0  0  0  0
  141.2061   75.1197  217.6010 H   0  0  0  0  0  0  0  0  0  0  0  0
  142.3852   72.9278  217.6472 H   0  0  0  0  0  0  0  0  0  0  0  0
  144.1469   71.5501  218.5325 H   0  0  0  0  0  0  0  0  0  0  0  0
  146.0894   71.2233  220.0196 H   0  0  0  0  0  0  0  0  0  0  0  0
  146.8508   73.0984  221.4703 H   0  0  0  0  0  0  0  0  0  0  0  0
  145.6573   75.2982  221.4220 H   0  0  0  0  0  0  0  0  0  0  0  0
  1  2  2  0
  2  3  1  0
  3  4  1  0
  4  5  1  0
  5  6  2  0
  5  7  1  0
  7  8  1  0
  8  9  1  0
  9 10  1  0
 10 11  1  0
 11 12  1  0
 12 13  1  0
 13 14  1  0
 14 15  2  0
 15 16  1  0
 16 17  2  0
 17 18  1  0
 17 19  1  0
 19 20  2  0
  2 21  1  0
 21 22  2  0
 22 23  1  0
 23 24  2  0
 24 25  1  0
 25 26  2  0
 26 27  1  0
 27 28  2  0
 28 29  1  0
 29 30  2  0
 13  7  1  0
 20 14  1  0
 30 21  1  0
 29 24  1  0
  3 31  1  0
  4 32  1  0
  4 33  1  0
  8 34  1  0
  8 35  1  0
  9 36  1  0
  9 37  1  0
 10 38  1  0
 10 39  1  0
 11 40  1  0
 11 41  1  0
 12 42  1  0
 12 43  1  0
 13 44  1  1
 15 45  1  0
 16 46  1  0
 19 47  1  0
 20 48  1  0
 22 49  1  0
 23 50  1  0
 25 51  1  0
 26 52  1  0
 27 53  1  0
 28 54  1  0
M  END
>  <smiles>  (80) 
O=C(NCC(=O)N1CCCCCC1c1ccc(Cl)cc1)c1ccc2ccccc2n1

>  <score_type>  (80) 
oracle

>  <origin>  (80) 
autodockgpu

>  <m_score__min__energy>  (80) 
-6.8499999999999996

>  <m_primary>  (80) 
energy

>  <rmsd>  (80) 
7.5185885174936935

>  <m_score__min__rmsd>  (80) 
7.5185885174936935

>  <meeko>  (80) 
{"free_energy": -4.12, "intermolecular_energy": -7.41, "internal_energy": -2.94, "cluster_size": 4, "cluster_id": 11, "rank_in_cluster": 4}

>  <energy>  (80) 
-5.44

>  <cluster_rmsd>  (80) 
1.8

>  <cluster>  (80) 
5

$$$$

     RDKit          3D

 54 57  0  0  0  0  0  0  0  0999 V2000
  137.3760   70.3690  221.8450 O   0  0  0  0  0  0  0  0  0  0  0  0
  137.9210   71.1090  222.7070 C   0  0  0  0  0  0  0  0  0  0  0  0
  137.9010   72.5090  222.4430 N   0  0  0  0  0  0  0  0  0  0  0  0
  137.2520   72.9250  221.2040 C   0  0  0  0  0  0  0  0  0  0  0  0
  138.1520   73.8190  220.4130 C   0  0  0  0  0  0  0  0  0  0  0  0
  137.6460   74.7830  219.7970 O   0  0  0  0  0  0  0  0  0  0  0  0
  139.5420   73.5230  220.4020 N   0  0  0  0  0  0  0  0  0  0  0  0
  140.0950   72.8430  219.2360 C   0  0  0  0  0  0  0  0  0  0  0  0
  140.0090   71.3500  219.4290 C   0  0  0  0  0  0  0  0  0  0  0  0
  141.0660   70.9620  220.4410 C   0  0  0  0  0  0  0  0  0  0  0  0
  140.8510   71.5970  221.7730 C   0  0  0  0  0  0  0  0  0  0  0  0
  141.3620   73.0140  221.8670 C   0  0  0  0  0  0  0  0  0  0  0  0
  140.2280   73.9540  221.5930 C   0  0  1  0  0  0  0  0  0  0  0  0
  140.6520   75.3730  221.5180 C   0  0  0  0  0  0  0  0  0  0  0  0
  141.5320   75.8590  220.5740 C   0  0  0  0  0  0  0  0  0  0  0  0
  141.8900   77.1870  220.5550 C   0  0  0  0  0  0  0  0  0  0  0  0
  141.3640   78.0700  221.4940 C   0  0  0  0  0  0  0  0  0  0  0  0
  141.8120   79.7730  221.4790 Cl  0  0  0  0  0  0  0  0  0  0  0  0
  140.4810   77.5720  222.4380 C   0  0  0  0  0  0  0  0  0  0  0  0
  140.1230   76.2400  222.4560 C   0  0  0  0  0  0  0  0  0  0  0  0
  138.5460   70.5990  223.9190 C   0  0  0  0  0  0  0  0  0  0  0  0
  138.3330   69.2720  224.2480 C   0  0  0  0  0  0  0  0  0  0  0  0
  138.9150   68.7660  225.3910 C   0  0  0  0  0  0  0  0  0  0  0  0
  139.6980   69.5910  226.1820 C   0  0  0  0  0  0  0  0  0  0  0  0
  140.2900   69.1090  227.3300 C   0  0  0  0  0  0  0  0  0  0  0  0
  141.0690   69.9110  228.1260 C   0  0  0  0  0  0  0  0  0  0  0  0
  141.2600   71.2370  227.7610 C   0  0  0  0  0  0  0  0  0  0  0  0
  140.6710   71.7520  226.6050 C   0  0  0  0  0  0  0  0  0  0  0  0
  139.8950   70.9130  225.8300 C   0  0  0  0  0  0  0  0  0  0  0  0
  139.3220   71.3910  224.7130 N   0  0  0  0  0  0  0  0  0  0  0  0
  138.3300   73.2080  223.1020 H   0  0  0  0  0  0  0  0  0  0  0  0
  137.0105   72.0341  220.6056 H   0  0  0  0  0  0  0  0  0  0  0  0
  136.3335   73.4768  221.4527 H   0  0  0  0  0  0  0  0  0  0  0  0
  139.5235   73.1293  218.3408 H   0  0  0  0  0  0  0  0  0  0  0  0
  141.1485   73.1337  219.1109 H   0  0  0  0  0  0  0  0  0  0  0  0
  139.0116   71.0763  219.8035 H   0  0  0  0  0  0  0  0  0  0  0  0
  140.1729   70.8254  218.4761 H   0  0  0  0  0  0  0  0  0  0  0  0
  141.0489   69.8692  220.5657 H   0  0  0  0  0  0  0  0  0  0  0  0
  142.0356   71.3139  220.0588 H   0  0  0  0  0  0  0  0  0  0  0  0
  139.7712   71.6041  221.9826 H   0  0  0  0  0  0  0  0  0  0  0  0
  141.4204   71.0041  222.5039 H   0  0  0  0  0  0  0  0  0  0  0  0
  141.7593   73.1978  222.8762 H   0  0  0  0  0  0  0  0  0  0  0  0
  142.1650   73.1719  221.1319 H   0  0  0  0  0  0  0  0  0  0  0  0
  139.5331   73.9169  222.4449 H   0  0  0  0  0  0  0  0  0  0  0  0
  141.9544   75.1738  219.8243 H   0  0  0  0  0  0  0  0  0  0  0  0
  142.5952   77.5530  219.7943 H   0  0  0  0  0  0  0  0  0  0  0  0
  140.0561   78.2536  223.1896 H   0  0  0  0  0  0  0  0  0  0  0  0
  139.4184   75.8686  223.2147 H   0  0  0  0  0  0  0  0  0  0  0  0
  137.7092   68.6309  223.6078 H   0  0  0  0  0  0  0  0  0  0  0  0
  138.7586   67.7143  225.6729 H   0  0  0  0  0  0  0  0  0  0  0  0
  140.1345   68.0579  227.6144 H   0  0  0  0  0  0  0  0  0  0  0  0
  141.5345   69.5098  229.0383 H   0  0  0  0  0  0  0  0  0  0  0  0
  141.8830   71.8895  228.3904 H   0  0  0  0  0  0  0  0  0  0  0  0
  140.8217   72.8031  226.3177 H   0  0  0  0  0  0  0  0  0  0  0  0
  1  2  2  0
  2  3  1  0
  3  4  1  0
  4  5  1  0
  5  6  2  0
  5  7  1  0
  7  8  1  0
  8  9  1  0
  9 10  1  0
 10 11  1  0
 11 12  1  0
 12 13  1  0
 13 14  1  0
 14 15  2  0
 15 16  1  0
 16 17  2  0
 17 18  1  0
 17 19  1  0
 19 20  2  0
  2 21  1  0
 21 22  2  0
 22 23  1  0
 23 24  2  0
 24 25  1  0
 25 26  2  0
 26 27  1  0
 27 28  2  0
 28 29  1  0
 29 30  2  0
 13  7  1  0
 20 14  1  0
 30 21  1  0
 29 24  1  0
  3 31  1  0
  4 32  1  0
  4 33  1  0
  8 34  1  0
  8 35  1  0
  9 36  1  0
  9 37  1  0
 10 38  1  0
 10 39  1  0
 11 40  1  0
 11 41  1  0
 12 42  1  0
 12 43  1  0
 13 44  1  1
 15 45  1  0
 16 46  1  0
 19 47  1  0
 20 48  1  0
 22 49  1  0
 23 50  1  0
 25 51  1  0
 26 52  1  0
 27 53  1  0
 28 54  1  0
M  END
>  <smiles>  (81) 
O=C(NCC(=O)N1CCCCCC1c1ccc(Cl)cc1)c1ccc2ccccc2n1

>  <score_type>  (81) 
oracle

>  <origin>  (81) 
autodockgpu

>  <m_score__min__energy>  (81) 
-6.8499999999999996

>  <m_primary>  (81) 
energy

>  <rmsd>  (81) 
2.7769909656358873

>  <m_score__min__rmsd>  (81) 
2.7769909656358873

>  <meeko>  (81) 
{"free_energy": -4.69, "intermolecular_energy": -7.98, "internal_energy": -2.48, "cluster_size": 1, "cluster_id": 12, "rank_in_cluster": 1}

>  <energy>  (81) 
-4.49

>  <cluster_rmsd>  (81) 
1.54

>  <cluster>  (81) 
5

$$$$

     RDKit          3D

 54 57  0  0  0  0  0  0  0  0999 V2000
  140.9330   71.6480  221.5440 O   0  0  0  0  0  0  0  0  0  0  0  0
  140.1350   71.9540  222.4690 C   0  0  0  0  0  0  0  0  0  0  0  0
  139.3300   73.1100  222.2540 N   0  0  0  0  0  0  0  0  0  0  0  0
  139.5210   73.8050  220.9860 C   0  0  0  0  0  0  0  0  0  0  0  0
  140.7490   74.6560  221.0330 C   0  0  0  0  0  0  0  0  0  0  0  0
  140.9520   75.3580  222.0480 O   0  0  0  0  0  0  0  0  0  0  0  0
  141.6250   74.6230  219.9140 N   0  0  0  0  0  0  0  0  0  0  0  0
  141.2920   73.7410  218.8010 C   0  0  0  0  0  0  0  0  0  0  0  0
  141.8670   72.3690  219.0490 C   0  0  0  0  0  0  0  0  0  0  0  0
  143.3660   72.4640  218.8620 C   0  0  0  0  0  0  0  0  0  0  0  0
  144.0110   73.4110  219.8190 C   0  0  0  0  0  0  0  0  0  0  0  0
  143.9480   74.8590  219.3980 C   0  0  0  0  0  0  0  0  0  0  0  0
  142.7600   75.4990  220.0500 C   0  0  1  0  0  0  0  0  0  0  0  0
  142.4830   76.8650  219.5450 C   0  0  0  0  0  0  0  0  0  0  0  0
  142.7760   77.2790  218.2630 C   0  0  0  0  0  0  0  0  0  0  0  0
  142.4960   78.5610  217.8510 C   0  0  0  0  0  0  0  0  0  0  0  0
  141.9070   79.4690  218.7260 C   0  0  0  0  0  0  0  0  0  0  0  0
  141.5430   81.1130  218.2120 Cl  0  0  0  0  0  0  0  0  0  0  0  0
  141.6160   79.0430  220.0120 C   0  0  0  0  0  0  0  0  0  0  0  0
  141.8970   77.7570  220.4250 C   0  0  0  0  0  0  0  0  0  0  0  0
  140.0140   71.1940  223.7050 C   0  0  0  0  0  0  0  0  0  0  0  0
  139.3160   69.9990  223.6660 C   0  0  0  0  0  0  0  0  0  0  0  0
  139.1890   69.2620  224.8230 C   0  0  0  0  0  0  0  0  0  0  0  0
  139.7580   69.7280  225.9970 C   0  0  0  0  0  0  0  0  0  0  0  0
  139.6440   69.0090  227.1680 C   0  0  0  0  0  0  0  0  0  0  0  0
  140.2030   69.4560  228.3400 C   0  0  0  0  0  0  0  0  0  0  0  0
  140.8960   70.6580  228.3390 C   0  0  0  0  0  0  0  0  0  0  0  0
  141.0260   71.4080  227.1680 C   0  0  0  0  0  0  0  0  0  0  0  0
  140.4510   70.9250  226.0090 C   0  0  0  0  0  0  0  0  0  0  0  0
  140.5670   71.6320  224.8730 N   0  0  0  0  0  0  0  0  0  0  0  0
  138.6340   73.4460  222.9680 H   0  0  0  0  0  0  0  0  0  0  0  0
  139.6251   73.0641  220.1796 H   0  0  0  0  0  0  0  0  0  0  0  0
  138.6494   74.4496  220.7998 H   0  0  0  0  0  0  0  0  0  0  0  0
  140.1985   73.6675  218.7074 H   0  0  0  0  0  0  0  0  0  0  0  0
  141.7159   74.1509  217.8724 H   0  0  0  0  0  0  0  0  0  0  0  0
  141.6361   72.0447  220.0744 H   0  0  0  0  0  0  0  0  0  0  0  0
  141.4351   71.6358  218.3520 H   0  0  0  0  0  0  0  0  0  0  0  0
  143.8022   71.4649  219.0088 H   0  0  0  0  0  0  0  0  0  0  0  0
  143.5489   72.8447  217.8463 H   0  0  0  0  0  0  0  0  0  0  0  0
  143.5079   73.3131  220.7923 H   0  0  0  0  0  0  0  0  0  0  0  0
  145.0766   73.1409  219.8593 H   0  0  0  0  0  0  0  0  0  0  0  0
  144.8663   75.3762  219.7132 H   0  0  0  0  0  0  0  0  0  0  0  0
  143.8563   74.9270  218.3039 H   0  0  0  0  0  0  0  0  0  0  0  0
  142.9837   75.6387  221.1179 H   0  0  0  0  0  0  0  0  0  0  0  0
  143.2408   76.5732  217.5589 H   0  0  0  0  0  0  0  0  0  0  0  0
  142.7390   78.8705  216.8238 H   0  0  0  0  0  0  0  0  0  0  0  0
  141.1507   79.7455  220.7191 H   0  0  0  0  0  0  0  0  0  0  0  0
  141.6558   77.4419  221.4509 H   0  0  0  0  0  0  0  0  0  0  0  0
  138.8696   69.6434  222.7256 H   0  0  0  0  0  0  0  0  0  0  0  0
  138.6391   68.3093  224.8147 H   0  0  0  0  0  0  0  0  0  0  0  0
  139.0934   68.0568  227.1633 H   0  0  0  0  0  0  0  0  0  0  0  0
  140.1029   68.8700  229.2655 H   0  0  0  0  0  0  0  0  0  0  0  0
  141.3486   71.0248  229.2721 H   0  0  0  0  0  0  0  0  0  0  0  0
  141.5740   72.3618  227.1689 H   0  0  0  0  0  0  0  0  0  0  0  0
  1  2  2  0
  2  3  1  0
  3  4  1  0
  4  5  1  0
  5  6  2  0
  5  7  1  0
  7  8  1  0
  8  9  1  0
  9 10  1  0
 10 11  1  0
 11 12  1  0
 12 13  1  0
 13 14  1  0
 14 15  2  0
 15 16  1  0
 16 17  2  0
 17 18  1  0
 17 19  1  0
 19 20  2  0
  2 21  1  0
 21 22  2  0
 22 23  1  0
 23 24  2  0
 24 25  1  0
 25 26  2  0
 26 27  1  0
 27 28  2  0
 28 29  1  0
 29 30  2  0
 13  7  1  0
 20 14  1  0
 30 21  1  0
 29 24  1  0
  3 31  1  0
  4 32  1  0
  4 33  1  0
  8 34  1  0
  8 35  1  0
  9 36  1  0
  9 37  1  0
 10 38  1  0
 10 39  1  0
 11 40  1  0
 11 41  1  0
 12 42  1  0
 12 43  1  0
 13 44  1  1
 15 45  1  0
 16 46  1  0
 19 47  1  0
 20 48  1  0
 22 49  1  0
 23 50  1  0
 25 51  1  0
 26 52  1  0
 27 53  1  0
 28 54  1  0
M  END
>  <smiles>  (82) 
O=C(NCC(=O)N1CCCCCC1c1ccc(Cl)cc1)c1ccc2ccccc2n1

>  <score_type>  (82) 
oracle

>  <origin>  (82) 
autodockgpu

>  <m_score__min__energy>  (82) 
-6.8499999999999996

>  <m_primary>  (82) 
energy

>  <rmsd>  (82) 
2.2100932904010553

>  <m_score__min__rmsd>  (82) 
2.2100932904010553

>  <meeko>  (82) 
{"free_energy": -6.54, "intermolecular_energy": -9.82, "internal_energy": -1.73, "cluster_size": 6, "cluster_id": 5, "rank_in_cluster": 1}

>  <energy>  (82) 
-6.19

>  <cluster_rmsd>  (82) 
0.0

>  <cluster>  (82) 
6

$$$$

     RDKit          3D

 54 57  0  0  0  0  0  0  0  0999 V2000
  141.2660   72.1910  221.7400 O   0  0  0  0  0  0  0  0  0  0  0  0
  140.2910   72.2820  222.5330 C   0  0  0  0  0  0  0  0  0  0  0  0
  139.2990   73.2510  222.2080 N   0  0  0  0  0  0  0  0  0  0  0  0
  139.5250   74.0260  220.9930 C   0  0  0  0  0  0  0  0  0  0  0  0
  140.4260   75.1860  221.2690 C   0  0  0  0  0  0  0  0  0  0  0  0
  141.0620   75.2060  222.3460 O   0  0  0  0  0  0  0  0  0  0  0  0
  140.5120   76.2110  220.2880 N   0  0  0  0  0  0  0  0  0  0  0  0
  139.4610   77.2220  220.2510 C   0  0  0  0  0  0  0  0  0  0  0  0
  139.7000   78.2440  221.3330 C   0  0  0  0  0  0  0  0  0  0  0  0
  141.1770   78.5770  221.3260 C   0  0  0  0  0  0  0  0  0  0  0  0
  141.7700   78.4820  219.9550 C   0  0  0  0  0  0  0  0  0  0  0  0
  142.5940   77.2400  219.7200 C   0  0  0  0  0  0  0  0  0  0  0  0
  141.6690   76.0950  219.4390 C   0  0  1  0  0  0  0  0  0  0  0  0
  142.3260   74.7710  219.5570 C   0  0  0  0  0  0  0  0  0  0  0  0
  143.3700   74.5110  220.4190 C   0  0  0  0  0  0  0  0  0  0  0  0
  143.9410   73.2620  220.4840 C   0  0  0  0  0  0  0  0  0  0  0  0
  143.4720   72.2300  219.6750 C   0  0  0  0  0  0  0  0  0  0  0  0
  144.1940   70.6260  219.7490 Cl  0  0  0  0  0  0  0  0  0  0  0  0
  142.4230   72.5020  218.8120 C   0  0  0  0  0  0  0  0  0  0  0  0
  141.8500   73.7560  218.7480 C   0  0  0  0  0  0  0  0  0  0  0  0
  140.1520   71.4600  223.7260 C   0  0  0  0  0  0  0  0  0  0  0  0
  139.4770   70.2570  223.6090 C   0  0  0  0  0  0  0  0  0  0  0  0
  139.3340   69.4610  224.7260 C   0  0  0  0  0  0  0  0  0  0  0  0
  139.8640   69.8780  225.9360 C   0  0  0  0  0  0  0  0  0  0  0  0
  139.7320   69.1000  227.0670 C   0  0  0  0  0  0  0  0  0  0  0  0
  140.2520   69.4970  228.2730 C   0  0  0  0  0  0  0  0  0  0  0  0
  140.9230   70.7100  228.3510 C   0  0  0  0  0  0  0  0  0  0  0  0
  141.0700   71.5190  227.2220 C   0  0  0  0  0  0  0  0  0  0  0  0
  140.5340   71.0840  226.0250 C   0  0  0  0  0  0  0  0  0  0  0  0
  140.6660   71.8480  224.9280 N   0  0  0  0  0  0  0  0  0  0  0  0
  138.4480   73.4020  222.8080 H   0  0  0  0  0  0  0  0  0  0  0  0
  139.9896   73.3801  220.2334 H   0  0  0  0  0  0  0  0  0  0  0  0
  138.5587   74.4060  220.6299 H   0  0  0  0  0  0  0  0  0  0  0  0
  139.4671   77.7199  219.2701 H   0  0  0  0  0  0  0  0  0  0  0  0
  138.4860   76.7397  220.4148 H   0  0  0  0  0  0  0  0  0  0  0  0
  139.1098   79.1500  221.1309 H   0  0  0  0  0  0  0  0  0  0  0  0
  139.3966   77.8484  222.3135 H   0  0  0  0  0  0  0  0  0  0  0  0
  141.3109   79.6028  221.6999 H   0  0  0  0  0  0  0  0  0  0  0  0
  141.6914   77.8472  221.9685 H   0  0  0  0  0  0  0  0  0  0  0  0
  140.9491   78.4945  219.2229 H   0  0  0  0  0  0  0  0  0  0  0  0
  142.4523   79.3380  219.8467 H   0  0  0  0  0  0  0  0  0  0  0  0
  143.2616   77.3961  218.8598 H   0  0  0  0  0  0  0  0  0  0  0  0
  143.2024   77.0203  220.6097 H   0  0  0  0  0  0  0  0  0  0  0  0
  141.3537   76.1543  218.3868 H   0  0  0  0  0  0  0  0  0  0  0  0
  143.7521   75.3153  221.0648 H   0  0  0  0  0  0  0  0  0  0  0  0
  144.7732   73.0768  221.1791 H   0  0  0  0  0  0  0  0  0  0  0  0
  142.0383   71.7010  218.1636 H   0  0  0  0  0  0  0  0  0  0  0  0
  141.0171   73.9472  218.0554 H   0  0  0  0  0  0  0  0  0  0  0  0
  139.0615   69.9412  222.6407 H   0  0  0  0  0  0  0  0  0  0  0  0
  138.8022   68.5006  224.6565 H   0  0  0  0  0  0  0  0  0  0  0  0
  139.1983   68.1404  227.0008 H   0  0  0  0  0  0  0  0  0  0  0  0
  140.1389   68.8635  229.1651 H   0  0  0  0  0  0  0  0  0  0  0  0
  141.3437   71.0377  229.3131 H   0  0  0  0  0  0  0  0  0  0  0  0
  141.6005   72.4806  227.2843 H   0  0  0  0  0  0  0  0  0  0  0  0
  1  2  2  0
  2  3  1  0
  3  4  1  0
  4  5  1  0
  5  6  2  0
  5  7  1  0
  7  8  1  0
  8  9  1  0
  9 10  1  0
 10 11  1  0
 11 12  1  0
 12 13  1  0
 13 14  1  0
 14 15  2  0
 15 16  1  0
 16 17  2  0
 17 18  1  0
 17 19  1  0
 19 20  2  0
  2 21  1  0
 21 22  2  0
 22 23  1  0
 23 24  2  0
 24 25  1  0
 25 26  2  0
 26 27  1  0
 27 28  2  0
 28 29  1  0
 29 30  2  0
 13  7  1  0
 20 14  1  0
 30 21  1  0
 29 24  1  0
  3 31  1  0
  4 32  1  0
  4 33  1  0
  8 34  1  0
  8 35  1  0
  9 36  1  0
  9 37  1  0
 10 38  1  0
 10 39  1  0
 11 40  1  0
 11 41  1  0
 12 42  1  0
 12 43  1  0
 13 44  1  6
 15 45  1  0
 16 46  1  0
 19 47  1  0
 20 48  1  0
 22 49  1  0
 23 50  1  0
 25 51  1  0
 26 52  1  0
 27 53  1  0
 28 54  1  0
M  END
>  <smiles>  (83) 
O=C(NCC(=O)N1CCCCCC1c1ccc(Cl)cc1)c1ccc2ccccc2n1

>  <score_type>  (83) 
oracle

>  <origin>  (83) 
autodockgpu

>  <m_score__min__energy>  (83) 
-6.8499999999999996

>  <m_primary>  (83) 
energy

>  <rmsd>  (83) 
2.2449084249430786

>  <m_score__min__rmsd>  (83) 
2.2449084249430786

>  <meeko>  (83) 
{"free_energy": -5.44, "intermolecular_energy": -8.72, "internal_energy": -2.03, "cluster_size": 10, "cluster_id": 3, "rank_in_cluster": 10}

>  <energy>  (83) 
-5.51

>  <cluster_rmsd>  (83) 
1.35

>  <cluster>  (83) 
6

$$$$

     RDKit          3D

 54 57  0  0  0  0  0  0  0  0999 V2000
  140.7800   72.2450  221.6000 O   0  0  0  0  0  0  0  0  0  0  0  0
  139.9130   72.3450  222.5090 C   0  0  0  0  0  0  0  0  0  0  0  0
  138.9030   73.3310  222.3130 N   0  0  0  0  0  0  0  0  0  0  0  0
  138.9890   74.1110  221.0840 C   0  0  0  0  0  0  0  0  0  0  0  0
  139.0820   75.5700  221.3920 C   0  0  0  0  0  0  0  0  0  0  0  0
  138.0500   76.1700  221.7660 O   0  0  0  0  0  0  0  0  0  0  0  0
  140.3450   76.2030  221.2410 N   0  0  0  0  0  0  0  0  0  0  0  0
  140.9580   76.8130  222.4150 C   0  0  0  0  0  0  0  0  0  0  0  0
  140.3510   78.1710  222.6600 C   0  0  0  0  0  0  0  0  0  0  0  0
  140.5140   78.9770  221.3890 C   0  0  0  0  0  0  0  0  0  0  0  0
  141.5560   78.4150  220.4840 C   0  0  0  0  0  0  0  0  0  0  0  0
  141.0100   77.5460  219.3770 C   0  0  0  0  0  0  0  0  0  0  0  0
  140.8550   76.1490  219.8950 C   0  0  1  0  0  0  0  0  0  0  0  0
  142.0990   75.3470  219.7940 C   0  0  0  0  0  0  0  0  0  0  0  0
  142.9220   75.3520  218.6870 C   0  0  0  0  0  0  0  0  0  0  0  0
  144.0640   74.5860  218.6500 C   0  0  0  0  0  0  0  0  0  0  0  0
  144.4110   73.7880  219.7370 C   0  0  0  0  0  0  0  0  0  0  0  0
  145.8700   72.8030  219.7030 Cl  0  0  0  0  0  0  0  0  0  0  0  0
  143.5770   73.7900  220.8430 C   0  0  0  0  0  0  0  0  0  0  0  0
  142.4320   74.5590  220.8800 C   0  0  0  0  0  0  0  0  0  0  0  0
  139.9100   71.5170  223.7060 C   0  0  0  0  0  0  0  0  0  0  0  0
  139.3550   70.2520  223.6180 C   0  0  0  0  0  0  0  0  0  0  0  0
  139.3410   69.4500  224.7390 C   0  0  0  0  0  0  0  0  0  0  0  0
  139.8800   69.9220  225.9250 C   0  0  0  0  0  0  0  0  0  0  0  0
  139.8770   69.1390  227.0600 C   0  0  0  0  0  0  0  0  0  0  0  0
  140.4070   69.5900  228.2420 C   0  0  0  0  0  0  0  0  0  0  0  0
  140.9550   70.8640  228.2910 C   0  0  0  0  0  0  0  0  0  0  0  0
  140.9700   71.6800  227.1580 C   0  0  0  0  0  0  0  0  0  0  0  0
  140.4280   71.1890  225.9850 C   0  0  0  0  0  0  0  0  0  0  0  0
  140.4350   71.9590  224.8850 N   0  0  0  0  0  0  0  0  0  0  0  0
  138.1360   73.4910  223.0150 H   0  0  0  0  0  0  0  0  0  0  0  0
  139.8829   73.8026  220.5220 H   0  0  0  0  0  0  0  0  0  0  0  0
  138.0830   73.9320  220.4865 H   0  0  0  0  0  0  0  0  0  0  0  0
  140.7850   76.1720  223.2920 H   0  0  0  0  0  0  0  0  0  0  0  0
  142.0390   76.9236  222.2444 H   0  0  0  0  0  0  0  0  0  0  0  0
  139.2836   78.0669  222.9047 H   0  0  0  0  0  0  0  0  0  0  0  0
  140.8486   78.6719  223.5035 H   0  0  0  0  0  0  0  0  0  0  0  0
  139.5528   78.9901  220.8543 H   0  0  0  0  0  0  0  0  0  0  0  0
  140.8326   79.9901  221.6754 H   0  0  0  0  0  0  0  0  0  0  0  0
  142.1041   79.2521  220.0270 H   0  0  0  0  0  0  0  0  0  0  0  0
  142.1991   77.7721  221.1029 H   0  0  0  0  0  0  0  0  0  0  0  0
  140.0320   77.9310  219.0524 H   0  0  0  0  0  0  0  0  0  0  0  0
  141.6995   77.5535  218.5200 H   0  0  0  0  0  0  0  0  0  0  0  0
  140.1324   75.6212  219.2552 H   0  0  0  0  0  0  0  0  0  0  0  0
  142.6612   75.9779  217.8208 H   0  0  0  0  0  0  0  0  0  0  0  0
  144.7063   74.6040  217.7572 H   0  0  0  0  0  0  0  0  0  0  0  0
  143.8332   73.1647  221.7110 H   0  0  0  0  0  0  0  0  0  0  0  0
  141.7864   74.5451  221.7705 H   0  0  0  0  0  0  0  0  0  0  0  0
  138.9318   69.8924  222.6685 H   0  0  0  0  0  0  0  0  0  0  0  0
  138.9046   68.4414  224.6923 H   0  0  0  0  0  0  0  0  0  0  0  0
  139.4399   68.1305  227.0166 H   0  0  0  0  0  0  0  0  0  0  0  0
  140.3978   68.9514  229.1376 H   0  0  0  0  0  0  0  0  0  0  0  0
  141.3828   71.2355  229.2339 H   0  0  0  0  0  0  0  0  0  0  0  0
  141.4032   72.6903  227.1980 H   0  0  0  0  0  0  0  0  0  0  0  0
  1  2  2  0
  2  3  1  0
  3  4  1  0
  4  5  1  0
  5  6  2  0
  5  7  1  0
  7  8  1  0
  8  9  1  0
  9 10  1  0
 10 11  1  0
 11 12  1  0
 12 13  1  0
 13 14  1  0
 14 15  2  0
 15 16  1  0
 16 17  2  0
 17 18  1  0
 17 19  1  0
 19 20  2  0
  2 21  1  0
 21 22  2  0
 22 23  1  0
 23 24  2  0
 24 25  1  0
 25 26  2  0
 26 27  1  0
 27 28  2  0
 28 29  1  0
 29 30  2  0
 13  7  1  0
 20 14  1  0
 30 21  1  0
 29 24  1  0
  3 31  1  0
  4 32  1  0
  4 33  1  0
  8 34  1  0
  8 35  1  0
  9 36  1  0
  9 37  1  0
 10 38  1  0
 10 39  1  0
 11 40  1  0
 11 41  1  0
 12 42  1  0
 12 43  1  0
 13 44  1  6
 15 45  1  0
 16 46  1  0
 19 47  1  0
 20 48  1  0
 22 49  1  0
 23 50  1  0
 25 51  1  0
 26 52  1  0
 27 53  1  0
 28 54  1  0
M  END
>  <smiles>  (84) 
O=C(NCC(=O)N1CCCCCC1c1ccc(Cl)cc1)c1ccc2ccccc2n1

>  <score_type>  (84) 
oracle

>  <origin>  (84) 
autodockgpu

>  <m_score__min__energy>  (84) 
-6.8499999999999996

>  <m_primary>  (84) 
energy

>  <rmsd>  (84) 
2.554986921437335

>  <m_score__min__rmsd>  (84) 
2.554986921437335

>  <meeko>  (84) 
{"free_energy": -6.35, "intermolecular_energy": -9.63, "internal_energy": -1.92, "cluster_size": 10, "cluster_id": 3, "rank_in_cluster": 2}

>  <energy>  (84) 
-6.04

>  <cluster_rmsd>  (84) 
0.0

>  <cluster>  (84) 
7

$$$$

     RDKit          3D

 54 57  0  0  0  0  0  0  0  0999 V2000
  140.7590   71.5000  221.3550 O   0  0  0  0  0  0  0  0  0  0  0  0
  140.3060   72.0150  222.4120 C   0  0  0  0  0  0  0  0  0  0  0  0
  139.9240   73.3860  222.3350 N   0  0  0  0  0  0  0  0  0  0  0  0
  140.1010   74.0350  221.0410 C   0  0  0  0  0  0  0  0  0  0  0  0
  140.4190   75.4840  221.2180 C   0  0  0  0  0  0  0  0  0  0  0  0
  140.3210   75.9830  222.3610 O   0  0  0  0  0  0  0  0  0  0  0  0
  140.8190   76.2240  220.0710 N   0  0  0  0  0  0  0  0  0  0  0  0
  139.9160   76.2630  218.9270 C   0  0  0  0  0  0  0  0  0  0  0  0
  140.2600   75.1510  217.9680 C   0  0  0  0  0  0  0  0  0  0  0  0
  141.7610   75.1650  217.7750 C   0  0  0  0  0  0  0  0  0  0  0  0
  142.4960   74.7590  219.0060 C   0  0  0  0  0  0  0  0  0  0  0  0
  143.1640   75.8990  219.7370 C   0  0  0  0  0  0  0  0  0  0  0  0
  142.1080   76.8490  220.2140 C   0  0  1  0  0  0  0  0  0  0  0  0
  142.1710   78.1730  219.5490 C   0  0  0  0  0  0  0  0  0  0  0  0
  141.8360   79.3560  220.1720 C   0  0  0  0  0  0  0  0  0  0  0  0
  141.9130   80.5560  219.5030 C   0  0  0  0  0  0  0  0  0  0  0  0
  142.3340   80.5960  218.1770 C   0  0  0  0  0  0  0  0  0  0  0  0
  142.4380   82.1240  217.3100 Cl  0  0  0  0  0  0  0  0  0  0  0  0
  142.6680   79.4010  217.5600 C   0  0  0  0  0  0  0  0  0  0  0  0
  142.5910   78.1990  218.2320 C   0  0  0  0  0  0  0  0  0  0  0  0
  140.1660   71.2830  223.6620 C   0  0  0  0  0  0  0  0  0  0  0  0
  139.5570   70.0400  223.6210 C   0  0  0  0  0  0  0  0  0  0  0  0
  139.4130   69.3280  224.7920 C   0  0  0  0  0  0  0  0  0  0  0  0
  139.8800   69.8650  225.9810 C   0  0  0  0  0  0  0  0  0  0  0  0
  139.7470   69.1720  227.1650 C   0  0  0  0  0  0  0  0  0  0  0  0
  140.2040   69.6890  228.3520 C   0  0  0  0  0  0  0  0  0  0  0  0
  140.8110   70.9370  228.3530 C   0  0  0  0  0  0  0  0  0  0  0  0
  140.9570   71.6620  227.1680 C   0  0  0  0  0  0  0  0  0  0  0  0
  140.4850   71.1080  225.9940 C   0  0  0  0  0  0  0  0  0  0  0  0
  140.6180   71.7900  224.8440 N   0  0  0  0  0  0  0  0  0  0  0  0
  139.5360   73.9040  223.1630 H   0  0  0  0  0  0  0  0  0  0  0  0
  140.9264   73.5471  220.5019 H   0  0  0  0  0  0  0  0  0  0  0  0
  139.1661   73.9447  220.4684 H   0  0  0  0  0  0  0  0  0  0  0  0
  138.8800   76.1381  219.2749 H   0  0  0  0  0  0  0  0  0  0  0  0
  140.0201   77.2306  218.4143 H   0  0  0  0  0  0  0  0  0  0  0  0
  139.9440   74.1837  218.3857 H   0  0  0  0  0  0  0  0  0  0  0  0
  139.7444   75.2947  217.0070 H   0  0  0  0  0  0  0  0  0  0  0  0
  142.0193   74.4687  216.9636 H   0  0  0  0  0  0  0  0  0  0  0  0
  142.0582   76.1958  217.5316 H   0  0  0  0  0  0  0  0  0  0  0  0
  141.7809   74.2820  219.6923 H   0  0  0  0  0  0  0  0  0  0  0  0
  143.2984   74.0793  218.6833 H   0  0  0  0  0  0  0  0  0  0  0  0
  143.7260   75.5078  220.5979 H   0  0  0  0  0  0  0  0  0  0  0  0
  143.8595   76.4200  219.0626 H   0  0  0  0  0  0  0  0  0  0  0  0
  142.2898   77.0643  221.2773 H   0  0  0  0  0  0  0  0  0  0  0  0
  141.5020   79.3406  221.2200 H   0  0  0  0  0  0  0  0  0  0  0  0
  141.6404   81.4885  220.0189 H   0  0  0  0  0  0  0  0  0  0  0  0
  143.0017   79.4113  216.5119 H   0  0  0  0  0  0  0  0  0  0  0  0
  142.8631   77.2634  217.7214 H   0  0  0  0  0  0  0  0  0  0  0  0
  139.1938   69.6273  222.6683 H   0  0  0  0  0  0  0  0  0  0  0  0
  138.9303   68.3396  224.7830 H   0  0  0  0  0  0  0  0  0  0  0  0
  139.2644   68.1835  227.1588 H   0  0  0  0  0  0  0  0  0  0  0  0
  140.0907   69.1225  229.2881 H   0  0  0  0  0  0  0  0  0  0  0  0
  141.1816   71.3603  229.2982 H   0  0  0  0  0  0  0  0  0  0  0  0
  141.4370   72.6517  227.1697 H   0  0  0  0  0  0  0  0  0  0  0  0
  1  2  2  0
  2  3  1  0
  3  4  1  0
  4  5  1  0
  5  6  2  0
  5  7  1  0
  7  8  1  0
  8  9  1  0
  9 10  1  0
 10 11  1  0
 11 12  1  0
 12 13  1  0
 13 14  1  0
 14 15  2  0
 15 16  1  0
 16 17  2  0
 17 18  1  0
 17 19  1  0
 19 20  2  0
  2 21  1  0
 21 22  2  0
 22 23  1  0
 23 24  2  0
 24 25  1  0
 25 26  2  0
 26 27  1  0
 27 28  2  0
 28 29  1  0
 29 30  2  0
 13  7  1  0
 20 14  1  0
 30 21  1  0
 29 24  1  0
  3 31  1  0
  4 32  1  0
  4 33  1  0
  8 34  1  0
  8 35  1  0
  9 36  1  0
  9 37  1  0
 10 38  1  0
 10 39  1  0
 11 40  1  0
 11 41  1  0
 12 42  1  0
 12 43  1  0
 13 44  1  1
 15 45  1  0
 16 46  1  0
 19 47  1  0
 20 48  1  0
 22 49  1  0
 23 50  1  0
 25 51  1  0
 26 52  1  0
 27 53  1  0
 28 54  1  0
M  END
>  <smiles>  (85) 
O=C(NCC(=O)N1CCCCCC1c1ccc(Cl)cc1)c1ccc2ccccc2n1

>  <score_type>  (85) 
oracle

>  <origin>  (85) 
autodockgpu

>  <m_score__min__energy>  (85) 
-6.8499999999999996

>  <m_primary>  (85) 
energy

>  <rmsd>  (85) 
1.7479991695227552

>  <m_score__min__rmsd>  (85) 
1.7479991695227552

>  <meeko>  (85) 
{"free_energy": -5.87, "intermolecular_energy": -9.15, "internal_energy": -1.92, "cluster_size": 8, "cluster_id": 1, "rank_in_cluster": 6}

>  <energy>  (85) 
-5.69

>  <cluster_rmsd>  (85) 
0.0

>  <cluster>  (85) 
8

$$$$

     RDKit          3D

 54 57  0  0  0  0  0  0  0  0999 V2000
  133.4860   69.9280  226.5910 O   0  0  0  0  0  0  0  0  0  0  0  0
  133.8790   71.0670  226.2250 C   0  0  0  0  0  0  0  0  0  0  0  0
  135.0150   71.0980  225.3650 N   0  0  0  0  0  0  0  0  0  0  0  0
  135.5910   69.8070  225.0070 C   0  0  0  0  0  0  0  0  0  0  0  0
  136.6690   69.9770  223.9850 C   0  0  0  0  0  0  0  0  0  0  0  0
  137.1530   71.1170  223.8100 O   0  0  0  0  0  0  0  0  0  0  0  0
  137.0880   68.8270  223.2620 N   0  0  0  0  0  0  0  0  0  0  0  0
  136.1130   68.1520  222.4130 C   0  0  0  0  0  0  0  0  0  0  0  0
  135.9930   68.8810  221.0980 C   0  0  0  0  0  0  0  0  0  0  0  0
  137.3750   68.9410  220.4840 C   0  0  0  0  0  0  0  0  0  0  0  0
  138.3250   67.9700  221.0990 C   0  0  0  0  0  0  0  0  0  0  0  0
  139.2020   68.5510  222.1800 C   0  0  0  0  0  0  0  0  0  0  0  0
  138.4680   68.4820  223.4850 C   0  0  1  0  0  0  0  0  0  0  0  0
  139.0920   69.3050  224.5490 C   0  0  0  0  0  0  0  0  0  0  0  0
  139.8220   70.4480  224.3020 C   0  0  0  0  0  0  0  0  0  0  0  0
  140.3780   71.1710  225.3310 C   0  0  0  0  0  0  0  0  0  0  0  0
  140.2110   70.7580  226.6500 C   0  0  0  0  0  0  0  0  0  0  0  0
  140.9170   71.6750  227.9780 Cl  0  0  0  0  0  0  0  0  0  0  0  0
  139.4760   69.6080  226.8880 C   0  0  0  0  0  0  0  0  0  0  0  0
  138.9190   68.8840  225.8550 C   0  0  0  0  0  0  0  0  0  0  0  0
  133.2360   72.3060  226.6360 C   0  0  0  0  0  0  0  0  0  0  0  0
  131.9910   72.2210  227.2360 C   0  0  0  0  0  0  0  0  0  0  0  0
  131.3610   73.3810  227.6350 C   0  0  0  0  0  0  0  0  0  0  0  0
  131.9830   74.6020  227.4290 C   0  0  0  0  0  0  0  0  0  0  0  0
  131.3740   75.7760  227.8190 C   0  0  0  0  0  0  0  0  0  0  0  0
  131.9760   76.9940  227.6240 C   0  0  0  0  0  0  0  0  0  0  0  0
  133.2250   77.0380  227.0200 C   0  0  0  0  0  0  0  0  0  0  0  0
  133.8650   75.8650  226.6140 C   0  0  0  0  0  0  0  0  0  0  0  0
  133.2270   74.6580  226.8290 C   0  0  0  0  0  0  0  0  0  0  0  0
  133.8280   73.5200  226.4460 N   0  0  0  0  0  0  0  0  0  0  0  0
  135.4190   72.0010  225.0060 H   0  0  0  0  0  0  0  0  0  0  0  0
  136.0166   69.3390  225.9069 H   0  0  0  0  0  0  0  0  0  0  0  0
  134.7995   69.1703  224.5850 H   0  0  0  0  0  0  0  0  0  0  0  0
  136.4415   67.1184  222.2294 H   0  0  0  0  0  0  0  0  0  0  0  0
  135.1349   68.1449  222.9162 H   0  0  0  0  0  0  0  0  0  0  0  0
  135.3080   68.3392  220.4293 H   0  0  0  0  0  0  0  0  0  0  0  0
  135.5927   69.8940  221.2515 H   0  0  0  0  0  0  0  0  0  0  0  0
  137.2920   68.7187  219.4099 H   0  0  0  0  0  0  0  0  0  0  0  0
  137.7726   69.9509  220.6631 H   0  0  0  0  0  0  0  0  0  0  0  0
  137.7401   67.1474  221.5364 H   0  0  0  0  0  0  0  0  0  0  0  0
  138.9983   67.6392  220.2945 H   0  0  0  0  0  0  0  0  0  0  0  0
  140.1354   67.9731  222.2495 H   0  0  0  0  0  0  0  0  0  0  0  0
  139.4454   69.5971  221.9424 H   0  0  0  0  0  0  0  0  0  0  0  0
  138.5268   67.4506  223.8629 H   0  0  0  0  0  0  0  0  0  0  0  0
  139.9620   70.7871  223.2650 H   0  0  0  0  0  0  0  0  0  0  0  0
  140.9574   72.0798  225.1110 H   0  0  0  0  0  0  0  0  0  0  0  0
  139.3337   69.2650  227.9234 H   0  0  0  0  0  0  0  0  0  0  0  0
  138.3388   67.9743  226.0691 H   0  0  0  0  0  0  0  0  0  0  0  0
  131.5118   71.2432  227.3920 H   0  0  0  0  0  0  0  0  0  0  0  0
  130.3715   73.3373  228.1135 H   0  0  0  0  0  0  0  0  0  0  0  0
  130.3840   75.7356  228.2969 H   0  0  0  0  0  0  0  0  0  0  0  0
  131.4763   77.9211  227.9415 H   0  0  0  0  0  0  0  0  0  0  0  0
  133.7168   78.0087  226.8592 H   0  0  0  0  0  0  0  0  0  0  0  0
  134.8542   75.9009  226.1341 H   0  0  0  0  0  0  0  0  0  0  0  0
  1  2  2  0
  2  3  1  0
  3  4  1  0
  4  5  1  0
  5  6  2  0
  5  7  1  0
  7  8  1  0
  8  9  1  0
  9 10  1  0
 10 11  1  0
 11 12  1  0
 12 13  1  0
 13 14  1  0
 14 15  2  0
 15 16  1  0
 16 17  2  0
 17 18  1  0
 17 19  1  0
 19 20  2  0
  2 21  1  0
 21 22  2  0
 22 23  1  0
 23 24  2  0
 24 25  1  0
 25 26  2  0
 26 27  1  0
 27 28  2  0
 28 29  1  0
 29 30  2  0
 13  7  1  0
 20 14  1  0
 30 21  1  0
 29 24  1  0
  3 31  1  0
  4 32  1  0
  4 33  1  0
  8 34  1  0
  8 35  1  0
  9 36  1  0
  9 37  1  0
 10 38  1  0
 10 39  1  0
 11 40  1  0
 11 41  1  0
 12 42  1  0
 12 43  1  0
 13 44  1  1
 15 45  1  0
 16 46  1  0
 19 47  1  0
 20 48  1  0
 22 49  1  0
 23 50  1  0
 25 51  1  0
 26 52  1  0
 27 53  1  0
 28 54  1  0
M  END
>  <smiles>  (86) 
O=C(NCC(=O)N1CCCCCC1c1ccc(Cl)cc1)c1ccc2ccccc2n1

>  <score_type>  (86) 
oracle

>  <origin>  (86) 
autodockgpu

>  <m_score__min__energy>  (86) 
-6.8499999999999996

>  <m_primary>  (86) 
energy

>  <rmsd>  (86) 
8.699945717157023

>  <m_score__min__rmsd>  (86) 
8.699945717157023

>  <meeko>  (86) 
{"free_energy": -6.04, "intermolecular_energy": -9.32, "internal_energy": -2.08, "cluster_size": 1, "cluster_id": 7, "rank_in_cluster": 1}

>  <energy>  (86) 
-5.0

>  <cluster_rmsd>  (86) 
0.92

>  <cluster>  (86) 
8

$$$$

     RDKit          3D

 54 57  0  0  0  0  0  0  0  0999 V2000
  139.3080   74.3320  221.0740 O   0  0  0  0  0  0  0  0  0  0  0  0
  140.4720   74.7170  221.3620 C   0  0  0  0  0  0  0  0  0  0  0  0
  140.5760   75.9540  222.0610 N   0  0  0  0  0  0  0  0  0  0  0  0
  139.3210   76.6330  222.3640 C   0  0  0  0  0  0  0  0  0  0  0  0
  139.4950   78.1160  222.2920 C   0  0  0  0  0  0  0  0  0  0  0  0
  138.4840   78.8430  222.4120 O   0  0  0  0  0  0  0  0  0  0  0  0
  140.8070   78.6240  222.0900 N   0  0  0  0  0  0  0  0  0  0  0  0
  141.7250   78.6370  223.2230 C   0  0  0  0  0  0  0  0  0  0  0  0
  141.6530   79.9720  223.9200 C   0  0  0  0  0  0  0  0  0  0  0  0
  142.4340   80.9640  223.0850 C   0  0  0  0  0  0  0  0  0  0  0  0
  141.8570   81.1550  221.7240 C   0  0  0  0  0  0  0  0  0  0  0  0
  142.1790   80.0500  220.7480 C   0  0  0  0  0  0  0  0  0  0  0  0
  141.0470   79.0680  220.7410 C   0  0  1  0  0  0  0  0  0  0  0  0
  141.2580   77.9400  219.8030 C   0  0  0  0  0  0  0  0  0  0  0  0
  140.2360   77.3160  219.1180 C   0  0  0  0  0  0  0  0  0  0  0  0
  140.4930   76.2710  218.2600 C   0  0  0  0  0  0  0  0  0  0  0  0
  141.7970   75.8240  218.0670 C   0  0  0  0  0  0  0  0  0  0  0  0
  142.1390   74.4900  216.9710 Cl  0  0  0  0  0  0  0  0  0  0  0  0
  142.8160   76.4580  218.7600 C   0  0  0  0  0  0  0  0  0  0  0  0
  142.5570   77.5060  219.6200 C   0  0  0  0  0  0  0  0  0  0  0  0
  141.6710   73.9660  221.0160 C   0  0  0  0  0  0  0  0  0  0  0  0
  141.5220   72.6360  220.6630 C   0  0  0  0  0  0  0  0  0  0  0  0
  142.6420   71.9050  220.3310 C   0  0  0  0  0  0  0  0  0  0  0  0
  143.8880   72.5120  220.3570 C   0  0  0  0  0  0  0  0  0  0  0  0
  145.0230   71.8010  220.0300 C   0  0  0  0  0  0  0  0  0  0  0  0
  146.2650   72.3860  220.0500 C   0  0  0  0  0  0  0  0  0  0  0  0
  146.3730   73.7230  220.4090 C   0  0  0  0  0  0  0  0  0  0  0  0
  145.2400   74.4660  220.7460 C   0  0  0  0  0  0  0  0  0  0  0  0
  144.0070   73.8420  220.7130 C   0  0  0  0  0  0  0  0  0  0  0  0
  142.9070   74.5410  221.0330 N   0  0  0  0  0  0  0  0  0  0  0  0
  141.5040   76.3590  222.3460 H   0  0  0  0  0  0  0  0  0  0  0  0
  138.5571   76.3228  221.6359 H   0  0  0  0  0  0  0  0  0  0  0  0
  139.0077   76.3615  223.3829 H   0  0  0  0  0  0  0  0  0  0  0  0
  141.4462   77.8406  223.9287 H   0  0  0  0  0  0  0  0  0  0  0  0
  142.7507   78.4689  222.8628 H   0  0  0  0  0  0  0  0  0  0  0  0
  140.6050   80.2954  224.0048 H   0  0  0  0  0  0  0  0  0  0  0  0
  142.0740   79.9029  224.9339 H   0  0  0  0  0  0  0  0  0  0  0  0
  142.4381   81.9338  223.6041 H   0  0  0  0  0  0  0  0  0  0  0  0
  143.4508   80.5633  222.9601 H   0  0  0  0  0  0  0  0  0  0  0  0
  140.7632   81.2205  221.8205 H   0  0  0  0  0  0  0  0  0  0  0  0
  142.3083   82.0725  221.3184 H   0  0  0  0  0  0  0  0  0  0  0  0
  142.3085   80.4724  219.7406 H   0  0  0  0  0  0  0  0  0  0  0  0
  143.1097   79.5459  221.0473 H   0  0  0  0  0  0  0  0  0  0  0  0
  140.1484   79.5769  220.3620 H   0  0  0  0  0  0  0  0  0  0  0  0
  139.2004   77.6587  219.2596 H   0  0  0  0  0  0  0  0  0  0  0  0
  139.6636   75.7865  217.7240 H   0  0  0  0  0  0  0  0  0  0  0  0
  143.8532   76.1188  218.6217 H   0  0  0  0  0  0  0  0  0  0  0  0
  143.3826   77.9945  220.1583 H   0  0  0  0  0  0  0  0  0  0  0  0
  140.5257   72.1700  220.6477 H   0  0  0  0  0  0  0  0  0  0  0  0
  142.5479   70.8464  220.0471 H   0  0  0  0  0  0  0  0  0  0  0  0
  144.9316   70.7420  219.7469 H   0  0  0  0  0  0  0  0  0  0  0  0
  147.1606   71.8045  219.7857 H   0  0  0  0  0  0  0  0  0  0  0  0
  147.3629   74.2024  220.4281 H   0  0  0  0  0  0  0  0  0  0  0  0
  145.3266   75.5248  221.0315 H   0  0  0  0  0  0  0  0  0  0  0  0
  1  2  2  0
  2  3  1  0
  3  4  1  0
  4  5  1  0
  5  6  2  0
  5  7  1  0
  7  8  1  0
  8  9  1  0
  9 10  1  0
 10 11  1  0
 11 12  1  0
 12 13  1  0
 13 14  1  0
 14 15  2  0
 15 16  1  0
 16 17  2  0
 17 18  1  0
 17 19  1  0
 19 20  2  0
  2 21  1  0
 21 22  2  0
 22 23  1  0
 23 24  2  0
 24 25  1  0
 25 26  2  0
 26 27  1  0
 27 28  2  0
 28 29  1  0
 29 30  2  0
 13  7  1  0
 20 14  1  0
 30 21  1  0
 29 24  1  0
  3 31  1  0
  4 32  1  0
  4 33  1  0
  8 34  1  0
  8 35  1  0
  9 36  1  0
  9 37  1  0
 10 38  1  0
 10 39  1  0
 11 40  1  0
 11 41  1  0
 12 42  1  0
 12 43  1  0
 13 44  1  6
 15 45  1  0
 16 46  1  0
 19 47  1  0
 20 48  1  0
 22 49  1  0
 23 50  1  0
 25 51  1  0
 26 52  1  0
 27 53  1  0
 28 54  1  0
M  END
>  <smiles>  (87) 
O=C(NCC(=O)N1CCCCCC1c1ccc(Cl)cc1)c1ccc2ccccc2n1

>  <score_type>  (87) 
oracle

>  <origin>  (87) 
autodockgpu

>  <m_score__min__energy>  (87) 
-6.8499999999999996

>  <m_primary>  (87) 
energy

>  <rmsd>  (87) 
6.243934151894968

>  <m_score__min__rmsd>  (87) 
6.243934151894968

>  <meeko>  (87) 
{"free_energy": -4.53, "intermolecular_energy": -7.81, "internal_energy": -3.29, "cluster_size": 7, "cluster_id": 8, "rank_in_cluster": 6}

>  <energy>  (87) 
-4.93

>  <cluster_rmsd>  (87) 
1.06

>  <cluster>  (87) 
8

$$$$

     RDKit          3D

 54 57  0  0  0  0  0  0  0  0999 V2000
  139.5210   70.7170  221.2310 O   0  0  0  0  0  0  0  0  0  0  0  0
  139.4920   71.4740  222.2380 C   0  0  0  0  0  0  0  0  0  0  0  0
  139.1930   72.8450  221.9900 N   0  0  0  0  0  0  0  0  0  0  0  0
  138.9550   73.2140  220.6000 C   0  0  0  0  0  0  0  0  0  0  0  0
  140.0540   74.0900  220.0920 C   0  0  0  0  0  0  0  0  0  0  0  0
  139.7520   75.1140  219.4400 O   0  0  0  0  0  0  0  0  0  0  0  0
  141.3940   73.7100  220.3780 N   0  0  0  0  0  0  0  0  0  0  0  0
  141.8200   72.3610  220.0220 C   0  0  0  0  0  0  0  0  0  0  0  0
  143.1030   72.0270  220.7400 C   0  0  0  0  0  0  0  0  0  0  0  0
  144.2310   72.7130  220.0000 C   0  0  0  0  0  0  0  0  0  0  0  0
  144.4610   74.1140  220.4610 C   0  0  0  0  0  0  0  0  0  0  0  0
  143.3430   75.0740  220.1340 C   0  0  0  0  0  0  0  0  0  0  0  0
  142.1650   74.7540  221.0020 C   0  0  1  0  0  0  0  0  0  0  0  0
  141.3420   75.9430  221.3320 C   0  0  0  0  0  0  0  0  0  0  0  0
  140.3880   75.9590  222.3270 C   0  0  0  0  0  0  0  0  0  0  0  0
  139.6540   77.0930  222.5870 C   0  0  0  0  0  0  0  0  0  0  0  0
  139.8640   78.2520  221.8450 C   0  0  0  0  0  0  0  0  0  0  0  0
  138.9320   79.7110  222.1680 Cl  0  0  0  0  0  0  0  0  0  0  0  0
  140.8250   78.2250  220.8480 C   0  0  0  0  0  0  0  0  0  0  0  0
  141.5610   77.0880  220.5880 C   0  0  0  0  0  0  0  0  0  0  0  0
  139.7440   71.0100  223.5940 C   0  0  0  0  0  0  0  0  0  0  0  0
  139.3330   69.7310  223.9290 C   0  0  0  0  0  0  0  0  0  0  0  0
  139.5620   69.2700  225.2080 C   0  0  0  0  0  0  0  0  0  0  0  0
  140.1950   70.0900  226.1280 C   0  0  0  0  0  0  0  0  0  0  0  0
  140.4340   69.6520  227.4130 C   0  0  0  0  0  0  0  0  0  0  0  0
  141.0610   70.4510  228.3370 C   0  0  0  0  0  0  0  0  0  0  0  0
  141.4590   71.7270  227.9630 C   0  0  0  0  0  0  0  0  0  0  0  0
  141.2290   72.1970  226.6690 C   0  0  0  0  0  0  0  0  0  0  0  0
  140.5960   71.3630  225.7670 C   0  0  0  0  0  0  0  0  0  0  0  0
  140.3670   71.7980  224.5170 N   0  0  0  0  0  0  0  0  0  0  0  0
  139.1460   73.5550  222.7650 H   0  0  0  0  0  0  0  0  0  0  0  0
  138.9073   72.3018  219.9871 H   0  0  0  0  0  0  0  0  0  0  0  0
  138.0050   73.7651  220.5374 H   0  0  0  0  0  0  0  0  0  0  0  0
  141.0400   71.6423  220.3137 H   0  0  0  0  0  0  0  0  0  0  0  0
  141.9855   72.3060  218.9359 H   0  0  0  0  0  0  0  0  0  0  0  0
  143.0585   72.3907  221.7772 H   0  0  0  0  0  0  0  0  0  0  0  0
  143.2612   70.9387  220.7641 H   0  0  0  0  0  0  0  0  0  0  0  0
  145.1547   72.1363  220.1555 H   0  0  0  0  0  0  0  0  0  0  0  0
  143.9499   72.7571  218.9374 H   0  0  0  0  0  0  0  0  0  0  0  0
  144.5920   74.0988  221.5531 H   0  0  0  0  0  0  0  0  0  0  0  0
  145.3505   74.4768  219.9251 H   0  0  0  0  0  0  0  0  0  0  0  0
  143.6736   76.1057  220.3245 H   0  0  0  0  0  0  0  0  0  0  0  0
  143.0645   74.9775  219.0742 H   0  0  0  0  0  0  0  0  0  0  0  0
  142.5383   74.3972  221.9733 H   0  0  0  0  0  0  0  0  0  0  0  0
  140.2110   75.0510  222.9222 H   0  0  0  0  0  0  0  0  0  0  0  0
  138.8973   77.0839  223.3853 H   0  0  0  0  0  0  0  0  0  0  0  0
  141.0052   79.1306  220.2502 H   0  0  0  0  0  0  0  0  0  0  0  0
  142.3197   77.0919  219.7915 H   0  0  0  0  0  0  0  0  0  0  0  0
  138.8317   69.0928  223.1865 H   0  0  0  0  0  0  0  0  0  0  0  0
  139.2440   68.2572  225.4963 H   0  0  0  0  0  0  0  0  0  0  0  0
  140.1155   68.6403  227.7045 H   0  0  0  0  0  0  0  0  0  0  0  0
  141.2451   70.0854  229.3580 H   0  0  0  0  0  0  0  0  0  0  0  0
  141.9618   72.3758  228.6953 H   0  0  0  0  0  0  0  0  0  0  0  0
  141.5445   73.2086  226.3738 H   0  0  0  0  0  0  0  0  0  0  0  0
  1  2  2  0
  2  3  1  0
  3  4  1  0
  4  5  1  0
  5  6  2  0
  5  7  1  0
  7  8  1  0
  8  9  1  0
  9 10  1  0
 10 11  1  0
 11 12  1  0
 12 13  1  0
 13 14  1  0
 14 15  2  0
 15 16  1  0
 16 17  2  0
 17 18  1  0
 17 19  1  0
 19 20  2  0
  2 21  1  0
 21 22  2  0
 22 23  1  0
 23 24  2  0
 24 25  1  0
 25 26  2  0
 26 27  1  0
 27 28  2  0
 28 29  1  0
 29 30  2  0
 13  7  1  0
 20 14  1  0
 30 21  1  0
 29 24  1  0
  3 31  1  0
  4 32  1  0
  4 33  1  0
  8 34  1  0
  8 35  1  0
  9 36  1  0
  9 37  1  0
 10 38  1  0
 10 39  1  0
 11 40  1  0
 11 41  1  0
 12 42  1  0
 12 43  1  0
 13 44  1  1
 15 45  1  0
 16 46  1  0
 19 47  1  0
 20 48  1  0
 22 49  1  0
 23 50  1  0
 25 51  1  0
 26 52  1  0
 27 53  1  0
 28 54  1  0
M  END
>  <smiles>  (88) 
O=C(NCC(=O)N1CCCCCC1c1ccc(Cl)cc1)c1ccc2ccccc2n1

>  <score_type>  (88) 
oracle

>  <origin>  (88) 
autodockgpu

>  <m_score__min__energy>  (88) 
-6.8499999999999996

>  <m_primary>  (88) 
energy

>  <rmsd>  (88) 
2.6142818718171816

>  <m_score__min__rmsd>  (88) 
2.6142818718171816

>  <meeko>  (88) 
{"free_energy": -5.45, "intermolecular_energy": -8.73, "internal_energy": -1.77, "cluster_size": 6, "cluster_id": 5, "rank_in_cluster": 4}

>  <energy>  (88) 
-4.84

>  <cluster_rmsd>  (88) 
1.21

>  <cluster>  (88) 
8

$$$$

     RDKit          3D

 54 57  0  0  0  0  0  0  0  0999 V2000
  140.4730   77.6470  218.7510 O   0  0  0  0  0  0  0  0  0  0  0  0
  141.4440   77.4160  219.5190 C   0  0  0  0  0  0  0  0  0  0  0  0
  142.1040   78.5540  220.0660 N   0  0  0  0  0  0  0  0  0  0  0  0
  141.5780   79.8570  219.6740 C   0  0  0  0  0  0  0  0  0  0  0  0
  140.2950   80.1420  220.3860 C   0  0  0  0  0  0  0  0  0  0  0  0
  139.2680   80.3560  219.7040 O   0  0  0  0  0  0  0  0  0  0  0  0
  140.3110   80.1580  221.8070 N   0  0  0  0  0  0  0  0  0  0  0  0
  140.2010   81.4440  222.4850 C   0  0  0  0  0  0  0  0  0  0  0  0
  141.5180   81.7930  223.1310 C   0  0  0  0  0  0  0  0  0  0  0  0
  142.5480   80.8040  222.6280 C   0  0  0  0  0  0  0  0  0  0  0  0
  142.5520   79.5370  223.4110 C   0  0  0  0  0  0  0  0  0  0  0  0
  141.1830   78.9660  223.6880 C   0  0  0  0  0  0  0  0  0  0  0  0
  140.4400   78.8480  222.3920 C   0  0  1  0  0  0  0  0  0  0  0  0
  139.1340   78.1590  222.5280 C   0  0  0  0  0  0  0  0  0  0  0  0
  138.9620   76.8040  222.3350 C   0  0  0  0  0  0  0  0  0  0  0  0
  137.7250   76.2200  222.4740 C   0  0  0  0  0  0  0  0  0  0  0  0
  136.6170   76.9910  222.8170 C   0  0  0  0  0  0  0  0  0  0  0  0
  135.0280   76.2560  223.0000 Cl  0  0  0  0  0  0  0  0  0  0  0  0
  136.8010   78.3510  223.0090 C   0  0  0  0  0  0  0  0  0  0  0  0
  138.0430   78.9360  222.8690 C   0  0  0  0  0  0  0  0  0  0  0  0
  141.8970   76.0730  219.8540 C   0  0  0  0  0  0  0  0  0  0  0  0
  140.9380   75.1220  220.1590 C   0  0  0  0  0  0  0  0  0  0  0  0
  141.3430   73.8440  220.4780 C   0  0  0  0  0  0  0  0  0  0  0  0
  142.6940   73.5370  220.4870 C   0  0  0  0  0  0  0  0  0  0  0  0
  143.1240   72.2660  220.8030 C   0  0  0  0  0  0  0  0  0  0  0  0
  144.4590   71.9440  220.8160 C   0  0  0  0  0  0  0  0  0  0  0  0
  145.3900   72.9240  220.5040 C   0  0  0  0  0  0  0  0  0  0  0  0
  144.9830   74.2200  220.1810 C   0  0  0  0  0  0  0  0  0  0  0  0
  143.6310   74.5050  220.1770 C   0  0  0  0  0  0  0  0  0  0  0  0
  143.2210   75.7460  219.8680 N   0  0  0  0  0  0  0  0  0  0  0  0
  142.9250   78.4640  220.7170 H   0  0  0  0  0  0  0  0  0  0  0  0
  142.3130   80.6349  219.9281 H   0  0  0  0  0  0  0  0  0  0  0  0
  141.3888   79.8518  218.5904 H   0  0  0  0  0  0  0  0  0  0  0  0
  139.9353   82.2213  221.7535 H   0  0  0  0  0  0  0  0  0  0  0  0
  139.4213   81.3822  223.2584 H   0  0  0  0  0  0  0  0  0  0  0  0
  141.8128   82.8159  222.8539 H   0  0  0  0  0  0  0  0  0  0  0  0
  141.4369   81.7441  224.2269 H   0  0  0  0  0  0  0  0  0  0  0  0
  142.3267   80.5683  221.5766 H   0  0  0  0  0  0  0  0  0  0  0  0
  143.5391   81.2683  222.7384 H   0  0  0  0  0  0  0  0  0  0  0  0
  143.1289   78.7880  222.8488 H   0  0  0  0  0  0  0  0  0  0  0  0
  142.9940   79.7763  224.3894 H   0  0  0  0  0  0  0  0  0  0  0  0
  141.2828   77.9723  224.1492 H   0  0  0  0  0  0  0  0  0  0  0  0
  140.6340   79.6259  224.3758 H   0  0  0  0  0  0  0  0  0  0  0  0
  141.0227   78.2050  221.7160 H   0  0  0  0  0  0  0  0  0  0  0  0
  139.8278   76.1811  222.0658 H   0  0  0  0  0  0  0  0  0  0  0  0
  137.6099   75.1379  222.3134 H   0  0  0  0  0  0  0  0  0  0  0  0
  135.9383   78.9779  223.2789 H   0  0  0  0  0  0  0  0  0  0  0  0
  138.1644   80.0176  223.0283 H   0  0  0  0  0  0  0  0  0  0  0  0
  139.8694   75.3826  220.1469 H   0  0  0  0  0  0  0  0  0  0  0  0
  140.5984   73.0726  220.7239 H   0  0  0  0  0  0  0  0  0  0  0  0
  142.3816   71.4928  221.0501 H   0  0  0  0  0  0  0  0  0  0  0  0
  144.7851   70.9246  221.0699 H   0  0  0  0  0  0  0  0  0  0  0  0
  146.4619   72.6771  220.5112 H   0  0  0  0  0  0  0  0  0  0  0  0
  145.7221   74.9967  219.9352 H   0  0  0  0  0  0  0  0  0  0  0  0
  1  2  2  0
  2  3  1  0
  3  4  1  0
  4  5  1  0
  5  6  2  0
  5  7  1  0
  7  8  1  0
  8  9  1  0
  9 10  1  0
 10 11  1  0
 11 12  1  0
 12 13  1  0
 13 14  1  0
 14 15  2  0
 15 16  1  0
 16 17  2  0
 17 18  1  0
 17 19  1  0
 19 20  2  0
  2 21  1  0
 21 22  2  0
 22 23  1  0
 23 24  2  0
 24 25  1  0
 25 26  2  0
 26 27  1  0
 27 28  2  0
 28 29  1  0
 29 30  2  0
 13  7  1  0
 20 14  1  0
 30 21  1  0
 29 24  1  0
  3 31  1  0
  4 32  1  0
  4 33  1  0
  8 34  1  0
  8 35  1  0
  9 36  1  0
  9 37  1  0
 10 38  1  0
 10 39  1  0
 11 40  1  0
 11 41  1  0
 12 42  1  0
 12 43  1  0
 13 44  1  6
 15 45  1  0
 16 46  1  0
 19 47  1  0
 20 48  1  0
 22 49  1  0
 23 50  1  0
 25 51  1  0
 26 52  1  0
 27 53  1  0
 28 54  1  0
M  END
>  <smiles>  (89) 
O=C(NCC(=O)N1CCCCCC1c1ccc(Cl)cc1)c1ccc2ccccc2n1

>  <score_type>  (89) 
oracle

>  <origin>  (89) 
autodockgpu

>  <m_score__min__energy>  (89) 
-6.8499999999999996

>  <m_primary>  (89) 
energy

>  <rmsd>  (89) 
7.234026766512718

>  <m_score__min__rmsd>  (89) 
7.234026766512718

>  <meeko>  (89) 
{"free_energy": -4.26, "intermolecular_energy": -7.54, "internal_energy": -2.38, "cluster_size": 4, "cluster_id": 11, "rank_in_cluster": 3}

>  <energy>  (89) 
-4.65

>  <cluster_rmsd>  (89) 
0.44

>  <cluster>  (89) 
8

$$$$

     RDKit          3D

 54 57  0  0  0  0  0  0  0  0999 V2000
  139.4930   74.3150  221.9540 O   0  0  0  0  0  0  0  0  0  0  0  0
  140.6580   74.7490  221.7520 C   0  0  0  0  0  0  0  0  0  0  0  0
  140.8800   76.1260  222.0410 N   0  0  0  0  0  0  0  0  0  0  0  0
  139.7320   76.8760  222.5380 C   0  0  0  0  0  0  0  0  0  0  0  0
  139.8080   78.3040  222.1030 C   0  0  0  0  0  0  0  0  0  0  0  0
  138.7450   78.9530  221.9900 O   0  0  0  0  0  0  0  0  0  0  0  0
  141.0940   78.8520  221.8390 N   0  0  0  0  0  0  0  0  0  0  0  0
  142.1050   78.7760  222.8860 C   0  0  0  0  0  0  0  0  0  0  0  0
  141.9340   79.9280  223.8440 C   0  0  0  0  0  0  0  0  0  0  0  0
  142.2590   81.1990  223.0890 C   0  0  0  0  0  0  0  0  0  0  0  0
  141.3570   81.4250  221.9210 C   0  0  0  0  0  0  0  0  0  0  0  0
  141.8310   80.7840  220.6390 C   0  0  0  0  0  0  0  0  0  0  0  0
  141.2120   79.4250  220.5230 C   0  0  1  0  0  0  0  0  0  0  0  0
  141.9320   78.5340  219.5820 C   0  0  0  0  0  0  0  0  0  0  0  0
  142.5550   77.3640  219.9630 C   0  0  0  0  0  0  0  0  0  0  0  0
  143.2090   76.5780  219.0430 C   0  0  0  0  0  0  0  0  0  0  0  0
  143.2540   76.9510  217.7030 C   0  0  0  0  0  0  0  0  0  0  0  0
  144.0870   75.9540  216.5160 Cl  0  0  0  0  0  0  0  0  0  0  0  0
  142.6250   78.1290  217.3310 C   0  0  0  0  0  0  0  0  0  0  0  0
  141.9690   78.9170  218.2530 C   0  0  0  0  0  0  0  0  0  0  0  0
  141.7440   73.9190  221.2520 C   0  0  0  0  0  0  0  0  0  0  0  0
  141.4430   72.6270  220.8560 C   0  0  0  0  0  0  0  0  0  0  0  0
  142.4550   71.8220  220.3790 C   0  0  0  0  0  0  0  0  0  0  0  0
  143.7470   72.3190  220.3040 C   0  0  0  0  0  0  0  0  0  0  0  0
  144.7760   71.5330  219.8310 C   0  0  0  0  0  0  0  0  0  0  0  0
  146.0610   72.0090  219.7500 C   0  0  0  0  0  0  0  0  0  0  0  0
  146.3240   73.3100  220.1560 C   0  0  0  0  0  0  0  0  0  0  0  0
  145.3000   74.1280  220.6410 C   0  0  0  0  0  0  0  0  0  0  0  0
  144.0200   73.6130  220.7060 C   0  0  0  0  0  0  0  0  0  0  0  0
  143.0230   74.3850  221.1690 N   0  0  0  0  0  0  0  0  0  0  0  0
  141.8180   76.5810  221.9040 H   0  0  0  0  0  0  0  0  0  0  0  0
  138.8085   76.4267  222.1438 H   0  0  0  0  0  0  0  0  0  0  0  0
  139.7337   76.8397  223.6374 H   0  0  0  0  0  0  0  0  0  0  0  0
  141.9951   77.8274  223.4319 H   0  0  0  0  0  0  0  0  0  0  0  0
  143.1049   78.8271  222.4305 H   0  0  0  0  0  0  0  0  0  0  0  0
  140.8968   79.9625  224.2087 H   0  0  0  0  0  0  0  0  0  0  0  0
  142.5993   79.8121  224.7123 H   0  0  0  0  0  0  0  0  0  0  0  0
  142.1624   82.0513  223.7777 H   0  0  0  0  0  0  0  0  0  0  0  0
  143.2839   81.1012  222.7018 H   0  0  0  0  0  0  0  0  0  0  0  0
  140.3662   81.0146  222.1660 H   0  0  0  0  0  0  0  0  0  0  0  0
  141.3370   82.5103  221.7428 H   0  0  0  0  0  0  0  0  0  0  0  0
  141.5278   81.4030  219.7817 H   0  0  0  0  0  0  0  0  0  0  0  0
  142.9275   80.6965  220.6473 H   0  0  0  0  0  0  0  0  0  0  0  0
  140.2091   79.5374  220.0854 H   0  0  0  0  0  0  0  0  0  0  0  0
  142.5284   77.0548  221.0183 H   0  0  0  0  0  0  0  0  0  0  0  0
  143.6995   75.6488  219.3684 H   0  0  0  0  0  0  0  0  0  0  0  0
  142.6498   78.4421  216.2768 H   0  0  0  0  0  0  0  0  0  0  0  0
  141.4767   79.8471  217.9329 H   0  0  0  0  0  0  0  0  0  0  0  0
  140.4121   72.2488  220.9210 H   0  0  0  0  0  0  0  0  0  0  0  0
  142.2389   70.7917  220.0598 H   0  0  0  0  0  0  0  0  0  0  0  0
  144.5628   70.5022  219.5116 H   0  0  0  0  0  0  0  0  0  0  0  0
  146.8703   71.3689  219.3690 H   0  0  0  0  0  0  0  0  0  0  0  0
  147.3501   73.7016  220.0953 H   0  0  0  0  0  0  0  0  0  0  0  0
  145.5086   75.1587  220.9637 H   0  0  0  0  0  0  0  0  0  0  0  0
  1  2  2  0
  2  3  1  0
  3  4  1  0
  4  5  1  0
  5  6  2  0
  5  7  1  0
  7  8  1  0
  8  9  1  0
  9 10  1  0
 10 11  1  0
 11 12  1  0
 12 13  1  0
 13 14  1  0
 14 15  2  0
 15 16  1  0
 16 17  2  0
 17 18  1  0
 17 19  1  0
 19 20  2  0
  2 21  1  0
 21 22  2  0
 22 23  1  0
 23 24  2  0
 24 25  1  0
 25 26  2  0
 26 27  1  0
 27 28  2  0
 28 29  1  0
 29 30  2  0
 13  7  1  0
 20 14  1  0
 30 21  1  0
 29 24  1  0
  3 31  1  0
  4 32  1  0
  4 33  1  0
  8 34  1  0
  8 35  1  0
  9 36  1  0
  9 37  1  0
 10 38  1  0
 10 39  1  0
 11 40  1  0
 11 41  1  0
 12 42  1  0
 12 43  1  0
 13 44  1  6
 15 45  1  0
 16 46  1  0
 19 47  1  0
 20 48  1  0
 22 49  1  0
 23 50  1  0
 25 51  1  0
 26 52  1  0
 27 53  1  0
 28 54  1  0
M  END
>  <smiles>  (90) 
O=C(NCC(=O)N1CCCCCC1c1ccc(Cl)cc1)c1ccc2ccccc2n1

>  <score_type>  (90) 
oracle

>  <origin>  (90) 
autodockgpu

>  <m_score__min__energy>  (90) 
-6.8499999999999996

>  <m_primary>  (90) 
energy

>  <rmsd>  (90) 
6.29958399894018

>  <m_score__min__rmsd>  (90) 
6.29958399894018

>  <meeko>  (90) 
{"free_energy": -5.69, "intermolecular_energy": -8.97, "internal_energy": -2.6, "cluster_size": 7, "cluster_id": 8, "rank_in_cluster": 1}

>  <energy>  (90) 
-4.53

>  <cluster_rmsd>  (90) 
0.94

>  <cluster>  (90) 
8

$$$$

     RDKit          3D

 54 57  0  0  0  0  0  0  0  0999 V2000
  140.6370   73.3370  222.7200 O   0  0  0  0  0  0  0  0  0  0  0  0
  139.7740   72.4190  222.7410 C   0  0  0  0  0  0  0  0  0  0  0  0
  138.7590   72.4810  221.7440 N   0  0  0  0  0  0  0  0  0  0  0  0
  138.8340   73.6010  220.8120 C   0  0  0  0  0  0  0  0  0  0  0  0
  139.9330   73.3870  219.8220 C   0  0  0  0  0  0  0  0  0  0  0  0
  140.0460   72.2630  219.2860 O   0  0  0  0  0  0  0  0  0  0  0  0
  140.7980   74.4810  219.5410 N   0  0  0  0  0  0  0  0  0  0  0  0
  140.7210   75.1020  218.2240 C   0  0  0  0  0  0  0  0  0  0  0  0
  141.4710   74.2640  217.2200 C   0  0  0  0  0  0  0  0  0  0  0  0
  142.8230   73.9400  217.8190 C   0  0  0  0  0  0  0  0  0  0  0  0
  143.2740   74.9600  218.8130 C   0  0  0  0  0  0  0  0  0  0  0  0
  143.0790   74.5530  220.2530 C   0  0  0  0  0  0  0  0  0  0  0  0
  141.6590   74.8270  220.6420 C   0  0  1  0  0  0  0  0  0  0  0  0
  141.4400   76.2150  221.1160 C   0  0  0  0  0  0  0  0  0  0  0  0
  141.9310   77.3290  220.4680 C   0  0  0  0  0  0  0  0  0  0  0  0
  141.6960   78.5930  220.9570 C   0  0  0  0  0  0  0  0  0  0  0  0
  140.9530   78.7710  222.1200 C   0  0  0  0  0  0  0  0  0  0  0  0
  140.6450   80.3840  222.7550 Cl  0  0  0  0  0  0  0  0  0  0  0  0
  140.4650   77.6450  222.7640 C   0  0  0  0  0  0  0  0  0  0  0  0
  140.7010   76.3770  222.2730 C   0  0  0  0  0  0  0  0  0  0  0  0
  139.7820   71.3370  223.7150 C   0  0  0  0  0  0  0  0  0  0  0  0
  139.2080   70.1320  223.3500 C   0  0  0  0  0  0  0  0  0  0  0  0
  139.2030   69.0920  224.2550 C   0  0  0  0  0  0  0  0  0  0  0  0
  139.7700   69.2740  225.5070 C   0  0  0  0  0  0  0  0  0  0  0  0
  139.7770   68.2500  226.4300 C   0  0  0  0  0  0  0  0  0  0  0  0
  140.3350   68.4110  227.6740 C   0  0  0  0  0  0  0  0  0  0  0  0
  140.9020   69.6350  228.0040 C   0  0  0  0  0  0  0  0  0  0  0  0
  140.9070   70.6890  227.0880 C   0  0  0  0  0  0  0  0  0  0  0  0
  140.3370   70.4880  225.8460 C   0  0  0  0  0  0  0  0  0  0  0  0
  140.3350   71.4910  224.9530 N   0  0  0  0  0  0  0  0  0  0  0  0
  137.9940   71.7610  221.6800 H   0  0  0  0  0  0  0  0  0  0  0  0
  137.8773   73.6908  220.2766 H   0  0  0  0  0  0  0  0  0  0  0  0
  139.0402   74.5212  221.3783 H   0  0  0  0  0  0  0  0  0  0  0  0
  139.6672   75.1816  217.9188 H   0  0  0  0  0  0  0  0  0  0  0  0
  141.1706   76.1049  218.2683 H   0  0  0  0  0  0  0  0  0  0  0  0
  140.9174   73.3353  217.0174 H   0  0  0  0  0  0  0  0  0  0  0  0
  141.5874   74.8075  216.2708 H   0  0  0  0  0  0  0  0  0  0  0  0
  142.7602   72.9633  218.3212 H   0  0  0  0  0  0  0  0  0  0  0  0
  143.5555   73.9300  216.9984 H   0  0  0  0  0  0  0  0  0  0  0  0
  144.3454   75.1490  218.6506 H   0  0  0  0  0  0  0  0  0  0  0  0
  142.6528   75.8533  218.6514 H   0  0  0  0  0  0  0  0  0  0  0  0
  143.2933   73.4801  220.3666 H   0  0  0  0  0  0  0  0  0  0  0  0
  143.7613   75.1245  220.8994 H   0  0  0  0  0  0  0  0  0  0  0  0
  141.4100   74.1967  221.5084 H   0  0  0  0  0  0  0  0  0  0  0  0
  142.5191   77.2049  219.5467 H   0  0  0  0  0  0  0  0  0  0  0  0
  142.0978   79.4683  220.4256 H   0  0  0  0  0  0  0  0  0  0  0  0
  139.8771   77.7645  223.6860 H   0  0  0  0  0  0  0  0  0  0  0  0
  140.3023   75.4980  222.8006 H   0  0  0  0  0  0  0  0  0  0  0  0
  138.7622   70.0057  222.3524 H   0  0  0  0  0  0  0  0  0  0  0  0
  138.7526   68.1252  223.9858 H   0  0  0  0  0  0  0  0  0  0  0  0
  139.3256   67.2828  226.1639 H   0  0  0  0  0  0  0  0  0  0  0  0
  140.3330   67.5831  228.3983 H   0  0  0  0  0  0  0  0  0  0  0  0
  141.3521   69.7758  228.9978 H   0  0  0  0  0  0  0  0  0  0  0  0
  141.3553   71.6587  227.3500 H   0  0  0  0  0  0  0  0  0  0  0  0
  1  2  2  0
  2  3  1  0
  3  4  1  0
  4  5  1  0
  5  6  2  0
  5  7  1  0
  7  8  1  0
  8  9  1  0
  9 10  1  0
 10 11  1  0
 11 12  1  0
 12 13  1  0
 13 14  1  0
 14 15  2  0
 15 16  1  0
 16 17  2  0
 17 18  1  0
 17 19  1  0
 19 20  2  0
  2 21  1  0
 21 22  2  0
 22 23  1  0
 23 24  2  0
 24 25  1  0
 25 26  2  0
 26 27  1  0
 27 28  2  0
 28 29  1  0
 29 30  2  0
 13  7  1  0
 20 14  1  0
 30 21  1  0
 29 24  1  0
  3 31  1  0
  4 32  1  0
  4 33  1  0
  8 34  1  0
  8 35  1  0
  9 36  1  0
  9 37  1  0
 10 38  1  0
 10 39  1  0
 11 40  1  0
 11 41  1  0
 12 42  1  0
 12 43  1  0
 13 44  1  1
 15 45  1  0
 16 46  1  0
 19 47  1  0
 20 48  1  0
 22 49  1  0
 23 50  1  0
 25 51  1  0
 26 52  1  0
 27 53  1  0
 28 54  1  0
M  END
>  <smiles>  (91) 
O=C(NCC(=O)N1CCCCCC1c1ccc(Cl)cc1)c1ccc2ccccc2n1

>  <score_type>  (91) 
oracle

>  <origin>  (91) 
autodockgpu

>  <m_score__min__energy>  (91) 
-6.8499999999999996

>  <m_primary>  (91) 
energy

>  <rmsd>  (91) 
2.088277114782996

>  <m_score__min__rmsd>  (91) 
2.088277114782996

>  <meeko>  (91) 
{"free_energy": -5.77, "intermolecular_energy": -9.05, "internal_energy": -1.81, "cluster_size": 8, "cluster_id": 1, "rank_in_cluster": 7}

>  <energy>  (91) 
-4.41

>  <cluster_rmsd>  (91) 
1.03

>  <cluster>  (91) 
8

$$$$

     RDKit          3D

 54 57  0  0  0  0  0  0  0  0999 V2000
  140.6450   72.0600  221.6250 O   0  0  0  0  0  0  0  0  0  0  0  0
  139.7860   72.1730  222.5400 C   0  0  0  0  0  0  0  0  0  0  0  0
  138.7340   73.1060  222.3090 N   0  0  0  0  0  0  0  0  0  0  0  0
  138.7730   73.8240  221.0400 C   0  0  0  0  0  0  0  0  0  0  0  0
  139.0070   75.2820  221.2680 C   0  0  0  0  0  0  0  0  0  0  0  0
  138.3150   75.8730  222.1260 O   0  0  0  0  0  0  0  0  0  0  0  0
  140.0100   75.9240  220.4910 N   0  0  0  0  0  0  0  0  0  0  0  0
  139.6760   76.3270  219.1290 C   0  0  0  0  0  0  0  0  0  0  0  0
  140.4030   75.4460  218.1450 C   0  0  0  0  0  0  0  0  0  0  0  0
  141.7450   76.0880  217.8650 C   0  0  0  0  0  0  0  0  0  0  0  0
  142.3870   76.6400  219.0930 C   0  0  0  0  0  0  0  0  0  0  0  0
  142.3810   75.7030  220.2750 C   0  0  0  0  0  0  0  0  0  0  0  0
  141.2580   76.0880  221.1900 C   0  0  1  0  0  0  0  0  0  0  0  0
  141.4110   77.4470  221.7620 C   0  0  0  0  0  0  0  0  0  0  0  0
  141.5570   78.5850  220.9970 C   0  0  0  0  0  0  0  0  0  0  0  0
  141.6970   79.8210  221.5850 C   0  0  0  0  0  0  0  0  0  0  0  0
  141.6920   79.9450  222.9720 C   0  0  0  0  0  0  0  0  0  0  0  0
  141.8690   81.5200  223.7370 Cl  0  0  0  0  0  0  0  0  0  0  0  0
  141.5450   78.7950  223.7310 C   0  0  0  0  0  0  0  0  0  0  0  0
  141.4050   77.5560  223.1400 C   0  0  0  0  0  0  0  0  0  0  0  0
  139.8320   71.4080  223.7780 C   0  0  0  0  0  0  0  0  0  0  0  0
  139.2680   70.1440  223.7810 C   0  0  0  0  0  0  0  0  0  0  0  0
  139.3000   69.4010  224.9410 C   0  0  0  0  0  0  0  0  0  0  0  0
  139.8920   69.9310  226.0760 C   0  0  0  0  0  0  0  0  0  0  0  0
  139.9360   69.2080  227.2500 C   0  0  0  0  0  0  0  0  0  0  0  0
  140.5200   69.7170  228.3830 C   0  0  0  0  0  0  0  0  0  0  0  0
  141.0750   70.9890  228.3410 C   0  0  0  0  0  0  0  0  0  0  0  0
  141.0440   71.7440  227.1660 C   0  0  0  0  0  0  0  0  0  0  0  0
  140.4490   71.1960  226.0460 C   0  0  0  0  0  0  0  0  0  0  0  0
  140.4110   71.9080  224.9080 N   0  0  0  0  0  0  0  0  0  0  0  0
  137.9700   73.2710  223.0130 H   0  0  0  0  0  0  0  0  0  0  0  0
  139.5872   73.4196  220.4207 H   0  0  0  0  0  0  0  0  0  0  0  0
  137.8070   73.6953  220.5297 H   0  0  0  0  0  0  0  0  0  0  0  0
  138.5912   76.2298  218.9746 H   0  0  0  0  0  0  0  0  0  0  0  0
  139.9792   77.3730  218.9742 H   0  0  0  0  0  0  0  0  0  0  0  0
  140.5484   74.4437  218.5743 H   0  0  0  0  0  0  0  0  0  0  0  0
  139.8225   75.3407  217.2166 H   0  0  0  0  0  0  0  0  0  0  0  0
  142.4131   75.3308  217.4288 H   0  0  0  0  0  0  0  0  0  0  0  0
  141.5742   76.9267  217.1740 H   0  0  0  0  0  0  0  0  0  0  0  0
  143.4323   76.8854  218.8539 H   0  0  0  0  0  0  0  0  0  0  0  0
  141.7961   77.5199  219.3873 H   0  0  0  0  0  0  0  0  0  0  0  0
  142.2367   74.6695  219.9269 H   0  0  0  0  0  0  0  0  0  0  0  0
  143.3395   75.7702  220.8104 H   0  0  0  0  0  0  0  0  0  0  0  0
  141.2756   75.4176  222.0619 H   0  0  0  0  0  0  0  0  0  0  0  0
  141.5616   78.5034  219.9000 H   0  0  0  0  0  0  0  0  0  0  0  0
  141.8135   80.7160  220.9562 H   0  0  0  0  0  0  0  0  0  0  0  0
  141.5398   78.8715  224.8283 H   0  0  0  0  0  0  0  0  0  0  0  0
  141.2889   76.6574  223.7638 H   0  0  0  0  0  0  0  0  0  0  0  0
  138.8013   69.7387  222.8711 H   0  0  0  0  0  0  0  0  0  0  0  0
  138.8585   68.3938  224.9657 H   0  0  0  0  0  0  0  0  0  0  0  0
  139.4933   68.2014  227.2788 H   0  0  0  0  0  0  0  0  0  0  0  0
  140.5479   69.1261  229.3104 H   0  0  0  0  0  0  0  0  0  0  0  0
  141.5446   71.4072  229.2435 H   0  0  0  0  0  0  0  0  0  0  0  0
  141.4834   72.7519  227.1333 H   0  0  0  0  0  0  0  0  0  0  0  0
  1  2  2  0
  2  3  1  0
  3  4  1  0
  4  5  1  0
  5  6  2  0
  5  7  1  0
  7  8  1  0
  8  9  1  0
  9 10  1  0
 10 11  1  0
 11 12  1  0
 12 13  1  0
 13 14  1  0
 14 15  2  0
 15 16  1  0
 16 17  2  0
 17 18  1  0
 17 19  1  0
 19 20  2  0
  2 21  1  0
 21 22  2  0
 22 23  1  0
 23 24  2  0
 24 25  1  0
 25 26  2  0
 26 27  1  0
 27 28  2  0
 28 29  1  0
 29 30  2  0
 13  7  1  0
 20 14  1  0
 30 21  1  0
 29 24  1  0
  3 31  1  0
  4 32  1  0
  4 33  1  0
  8 34  1  0
  8 35  1  0
  9 36  1  0
  9 37  1  0
 10 38  1  0
 10 39  1  0
 11 40  1  0
 11 41  1  0
 12 42  1  0
 12 43  1  0
 13 44  1  1
 15 45  1  0
 16 46  1  0
 19 47  1  0
 20 48  1  0
 22 49  1  0
 23 50  1  0
 25 51  1  0
 26 52  1  0
 27 53  1  0
 28 54  1  0
M  END
>  <smiles>  (92) 
O=C(NCC(=O)N1CCCCCC1c1ccc(Cl)cc1)c1ccc2ccccc2n1

>  <score_type>  (92) 
oracle

>  <origin>  (92) 
autodockgpu

>  <m_score__min__energy>  (92) 
-6.8499999999999996

>  <m_primary>  (92) 
energy

>  <rmsd>  (92) 
1.6666251372692904

>  <m_score__min__rmsd>  (92) 
1.6666251372692904

>  <meeko>  (92) 
{"free_energy": -6.85, "intermolecular_energy": -10.13, "internal_energy": -1.52, "cluster_size": 8, "cluster_id": 1, "rank_in_cluster": 1}

>  <energy>  (92) 
-5.61

>  <cluster_rmsd>  (92) 
0.0

>  <cluster>  (92) 
9

$$$$

     RDKit          3D

 54 57  0  0  0  0  0  0  0  0999 V2000
  139.6290   70.8820  221.0600 O   0  0  0  0  0  0  0  0  0  0  0  0
  140.0290   71.5670  222.0390 C   0  0  0  0  0  0  0  0  0  0  0  0
  140.5840   72.8430  221.7340 N   0  0  0  0  0  0  0  0  0  0  0  0
  140.6250   73.2100  220.3230 C   0  0  0  0  0  0  0  0  0  0  0  0
  141.6870   72.4380  219.6090 C   0  0  0  0  0  0  0  0  0  0  0  0
  141.3950   71.8750  218.5310 O   0  0  0  0  0  0  0  0  0  0  0  0
  142.9790   72.3830  220.1980 N   0  0  0  0  0  0  0  0  0  0  0  0
  143.6460   71.0890  220.2820 C   0  0  0  0  0  0  0  0  0  0  0  0
  144.6840   70.9790  219.1930 C   0  0  0  0  0  0  0  0  0  0  0  0
  145.9280   71.6910  219.6780 C   0  0  0  0  0  0  0  0  0  0  0  0
  145.7180   73.1590  219.8590 C   0  0  0  0  0  0  0  0  0  0  0  0
  144.8910   73.5280  221.0660 C   0  0  0  0  0  0  0  0  0  0  0  0
  143.4600   73.6650  220.6440 C   0  0  1  0  0  0  0  0  0  0  0  0
  143.2480   74.7310  219.6350 C   0  0  0  0  0  0  0  0  0  0  0  0
  143.5810   74.5980  218.3040 C   0  0  0  0  0  0  0  0  0  0  0  0
  143.3610   75.6230  217.4130 C   0  0  0  0  0  0  0  0  0  0  0  0
  142.7950   76.8200  217.8430 C   0  0  0  0  0  0  0  0  0  0  0  0
  142.5080   78.1390  216.7130 Cl  0  0  0  0  0  0  0  0  0  0  0  0
  142.4650   76.9430  219.1830 C   0  0  0  0  0  0  0  0  0  0  0  0
  142.6850   75.9140  220.0760 C   0  0  0  0  0  0  0  0  0  0  0  0
  139.9450   71.1130  223.4200 C   0  0  0  0  0  0  0  0  0  0  0  0
  139.2240   69.9600  223.6800 C   0  0  0  0  0  0  0  0  0  0  0  0
  139.1310   69.5110  224.9800 C   0  0  0  0  0  0  0  0  0  0  0  0
  139.7570   70.2170  225.9950 C   0  0  0  0  0  0  0  0  0  0  0  0
  139.6780   69.7880  227.3030 C   0  0  0  0  0  0  0  0  0  0  0  0
  140.2930   70.4750  228.3200 C   0  0  0  0  0  0  0  0  0  0  0  0
  141.0070   71.6260  228.0180 C   0  0  0  0  0  0  0  0  0  0  0  0
  141.1030   72.0840  226.7030 C   0  0  0  0  0  0  0  0  0  0  0  0
  140.4710   71.3650  225.7060 C   0  0  0  0  0  0  0  0  0  0  0  0
  140.5540   71.7900  224.4350 N   0  0  0  0  0  0  0  0  0  0  0  0
  140.9450   73.4880  222.4820 H   0  0  0  0  0  0  0  0  0  0  0  0
  139.6493   72.9918  219.8643 H   0  0  0  0  0  0  0  0  0  0  0  0
  140.8521   74.2833  220.2423 H   0  0  0  0  0  0  0  0  0  0  0  0
  144.1340   70.9924  221.2631 H   0  0  0  0  0  0  0  0  0  0  0  0
  142.9025   70.2878  220.1581 H   0  0  0  0  0  0  0  0  0  0  0  0
  144.9099   69.9209  218.9948 H   0  0  0  0  0  0  0  0  0  0  0  0
  144.3169   71.4318  218.2601 H   0  0  0  0  0  0  0  0  0  0  0  0
  146.2284   71.2568  220.6430 H   0  0  0  0  0  0  0  0  0  0  0  0
  146.7067   71.5585  218.9124 H   0  0  0  0  0  0  0  0  0  0  0  0
  146.7035   73.6375  219.9582 H   0  0  0  0  0  0  0  0  0  0  0  0
  145.1584   73.5063  218.9779 H   0  0  0  0  0  0  0  0  0  0  0  0
  144.9781   72.7406  221.8292 H   0  0  0  0  0  0  0  0  0  0  0  0
  145.2494   74.4777  221.4898 H   0  0  0  0  0  0  0  0  0  0  0  0
  142.8718   73.9884  221.5154 H   0  0  0  0  0  0  0  0  0  0  0  0
  144.0293   73.6583  217.9489 H   0  0  0  0  0  0  0  0  0  0  0  0
  143.6338   75.4960  216.3550 H   0  0  0  0  0  0  0  0  0  0  0  0
  142.0179   77.8813  219.5430 H   0  0  0  0  0  0  0  0  0  0  0  0
  142.4133   76.0348  221.1351 H   0  0  0  0  0  0  0  0  0  0  0  0
  138.7334   69.4112  222.8626 H   0  0  0  0  0  0  0  0  0  0  0  0
  138.5631   68.5975  225.2104 H   0  0  0  0  0  0  0  0  0  0  0  0
  139.1099   68.8755  227.5366 H   0  0  0  0  0  0  0  0  0  0  0  0
  140.2210   70.1187  229.3582 H   0  0  0  0  0  0  0  0  0  0  0  0
  141.5036   72.1845  228.8252 H   0  0  0  0  0  0  0  0  0  0  0  0
  141.6690   72.9968  226.4654 H   0  0  0  0  0  0  0  0  0  0  0  0
  1  2  2  0
  2  3  1  0
  3  4  1  0
  4  5  1  0
  5  6  2  0
  5  7  1  0
  7  8  1  0
  8  9  1  0
  9 10  1  0
 10 11  1  0
 11 12  1  0
 12 13  1  0
 13 14  1  0
 14 15  2  0
 15 16  1  0
 16 17  2  0
 17 18  1  0
 17 19  1  0
 19 20  2  0
  2 21  1  0
 21 22  2  0
 22 23  1  0
 23 24  2  0
 24 25  1  0
 25 26  2  0
 26 27  1  0
 27 28  2  0
 28 29  1  0
 29 30  2  0
 13  7  1  0
 20 14  1  0
 30 21  1  0
 29 24  1  0
  3 31  1  0
  4 32  1  0
  4 33  1  0
  8 34  1  0
  8 35  1  0
  9 36  1  0
  9 37  1  0
 10 38  1  0
 10 39  1  0
 11 40  1  0
 11 41  1  0
 12 42  1  0
 12 43  1  0
 13 44  1  1
 15 45  1  0
 16 46  1  0
 19 47  1  0
 20 48  1  0
 22 49  1  0
 23 50  1  0
 25 51  1  0
 26 52  1  0
 27 53  1  0
 28 54  1  0
M  END
>  <smiles>  (93) 
O=C(NCC(=O)N1CCCCCC1c1ccc(Cl)cc1)c1ccc2ccccc2n1

>  <score_type>  (93) 
oracle

>  <origin>  (93) 
autodockgpu

>  <m_score__min__energy>  (93) 
-6.8499999999999996

>  <m_primary>  (93) 
energy

>  <rmsd>  (93) 
3.8677536950873357

>  <m_score__min__rmsd>  (93) 
3.8677536950873357

>  <meeko>  (93) 
{"free_energy": -5.44, "intermolecular_energy": -8.72, "internal_energy": -1.9, "cluster_size": 6, "cluster_id": 5, "rank_in_cluster": 5}

>  <energy>  (93) 
-4.82

>  <cluster_rmsd>  (93) 
1.42

>  <cluster>  (93) 
9

$$$$

     RDKit          3D

 54 57  0  0  0  0  0  0  0  0999 V2000
  139.2960   74.4460  222.3480 O   0  0  0  0  0  0  0  0  0  0  0  0
  140.0230   75.3150  221.7970 C   0  0  0  0  0  0  0  0  0  0  0  0
  140.8180   74.8740  220.7000 N   0  0  0  0  0  0  0  0  0  0  0  0
  140.6980   73.4650  220.3400 C   0  0  0  0  0  0  0  0  0  0  0  0
  141.6160   72.6300  221.1730 C   0  0  0  0  0  0  0  0  0  0  0  0
  141.1690   72.1140  222.2210 O   0  0  0  0  0  0  0  0  0  0  0  0
  142.9560   72.4660  220.7270 N   0  0  0  0  0  0  0  0  0  0  0  0
  143.3620   71.1580  220.2250 C   0  0  0  0  0  0  0  0  0  0  0  0
  144.1010   71.3210  218.9210 C   0  0  0  0  0  0  0  0  0  0  0  0
  145.5560   71.5740  219.2520 C   0  0  0  0  0  0  0  0  0  0  0  0
  145.8120   72.9580  219.7390 C   0  0  0  0  0  0  0  0  0  0  0  0
  145.1770   73.2800  221.0700 C   0  0  0  0  0  0  0  0  0  0  0  0
  143.7470   73.6630  220.8420 C   0  0  1  0  0  0  0  0  0  0  0  0
  143.5650   74.5750  219.6870 C   0  0  0  0  0  0  0  0  0  0  0  0
  143.7020   75.9450  219.7660 C   0  0  0  0  0  0  0  0  0  0  0  0
  143.5190   76.7410  218.6600 C   0  0  0  0  0  0  0  0  0  0  0  0
  143.1910   76.1730  217.4310 C   0  0  0  0  0  0  0  0  0  0  0  0
  142.9550   77.1800  216.0070 Cl  0  0  0  0  0  0  0  0  0  0  0  0
  143.0560   74.7960  217.3620 C   0  0  0  0  0  0  0  0  0  0  0  0
  143.2390   73.9980  218.4730 C   0  0  0  0  0  0  0  0  0  0  0  0
  140.0750   76.7040  222.2300 C   0  0  0  0  0  0  0  0  0  0  0  0
  138.8960   77.2980  222.6460 C   0  0  0  0  0  0  0  0  0  0  0  0
  138.9200   78.6120  223.0610 C   0  0  0  0  0  0  0  0  0  0  0  0
  140.1180   79.3100  223.0530 C   0  0  0  0  0  0  0  0  0  0  0  0
  140.1680   80.6260  223.4620 C   0  0  0  0  0  0  0  0  0  0  0  0
  141.3450   81.3310  223.4610 C   0  0  0  0  0  0  0  0  0  0  0  0
  142.5070   80.7010  223.0370 C   0  0  0  0  0  0  0  0  0  0  0  0
  142.4850   79.3700  222.6160 C   0  0  0  0  0  0  0  0  0  0  0  0
  141.2810   78.6930  222.6330 C   0  0  0  0  0  0  0  0  0  0  0  0
  141.2410   77.4110  222.2320 N   0  0  0  0  0  0  0  0  0  0  0  0
  141.4570   75.5240  220.1760 H   0  0  0  0  0  0  0  0  0  0  0  0
  139.6611   73.1367  220.5047 H   0  0  0  0  0  0  0  0  0  0  0  0
  140.9712   73.3446  219.2813 H   0  0  0  0  0  0  0  0  0  0  0  0
  144.0206   70.6725  220.9603 H   0  0  0  0  0  0  0  0  0  0  0  0
  142.4688   70.5370  220.0623 H   0  0  0  0  0  0  0  0  0  0  0  0
  144.0064   70.4055  218.3186 H   0  0  0  0  0  0  0  0  0  0  0  0
  143.6842   72.1576  218.3411 H   0  0  0  0  0  0  0  0  0  0  0  0
  145.8657   70.8648  220.0338 H   0  0  0  0  0  0  0  0  0  0  0  0
  146.1315   71.4410  218.3241 H   0  0  0  0  0  0  0  0  0  0  0  0
  146.8994   73.0928  219.8354 H   0  0  0  0  0  0  0  0  0  0  0  0
  145.3582   73.6379  219.0029 H   0  0  0  0  0  0  0  0  0  0  0  0
  145.2235   72.3975  221.7251 H   0  0  0  0  0  0  0  0  0  0  0  0
  145.7148   74.1111  221.5496 H   0  0  0  0  0  0  0  0  0  0  0  0
  143.4001   74.2431  221.7098 H   0  0  0  0  0  0  0  0  0  0  0  0
  143.9618   76.4083  220.7293 H   0  0  0  0  0  0  0  0  0  0  0  0
  143.6321   77.8318  218.7460 H   0  0  0  0  0  0  0  0  0  0  0  0
  142.7973   74.3284  216.4006 H   0  0  0  0  0  0  0  0  0  0  0  0
  143.1260   72.9067  218.3933 H   0  0  0  0  0  0  0  0  0  0  0  0
  137.9541   76.7298  222.6454 H   0  0  0  0  0  0  0  0  0  0  0  0
  137.9949   79.1037  223.3964 H   0  0  0  0  0  0  0  0  0  0  0  0
  139.2444   81.1212  223.7963 H   0  0  0  0  0  0  0  0  0  0  0  0
  141.3675   82.3800  223.7913 H   0  0  0  0  0  0  0  0  0  0  0  0
  143.4562   81.2569  223.0327 H   0  0  0  0  0  0  0  0  0  0  0  0
  143.4057   78.8717  222.2784 H   0  0  0  0  0  0  0  0  0  0  0  0
  1  2  2  0
  2  3  1  0
  3  4  1  0
  4  5  1  0
  5  6  2  0
  5  7  1  0
  7  8  1  0
  8  9  1  0
  9 10  1  0
 10 11  1  0
 11 12  1  0
 12 13  1  0
 13 14  1  0
 14 15  2  0
 15 16  1  0
 16 17  2  0
 17 18  1  0
 17 19  1  0
 19 20  2  0
  2 21  1  0
 21 22  2  0
 22 23  1  0
 23 24  2  0
 24 25  1  0
 25 26  2  0
 26 27  1  0
 27 28  2  0
 28 29  1  0
 29 30  2  0
 13  7  1  0
 20 14  1  0
 30 21  1  0
 29 24  1  0
  3 31  1  0
  4 32  1  0
  4 33  1  0
  8 34  1  0
  8 35  1  0
  9 36  1  0
  9 37  1  0
 10 38  1  0
 10 39  1  0
 11 40  1  0
 11 41  1  0
 12 42  1  0
 12 43  1  0
 13 44  1  1
 15 45  1  0
 16 46  1  0
 19 47  1  0
 20 48  1  0
 22 49  1  0
 23 50  1  0
 25 51  1  0
 26 52  1  0
 27 53  1  0
 28 54  1  0
M  END
>  <smiles>  (94) 
O=C(NCC(=O)N1CCCCCC1c1ccc(Cl)cc1)c1ccc2ccccc2n1

>  <score_type>  (94) 
oracle

>  <origin>  (94) 
autodockgpu

>  <m_score__min__energy>  (94) 
-6.8499999999999996

>  <m_primary>  (94) 
energy

>  <rmsd>  (94) 
7.597250534434094

>  <m_score__min__rmsd>  (94) 
7.597250534434094

>  <meeko>  (94) 
{"free_energy": -5.33, "intermolecular_energy": -8.61, "internal_energy": -1.78, "cluster_size": 2, "cluster_id": 10, "rank_in_cluster": 1}

>  <energy>  (94) 
-5.33

>  <cluster_rmsd>  (94) 
0.0

>  <cluster>  (94) 
10

$$$$

     RDKit          3D

 54 57  0  0  0  0  0  0  0  0999 V2000
  139.8270   71.0490  221.3010 O   0  0  0  0  0  0  0  0  0  0  0  0
  139.8870   71.6750  222.3930 C   0  0  0  0  0  0  0  0  0  0  0  0
  139.8740   73.0970  222.3090 N   0  0  0  0  0  0  0  0  0  0  0  0
  139.7920   73.6660  220.9690 C   0  0  0  0  0  0  0  0  0  0  0  0
  140.3780   75.0410  220.9440 C   0  0  0  0  0  0  0  0  0  0  0  0
  140.9460   75.4680  221.9730 O   0  0  0  0  0  0  0  0  0  0  0  0
  140.2560   75.7940  219.7450 N   0  0  0  0  0  0  0  0  0  0  0  0
  139.0520   76.5940  219.5510 C   0  0  0  0  0  0  0  0  0  0  0  0
  139.2220   77.9390  220.2120 C   0  0  0  0  0  0  0  0  0  0  0  0
  140.2610   78.7050  219.4230 C   0  0  0  0  0  0  0  0  0  0  0  0
  141.5920   78.0250  219.4040 C   0  0  0  0  0  0  0  0  0  0  0  0
  141.7440   76.9960  218.3100 C   0  0  0  0  0  0  0  0  0  0  0  0
  141.3840   75.6510  218.8610 C   0  0  1  0  0  0  0  0  0  0  0  0
  142.5260   74.9610  219.5100 C   0  0  0  0  0  0  0  0  0  0  0  0
  142.5520   73.6070  219.7690 C   0  0  0  0  0  0  0  0  0  0  0  0
  143.6400   73.0220  220.3750 C   0  0  0  0  0  0  0  0  0  0  0  0
  144.7400   73.7930  220.7390 C   0  0  0  0  0  0  0  0  0  0  0  0
  146.1390   73.0570  221.5140 Cl  0  0  0  0  0  0  0  0  0  0  0  0
  144.7040   75.1520  220.4740 C   0  0  0  0  0  0  0  0  0  0  0  0
  143.6130   75.7380  219.8660 C   0  0  0  0  0  0  0  0  0  0  0  0
  139.9660   71.0160  223.6890 C   0  0  0  0  0  0  0  0  0  0  0  0
  139.5430   69.7010  223.7740 C   0  0  0  0  0  0  0  0  0  0  0  0
  139.6090   69.0550  224.9900 C   0  0  0  0  0  0  0  0  0  0  0  0
  140.0950   69.7320  226.0970 C   0  0  0  0  0  0  0  0  0  0  0  0
  140.1700   69.1080  227.3250 C   0  0  0  0  0  0  0  0  0  0  0  0
  140.6500   69.7620  228.4320 C   0  0  0  0  0  0  0  0  0  0  0  0
  141.0660   71.0810  228.3070 C   0  0  0  0  0  0  0  0  0  0  0  0
  141.0000   71.7370  227.0760 C   0  0  0  0  0  0  0  0  0  0  0  0
  140.5120   71.0440  225.9840 C   0  0  0  0  0  0  0  0  0  0  0  0
  140.4420   71.6600  224.7930 N   0  0  0  0  0  0  0  0  0  0  0  0
  139.9200   73.7070  223.1650 H   0  0  0  0  0  0  0  0  0  0  0  0
  140.3468   73.0239  220.2691 H   0  0  0  0  0  0  0  0  0  0  0  0
  138.7341   73.7261  220.6736 H   0  0  0  0  0  0  0  0  0  0  0  0
  138.8768   76.7355  218.4743 H   0  0  0  0  0  0  0  0  0  0  0  0
  138.1932   76.0738  220.0003 H   0  0  0  0  0  0  0  0  0  0  0  0
  138.2669   78.4847  220.2044 H   0  0  0  0  0  0  0  0  0  0  0  0
  139.5403   77.8193  221.2581 H   0  0  0  0  0  0  0  0  0  0  0  0
  139.9067   78.8127  218.3872 H   0  0  0  0  0  0  0  0  0  0  0  0
  140.3949   79.6810  219.9123 H   0  0  0  0  0  0  0  0  0  0  0  0
  142.3693   78.7913  219.2676 H   0  0  0  0  0  0  0  0  0  0  0  0
  141.6870   77.4880  220.3593 H   0  0  0  0  0  0  0  0  0  0  0  0
  141.0747   77.2442  217.4731 H   0  0  0  0  0  0  0  0  0  0  0  0
  142.7824   76.9861  217.9471 H   0  0  0  0  0  0  0  0  0  0  0  0
  141.1053   74.9969  218.0217 H   0  0  0  0  0  0  0  0  0  0  0  0
  141.6898   72.9850  219.4868 H   0  0  0  0  0  0  0  0  0  0  0  0
  143.6404   71.9399  220.5727 H   0  0  0  0  0  0  0  0  0  0  0  0
  145.5641   75.7778  220.7545 H   0  0  0  0  0  0  0  0  0  0  0  0
  143.6079   76.8195  219.6651 H   0  0  0  0  0  0  0  0  0  0  0  0
  139.1599   69.1792  222.8847 H   0  0  0  0  0  0  0  0  0  0  0  0
  139.2783   68.0098  225.0808 H   0  0  0  0  0  0  0  0  0  0  0  0
  139.8379   68.0636  227.4190 H   0  0  0  0  0  0  0  0  0  0  0  0
  140.7044   69.2491  229.4036 H   0  0  0  0  0  0  0  0  0  0  0  0
  141.4519   71.6152  229.1878 H   0  0  0  0  0  0  0  0  0  0  0  0
  141.3290   72.7820  226.9775 H   0  0  0  0  0  0  0  0  0  0  0  0
  1  2  2  0
  2  3  1  0
  3  4  1  0
  4  5  1  0
  5  6  2  0
  5  7  1  0
  7  8  1  0
  8  9  1  0
  9 10  1  0
 10 11  1  0
 11 12  1  0
 12 13  1  0
 13 14  1  0
 14 15  2  0
 15 16  1  0
 16 17  2  0
 17 18  1  0
 17 19  1  0
 19 20  2  0
  2 21  1  0
 21 22  2  0
 22 23  1  0
 23 24  2  0
 24 25  1  0
 25 26  2  0
 26 27  1  0
 27 28  2  0
 28 29  1  0
 29 30  2  0
 13  7  1  0
 20 14  1  0
 30 21  1  0
 29 24  1  0
  3 31  1  0
  4 32  1  0
  4 33  1  0
  8 34  1  0
  8 35  1  0
  9 36  1  0
  9 37  1  0
 10 38  1  0
 10 39  1  0
 11 40  1  0
 11 41  1  0
 12 42  1  0
 12 43  1  0
 13 44  1  6
 15 45  1  0
 16 46  1  0
 19 47  1  0
 20 48  1  0
 22 49  1  0
 23 50  1  0
 25 51  1  0
 26 52  1  0
 27 53  1  0
 28 54  1  0
M  END
>  <smiles>  (95) 
O=C(NCC(=O)N1CCCCCC1c1ccc(Cl)cc1)c1ccc2ccccc2n1

>  <score_type>  (95) 
oracle

>  <origin>  (95) 
autodockgpu

>  <m_score__min__energy>  (95) 
-6.8499999999999996

>  <m_primary>  (95) 
energy

>  <rmsd>  (95) 
1.81673377042951

>  <m_score__min__rmsd>  (95) 
1.81673377042951

>  <meeko>  (95) 
{"free_energy": -6.02, "intermolecular_energy": -9.3, "internal_energy": -1.92, "cluster_size": 10, "cluster_id": 3, "rank_in_cluster": 7}

>  <energy>  (95) 
-4.95

>  <cluster_rmsd>  (95) 
1.27

>  <cluster>  (95) 
10

$$$$

     RDKit          3D

 54 57  0  0  0  0  0  0  0  0999 V2000
  139.7410   74.9570  222.4240 O   0  0  0  0  0  0  0  0  0  0  0  0
  140.4060   75.0280  221.3570 C   0  0  0  0  0  0  0  0  0  0  0  0
  140.0480   76.0720  220.4560 N   0  0  0  0  0  0  0  0  0  0  0  0
  138.9520   76.9400  220.8730 C   0  0  0  0  0  0  0  0  0  0  0  0
  139.3480   78.3770  220.7640 C   0  0  0  0  0  0  0  0  0  0  0  0
  139.0400   79.0050  219.7270 O   0  0  0  0  0  0  0  0  0  0  0  0
  140.0590   78.9560  221.8500 N   0  0  0  0  0  0  0  0  0  0  0  0
  139.3880   79.0550  223.1410 C   0  0  0  0  0  0  0  0  0  0  0  0
  139.4070   80.4860  223.6160 C   0  0  0  0  0  0  0  0  0  0  0  0
  140.8310   80.9860  223.4950 C   0  0  0  0  0  0  0  0  0  0  0  0
  141.8420   79.9410  223.8370 C   0  0  0  0  0  0  0  0  0  0  0  0
  142.3030   79.1150  222.6610 C   0  0  0  0  0  0  0  0  0  0  0  0
  141.3910   79.3780  221.5020 C   0  0  1  0  0  0  0  0  0  0  0  0
  141.8650   78.7670  220.2360 C   0  0  0  0  0  0  0  0  0  0  0  0
  142.4160   77.5050  220.1570 C   0  0  0  0  0  0  0  0  0  0  0  0
  142.8390   76.9910  218.9540 C   0  0  0  0  0  0  0  0  0  0  0  0
  142.7170   77.7400  217.7870 C   0  0  0  0  0  0  0  0  0  0  0  0
  143.2540   77.0930  216.2400 Cl  0  0  0  0  0  0  0  0  0  0  0  0
  142.1620   79.0060  217.8770 C   0  0  0  0  0  0  0  0  0  0  0  0
  141.7380   79.5210  219.0850 C   0  0  0  0  0  0  0  0  0  0  0  0
  141.4880   74.1120  221.0260 C   0  0  0  0  0  0  0  0  0  0  0  0
  141.1800   72.7690  220.8870 C   0  0  0  0  0  0  0  0  0  0  0  0
  142.1880   71.8820  220.5740 C   0  0  0  0  0  0  0  0  0  0  0  0
  143.4820   72.3490  220.4060 C   0  0  0  0  0  0  0  0  0  0  0  0
  144.5080   71.4820  220.0930 C   0  0  0  0  0  0  0  0  0  0  0  0
  145.7950   71.9270  219.9230 C   0  0  0  0  0  0  0  0  0  0  0  0
  146.0640   73.2810  220.0700 C   0  0  0  0  0  0  0  0  0  0  0  0
  145.0450   74.1810  220.3870 C   0  0  0  0  0  0  0  0  0  0  0  0
  143.7620   73.6950  220.5500 C   0  0  0  0  0  0  0  0  0  0  0  0
  142.7690   74.5470  220.8550 N   0  0  0  0  0  0  0  0  0  0  0  0
  140.5440   76.2130  219.5390 H   0  0  0  0  0  0  0  0  0  0  0  0
  138.0797   76.7556  220.2288 H   0  0  0  0  0  0  0  0  0  0  0  0
  138.7042   76.7191  221.9217 H   0  0  0  0  0  0  0  0  0  0  0  0
  138.3460   78.7178  223.0382 H   0  0  0  0  0  0  0  0  0  0  0  0
  139.9111   78.4217  223.8726 H   0  0  0  0  0  0  0  0  0  0  0  0
  138.7396   81.0980  222.9915 H   0  0  0  0  0  0  0  0  0  0  0  0
  139.0595   80.5535  224.6575 H   0  0  0  0  0  0  0  0  0  0  0  0
  141.0014   81.3143  222.4591 H   0  0  0  0  0  0  0  0  0  0  0  0
  140.9539   81.8126  224.2103 H   0  0  0  0  0  0  0  0  0  0  0  0
  142.7200   80.4404  224.2726 H   0  0  0  0  0  0  0  0  0  0  0  0
  141.3538   79.2473  224.5373 H   0  0  0  0  0  0  0  0  0  0  0  0
  143.3324   79.3950  222.3929 H   0  0  0  0  0  0  0  0  0  0  0  0
  142.2794   78.0465  222.9214 H   0  0  0  0  0  0  0  0  0  0  0  0
  141.3870   80.4598  221.3030 H   0  0  0  0  0  0  0  0  0  0  0  0
  142.5185   76.9006  221.0703 H   0  0  0  0  0  0  0  0  0  0  0  0
  143.2762   75.9824  218.9135 H   0  0  0  0  0  0  0  0  0  0  0  0
  142.0570   79.6137  216.9661 H   0  0  0  0  0  0  0  0  0  0  0  0
  141.3001   80.5290  219.1316 H   0  0  0  0  0  0  0  0  0  0  0  0
  140.1474   72.4155  221.0241 H   0  0  0  0  0  0  0  0  0  0  0  0
  141.9667   70.8107  220.4584 H   0  0  0  0  0  0  0  0  0  0  0  0
  144.2898   70.4101  219.9771 H   0  0  0  0  0  0  0  0  0  0  0  0
  146.6013   71.2214  219.6740 H   0  0  0  0  0  0  0  0  0  0  0  0
  147.0918   73.6489  219.9352 H   0  0  0  0  0  0  0  0  0  0  0  0
  145.2589   75.2536  220.5044 H   0  0  0  0  0  0  0  0  0  0  0  0
  1  2  2  0
  2  3  1  0
  3  4  1  0
  4  5  1  0
  5  6  2  0
  5  7  1  0
  7  8  1  0
  8  9  1  0
  9 10  1  0
 10 11  1  0
 11 12  1  0
 12 13  1  0
 13 14  1  0
 14 15  2  0
 15 16  1  0
 16 17  2  0
 17 18  1  0
 17 19  1  0
 19 20  2  0
  2 21  1  0
 21 22  2  0
 22 23  1  0
 23 24  2  0
 24 25  1  0
 25 26  2  0
 26 27  1  0
 27 28  2  0
 28 29  1  0
 29 30  2  0
 13  7  1  0
 20 14  1  0
 30 21  1  0
 29 24  1  0
  3 31  1  0
  4 32  1  0
  4 33  1  0
  8 34  1  0
  8 35  1  0
  9 36  1  0
  9 37  1  0
 10 38  1  0
 10 39  1  0
 11 40  1  0
 11 41  1  0
 12 42  1  0
 12 43  1  0
 13 44  1  6
 15 45  1  0
 16 46  1  0
 19 47  1  0
 20 48  1  0
 22 49  1  0
 23 50  1  0
 25 51  1  0
 26 52  1  0
 27 53  1  0
 28 54  1  0
M  END
>  <smiles>  (96) 
O=C(NCC(=O)N1CCCCCC1c1ccc(Cl)cc1)c1ccc2ccccc2n1

>  <score_type>  (96) 
oracle

>  <origin>  (96) 
autodockgpu

>  <m_score__min__energy>  (96) 
-6.8499999999999996

>  <m_primary>  (96) 
energy

>  <rmsd>  (96) 
6.2626742670298245

>  <m_score__min__rmsd>  (96) 
6.2626742670298245

>  <meeko>  (96) 
{"free_energy": -4.84, "intermolecular_energy": -8.12, "internal_energy": -2.25, "cluster_size": 7, "cluster_id": 8, "rank_in_cluster": 4}

>  <energy>  (96) 
-4.8

>  <cluster_rmsd>  (96) 
0.0

>  <cluster>  (96) 
11

$$$$

     RDKit          3D

 54 57  0  0  0  0  0  0  0  0999 V2000
  139.4810   74.5440  221.8930 O   0  0  0  0  0  0  0  0  0  0  0  0
  140.6520   74.9350  221.6420 C   0  0  0  0  0  0  0  0  0  0  0  0
  140.9190   76.3170  221.8620 N   0  0  0  0  0  0  0  0  0  0  0  0
  139.8060   77.1210  222.3530 C   0  0  0  0  0  0  0  0  0  0  0  0
  139.4180   78.1540  221.3440 C   0  0  0  0  0  0  0  0  0  0  0  0
  138.6490   77.8230  220.4150 O   0  0  0  0  0  0  0  0  0  0  0  0
  139.9480   79.4640  221.4950 N   0  0  0  0  0  0  0  0  0  0  0  0
  139.4960   80.2670  222.6260 C   0  0  0  0  0  0  0  0  0  0  0  0
  140.3020   79.9190  223.8520 C   0  0  0  0  0  0  0  0  0  0  0  0
  141.7250   80.3690  223.6030 C   0  0  0  0  0  0  0  0  0  0  0  0
  142.3480   79.6920  222.4260 C   0  0  0  0  0  0  0  0  0  0  0  0
  142.1170   80.3950  221.1100 C   0  0  0  0  0  0  0  0  0  0  0  0
  140.8910   79.8220  220.4670 C   0  0  1  0  0  0  0  0  0  0  0  0
  141.1860   78.6930  219.5520 C   0  0  0  0  0  0  0  0  0  0  0  0
  140.4550   78.4210  218.4150 C   0  0  0  0  0  0  0  0  0  0  0  0
  140.7750   77.3570  217.6040 C   0  0  0  0  0  0  0  0  0  0  0  0
  141.8500   76.5310  217.9190 C   0  0  0  0  0  0  0  0  0  0  0  0
  142.2710   75.1660  216.8900 Cl  0  0  0  0  0  0  0  0  0  0  0  0
  142.5770   76.8120  219.0650 C   0  0  0  0  0  0  0  0  0  0  0  0
  142.2560   77.8800  219.8770 C   0  0  0  0  0  0  0  0  0  0  0  0
  141.7020   74.0530  221.1530 C   0  0  0  0  0  0  0  0  0  0  0  0
  141.3550   72.7520  220.8270 C   0  0  0  0  0  0  0  0  0  0  0  0
  142.3320   71.8980  220.3620 C   0  0  0  0  0  0  0  0  0  0  0  0
  143.6340   72.3550  220.2290 C   0  0  0  0  0  0  0  0  0  0  0  0
  144.6280   71.5200  219.7660 C   0  0  0  0  0  0  0  0  0  0  0  0
  145.9220   71.9560  219.6280 C   0  0  0  0  0  0  0  0  0  0  0  0
  146.2300   73.2670  219.9640 C   0  0  0  0  0  0  0  0  0  0  0  0
  145.2430   74.1340  220.4360 C   0  0  0  0  0  0  0  0  0  0  0  0
  143.9520   73.6590  220.5610 C   0  0  0  0  0  0  0  0  0  0  0  0
  142.9890   74.4790  221.0130 N   0  0  0  0  0  0  0  0  0  0  0  0
  141.8660   76.7380  221.6810 H   0  0  0  0  0  0  0  0  0  0  0  0
  138.9448   76.4652  222.5485 H   0  0  0  0  0  0  0  0  0  0  0  0
  140.1159   77.6281  223.2787 H   0  0  0  0  0  0  0  0  0  0  0  0
  139.6278   81.3338  222.3927 H   0  0  0  0  0  0  0  0  0  0  0  0
  138.4331   80.0590  222.8182 H   0  0  0  0  0  0  0  0  0  0  0  0
  139.8922   80.4382  224.7309 H   0  0  0  0  0  0  0  0  0  0  0  0
  140.2659   78.8367  224.0453 H   0  0  0  0  0  0  0  0  0  0  0  0
  141.7244   81.4544  223.4246 H   0  0  0  0  0  0  0  0  0  0  0  0
  142.3172   80.1021  224.4907 H   0  0  0  0  0  0  0  0  0  0  0  0
  143.4327   79.6311  222.5981 H   0  0  0  0  0  0  0  0  0  0  0  0
  141.8718   78.7039  222.3428 H   0  0  0  0  0  0  0  0  0  0  0  0
  141.9739   81.4714  221.2857 H   0  0  0  0  0  0  0  0  0  0  0  0
  142.9866   80.2523  220.4516 H   0  0  0  0  0  0  0  0  0  0  0  0
  140.4457   80.5929  219.8209 H   0  0  0  0  0  0  0  0  0  0  0  0
  139.6027   79.0649  218.1523 H   0  0  0  0  0  0  0  0  0  0  0  0
  140.1781   77.1579  216.7017 H   0  0  0  0  0  0  0  0  0  0  0  0
  143.4286   76.1694  219.3330 H   0  0  0  0  0  0  0  0  0  0  0  0
  142.8496   78.0842  220.7803 H   0  0  0  0  0  0  0  0  0  0  0  0
  140.3167   72.4061  220.9374 H   0  0  0  0  0  0  0  0  0  0  0  0
  142.0801   70.8603  220.0981 H   0  0  0  0  0  0  0  0  0  0  0  0
  144.3788   70.4818  219.5014 H   0  0  0  0  0  0  0  0  0  0  0  0
  146.7034   71.2766  219.2567 H   0  0  0  0  0  0  0  0  0  0  0  0
  147.2639   73.6270  219.8571 H   0  0  0  0  0  0  0  0  0  0  0  0
  145.4880   75.1727  220.7026 H   0  0  0  0  0  0  0  0  0  0  0  0
  1  2  2  0
  2  3  1  0
  3  4  1  0
  4  5  1  0
  5  6  2  0
  5  7  1  0
  7  8  1  0
  8  9  1  0
  9 10  1  0
 10 11  1  0
 11 12  1  0
 12 13  1  0
 13 14  1  0
 14 15  2  0
 15 16  1  0
 16 17  2  0
 17 18  1  0
 17 19  1  0
 19 20  2  0
  2 21  1  0
 21 22  2  0
 22 23  1  0
 23 24  2  0
 24 25  1  0
 25 26  2  0
 26 27  1  0
 27 28  2  0
 28 29  1  0
 29 30  2  0
 13  7  1  0
 20 14  1  0
 30 21  1  0
 29 24  1  0
  3 31  1  0
  4 32  1  0
  4 33  1  0
  8 34  1  0
  8 35  1  0
  9 36  1  0
  9 37  1  0
 10 38  1  0
 10 39  1  0
 11 40  1  0
 11 41  1  0
 12 42  1  0
 12 43  1  0
 13 44  1  6
 15 45  1  0
 16 46  1  0
 19 47  1  0
 20 48  1  0
 22 49  1  0
 23 50  1  0
 25 51  1  0
 26 52  1  0
 27 53  1  0
 28 54  1  0
M  END
>  <smiles>  (97) 
O=C(NCC(=O)N1CCCCCC1c1ccc(Cl)cc1)c1ccc2ccccc2n1

>  <score_type>  (97) 
oracle

>  <origin>  (97) 
autodockgpu

>  <m_score__min__energy>  (97) 
-6.8499999999999996

>  <m_primary>  (97) 
energy

>  <rmsd>  (97) 
6.4260998579342425

>  <m_score__min__rmsd>  (97) 
6.4260998579342425

>  <meeko>  (97) 
{"free_energy": -4.93, "intermolecular_energy": -8.21, "internal_energy": -2.58, "cluster_size": 7, "cluster_id": 8, "rank_in_cluster": 3}

>  <energy>  (97) 
-4.59

>  <cluster_rmsd>  (97) 
0.78

>  <cluster>  (97) 
11

$$$$

     RDKit          3D

 54 57  0  0  0  0  0  0  0  0999 V2000
  138.4620   71.0680  221.3410 O   0  0  0  0  0  0  0  0  0  0  0  0
  139.1020   71.7090  222.2170 C   0  0  0  0  0  0  0  0  0  0  0  0
  139.4560   73.0500  221.8880 N   0  0  0  0  0  0  0  0  0  0  0  0
  139.0360   73.5260  220.5750 C   0  0  0  0  0  0  0  0  0  0  0  0
  140.2040   74.0600  219.8110 C   0  0  0  0  0  0  0  0  0  0  0  0
  140.0160   75.0060  219.0140 O   0  0  0  0  0  0  0  0  0  0  0  0
  141.4740   73.4600  220.0310 N   0  0  0  0  0  0  0  0  0  0  0  0
  141.7380   72.1600  219.4270 C   0  0  0  0  0  0  0  0  0  0  0  0
  142.2790   71.2140  220.4700 C   0  0  0  0  0  0  0  0  0  0  0  0
  143.5100   71.8580  221.0710 C   0  0  0  0  0  0  0  0  0  0  0  0
  144.1780   72.8030  220.1360 C   0  0  0  0  0  0  0  0  0  0  0  0
  143.7240   74.2370  220.2580 C   0  0  0  0  0  0  0  0  0  0  0  0
  142.3490   74.2570  220.8520 C   0  0  1  0  0  0  0  0  0  0  0  0
  141.8270   75.6280  221.0690 C   0  0  0  0  0  0  0  0  0  0  0  0
  140.9800   75.9680  222.1030 C   0  0  0  0  0  0  0  0  0  0  0  0
  140.5270   77.2580  222.2530 C   0  0  0  0  0  0  0  0  0  0  0  0
  140.9190   78.2500  221.3580 C   0  0  0  0  0  0  0  0  0  0  0  0
  140.3470   79.9050  221.5400 Cl  0  0  0  0  0  0  0  0  0  0  0  0
  141.7700   77.8980  220.3230 C   0  0  0  0  0  0  0  0  0  0  0  0
  142.2240   76.6040  220.1730 C   0  0  0  0  0  0  0  0  0  0  0  0
  139.4770   71.1460  223.5060 C   0  0  0  0  0  0  0  0  0  0  0  0
  139.2170   69.8040  223.7260 C   0  0  0  0  0  0  0  0  0  0  0  0
  139.5640   69.2480  224.9390 C   0  0  0  0  0  0  0  0  0  0  0  0
  140.1630   70.0370  225.9070 C   0  0  0  0  0  0  0  0  0  0  0  0
  140.5180   69.5040  227.1280 C   0  0  0  0  0  0  0  0  0  0  0  0
  141.1130   70.2720  228.0990 C   0  0  0  0  0  0  0  0  0  0  0  0
  141.3580   71.6130  227.8400 C   0  0  0  0  0  0  0  0  0  0  0  0
  141.0070   72.1790  226.6120 C   0  0  0  0  0  0  0  0  0  0  0  0
  140.4120   71.3740  225.6600 C   0  0  0  0  0  0  0  0  0  0  0  0
  140.0690   71.9020  224.4740 N   0  0  0  0  0  0  0  0  0  0  0  0
  139.9900   73.6650  222.5530 H   0  0  0  0  0  0  0  0  0  0  0  0
  138.5880   72.6923  220.0145 H   0  0  0  0  0  0  0  0  0  0  0  0
  138.3007   74.3331  220.7088 H   0  0  0  0  0  0  0  0  0  0  0  0
  140.8036   71.7526  219.0136 H   0  0  0  0  0  0  0  0  0  0  0  0
  142.4788   72.2765  218.6222 H   0  0  0  0  0  0  0  0  0  0  0  0
  141.5238   71.0445  221.2517 H   0  0  0  0  0  0  0  0  0  0  0  0
  142.5299   70.2422  220.0199 H   0  0  0  0  0  0  0  0  0  0  0  0
  143.2129   72.4089  221.9756 H   0  0  0  0  0  0  0  0  0  0  0  0
  144.2264   71.0555  221.3005 H   0  0  0  0  0  0  0  0  0  0  0  0
  145.2603   72.7686  220.3292 H   0  0  0  0  0  0  0  0  0  0  0  0
  143.9093   72.4773  219.1203 H   0  0  0  0  0  0  0  0  0  0  0  0
  144.4166   74.7903  220.9093 H   0  0  0  0  0  0  0  0  0  0  0  0
  143.7103   74.7113  219.2656 H   0  0  0  0  0  0  0  0  0  0  0  0
  142.4000   73.8176  221.8591 H   0  0  0  0  0  0  0  0  0  0  0  0
  140.6619   75.1956  222.8187 H   0  0  0  0  0  0  0  0  0  0  0  0
  139.8514   77.5073  223.0845 H   0  0  0  0  0  0  0  0  0  0  0  0
  142.0907   78.6672  219.6051 H   0  0  0  0  0  0  0  0  0  0  0  0
  142.8997   76.3492  219.3433 H   0  0  0  0  0  0  0  0  0  0  0  0
  138.7414   69.1915  222.9459 H   0  0  0  0  0  0  0  0  0  0  0  0
  139.3663   68.1841  225.1368 H   0  0  0  0  0  0  0  0  0  0  0  0
  140.3205   68.4407  227.3289 H   0  0  0  0  0  0  0  0  0  0  0  0
  141.3911   69.8306  229.0674 H   0  0  0  0  0  0  0  0  0  0  0  0
  141.8340   72.2375  228.6104 H   0  0  0  0  0  0  0  0  0  0  0  0
  141.2002   73.2424  226.4076 H   0  0  0  0  0  0  0  0  0  0  0  0
  1  2  2  0
  2  3  1  0
  3  4  1  0
  4  5  1  0
  5  6  2  0
  5  7  1  0
  7  8  1  0
  8  9  1  0
  9 10  1  0
 10 11  1  0
 11 12  1  0
 12 13  1  0
 13 14  1  0
 14 15  2  0
 15 16  1  0
 16 17  2  0
 17 18  1  0
 17 19  1  0
 19 20  2  0
  2 21  1  0
 21 22  2  0
 22 23  1  0
 23 24  2  0
 24 25  1  0
 25 26  2  0
 26 27  1  0
 27 28  2  0
 28 29  1  0
 29 30  2  0
 13  7  1  0
 20 14  1  0
 30 21  1  0
 29 24  1  0
  3 31  1  0
  4 32  1  0
  4 33  1  0
  8 34  1  0
  8 35  1  0
  9 36  1  0
  9 37  1  0
 10 38  1  0
 10 39  1  0
 11 40  1  0
 11 41  1  0
 12 42  1  0
 12 43  1  0
 13 44  1  1
 15 45  1  0
 16 46  1  0
 19 47  1  0
 20 48  1  0
 22 49  1  0
 23 50  1  0
 25 51  1  0
 26 52  1  0
 27 53  1  0
 28 54  1  0
M  END
>  <smiles>  (98) 
O=C(NCC(=O)N1CCCCCC1c1ccc(Cl)cc1)c1ccc2ccccc2n1

>  <score_type>  (98) 
oracle

>  <origin>  (98) 
autodockgpu

>  <m_score__min__energy>  (98) 
-6.8499999999999996

>  <m_primary>  (98) 
energy

>  <rmsd>  (98) 
2.80807824942806

>  <m_score__min__rmsd>  (98) 
2.80807824942806

>  <meeko>  (98) 
{"free_energy": -4.49, "intermolecular_energy": -7.77, "internal_energy": -2.29, "cluster_size": 6, "cluster_id": 5, "rank_in_cluster": 6}

>  <energy>  (98) 
-4.26

>  <cluster_rmsd>  (98) 
2.0

>  <cluster>  (98) 
11

$$$$

     RDKit          3D

 54 57  0  0  0  0  0  0  0  0999 V2000
  140.7990   76.7830  218.0720 O   0  0  0  0  0  0  0  0  0  0  0  0
  141.8340   76.7060  218.7860 C   0  0  0  0  0  0  0  0  0  0  0  0
  142.1870   77.8770  219.5170 N   0  0  0  0  0  0  0  0  0  0  0  0
  141.3090   79.0300  219.3560 C   0  0  0  0  0  0  0  0  0  0  0  0
  140.4370   79.1990  220.5580 C   0  0  0  0  0  0  0  0  0  0  0  0
  139.1960   79.1340  220.4110 O   0  0  0  0  0  0  0  0  0  0  0  0
  141.0670   79.4270  221.8120 N   0  0  0  0  0  0  0  0  0  0  0  0
  142.1360   80.4180  221.8780 C   0  0  0  0  0  0  0  0  0  0  0  0
  141.5490   81.7830  222.1310 C   0  0  0  0  0  0  0  0  0  0  0  0
  140.1030   81.5890  222.5340 C   0  0  0  0  0  0  0  0  0  0  0  0
  139.9570   80.8000  223.7990 C   0  0  0  0  0  0  0  0  0  0  0  0
  139.4750   79.3850  223.5950 C   0  0  0  0  0  0  0  0  0  0  0  0
  140.5380   78.6130  222.8750 C   0  0  1  0  0  0  0  0  0  0  0  0
  140.0750   77.2880  222.3960 C   0  0  0  0  0  0  0  0  0  0  0  0
  138.7460   76.9300  222.3090 C   0  0  0  0  0  0  0  0  0  0  0  0
  138.3760   75.6850  221.8570 C   0  0  0  0  0  0  0  0  0  0  0  0
  139.3430   74.7590  221.4760 C   0  0  0  0  0  0  0  0  0  0  0  0
  138.8820   73.1620  220.8950 Cl  0  0  0  0  0  0  0  0  0  0  0  0
  140.6750   75.1290  221.5670 C   0  0  0  0  0  0  0  0  0  0  0  0
  141.0450   76.3780  222.0200 C   0  0  0  0  0  0  0  0  0  0  0  0
  142.6510   75.5050  218.8830 C   0  0  0  0  0  0  0  0  0  0  0  0
  142.3670   74.4570  218.0250 C   0  0  0  0  0  0  0  0  0  0  0  0
  143.1270   73.3090  218.0980 C   0  0  0  0  0  0  0  0  0  0  0  0
  144.1550   73.2270  219.0240 C   0  0  0  0  0  0  0  0  0  0  0  0
  144.9290   72.0900  219.1170 C   0  0  0  0  0  0  0  0  0  0  0  0
  145.9510   71.9920  220.0270 C   0  0  0  0  0  0  0  0  0  0  0  0
  146.2060   73.0650  220.8700 C   0  0  0  0  0  0  0  0  0  0  0  0
  145.4370   74.2290  220.7990 C   0  0  0  0  0  0  0  0  0  0  0  0
  144.4180   74.2890  219.8680 C   0  0  0  0  0  0  0  0  0  0  0  0
  143.6690   75.4010  219.7850 N   0  0  0  0  0  0  0  0  0  0  0  0
  143.0340   77.9120  220.1410 H   0  0  0  0  0  0  0  0  0  0  0  0
  141.9208   79.9345  219.2231 H   0  0  0  0  0  0  0  0  0  0  0  0
  140.6708   78.8694  218.4746 H   0  0  0  0  0  0  0  0  0  0  0  0
  142.8247   80.1589  222.6957 H   0  0  0  0  0  0  0  0  0  0  0  0
  142.6827   80.4280  220.9235 H   0  0  0  0  0  0  0  0  0  0  0  0
  142.1002   82.2848  222.9399 H   0  0  0  0  0  0  0  0  0  0  0  0
  141.6191   82.4081  221.2286 H   0  0  0  0  0  0  0  0  0  0  0  0
  139.6427   82.5773  222.6804 H   0  0  0  0  0  0  0  0  0  0  0  0
  139.6068   81.0245  221.7308 H   0  0  0  0  0  0  0  0  0  0  0  0
  140.9373   80.7618  224.2965 H   0  0  0  0  0  0  0  0  0  0  0  0
  139.1915   81.3100  224.4023 H   0  0  0  0  0  0  0  0  0  0  0  0
  139.2754   78.9180  224.5707 H   0  0  0  0  0  0  0  0  0  0  0  0
  138.5481   79.3872  223.0027 H   0  0  0  0  0  0  0  0  0  0  0  0
  141.3424   78.3827  223.5891 H   0  0  0  0  0  0  0  0  0  0  0  0
  137.9702   77.6512  222.6057 H   0  0  0  0  0  0  0  0  0  0  0  0
  137.3103   75.4195  221.7962 H   0  0  0  0  0  0  0  0  0  0  0  0
  141.4543   74.4111  221.2716 H   0  0  0  0  0  0  0  0  0  0  0  0
  142.1092   76.6492  222.0819 H   0  0  0  0  0  0  0  0  0  0  0  0
  141.5474   74.5387  217.2959 H   0  0  0  0  0  0  0  0  0  0  0  0
  142.9188   72.4636  217.4257 H   0  0  0  0  0  0  0  0  0  0  0  0
  144.7226   71.2426  218.4467 H   0  0  0  0  0  0  0  0  0  0  0  0
  146.5590   71.0773  220.0877 H   0  0  0  0  0  0  0  0  0  0  0  0
  147.0236   72.9978  221.6028 H   0  0  0  0  0  0  0  0  0  0  0  0
  145.6381   75.0781  221.4688 H   0  0  0  0  0  0  0  0  0  0  0  0
  1  2  2  0
  2  3  1  0
  3  4  1  0
  4  5  1  0
  5  6  2  0
  5  7  1  0
  7  8  1  0
  8  9  1  0
  9 10  1  0
 10 11  1  0
 11 12  1  0
 12 13  1  0
 13 14  1  0
 14 15  2  0
 15 16  1  0
 16 17  2  0
 17 18  1  0
 17 19  1  0
 19 20  2  0
  2 21  1  0
 21 22  2  0
 22 23  1  0
 23 24  2  0
 24 25  1  0
 25 26  2  0
 26 27  1  0
 27 28  2  0
 28 29  1  0
 29 30  2  0
 13  7  1  0
 20 14  1  0
 30 21  1  0
 29 24  1  0
  3 31  1  0
  4 32  1  0
  4 33  1  0
  8 34  1  0
  8 35  1  0
  9 36  1  0
  9 37  1  0
 10 38  1  0
 10 39  1  0
 11 40  1  0
 11 41  1  0
 12 42  1  0
 12 43  1  0
 13 44  1  1
 15 45  1  0
 16 46  1  0
 19 47  1  0
 20 48  1  0
 22 49  1  0
 23 50  1  0
 25 51  1  0
 26 52  1  0
 27 53  1  0
 28 54  1  0
M  END
>  <smiles>  (99) 
O=C(NCC(=O)N1CCCCCC1c1ccc(Cl)cc1)c1ccc2ccccc2n1

>  <score_type>  (99) 
oracle

>  <origin>  (99) 
autodockgpu

>  <m_score__min__energy>  (99) 
-6.8499999999999996

>  <m_primary>  (99) 
energy

>  <rmsd>  (99) 
7.4668824377298195

>  <m_score__min__rmsd>  (99) 
7.4668824377298195

>  <meeko>  (99) 
{"free_energy": -4.59, "intermolecular_energy": -7.87, "internal_energy": -2.68, "cluster_size": 4, "cluster_id": 11, "rank_in_cluster": 2}

>  <energy>  (99) 
-4.12

>  <cluster_rmsd>  (99) 
1.57

>  <cluster>  (99) 
11

$$$$

     RDKit          3D

 54 57  0  0  0  0  0  0  0  0999 V2000
  140.0910   72.8700  221.4550 O   0  0  0  0  0  0  0  0  0  0  0  0
  140.4230   71.6970  221.7740 C   0  0  0  0  0  0  0  0  0  0  0  0
  140.9810   70.8930  220.7380 N   0  0  0  0  0  0  0  0  0  0  0  0
  141.1040   71.5200  219.4270 C   0  0  0  0  0  0  0  0  0  0  0  0
  142.2050   70.8840  218.6420 C   0  0  0  0  0  0  0  0  0  0  0  0
  142.1520   70.9300  217.3930 O   0  0  0  0  0  0  0  0  0  0  0  0
  143.2580   70.2540  219.3600 N   0  0  0  0  0  0  0  0  0  0  0  0
  143.1380   68.8320  219.6570 C   0  0  0  0  0  0  0  0  0  0  0  0
  144.4680   68.2950  220.1220 C   0  0  0  0  0  0  0  0  0  0  0  0
  145.4070   68.3190  218.9360 C   0  0  0  0  0  0  0  0  0  0  0  0
  145.2550   69.5480  218.1050 C   0  0  0  0  0  0  0  0  0  0  0  0
  145.5200   70.8350  218.8480 C   0  0  0  0  0  0  0  0  0  0  0  0
  144.3320   71.1500  219.7030 C   0  0  1  0  0  0  0  0  0  0  0  0
  143.9230   72.5740  219.6330 C   0  0  0  0  0  0  0  0  0  0  0  0
  144.0510   73.3500  218.5000 C   0  0  0  0  0  0  0  0  0  0  0  0
  143.6560   74.6670  218.4950 C   0  0  0  0  0  0  0  0  0  0  0  0
  143.1150   75.2440  219.6400 C   0  0  0  0  0  0  0  0  0  0  0  0
  142.6040   76.9290  219.6470 Cl  0  0  0  0  0  0  0  0  0  0  0  0
  142.9920   74.4560  220.7730 C   0  0  0  0  0  0  0  0  0  0  0  0
  143.3880   73.1350  220.7780 C   0  0  0  0  0  0  0  0  0  0  0  0
  140.2600   71.1570  223.1160 C   0  0  0  0  0  0  0  0  0  0  0  0
  139.5560   69.9740  223.2580 C   0  0  0  0  0  0  0  0  0  0  0  0
  139.3890   69.4430  224.5190 C   0  0  0  0  0  0  0  0  0  0  0  0
  139.9270   70.1010  225.6140 C   0  0  0  0  0  0  0  0  0  0  0  0
  139.7730   69.5910  226.8860 C   0  0  0  0  0  0  0  0  0  0  0  0
  140.2990   70.2280  227.9820 C   0  0  0  0  0  0  0  0  0  0  0  0
  141.0000   71.4120  227.7990 C   0  0  0  0  0  0  0  0  0  0  0  0
  141.1700   71.9530  226.5220 C   0  0  0  0  0  0  0  0  0  0  0  0
  140.6260   71.2810  225.4440 C   0  0  0  0  0  0  0  0  0  0  0  0
  140.7810   71.7850  224.2090 N   0  0  0  0  0  0  0  0  0  0  0  0
  141.2880   69.9010  220.9060 H   0  0  0  0  0  0  0  0  0  0  0  0
  140.1565   71.4042  218.8804 H   0  0  0  0  0  0  0  0  0  0  0  0
  141.3359   72.5865  219.5639 H   0  0  0  0  0  0  0  0  0  0  0  0
  142.3880   68.6859  220.4483 H   0  0  0  0  0  0  0  0  0  0  0  0
  142.8265   68.2956  218.7486 H   0  0  0  0  0  0  0  0  0  0  0  0
  144.8666   68.9266  220.9296 H   0  0  0  0  0  0  0  0  0  0  0  0
  144.3588   67.2713  220.5094 H   0  0  0  0  0  0  0  0  0  0  0  0
  146.4419   68.2702  219.3057 H   0  0  0  0  0  0  0  0  0  0  0  0
  145.1605   67.4559  218.3001 H   0  0  0  0  0  0  0  0  0  0  0  0
  145.9602   69.4844  217.2631 H   0  0  0  0  0  0  0  0  0  0  0  0
  144.2046   69.5815  217.7801 H   0  0  0  0  0  0  0  0  0  0  0  0
  146.4117   70.7195  219.4817 H   0  0  0  0  0  0  0  0  0  0  0  0
  145.6932   71.6519  218.1320 H   0  0  0  0  0  0  0  0  0  0  0  0
  144.6121   70.9934  220.7551 H   0  0  0  0  0  0  0  0  0  0  0  0
  144.4756   72.9085  217.5863 H   0  0  0  0  0  0  0  0  0  0  0  0
  143.7683   75.2681  217.5806 H   0  0  0  0  0  0  0  0  0  0  0  0
  142.5690   74.8939  221.6891 H   0  0  0  0  0  0  0  0  0  0  0  0
  143.2786   72.5296  221.6899 H   0  0  0  0  0  0  0  0  0  0  0  0
  139.1360   69.4651  222.3778 H   0  0  0  0  0  0  0  0  0  0  0  0
  138.8328   68.5038  224.6554 H   0  0  0  0  0  0  0  0  0  0  0  0
  139.2161   68.6527  227.0253 H   0  0  0  0  0  0  0  0  0  0  0  0
  140.1671   69.8069  228.9896 H   0  0  0  0  0  0  0  0  0  0  0  0
  141.4269   71.9307  228.6700 H   0  0  0  0  0  0  0  0  0  0  0  0
  141.7241   72.8923  226.3781 H   0  0  0  0  0  0  0  0  0  0  0  0
  1  2  2  0
  2  3  1  0
  3  4  1  0
  4  5  1  0
  5  6  2  0
  5  7  1  0
  7  8  1  0
  8  9  1  0
  9 10  1  0
 10 11  1  0
 11 12  1  0
 12 13  1  0
 13 14  1  0
 14 15  2  0
 15 16  1  0
 16 17  2  0
 17 18  1  0
 17 19  1  0
 19 20  2  0
  2 21  1  0
 21 22  2  0
 22 23  1  0
 23 24  2  0
 24 25  1  0
 25 26  2  0
 26 27  1  0
 27 28  2  0
 28 29  1  0
 29 30  2  0
 13  7  1  0
 20 14  1  0
 30 21  1  0
 29 24  1  0
  3 31  1  0
  4 32  1  0
  4 33  1  0
  8 34  1  0
  8 35  1  0
  9 36  1  0
  9 37  1  0
 10 38  1  0
 10 39  1  0
 11 40  1  0
 11 41  1  0
 12 42  1  0
 12 43  1  0
 13 44  1  1
 15 45  1  0
 16 46  1  0
 19 47  1  0
 20 48  1  0
 22 49  1  0
 23 50  1  0
 25 51  1  0
 26 52  1  0
 27 53  1  0
 28 54  1  0
M  END
>  <smiles>  (100) 
O=C(NCC(=O)N1CCCCCC1c1ccc(Cl)cc1)c1ccc2ccccc2n1

>  <score_type>  (100) 
oracle

>  <origin>  (100) 
autodockgpu

>  <m_score__min__energy>  (100) 
-6.8499999999999996

>  <m_primary>  (100) 
energy

>  <rmsd>  (100) 
4.995919742360261

>  <m_score__min__rmsd>  (100) 
4.995919742360261

>  <meeko>  (100) 
{"free_energy": -4.82, "intermolecular_energy": -8.11, "internal_energy": -1.85, "cluster_size": 2, "cluster_id": 9, "rank_in_cluster": 2}

>  <energy>  (100) 
-4.69

>  <cluster_rmsd>  (100) 
0.0

>  <cluster>  (100) 
12

$$$$
