
     RDKit          3D

 56 59  0  0  0  0  0  0  0  0999 V2000
  139.5930   71.3920  220.9740 O   0  0  0  0  0  0  0  0  0  0  0  0
  139.7080   71.8820  222.1310 C   0  0  0  0  0  0  0  0  0  0  0  0
  139.8320   73.2700  222.3050 N   0  0  0  0  0  0  0  0  0  0  0  0
  139.8270   74.1350  221.1610 C   0  0  0  0  0  0  0  0  0  0  0  0
  140.8020   73.7040  220.1250 C   0  0  0  0  0  0  0  0  0  0  0  0
  140.3870   73.3640  218.9710 O   0  0  0  0  0  0  0  0  0  0  0  0
  142.1770   73.6820  220.4460 N   0  0  0  0  0  0  0  0  0  0  0  0
  142.9780   72.5080  220.8310 C   0  0  0  0  0  0  0  0  0  0  0  0
  144.3940   72.8350  220.3990 C   0  0  2  0  0  0  0  0  0  0  0  0
  145.2200   73.0420  221.5240 O   0  0  0  0  0  0  0  0  0  0  0  0
  144.2610   74.1840  219.6860 C   0  0  0  0  0  0  0  0  0  0  0  0
  143.1170   74.7850  220.4750 C   0  0  1  0  0  0  0  0  0  0  0  0
  142.5870   76.0220  219.8070 C   0  0  0  0  0  0  0  0  0  0  0  0
  141.6020   76.6150  220.5790 O   0  0  0  0  0  0  0  0  0  0  0  0
  141.4810   77.9790  220.3150 C   0  0  0  0  0  0  0  0  0  0  0  0
  141.7160   78.7840  221.5420 C   0  0  0  0  0  0  0  0  0  0  0  0
  142.1970   80.0770  221.5200 C   0  0  0  0  0  0  0  0  0  0  0  0
  142.4160   80.8260  222.6550 C   0  0  0  0  0  0  0  0  0  0  0  0
  142.1540   80.2870  223.8910 C   0  0  0  0  0  0  0  0  0  0  0  0
  141.6730   78.9950  223.9280 C   0  0  0  0  0  0  0  0  0  0  0  0
  141.4510   78.2400  222.7970 C   0  0  0  0  0  0  0  0  0  0  0  0
  139.7180   71.0280  223.3370 C   0  0  0  0  0  0  0  0  0  0  0  0
  139.2070   69.7400  223.3120 C   0  0  0  0  0  0  0  0  0  0  0  0
  139.2370   68.9690  224.4780 C   0  0  0  0  0  0  0  0  0  0  0  0
  139.7670   69.4670  225.6540 C   0  0  0  0  0  0  0  0  0  0  0  0
  139.8180   68.7440  226.8240 C   0  0  0  0  0  0  0  0  0  0  0  0
  140.3530   69.2530  227.9950 C   0  0  0  0  0  0  0  0  0  0  0  0
  140.4000   68.5350  229.1490 F   0  0  0  0  0  0  0  0  0  0  0  0
  140.8450   70.5430  227.9470 C   0  0  0  0  0  0  0  0  0  0  0  0
  140.8050   71.2980  226.7760 C   0  0  0  0  0  0  0  0  0  0  0  0
  140.2630   70.7490  225.6290 C   0  0  0  0  0  0  0  0  0  0  0  0
  140.2250   71.4680  224.5080 N   0  0  0  0  0  0  0  0  0  0  0  0
  139.9280   73.6880  223.2560 H   0  0  0  0  0  0  0  0  0  0  0  0
  138.8190   74.1337  220.7207 H   0  0  0  0  0  0  0  0  0  0  0  0
  140.1162   75.1413  221.4981 H   0  0  0  0  0  0  0  0  0  0  0  0
  142.9331   72.3501  221.9187 H   0  0  0  0  0  0  0  0  0  0  0  0
  142.6073   71.5850  220.3613 H   0  0  0  0  0  0  0  0  0  0  0  0
  144.8260   72.0295  219.7870 H   0  0  0  0  0  0  0  0  0  0  0  0
  145.5810   72.1890  221.8740 H   0  0  0  0  0  0  0  0  0  0  0  0
  145.1782   74.7848  219.7743 H   0  0  0  0  0  0  0  0  0  0  0  0
  144.0931   74.1205  218.6007 H   0  0  0  0  0  0  0  0  0  0  0  0
  143.3697   75.1291  221.4888 H   0  0  0  0  0  0  0  0  0  0  0  0
  143.4116   76.7359  219.6640 H   0  0  0  0  0  0  0  0  0  0  0  0
  142.1520   75.7396  218.8370 H   0  0  0  0  0  0  0  0  0  0  0  0
  142.2196   78.2641  219.5513 H   0  0  0  0  0  0  0  0  0  0  0  0
  140.4596   78.1766  219.9576 H   0  0  0  0  0  0  0  0  0  0  0  0
  142.4173   80.5340  220.5440 H   0  0  0  0  0  0  0  0  0  0  0  0
  142.7998   81.8535  222.5718 H   0  0  0  0  0  0  0  0  0  0  0  0
  142.3210   80.8623  224.8136 H   0  0  0  0  0  0  0  0  0  0  0  0
  141.4560   78.5454  224.9082 H   0  0  0  0  0  0  0  0  0  0  0  0
  141.0665   77.2131  222.8845 H   0  0  0  0  0  0  0  0  0  0  0  0
  138.7822   69.3286  222.3845 H   0  0  0  0  0  0  0  0  0  0  0  0
  138.8312   67.9467  224.4594 H   0  0  0  0  0  0  0  0  0  0  0  0
  139.4172   67.7196  226.8289 H   0  0  0  0  0  0  0  0  0  0  0  0
  141.2792   70.9854  228.8557 H   0  0  0  0  0  0  0  0  0  0  0  0
  141.2020   72.3238  226.7647 H   0  0  0  0  0  0  0  0  0  0  0  0
  1  2  2  0
  2  3  1  0
  3  4  1  0
  4  5  1  0
  5  6  2  0
  5  7  1  0
  7  8  1  0
  8  9  1  0
  9 10  1  0
  9 11  1  0
 11 12  1  0
 12 13  1  0
 13 14  1  0
 14 15  1  0
 15 16  1  0
 16 17  2  0
 17 18  1  0
 18 19  2  0
 19 20  1  0
 20 21  2  0
  2 22  1  0
 22 23  2  0
 23 24  1  0
 24 25  2  0
 25 26  1  0
 26 27  2  0
 27 28  1  0
 27 29  1  0
 29 30  2  0
 30 31  1  0
 31 32  2  0
 12  7  1  0
 21 16  1  0
 32 22  1  0
 31 25  1  0
  3 33  1  0
  4 34  1  0
  4 35  1  0
  8 36  1  0
  8 37  1  0
  9 38  1  6
 10 39  1  0
 11 40  1  0
 11 41  1  0
 12 42  1  1
 13 43  1  0
 13 44  1  0
 15 45  1  0
 15 46  1  0
 17 47  1  0
 18 48  1  0
 19 49  1  0
 20 50  1  0
 21 51  1  0
 23 52  1  0
 24 53  1  0
 26 54  1  0
 29 55  1  0
 30 56  1  0
M  END
>  <smiles>  (1) 
O=C(NCC(=O)N1C[C@H](O)C[C@H]1COCc1ccccc1)c1ccc2cc(F)ccc2n1

>  <score_type>  (1) 
oracle

>  <origin>  (1) 
autodockgpu

>  <m_score__min__energy>  (1) 
-9.4199999999999999

>  <m_primary>  (1) 
energy

>  <rmsd>  (1) 
2.9098391497498546

>  <m_score__min__rmsd>  (1) 
2.9098391497498546

>  <meeko>  (1) 
{"free_energy": -8.68, "intermolecular_energy": -11.36, "internal_energy": -1.73, "cluster_size": 28, "cluster_id": 1, "rank_in_cluster": 12}

>  <energy>  (1) 
-9.42

>  <cluster_rmsd>  (1) 
0.0

>  <cluster>  (1) 
1

$$$$

     RDKit          3D

 56 59  0  0  0  0  0  0  0  0999 V2000
  140.5640   71.5280  221.0990 O   0  0  0  0  0  0  0  0  0  0  0  0
  140.1460   71.9850  222.1980 C   0  0  0  0  0  0  0  0  0  0  0  0
  139.8070   73.3430  222.3220 N   0  0  0  0  0  0  0  0  0  0  0  0
  139.9370   74.2150  221.1900 C   0  0  0  0  0  0  0  0  0  0  0  0
  141.1150   75.1140  221.3040 C   0  0  0  0  0  0  0  0  0  0  0  0
  141.2470   75.8530  222.3320 O   0  0  0  0  0  0  0  0  0  0  0  0
  142.0680   75.1290  220.2620 N   0  0  0  0  0  0  0  0  0  0  0  0
  142.5570   73.9720  219.4930 C   0  0  0  0  0  0  0  0  0  0  0  0
  142.9660   74.5370  218.1460 C   0  0  2  0  0  0  0  0  0  0  0  0
  144.3670   74.4940  217.9960 O   0  0  0  0  0  0  0  0  0  0  0  0
  142.5690   76.0140  218.2280 C   0  0  0  0  0  0  0  0  0  0  0  0
  142.7830   76.2600  219.7060 C   0  0  1  0  0  0  0  0  0  0  0  0
  142.2030   77.5810  220.1260 C   0  0  0  0  0  0  0  0  0  0  0  0
  140.8230   77.5750  220.0030 O   0  0  0  0  0  0  0  0  0  0  0  0
  140.2460   78.7290  220.5330 C   0  0  0  0  0  0  0  0  0  0  0  0
  141.0470   79.2530  221.6700 C   0  0  0  0  0  0  0  0  0  0  0  0
  141.8510   80.3710  221.5800 C   0  0  0  0  0  0  0  0  0  0  0  0
  142.5940   80.8600  222.6320 C   0  0  0  0  0  0  0  0  0  0  0  0
  142.5570   80.2240  223.8490 C   0  0  0  0  0  0  0  0  0  0  0  0
  141.7570   79.1050  223.9530 C   0  0  0  0  0  0  0  0  0  0  0  0
  141.0110   78.6100  222.9060 C   0  0  0  0  0  0  0  0  0  0  0  0
  139.9980   71.1230  223.3890 C   0  0  0  0  0  0  0  0  0  0  0  0
  139.3950   69.8770  223.3070 C   0  0  0  0  0  0  0  0  0  0  0  0
  139.2760   69.0960  224.4600 C   0  0  0  0  0  0  0  0  0  0  0  0
  139.7490   69.5430  225.6800 C   0  0  0  0  0  0  0  0  0  0  0  0
  139.6540   68.8080  226.8410 C   0  0  0  0  0  0  0  0  0  0  0  0
  140.1320   69.2660  228.0560 C   0  0  0  0  0  0  0  0  0  0  0  0
  140.0350   68.5360  229.2000 F   0  0  0  0  0  0  0  0  0  0  0  0
  140.7210   70.5150  228.0650 C   0  0  0  0  0  0  0  0  0  0  0  0
  140.8300   71.2810  226.9060 C   0  0  0  0  0  0  0  0  0  0  0  0
  140.3400   70.7840  225.7120 C   0  0  0  0  0  0  0  0  0  0  0  0
  140.4430   71.5130  224.6020 N   0  0  0  0  0  0  0  0  0  0  0  0
  139.4610   73.7320  223.2250 H   0  0  0  0  0  0  0  0  0  0  0  0
  140.0454   73.6030  220.2824 H   0  0  0  0  0  0  0  0  0  0  0  0
  139.0360   74.8444  221.1443 H   0  0  0  0  0  0  0  0  0  0  0  0
  143.4195   73.5105  219.9962 H   0  0  0  0  0  0  0  0  0  0  0  0
  141.7912   73.1883  219.3958 H   0  0  0  0  0  0  0  0  0  0  0  0
  142.5046   73.9800  217.3173 H   0  0  0  0  0  0  0  0  0  0  0  0
  144.7500   75.3990  217.8740 H   0  0  0  0  0  0  0  0  0  0  0  0
  143.2219   76.6475  217.6096 H   0  0  0  0  0  0  0  0  0  0  0  0
  141.5578   76.2438  217.8610 H   0  0  0  0  0  0  0  0  0  0  0  0
  143.8327   76.3258  220.0281 H   0  0  0  0  0  0  0  0  0  0  0  0
  142.4705   77.7748  221.1752 H   0  0  0  0  0  0  0  0  0  0  0  0
  142.6111   78.3678  219.4746 H   0  0  0  0  0  0  0  0  0  0  0  0
  140.1917   79.4971  219.7474 H   0  0  0  0  0  0  0  0  0  0  0  0
  139.2393   78.4799  220.8998 H   0  0  0  0  0  0  0  0  0  0  0  0
  141.9013   80.8999  220.6168 H   0  0  0  0  0  0  0  0  0  0  0  0
  143.2154   81.7577  222.4978 H   0  0  0  0  0  0  0  0  0  0  0  0
  143.1413   80.5918  224.7054 H   0  0  0  0  0  0  0  0  0  0  0  0
  141.7126   78.5821  224.9198 H   0  0  0  0  0  0  0  0  0  0  0  0
  140.3905   77.7124  223.0447 H   0  0  0  0  0  0  0  0  0  0  0  0
  139.0140   69.5068  222.3438 H   0  0  0  0  0  0  0  0  0  0  0  0
  138.7973   68.1077  224.3957 H   0  0  0  0  0  0  0  0  0  0  0  0
  139.1789   67.8167  226.8006 H   0  0  0  0  0  0  0  0  0  0  0  0
  141.1141   70.9154  229.0111 H   0  0  0  0  0  0  0  0  0  0  0  0
  141.3024   72.2738  226.9405 H   0  0  0  0  0  0  0  0  0  0  0  0
  1  2  2  0
  2  3  1  0
  3  4  1  0
  4  5  1  0
  5  6  2  0
  5  7  1  0
  7  8  1  0
  8  9  1  0
  9 10  1  0
  9 11  1  0
 11 12  1  0
 12 13  1  0
 13 14  1  0
 14 15  1  0
 15 16  1  0
 16 17  2  0
 17 18  1  0
 18 19  2  0
 19 20  1  0
 20 21  2  0
  2 22  1  0
 22 23  2  0
 23 24  1  0
 24 25  2  0
 25 26  1  0
 26 27  2  0
 27 28  1  0
 27 29  1  0
 29 30  2  0
 30 31  1  0
 31 32  2  0
 12  7  1  0
 21 16  1  0
 32 22  1  0
 31 25  1  0
  3 33  1  0
  4 34  1  0
  4 35  1  0
  8 36  1  0
  8 37  1  0
  9 38  1  6
 10 39  1  0
 11 40  1  0
 11 41  1  0
 12 42  1  6
 13 43  1  0
 13 44  1  0
 15 45  1  0
 15 46  1  0
 17 47  1  0
 18 48  1  0
 19 49  1  0
 20 50  1  0
 21 51  1  0
 23 52  1  0
 24 53  1  0
 26 54  1  0
 29 55  1  0
 30 56  1  0
M  END
>  <smiles>  (2) 
O=C(NCC(=O)N1C[C@H](O)C[C@H]1COCc1ccccc1)c1ccc2cc(F)ccc2n1

>  <score_type>  (2) 
oracle

>  <origin>  (2) 
autodockgpu

>  <m_score__min__energy>  (2) 
-9.4199999999999999

>  <m_primary>  (2) 
energy

>  <rmsd>  (2) 
1.8688631605470745

>  <m_score__min__rmsd>  (2) 
1.8688631605470745

>  <meeko>  (2) 
{"free_energy": -8.61, "intermolecular_energy": -11.29, "internal_energy": -1.68, "cluster_size": 28, "cluster_id": 1, "rank_in_cluster": 16}

>  <energy>  (2) 
-8.95

>  <cluster_rmsd>  (2) 
1.14

>  <cluster>  (2) 
1

$$$$

     RDKit          3D

 56 59  0  0  0  0  0  0  0  0999 V2000
  138.8240   74.9630  222.0080 O   0  0  0  0  0  0  0  0  0  0  0  0
  139.9630   75.5030  221.9710 C   0  0  0  0  0  0  0  0  0  0  0  0
  141.0700   74.7970  221.4720 N   0  0  0  0  0  0  0  0  0  0  0  0
  140.9020   73.4520  221.0000 C   0  0  0  0  0  0  0  0  0  0  0  0
  141.4820   73.2540  219.6450 C   0  0  0  0  0  0  0  0  0  0  0  0
  140.7230   72.9310  218.6760 O   0  0  0  0  0  0  0  0  0  0  0  0
  142.8710   73.4320  219.4630 N   0  0  0  0  0  0  0  0  0  0  0  0
  143.9180   72.4050  219.5850 C   0  0  0  0  0  0  0  0  0  0  0  0
  145.0350   72.8680  218.6700 C   0  0  2  0  0  0  0  0  0  0  0  0
  146.1570   73.2720  219.4240 O   0  0  0  0  0  0  0  0  0  0  0  0
  144.4690   74.1230  218.0000 C   0  0  0  0  0  0  0  0  0  0  0  0
  143.5900   74.6420  219.1180 C   0  0  1  0  0  0  0  0  0  0  0  0
  142.6870   75.7410  218.6340 C   0  0  0  0  0  0  0  0  0  0  0  0
  142.2440   76.5170  219.6930 O   0  0  0  0  0  0  0  0  0  0  0  0
  141.0760   77.2110  219.3790 C   0  0  0  0  0  0  0  0  0  0  0  0
  141.3210   78.6750  219.3320 C   0  0  0  0  0  0  0  0  0  0  0  0
  140.5510   79.5960  220.0140 C   0  0  0  0  0  0  0  0  0  0  0  0
  140.7750   80.9540  219.9730 C   0  0  0  0  0  0  0  0  0  0  0  0
  141.8120   81.4540  219.2230 C   0  0  0  0  0  0  0  0  0  0  0  0
  142.5910   80.5440  218.5370 C   0  0  0  0  0  0  0  0  0  0  0  0
  142.3720   79.1850  218.5730 C   0  0  0  0  0  0  0  0  0  0  0  0
  140.1810   76.8850  222.4470 C   0  0  0  0  0  0  0  0  0  0  0  0
  139.1190   77.6910  222.8300 C   0  0  0  0  0  0  0  0  0  0  0  0
  139.3730   78.9930  223.2730 C   0  0  0  0  0  0  0  0  0  0  0  0
  140.6610   79.4910  223.3360 C   0  0  0  0  0  0  0  0  0  0  0  0
  140.9580   80.7640  223.7660 C   0  0  0  0  0  0  0  0  0  0  0  0
  142.2520   81.2510  223.8250 C   0  0  0  0  0  0  0  0  0  0  0  0
  142.5390   82.5110  224.2500 F   0  0  0  0  0  0  0  0  0  0  0  0
  143.2600   80.3940  223.4290 C   0  0  0  0  0  0  0  0  0  0  0  0
  142.9890   79.1000  222.9890 C   0  0  0  0  0  0  0  0  0  0  0  0
  141.6810   78.6540  222.9470 C   0  0  0  0  0  0  0  0  0  0  0  0
  141.4180   77.4170  222.5270 N   0  0  0  0  0  0  0  0  0  0  0  0
  142.0170   75.2320  221.4370 H   0  0  0  0  0  0  0  0  0  0  0  0
  141.3992   72.7660  221.7016 H   0  0  0  0  0  0  0  0  0  0  0  0
  139.8227   73.2491  220.9375 H   0  0  0  0  0  0  0  0  0  0  0  0
  144.2731   72.3372  220.6239 H   0  0  0  0  0  0  0  0  0  0  0  0
  143.5487   71.4057  219.3111 H   0  0  0  0  0  0  0  0  0  0  0  0
  145.3438   72.0733  217.9750 H   0  0  0  0  0  0  0  0  0  0  0  0
  146.3180   74.2470  219.3450 H   0  0  0  0  0  0  0  0  0  0  0  0
  145.2618   74.8390  217.7378 H   0  0  0  0  0  0  0  0  0  0  0  0
  143.9504   73.9460  217.0462 H   0  0  0  0  0  0  0  0  0  0  0  0
  144.1215   75.1013  219.9645 H   0  0  0  0  0  0  0  0  0  0  0  0
  143.2402   76.3773  217.9275 H   0  0  0  0  0  0  0  0  0  0  0  0
  141.8147   75.2883  218.1400 H   0  0  0  0  0  0  0  0  0  0  0  0
  140.7119   76.8758  218.3966 H   0  0  0  0  0  0  0  0  0  0  0  0
  140.3275   77.0066  220.1587 H   0  0  0  0  0  0  0  0  0  0  0  0
  139.7134   79.2249  220.6229 H   0  0  0  0  0  0  0  0  0  0  0  0
  140.1251   81.6371  220.5395 H   0  0  0  0  0  0  0  0  0  0  0  0
  142.0130   82.5342  219.1714 H   0  0  0  0  0  0  0  0  0  0  0  0
  143.4278   80.9231  217.9319 H   0  0  0  0  0  0  0  0  0  0  0  0
  143.0240   78.5051  218.0050 H   0  0  0  0  0  0  0  0  0  0  0  0
  138.0880   77.3101  222.7858 H   0  0  0  0  0  0  0  0  0  0  0  0
  138.5317   79.6331  223.5771 H   0  0  0  0  0  0  0  0  0  0  0  0
  140.1325   81.4218  224.0757 H   0  0  0  0  0  0  0  0  0  0  0  0
  144.3031   80.7417  223.4618 H   0  0  0  0  0  0  0  0  0  0  0  0
  143.8101   78.4378  222.6772 H   0  0  0  0  0  0  0  0  0  0  0  0
  1  2  2  0
  2  3  1  0
  3  4  1  0
  4  5  1  0
  5  6  2  0
  5  7  1  0
  7  8  1  0
  8  9  1  0
  9 10  1  0
  9 11  1  0
 11 12  1  0
 12 13  1  0
 13 14  1  0
 14 15  1  0
 15 16  1  0
 16 17  2  0
 17 18  1  0
 18 19  2  0
 19 20  1  0
 20 21  2  0
  2 22  1  0
 22 23  2  0
 23 24  1  0
 24 25  2  0
 25 26  1  0
 26 27  2  0
 27 28  1  0
 27 29  1  0
 29 30  2  0
 30 31  1  0
 31 32  2  0
 12  7  1  0
 21 16  1  0
 32 22  1  0
 31 25  1  0
  3 33  1  0
  4 34  1  0
  4 35  1  0
  8 36  1  0
  8 37  1  0
  9 38  1  6
 10 39  1  0
 11 40  1  0
 11 41  1  0
 12 42  1  1
 13 43  1  0
 13 44  1  0
 15 45  1  0
 15 46  1  0
 17 47  1  0
 18 48  1  0
 19 49  1  0
 20 50  1  0
 21 51  1  0
 23 52  1  0
 24 53  1  0
 26 54  1  0
 29 55  1  0
 30 56  1  0
M  END
>  <smiles>  (3) 
O=C(NCC(=O)N1C[C@H](O)C[C@H]1COCc1ccccc1)c1ccc2cc(F)ccc2n1

>  <score_type>  (3) 
oracle

>  <origin>  (3) 
autodockgpu

>  <m_score__min__energy>  (3) 
-9.4199999999999999

>  <m_primary>  (3) 
energy

>  <rmsd>  (3) 
7.775973632776528

>  <m_score__min__rmsd>  (3) 
7.775973632776528

>  <meeko>  (3) 
{"free_energy": -6.08, "intermolecular_energy": -8.76, "internal_energy": -3.77, "cluster_size": 6, "cluster_id": 8, "rank_in_cluster": 2}

>  <energy>  (3) 
-8.94

>  <cluster_rmsd>  (3) 
1.2

>  <cluster>  (3) 
1

$$$$

     RDKit          3D

 56 59  0  0  0  0  0  0  0  0999 V2000
  137.4690   74.6190  221.5370 O   0  0  0  0  0  0  0  0  0  0  0  0
  138.6720   74.5780  221.9140 C   0  0  0  0  0  0  0  0  0  0  0  0
  139.2430   73.3690  222.3430 N   0  0  0  0  0  0  0  0  0  0  0  0
  138.4520   72.1720  222.3520 C   0  0  0  0  0  0  0  0  0  0  0  0
  139.2700   70.9590  222.6160 C   0  0  0  0  0  0  0  0  0  0  0  0
  140.4810   71.0830  222.9870 O   0  0  0  0  0  0  0  0  0  0  0  0
  138.6800   69.6860  222.4500 N   0  0  0  0  0  0  0  0  0  0  0  0
  138.5000   68.9530  221.1860 C   0  0  0  0  0  0  0  0  0  0  0  0
  138.4960   67.4870  221.5760 C   0  0  2  0  0  0  0  0  0  0  0  0
  137.2110   66.9330  221.4080 O   0  0  0  0  0  0  0  0  0  0  0  0
  138.7840   67.5040  223.0800 C   0  0  0  0  0  0  0  0  0  0  0  0
  138.1200   68.8100  223.4590 C   0  0  1  0  0  0  0  0  0  0  0  0
  138.4850   69.2210  224.8570 C   0  0  0  0  0  0  0  0  0  0  0  0
  138.8470   68.1190  225.6160 O   0  0  0  0  0  0  0  0  0  0  0  0
  140.1460   68.2290  226.1120 C   0  0  0  0  0  0  0  0  0  0  0  0
  140.4060   69.5990  226.6270 C   0  0  0  0  0  0  0  0  0  0  0  0
  141.1350   70.5430  225.9340 C   0  0  0  0  0  0  0  0  0  0  0  0
  141.3780   71.8140  226.4070 C   0  0  0  0  0  0  0  0  0  0  0  0
  140.8840   72.1930  227.6320 C   0  0  0  0  0  0  0  0  0  0  0  0
  140.1530   71.2580  228.3360 C   0  0  0  0  0  0  0  0  0  0  0  0
  139.9060   69.9860  227.8680 C   0  0  0  0  0  0  0  0  0  0  0  0
  139.5220   75.7870  221.9220 C   0  0  0  0  0  0  0  0  0  0  0  0
  140.6730   75.8640  221.1540 C   0  0  0  0  0  0  0  0  0  0  0  0
  141.4480   77.0270  221.1940 C   0  0  0  0  0  0  0  0  0  0  0  0
  141.0860   78.1020  221.9850 C   0  0  0  0  0  0  0  0  0  0  0  0
  141.8170   79.2660  222.0560 C   0  0  0  0  0  0  0  0  0  0  0  0
  141.4440   80.3360  222.8510 C   0  0  0  0  0  0  0  0  0  0  0  0
  142.1700   81.4840  222.9170 F   0  0  0  0  0  0  0  0  0  0  0  0
  140.2860   80.1910  223.5890 C   0  0  0  0  0  0  0  0  0  0  0  0
  139.5270   79.0230  223.5380 C   0  0  0  0  0  0  0  0  0  0  0  0
  139.9360   77.9800  222.7290 C   0  0  0  0  0  0  0  0  0  0  0  0
  139.2130   76.8620  222.6770 N   0  0  0  0  0  0  0  0  0  0  0  0
  140.2360   73.3230  222.6580 H   0  0  0  0  0  0  0  0  0  0  0  0
  137.6858   72.2599  223.1363 H   0  0  0  0  0  0  0  0  0  0  0  0
  137.9963   72.0614  221.3569 H   0  0  0  0  0  0  0  0  0  0  0  0
  137.5465   69.2290  220.7120 H   0  0  0  0  0  0  0  0  0  0  0  0
  139.2929   69.1839  220.4594 H   0  0  0  0  0  0  0  0  0  0  0  0
  139.2116   66.9070  220.9748 H   0  0  0  0  0  0  0  0  0  0  0  0
  136.8860   67.0360  220.4780 H   0  0  0  0  0  0  0  0  0  0  0  0
  138.3232   66.6474  223.5937 H   0  0  0  0  0  0  0  0  0  0  0  0
  139.8479   67.4295  223.3492 H   0  0  0  0  0  0  0  0  0  0  0  0
  137.0202   68.7943  223.4757 H   0  0  0  0  0  0  0  0  0  0  0  0
  139.3297   69.9244  224.8170 H   0  0  0  0  0  0  0  0  0  0  0  0
  137.6106   69.6983  225.3235 H   0  0  0  0  0  0  0  0  0  0  0  0
  140.2811   67.5058  226.9297 H   0  0  0  0  0  0  0  0  0  0  0  0
  140.8518   68.0226  225.2940 H   0  0  0  0  0  0  0  0  0  0  0  0
  141.5442   70.2662  224.9512 H   0  0  0  0  0  0  0  0  0  0  0  0
  141.9657   72.5233  225.8058 H   0  0  0  0  0  0  0  0  0  0  0  0
  141.0639   73.2006  228.0350 H   0  0  0  0  0  0  0  0  0  0  0  0
  139.7479   71.5420  229.3184 H   0  0  0  0  0  0  0  0  0  0  0  0
  139.3169   69.2796  228.4714 H   0  0  0  0  0  0  0  0  0  0  0  0
  140.9741   75.0179  220.5188 H   0  0  0  0  0  0  0  0  0  0  0  0
  142.3622   77.0880  220.5853 H   0  0  0  0  0  0  0  0  0  0  0  0
  142.7354   79.3494  221.4563 H   0  0  0  0  0  0  0  0  0  0  0  0
  139.9540   81.0183  224.2336 H   0  0  0  0  0  0  0  0  0  0  0  0
  138.6091   78.9322  224.1374 H   0  0  0  0  0  0  0  0  0  0  0  0
  1  2  2  0
  2  3  1  0
  3  4  1  0
  4  5  1  0
  5  6  2  0
  5  7  1  0
  7  8  1  0
  8  9  1  0
  9 10  1  0
  9 11  1  0
 11 12  1  0
 12 13  1  0
 13 14  1  0
 14 15  1  0
 15 16  1  0
 16 17  2  0
 17 18  1  0
 18 19  2  0
 19 20  1  0
 20 21  2  0
  2 22  1  0
 22 23  2  0
 23 24  1  0
 24 25  2  0
 25 26  1  0
 26 27  2  0
 27 28  1  0
 27 29  1  0
 29 30  2  0
 30 31  1  0
 31 32  2  0
 12  7  1  0
 21 16  1  0
 32 22  1  0
 31 25  1  0
  3 33  1  0
  4 34  1  0
  4 35  1  0
  8 36  1  0
  8 37  1  0
  9 38  1  6
 10 39  1  0
 11 40  1  0
 11 41  1  0
 12 42  1  1
 13 43  1  0
 13 44  1  0
 15 45  1  0
 15 46  1  0
 17 47  1  0
 18 48  1  0
 19 49  1  0
 20 50  1  0
 21 51  1  0
 23 52  1  0
 24 53  1  0
 26 54  1  0
 29 55  1  0
 30 56  1  0
M  END
>  <smiles>  (4) 
O=C(NCC(=O)N1C[C@H](O)C[C@H]1COCc1ccccc1)c1ccc2cc(F)ccc2n1

>  <score_type>  (4) 
oracle

>  <origin>  (4) 
autodockgpu

>  <m_score__min__energy>  (4) 
-9.4199999999999999

>  <m_primary>  (4) 
energy

>  <rmsd>  (4) 
8.473679473330282

>  <m_score__min__rmsd>  (4) 
8.473679473330282

>  <meeko>  (4) 
{"free_energy": -7.85, "intermolecular_energy": -10.54, "internal_energy": -2.05, "cluster_size": 3, "cluster_id": 4, "rank_in_cluster": 2}

>  <energy>  (4) 
-8.93

>  <cluster_rmsd>  (4) 
1.24

>  <cluster>  (4) 
1

$$$$

     RDKit          3D

 56 59  0  0  0  0  0  0  0  0999 V2000
  141.0520   71.9150  221.0490 O   0  0  0  0  0  0  0  0  0  0  0  0
  140.5020   72.3870  222.0820 C   0  0  0  0  0  0  0  0  0  0  0  0
  140.1440   73.7440  222.1390 N   0  0  0  0  0  0  0  0  0  0  0  0
  140.4040   74.5980  221.0160 C   0  0  0  0  0  0  0  0  0  0  0  0
  140.7930   75.9710  221.4300 C   0  0  0  0  0  0  0  0  0  0  0  0
  140.7050   76.3090  222.6540 O   0  0  0  0  0  0  0  0  0  0  0  0
  141.2560   76.8760  220.4500 N   0  0  0  0  0  0  0  0  0  0  0  0
  142.5540   76.8430  219.7560 C   0  0  0  0  0  0  0  0  0  0  0  0
  142.3050   77.5110  218.4180 C   0  0  2  0  0  0  0  0  0  0  0  0
  142.9600   78.7580  218.3570 O   0  0  0  0  0  0  0  0  0  0  0  0
  140.8000   77.7950  218.4200 C   0  0  0  0  0  0  0  0  0  0  0  0
  140.5820   78.0350  219.8990 C   0  0  1  0  0  0  0  0  0  0  0  0
  139.1180   78.0730  220.2340 C   0  0  0  0  0  0  0  0  0  0  0  0
  138.9160   78.5870  221.5040 O   0  0  0  0  0  0  0  0  0  0  0  0
  139.2360   79.9430  221.5770 C   0  0  0  0  0  0  0  0  0  0  0  0
  140.4540   80.1600  222.3990 C   0  0  0  0  0  0  0  0  0  0  0  0
  141.0590   81.3920  222.5480 C   0  0  0  0  0  0  0  0  0  0  0  0
  142.1880   81.5980  223.3100 C   0  0  0  0  0  0  0  0  0  0  0  0
  142.7710   80.5420  223.9680 C   0  0  0  0  0  0  0  0  0  0  0  0
  142.1770   79.3040  223.8280 C   0  0  0  0  0  0  0  0  0  0  0  0
  141.0470   79.0910  223.0680 C   0  0  0  0  0  0  0  0  0  0  0  0
  140.2160   71.5450  223.2610 C   0  0  0  0  0  0  0  0  0  0  0  0
  139.5010   70.3620  223.1470 C   0  0  0  0  0  0  0  0  0  0  0  0
  139.2540   69.5980  224.2910 C   0  0  0  0  0  0  0  0  0  0  0  0
  139.7080   69.9990  225.5330 C   0  0  0  0  0  0  0  0  0  0  0  0
  139.4890   69.2780  226.6860 C   0  0  0  0  0  0  0  0  0  0  0  0
  139.9500   69.6900  227.9240 C   0  0  0  0  0  0  0  0  0  0  0  0
  139.7300   68.9740  229.0590 F   0  0  0  0  0  0  0  0  0  0  0  0
  140.6550   70.8770  227.9640 C   0  0  0  0  0  0  0  0  0  0  0  0
  140.8910   71.6270  226.8140 C   0  0  0  0  0  0  0  0  0  0  0  0
  140.4130   71.1780  225.5970 C   0  0  0  0  0  0  0  0  0  0  0  0
  140.6380   71.8920  224.4950 N   0  0  0  0  0  0  0  0  0  0  0  0
  139.6890   74.1470  222.9870 H   0  0  0  0  0  0  0  0  0  0  0  0
  141.2213   74.1626  220.4222 H   0  0  0  0  0  0  0  0  0  0  0  0
  139.4769   74.6735  220.4288 H   0  0  0  0  0  0  0  0  0  0  0  0
  143.3122   77.3971  220.3289 H   0  0  0  0  0  0  0  0  0  0  0  0
  142.9326   75.8168  219.6396 H   0  0  0  0  0  0  0  0  0  0  0  0
  142.6562   76.8863  217.5835 H   0  0  0  0  0  0  0  0  0  0  0  0
  143.4880   78.8540  217.5240 H   0  0  0  0  0  0  0  0  0  0  0  0
  140.5510   78.6833  217.8209 H   0  0  0  0  0  0  0  0  0  0  0  0
  140.1773   77.0011  217.9819 H   0  0  0  0  0  0  0  0  0  0  0  0
  140.9580   78.9946  220.2834 H   0  0  0  0  0  0  0  0  0  0  0  0
  138.5970   78.7071  219.5015 H   0  0  0  0  0  0  0  0  0  0  0  0
  138.7230   77.0468  220.2026 H   0  0  0  0  0  0  0  0  0  0  0  0
  139.4149   80.3254  220.5612 H   0  0  0  0  0  0  0  0  0  0  0  0
  138.3966   80.4759  222.0476 H   0  0  0  0  0  0  0  0  0  0  0  0
  140.6157   82.2555  222.0305 H   0  0  0  0  0  0  0  0  0  0  0  0
  142.6218   82.6056  223.3915 H   0  0  0  0  0  0  0  0  0  0  0  0
  143.6741   80.6777  224.5812 H   0  0  0  0  0  0  0  0  0  0  0  0
  142.6273   78.4457  224.3482 H   0  0  0  0  0  0  0  0  0  0  0  0
  140.6154   78.0822  222.9899 H   0  0  0  0  0  0  0  0  0  0  0  0
  139.1320   70.0284  222.1659 H   0  0  0  0  0  0  0  0  0  0  0  0
  138.6873   68.6595  224.2010 H   0  0  0  0  0  0  0  0  0  0  0  0
  138.9246   68.3362  226.6200 H   0  0  0  0  0  0  0  0  0  0  0  0
  141.0400   71.2394  228.9286 H   0  0  0  0  0  0  0  0  0  0  0  0
  141.4539   72.5701  226.8739 H   0  0  0  0  0  0  0  0  0  0  0  0
  1  2  2  0
  2  3  1  0
  3  4  1  0
  4  5  1  0
  5  6  2  0
  5  7  1  0
  7  8  1  0
  8  9  1  0
  9 10  1  0
  9 11  1  0
 11 12  1  0
 12 13  1  0
 13 14  1  0
 14 15  1  0
 15 16  1  0
 16 17  2  0
 17 18  1  0
 18 19  2  0
 19 20  1  0
 20 21  2  0
  2 22  1  0
 22 23  2  0
 23 24  1  0
 24 25  2  0
 25 26  1  0
 26 27  2  0
 27 28  1  0
 27 29  1  0
 29 30  2  0
 30 31  1  0
 31 32  2  0
 12  7  1  0
 21 16  1  0
 32 22  1  0
 31 25  1  0
  3 33  1  0
  4 34  1  0
  4 35  1  0
  8 36  1  0
  8 37  1  0
  9 38  1  6
 10 39  1  0
 11 40  1  0
 11 41  1  0
 12 42  1  1
 13 43  1  0
 13 44  1  0
 15 45  1  0
 15 46  1  0
 17 47  1  0
 18 48  1  0
 19 49  1  0
 20 50  1  0
 21 51  1  0
 23 52  1  0
 24 53  1  0
 26 54  1  0
 29 55  1  0
 30 56  1  0
M  END
>  <smiles>  (5) 
O=C(NCC(=O)N1C[C@H](O)C[C@H]1COCc1ccccc1)c1ccc2cc(F)ccc2n1

>  <score_type>  (5) 
oracle

>  <origin>  (5) 
autodockgpu

>  <m_score__min__energy>  (5) 
-9.4199999999999999

>  <m_primary>  (5) 
energy

>  <rmsd>  (5) 
2.092782299976125

>  <m_score__min__rmsd>  (5) 
2.092782299976125

>  <meeko>  (5) 
{"free_energy": -8.23, "intermolecular_energy": -10.92, "internal_energy": -2.08, "cluster_size": 7, "cluster_id": 3, "rank_in_cluster": 6}

>  <energy>  (5) 
-8.88

>  <cluster_rmsd>  (5) 
1.26

>  <cluster>  (5) 
1

$$$$

     RDKit          3D

 56 59  0  0  0  0  0  0  0  0999 V2000
  139.7310   73.6990  222.3720 O   0  0  0  0  0  0  0  0  0  0  0  0
  140.3830   72.6190  222.3770 C   0  0  0  0  0  0  0  0  0  0  0  0
  141.2570   72.3110  221.3210 N   0  0  0  0  0  0  0  0  0  0  0  0
  141.4090   73.2320  220.2310 C   0  0  0  0  0  0  0  0  0  0  0  0
  142.8080   73.7170  220.0950 C   0  0  0  0  0  0  0  0  0  0  0  0
  143.7020   73.2950  220.8960 O   0  0  0  0  0  0  0  0  0  0  0  0
  143.1150   74.6410  219.0720 N   0  0  0  0  0  0  0  0  0  0  0  0
  143.9280   74.3940  217.8700 C   0  0  0  0  0  0  0  0  0  0  0  0
  143.4060   75.3670  216.8320 C   0  0  2  0  0  0  0  0  0  0  0  0
  144.3620   76.3680  216.5650 O   0  0  0  0  0  0  0  0  0  0  0  0
  142.2240   76.0500  217.5250 C   0  0  0  0  0  0  0  0  0  0  0  0
  142.7140   76.0290  218.9570 C   0  0  1  0  0  0  0  0  0  0  0  0
  141.6170   76.4020  219.9130 C   0  0  0  0  0  0  0  0  0  0  0  0
  142.0190   77.4310  220.7490 O   0  0  0  0  0  0  0  0  0  0  0  0
  141.1390   77.6130  221.8160 C   0  0  0  0  0  0  0  0  0  0  0  0
  141.4150   78.8900  222.5230 C   0  0  0  0  0  0  0  0  0  0  0  0
  140.4230   79.7040  223.0310 C   0  0  0  0  0  0  0  0  0  0  0  0
  140.6740   80.8890  223.6880 C   0  0  0  0  0  0  0  0  0  0  0  0
  141.9690   81.3130  223.8630 C   0  0  0  0  0  0  0  0  0  0  0  0
  142.9710   80.5080  223.3590 C   0  0  0  0  0  0  0  0  0  0  0  0
  142.7270   79.3230  222.7020 C   0  0  0  0  0  0  0  0  0  0  0  0
  140.2560   71.6430  223.4780 C   0  0  0  0  0  0  0  0  0  0  0  0
  139.6690   70.4030  223.2780 C   0  0  0  0  0  0  0  0  0  0  0  0
  139.5690   69.5110  224.3500 C   0  0  0  0  0  0  0  0  0  0  0  0
  140.0450   69.8420  225.6050 C   0  0  0  0  0  0  0  0  0  0  0  0
  139.9690   68.9970  226.6890 C   0  0  0  0  0  0  0  0  0  0  0  0
  140.4500   69.3400  227.9400 C   0  0  0  0  0  0  0  0  0  0  0  0
  140.3720   68.5010  229.0080 F   0  0  0  0  0  0  0  0  0  0  0  0
  141.0230   70.5900  228.0680 C   0  0  0  0  0  0  0  0  0  0  0  0
  141.1130   71.4670  226.9880 C   0  0  0  0  0  0  0  0  0  0  0  0
  140.6200   71.0830  225.7550 C   0  0  0  0  0  0  0  0  0  0  0  0
  140.7050   71.9180  224.7210 N   0  0  0  0  0  0  0  0  0  0  0  0
  141.8010   71.4220  221.3130 H   0  0  0  0  0  0  0  0  0  0  0  0
  141.1168   72.7278  219.2981 H   0  0  0  0  0  0  0  0  0  0  0  0
  140.7684   74.1029  220.4336 H   0  0  0  0  0  0  0  0  0  0  0  0
  144.9913   74.5845  218.0774 H   0  0  0  0  0  0  0  0  0  0  0  0
  143.8538   73.3505  217.5301 H   0  0  0  0  0  0  0  0  0  0  0  0
  143.1571   74.8562  215.8901 H   0  0  0  0  0  0  0  0  0  0  0  0
  145.1830   76.2440  217.1060 H   0  0  0  0  0  0  0  0  0  0  0  0
  142.0737   77.0766  217.1596 H   0  0  0  0  0  0  0  0  0  0  0  0
  141.2486   75.5687  217.3611 H   0  0  0  0  0  0  0  0  0  0  0  0
  143.5145   76.7452  219.1941 H   0  0  0  0  0  0  0  0  0  0  0  0
  140.7353   76.7264  219.3408 H   0  0  0  0  0  0  0  0  0  0  0  0
  141.3734   75.5236  220.5286 H   0  0  0  0  0  0  0  0  0  0  0  0
  140.1080   77.6297  221.4329 H   0  0  0  0  0  0  0  0  0  0  0  0
  141.2735   76.7837  222.5260 H   0  0  0  0  0  0  0  0  0  0  0  0
  139.3763   79.3902  222.9047 H   0  0  0  0  0  0  0  0  0  0  0  0
  139.8393   81.4941  224.0715 H   0  0  0  0  0  0  0  0  0  0  0  0
  142.1980   82.2548  224.3831 H   0  0  0  0  0  0  0  0  0  0  0  0
  144.0151   80.8290  223.4887 H   0  0  0  0  0  0  0  0  0  0  0  0
  143.5644   78.7206  222.3200 H   0  0  0  0  0  0  0  0  0  0  0  0
  139.2857   70.1236  222.2855 H   0  0  0  0  0  0  0  0  0  0  0  0
  139.1028   68.5273  224.1918 H   0  0  0  0  0  0  0  0  0  0  0  0
  139.5066   68.0079  226.5550 H   0  0  0  0  0  0  0  0  0  0  0  0
  141.4181   70.9014  229.0462 H   0  0  0  0  0  0  0  0  0  0  0  0
  141.5732   72.4578  227.1162 H   0  0  0  0  0  0  0  0  0  0  0  0
  1  2  2  0
  2  3  1  0
  3  4  1  0
  4  5  1  0
  5  6  2  0
  5  7  1  0
  7  8  1  0
  8  9  1  0
  9 10  1  0
  9 11  1  0
 11 12  1  0
 12 13  1  0
 13 14  1  0
 14 15  1  0
 15 16  1  0
 16 17  2  0
 17 18  1  0
 18 19  2  0
 19 20  1  0
 20 21  2  0
  2 22  1  0
 22 23  2  0
 23 24  1  0
 24 25  2  0
 25 26  1  0
 26 27  2  0
 27 28  1  0
 27 29  1  0
 29 30  2  0
 30 31  1  0
 31 32  2  0
 12  7  1  0
 21 16  1  0
 32 22  1  0
 31 25  1  0
  3 33  1  0
  4 34  1  0
  4 35  1  0
  8 36  1  0
  8 37  1  0
  9 38  1  6
 10 39  1  0
 11 40  1  0
 11 41  1  0
 12 42  1  6
 13 43  1  0
 13 44  1  0
 15 45  1  0
 15 46  1  0
 17 47  1  0
 18 48  1  0
 19 49  1  0
 20 50  1  0
 21 51  1  0
 23 52  1  0
 24 53  1  0
 26 54  1  0
 29 55  1  0
 30 56  1  0
M  END
>  <smiles>  (6) 
O=C(NCC(=O)N1C[C@H](O)C[C@H]1COCc1ccccc1)c1ccc2cc(F)ccc2n1

>  <score_type>  (6) 
oracle

>  <origin>  (6) 
autodockgpu

>  <m_score__min__energy>  (6) 
-9.4199999999999999

>  <m_primary>  (6) 
energy

>  <rmsd>  (6) 
2.641490559329317

>  <m_score__min__rmsd>  (6) 
2.641490559329317

>  <meeko>  (6) 
{"free_energy": -8.55, "intermolecular_energy": -11.24, "internal_energy": -1.34, "cluster_size": 28, "cluster_id": 1, "rank_in_cluster": 19}

>  <energy>  (6) 
-8.8

>  <cluster_rmsd>  (6) 
1.25

>  <cluster>  (6) 
1

$$$$

     RDKit          3D

 56 59  0  0  0  0  0  0  0  0999 V2000
  141.2510   72.4010  221.5480 O   0  0  0  0  0  0  0  0  0  0  0  0
  140.3530   72.5740  222.4180 C   0  0  0  0  0  0  0  0  0  0  0  0
  139.5060   73.6930  222.3530 N   0  0  0  0  0  0  0  0  0  0  0  0
  139.6620   74.6430  221.2900 C   0  0  0  0  0  0  0  0  0  0  0  0
  140.8820   75.4770  221.4550 C   0  0  0  0  0  0  0  0  0  0  0  0
  142.0220   74.9180  221.5320 O   0  0  0  0  0  0  0  0  0  0  0  0
  140.7460   76.8820  221.5220 N   0  0  0  0  0  0  0  0  0  0  0  0
  140.3620   77.6790  222.6980 C   0  0  0  0  0  0  0  0  0  0  0  0
  141.0080   79.0340  222.4860 C   0  0  2  0  0  0  0  0  0  0  0  0
  140.0290   80.0150  222.2250 O   0  0  0  0  0  0  0  0  0  0  0  0
  141.8210   78.8590  221.2000 C   0  0  0  0  0  0  0  0  0  0  0  0
  140.9470   77.8600  220.4720 C   0  0  1  0  0  0  0  0  0  0  0  0
  141.6520   77.2940  219.2720 C   0  0  0  0  0  0  0  0  0  0  0  0
  142.9650   76.9730  219.5780 O   0  0  0  0  0  0  0  0  0  0  0  0
  143.4830   76.0110  218.7110 C   0  0  0  0  0  0  0  0  0  0  0  0
  143.9320   74.8070  219.4560 C   0  0  0  0  0  0  0  0  0  0  0  0
  144.8690   74.8460  220.4690 C   0  0  0  0  0  0  0  0  0  0  0  0
  145.2860   73.7320  221.1630 C   0  0  0  0  0  0  0  0  0  0  0  0
  144.7640   72.4990  220.8550 C   0  0  0  0  0  0  0  0  0  0  0  0
  143.8260   72.4450  219.8440 C   0  0  0  0  0  0  0  0  0  0  0  0
  143.4030   73.5550  219.1470 C   0  0  0  0  0  0  0  0  0  0  0  0
  140.1580   71.6210  223.5300 C   0  0  0  0  0  0  0  0  0  0  0  0
  139.4760   70.4280  223.3450 C   0  0  0  0  0  0  0  0  0  0  0  0
  139.3150   69.5570  224.4270 C   0  0  0  0  0  0  0  0  0  0  0  0
  139.8220   69.8620  225.6760 C   0  0  0  0  0  0  0  0  0  0  0  0
  139.6880   69.0360  226.7680 C   0  0  0  0  0  0  0  0  0  0  0  0
  140.2020   69.3520  228.0140 C   0  0  0  0  0  0  0  0  0  0  0  0
  140.0660   68.5320  229.0900 F   0  0  0  0  0  0  0  0  0  0  0  0
  140.8700   70.5560  228.1250 C   0  0  0  0  0  0  0  0  0  0  0  0
  141.0210   71.4130  227.0370 C   0  0  0  0  0  0  0  0  0  0  0  0
  140.4920   71.0560  225.8100 C   0  0  0  0  0  0  0  0  0  0  0  0
  140.6350   71.8730  224.7670 N   0  0  0  0  0  0  0  0  0  0  0  0
  138.7610   73.8470  223.0660 H   0  0  0  0  0  0  0  0  0  0  0  0
  139.7313   74.0991  220.3364 H   0  0  0  0  0  0  0  0  0  0  0  0
  138.7903   75.3137  221.3066 H   0  0  0  0  0  0  0  0  0  0  0  0
  139.2680   77.7779  222.7568 H   0  0  0  0  0  0  0  0  0  0  0  0
  140.6883   77.2098  223.6379 H   0  0  0  0  0  0  0  0  0  0  0  0
  141.5931   79.3441  223.3644 H   0  0  0  0  0  0  0  0  0  0  0  0
  140.3370   80.6670  221.5460 H   0  0  0  0  0  0  0  0  0  0  0  0
  141.9130   79.8032  220.6432 H   0  0  0  0  0  0  0  0  0  0  0  0
  142.8633   78.5408  221.3498 H   0  0  0  0  0  0  0  0  0  0  0  0
  140.0130   78.2631  220.0534 H   0  0  0  0  0  0  0  0  0  0  0  0
  141.1268   76.3862  218.9403 H   0  0  0  0  0  0  0  0  0  0  0  0
  141.6511   78.0506  218.4735 H   0  0  0  0  0  0  0  0  0  0  0  0
  142.7038   75.7187  217.9917 H   0  0  0  0  0  0  0  0  0  0  0  0
  144.3495   76.4419  218.1880 H   0  0  0  0  0  0  0  0  0  0  0  0
  145.3061   75.8194  220.7363 H   0  0  0  0  0  0  0  0  0  0  0  0
  146.0355   73.8292  221.9623 H   0  0  0  0  0  0  0  0  0  0  0  0
  145.0805   71.5926  221.3918 H   0  0  0  0  0  0  0  0  0  0  0  0
  143.3951   71.4674  219.5820 H   0  0  0  0  0  0  0  0  0  0  0  0
  142.6513   73.4540  218.3503 H   0  0  0  0  0  0  0  0  0  0  0  0
  139.0660   70.1695  222.3576 H   0  0  0  0  0  0  0  0  0  0  0  0
  138.7741   68.6103  224.2812 H   0  0  0  0  0  0  0  0  0  0  0  0
  139.1498   68.0844  226.6460 H   0  0  0  0  0  0  0  0  0  0  0  0
  141.2938   70.8457  229.0979 H   0  0  0  0  0  0  0  0  0  0  0  0
  141.5570   72.3665  227.1530 H   0  0  0  0  0  0  0  0  0  0  0  0
  1  2  2  0
  2  3  1  0
  3  4  1  0
  4  5  1  0
  5  6  2  0
  5  7  1  0
  7  8  1  0
  8  9  1  0
  9 10  1  0
  9 11  1  0
 11 12  1  0
 12 13  1  0
 13 14  1  0
 14 15  1  0
 15 16  1  0
 16 17  2  0
 17 18  1  0
 18 19  2  0
 19 20  1  0
 20 21  2  0
  2 22  1  0
 22 23  2  0
 23 24  1  0
 24 25  2  0
 25 26  1  0
 26 27  2  0
 27 28  1  0
 27 29  1  0
 29 30  2  0
 30 31  1  0
 31 32  2  0
 12  7  1  0
 21 16  1  0
 32 22  1  0
 31 25  1  0
  3 33  1  0
  4 34  1  0
  4 35  1  0
  8 36  1  0
  8 37  1  0
  9 38  1  1
 10 39  1  0
 11 40  1  0
 11 41  1  0
 12 42  1  6
 13 43  1  0
 13 44  1  0
 15 45  1  0
 15 46  1  0
 17 47  1  0
 18 48  1  0
 19 49  1  0
 20 50  1  0
 21 51  1  0
 23 52  1  0
 24 53  1  0
 26 54  1  0
 29 55  1  0
 30 56  1  0
M  END
>  <smiles>  (7) 
O=C(NCC(=O)N1C[C@H](O)C[C@H]1COCc1ccccc1)c1ccc2cc(F)ccc2n1

>  <score_type>  (7) 
oracle

>  <origin>  (7) 
autodockgpu

>  <m_score__min__energy>  (7) 
-9.4199999999999999

>  <m_primary>  (7) 
energy

>  <rmsd>  (7) 
2.790895134567268

>  <m_score__min__rmsd>  (7) 
2.790895134567268

>  <meeko>  (7) 
{"free_energy": -7.8, "intermolecular_energy": -10.48, "internal_energy": -1.97, "cluster_size": 1, "cluster_id": 5, "rank_in_cluster": 1}

>  <energy>  (7) 
-8.79

>  <cluster_rmsd>  (7) 
1.72

>  <cluster>  (7) 
1

$$$$

     RDKit          3D

 56 59  0  0  0  0  0  0  0  0999 V2000
  142.1070   72.5330  220.6240 O   0  0  0  0  0  0  0  0  0  0  0  0
  141.3780   73.2660  221.3470 C   0  0  0  0  0  0  0  0  0  0  0  0
  140.5110   72.6950  222.2930 N   0  0  0  0  0  0  0  0  0  0  0  0
  140.4540   71.2690  222.4370 C   0  0  0  0  0  0  0  0  0  0  0  0
  139.2130   70.8210  223.1210 C   0  0  0  0  0  0  0  0  0  0  0  0
  138.6530   71.5820  223.9750 O   0  0  0  0  0  0  0  0  0  0  0  0
  138.6770   69.5530  222.8060 N   0  0  0  0  0  0  0  0  0  0  0  0
  138.5490   68.9540  221.4670 C   0  0  0  0  0  0  0  0  0  0  0  0
  138.5970   67.4560  221.6970 C   0  0  2  0  0  0  0  0  0  0  0  0
  137.3370   66.8750  221.4430 O   0  0  0  0  0  0  0  0  0  0  0  0
  138.8570   67.3210  223.2000 C   0  0  0  0  0  0  0  0  0  0  0  0
  138.1340   68.5520  223.7030 C   0  0  1  0  0  0  0  0  0  0  0  0
  138.4580   68.8220  225.1450 C   0  0  0  0  0  0  0  0  0  0  0  0
  139.1060   67.7390  225.7150 O   0  0  0  0  0  0  0  0  0  0  0  0
  140.4380   68.0250  226.0160 C   0  0  0  0  0  0  0  0  0  0  0  0
  140.5750   69.3920  226.5830 C   0  0  0  0  0  0  0  0  0  0  0  0
  139.9980   69.7800  227.7750 C   0  0  0  0  0  0  0  0  0  0  0  0
  140.1230   71.0460  228.3040 C   0  0  0  0  0  0  0  0  0  0  0  0
  140.8550   71.9970  227.6350 C   0  0  0  0  0  0  0  0  0  0  0  0
  141.4380   71.6220  226.4410 C   0  0  0  0  0  0  0  0  0  0  0  0
  141.3160   70.3590  225.9070 C   0  0  0  0  0  0  0  0  0  0  0  0
  141.4040   74.7390  221.2310 C   0  0  0  0  0  0  0  0  0  0  0  0
  142.2690   75.3780  220.3560 C   0  0  0  0  0  0  0  0  0  0  0  0
  142.2590   76.7740  220.2800 C   0  0  0  0  0  0  0  0  0  0  0  0
  141.4040   77.5290  221.0620 C   0  0  0  0  0  0  0  0  0  0  0  0
  141.3590   78.9040  221.0210 C   0  0  0  0  0  0  0  0  0  0  0  0
  140.4980   79.6480  221.8070 C   0  0  0  0  0  0  0  0  0  0  0  0
  140.4580   81.0070  221.7630 F   0  0  0  0  0  0  0  0  0  0  0  0
  139.6640   78.9460  222.6560 C   0  0  0  0  0  0  0  0  0  0  0  0
  139.6880   77.5540  222.7190 C   0  0  0  0  0  0  0  0  0  0  0  0
  140.5640   76.8500  221.9140 C   0  0  0  0  0  0  0  0  0  0  0  0
  140.5890   75.5200  221.9710 N   0  0  0  0  0  0  0  0  0  0  0  0
  139.9030   73.2910  222.8960 H   0  0  0  0  0  0  0  0  0  0  0  0
  140.4925   70.8106  221.4378 H   0  0  0  0  0  0  0  0  0  0  0  0
  141.3098   70.9583  223.0544 H   0  0  0  0  0  0  0  0  0  0  0  0
  137.5937   69.2431  221.0045 H   0  0  0  0  0  0  0  0  0  0  0  0
  139.3449   69.2919  220.7870 H   0  0  0  0  0  0  0  0  0  0  0  0
  139.3458   66.9722  221.0527 H   0  0  0  0  0  0  0  0  0  0  0  0
  136.7110   67.0120  222.1980 H   0  0  0  0  0  0  0  0  0  0  0  0
  138.4221   66.3967  223.6082 H   0  0  0  0  0  0  0  0  0  0  0  0
  139.9181   67.2587  223.4830 H   0  0  0  0  0  0  0  0  0  0  0  0
  137.0356   68.4934  223.6941 H   0  0  0  0  0  0  0  0  0  0  0  0
  139.1092   69.7062  225.2088 H   0  0  0  0  0  0  0  0  0  0  0  0
  137.5189   68.9976  225.6902 H   0  0  0  0  0  0  0  0  0  0  0  0
  140.8060   67.2928  226.7498 H   0  0  0  0  0  0  0  0  0  0  0  0
  141.0262   67.9702  225.0881 H   0  0  0  0  0  0  0  0  0  0  0  0
  139.4066   69.0388  228.3326 H   0  0  0  0  0  0  0  0  0  0  0  0
  139.6380   71.2947  229.2595 H   0  0  0  0  0  0  0  0  0  0  0  0
  140.9717   73.0153  228.0343 H   0  0  0  0  0  0  0  0  0  0  0  0
  142.0286   72.3685  225.8897 H   0  0  0  0  0  0  0  0  0  0  0  0
  141.8015   70.1143  224.9507 H   0  0  0  0  0  0  0  0  0  0  0  0
  142.9564   74.7924  219.7278 H   0  0  0  0  0  0  0  0  0  0  0  0
  142.9442   77.2814  219.5850 H   0  0  0  0  0  0  0  0  0  0  0  0
  142.0361   79.4333  220.3344 H   0  0  0  0  0  0  0  0  0  0  0  0
  138.9635   79.4998  223.2983 H   0  0  0  0  0  0  0  0  0  0  0  0
  139.0144   77.0191  223.4047 H   0  0  0  0  0  0  0  0  0  0  0  0
  1  2  2  0
  2  3  1  0
  3  4  1  0
  4  5  1  0
  5  6  2  0
  5  7  1  0
  7  8  1  0
  8  9  1  0
  9 10  1  0
  9 11  1  0
 11 12  1  0
 12 13  1  0
 13 14  1  0
 14 15  1  0
 15 16  1  0
 16 17  2  0
 17 18  1  0
 18 19  2  0
 19 20  1  0
 20 21  2  0
  2 22  1  0
 22 23  2  0
 23 24  1  0
 24 25  2  0
 25 26  1  0
 26 27  2  0
 27 28  1  0
 27 29  1  0
 29 30  2  0
 30 31  1  0
 31 32  2  0
 12  7  1  0
 21 16  1  0
 32 22  1  0
 31 25  1  0
  3 33  1  0
  4 34  1  0
  4 35  1  0
  8 36  1  0
  8 37  1  0
  9 38  1  6
 10 39  1  0
 11 40  1  0
 11 41  1  0
 12 42  1  1
 13 43  1  0
 13 44  1  0
 15 45  1  0
 15 46  1  0
 17 47  1  0
 18 48  1  0
 19 49  1  0
 20 50  1  0
 21 51  1  0
 23 52  1  0
 24 53  1  0
 26 54  1  0
 29 55  1  0
 30 56  1  0
M  END
>  <smiles>  (8) 
O=C(NCC(=O)N1C[C@H](O)C[C@H]1COCc1ccccc1)c1ccc2cc(F)ccc2n1

>  <score_type>  (8) 
oracle

>  <origin>  (8) 
autodockgpu

>  <m_score__min__energy>  (8) 
-9.4199999999999999

>  <m_primary>  (8) 
energy

>  <rmsd>  (8) 
8.538330481570094

>  <m_score__min__rmsd>  (8) 
8.538330481570094

>  <meeko>  (8) 
{"free_energy": -7.71, "intermolecular_energy": -10.4, "internal_energy": -2.41, "cluster_size": 3, "cluster_id": 4, "rank_in_cluster": 3}

>  <energy>  (8) 
-8.78

>  <cluster_rmsd>  (8) 
1.4

>  <cluster>  (8) 
1

$$$$

     RDKit          3D

 56 59  0  0  0  0  0  0  0  0999 V2000
  138.5740   70.8580  220.9790 O   0  0  0  0  0  0  0  0  0  0  0  0
  138.8850   71.5410  221.9930 C   0  0  0  0  0  0  0  0  0  0  0  0
  138.8760   72.9450  221.9340 N   0  0  0  0  0  0  0  0  0  0  0  0
  138.5080   73.6040  220.7150 C   0  0  0  0  0  0  0  0  0  0  0  0
  139.6790   73.8490  219.8320 C   0  0  0  0  0  0  0  0  0  0  0  0
  139.5180   74.4560  218.7250 O   0  0  0  0  0  0  0  0  0  0  0  0
  140.9530   73.4000  220.2450 N   0  0  0  0  0  0  0  0  0  0  0  0
  141.6730   72.2120  219.7590 C   0  0  0  0  0  0  0  0  0  0  0  0
  143.1430   72.5370  219.9420 C   0  0  2  0  0  0  0  0  0  0  0  0
  143.7030   71.7430  220.9640 O   0  0  0  0  0  0  0  0  0  0  0  0
  143.1420   73.9830  220.4480 C   0  0  0  0  0  0  0  0  0  0  0  0
  141.8440   73.9860  221.2270 C   0  0  1  0  0  0  0  0  0  0  0  0
  141.4470   75.3810  221.6170 C   0  0  0  0  0  0  0  0  0  0  0  0
  140.2680   75.3740  222.3450 O   0  0  0  0  0  0  0  0  0  0  0  0
  139.6300   76.6130  222.3180 C   0  0  0  0  0  0  0  0  0  0  0  0
  140.6170   77.7230  222.3350 C   0  0  0  0  0  0  0  0  0  0  0  0
  141.3070   78.1080  223.4660 C   0  0  0  0  0  0  0  0  0  0  0  0
  142.2230   79.1360  223.4850 C   0  0  0  0  0  0  0  0  0  0  0  0
  142.4880   79.8380  222.3340 C   0  0  0  0  0  0  0  0  0  0  0  0
  141.8050   79.4640  221.1950 C   0  0  0  0  0  0  0  0  0  0  0  0
  140.8870   78.4370  221.1690 C   0  0  0  0  0  0  0  0  0  0  0  0
  139.2710   70.9040  223.2690 C   0  0  0  0  0  0  0  0  0  0  0  0
  139.0210   69.5610  223.5070 C   0  0  0  0  0  0  0  0  0  0  0  0
  139.4020   69.0000  224.7300 C   0  0  0  0  0  0  0  0  0  0  0  0
  140.0230   69.7590  225.7050 C   0  0  0  0  0  0  0  0  0  0  0  0
  140.4150   69.2500  226.9220 C   0  0  0  0  0  0  0  0  0  0  0  0
  141.0360   70.0200  227.8890 C   0  0  0  0  0  0  0  0  0  0  0  0
  141.4220   69.5120  229.0910 F   0  0  0  0  0  0  0  0  0  0  0  0
  141.2540   71.3500  227.5840 C   0  0  0  0  0  0  0  0  0  0  0  0
  140.8660   71.8930  226.3610 C   0  0  0  0  0  0  0  0  0  0  0  0
  140.2490   71.0860  225.4220 C   0  0  0  0  0  0  0  0  0  0  0  0
  139.8780   71.6010  224.2510 N   0  0  0  0  0  0  0  0  0  0  0  0
  139.1310   73.5210  222.7650 H   0  0  0  0  0  0  0  0  0  0  0  0
  137.7843   72.9743  220.1767 H   0  0  0  0  0  0  0  0  0  0  0  0
  138.0733   74.5799  220.9772 H   0  0  0  0  0  0  0  0  0  0  0  0
  141.3974   71.3255  220.3490 H   0  0  0  0  0  0  0  0  0  0  0  0
  141.4294   71.9831  218.7110 H   0  0  0  0  0  0  0  0  0  0  0  0
  143.7114   72.3718  219.0148 H   0  0  0  0  0  0  0  0  0  0  0  0
  144.6840   71.6510  220.8590 H   0  0  0  0  0  0  0  0  0  0  0  0
  144.0072   74.1900  221.0949 H   0  0  0  0  0  0  0  0  0  0  0  0
  143.2134   74.7496  219.6623 H   0  0  0  0  0  0  0  0  0  0  0  0
  141.8661   73.4482  222.1863 H   0  0  0  0  0  0  0  0  0  0  0  0
  142.2458   75.8249  222.2293 H   0  0  0  0  0  0  0  0  0  0  0  0
  141.2916   75.9712  220.7018 H   0  0  0  0  0  0  0  0  0  0  0  0
  139.0239   76.6852  221.4029 H   0  0  0  0  0  0  0  0  0  0  0  0
  138.9933   76.6978  223.2110 H   0  0  0  0  0  0  0  0  0  0  0  0
  141.1151   77.5646  224.4029 H   0  0  0  0  0  0  0  0  0  0  0  0
  142.7416   79.3947  224.4199 H   0  0  0  0  0  0  0  0  0  0  0  0
  143.2145   80.6639  222.3211 H   0  0  0  0  0  0  0  0  0  0  0  0
  142.0030   80.0125  220.2623 H   0  0  0  0  0  0  0  0  0  0  0  0
  140.3696   78.1818  220.2324 H   0  0  0  0  0  0  0  0  0  0  0  0
  138.5281   68.9433  222.7418 H   0  0  0  0  0  0  0  0  0  0  0  0
  139.2040   67.9348  224.9200 H   0  0  0  0  0  0  0  0  0  0  0  0
  140.2268   68.1873  227.1345 H   0  0  0  0  0  0  0  0  0  0  0  0
  141.7463   71.9964  228.3255 H   0  0  0  0  0  0  0  0  0  0  0  0
  141.0490   72.9557  226.1436 H   0  0  0  0  0  0  0  0  0  0  0  0
  1  2  2  0
  2  3  1  0
  3  4  1  0
  4  5  1  0
  5  6  2  0
  5  7  1  0
  7  8  1  0
  8  9  1  0
  9 10  1  0
  9 11  1  0
 11 12  1  0
 12 13  1  0
 13 14  1  0
 14 15  1  0
 15 16  1  0
 16 17  2  0
 17 18  1  0
 18 19  2  0
 19 20  1  0
 20 21  2  0
  2 22  1  0
 22 23  2  0
 23 24  1  0
 24 25  2  0
 25 26  1  0
 26 27  2  0
 27 28  1  0
 27 29  1  0
 29 30  2  0
 30 31  1  0
 31 32  2  0
 12  7  1  0
 21 16  1  0
 32 22  1  0
 31 25  1  0
  3 33  1  0
  4 34  1  0
  4 35  1  0
  8 36  1  0
  8 37  1  0
  9 38  1  6
 10 39  1  0
 11 40  1  0
 11 41  1  0
 12 42  1  1
 13 43  1  0
 13 44  1  0
 15 45  1  0
 15 46  1  0
 17 47  1  0
 18 48  1  0
 19 49  1  0
 20 50  1  0
 21 51  1  0
 23 52  1  0
 24 53  1  0
 26 54  1  0
 29 55  1  0
 30 56  1  0
M  END
>  <smiles>  (9) 
O=C(NCC(=O)N1C[C@H](O)C[C@H]1COCc1ccccc1)c1ccc2cc(F)ccc2n1

>  <score_type>  (9) 
oracle

>  <origin>  (9) 
autodockgpu

>  <m_score__min__energy>  (9) 
-9.4199999999999999

>  <m_primary>  (9) 
energy

>  <rmsd>  (9) 
2.5178950923431462

>  <m_score__min__rmsd>  (9) 
2.5178950923431462

>  <meeko>  (9) 
{"free_energy": -7.32, "intermolecular_energy": -10.0, "internal_energy": -2.82, "cluster_size": 28, "cluster_id": 1, "rank_in_cluster": 28}

>  <energy>  (9) 
-8.77

>  <cluster_rmsd>  (9) 
1.5

>  <cluster>  (9) 
1

$$$$

     RDKit          3D

 56 59  0  0  0  0  0  0  0  0999 V2000
  138.2880   70.8650  221.2160 O   0  0  0  0  0  0  0  0  0  0  0  0
  138.7560   71.4190  222.2480 C   0  0  0  0  0  0  0  0  0  0  0  0
  138.9470   72.8100  222.2830 N   0  0  0  0  0  0  0  0  0  0  0  0
  138.6080   73.6050  221.1380 C   0  0  0  0  0  0  0  0  0  0  0  0
  139.6380   73.5210  220.0690 C   0  0  0  0  0  0  0  0  0  0  0  0
  139.3090   73.7340  218.8580 O   0  0  0  0  0  0  0  0  0  0  0  0
  140.9680   73.2050  220.4240 N   0  0  0  0  0  0  0  0  0  0  0  0
  141.6950   71.9620  220.1160 C   0  0  0  0  0  0  0  0  0  0  0  0
  143.1570   72.3600  220.0670 C   0  0  2  0  0  0  0  0  0  0  0  0
  143.8570   71.8140  221.1630 O   0  0  0  0  0  0  0  0  0  0  0  0
  143.1340   73.8790  220.2620 C   0  0  0  0  0  0  0  0  0  0  0  0
  141.9230   74.0080  221.1610 C   0  0  1  0  0  0  0  0  0  0  0  0
  141.4980   75.4430  221.2970 C   0  0  0  0  0  0  0  0  0  0  0  0
  140.5840   75.5900  222.3280 O   0  0  0  0  0  0  0  0  0  0  0  0
  139.8630   76.7790  222.2210 C   0  0  0  0  0  0  0  0  0  0  0  0
  140.7640   77.9580  222.2830 C   0  0  0  0  0  0  0  0  0  0  0  0
  141.0180   78.7760  221.2000 C   0  0  0  0  0  0  0  0  0  0  0  0
  141.8530   79.8700  221.2530 C   0  0  0  0  0  0  0  0  0  0  0  0
  142.4830   80.1930  222.4300 C   0  0  0  0  0  0  0  0  0  0  0  0
  142.2390   79.3840  223.5210 C   0  0  0  0  0  0  0  0  0  0  0  0
  141.4050   78.2880  223.4750 C   0  0  0  0  0  0  0  0  0  0  0  0
  139.1190   70.6390  223.4490 C   0  0  0  0  0  0  0  0  0  0  0  0
  138.8460   69.2820  223.5380 C   0  0  0  0  0  0  0  0  0  0  0  0
  139.2070   68.5850  224.6940 C   0  0  0  0  0  0  0  0  0  0  0  0
  139.8300   69.2220  225.7510 C   0  0  0  0  0  0  0  0  0  0  0  0
  140.2040   68.5760  226.9080 C   0  0  0  0  0  0  0  0  0  0  0  0
  140.8280   69.2250  227.9580 C   0  0  0  0  0  0  0  0  0  0  0  0
  141.1940   68.5820  229.0990 F   0  0  0  0  0  0  0  0  0  0  0  0
  141.0690   70.5760  227.8020 C   0  0  0  0  0  0  0  0  0  0  0  0
  140.7020   71.2560  226.6430 C   0  0  0  0  0  0  0  0  0  0  0  0
  140.0810   70.5680  225.6170 C   0  0  0  0  0  0  0  0  0  0  0  0
  139.7290   71.2140  224.5070 N   0  0  0  0  0  0  0  0  0  0  0  0
  139.3330   73.2800  223.1310 H   0  0  0  0  0  0  0  0  0  0  0  0
  137.6482   73.2515  220.7333 H   0  0  0  0  0  0  0  0  0  0  0  0
  138.5444   74.6540  221.4630 H   0  0  0  0  0  0  0  0  0  0  0  0
  141.5256   71.2110  220.9016 H   0  0  0  0  0  0  0  0  0  0  0  0
  141.3589   71.5121  219.1702 H   0  0  0  0  0  0  0  0  0  0  0  0
  143.6366   72.0204  219.1371 H   0  0  0  0  0  0  0  0  0  0  0  0
  144.7680   71.5200  220.9050 H   0  0  0  0  0  0  0  0  0  0  0  0
  144.0486   74.2417  220.7539 H   0  0  0  0  0  0  0  0  0  0  0  0
  143.0868   74.4656  219.3327 H   0  0  0  0  0  0  0  0  0  0  0  0
  142.0689   73.6834  222.2019 H   0  0  0  0  0  0  0  0  0  0  0  0
  142.3822   76.0625  221.5078 H   0  0  0  0  0  0  0  0  0  0  0  0
  141.0232   75.7606  220.3570 H   0  0  0  0  0  0  0  0  0  0  0  0
  139.3252   76.7879  221.2615 H   0  0  0  0  0  0  0  0  0  0  0  0
  139.1554   76.8354  223.0613 H   0  0  0  0  0  0  0  0  0  0  0  0
  140.5273   78.5414  220.2439 H   0  0  0  0  0  0  0  0  0  0  0  0
  142.0150   80.4838  220.3547 H   0  0  0  0  0  0  0  0  0  0  0  0
  143.1547   81.0612  222.5001 H   0  0  0  0  0  0  0  0  0  0  0  0
  142.7340   79.6256  224.4731 H   0  0  0  0  0  0  0  0  0  0  0  0
  141.2461   77.6765  224.3754 H   0  0  0  0  0  0  0  0  0  0  0  0
  138.3501   68.7596  222.7066 H   0  0  0  0  0  0  0  0  0  0  0  0
  138.9913   67.5086  224.7643 H   0  0  0  0  0  0  0  0  0  0  0  0
  139.9980   67.4995  227.0011 H   0  0  0  0  0  0  0  0  0  0  0  0
  141.5635   71.1293  228.6140 H   0  0  0  0  0  0  0  0  0  0  0  0
  140.9048   72.3327  226.5447 H   0  0  0  0  0  0  0  0  0  0  0  0
  1  2  2  0
  2  3  1  0
  3  4  1  0
  4  5  1  0
  5  6  2  0
  5  7  1  0
  7  8  1  0
  8  9  1  0
  9 10  1  0
  9 11  1  0
 11 12  1  0
 12 13  1  0
 13 14  1  0
 14 15  1  0
 15 16  1  0
 16 17  2  0
 17 18  1  0
 18 19  2  0
 19 20  1  0
 20 21  2  0
  2 22  1  0
 22 23  2  0
 23 24  1  0
 24 25  2  0
 25 26  1  0
 26 27  2  0
 27 28  1  0
 27 29  1  0
 29 30  2  0
 30 31  1  0
 31 32  2  0
 12  7  1  0
 21 16  1  0
 32 22  1  0
 31 25  1  0
  3 33  1  0
  4 34  1  0
  4 35  1  0
  8 36  1  0
  8 37  1  0
  9 38  1  6
 10 39  1  0
 11 40  1  0
 11 41  1  0
 12 42  1  1
 13 43  1  0
 13 44  1  0
 15 45  1  0
 15 46  1  0
 17 47  1  0
 18 48  1  0
 19 49  1  0
 20 50  1  0
 21 51  1  0
 23 52  1  0
 24 53  1  0
 26 54  1  0
 29 55  1  0
 30 56  1  0
M  END
>  <smiles>  (10) 
O=C(NCC(=O)N1C[C@H](O)C[C@H]1COCc1ccccc1)c1ccc2cc(F)ccc2n1

>  <score_type>  (10) 
oracle

>  <origin>  (10) 
autodockgpu

>  <m_score__min__energy>  (10) 
-9.4199999999999999

>  <m_primary>  (10) 
energy

>  <rmsd>  (10) 
2.5473311849944507

>  <m_score__min__rmsd>  (10) 
2.5473311849944507

>  <meeko>  (10) 
{"free_energy": -7.85, "intermolecular_energy": -10.54, "internal_energy": -2.21, "cluster_size": 28, "cluster_id": 1, "rank_in_cluster": 26}

>  <energy>  (10) 
-8.71

>  <cluster_rmsd>  (10) 
1.88

>  <cluster>  (10) 
1

$$$$

     RDKit          3D

 56 59  0  0  0  0  0  0  0  0999 V2000
  141.1920   71.4580  221.4850 O   0  0  0  0  0  0  0  0  0  0  0  0
  140.4510   71.8510  222.4270 C   0  0  0  0  0  0  0  0  0  0  0  0
  139.8230   73.1060  222.3610 N   0  0  0  0  0  0  0  0  0  0  0  0
  140.0260   73.9450  221.2150 C   0  0  0  0  0  0  0  0  0  0  0  0
  141.1820   74.8640  221.3880 C   0  0  0  0  0  0  0  0  0  0  0  0
  141.1120   75.8130  222.2350 O   0  0  0  0  0  0  0  0  0  0  0  0
  142.3390   74.6640  220.6050 N   0  0  0  0  0  0  0  0  0  0  0  0
  143.2490   73.5070  220.6500 C   0  0  0  0  0  0  0  0  0  0  0  0
  143.8500   73.4220  219.2600 C   0  0  2  0  0  0  0  0  0  0  0  0
  145.2180   73.7630  219.2900 O   0  0  0  0  0  0  0  0  0  0  0  0
  143.1300   74.5230  218.4770 C   0  0  0  0  0  0  0  0  0  0  0  0
  142.9030   75.5270  219.5870 C   0  0  1  0  0  0  0  0  0  0  0  0
  141.9600   76.6130  219.1540 C   0  0  0  0  0  0  0  0  0  0  0  0
  142.2370   77.7990  219.8140 O   0  0  0  0  0  0  0  0  0  0  0  0
  141.1490   78.2480  220.5620 C   0  0  0  0  0  0  0  0  0  0  0  0
  141.5990   78.9880  221.7690 C   0  0  0  0  0  0  0  0  0  0  0  0
  142.2430   80.2080  221.7140 C   0  0  0  0  0  0  0  0  0  0  0  0
  142.6610   80.8980  222.8310 C   0  0  0  0  0  0  0  0  0  0  0  0
  142.4440   80.3720  224.0810 C   0  0  0  0  0  0  0  0  0  0  0  0
  141.8010   79.1520  224.1500 C   0  0  0  0  0  0  0  0  0  0  0  0
  141.3800   78.4570  223.0380 C   0  0  0  0  0  0  0  0  0  0  0  0
  140.2140   71.0200  223.6250 C   0  0  0  0  0  0  0  0  0  0  0  0
  139.4900   69.8400  223.5530 C   0  0  0  0  0  0  0  0  0  0  0  0
  139.2900   69.0860  224.7130 C   0  0  0  0  0  0  0  0  0  0  0  0
  139.8010   69.4960  225.9310 C   0  0  0  0  0  0  0  0  0  0  0  0
  139.6310   68.7870  227.0980 C   0  0  0  0  0  0  0  0  0  0  0  0
  140.1480   69.2070  228.3110 C   0  0  0  0  0  0  0  0  0  0  0  0
  139.9760   68.5020  229.4610 F   0  0  0  0  0  0  0  0  0  0  0  0
  140.8590   70.3910  228.3100 C   0  0  0  0  0  0  0  0  0  0  0  0
  141.0470   71.1300  227.1430 C   0  0  0  0  0  0  0  0  0  0  0  0
  140.5130   70.6720  225.9530 C   0  0  0  0  0  0  0  0  0  0  0  0
  140.6920   71.3760  224.8360 N   0  0  0  0  0  0  0  0  0  0  0  0
  139.2080   73.4430  223.1330 H   0  0  0  0  0  0  0  0  0  0  0  0
  140.2088   73.3075  220.3374 H   0  0  0  0  0  0  0  0  0  0  0  0
  139.1234   74.5597  221.0830 H   0  0  0  0  0  0  0  0  0  0  0  0
  144.0362   73.6640  221.4021 H   0  0  0  0  0  0  0  0  0  0  0  0
  142.7247   72.5812  220.9294 H   0  0  0  0  0  0  0  0  0  0  0  0
  143.7472   72.4119  218.8367 H   0  0  0  0  0  0  0  0  0  0  0  0
  145.4320   74.4740  218.6330 H   0  0  0  0  0  0  0  0  0  0  0  0
  143.7620   74.9350  217.6765 H   0  0  0  0  0  0  0  0  0  0  0  0
  142.2198   74.1990  217.9512 H   0  0  0  0  0  0  0  0  0  0  0  0
  143.7961   76.0789  219.9154 H   0  0  0  0  0  0  0  0  0  0  0  0
  142.0651   76.7706  218.0704 H   0  0  0  0  0  0  0  0  0  0  0  0
  140.9327   76.3055  219.3992 H   0  0  0  0  0  0  0  0  0  0  0  0
  140.5357   78.9157  219.9390 H   0  0  0  0  0  0  0  0  0  0  0  0
  140.5632   77.3750  220.8855 H   0  0  0  0  0  0  0  0  0  0  0  0
  142.4325   80.6528  220.7259 H   0  0  0  0  0  0  0  0  0  0  0  0
  143.1675   81.8683  222.7218 H   0  0  0  0  0  0  0  0  0  0  0  0
  142.7689   80.9006  224.9893 H   0  0  0  0  0  0  0  0  0  0  0  0
  141.6159   78.7137  225.1418 H   0  0  0  0  0  0  0  0  0  0  0  0
  140.8733   77.4873  223.1514 H   0  0  0  0  0  0  0  0  0  0  0  0
  139.0767   69.5001  222.5919 H   0  0  0  0  0  0  0  0  0  0  0  0
  138.7157   68.1495  224.6560 H   0  0  0  0  0  0  0  0  0  0  0  0
  139.0603   67.8472  227.0654 H   0  0  0  0  0  0  0  0  0  0  0  0
  141.2876   70.7601  229.2535 H   0  0  0  0  0  0  0  0  0  0  0  0
  141.6162   72.0709  227.1689 H   0  0  0  0  0  0  0  0  0  0  0  0
  1  2  2  0
  2  3  1  0
  3  4  1  0
  4  5  1  0
  5  6  2  0
  5  7  1  0
  7  8  1  0
  8  9  1  0
  9 10  1  0
  9 11  1  0
 11 12  1  0
 12 13  1  0
 13 14  1  0
 14 15  1  0
 15 16  1  0
 16 17  2  0
 17 18  1  0
 18 19  2  0
 19 20  1  0
 20 21  2  0
  2 22  1  0
 22 23  2  0
 23 24  1  0
 24 25  2  0
 25 26  1  0
 26 27  2  0
 27 28  1  0
 27 29  1  0
 29 30  2  0
 30 31  1  0
 31 32  2  0
 12  7  1  0
 21 16  1  0
 32 22  1  0
 31 25  1  0
  3 33  1  0
  4 34  1  0
  4 35  1  0
  8 36  1  0
  8 37  1  0
  9 38  1  6
 10 39  1  0
 11 40  1  0
 11 41  1  0
 12 42  1  1
 13 43  1  0
 13 44  1  0
 15 45  1  0
 15 46  1  0
 17 47  1  0
 18 48  1  0
 19 49  1  0
 20 50  1  0
 21 51  1  0
 23 52  1  0
 24 53  1  0
 26 54  1  0
 29 55  1  0
 30 56  1  0
M  END
>  <smiles>  (11) 
O=C(NCC(=O)N1C[C@H](O)C[C@H]1COCc1ccccc1)c1ccc2cc(F)ccc2n1

>  <score_type>  (11) 
oracle

>  <origin>  (11) 
autodockgpu

>  <m_score__min__energy>  (11) 
-9.4199999999999999

>  <m_primary>  (11) 
energy

>  <rmsd>  (11) 
2.5434823684090633

>  <m_score__min__rmsd>  (11) 
2.5434823684090633

>  <meeko>  (11) 
{"free_energy": -8.94, "intermolecular_energy": -11.62, "internal_energy": -1.58, "cluster_size": 28, "cluster_id": 1, "rank_in_cluster": 3}

>  <energy>  (11) 
-8.71

>  <cluster_rmsd>  (11) 
1.55

>  <cluster>  (11) 
1

$$$$

     RDKit          3D

 56 59  0  0  0  0  0  0  0  0999 V2000
  138.4660   75.0790  222.2610 O   0  0  0  0  0  0  0  0  0  0  0  0
  139.5980   75.6080  222.0800 C   0  0  0  0  0  0  0  0  0  0  0  0
  140.6170   74.8990  221.4230 N   0  0  0  0  0  0  0  0  0  0  0  0
  140.3690   73.5660  220.9540 C   0  0  0  0  0  0  0  0  0  0  0  0
  141.3430   73.1450  219.9130 C   0  0  0  0  0  0  0  0  0  0  0  0
  140.9220   72.7000  218.7970 O   0  0  0  0  0  0  0  0  0  0  0  0
  142.7250   73.2490  220.1870 N   0  0  0  0  0  0  0  0  0  0  0  0
  143.5850   72.2240  220.8030 C   0  0  0  0  0  0  0  0  0  0  0  0
  144.9750   72.4990  220.2630 C   0  0  2  0  0  0  0  0  0  0  0  0
  145.8160   72.9870  221.2850 O   0  0  0  0  0  0  0  0  0  0  0  0
  144.7670   73.6440  219.2680 C   0  0  0  0  0  0  0  0  0  0  0  0
  143.6150   74.3640  219.9360 C   0  0  1  0  0  0  0  0  0  0  0  0
  143.0160   75.3960  219.0230 C   0  0  0  0  0  0  0  0  0  0  0  0
  142.5910   76.5020  219.7410 O   0  0  0  0  0  0  0  0  0  0  0  0
  142.6620   77.6730  218.9870 C   0  0  0  0  0  0  0  0  0  0  0  0
  141.6320   78.6520  219.4230 C   0  0  0  0  0  0  0  0  0  0  0  0
  140.2890   78.3490  219.5150 C   0  0  0  0  0  0  0  0  0  0  0  0
  139.3320   79.2530  219.9190 C   0  0  0  0  0  0  0  0  0  0  0  0
  139.6990   80.5340  220.2550 C   0  0  0  0  0  0  0  0  0  0  0  0
  141.0390   80.8510  220.1670 C   0  0  0  0  0  0  0  0  0  0  0  0
  142.0020   79.9520  219.7640 C   0  0  0  0  0  0  0  0  0  0  0  0
  139.8960   76.9770  222.5470 C   0  0  0  0  0  0  0  0  0  0  0  0
  138.8890   77.8280  222.9760 C   0  0  0  0  0  0  0  0  0  0  0  0
  139.2190   79.1160  223.4090 C   0  0  0  0  0  0  0  0  0  0  0  0
  140.5290   79.5560  223.4170 C   0  0  0  0  0  0  0  0  0  0  0  0
  140.9000   80.8140  223.8350 C   0  0  0  0  0  0  0  0  0  0  0  0
  142.2160   81.2430  223.8390 C   0  0  0  0  0  0  0  0  0  0  0  0
  142.5760   82.4880  224.2530 F   0  0  0  0  0  0  0  0  0  0  0  0
  143.1670   80.3430  223.4000 C   0  0  0  0  0  0  0  0  0  0  0  0
  142.8200   79.0630  222.9710 C   0  0  0  0  0  0  0  0  0  0  0  0
  141.4930   78.6760  222.9840 C   0  0  0  0  0  0  0  0  0  0  0  0
  141.1580   77.4530  222.5750 N   0  0  0  0  0  0  0  0  0  0  0  0
  141.5560   75.3240  221.2680 H   0  0  0  0  0  0  0  0  0  0  0  0
  140.4388   72.8726  221.8051 H   0  0  0  0  0  0  0  0  0  0  0  0
  139.3656   73.5485  220.5035 H   0  0  0  0  0  0  0  0  0  0  0  0
  143.5712   72.3160  221.8991 H   0  0  0  0  0  0  0  0  0  0  0  0
  143.2452   71.2047  220.5674 H   0  0  0  0  0  0  0  0  0  0  0  0
  145.4283   71.5927  219.8351 H   0  0  0  0  0  0  0  0  0  0  0  0
  146.0670   72.2740  221.9250 H   0  0  0  0  0  0  0  0  0  0  0  0
  145.6582   74.2839  219.1894 H   0  0  0  0  0  0  0  0  0  0  0  0
  144.5787   73.3292  218.2310 H   0  0  0  0  0  0  0  0  0  0  0  0
  143.8745   74.9388  220.8373 H   0  0  0  0  0  0  0  0  0  0  0  0
  143.7729   75.7114  218.2897 H   0  0  0  0  0  0  0  0  0  0  0  0
  142.1484   74.9531  218.5121 H   0  0  0  0  0  0  0  0  0  0  0  0
  143.6590   78.1207  219.1114 H   0  0  0  0  0  0  0  0  0  0  0  0
  142.4809   77.4212  217.9316 H   0  0  0  0  0  0  0  0  0  0  0  0
  139.9656   77.3311  219.2516 H   0  0  0  0  0  0  0  0  0  0  0  0
  138.2758   78.9503  219.9727 H   0  0  0  0  0  0  0  0  0  0  0  0
  138.9552   81.2760  220.5807 H   0  0  0  0  0  0  0  0  0  0  0  0
  141.3537   81.8713  220.4315 H   0  0  0  0  0  0  0  0  0  0  0  0
  143.0572   80.2584  219.7116 H   0  0  0  0  0  0  0  0  0  0  0  0
  137.8411   77.4934  222.9757 H   0  0  0  0  0  0  0  0  0  0  0  0
  138.4207   79.7918  223.7497 H   0  0  0  0  0  0  0  0  0  0  0  0
  140.1184   81.5069  224.1801 H   0  0  0  0  0  0  0  0  0  0  0  0
  144.2250   80.6439  223.3886 H   0  0  0  0  0  0  0  0  0  0  0  0
  143.5968   78.3656  222.6244 H   0  0  0  0  0  0  0  0  0  0  0  0
  1  2  2  0
  2  3  1  0
  3  4  1  0
  4  5  1  0
  5  6  2  0
  5  7  1  0
  7  8  1  0
  8  9  1  0
  9 10  1  0
  9 11  1  0
 11 12  1  0
 12 13  1  0
 13 14  1  0
 14 15  1  0
 15 16  1  0
 16 17  2  0
 17 18  1  0
 18 19  2  0
 19 20  1  0
 20 21  2  0
  2 22  1  0
 22 23  2  0
 23 24  1  0
 24 25  2  0
 25 26  1  0
 26 27  2  0
 27 28  1  0
 27 29  1  0
 29 30  2  0
 30 31  1  0
 31 32  2  0
 12  7  1  0
 21 16  1  0
 32 22  1  0
 31 25  1  0
  3 33  1  0
  4 34  1  0
  4 35  1  0
  8 36  1  0
  8 37  1  0
  9 38  1  6
 10 39  1  0
 11 40  1  0
 11 41  1  0
 12 42  1  1
 13 43  1  0
 13 44  1  0
 15 45  1  0
 15 46  1  0
 17 47  1  0
 18 48  1  0
 19 49  1  0
 20 50  1  0
 21 51  1  0
 23 52  1  0
 24 53  1  0
 26 54  1  0
 29 55  1  0
 30 56  1  0
M  END
>  <smiles>  (12) 
O=C(NCC(=O)N1C[C@H](O)C[C@H]1COCc1ccccc1)c1ccc2cc(F)ccc2n1

>  <score_type>  (12) 
oracle

>  <origin>  (12) 
autodockgpu

>  <m_score__min__energy>  (12) 
-9.4199999999999999

>  <m_primary>  (12) 
energy

>  <rmsd>  (12) 
7.85629385252653

>  <m_score__min__rmsd>  (12) 
7.85629385252653

>  <meeko>  (12) 
{"free_energy": -5.9, "intermolecular_energy": -8.59, "internal_energy": -4.08, "cluster_size": 6, "cluster_id": 8, "rank_in_cluster": 3}

>  <energy>  (12) 
-8.68

>  <cluster_rmsd>  (12) 
1.42

>  <cluster>  (12) 
1

$$$$

     RDKit          3D

 56 59  0  0  0  0  0  0  0  0999 V2000
  141.4000   72.5120  221.8700 O   0  0  0  0  0  0  0  0  0  0  0  0
  140.3510   72.4800  222.5700 C   0  0  0  0  0  0  0  0  0  0  0  0
  139.2950   73.3680  222.3080 N   0  0  0  0  0  0  0  0  0  0  0  0
  139.4100   74.3160  221.2380 C   0  0  0  0  0  0  0  0  0  0  0  0
  140.2040   75.5110  221.6260 C   0  0  0  0  0  0  0  0  0  0  0  0
  139.9390   76.1180  222.7130 O   0  0  0  0  0  0  0  0  0  0  0  0
  141.2420   75.9490  220.7750 N   0  0  0  0  0  0  0  0  0  0  0  0
  142.4470   75.1960  220.3880 C   0  0  0  0  0  0  0  0  0  0  0  0
  142.8370   75.7430  219.0290 C   0  0  2  0  0  0  0  0  0  0  0  0
  144.0340   76.4830  219.1170 O   0  0  0  0  0  0  0  0  0  0  0  0
  141.7200   76.7360  218.6960 C   0  0  0  0  0  0  0  0  0  0  0  0
  141.3750   77.2180  220.0890 C   0  0  1  0  0  0  0  0  0  0  0  0
  140.1020   78.0170  220.0870 C   0  0  0  0  0  0  0  0  0  0  0  0
  140.3640   79.3600  219.8690 O   0  0  0  0  0  0  0  0  0  0  0  0
  141.7020   79.6770  220.1020 C   0  0  0  0  0  0  0  0  0  0  0  0
  141.8970   80.1870  221.4840 C   0  0  0  0  0  0  0  0  0  0  0  0
  141.6370   81.4910  221.8550 C   0  0  0  0  0  0  0  0  0  0  0  0
  141.8160   81.9680  223.1350 C   0  0  0  0  0  0  0  0  0  0  0  0
  142.2770   81.1270  224.1190 C   0  0  0  0  0  0  0  0  0  0  0  0
  142.5410   79.8210  223.7620 C   0  0  0  0  0  0  0  0  0  0  0  0
  142.3640   79.3370  222.4850 C   0  0  0  0  0  0  0  0  0  0  0  0
  140.1910   71.5210  223.6830 C   0  0  0  0  0  0  0  0  0  0  0  0
  139.5640   70.2990  223.4960 C   0  0  0  0  0  0  0  0  0  0  0  0
  139.4340   69.4230  224.5780 C   0  0  0  0  0  0  0  0  0  0  0  0
  139.9190   69.7540  225.8300 C   0  0  0  0  0  0  0  0  0  0  0  0
  139.8140   68.9240  226.9240 C   0  0  0  0  0  0  0  0  0  0  0  0
  140.3040   69.2660  228.1720 C   0  0  0  0  0  0  0  0  0  0  0  0
  140.1970   68.4420  229.2480 F   0  0  0  0  0  0  0  0  0  0  0  0
  140.9170   70.4990  228.2850 C   0  0  0  0  0  0  0  0  0  0  0  0
  141.0370   71.3590  227.1960 C   0  0  0  0  0  0  0  0  0  0  0  0
  140.5340   70.9770  225.9660 C   0  0  0  0  0  0  0  0  0  0  0  0
  140.6470   71.7970  224.9230 N   0  0  0  0  0  0  0  0  0  0  0  0
  138.4230   73.3520  222.8800 H   0  0  0  0  0  0  0  0  0  0  0  0
  139.9010   73.8272  220.3836 H   0  0  0  0  0  0  0  0  0  0  0  0
  138.3963   74.6553  220.9786 H   0  0  0  0  0  0  0  0  0  0  0  0
  143.2549   75.3599  221.1163 H   0  0  0  0  0  0  0  0  0  0  0  0
  142.2628   74.1119  220.3578 H   0  0  0  0  0  0  0  0  0  0  0  0
  142.9738   74.9367  218.2933 H   0  0  0  0  0  0  0  0  0  0  0  0
  144.0020   77.1450  219.8530 H   0  0  0  0  0  0  0  0  0  0  0  0
  142.0796   77.5562  218.0573 H   0  0  0  0  0  0  0  0  0  0  0  0
  140.8772   76.3133  218.1294 H   0  0  0  0  0  0  0  0  0  0  0  0
  142.1057   77.8992  220.5494 H   0  0  0  0  0  0  0  0  0  0  0  0
  139.4434   77.6439  219.2889 H   0  0  0  0  0  0  0  0  0  0  0  0
  139.6156   77.9074  221.0675 H   0  0  0  0  0  0  0  0  0  0  0  0
  142.3149   78.7743  219.9621 H   0  0  0  0  0  0  0  0  0  0  0  0
  142.0040   80.4623  219.3934 H   0  0  0  0  0  0  0  0  0  0  0  0
  141.2670   82.1866  221.0874 H   0  0  0  0  0  0  0  0  0  0  0  0
  141.5905   83.0190  223.3686 H   0  0  0  0  0  0  0  0  0  0  0  0
  142.4293   81.4808  225.1494 H   0  0  0  0  0  0  0  0  0  0  0  0
  142.9112   79.1321  224.5356 H   0  0  0  0  0  0  0  0  0  0  0  0
  142.5900   78.2851  222.2562 H   0  0  0  0  0  0  0  0  0  0  0  0
  139.1726   70.0212  222.5062 H   0  0  0  0  0  0  0  0  0  0  0  0
  138.9369   68.4529  224.4306 H   0  0  0  0  0  0  0  0  0  0  0  0
  139.3202   67.9489  226.8005 H   0  0  0  0  0  0  0  0  0  0  0  0
  141.3206   70.8094  229.2600 H   0  0  0  0  0  0  0  0  0  0  0  0
  141.5288   72.3359  227.3137 H   0  0  0  0  0  0  0  0  0  0  0  0
  1  2  2  0
  2  3  1  0
  3  4  1  0
  4  5  1  0
  5  6  2  0
  5  7  1  0
  7  8  1  0
  8  9  1  0
  9 10  1  0
  9 11  1  0
 11 12  1  0
 12 13  1  0
 13 14  1  0
 14 15  1  0
 15 16  1  0
 16 17  2  0
 17 18  1  0
 18 19  2  0
 19 20  1  0
 20 21  2  0
  2 22  1  0
 22 23  2  0
 23 24  1  0
 24 25  2  0
 25 26  1  0
 26 27  2  0
 27 28  1  0
 27 29  1  0
 29 30  2  0
 30 31  1  0
 31 32  2  0
 12  7  1  0
 21 16  1  0
 32 22  1  0
 31 25  1  0
  3 33  1  0
  4 34  1  0
  4 35  1  0
  8 36  1  0
  8 37  1  0
  9 38  1  6
 10 39  1  0
 11 40  1  0
 11 41  1  0
 12 42  1  1
 13 43  1  0
 13 44  1  0
 15 45  1  0
 15 46  1  0
 17 47  1  0
 18 48  1  0
 19 49  1  0
 20 50  1  0
 21 51  1  0
 23 52  1  0
 24 53  1  0
 26 54  1  0
 29 55  1  0
 30 56  1  0
M  END
>  <smiles>  (13) 
O=C(NCC(=O)N1C[C@H](O)C[C@H]1COCc1ccccc1)c1ccc2cc(F)ccc2n1

>  <score_type>  (13) 
oracle

>  <origin>  (13) 
autodockgpu

>  <m_score__min__energy>  (13) 
-9.4199999999999999

>  <m_primary>  (13) 
energy

>  <rmsd>  (13) 
1.874592359412966

>  <m_score__min__rmsd>  (13) 
1.874592359412966

>  <meeko>  (13) 
{"free_energy": -8.79, "intermolecular_energy": -11.47, "internal_energy": -1.65, "cluster_size": 28, "cluster_id": 1, "rank_in_cluster": 7}

>  <energy>  (13) 
-8.66

>  <cluster_rmsd>  (13) 
1.69

>  <cluster>  (13) 
1

$$$$

     RDKit          3D

 56 59  0  0  0  0  0  0  0  0999 V2000
  139.0610   70.6440  221.5400 O   0  0  0  0  0  0  0  0  0  0  0  0
  139.2670   71.4810  222.4610 C   0  0  0  0  0  0  0  0  0  0  0  0
  139.0370   72.8490  222.2410 N   0  0  0  0  0  0  0  0  0  0  0  0
  138.5640   73.2970  220.9630 C   0  0  0  0  0  0  0  0  0  0  0  0
  139.6730   73.5120  219.9960 C   0  0  0  0  0  0  0  0  0  0  0  0
  139.4270   74.0250  218.8580 O   0  0  0  0  0  0  0  0  0  0  0  0
  140.9850   73.1400  220.3650 N   0  0  0  0  0  0  0  0  0  0  0  0
  141.7080   71.9240  219.9560 C   0  0  0  0  0  0  0  0  0  0  0  0
  143.1760   72.3030  220.0040 C   0  0  2  0  0  0  0  0  0  0  0  0
  143.8260   71.6340  221.0610 O   0  0  0  0  0  0  0  0  0  0  0  0
  143.1630   73.7930  220.3570 C   0  0  0  0  0  0  0  0  0  0  0  0
  141.9190   73.8460  221.2180 C   0  0  1  0  0  0  0  0  0  0  0  0
  141.5060   75.2650  221.4880 C   0  0  0  0  0  0  0  0  0  0  0  0
  140.4180   75.3070  222.3450 O   0  0  0  0  0  0  0  0  0  0  0  0
  139.7290   76.5160  222.2580 C   0  0  0  0  0  0  0  0  0  0  0  0
  140.6670   77.6680  222.2860 C   0  0  0  0  0  0  0  0  0  0  0  0
  140.9310   78.4590  221.1870 C   0  0  0  0  0  0  0  0  0  0  0  0
  141.7990   79.5290  221.2090 C   0  0  0  0  0  0  0  0  0  0  0  0
  142.4550   79.8520  222.3720 C   0  0  0  0  0  0  0  0  0  0  0  0
  142.2020   79.0690  223.4790 C   0  0  0  0  0  0  0  0  0  0  0  0
  141.3350   77.9990  223.4640 C   0  0  0  0  0  0  0  0  0  0  0  0
  139.7540   71.0650  223.7920 C   0  0  0  0  0  0  0  0  0  0  0  0
  140.5930   71.8770  224.5390 C   0  0  0  0  0  0  0  0  0  0  0  0
  141.0310   71.4410  225.7930 C   0  0  0  0  0  0  0  0  0  0  0  0
  140.6420   70.2160  226.3020 C   0  0  0  0  0  0  0  0  0  0  0  0
  141.0470   69.7460  227.5310 C   0  0  0  0  0  0  0  0  0  0  0  0
  140.6500   68.5180  228.0300 C   0  0  0  0  0  0  0  0  0  0  0  0
  141.0530   68.0580  229.2440 F   0  0  0  0  0  0  0  0  0  0  0  0
  139.8140   67.7610  227.2320 C   0  0  0  0  0  0  0  0  0  0  0  0
  139.3890   68.2110  225.9830 C   0  0  0  0  0  0  0  0  0  0  0  0
  139.8090   69.4450  225.5250 C   0  0  0  0  0  0  0  0  0  0  0  0
  139.4040   69.8790  224.3320 N   0  0  0  0  0  0  0  0  0  0  0  0
  139.2040   73.5520  222.9940 H   0  0  0  0  0  0  0  0  0  0  0  0
  137.8792   72.5397  220.5536 H   0  0  0  0  0  0  0  0  0  0  0  0
  138.0542   74.2604  221.1110 H   0  0  0  0  0  0  0  0  0  0  0  0
  141.4993   71.0980  220.6519 H   0  0  0  0  0  0  0  0  0  0  0  0
  141.4034   71.5796  218.9567 H   0  0  0  0  0  0  0  0  0  0  0  0
  143.6875   72.0561  219.0620 H   0  0  0  0  0  0  0  0  0  0  0  0
  144.8070   71.6030  220.9260 H   0  0  0  0  0  0  0  0  0  0  0  0
  144.0616   74.0877  220.9188 H   0  0  0  0  0  0  0  0  0  0  0  0
  143.1593   74.4745  219.4936 H   0  0  0  0  0  0  0  0  0  0  0  0
  142.0197   73.4119  222.2237 H   0  0  0  0  0  0  0  0  0  0  0  0
  142.3476   75.8042  221.9472 H   0  0  0  0  0  0  0  0  0  0  0  0
  141.2225   75.7366  220.5355 H   0  0  0  0  0  0  0  0  0  0  0  0
  139.1599   76.5386  221.3169 H   0  0  0  0  0  0  0  0  0  0  0  0
  139.0513   76.5955  223.1208 H   0  0  0  0  0  0  0  0  0  0  0  0
  140.4208   78.2227  220.2416 H   0  0  0  0  0  0  0  0  0  0  0  0
  141.9661   80.1227  220.2982 H   0  0  0  0  0  0  0  0  0  0  0  0
  143.1536   80.7004  222.4185 H   0  0  0  0  0  0  0  0  0  0  0  0
  142.7179   79.3110  224.4199 H   0  0  0  0  0  0  0  0  0  0  0  0
  141.1704   77.4083  224.3772 H   0  0  0  0  0  0  0  0  0  0  0  0
  140.9111   72.8551  224.1489 H   0  0  0  0  0  0  0  0  0  0  0  0
  141.6976   72.0847  226.3857 H   0  0  0  0  0  0  0  0  0  0  0  0
  141.7138   70.3726  228.1415 H   0  0  0  0  0  0  0  0  0  0  0  0
  139.4751   66.7782  227.5914 H   0  0  0  0  0  0  0  0  0  0  0  0
  138.7241   67.5882  225.3665 H   0  0  0  0  0  0  0  0  0  0  0  0
  1  2  2  0
  2  3  1  0
  3  4  1  0
  4  5  1  0
  5  6  2  0
  5  7  1  0
  7  8  1  0
  8  9  1  0
  9 10  1  0
  9 11  1  0
 11 12  1  0
 12 13  1  0
 13 14  1  0
 14 15  1  0
 15 16  1  0
 16 17  2  0
 17 18  1  0
 18 19  2  0
 19 20  1  0
 20 21  2  0
  2 22  1  0
 22 23  2  0
 23 24  1  0
 24 25  2  0
 25 26  1  0
 26 27  2  0
 27 28  1  0
 27 29  1  0
 29 30  2  0
 30 31  1  0
 31 32  2  0
 12  7  1  0
 21 16  1  0
 32 22  1  0
 31 25  1  0
  3 33  1  0
  4 34  1  0
  4 35  1  0
  8 36  1  0
  8 37  1  0
  9 38  1  6
 10 39  1  0
 11 40  1  0
 11 41  1  0
 12 42  1  1
 13 43  1  0
 13 44  1  0
 15 45  1  0
 15 46  1  0
 17 47  1  0
 18 48  1  0
 19 49  1  0
 20 50  1  0
 21 51  1  0
 23 52  1  0
 24 53  1  0
 26 54  1  0
 29 55  1  0
 30 56  1  0
M  END
>  <smiles>  (14) 
O=C(NCC(=O)N1C[C@H](O)C[C@H]1COCc1ccccc1)c1ccc2cc(F)ccc2n1

>  <score_type>  (14) 
oracle

>  <origin>  (14) 
autodockgpu

>  <m_score__min__energy>  (14) 
-9.4199999999999999

>  <m_primary>  (14) 
energy

>  <rmsd>  (14) 
3.3768988718480313

>  <m_score__min__rmsd>  (14) 
3.3768988718480313

>  <meeko>  (14) 
{"free_energy": -7.93, "intermolecular_energy": -10.62, "internal_energy": -2.59, "cluster_size": 28, "cluster_id": 1, "rank_in_cluster": 25}

>  <energy>  (14) 
-8.65

>  <cluster_rmsd>  (14) 
1.92

>  <cluster>  (14) 
1

$$$$

     RDKit          3D

 56 59  0  0  0  0  0  0  0  0999 V2000
  139.9160   71.0090  221.0550 O   0  0  0  0  0  0  0  0  0  0  0  0
  139.8390   71.5150  222.2080 C   0  0  0  0  0  0  0  0  0  0  0  0
  139.7710   72.9090  222.3700 N   0  0  0  0  0  0  0  0  0  0  0  0
  139.7880   73.7610  221.2170 C   0  0  0  0  0  0  0  0  0  0  0  0
  140.7590   74.8780  221.3560 C   0  0  0  0  0  0  0  0  0  0  0  0
  140.6600   75.6810  222.3390 O   0  0  0  0  0  0  0  0  0  0  0  0
  141.7780   75.0240  220.3890 N   0  0  0  0  0  0  0  0  0  0  0  0
  142.0680   76.2220  219.5820 C   0  0  0  0  0  0  0  0  0  0  0  0
  143.5480   76.1370  219.2660 C   0  0  2  0  0  0  0  0  0  0  0  0
  143.7480   75.8760  217.8950 O   0  0  0  0  0  0  0  0  0  0  0  0
  144.0200   74.8970  220.0320 C   0  0  0  0  0  0  0  0  0  0  0  0
  142.7650   74.0540  219.9610 C   0  0  1  0  0  0  0  0  0  0  0  0
  142.8550   72.8680  220.8800 C   0  0  0  0  0  0  0  0  0  0  0  0
  142.4450   71.7130  220.2350 O   0  0  0  0  0  0  0  0  0  0  0  0
  143.1350   71.5080  219.0400 C   0  0  0  0  0  0  0  0  0  0  0  0
  144.1020   70.3870  219.1670 C   0  0  0  0  0  0  0  0  0  0  0  0
  143.7400   69.1130  219.5550 C   0  0  0  0  0  0  0  0  0  0  0  0
  144.6340   68.0710  219.6730 C   0  0  0  0  0  0  0  0  0  0  0  0
  145.9640   68.2770  219.3990 C   0  0  0  0  0  0  0  0  0  0  0  0
  146.3400   69.5470  219.0110 C   0  0  0  0  0  0  0  0  0  0  0  0
  145.4530   70.5930  218.8900 C   0  0  0  0  0  0  0  0  0  0  0  0
  139.8190   70.6740  223.4230 C   0  0  0  0  0  0  0  0  0  0  0  0
  139.2340   69.4180  223.4210 C   0  0  0  0  0  0  0  0  0  0  0  0
  139.2380   68.6580  224.5940 C   0  0  0  0  0  0  0  0  0  0  0  0
  139.8140   69.1360  225.7560 C   0  0  0  0  0  0  0  0  0  0  0  0
  139.8420   68.4240  226.9340 C   0  0  0  0  0  0  0  0  0  0  0  0
  140.4230   68.9130  228.0900 C   0  0  0  0  0  0  0  0  0  0  0  0
  140.4470   68.2050  229.2510 F   0  0  0  0  0  0  0  0  0  0  0  0
  140.9880   70.1720  228.0210 C   0  0  0  0  0  0  0  0  0  0  0  0
  140.9740   70.9160  226.8430 C   0  0  0  0  0  0  0  0  0  0  0  0
  140.3830   70.3870  225.7100 C   0  0  0  0  0  0  0  0  0  0  0  0
  140.3690   71.0960  224.5820 N   0  0  0  0  0  0  0  0  0  0  0  0
  139.7080   73.3390  223.3180 H   0  0  0  0  0  0  0  0  0  0  0  0
  140.0629   73.1605  220.3373 H   0  0  0  0  0  0  0  0  0  0  0  0
  138.7848   74.1986  221.1067 H   0  0  0  0  0  0  0  0  0  0  0  0
  141.4745   76.2166  218.6559 H   0  0  0  0  0  0  0  0  0  0  0  0
  141.8132   77.1497  220.1154 H   0  0  0  0  0  0  0  0  0  0  0  0
  144.0707   77.0687  219.5281 H   0  0  0  0  0  0  0  0  0  0  0  0
  144.7070   75.9220  217.6500 H   0  0  0  0  0  0  0  0  0  0  0  0
  144.8698   74.4076  219.5335 H   0  0  0  0  0  0  0  0  0  0  0  0
  144.3909   75.0927  221.0489 H   0  0  0  0  0  0  0  0  0  0  0  0
  142.5514   73.6040  218.9802 H   0  0  0  0  0  0  0  0  0  0  0  0
  143.8972   72.7460  221.2101 H   0  0  0  0  0  0  0  0  0  0  0  0
  142.1970   73.0413  221.7443 H   0  0  0  0  0  0  0  0  0  0  0  0
  142.4132   71.2716  218.2443 H   0  0  0  0  0  0  0  0  0  0  0  0
  143.6922   72.4246  218.7963 H   0  0  0  0  0  0  0  0  0  0  0  0
  142.6813   68.9190  219.7822 H   0  0  0  0  0  0  0  0  0  0  0  0
  144.2832   67.0765  219.9859 H   0  0  0  0  0  0  0  0  0  0  0  0
  146.6992   67.4633  219.4852 H   0  0  0  0  0  0  0  0  0  0  0  0
  147.4009   69.7327  218.7874 H   0  0  0  0  0  0  0  0  0  0  0  0
  145.8081   71.5858  218.5765 H   0  0  0  0  0  0  0  0  0  0  0  0
  138.7708   69.0227  222.5049 H   0  0  0  0  0  0  0  0  0  0  0  0
  138.7740   67.6606  224.5924 H   0  0  0  0  0  0  0  0  0  0  0  0
  139.3831   67.4245  226.9568 H   0  0  0  0  0  0  0  0  0  0  0  0
  141.4607   70.5976  228.9185 H   0  0  0  0  0  0  0  0  0  0  0  0
  141.4297   71.9168  226.8144 H   0  0  0  0  0  0  0  0  0  0  0  0
  1  2  2  0
  2  3  1  0
  3  4  1  0
  4  5  1  0
  5  6  2  0
  5  7  1  0
  7  8  1  0
  8  9  1  0
  9 10  1  0
  9 11  1  0
 11 12  1  0
 12 13  1  0
 13 14  1  0
 14 15  1  0
 15 16  1  0
 16 17  2  0
 17 18  1  0
 18 19  2  0
 19 20  1  0
 20 21  2  0
  2 22  1  0
 22 23  2  0
 23 24  1  0
 24 25  2  0
 25 26  1  0
 26 27  2  0
 27 28  1  0
 27 29  1  0
 29 30  2  0
 30 31  1  0
 31 32  2  0
 12  7  1  0
 21 16  1  0
 32 22  1  0
 31 25  1  0
  3 33  1  0
  4 34  1  0
  4 35  1  0
  8 36  1  0
  8 37  1  0
  9 38  1  1
 10 39  1  0
 11 40  1  0
 11 41  1  0
 12 42  1  6
 13 43  1  0
 13 44  1  0
 15 45  1  0
 15 46  1  0
 17 47  1  0
 18 48  1  0
 19 49  1  0
 20 50  1  0
 21 51  1  0
 23 52  1  0
 24 53  1  0
 26 54  1  0
 29 55  1  0
 30 56  1  0
M  END
>  <smiles>  (15) 
O=C(NCC(=O)N1C[C@H](O)C[C@H]1COCc1ccccc1)c1ccc2cc(F)ccc2n1

>  <score_type>  (15) 
oracle

>  <origin>  (15) 
autodockgpu

>  <m_score__min__energy>  (15) 
-9.4199999999999999

>  <m_primary>  (15) 
energy

>  <rmsd>  (15) 
2.44615107037529

>  <m_score__min__rmsd>  (15) 
2.44615107037529

>  <meeko>  (15) 
{"free_energy": -7.79, "intermolecular_energy": -10.47, "internal_energy": -1.97, "cluster_size": 2, "cluster_id": 2, "rank_in_cluster": 2}

>  <energy>  (15) 
-8.65

>  <cluster_rmsd>  (15) 
1.46

>  <cluster>  (15) 
1

$$$$

     RDKit          3D

 56 59  0  0  0  0  0  0  0  0999 V2000
  140.7390   71.1930  221.3700 O   0  0  0  0  0  0  0  0  0  0  0  0
  140.1990   71.6080  222.4320 C   0  0  0  0  0  0  0  0  0  0  0  0
  139.6900   72.9140  222.5070 N   0  0  0  0  0  0  0  0  0  0  0  0
  139.7820   73.7820  221.3690 C   0  0  0  0  0  0  0  0  0  0  0  0
  140.8720   74.7830  221.5110 C   0  0  0  0  0  0  0  0  0  0  0  0
  140.7460   75.7380  222.3430 O   0  0  0  0  0  0  0  0  0  0  0  0
  142.0300   74.6520  220.7140 N   0  0  0  0  0  0  0  0  0  0  0  0
  142.9260   73.4850  220.6390 C   0  0  0  0  0  0  0  0  0  0  0  0
  143.5310   73.5400  219.2500 C   0  0  2  0  0  0  0  0  0  0  0  0
  144.9030   73.8590  219.3200 O   0  0  0  0  0  0  0  0  0  0  0  0
  142.8290   74.7280  218.5860 C   0  0  0  0  0  0  0  0  0  0  0  0
  142.6100   75.6110  219.7960 C   0  0  1  0  0  0  0  0  0  0  0  0
  141.6830   76.7500  219.4780 C   0  0  0  0  0  0  0  0  0  0  0  0
  142.3270   77.9670  219.6240 O   0  0  0  0  0  0  0  0  0  0  0  0
  141.4640   78.9660  220.0730 C   0  0  0  0  0  0  0  0  0  0  0  0
  141.7560   79.3300  221.4830 C   0  0  0  0  0  0  0  0  0  0  0  0
  142.3160   80.5360  221.8540 C   0  0  0  0  0  0  0  0  0  0  0  0
  142.5880   80.8780  223.1610 C   0  0  0  0  0  0  0  0  0  0  0  0
  142.2990   79.9950  224.1730 C   0  0  0  0  0  0  0  0  0  0  0  0
  141.7390   78.7850  223.8160 C   0  0  0  0  0  0  0  0  0  0  0  0
  141.4640   78.4370  222.5120 C   0  0  0  0  0  0  0  0  0  0  0  0
  140.0830   70.7480  223.6280 C   0  0  0  0  0  0  0  0  0  0  0  0
  139.4400   69.5210  223.5750 C   0  0  0  0  0  0  0  0  0  0  0  0
  139.3530   68.7420  224.7330 C   0  0  0  0  0  0  0  0  0  0  0  0
  139.8970   69.1730  225.9290 C   0  0  0  0  0  0  0  0  0  0  0  0
  139.8360   68.4400  227.0920 C   0  0  0  0  0  0  0  0  0  0  0  0
  140.3850   68.8810  228.2840 C   0  0  0  0  0  0  0  0  0  0  0  0
  140.3210   68.1530  229.4310 F   0  0  0  0  0  0  0  0  0  0  0  0
  141.0100   70.1130  228.2640 C   0  0  0  0  0  0  0  0  0  0  0  0
  141.0870   70.8760  227.1010 C   0  0  0  0  0  0  0  0  0  0  0  0
  140.5250   70.3960  225.9330 C   0  0  0  0  0  0  0  0  0  0  0  0
  140.5970   71.1230  224.8190 N   0  0  0  0  0  0  0  0  0  0  0  0
  139.2420   73.2690  223.3800 H   0  0  0  0  0  0  0  0  0  0  0  0
  139.9754   73.1727  220.4738 H   0  0  0  0  0  0  0  0  0  0  0  0
  138.8312   74.3287  221.2844 H   0  0  0  0  0  0  0  0  0  0  0  0
  143.7121   73.5518  221.4055 H   0  0  0  0  0  0  0  0  0  0  0  0
  142.3896   72.5414  220.8178 H   0  0  0  0  0  0  0  0  0  0  0  0
  143.4166   72.5819  218.7219 H   0  0  0  0  0  0  0  0  0  0  0  0
  145.1590   74.5260  218.6330 H   0  0  0  0  0  0  0  0  0  0  0  0
  143.4701   75.2143  217.8360 H   0  0  0  0  0  0  0  0  0  0  0  0
  141.9171   74.4742  218.0256 H   0  0  0  0  0  0  0  0  0  0  0  0
  143.5086   76.1127  220.1845 H   0  0  0  0  0  0  0  0  0  0  0  0
  141.3327   76.6502  218.4400 H   0  0  0  0  0  0  0  0  0  0  0  0
  140.8330   76.7164  220.1754 H   0  0  0  0  0  0  0  0  0  0  0  0
  141.5851   79.8570  219.4394 H   0  0  0  0  0  0  0  0  0  0  0  0
  140.4324   78.5886  220.0158 H   0  0  0  0  0  0  0  0  0  0  0  0
  142.5580   81.2626  221.0644 H   0  0  0  0  0  0  0  0  0  0  0  0
  143.0354   81.8556  223.3934 H   0  0  0  0  0  0  0  0  0  0  0  0
  142.5054   80.2422  225.2248 H   0  0  0  0  0  0  0  0  0  0  0  0
  141.5008   78.0636  224.6115 H   0  0  0  0  0  0  0  0  0  0  0  0
  141.0159   77.4586  222.2840 H   0  0  0  0  0  0  0  0  0  0  0  0
  139.0025   69.1636  222.6311 H   0  0  0  0  0  0  0  0  0  0  0  0
  138.8425   67.7685  224.6918 H   0  0  0  0  0  0  0  0  0  0  0  0
  139.3302   67.4634  227.0738 H   0  0  0  0  0  0  0  0  0  0  0  0
  141.4584   70.5014  229.1903 H   0  0  0  0  0  0  0  0  0  0  0  0
  141.5915   71.8534  227.1121 H   0  0  0  0  0  0  0  0  0  0  0  0
  1  2  2  0
  2  3  1  0
  3  4  1  0
  4  5  1  0
  5  6  2  0
  5  7  1  0
  7  8  1  0
  8  9  1  0
  9 10  1  0
  9 11  1  0
 11 12  1  0
 12 13  1  0
 13 14  1  0
 14 15  1  0
 15 16  1  0
 16 17  2  0
 17 18  1  0
 18 19  2  0
 19 20  1  0
 20 21  2  0
  2 22  1  0
 22 23  2  0
 23 24  1  0
 24 25  2  0
 25 26  1  0
 26 27  2  0
 27 28  1  0
 27 29  1  0
 29 30  2  0
 30 31  1  0
 31 32  2  0
 12  7  1  0
 21 16  1  0
 32 22  1  0
 31 25  1  0
  3 33  1  0
  4 34  1  0
  4 35  1  0
  8 36  1  0
  8 37  1  0
  9 38  1  6
 10 39  1  0
 11 40  1  0
 11 41  1  0
 12 42  1  1
 13 43  1  0
 13 44  1  0
 15 45  1  0
 15 46  1  0
 17 47  1  0
 18 48  1  0
 19 49  1  0
 20 50  1  0
 21 51  1  0
 23 52  1  0
 24 53  1  0
 26 54  1  0
 29 55  1  0
 30 56  1  0
M  END
>  <smiles>  (16) 
O=C(NCC(=O)N1C[C@H](O)C[C@H]1COCc1ccccc1)c1ccc2cc(F)ccc2n1

>  <score_type>  (16) 
oracle

>  <origin>  (16) 
autodockgpu

>  <m_score__min__energy>  (16) 
-9.4199999999999999

>  <m_primary>  (16) 
energy

>  <rmsd>  (16) 
2.328183733318512

>  <m_score__min__rmsd>  (16) 
2.328183733318512

>  <meeko>  (16) 
{"free_energy": -8.8, "intermolecular_energy": -11.49, "internal_energy": -1.62, "cluster_size": 28, "cluster_id": 1, "rank_in_cluster": 6}

>  <energy>  (16) 
-8.61

>  <cluster_rmsd>  (16) 
1.44

>  <cluster>  (16) 
1

$$$$

     RDKit          3D

 56 59  0  0  0  0  0  0  0  0999 V2000
  140.1000   71.1230  221.0820 O   0  0  0  0  0  0  0  0  0  0  0  0
  139.8980   71.6160  222.2250 C   0  0  0  0  0  0  0  0  0  0  0  0
  139.7280   73.0020  222.3810 N   0  0  0  0  0  0  0  0  0  0  0  0
  139.7840   73.8600  221.2330 C   0  0  0  0  0  0  0  0  0  0  0  0
  140.1530   75.2550  221.5910 C   0  0  0  0  0  0  0  0  0  0  0  0
  139.7750   75.7420  222.7050 O   0  0  0  0  0  0  0  0  0  0  0  0
  140.9200   76.0150  220.6810 N   0  0  0  0  0  0  0  0  0  0  0  0
  142.2690   75.7010  220.1820 C   0  0  0  0  0  0  0  0  0  0  0  0
  142.3490   76.3550  218.8170 C   0  0  2  0  0  0  0  0  0  0  0  0
  143.2430   77.4460  218.8410 O   0  0  0  0  0  0  0  0  0  0  0  0
  140.9470   76.9310  218.5990 C   0  0  0  0  0  0  0  0  0  0  0  0
  140.5760   77.2630  220.0290 C   0  0  1  0  0  0  0  0  0  0  0  0
  139.1170   77.6010  220.1470 C   0  0  0  0  0  0  0  0  0  0  0  0
  138.9420   78.7990  220.8210 O   0  0  0  0  0  0  0  0  0  0  0  0
  139.1670   78.6670  222.1910 C   0  0  0  0  0  0  0  0  0  0  0  0
  140.4600   79.2840  222.5820 C   0  0  0  0  0  0  0  0  0  0  0  0
  141.1910   80.1070  221.7490 C   0  0  0  0  0  0  0  0  0  0  0  0
  142.3900   80.6820  222.1090 C   0  0  0  0  0  0  0  0  0  0  0  0
  142.9160   80.4430  223.3550 C   0  0  0  0  0  0  0  0  0  0  0  0
  142.1960   79.6220  224.1980 C   0  0  0  0  0  0  0  0  0  0  0  0
  140.9970   79.0440  223.8460 C   0  0  0  0  0  0  0  0  0  0  0  0
  139.8330   70.7700  223.4340 C   0  0  0  0  0  0  0  0  0  0  0  0
  139.2090   69.5320  223.4140 C   0  0  0  0  0  0  0  0  0  0  0  0
  139.1710   68.7650  224.5830 C   0  0  0  0  0  0  0  0  0  0  0  0
  139.7430   69.2180  225.7570 C   0  0  0  0  0  0  0  0  0  0  0  0
  139.7300   68.4980  226.9300 C   0  0  0  0  0  0  0  0  0  0  0  0
  140.3080   68.9630  228.0990 C   0  0  0  0  0  0  0  0  0  0  0  0
  140.2920   68.2470  229.2550 F   0  0  0  0  0  0  0  0  0  0  0  0
  140.9120   70.2040  228.0460 C   0  0  0  0  0  0  0  0  0  0  0  0
  140.9400   70.9550  226.8720 C   0  0  0  0  0  0  0  0  0  0  0  0
  140.3510   70.4520  225.7270 C   0  0  0  0  0  0  0  0  0  0  0  0
  140.3760   71.1670  224.6040 N   0  0  0  0  0  0  0  0  0  0  0  0
  139.5600   73.4220  223.3210 H   0  0  0  0  0  0  0  0  0  0  0  0
  140.5333   73.4644  220.5315 H   0  0  0  0  0  0  0  0  0  0  0  0
  138.7823   73.8819  220.7791 H   0  0  0  0  0  0  0  0  0  0  0  0
  143.0351   76.1153  220.8539 H   0  0  0  0  0  0  0  0  0  0  0  0
  142.4464   74.6166  220.1298 H   0  0  0  0  0  0  0  0  0  0  0  0
  142.6811   75.6424  218.0476 H   0  0  0  0  0  0  0  0  0  0  0  0
  143.6730   77.5470  219.7280 H   0  0  0  0  0  0  0  0  0  0  0  0
  140.9684   77.8286  217.9635 H   0  0  0  0  0  0  0  0  0  0  0  0
  140.2452   76.2606  218.0812 H   0  0  0  0  0  0  0  0  0  0  0  0
  141.0789   78.1428  220.4570 H   0  0  0  0  0  0  0  0  0  0  0  0
  138.6843   77.6876  219.1394 H   0  0  0  0  0  0  0  0  0  0  0  0
  138.6148   76.8020  220.7122 H   0  0  0  0  0  0  0  0  0  0  0  0
  138.3520   79.1631  222.7384 H   0  0  0  0  0  0  0  0  0  0  0  0
  139.2022   77.5956  222.4378 H   0  0  0  0  0  0  0  0  0  0  0  0
  140.7949   80.3148  220.7440 H   0  0  0  0  0  0  0  0  0  0  0  0
  142.9249   81.3311  221.4001 H   0  0  0  0  0  0  0  0  0  0  0  0
  143.8721   80.8879  223.6679 H   0  0  0  0  0  0  0  0  0  0  0  0
  142.5998   79.4191  225.2009 H   0  0  0  0  0  0  0  0  0  0  0  0
  140.4654   78.3961  224.5585 H   0  0  0  0  0  0  0  0  0  0  0  0
  138.7485   69.1568  222.4882 H   0  0  0  0  0  0  0  0  0  0  0  0
  138.6765   67.7825  224.5678 H   0  0  0  0  0  0  0  0  0  0  0  0
  139.2404   67.5130  226.9390 H   0  0  0  0  0  0  0  0  0  0  0  0
  141.3829   70.6101  228.9534 H   0  0  0  0  0  0  0  0  0  0  0  0
  141.4274   71.9410  226.8568 H   0  0  0  0  0  0  0  0  0  0  0  0
  1  2  2  0
  2  3  1  0
  3  4  1  0
  4  5  1  0
  5  6  2  0
  5  7  1  0
  7  8  1  0
  8  9  1  0
  9 10  1  0
  9 11  1  0
 11 12  1  0
 12 13  1  0
 13 14  1  0
 14 15  1  0
 15 16  1  0
 16 17  2  0
 17 18  1  0
 18 19  2  0
 19 20  1  0
 20 21  2  0
  2 22  1  0
 22 23  2  0
 23 24  1  0
 24 25  2  0
 25 26  1  0
 26 27  2  0
 27 28  1  0
 27 29  1  0
 29 30  2  0
 30 31  1  0
 31 32  2  0
 12  7  1  0
 21 16  1  0
 32 22  1  0
 31 25  1  0
  3 33  1  0
  4 34  1  0
  4 35  1  0
  8 36  1  0
  8 37  1  0
  9 38  1  6
 10 39  1  0
 11 40  1  0
 11 41  1  0
 12 42  1  1
 13 43  1  0
 13 44  1  0
 15 45  1  0
 15 46  1  0
 17 47  1  0
 18 48  1  0
 19 49  1  0
 20 50  1  0
 21 51  1  0
 23 52  1  0
 24 53  1  0
 26 54  1  0
 29 55  1  0
 30 56  1  0
M  END
>  <smiles>  (17) 
O=C(NCC(=O)N1C[C@H](O)C[C@H]1COCc1ccccc1)c1ccc2cc(F)ccc2n1

>  <score_type>  (17) 
oracle

>  <origin>  (17) 
autodockgpu

>  <m_score__min__energy>  (17) 
-9.4199999999999999

>  <m_primary>  (17) 
energy

>  <rmsd>  (17) 
1.6800193620651345

>  <m_score__min__rmsd>  (17) 
1.6800193620651345

>  <meeko>  (17) 
{"free_energy": -8.32, "intermolecular_energy": -11.0, "internal_energy": -2.18, "cluster_size": 28, "cluster_id": 1, "rank_in_cluster": 21}

>  <energy>  (17) 
-8.61

>  <cluster_rmsd>  (17) 
1.45

>  <cluster>  (17) 
1

$$$$

     RDKit          3D

 56 59  0  0  0  0  0  0  0  0999 V2000
  139.2550   71.1400  221.2530 O   0  0  0  0  0  0  0  0  0  0  0  0
  139.5220   71.6020  222.3960 C   0  0  0  0  0  0  0  0  0  0  0  0
  139.7430   72.9780  222.5730 N   0  0  0  0  0  0  0  0  0  0  0  0
  139.6640   73.8630  221.4470 C   0  0  0  0  0  0  0  0  0  0  0  0
  140.5920   73.4690  220.3540 C   0  0  0  0  0  0  0  0  0  0  0  0
  140.1750   72.7200  219.4120 O   0  0  0  0  0  0  0  0  0  0  0  0
  141.9230   73.9370  220.3850 N   0  0  0  0  0  0  0  0  0  0  0  0
  143.1500   73.1230  220.3420 C   0  0  0  0  0  0  0  0  0  0  0  0
  144.2000   74.0220  219.7200 C   0  0  2  0  0  0  0  0  0  0  0  0
  145.1700   74.3870  220.6770 O   0  0  0  0  0  0  0  0  0  0  0  0
  143.4300   75.2940  219.3550 C   0  0  0  0  0  0  0  0  0  0  0  0
  142.4000   75.3030  220.4640 C   0  0  1  0  0  0  0  0  0  0  0  0
  141.3220   76.3150  220.1960 C   0  0  0  0  0  0  0  0  0  0  0  0
  141.6290   77.5310  220.7860 O   0  0  0  0  0  0  0  0  0  0  0  0
  141.0280   77.6730  222.0360 C   0  0  0  0  0  0  0  0  0  0  0  0
  141.4310   78.9490  222.6800 C   0  0  0  0  0  0  0  0  0  0  0  0
  142.7410   79.3730  222.7700 C   0  0  0  0  0  0  0  0  0  0  0  0
  143.1190   80.5560  223.3660 C   0  0  0  0  0  0  0  0  0  0  0  0
  142.1660   81.3810  223.9120 C   0  0  0  0  0  0  0  0  0  0  0  0
  140.8520   80.9700  223.8290 C   0  0  0  0  0  0  0  0  0  0  0  0
  140.4670   79.7890  223.2340 C   0  0  0  0  0  0  0  0  0  0  0  0
  139.6150   70.7270  223.5830 C   0  0  0  0  0  0  0  0  0  0  0  0
  139.1320   69.4280  223.5600 C   0  0  0  0  0  0  0  0  0  0  0  0
  139.2400   68.6360  224.7070 C   0  0  0  0  0  0  0  0  0  0  0  0
  139.8190   69.1250  225.8630 C   0  0  0  0  0  0  0  0  0  0  0  0
  139.9470   68.3830  227.0160 C   0  0  0  0  0  0  0  0  0  0  0  0
  140.5290   68.8830  228.1670 C   0  0  0  0  0  0  0  0  0  0  0  0
  140.6530   68.1450  229.3020 F   0  0  0  0  0  0  0  0  0  0  0  0
  140.9890   70.1850  228.1190 C   0  0  0  0  0  0  0  0  0  0  0  0
  140.8720   70.9600  226.9660 C   0  0  0  0  0  0  0  0  0  0  0  0
  140.2840   70.4190  225.8380 C   0  0  0  0  0  0  0  0  0  0  0  0
  140.1710   71.1570  224.7350 N   0  0  0  0  0  0  0  0  0  0  0  0
  139.9660   73.3720  223.5130 H   0  0  0  0  0  0  0  0  0  0  0  0
  138.6348   73.8509  221.0589 H   0  0  0  0  0  0  0  0  0  0  0  0
  139.9527   74.8682  221.7879 H   0  0  0  0  0  0  0  0  0  0  0  0
  143.4504   72.8236  221.3570 H   0  0  0  0  0  0  0  0  0  0  0  0
  143.0090   72.1958  219.7672 H   0  0  0  0  0  0  0  0  0  0  0  0
  144.7044   73.5291  218.8758 H   0  0  0  0  0  0  0  0  0  0  0  0
  145.9240   74.8790  220.2630 H   0  0  0  0  0  0  0  0  0  0  0  0
  144.0740   76.1851  219.3884 H   0  0  0  0  0  0  0  0  0  0  0  0
  143.0151   75.3090  218.3363 H   0  0  0  0  0  0  0  0  0  0  0  0
  142.7768   75.5862  221.4579 H   0  0  0  0  0  0  0  0  0  0  0  0
  141.2225   76.4564  219.1097 H   0  0  0  0  0  0  0  0  0  0  0  0
  140.3780   75.9451  220.6227 H   0  0  0  0  0  0  0  0  0  0  0  0
  139.9350   77.6621  221.9126 H   0  0  0  0  0  0  0  0  0  0  0  0
  141.3525   76.8399  222.6768 H   0  0  0  0  0  0  0  0  0  0  0  0
  143.5259   78.7317  222.3427 H   0  0  0  0  0  0  0  0  0  0  0  0
  144.1812   80.8393  223.4046 H   0  0  0  0  0  0  0  0  0  0  0  0
  142.4396   82.3304  224.3956 H   0  0  0  0  0  0  0  0  0  0  0  0
  140.0734   81.6171  224.2591 H   0  0  0  0  0  0  0  0  0  0  0  0
  139.4036   79.5102  223.1963 H   0  0  0  0  0  0  0  0  0  0  0  0
  138.6682   69.0241  222.6480 H   0  0  0  0  0  0  0  0  0  0  0  0
  138.8572   67.6049  224.6892 H   0  0  0  0  0  0  0  0  0  0  0  0
  139.5707   67.3494  227.0220 H   0  0  0  0  0  0  0  0  0  0  0  0
  141.4592   70.6209  229.0128 H   0  0  0  0  0  0  0  0  0  0  0  0
  141.2450   71.9948  226.9540 H   0  0  0  0  0  0  0  0  0  0  0  0
  1  2  2  0
  2  3  1  0
  3  4  1  0
  4  5  1  0
  5  6  2  0
  5  7  1  0
  7  8  1  0
  8  9  1  0
  9 10  1  0
  9 11  1  0
 11 12  1  0
 12 13  1  0
 13 14  1  0
 14 15  1  0
 15 16  1  0
 16 17  2  0
 17 18  1  0
 18 19  2  0
 19 20  1  0
 20 21  2  0
  2 22  1  0
 22 23  2  0
 23 24  1  0
 24 25  2  0
 25 26  1  0
 26 27  2  0
 27 28  1  0
 27 29  1  0
 29 30  2  0
 30 31  1  0
 31 32  2  0
 12  7  1  0
 21 16  1  0
 32 22  1  0
 31 25  1  0
  3 33  1  0
  4 34  1  0
  4 35  1  0
  8 36  1  0
  8 37  1  0
  9 38  1  6
 10 39  1  0
 11 40  1  0
 11 41  1  0
 12 42  1  1
 13 43  1  0
 13 44  1  0
 15 45  1  0
 15 46  1  0
 17 47  1  0
 18 48  1  0
 19 49  1  0
 20 50  1  0
 21 51  1  0
 23 52  1  0
 24 53  1  0
 26 54  1  0
 29 55  1  0
 30 56  1  0
M  END
>  <smiles>  (18) 
O=C(NCC(=O)N1C[C@H](O)C[C@H]1COCc1ccccc1)c1ccc2cc(F)ccc2n1

>  <score_type>  (18) 
oracle

>  <origin>  (18) 
autodockgpu

>  <m_score__min__energy>  (18) 
-9.4199999999999999

>  <m_primary>  (18) 
energy

>  <rmsd>  (18) 
2.461331001665618

>  <m_score__min__rmsd>  (18) 
2.461331001665618

>  <meeko>  (18) 
{"free_energy": -8.57, "intermolecular_energy": -11.26, "internal_energy": -1.42, "cluster_size": 28, "cluster_id": 1, "rank_in_cluster": 18}

>  <energy>  (18) 
-8.57

>  <cluster_rmsd>  (18) 
1.46

>  <cluster>  (18) 
1

$$$$

     RDKit          3D

 56 59  0  0  0  0  0  0  0  0999 V2000
  141.2950   71.4350  221.5110 O   0  0  0  0  0  0  0  0  0  0  0  0
  140.5300   71.8330  222.4320 C   0  0  0  0  0  0  0  0  0  0  0  0
  139.8980   73.0850  222.3400 N   0  0  0  0  0  0  0  0  0  0  0  0
  140.1240   73.9150  221.1920 C   0  0  0  0  0  0  0  0  0  0  0  0
  141.2920   74.8170  221.3710 C   0  0  0  0  0  0  0  0  0  0  0  0
  141.2150   75.7930  222.1850 O   0  0  0  0  0  0  0  0  0  0  0  0
  142.4670   74.5700  220.6290 N   0  0  0  0  0  0  0  0  0  0  0  0
  143.3500   73.3970  220.7330 C   0  0  0  0  0  0  0  0  0  0  0  0
  143.9900   73.2600  219.3660 C   0  0  2  0  0  0  0  0  0  0  0  0
  145.3640   73.5730  219.4280 O   0  0  0  0  0  0  0  0  0  0  0  0
  143.3180   74.3540  218.5310 C   0  0  0  0  0  0  0  0  0  0  0  0
  143.0810   75.3930  219.6060 C   0  0  1  0  0  0  0  0  0  0  0  0
  142.1750   76.4870  219.1150 C   0  0  0  0  0  0  0  0  0  0  0  0
  142.4200   77.6710  219.7900 O   0  0  0  0  0  0  0  0  0  0  0  0
  141.2820   78.1480  220.4400 C   0  0  0  0  0  0  0  0  0  0  0  0
  141.6460   78.9280  221.6510 C   0  0  0  0  0  0  0  0  0  0  0  0
  141.4540   78.4650  222.9370 C   0  0  0  0  0  0  0  0  0  0  0  0
  141.7910   79.1850  224.0620 C   0  0  0  0  0  0  0  0  0  0  0  0
  142.3470   80.4350  223.9340 C   0  0  0  0  0  0  0  0  0  0  0  0
  142.5440   80.9100  222.6530 C   0  0  0  0  0  0  0  0  0  0  0  0
  142.2100   80.1960  221.5240 C   0  0  0  0  0  0  0  0  0  0  0  0
  140.2700   71.0110  223.6310 C   0  0  0  0  0  0  0  0  0  0  0  0
  139.5350   69.8380  223.5560 C   0  0  0  0  0  0  0  0  0  0  0  0
  139.3130   69.0930  224.7180 C   0  0  0  0  0  0  0  0  0  0  0  0
  139.8120   69.5050  225.9400 C   0  0  0  0  0  0  0  0  0  0  0  0
  139.6190   68.8040  227.1090 C   0  0  0  0  0  0  0  0  0  0  0  0
  140.1240   69.2260  228.3260 C   0  0  0  0  0  0  0  0  0  0  0  0
  139.9300   68.5300  229.4780 F   0  0  0  0  0  0  0  0  0  0  0  0
  140.8460   70.4040  228.3280 C   0  0  0  0  0  0  0  0  0  0  0  0
  141.0570   71.1340  227.1600 C   0  0  0  0  0  0  0  0  0  0  0  0
  140.5350   70.6740  225.9650 C   0  0  0  0  0  0  0  0  0  0  0  0
  140.7350   71.3700  224.8470 N   0  0  0  0  0  0  0  0  0  0  0  0
  139.2640   73.4250  223.0950 H   0  0  0  0  0  0  0  0  0  0  0  0
  140.3049   73.2704  220.3192 H   0  0  0  0  0  0  0  0  0  0  0  0
  139.2321   74.5427  221.0489 H   0  0  0  0  0  0  0  0  0  0  0  0
  144.1177   73.5590  221.5040 H   0  0  0  0  0  0  0  0  0  0  0  0
  142.7977   72.4905  221.0215 H   0  0  0  0  0  0  0  0  0  0  0  0
  143.8778   72.2406  218.9681 H   0  0  0  0  0  0  0  0  0  0  0  0
  145.5580   74.4510  219.0120 H   0  0  0  0  0  0  0  0  0  0  0  0
  143.9824   74.7297  217.7389 H   0  0  0  0  0  0  0  0  0  0  0  0
  142.4169   74.0351  217.9867 H   0  0  0  0  0  0  0  0  0  0  0  0
  143.9759   75.9344  219.9466 H   0  0  0  0  0  0  0  0  0  0  0  0
  142.3481   76.6428  218.0399 H   0  0  0  0  0  0  0  0  0  0  0  0
  141.1321   76.1880  219.2966 H   0  0  0  0  0  0  0  0  0  0  0  0
  140.7195   78.7954  219.7512 H   0  0  0  0  0  0  0  0  0  0  0  0
  140.6695   77.2881  220.7489 H   0  0  0  0  0  0  0  0  0  0  0  0
  141.0083   77.4683  223.0706 H   0  0  0  0  0  0  0  0  0  0  0  0
  141.6153   78.7599  225.0612 H   0  0  0  0  0  0  0  0  0  0  0  0
  142.6235   81.0322  224.8154 H   0  0  0  0  0  0  0  0  0  0  0  0
  142.9897   81.9079  222.5280 H   0  0  0  0  0  0  0  0  0  0  0  0
  142.3875   80.6245  220.5266 H   0  0  0  0  0  0  0  0  0  0  0  0
  139.1304   69.4968  222.5917 H   0  0  0  0  0  0  0  0  0  0  0  0
  138.7305   68.1617  224.6591 H   0  0  0  0  0  0  0  0  0  0  0  0
  139.0394   67.8698  227.0740 H   0  0  0  0  0  0  0  0  0  0  0  0
  141.2647   70.7748  229.2752 H   0  0  0  0  0  0  0  0  0  0  0  0
  141.6348   72.0696  227.1884 H   0  0  0  0  0  0  0  0  0  0  0  0
  1  2  2  0
  2  3  1  0
  3  4  1  0
  4  5  1  0
  5  6  2  0
  5  7  1  0
  7  8  1  0
  8  9  1  0
  9 10  1  0
  9 11  1  0
 11 12  1  0
 12 13  1  0
 13 14  1  0
 14 15  1  0
 15 16  1  0
 16 17  2  0
 17 18  1  0
 18 19  2  0
 19 20  1  0
 20 21  2  0
  2 22  1  0
 22 23  2  0
 23 24  1  0
 24 25  2  0
 25 26  1  0
 26 27  2  0
 27 28  1  0
 27 29  1  0
 29 30  2  0
 30 31  1  0
 31 32  2  0
 12  7  1  0
 21 16  1  0
 32 22  1  0
 31 25  1  0
  3 33  1  0
  4 34  1  0
  4 35  1  0
  8 36  1  0
  8 37  1  0
  9 38  1  6
 10 39  1  0
 11 40  1  0
 11 41  1  0
 12 42  1  1
 13 43  1  0
 13 44  1  0
 15 45  1  0
 15 46  1  0
 17 47  1  0
 18 48  1  0
 19 49  1  0
 20 50  1  0
 21 51  1  0
 23 52  1  0
 24 53  1  0
 26 54  1  0
 29 55  1  0
 30 56  1  0
M  END
>  <smiles>  (19) 
O=C(NCC(=O)N1C[C@H](O)C[C@H]1COCc1ccccc1)c1ccc2cc(F)ccc2n1

>  <score_type>  (19) 
oracle

>  <origin>  (19) 
autodockgpu

>  <m_score__min__energy>  (19) 
-9.4199999999999999

>  <m_primary>  (19) 
energy

>  <rmsd>  (19) 
2.660058389637432

>  <m_score__min__rmsd>  (19) 
2.660058389637432

>  <meeko>  (19) 
{"free_energy": -8.95, "intermolecular_energy": -11.64, "internal_energy": -1.57, "cluster_size": 28, "cluster_id": 1, "rank_in_cluster": 2}

>  <energy>  (19) 
-8.55

>  <cluster_rmsd>  (19) 
1.37

>  <cluster>  (19) 
1

$$$$

     RDKit          3D

 56 59  0  0  0  0  0  0  0  0999 V2000
  140.8270   72.0550  221.1160 O   0  0  0  0  0  0  0  0  0  0  0  0
  140.2210   72.4200  222.1610 C   0  0  0  0  0  0  0  0  0  0  0  0
  139.6500   73.7010  222.2400 N   0  0  0  0  0  0  0  0  0  0  0  0
  139.7570   74.5990  221.1270 C   0  0  0  0  0  0  0  0  0  0  0  0
  141.0020   75.4100  221.1740 C   0  0  0  0  0  0  0  0  0  0  0  0
  141.3360   75.9910  222.2570 O   0  0  0  0  0  0  0  0  0  0  0  0
  141.7940   75.5170  220.0090 N   0  0  0  0  0  0  0  0  0  0  0  0
  142.8770   74.6140  219.5890 C   0  0  0  0  0  0  0  0  0  0  0  0
  142.9140   74.7170  218.0760 C   0  0  2  0  0  0  0  0  0  0  0  0
  144.0850   75.3770  217.6520 O   0  0  0  0  0  0  0  0  0  0  0  0
  141.7350   75.6340  217.7390 C   0  0  0  0  0  0  0  0  0  0  0  0
  141.7350   76.5210  218.9660 C   0  0  1  0  0  0  0  0  0  0  0  0
  140.4900   77.3600  219.0310 C   0  0  0  0  0  0  0  0  0  0  0  0
  140.7910   78.6610  219.3990 O   0  0  0  0  0  0  0  0  0  0  0  0
  140.0190   79.0900  220.4780 C   0  0  0  0  0  0  0  0  0  0  0  0
  140.8700   79.3830  221.6600 C   0  0  0  0  0  0  0  0  0  0  0  0
  140.6540   78.8310  222.9060 C   0  0  0  0  0  0  0  0  0  0  0  0
  141.4420   79.1000  224.0040 C   0  0  0  0  0  0  0  0  0  0  0  0
  142.5070   79.9600  223.8880 C   0  0  0  0  0  0  0  0  0  0  0  0
  142.7340   80.5200  222.6480 C   0  0  0  0  0  0  0  0  0  0  0  0
  141.9520   80.2550  221.5450 C   0  0  0  0  0  0  0  0  0  0  0  0
  140.0880   71.5280  223.3310 C   0  0  0  0  0  0  0  0  0  0  0  0
  139.5230   70.2680  223.2160 C   0  0  0  0  0  0  0  0  0  0  0  0
  139.4160   69.4580  224.3510 C   0  0  0  0  0  0  0  0  0  0  0  0
  139.8640   69.8920  225.5850 C   0  0  0  0  0  0  0  0  0  0  0  0
  139.7810   69.1300  226.7280 C   0  0  0  0  0  0  0  0  0  0  0  0
  140.2340   69.5740  227.9580 C   0  0  0  0  0  0  0  0  0  0  0  0
  140.1490   68.8170  229.0850 F   0  0  0  0  0  0  0  0  0  0  0  0
  140.7860   70.8400  227.9990 C   0  0  0  0  0  0  0  0  0  0  0  0
  140.8830   71.6330  226.8580 C   0  0  0  0  0  0  0  0  0  0  0  0
  140.4190   71.1490  225.6490 C   0  0  0  0  0  0  0  0  0  0  0  0
  140.5100   71.9040  224.5560 N   0  0  0  0  0  0  0  0  0  0  0  0
  139.1470   74.0150  223.0980 H   0  0  0  0  0  0  0  0  0  0  0  0
  139.7523   74.0117  220.1969 H   0  0  0  0  0  0  0  0  0  0  0  0
  138.9029   75.2909  221.1696 H   0  0  0  0  0  0  0  0  0  0  0  0
  143.8364   74.9345  220.0213 H   0  0  0  0  0  0  0  0  0  0  0  0
  142.7067   73.5813  219.9275 H   0  0  0  0  0  0  0  0  0  0  0  0
  142.8778   73.7246  217.6028 H   0  0  0  0  0  0  0  0  0  0  0  0
  144.4360   75.9850  218.3520 H   0  0  0  0  0  0  0  0  0  0  0  0
  141.9150   76.2094  216.8189 H   0  0  0  0  0  0  0  0  0  0  0  0
  140.7854   75.1152  217.5416 H   0  0  0  0  0  0  0  0  0  0  0  0
  142.5459   77.2626  219.0147 H   0  0  0  0  0  0  0  0  0  0  0  0
  140.0083   77.3674  218.0421 H   0  0  0  0  0  0  0  0  0  0  0  0
  139.8137   76.9287  219.7837 H   0  0  0  0  0  0  0  0  0  0  0  0
  139.4758   80.0024  220.1911 H   0  0  0  0  0  0  0  0  0  0  0  0
  139.3140   78.2887  220.7444 H   0  0  0  0  0  0  0  0  0  0  0  0
  139.8076   78.1393  223.0294 H   0  0  0  0  0  0  0  0  0  0  0  0
  141.2187   78.6270  224.9716 H   0  0  0  0  0  0  0  0  0  0  0  0
  143.1520   80.1924  224.7482 H   0  0  0  0  0  0  0  0  0  0  0  0
  143.5812   81.2123  222.5341 H   0  0  0  0  0  0  0  0  0  0  0  0
  142.1800   80.7288  220.5788 H   0  0  0  0  0  0  0  0  0  0  0  0
  139.1620   69.9083  222.2412 H   0  0  0  0  0  0  0  0  0  0  0  0
  138.9674   68.4577  224.2604 H   0  0  0  0  0  0  0  0  0  0  0  0
  139.3361   68.1262  226.6611 H   0  0  0  0  0  0  0  0  0  0  0  0
  141.1583   71.2316  228.9571 H   0  0  0  0  0  0  0  0  0  0  0  0
  141.3260   72.6380  226.9185 H   0  0  0  0  0  0  0  0  0  0  0  0
  1  2  2  0
  2  3  1  0
  3  4  1  0
  4  5  1  0
  5  6  2  0
  5  7  1  0
  7  8  1  0
  8  9  1  0
  9 10  1  0
  9 11  1  0
 11 12  1  0
 12 13  1  0
 13 14  1  0
 14 15  1  0
 15 16  1  0
 16 17  2  0
 17 18  1  0
 18 19  2  0
 19 20  1  0
 20 21  2  0
  2 22  1  0
 22 23  2  0
 23 24  1  0
 24 25  2  0
 25 26  1  0
 26 27  2  0
 27 28  1  0
 27 29  1  0
 29 30  2  0
 30 31  1  0
 31 32  2  0
 12  7  1  0
 21 16  1  0
 32 22  1  0
 31 25  1  0
  3 33  1  0
  4 34  1  0
  4 35  1  0
  8 36  1  0
  8 37  1  0
  9 38  1  6
 10 39  1  0
 11 40  1  0
 11 41  1  0
 12 42  1  6
 13 43  1  0
 13 44  1  0
 15 45  1  0
 15 46  1  0
 17 47  1  0
 18 48  1  0
 19 49  1  0
 20 50  1  0
 21 51  1  0
 23 52  1  0
 24 53  1  0
 26 54  1  0
 29 55  1  0
 30 56  1  0
M  END
>  <smiles>  (20) 
O=C(NCC(=O)N1C[C@H](O)C[C@H]1COCc1ccccc1)c1ccc2cc(F)ccc2n1

>  <score_type>  (20) 
oracle

>  <origin>  (20) 
autodockgpu

>  <m_score__min__energy>  (20) 
-9.4199999999999999

>  <m_primary>  (20) 
energy

>  <rmsd>  (20) 
2.006746500669929

>  <m_score__min__rmsd>  (20) 
2.006746500669929

>  <meeko>  (20) 
{"free_energy": -7.99, "intermolecular_energy": -10.68, "internal_energy": -1.83, "cluster_size": 28, "cluster_id": 1, "rank_in_cluster": 24}

>  <energy>  (20) 
-8.52

>  <cluster_rmsd>  (20) 
1.41

>  <cluster>  (20) 
1

$$$$

     RDKit          3D

 56 59  0  0  0  0  0  0  0  0999 V2000
  138.4960   75.0790  221.5260 O   0  0  0  0  0  0  0  0  0  0  0  0
  139.6440   75.6020  221.5530 C   0  0  0  0  0  0  0  0  0  0  0  0
  140.7460   74.9250  221.0070 N   0  0  0  0  0  0  0  0  0  0  0  0
  140.5660   73.6310  220.4140 C   0  0  0  0  0  0  0  0  0  0  0  0
  141.7300   73.2250  219.5830 C   0  0  0  0  0  0  0  0  0  0  0  0
  141.5400   72.7930  218.4010 O   0  0  0  0  0  0  0  0  0  0  0  0
  143.0290   73.3280  220.1280 N   0  0  0  0  0  0  0  0  0  0  0  0
  143.7780   72.2780  220.8360 C   0  0  0  0  0  0  0  0  0  0  0  0
  145.2390   72.6040  220.5970 C   0  0  2  0  0  0  0  0  0  0  0  0
  145.8530   73.0370  221.7900 O   0  0  0  0  0  0  0  0  0  0  0  0
  145.2000   73.8070  219.6510 C   0  0  0  0  0  0  0  0  0  0  0  0
  143.9230   74.4690  220.1230 C   0  0  1  0  0  0  0  0  0  0  0  0
  143.4870   75.5490  219.1740 C   0  0  0  0  0  0  0  0  0  0  0  0
  142.8870   76.5940  219.8580 O   0  0  0  0  0  0  0  0  0  0  0  0
  141.7000   77.0020  219.2510 C   0  0  0  0  0  0  0  0  0  0  0  0
  141.7680   78.4330  218.8550 C   0  0  0  0  0  0  0  0  0  0  0  0
  142.1360   79.4430  219.7200 C   0  0  0  0  0  0  0  0  0  0  0  0
  142.2010   80.7700  219.3570 C   0  0  0  0  0  0  0  0  0  0  0  0
  141.8870   81.1430  218.0730 C   0  0  0  0  0  0  0  0  0  0  0  0
  141.5170   80.1430  217.1960 C   0  0  0  0  0  0  0  0  0  0  0  0
  141.4510   78.8150  217.5530 C   0  0  0  0  0  0  0  0  0  0  0  0
  139.8750   76.9310  222.1550 C   0  0  0  0  0  0  0  0  0  0  0  0
  138.8230   77.7010  222.6280 C   0  0  0  0  0  0  0  0  0  0  0  0
  139.0900   78.9540  223.1890 C   0  0  0  0  0  0  0  0  0  0  0  0
  140.3810   79.4390  223.2790 C   0  0  0  0  0  0  0  0  0  0  0  0
  140.6900   80.6650  223.8230 C   0  0  0  0  0  0  0  0  0  0  0  0
  141.9870   81.1400  223.9090 C   0  0  0  0  0  0  0  0  0  0  0  0
  142.2870   82.3520  224.4470 F   0  0  0  0  0  0  0  0  0  0  0  0
  142.9850   80.3200  223.4170 C   0  0  0  0  0  0  0  0  0  0  0  0
  142.7020   79.0750  222.8610 C   0  0  0  0  0  0  0  0  0  0  0  0
  141.3910   78.6400  222.7970 C   0  0  0  0  0  0  0  0  0  0  0  0
  141.1160   77.4490  222.2660 N   0  0  0  0  0  0  0  0  0  0  0  0
  141.7000   75.3460  221.0240 H   0  0  0  0  0  0  0  0  0  0  0  0
  140.4280   72.8905  221.2156 H   0  0  0  0  0  0  0  0  0  0  0  0
  139.6847   73.6809  219.7577 H   0  0  0  0  0  0  0  0  0  0  0  0
  143.5488   72.2990  221.9117 H   0  0  0  0  0  0  0  0  0  0  0  0
  143.5165   71.2720  220.4761 H   0  0  0  0  0  0  0  0  0  0  0  0
  145.7891   71.7319  220.2137 H   0  0  0  0  0  0  0  0  0  0  0  0
  146.0130   72.2830  222.4130 H   0  0  0  0  0  0  0  0  0  0  0  0
  146.0736   74.4616  219.7863 H   0  0  0  0  0  0  0  0  0  0  0  0
  145.2243   73.5562  218.5802 H   0  0  0  0  0  0  0  0  0  0  0  0
  143.9883   74.9891  221.0901 H   0  0  0  0  0  0  0  0  0  0  0  0
  144.3659   75.9298  218.6331 H   0  0  0  0  0  0  0  0  0  0  0  0
  142.7570   75.1245  218.4691 H   0  0  0  0  0  0  0  0  0  0  0  0
  141.5252   76.3888  218.3547 H   0  0  0  0  0  0  0  0  0  0  0  0
  140.8776   76.8765  219.9706 H   0  0  0  0  0  0  0  0  0  0  0  0
  142.3913   79.1738  220.7556 H   0  0  0  0  0  0  0  0  0  0  0  0
  142.5036   81.5290  220.0934 H   0  0  0  0  0  0  0  0  0  0  0  0
  141.9286   82.1956  217.7563 H   0  0  0  0  0  0  0  0  0  0  0  0
  141.2627   80.4206  216.1624 H   0  0  0  0  0  0  0  0  0  0  0  0
  141.1493   78.0586  216.8135 H   0  0  0  0  0  0  0  0  0  0  0  0
  137.7895   77.3301  222.5626 H   0  0  0  0  0  0  0  0  0  0  0  0
  138.2566   79.5651  223.5658 H   0  0  0  0  0  0  0  0  0  0  0  0
  139.8721   81.2934  224.2053 H   0  0  0  0  0  0  0  0  0  0  0  0
  144.0301   80.6597  223.4659 H   0  0  0  0  0  0  0  0  0  0  0  0
  143.5152   78.4424  222.4756 H   0  0  0  0  0  0  0  0  0  0  0  0
  1  2  2  0
  2  3  1  0
  3  4  1  0
  4  5  1  0
  5  6  2  0
  5  7  1  0
  7  8  1  0
  8  9  1  0
  9 10  1  0
  9 11  1  0
 11 12  1  0
 12 13  1  0
 13 14  1  0
 14 15  1  0
 15 16  1  0
 16 17  2  0
 17 18  1  0
 18 19  2  0
 19 20  1  0
 20 21  2  0
  2 22  1  0
 22 23  2  0
 23 24  1  0
 24 25  2  0
 25 26  1  0
 26 27  2  0
 27 28  1  0
 27 29  1  0
 29 30  2  0
 30 31  1  0
 31 32  2  0
 12  7  1  0
 21 16  1  0
 32 22  1  0
 31 25  1  0
  3 33  1  0
  4 34  1  0
  4 35  1  0
  8 36  1  0
  8 37  1  0
  9 38  1  6
 10 39  1  0
 11 40  1  0
 11 41  1  0
 12 42  1  1
 13 43  1  0
 13 44  1  0
 15 45  1  0
 15 46  1  0
 17 47  1  0
 18 48  1  0
 19 49  1  0
 20 50  1  0
 21 51  1  0
 23 52  1  0
 24 53  1  0
 26 54  1  0
 29 55  1  0
 30 56  1  0
M  END
>  <smiles>  (21) 
O=C(NCC(=O)N1C[C@H](O)C[C@H]1COCc1ccccc1)c1ccc2cc(F)ccc2n1

>  <score_type>  (21) 
oracle

>  <origin>  (21) 
autodockgpu

>  <m_score__min__energy>  (21) 
-9.4199999999999999

>  <m_primary>  (21) 
energy

>  <rmsd>  (21) 
7.862094458293359

>  <m_score__min__rmsd>  (21) 
7.862094458293359

>  <meeko>  (21) 
{"free_energy": -6.09, "intermolecular_energy": -8.77, "internal_energy": -3.4, "cluster_size": 6, "cluster_id": 8, "rank_in_cluster": 1}

>  <energy>  (21) 
-8.32

>  <cluster_rmsd>  (21) 
1.89

>  <cluster>  (21) 
1

$$$$

     RDKit          3D

 56 59  0  0  0  0  0  0  0  0999 V2000
  139.9400   73.7990  222.6410 O   0  0  0  0  0  0  0  0  0  0  0  0
  140.0360   72.5600  222.4220 C   0  0  0  0  0  0  0  0  0  0  0  0
  140.1410   72.0760  221.1070 N   0  0  0  0  0  0  0  0  0  0  0  0
  140.1400   72.9970  220.0070 C   0  0  0  0  0  0  0  0  0  0  0  0
  141.4220   72.9760  219.2550 C   0  0  0  0  0  0  0  0  0  0  0  0
  141.4110   72.7920  217.9950 O   0  0  0  0  0  0  0  0  0  0  0  0
  142.6320   73.1640  219.9580 N   0  0  0  0  0  0  0  0  0  0  0  0
  143.6670   72.1510  220.2250 C   0  0  0  0  0  0  0  0  0  0  0  0
  144.9600   72.9310  220.3530 C   0  0  2  0  0  0  0  0  0  0  0  0
  145.4210   72.9130  221.6860 O   0  0  0  0  0  0  0  0  0  0  0  0
  144.5550   74.3740  220.0380 C   0  0  0  0  0  0  0  0  0  0  0  0
  143.1400   74.3710  220.5770 C   0  0  1  0  0  0  0  0  0  0  0  0
  142.3950   75.6040  220.1520 C   0  0  0  0  0  0  0  0  0  0  0  0
  141.3930   75.9120  221.0590 O   0  0  0  0  0  0  0  0  0  0  0  0
  140.8200   77.1570  220.8030 C   0  0  0  0  0  0  0  0  0  0  0  0
  141.3480   78.1890  221.7330 C   0  0  0  0  0  0  0  0  0  0  0  0
  141.8580   79.4000  221.3120 C   0  0  0  0  0  0  0  0  0  0  0  0
  142.3470   80.3590  222.1710 C   0  0  0  0  0  0  0  0  0  0  0  0
  142.3430   80.1300  223.5260 C   0  0  0  0  0  0  0  0  0  0  0  0
  141.8350   78.9230  223.9610 C   0  0  0  0  0  0  0  0  0  0  0  0
  141.3440   77.9590  223.1080 C   0  0  0  0  0  0  0  0  0  0  0  0
  140.0400   71.5770  223.5240 C   0  0  0  0  0  0  0  0  0  0  0  0
  139.5650   70.2870  223.3420 C   0  0  0  0  0  0  0  0  0  0  0  0
  139.5870   69.3910  224.4150 C   0  0  0  0  0  0  0  0  0  0  0  0
  140.0730   69.7660  225.6530 C   0  0  0  0  0  0  0  0  0  0  0  0
  140.1150   68.9190  226.7370 C   0  0  0  0  0  0  0  0  0  0  0  0
  140.6050   69.3060  227.9720 C   0  0  0  0  0  0  0  0  0  0  0  0
  140.6430   68.4640  229.0390 F   0  0  0  0  0  0  0  0  0  0  0  0
  141.0620   70.6050  228.0820 C   0  0  0  0  0  0  0  0  0  0  0  0
  141.0310   71.4860  227.0020 C   0  0  0  0  0  0  0  0  0  0  0  0
  140.5340   71.0560  225.7860 C   0  0  0  0  0  0  0  0  0  0  0  0
  140.5040   71.8940  224.7510 N   0  0  0  0  0  0  0  0  0  0  0  0
  140.2200   71.0550  220.9130 H   0  0  0  0  0  0  0  0  0  0  0  0
  139.3228   72.7287  219.3213 H   0  0  0  0  0  0  0  0  0  0  0  0
  140.0047   74.0096  220.4149 H   0  0  0  0  0  0  0  0  0  0  0  0
  143.4476   71.6115  221.1582 H   0  0  0  0  0  0  0  0  0  0  0  0
  143.7191   71.3952  219.4275 H   0  0  0  0  0  0  0  0  0  0  0  0
  145.7456   72.5190  219.7025 H   0  0  0  0  0  0  0  0  0  0  0  0
  145.7070   72.0060  221.9620 H   0  0  0  0  0  0  0  0  0  0  0  0
  145.1911   75.1011  220.5641 H   0  0  0  0  0  0  0  0  0  0  0  0
  144.6483   74.6620  218.9805 H   0  0  0  0  0  0  0  0  0  0  0  0
  143.0498   74.3817  221.6732 H   0  0  0  0  0  0  0  0  0  0  0  0
  143.0985   76.4475  220.0919 H   0  0  0  0  0  0  0  0  0  0  0  0
  141.9358   75.4170  219.1701 H   0  0  0  0  0  0  0  0  0  0  0  0
  141.0506   77.4531  219.7690 H   0  0  0  0  0  0  0  0  0  0  0  0
  139.7325   77.0783  220.9485 H   0  0  0  0  0  0  0  0  0  0  0  0
  141.8749   79.6107  220.2325 H   0  0  0  0  0  0  0  0  0  0  0  0
  142.7400   81.3063  221.7733 H   0  0  0  0  0  0  0  0  0  0  0  0
  142.7288   80.8778  224.2345 H   0  0  0  0  0  0  0  0  0  0  0  0
  141.8214   78.7205  225.0421 H   0  0  0  0  0  0  0  0  0  0  0  0
  140.9511   77.0133  223.5095 H   0  0  0  0  0  0  0  0  0  0  0  0
  139.1747   69.9718  222.3631 H   0  0  0  0  0  0  0  0  0  0  0  0
  139.2101   68.3677  224.2709 H   0  0  0  0  0  0  0  0  0  0  0  0
  139.7433   67.8907  226.6166 H   0  0  0  0  0  0  0  0  0  0  0  0
  141.4605   70.9531  229.0464 H   0  0  0  0  0  0  0  0  0  0  0  0
  141.3995   72.5161  227.1167 H   0  0  0  0  0  0  0  0  0  0  0  0
  1  2  2  0
  2  3  1  0
  3  4  1  0
  4  5  1  0
  5  6  2  0
  5  7  1  0
  7  8  1  0
  8  9  1  0
  9 10  1  0
  9 11  1  0
 11 12  1  0
 12 13  1  0
 13 14  1  0
 14 15  1  0
 15 16  1  0
 16 17  2  0
 17 18  1  0
 18 19  2  0
 19 20  1  0
 20 21  2  0
  2 22  1  0
 22 23  2  0
 23 24  1  0
 24 25  2  0
 25 26  1  0
 26 27  2  0
 27 28  1  0
 27 29  1  0
 29 30  2  0
 30 31  1  0
 31 32  2  0
 12  7  1  0
 21 16  1  0
 32 22  1  0
 31 25  1  0
  3 33  1  0
  4 34  1  0
  4 35  1  0
  8 36  1  0
  8 37  1  0
  9 38  1  6
 10 39  1  0
 11 40  1  0
 11 41  1  0
 12 42  1  1
 13 43  1  0
 13 44  1  0
 15 45  1  0
 15 46  1  0
 17 47  1  0
 18 48  1  0
 19 49  1  0
 20 50  1  0
 21 51  1  0
 23 52  1  0
 24 53  1  0
 26 54  1  0
 29 55  1  0
 30 56  1  0
M  END
>  <smiles>  (22) 
O=C(NCC(=O)N1C[C@H](O)C[C@H]1COCc1ccccc1)c1ccc2cc(F)ccc2n1

>  <score_type>  (22) 
oracle

>  <origin>  (22) 
autodockgpu

>  <m_score__min__energy>  (22) 
-9.4199999999999999

>  <m_primary>  (22) 
energy

>  <rmsd>  (22) 
3.296089687843064

>  <m_score__min__rmsd>  (22) 
3.296089687843064

>  <meeko>  (22) 
{"free_energy": -8.88, "intermolecular_energy": -11.57, "internal_energy": -1.65, "cluster_size": 28, "cluster_id": 1, "rank_in_cluster": 5}

>  <energy>  (22) 
-8.19

>  <cluster_rmsd>  (22) 
1.64

>  <cluster>  (22) 
1

$$$$

     RDKit          3D

 56 59  0  0  0  0  0  0  0  0999 V2000
  140.4590   71.6680  220.9680 O   0  0  0  0  0  0  0  0  0  0  0  0
  140.1200   72.1450  222.0850 C   0  0  0  0  0  0  0  0  0  0  0  0
  139.8550   73.5180  222.2210 N   0  0  0  0  0  0  0  0  0  0  0  0
  139.9720   74.3820  221.0820 C   0  0  0  0  0  0  0  0  0  0  0  0
  140.6230   75.6750  221.4200 C   0  0  0  0  0  0  0  0  0  0  0  0
  140.6240   76.0850  222.6250 O   0  0  0  0  0  0  0  0  0  0  0  0
  141.2310   76.4250  220.3890 N   0  0  0  0  0  0  0  0  0  0  0  0
  142.5900   76.2510  219.8510 C   0  0  0  0  0  0  0  0  0  0  0  0
  142.5160   76.7460  218.4200 C   0  0  2  0  0  0  0  0  0  0  0  0
  143.2380   77.9480  218.2730 O   0  0  0  0  0  0  0  0  0  0  0  0
  141.0360   77.0840  218.2210 C   0  0  0  0  0  0  0  0  0  0  0  0
  140.6780   77.5250  219.6250 C   0  0  1  0  0  0  0  0  0  0  0  0
  139.1910   77.6620  219.7890 C   0  0  0  0  0  0  0  0  0  0  0  0
  138.8850   78.6890  220.6680 O   0  0  0  0  0  0  0  0  0  0  0  0
  139.7790   79.7540  220.5600 C   0  0  0  0  0  0  0  0  0  0  0  0
  140.7280   79.7720  221.7030 C   0  0  0  0  0  0  0  0  0  0  0  0
  140.5080   79.0910  222.8830 C   0  0  0  0  0  0  0  0  0  0  0  0
  141.3870   79.1050  223.9440 C   0  0  0  0  0  0  0  0  0  0  0  0
  142.5530   79.8260  223.8570 C   0  0  0  0  0  0  0  0  0  0  0  0
  142.7860   80.5120  222.6820 C   0  0  0  0  0  0  0  0  0  0  0  0
  141.9120   80.5030  221.6170 C   0  0  0  0  0  0  0  0  0  0  0  0
  139.9890   71.2920  223.2840 C   0  0  0  0  0  0  0  0  0  0  0  0
  139.3940   70.0410  223.2170 C   0  0  0  0  0  0  0  0  0  0  0  0
  139.2910   69.2690  224.3780 C   0  0  0  0  0  0  0  0  0  0  0  0
  139.7700   69.7290  225.5910 C   0  0  0  0  0  0  0  0  0  0  0  0
  139.6900   69.0040  226.7580 C   0  0  0  0  0  0  0  0  0  0  0  0
  140.1740   69.4760  227.9660 C   0  0  0  0  0  0  0  0  0  0  0  0
  140.0920   68.7560  229.1170 F   0  0  0  0  0  0  0  0  0  0  0  0
  140.7540   70.7300  227.9590 C   0  0  0  0  0  0  0  0  0  0  0  0
  140.8470   71.4870  226.7930 C   0  0  0  0  0  0  0  0  0  0  0  0
  140.3510   70.9760  225.6080 C   0  0  0  0  0  0  0  0  0  0  0  0
  140.4400   71.6960  224.4900 N   0  0  0  0  0  0  0  0  0  0  0  0
  139.5740   73.9250  223.1390 H   0  0  0  0  0  0  0  0  0  0  0  0
  140.5722   73.8741  220.3127 H   0  0  0  0  0  0  0  0  0  0  0  0
  138.9567   74.6007  220.7195 H   0  0  0  0  0  0  0  0  0  0  0  0
  143.3128   76.8461  220.4284 H   0  0  0  0  0  0  0  0  0  0  0  0
  142.9244   75.2046  219.9078 H   0  0  0  0  0  0  0  0  0  0  0  0
  142.9191   76.0041  217.7150 H   0  0  0  0  0  0  0  0  0  0  0  0
  143.6540   78.2320  219.1260 H   0  0  0  0  0  0  0  0  0  0  0  0
  140.8966   77.8943  217.4902 H   0  0  0  0  0  0  0  0  0  0  0  0
  140.4221   76.2632  217.8217 H   0  0  0  0  0  0  0  0  0  0  0  0
  141.0606   78.5120  219.9240 H   0  0  0  0  0  0  0  0  0  0  0  0
  138.7387   77.8786  218.8100 H   0  0  0  0  0  0  0  0  0  0  0  0
  138.7930   76.7203  220.1950 H   0  0  0  0  0  0  0  0  0  0  0  0
  140.3465   79.6534  219.6231 H   0  0  0  0  0  0  0  0  0  0  0  0
  139.2066   80.6933  220.5655 H   0  0  0  0  0  0  0  0  0  0  0  0
  139.5817   78.5060  222.9818 H   0  0  0  0  0  0  0  0  0  0  0  0
  141.1555   78.5399  224.8589 H   0  0  0  0  0  0  0  0  0  0  0  0
  143.2715   79.8555  224.6894 H   0  0  0  0  0  0  0  0  0  0  0  0
  143.7148   81.0943  222.5916 H   0  0  0  0  0  0  0  0  0  0  0  0
  142.1471   81.0695  220.7039 H   0  0  0  0  0  0  0  0  0  0  0  0
  139.0071   69.6602  222.2603 H   0  0  0  0  0  0  0  0  0  0  0  0
  138.8198   68.2764  224.3256 H   0  0  0  0  0  0  0  0  0  0  0  0
  139.2224   68.0088  226.7297 H   0  0  0  0  0  0  0  0  0  0  0  0
  141.1526   71.1413  228.8981 H   0  0  0  0  0  0  0  0  0  0  0  0
  141.3116   72.4838  226.8151 H   0  0  0  0  0  0  0  0  0  0  0  0
  1  2  2  0
  2  3  1  0
  3  4  1  0
  4  5  1  0
  5  6  2  0
  5  7  1  0
  7  8  1  0
  8  9  1  0
  9 10  1  0
  9 11  1  0
 11 12  1  0
 12 13  1  0
 13 14  1  0
 14 15  1  0
 15 16  1  0
 16 17  2  0
 17 18  1  0
 18 19  2  0
 19 20  1  0
 20 21  2  0
  2 22  1  0
 22 23  2  0
 23 24  1  0
 24 25  2  0
 25 26  1  0
 26 27  2  0
 27 28  1  0
 27 29  1  0
 29 30  2  0
 30 31  1  0
 31 32  2  0
 12  7  1  0
 21 16  1  0
 32 22  1  0
 31 25  1  0
  3 33  1  0
  4 34  1  0
  4 35  1  0
  8 36  1  0
  8 37  1  0
  9 38  1  6
 10 39  1  0
 11 40  1  0
 11 41  1  0
 12 42  1  1
 13 43  1  0
 13 44  1  0
 15 45  1  0
 15 46  1  0
 17 47  1  0
 18 48  1  0
 19 49  1  0
 20 50  1  0
 21 51  1  0
 23 52  1  0
 24 53  1  0
 26 54  1  0
 29 55  1  0
 30 56  1  0
M  END
>  <smiles>  (23) 
O=C(NCC(=O)N1C[C@H](O)C[C@H]1COCc1ccccc1)c1ccc2cc(F)ccc2n1

>  <score_type>  (23) 
oracle

>  <origin>  (23) 
autodockgpu

>  <m_score__min__energy>  (23) 
-9.4199999999999999

>  <m_primary>  (23) 
energy

>  <rmsd>  (23) 
1.871093057580166

>  <m_score__min__rmsd>  (23) 
1.871093057580166

>  <meeko>  (23) 
{"free_energy": -8.1, "intermolecular_energy": -10.78, "internal_energy": -2.21, "cluster_size": 28, "cluster_id": 1, "rank_in_cluster": 23}

>  <energy>  (23) 
-8.1

>  <cluster_rmsd>  (23) 
1.93

>  <cluster>  (23) 
1

$$$$

     RDKit          3D

 56 59  0  0  0  0  0  0  0  0999 V2000
  139.2910   71.2230  221.4240 O   0  0  0  0  0  0  0  0  0  0  0  0
  138.8590   71.5890  222.5510 C   0  0  0  0  0  0  0  0  0  0  0  0
  137.7580   72.4570  222.6430 N   0  0  0  0  0  0  0  0  0  0  0  0
  137.1210   72.9290  221.4470 C   0  0  0  0  0  0  0  0  0  0  0  0
  137.5910   74.2840  221.0560 C   0  0  0  0  0  0  0  0  0  0  0  0
  136.7580   75.1330  220.6030 O   0  0  0  0  0  0  0  0  0  0  0  0
  138.9600   74.6010  221.1970 N   0  0  0  0  0  0  0  0  0  0  0  0
  140.0880   73.9940  220.4720 C   0  0  0  0  0  0  0  0  0  0  0  0
  141.1590   75.0670  220.4380 C   0  0  2  0  0  0  0  0  0  0  0  0
  142.2480   74.7080  221.2590 O   0  0  0  0  0  0  0  0  0  0  0  0
  140.4890   76.2810  221.0880 C   0  0  0  0  0  0  0  0  0  0  0  0
  139.5760   75.5790  222.0710 C   0  0  1  0  0  0  0  0  0  0  0  0
  138.5840   76.5350  222.6690 C   0  0  0  0  0  0  0  0  0  0  0  0
  138.7380   77.8040  222.1350 O   0  0  0  0  0  0  0  0  0  0  0  0
  138.7940   78.7850  223.1250 C   0  0  0  0  0  0  0  0  0  0  0  0
  140.1530   79.3810  223.2100 C   0  0  0  0  0  0  0  0  0  0  0  0
  141.3130   78.6460  223.0740 C   0  0  0  0  0  0  0  0  0  0  0  0
  142.5740   79.1950  223.1510 C   0  0  0  0  0  0  0  0  0  0  0  0
  142.7210   80.5420  223.3780 C   0  0  0  0  0  0  0  0  0  0  0  0
  141.5690   81.2880  223.5170 C   0  0  0  0  0  0  0  0  0  0  0  0
  140.3050   80.7470  223.4400 C   0  0  0  0  0  0  0  0  0  0  0  0
  139.4840   71.1280  223.8080 C   0  0  0  0  0  0  0  0  0  0  0  0
  140.4690   71.8740  224.4390 C   0  0  0  0  0  0  0  0  0  0  0  0
  141.0340   71.3980  225.6260 C   0  0  0  0  0  0  0  0  0  0  0  0
  140.6290   70.1980  226.1820 C   0  0  0  0  0  0  0  0  0  0  0  0
  141.1560   69.6910  227.3480 C   0  0  0  0  0  0  0  0  0  0  0  0
  140.7430   68.4890  227.8950 C   0  0  0  0  0  0  0  0  0  0  0  0
  141.2670   67.9920  229.0470 F   0  0  0  0  0  0  0  0  0  0  0  0
  139.7590   67.7990  227.2140 C   0  0  0  0  0  0  0  0  0  0  0  0
  139.2070   68.2880  226.0310 C   0  0  0  0  0  0  0  0  0  0  0  0
  139.6500   69.4940  225.5200 C   0  0  0  0  0  0  0  0  0  0  0  0
  139.1250   69.9650  224.3900 N   0  0  0  0  0  0  0  0  0  0  0  0
  137.3910   72.7670  223.5690 H   0  0  0  0  0  0  0  0  0  0  0  0
  137.3413   72.2280  220.6284 H   0  0  0  0  0  0  0  0  0  0  0  0
  136.0403   72.9905  221.6425 H   0  0  0  0  0  0  0  0  0  0  0  0
  140.4522   73.1015  221.0019 H   0  0  0  0  0  0  0  0  0  0  0  0
  139.8004   73.6666  219.4620 H   0  0  0  0  0  0  0  0  0  0  0  0
  141.5282   75.2353  219.4156 H   0  0  0  0  0  0  0  0  0  0  0  0
  142.7340   75.5040  221.5920 H   0  0  0  0  0  0  0  0  0  0  0  0
  141.2193   76.9266  221.5978 H   0  0  0  0  0  0  0  0  0  0  0  0
  139.9822   76.9617  220.3882 H   0  0  0  0  0  0  0  0  0  0  0  0
  140.0725   75.1415  222.9497 H   0  0  0  0  0  0  0  0  0  0  0  0
  137.5657   76.1764  222.4580 H   0  0  0  0  0  0  0  0  0  0  0  0
  138.7554   76.5868  223.7543 H   0  0  0  0  0  0  0  0  0  0  0  0
  138.0684   79.5770  222.8877 H   0  0  0  0  0  0  0  0  0  0  0  0
  138.5550   78.3196  224.0926 H   0  0  0  0  0  0  0  0  0  0  0  0
  141.2261   77.5642  222.8946 H   0  0  0  0  0  0  0  0  0  0  0  0
  143.4615   78.5562  223.0310 H   0  0  0  0  0  0  0  0  0  0  0  0
  143.7159   81.0063  223.4461 H   0  0  0  0  0  0  0  0  0  0  0  0
  141.6648   82.3687  223.6983 H   0  0  0  0  0  0  0  0  0  0  0  0
  139.4202   81.3896  223.5594 H   0  0  0  0  0  0  0  0  0  0  0  0
  140.8021   72.8304  224.0097 H   0  0  0  0  0  0  0  0  0  0  0  0
  141.8150   71.9888  226.1270 H   0  0  0  0  0  0  0  0  0  0  0  0
  141.9380   70.2652  227.8665 H   0  0  0  0  0  0  0  0  0  0  0  0
  139.4019   66.8392  227.6154 H   0  0  0  0  0  0  0  0  0  0  0  0
  138.4247   67.7186  225.5078 H   0  0  0  0  0  0  0  0  0  0  0  0
  1  2  2  0
  2  3  1  0
  3  4  1  0
  4  5  1  0
  5  6  2  0
  5  7  1  0
  7  8  1  0
  8  9  1  0
  9 10  1  0
  9 11  1  0
 11 12  1  0
 12 13  1  0
 13 14  1  0
 14 15  1  0
 15 16  1  0
 16 17  2  0
 17 18  1  0
 18 19  2  0
 19 20  1  0
 20 21  2  0
  2 22  1  0
 22 23  2  0
 23 24  1  0
 24 25  2  0
 25 26  1  0
 26 27  2  0
 27 28  1  0
 27 29  1  0
 29 30  2  0
 30 31  1  0
 31 32  2  0
 12  7  1  0
 21 16  1  0
 32 22  1  0
 31 25  1  0
  3 33  1  0
  4 34  1  0
  4 35  1  0
  8 36  1  0
  8 37  1  0
  9 38  1  6
 10 39  1  0
 11 40  1  0
 11 41  1  0
 12 42  1  1
 13 43  1  0
 13 44  1  0
 15 45  1  0
 15 46  1  0
 17 47  1  0
 18 48  1  0
 19 49  1  0
 20 50  1  0
 21 51  1  0
 23 52  1  0
 24 53  1  0
 26 54  1  0
 29 55  1  0
 30 56  1  0
M  END
>  <smiles>  (24) 
O=C(NCC(=O)N1C[C@H](O)C[C@H]1COCc1ccccc1)c1ccc2cc(F)ccc2n1

>  <score_type>  (24) 
oracle

>  <origin>  (24) 
autodockgpu

>  <m_score__min__energy>  (24) 
-9.4199999999999999

>  <m_primary>  (24) 
energy

>  <rmsd>  (24) 
2.865519006689655

>  <m_score__min__rmsd>  (24) 
2.865519006689655

>  <meeko>  (24) 
{"free_energy": -8.27, "intermolecular_energy": -10.96, "internal_energy": -1.73, "cluster_size": 7, "cluster_id": 3, "rank_in_cluster": 5}

>  <energy>  (24) 
-7.99

>  <cluster_rmsd>  (24) 
1.64

>  <cluster>  (24) 
1

$$$$

     RDKit          3D

 56 59  0  0  0  0  0  0  0  0999 V2000
  141.1830   71.8780  221.4140 O   0  0  0  0  0  0  0  0  0  0  0  0
  140.3890   72.1760  222.3480 C   0  0  0  0  0  0  0  0  0  0  0  0
  139.6640   73.3790  222.3090 N   0  0  0  0  0  0  0  0  0  0  0  0
  139.8270   74.2730  221.1990 C   0  0  0  0  0  0  0  0  0  0  0  0
  141.0470   75.1130  221.3270 C   0  0  0  0  0  0  0  0  0  0  0  0
  141.1780   75.8850  222.3300 O   0  0  0  0  0  0  0  0  0  0  0  0
  142.0390   75.0360  220.3250 N   0  0  0  0  0  0  0  0  0  0  0  0
  142.5280   73.8190  219.6550 C   0  0  0  0  0  0  0  0  0  0  0  0
  143.0030   74.2820  218.2920 C   0  0  2  0  0  0  0  0  0  0  0  0
  144.4080   74.1970  218.2010 O   0  0  0  0  0  0  0  0  0  0  0  0
  142.6410   75.7700  218.2580 C   0  0  0  0  0  0  0  0  0  0  0  0
  142.8040   76.1100  219.7250 C   0  0  1  0  0  0  0  0  0  0  0  0
  142.2420   77.4700  220.0320 C   0  0  0  0  0  0  0  0  0  0  0  0
  140.8590   77.4600  219.9550 O   0  0  0  0  0  0  0  0  0  0  0  0
  140.3030   78.6620  220.3940 C   0  0  0  0  0  0  0  0  0  0  0  0
  141.0200   79.1770  221.5890 C   0  0  0  0  0  0  0  0  0  0  0  0
  140.8790   78.6360  222.8500 C   0  0  0  0  0  0  0  0  0  0  0  0
  141.5430   79.1100  223.9600 C   0  0  0  0  0  0  0  0  0  0  0  0
  142.3980   80.1800  223.8400 C   0  0  0  0  0  0  0  0  0  0  0  0
  142.5480   80.7310  222.5840 C   0  0  0  0  0  0  0  0  0  0  0  0
  141.8880   80.2620  221.4700 C   0  0  0  0  0  0  0  0  0  0  0  0
  140.1910   71.2860  223.5110 C   0  0  0  0  0  0  0  0  0  0  0  0
  139.5290   70.0740  223.3860 C   0  0  0  0  0  0  0  0  0  0  0  0
  139.3640   69.2650  224.5140 C   0  0  0  0  0  0  0  0  0  0  0  0
  139.8490   69.6490  225.7500 C   0  0  0  0  0  0  0  0  0  0  0  0
  139.7100   68.8850  226.8870 C   0  0  0  0  0  0  0  0  0  0  0  0
  140.2010   69.2810  228.1180 C   0  0  0  0  0  0  0  0  0  0  0  0
  140.0610   68.5220  229.2380 F   0  0  0  0  0  0  0  0  0  0  0  0
  140.8510   70.4990  228.1690 C   0  0  0  0  0  0  0  0  0  0  0  0
  141.0050   71.2940  227.0350 C   0  0  0  0  0  0  0  0  0  0  0  0
  140.5000   70.8590  225.8240 C   0  0  0  0  0  0  0  0  0  0  0  0
  140.6460   71.6160  224.7380 N   0  0  0  0  0  0  0  0  0  0  0  0
  139.0050   73.6370  223.0750 H   0  0  0  0  0  0  0  0  0  0  0  0
  139.9005   73.6805  220.2751 H   0  0  0  0  0  0  0  0  0  0  0  0
  138.9562   74.9447  221.1765 H   0  0  0  0  0  0  0  0  0  0  0  0
  143.3582   73.3730  220.2223 H   0  0  0  0  0  0  0  0  0  0  0  0
  141.7469   73.0482  219.5792 H   0  0  0  0  0  0  0  0  0  0  0  0
  142.5596   73.6803  217.4850 H   0  0  0  0  0  0  0  0  0  0  0  0
  144.8030   75.0320  217.8420 H   0  0  0  0  0  0  0  0  0  0  0  0
  143.3336   76.3449  217.6257 H   0  0  0  0  0  0  0  0  0  0  0  0
  141.6514   75.9980  217.8353 H   0  0  0  0  0  0  0  0  0  0  0  0
  143.8416   76.1728  220.0849 H   0  0  0  0  0  0  0  0  0  0  0  0
  142.5444   77.7642  221.0479 H   0  0  0  0  0  0  0  0  0  0  0  0
  142.6309   78.1868  219.2938 H   0  0  0  0  0  0  0  0  0  0  0  0
  140.3706   79.4055  219.5861 H   0  0  0  0  0  0  0  0  0  0  0  0
  139.2526   78.4825  220.6667 H   0  0  0  0  0  0  0  0  0  0  0  0
  140.1998   77.7800  222.9760 H   0  0  0  0  0  0  0  0  0  0  0  0
  141.3896   78.6338  224.9396 H   0  0  0  0  0  0  0  0  0  0  0  0
  142.9401   80.5803  224.7094 H   0  0  0  0  0  0  0  0  0  0  0  0
  143.2285   81.5873  222.4666 H   0  0  0  0  0  0  0  0  0  0  0  0
  142.0446   80.7405  220.4920 H   0  0  0  0  0  0  0  0  0  0  0  0
  139.1378   69.7525  222.4095 H   0  0  0  0  0  0  0  0  0  0  0  0
  138.8379   68.3040  224.4160 H   0  0  0  0  0  0  0  0  0  0  0  0
  139.1870   67.9201  226.8134 H   0  0  0  0  0  0  0  0  0  0  0  0
  141.2572   70.8501  229.1291 H   0  0  0  0  0  0  0  0  0  0  0  0
  141.5248   72.2610  227.1030 H   0  0  0  0  0  0  0  0  0  0  0  0
  1  2  2  0
  2  3  1  0
  3  4  1  0
  4  5  1  0
  5  6  2  0
  5  7  1  0
  7  8  1  0
  8  9  1  0
  9 10  1  0
  9 11  1  0
 11 12  1  0
 12 13  1  0
 13 14  1  0
 14 15  1  0
 15 16  1  0
 16 17  2  0
 17 18  1  0
 18 19  2  0
 19 20  1  0
 20 21  2  0
  2 22  1  0
 22 23  2  0
 23 24  1  0
 24 25  2  0
 25 26  1  0
 26 27  2  0
 27 28  1  0
 27 29  1  0
 29 30  2  0
 30 31  1  0
 31 32  2  0
 12  7  1  0
 21 16  1  0
 32 22  1  0
 31 25  1  0
  3 33  1  0
  4 34  1  0
  4 35  1  0
  8 36  1  0
  8 37  1  0
  9 38  1  6
 10 39  1  0
 11 40  1  0
 11 41  1  0
 12 42  1  1
 13 43  1  0
 13 44  1  0
 15 45  1  0
 15 46  1  0
 17 47  1  0
 18 48  1  0
 19 49  1  0
 20 50  1  0
 21 51  1  0
 23 52  1  0
 24 53  1  0
 26 54  1  0
 29 55  1  0
 30 56  1  0
M  END
>  <smiles>  (25) 
O=C(NCC(=O)N1C[C@H](O)C[C@H]1COCc1ccccc1)c1ccc2cc(F)ccc2n1

>  <score_type>  (25) 
oracle

>  <origin>  (25) 
autodockgpu

>  <m_score__min__energy>  (25) 
-9.4199999999999999

>  <m_primary>  (25) 
energy

>  <rmsd>  (25) 
1.96645053071717

>  <m_score__min__rmsd>  (25) 
1.96645053071717

>  <meeko>  (25) 
{"free_energy": -8.78, "intermolecular_energy": -11.46, "internal_energy": -1.58, "cluster_size": 28, "cluster_id": 1, "rank_in_cluster": 8}

>  <energy>  (25) 
-7.93

>  <cluster_rmsd>  (25) 
1.81

>  <cluster>  (25) 
1

$$$$

     RDKit          3D

 56 59  0  0  0  0  0  0  0  0999 V2000
  139.4840   71.9570  220.7190 O   0  0  0  0  0  0  0  0  0  0  0  0
  140.0310   72.2880  221.8070 C   0  0  0  0  0  0  0  0  0  0  0  0
  140.7610   73.4840  221.9010 N   0  0  0  0  0  0  0  0  0  0  0  0
  140.8850   74.3350  220.7530 C   0  0  0  0  0  0  0  0  0  0  0  0
  141.3080   75.7130  221.1160 C   0  0  0  0  0  0  0  0  0  0  0  0
  141.3790   76.0480  222.3420 O   0  0  0  0  0  0  0  0  0  0  0  0
  141.6250   76.6250  220.0860 N   0  0  0  0  0  0  0  0  0  0  0  0
  142.9210   76.7760  219.4040 C   0  0  0  0  0  0  0  0  0  0  0  0
  142.5840   77.3120  218.0270 C   0  0  2  0  0  0  0  0  0  0  0  0
  143.0160   78.6480  217.8950 O   0  0  0  0  0  0  0  0  0  0  0  0
  141.0530   77.3320  218.0020 C   0  0  0  0  0  0  0  0  0  0  0  0
  140.7720   77.6160  219.4620 C   0  0  1  0  0  0  0  0  0  0  0  0
  139.3170   77.4210  219.7840 C   0  0  0  0  0  0  0  0  0  0  0  0
  139.0520   77.7670  221.0990 O   0  0  0  0  0  0  0  0  0  0  0  0
  139.2020   79.1360  221.3200 C   0  0  0  0  0  0  0  0  0  0  0  0
  140.4500   79.4220  222.0730 C   0  0  0  0  0  0  0  0  0  0  0  0
  140.7200   78.8980  223.3210 C   0  0  0  0  0  0  0  0  0  0  0  0
  141.8770   79.1600  224.0220 C   0  0  0  0  0  0  0  0  0  0  0  0
  142.8330   79.9840  223.4790 C   0  0  0  0  0  0  0  0  0  0  0  0
  142.5760   80.5150  222.2320 C   0  0  0  0  0  0  0  0  0  0  0  0
  141.4220   80.2570  221.5250 C   0  0  0  0  0  0  0  0  0  0  0  0
  139.9290   71.4410  223.0130 C   0  0  0  0  0  0  0  0  0  0  0  0
  139.2640   70.2250  222.9860 C   0  0  0  0  0  0  0  0  0  0  0  0
  139.1920   69.4570  224.1530 C   0  0  0  0  0  0  0  0  0  0  0  0
  139.7720   69.8880  225.3320 C   0  0  0  0  0  0  0  0  0  0  0  0
  139.7270   69.1670  226.5030 C   0  0  0  0  0  0  0  0  0  0  0  0
  140.3120   69.6080  227.6770 C   0  0  0  0  0  0  0  0  0  0  0  0
  140.2640   68.8910  228.8310 F   0  0  0  0  0  0  0  0  0  0  0  0
  140.9590   70.8280  227.6310 C   0  0  0  0  0  0  0  0  0  0  0  0
  141.0200   71.5810  226.4590 C   0  0  0  0  0  0  0  0  0  0  0  0
  140.4220   71.1000  225.3090 C   0  0  0  0  0  0  0  0  0  0  0  0
  140.4790   71.8160  224.1870 N   0  0  0  0  0  0  0  0  0  0  0  0
  141.2180   73.7680  222.7940 H   0  0  0  0  0  0  0  0  0  0  0  0
  141.6328   73.9032  220.0716 H   0  0  0  0  0  0  0  0  0  0  0  0
  139.8967   74.4011  220.2745 H   0  0  0  0  0  0  0  0  0  0  0  0
  143.5629   77.4848  219.9476 H   0  0  0  0  0  0  0  0  0  0  0  0
  143.4721   75.8254  219.3522 H   0  0  0  0  0  0  0  0  0  0  0  0
  143.0517   76.7097  217.2342 H   0  0  0  0  0  0  0  0  0  0  0  0
  143.7040   78.7410  217.1880 H   0  0  0  0  0  0  0  0  0  0  0  0
  140.6654   78.1279  217.3490 H   0  0  0  0  0  0  0  0  0  0  0  0
  140.5833   76.4186  217.6081 H   0  0  0  0  0  0  0  0  0  0  0  0
  140.9714   78.6466  219.7909 H   0  0  0  0  0  0  0  0  0  0  0  0
  138.7124   78.0525  219.1164 H   0  0  0  0  0  0  0  0  0  0  0  0
  139.0642   76.3600  219.6415 H   0  0  0  0  0  0  0  0  0  0  0  0
  139.2404   79.6544  220.3506 H   0  0  0  0  0  0  0  0  0  0  0  0
  138.3464   79.4901  221.9139 H   0  0  0  0  0  0  0  0  0  0  0  0
  139.9715   78.2358  223.7806 H   0  0  0  0  0  0  0  0  0  0  0  0
  142.0348   78.7107  225.0136 H   0  0  0  0  0  0  0  0  0  0  0  0
  143.7653   80.2111  224.0167 H   0  0  0  0  0  0  0  0  0  0  0  0
  143.3294   81.1769  221.7800 H   0  0  0  0  0  0  0  0  0  0  0  0
  141.2686   80.7076  220.5333 H   0  0  0  0  0  0  0  0  0  0  0  0
  138.7976   69.8675  222.0561 H   0  0  0  0  0  0  0  0  0  0  0  0
  138.6641   68.4922  224.1324 H   0  0  0  0  0  0  0  0  0  0  0  0
  139.2040   68.1993  226.5061 H   0  0  0  0  0  0  0  0  0  0  0  0
  141.4382   71.2152  228.5423 H   0  0  0  0  0  0  0  0  0  0  0  0
  141.5399   72.5503  226.4495 H   0  0  0  0  0  0  0  0  0  0  0  0
  1  2  2  0
  2  3  1  0
  3  4  1  0
  4  5  1  0
  5  6  2  0
  5  7  1  0
  7  8  1  0
  8  9  1  0
  9 10  1  0
  9 11  1  0
 11 12  1  0
 12 13  1  0
 13 14  1  0
 14 15  1  0
 15 16  1  0
 16 17  2  0
 17 18  1  0
 18 19  2  0
 19 20  1  0
 20 21  2  0
  2 22  1  0
 22 23  2  0
 23 24  1  0
 24 25  2  0
 25 26  1  0
 26 27  2  0
 27 28  1  0
 27 29  1  0
 29 30  2  0
 30 31  1  0
 31 32  2  0
 12  7  1  0
 21 16  1  0
 32 22  1  0
 31 25  1  0
  3 33  1  0
  4 34  1  0
  4 35  1  0
  8 36  1  0
  8 37  1  0
  9 38  1  6
 10 39  1  0
 11 40  1  0
 11 41  1  0
 12 42  1  1
 13 43  1  0
 13 44  1  0
 15 45  1  0
 15 46  1  0
 17 47  1  0
 18 48  1  0
 19 49  1  0
 20 50  1  0
 21 51  1  0
 23 52  1  0
 24 53  1  0
 26 54  1  0
 29 55  1  0
 30 56  1  0
M  END
>  <smiles>  (26) 
O=C(NCC(=O)N1C[C@H](O)C[C@H]1COCc1ccccc1)c1ccc2cc(F)ccc2n1

>  <score_type>  (26) 
oracle

>  <origin>  (26) 
autodockgpu

>  <m_score__min__energy>  (26) 
-9.4199999999999999

>  <m_primary>  (26) 
energy

>  <rmsd>  (26) 
2.153361050709088

>  <m_score__min__rmsd>  (26) 
2.153361050709088

>  <meeko>  (26) 
{"free_energy": -7.45, "intermolecular_energy": -10.14, "internal_energy": -2.59, "cluster_size": 28, "cluster_id": 1, "rank_in_cluster": 27}

>  <energy>  (26) 
-7.85

>  <cluster_rmsd>  (26) 
1.76

>  <cluster>  (26) 
1

$$$$

     RDKit          3D

 56 59  0  0  0  0  0  0  0  0999 V2000
  140.3660   71.8720  221.0020 O   0  0  0  0  0  0  0  0  0  0  0  0
  139.9970   72.2860  222.1360 C   0  0  0  0  0  0  0  0  0  0  0  0
  139.5700   73.6140  222.3030 N   0  0  0  0  0  0  0  0  0  0  0  0
  139.5520   74.5040  221.1780 C   0  0  0  0  0  0  0  0  0  0  0  0
  140.6410   75.5130  221.2410 C   0  0  0  0  0  0  0  0  0  0  0  0
  140.4590   76.5990  221.8800 O   0  0  0  0  0  0  0  0  0  0  0  0
  141.8630   75.2430  220.5870 N   0  0  0  0  0  0  0  0  0  0  0  0
  142.6850   74.0280  220.7120 C   0  0  0  0  0  0  0  0  0  0  0  0
  143.4300   73.9160  219.3960 C   0  0  2  0  0  0  0  0  0  0  0  0
  144.8050   74.1650  219.5820 O   0  0  0  0  0  0  0  0  0  0  0  0
  142.8750   75.0710  218.5570 C   0  0  0  0  0  0  0  0  0  0  0  0
  142.5930   76.0770  219.6530 C   0  0  1  0  0  0  0  0  0  0  0  0
  141.7770   77.2280  219.1370 C   0  0  0  0  0  0  0  0  0  0  0  0
  142.3390   78.4380  219.5110 O   0  0  0  0  0  0  0  0  0  0  0  0
  141.3750   79.3560  219.9280 C   0  0  0  0  0  0  0  0  0  0  0  0
  141.7000   79.8990  221.2730 C   0  0  0  0  0  0  0  0  0  0  0  0
  141.5200   81.2220  221.6200 C   0  0  0  0  0  0  0  0  0  0  0  0
  141.8200   81.7290  222.8650 C   0  0  0  0  0  0  0  0  0  0  0  0
  142.3290   80.9010  223.8360 C   0  0  0  0  0  0  0  0  0  0  0  0
  142.5140   79.5750  223.5020 C   0  0  0  0  0  0  0  0  0  0  0  0
  142.2160   79.0610  222.2600 C   0  0  0  0  0  0  0  0  0  0  0  0
  140.0010   71.4050  223.3210 C   0  0  0  0  0  0  0  0  0  0  0  0
  139.5400   70.0990  223.2500 C   0  0  0  0  0  0  0  0  0  0  0  0
  139.5610   69.3010  224.3980 C   0  0  0  0  0  0  0  0  0  0  0  0
  140.0320   69.7900  225.6020 C   0  0  0  0  0  0  0  0  0  0  0  0
  140.0720   69.0410  226.7560 C   0  0  0  0  0  0  0  0  0  0  0  0
  140.5480   69.5420  227.9560 C   0  0  0  0  0  0  0  0  0  0  0  0
  140.5850   68.7980  229.0940 F   0  0  0  0  0  0  0  0  0  0  0  0
  140.9920   70.8500  227.9540 C   0  0  0  0  0  0  0  0  0  0  0  0
  140.9620   71.6310  226.8010 C   0  0  0  0  0  0  0  0  0  0  0  0
  140.4800   71.0900  225.6230 C   0  0  0  0  0  0  0  0  0  0  0  0
  140.4510   71.8340  224.5190 N   0  0  0  0  0  0  0  0  0  0  0  0
  139.2630   73.9680  223.2350 H   0  0  0  0  0  0  0  0  0  0  0  0
  139.6696   73.9133  220.2575 H   0  0  0  0  0  0  0  0  0  0  0  0
  138.5928   75.0423  221.1895 H   0  0  0  0  0  0  0  0  0  0  0  0
  143.3923   74.1250  221.5488 H   0  0  0  0  0  0  0  0  0  0  0  0
  142.0735   73.1366  220.9159 H   0  0  0  0  0  0  0  0  0  0  0  0
  143.3092   72.9189  218.9474 H   0  0  0  0  0  0  0  0  0  0  0  0
  145.1710   74.7480  218.8700 H   0  0  0  0  0  0  0  0  0  0  0  0
  143.6175   75.4474  217.8380 H   0  0  0  0  0  0  0  0  0  0  0  0
  142.0094   74.8142  217.9286 H   0  0  0  0  0  0  0  0  0  0  0  0
  143.4781   76.5642  220.0880 H   0  0  0  0  0  0  0  0  0  0  0  0
  141.7331   77.1751  218.0391 H   0  0  0  0  0  0  0  0  0  0  0  0
  140.7658   77.1623  219.5649 H   0  0  0  0  0  0  0  0  0  0  0  0
  141.3325   80.1852  219.2064 H   0  0  0  0  0  0  0  0  0  0  0  0
  140.4040   78.8421  219.9838 H   0  0  0  0  0  0  0  0  0  0  0  0
  141.1153   81.9087  220.8619 H   0  0  0  0  0  0  0  0  0  0  0  0
  141.6525   82.7944  223.0814 H   0  0  0  0  0  0  0  0  0  0  0  0
  142.5787   81.2794  224.8382 H   0  0  0  0  0  0  0  0  0  0  0  0
  142.9196   78.8951  224.2657 H   0  0  0  0  0  0  0  0  0  0  0  0
  142.3842   77.9948  222.0478 H   0  0  0  0  0  0  0  0  0  0  0  0
  139.1614   69.6947  222.2996 H   0  0  0  0  0  0  0  0  0  0  0  0
  139.1959   68.2649  224.3419 H   0  0  0  0  0  0  0  0  0  0  0  0
  139.7113   68.0023  226.7238 H   0  0  0  0  0  0  0  0  0  0  0  0
  141.3792   71.2860  228.8867 H   0  0  0  0  0  0  0  0  0  0  0  0
  141.3193   72.6710  226.8272 H   0  0  0  0  0  0  0  0  0  0  0  0
  1  2  2  0
  2  3  1  0
  3  4  1  0
  4  5  1  0
  5  6  2  0
  5  7  1  0
  7  8  1  0
  8  9  1  0
  9 10  1  0
  9 11  1  0
 11 12  1  0
 12 13  1  0
 13 14  1  0
 14 15  1  0
 15 16  1  0
 16 17  2  0
 17 18  1  0
 18 19  2  0
 19 20  1  0
 20 21  2  0
  2 22  1  0
 22 23  2  0
 23 24  1  0
 24 25  2  0
 25 26  1  0
 26 27  2  0
 27 28  1  0
 27 29  1  0
 29 30  2  0
 30 31  1  0
 31 32  2  0
 12  7  1  0
 21 16  1  0
 32 22  1  0
 31 25  1  0
  3 33  1  0
  4 34  1  0
  4 35  1  0
  8 36  1  0
  8 37  1  0
  9 38  1  6
 10 39  1  0
 11 40  1  0
 11 41  1  0
 12 42  1  1
 13 43  1  0
 13 44  1  0
 15 45  1  0
 15 46  1  0
 17 47  1  0
 18 48  1  0
 19 49  1  0
 20 50  1  0
 21 51  1  0
 23 52  1  0
 24 53  1  0
 26 54  1  0
 29 55  1  0
 30 56  1  0
M  END
>  <smiles>  (27) 
O=C(NCC(=O)N1C[C@H](O)C[C@H]1COCc1ccccc1)c1ccc2cc(F)ccc2n1

>  <score_type>  (27) 
oracle

>  <origin>  (27) 
autodockgpu

>  <m_score__min__energy>  (27) 
-9.4199999999999999

>  <m_primary>  (27) 
energy

>  <rmsd>  (27) 
2.2466851106253456

>  <m_score__min__rmsd>  (27) 
2.2466851106253456

>  <meeko>  (27) 
{"free_energy": -8.61, "intermolecular_energy": -11.29, "internal_energy": -1.77, "cluster_size": 28, "cluster_id": 1, "rank_in_cluster": 17}

>  <energy>  (27) 
-7.45

>  <cluster_rmsd>  (27) 
1.93

>  <cluster>  (27) 
1

$$$$

     RDKit          3D

 56 59  0  0  0  0  0  0  0  0999 V2000
  139.7030   71.1130  221.1900 O   0  0  0  0  0  0  0  0  0  0  0  0
  139.6730   71.5880  222.3590 C   0  0  0  0  0  0  0  0  0  0  0  0
  139.6190   72.9770  222.5610 N   0  0  0  0  0  0  0  0  0  0  0  0
  139.5970   73.8610  221.4310 C   0  0  0  0  0  0  0  0  0  0  0  0
  140.1680   75.1960  221.7500 C   0  0  0  0  0  0  0  0  0  0  0  0
  139.6940   75.8680  222.7220 O   0  0  0  0  0  0  0  0  0  0  0  0
  141.2300   75.6920  220.9630 N   0  0  0  0  0  0  0  0  0  0  0  0
  142.3850   74.9340  220.4550 C   0  0  0  0  0  0  0  0  0  0  0  0
  142.8060   75.6540  219.1890 C   0  0  2  0  0  0  0  0  0  0  0  0
  144.0470   76.2980  219.3740 O   0  0  0  0  0  0  0  0  0  0  0  0
  141.7520   76.7530  219.0200 C   0  0  0  0  0  0  0  0  0  0  0  0
  141.4400   77.0400  220.4740 C   0  0  1  0  0  0  0  0  0  0  0  0
  140.2200   77.9070  220.6060 C   0  0  0  0  0  0  0  0  0  0  0  0
  140.4120   79.1270  219.9800 O   0  0  0  0  0  0  0  0  0  0  0  0
  141.7100   79.6060  220.1540 C   0  0  0  0  0  0  0  0  0  0  0  0
  141.8960   80.1600  221.5200 C   0  0  0  0  0  0  0  0  0  0  0  0
  141.6000   81.4650  221.8570 C   0  0  0  0  0  0  0  0  0  0  0  0
  141.7700   81.9820  223.1220 C   0  0  0  0  0  0  0  0  0  0  0  0
  142.2610   81.1830  224.1270 C   0  0  0  0  0  0  0  0  0  0  0  0
  142.5610   79.8750  223.8040 C   0  0  0  0  0  0  0  0  0  0  0  0
  142.3930   79.3520  222.5410 C   0  0  0  0  0  0  0  0  0  0  0  0
  139.6940   70.7140  223.5500 C   0  0  0  0  0  0  0  0  0  0  0  0
  139.1760   69.4290  223.5100 C   0  0  0  0  0  0  0  0  0  0  0  0
  139.2160   68.6380  224.6630 C   0  0  0  0  0  0  0  0  0  0  0  0
  139.7630   69.1150  225.8400 C   0  0  0  0  0  0  0  0  0  0  0  0
  139.8240   68.3730  226.9980 C   0  0  0  0  0  0  0  0  0  0  0  0
  140.3750   68.8600  228.1700 C   0  0  0  0  0  0  0  0  0  0  0  0
  140.4330   68.1230  229.3120 F   0  0  0  0  0  0  0  0  0  0  0  0
  140.8720   70.1490  228.1380 C   0  0  0  0  0  0  0  0  0  0  0  0
  140.8220   70.9230  226.9800 C   0  0  0  0  0  0  0  0  0  0  0  0
  140.2640   70.3950  225.8310 C   0  0  0  0  0  0  0  0  0  0  0  0
  140.2160   71.1320  224.7220 N   0  0  0  0  0  0  0  0  0  0  0  0
  139.5930   73.3810  223.5220 H   0  0  0  0  0  0  0  0  0  0  0  0
  140.1840   73.4101  220.6173 H   0  0  0  0  0  0  0  0  0  0  0  0
  138.5472   74.0050  221.1358 H   0  0  0  0  0  0  0  0  0  0  0  0
  143.2026   74.9373  221.1909 H   0  0  0  0  0  0  0  0  0  0  0  0
  142.1341   73.8800  220.2649 H   0  0  0  0  0  0  0  0  0  0  0  0
  142.8911   74.9603  218.3396 H   0  0  0  0  0  0  0  0  0  0  0  0
  143.9480   77.1470  219.8740 H   0  0  0  0  0  0  0  0  0  0  0  0
  142.1611   77.6363  218.5077 H   0  0  0  0  0  0  0  0  0  0  0  0
  140.8838   76.4732  218.4052 H   0  0  0  0  0  0  0  0  0  0  0  0
  142.2122   77.5980  221.0239 H   0  0  0  0  0  0  0  0  0  0  0  0
  139.3628   77.3957  220.1436 H   0  0  0  0  0  0  0  0  0  0  0  0
  140.0293   78.0859  221.6745 H   0  0  0  0  0  0  0  0  0  0  0  0
  142.4212   78.7809  220.0008 H   0  0  0  0  0  0  0  0  0  0  0  0
  141.8873   80.4092  219.4236 H   0  0  0  0  0  0  0  0  0  0  0  0
  141.2069   82.1284  221.0725 H   0  0  0  0  0  0  0  0  0  0  0  0
  141.5135   83.0317  223.3277 H   0  0  0  0  0  0  0  0  0  0  0  0
  142.4087   81.5698  225.1461 H   0  0  0  0  0  0  0  0  0  0  0  0
  142.9536   79.2180  224.5941 H   0  0  0  0  0  0  0  0  0  0  0  0
  142.6499   78.3016  222.3391 H   0  0  0  0  0  0  0  0  0  0  0  0
  138.7379   69.0352  222.5810 H   0  0  0  0  0  0  0  0  0  0  0  0
  138.8049   67.6181  224.6328 H   0  0  0  0  0  0  0  0  0  0  0  0
  139.4179   67.3507  226.9912 H   0  0  0  0  0  0  0  0  0  0  0  0
  141.3181   70.5747  229.0489 H   0  0  0  0  0  0  0  0  0  0  0  0
  141.2239   71.9470  226.9805 H   0  0  0  0  0  0  0  0  0  0  0  0
  1  2  2  0
  2  3  1  0
  3  4  1  0
  4  5  1  0
  5  6  2  0
  5  7  1  0
  7  8  1  0
  8  9  1  0
  9 10  1  0
  9 11  1  0
 11 12  1  0
 12 13  1  0
 13 14  1  0
 14 15  1  0
 15 16  1  0
 16 17  2  0
 17 18  1  0
 18 19  2  0
 19 20  1  0
 20 21  2  0
  2 22  1  0
 22 23  2  0
 23 24  1  0
 24 25  2  0
 25 26  1  0
 26 27  2  0
 27 28  1  0
 27 29  1  0
 29 30  2  0
 30 31  1  0
 31 32  2  0
 12  7  1  0
 21 16  1  0
 32 22  1  0
 31 25  1  0
  3 33  1  0
  4 34  1  0
  4 35  1  0
  8 36  1  0
  8 37  1  0
  9 38  1  6
 10 39  1  0
 11 40  1  0
 11 41  1  0
 12 42  1  1
 13 43  1  0
 13 44  1  0
 15 45  1  0
 15 46  1  0
 17 47  1  0
 18 48  1  0
 19 49  1  0
 20 50  1  0
 21 51  1  0
 23 52  1  0
 24 53  1  0
 26 54  1  0
 29 55  1  0
 30 56  1  0
M  END
>  <smiles>  (28) 
O=C(NCC(=O)N1C[C@H](O)C[C@H]1COCc1ccccc1)c1ccc2cc(F)ccc2n1

>  <score_type>  (28) 
oracle

>  <origin>  (28) 
autodockgpu

>  <m_score__min__energy>  (28) 
-9.4199999999999999

>  <m_primary>  (28) 
energy

>  <rmsd>  (28) 
1.7104865719702602

>  <m_score__min__rmsd>  (28) 
1.7104865719702602

>  <meeko>  (28) 
{"free_energy": -8.66, "intermolecular_energy": -11.34, "internal_energy": -1.68, "cluster_size": 28, "cluster_id": 1, "rank_in_cluster": 13}

>  <energy>  (28) 
-7.32

>  <cluster_rmsd>  (28) 
1.83

>  <cluster>  (28) 
1

$$$$

     RDKit          3D

 56 59  0  0  0  0  0  0  0  0999 V2000
  139.6250   73.3520  222.7380 O   0  0  0  0  0  0  0  0  0  0  0  0
  140.1440   72.2050  222.6600 C   0  0  0  0  0  0  0  0  0  0  0  0
  140.8300   71.8120  221.4980 N   0  0  0  0  0  0  0  0  0  0  0  0
  140.9410   72.7220  220.3950 C   0  0  0  0  0  0  0  0  0  0  0  0
  141.8350   73.8710  220.6990 C   0  0  0  0  0  0  0  0  0  0  0  0
  141.4070   74.8290  221.4200 O   0  0  0  0  0  0  0  0  0  0  0  0
  143.1480   73.8720  220.1790 N   0  0  0  0  0  0  0  0  0  0  0  0
  144.1440   72.7940  220.2860 C   0  0  0  0  0  0  0  0  0  0  0  0
  145.0330   72.9540  219.0680 C   0  0  2  0  0  0  0  0  0  0  0  0
  146.3190   73.3900  219.4480 O   0  0  0  0  0  0  0  0  0  0  0  0
  144.3850   74.0990  218.2840 C   0  0  0  0  0  0  0  0  0  0  0  0
  143.8220   74.9130  219.4300 C   0  0  1  0  0  0  0  0  0  0  0  0
  142.8840   75.9760  218.9310 C   0  0  0  0  0  0  0  0  0  0  0  0
  142.9700   77.1160  219.7140 O   0  0  0  0  0  0  0  0  0  0  0  0
  141.7140   77.6460  220.0070 C   0  0  0  0  0  0  0  0  0  0  0  0
  141.7510   78.4490  221.2560 C   0  0  0  0  0  0  0  0  0  0  0  0
  142.1530   79.7690  221.2970 C   0  0  0  0  0  0  0  0  0  0  0  0
  142.1880   80.5170  222.4530 C   0  0  0  0  0  0  0  0  0  0  0  0
  141.8120   79.9510  223.6470 C   0  0  0  0  0  0  0  0  0  0  0  0
  141.4080   78.6310  223.6200 C   0  0  0  0  0  0  0  0  0  0  0  0
  141.3700   77.8770  222.4680 C   0  0  0  0  0  0  0  0  0  0  0  0
  140.0540   71.2360  223.7720 C   0  0  0  0  0  0  0  0  0  0  0  0
  139.4240   70.0110  223.6110 C   0  0  0  0  0  0  0  0  0  0  0  0
  139.3610   69.1270  224.6920 C   0  0  0  0  0  0  0  0  0  0  0  0
  139.9150   69.4510  225.9170 C   0  0  0  0  0  0  0  0  0  0  0  0
  139.8770   68.6120  227.0080 C   0  0  0  0  0  0  0  0  0  0  0  0
  140.4350   68.9470  228.2290 C   0  0  0  0  0  0  0  0  0  0  0  0
  140.3950   68.1150  229.3030 F   0  0  0  0  0  0  0  0  0  0  0  0
  141.0460   70.1830  228.3170 C   0  0  0  0  0  0  0  0  0  0  0  0
  141.0980   71.0530  227.2300 C   0  0  0  0  0  0  0  0  0  0  0  0
  140.5280   70.6760  226.0280 C   0  0  0  0  0  0  0  0  0  0  0  0
  140.5770   71.5050  224.9860 N   0  0  0  0  0  0  0  0  0  0  0  0
  141.2640   70.8670  221.4220 H   0  0  0  0  0  0  0  0  0  0  0  0
  141.3451   72.1791  219.5278 H   0  0  0  0  0  0  0  0  0  0  0  0
  139.9378   73.1221  220.1866 H   0  0  0  0  0  0  0  0  0  0  0  0
  144.7316   72.9016  221.2096 H   0  0  0  0  0  0  0  0  0  0  0  0
  143.6731   71.8006  220.3245 H   0  0  0  0  0  0  0  0  0  0  0  0
  145.1296   72.0101  218.5115 H   0  0  0  0  0  0  0  0  0  0  0  0
  146.4180   74.3710  219.3460 H   0  0  0  0  0  0  0  0  0  0  0  0
  145.1264   74.6681  217.7040 H   0  0  0  0  0  0  0  0  0  0  0  0
  143.6475   73.7865  217.5301 H   0  0  0  0  0  0  0  0  0  0  0  0
  144.5603   75.4777  220.0183 H   0  0  0  0  0  0  0  0  0  0  0  0
  143.1467   76.2305  217.8936 H   0  0  0  0  0  0  0  0  0  0  0  0
  141.8551   75.5902  218.9822 H   0  0  0  0  0  0  0  0  0  0  0  0
  141.3928   78.2901  219.1751 H   0  0  0  0  0  0  0  0  0  0  0  0
  141.0077   76.8144  220.1469 H   0  0  0  0  0  0  0  0  0  0  0  0
  142.4617   80.2489  220.3566 H   0  0  0  0  0  0  0  0  0  0  0  0
  142.5166   81.5663  222.4203 H   0  0  0  0  0  0  0  0  0  0  0  0
  141.8319   80.5252  224.5850 H   0  0  0  0  0  0  0  0  0  0  0  0
  141.1015   78.1584  224.5648 H   0  0  0  0  0  0  0  0  0  0  0  0
  141.0404   76.8282  222.5047 H   0  0  0  0  0  0  0  0  0  0  0  0
  138.9786   69.7380  222.6430 H   0  0  0  0  0  0  0  0  0  0  0  0
  138.8613   68.1552  224.5659 H   0  0  0  0  0  0  0  0  0  0  0  0
  139.3825   67.6349  226.9046 H   0  0  0  0  0  0  0  0  0  0  0  0
  141.5032   70.4881  229.2698 H   0  0  0  0  0  0  0  0  0  0  0  0
  141.5889   72.0326  227.3273 H   0  0  0  0  0  0  0  0  0  0  0  0
  1  2  2  0
  2  3  1  0
  3  4  1  0
  4  5  1  0
  5  6  2  0
  5  7  1  0
  7  8  1  0
  8  9  1  0
  9 10  1  0
  9 11  1  0
 11 12  1  0
 12 13  1  0
 13 14  1  0
 14 15  1  0
 15 16  1  0
 16 17  2  0
 17 18  1  0
 18 19  2  0
 19 20  1  0
 20 21  2  0
  2 22  1  0
 22 23  2  0
 23 24  1  0
 24 25  2  0
 25 26  1  0
 26 27  2  0
 27 28  1  0
 27 29  1  0
 29 30  2  0
 30 31  1  0
 31 32  2  0
 12  7  1  0
 21 16  1  0
 32 22  1  0
 31 25  1  0
  3 33  1  0
  4 34  1  0
  4 35  1  0
  8 36  1  0
  8 37  1  0
  9 38  1  6
 10 39  1  0
 11 40  1  0
 11 41  1  0
 12 42  1  1
 13 43  1  0
 13 44  1  0
 15 45  1  0
 15 46  1  0
 17 47  1  0
 18 48  1  0
 19 49  1  0
 20 50  1  0
 21 51  1  0
 23 52  1  0
 24 53  1  0
 26 54  1  0
 29 55  1  0
 30 56  1  0
M  END
>  <smiles>  (29) 
O=C(NCC(=O)N1C[C@H](O)C[C@H]1COCc1ccccc1)c1ccc2cc(F)ccc2n1

>  <score_type>  (29) 
oracle

>  <origin>  (29) 
autodockgpu

>  <m_score__min__energy>  (29) 
-9.4199999999999999

>  <m_primary>  (29) 
energy

>  <rmsd>  (29) 
3.2413433662961064

>  <m_score__min__rmsd>  (29) 
3.2413433662961064

>  <meeko>  (29) 
{"free_energy": -9.42, "intermolecular_energy": -12.1, "internal_energy": -1.39, "cluster_size": 28, "cluster_id": 1, "rank_in_cluster": 1}

>  <energy>  (29) 
-8.83

>  <cluster_rmsd>  (29) 
0.0

>  <cluster>  (29) 
2

$$$$

     RDKit          3D

 56 59  0  0  0  0  0  0  0  0999 V2000
  139.6740   73.6890  222.3560 O   0  0  0  0  0  0  0  0  0  0  0  0
  140.2220   72.5560  222.2730 C   0  0  0  0  0  0  0  0  0  0  0  0
  140.9120   72.1830  221.1070 N   0  0  0  0  0  0  0  0  0  0  0  0
  140.9930   73.0970  220.0050 C   0  0  0  0  0  0  0  0  0  0  0  0
  142.1030   74.0730  220.1640 C   0  0  0  0  0  0  0  0  0  0  0  0
  141.8430   75.2730  220.5010 O   0  0  0  0  0  0  0  0  0  0  0  0
  143.4290   73.6460  219.9360 N   0  0  0  0  0  0  0  0  0  0  0  0
  144.6580   74.2360  220.4910 C   0  0  0  0  0  0  0  0  0  0  0  0
  145.6570   73.0970  220.5420 C   0  0  2  0  0  0  0  0  0  0  0  0
  146.6830   73.2950  219.5940 O   0  0  0  0  0  0  0  0  0  0  0  0
  144.8520   71.8780  220.0820 C   0  0  0  0  0  0  0  0  0  0  0  0
  143.8960   72.5450  219.1170 C   0  0  1  0  0  0  0  0  0  0  0  0
  142.7930   71.6090  218.7110 C   0  0  0  0  0  0  0  0  0  0  0  0
  142.7600   70.4980  219.5370 O   0  0  0  0  0  0  0  0  0  0  0  0
  142.5670   69.3180  218.8190 C   0  0  0  0  0  0  0  0  0  0  0  0
  143.7320   68.4070  218.9660 C   0  0  0  0  0  0  0  0  0  0  0  0
  145.0130   68.8500  219.2260 C   0  0  0  0  0  0  0  0  0  0  0  0
  146.0950   68.0090  219.3640 C   0  0  0  0  0  0  0  0  0  0  0  0
  145.9260   66.6510  219.2390 C   0  0  0  0  0  0  0  0  0  0  0  0
  144.6500   66.1940  218.9790 C   0  0  0  0  0  0  0  0  0  0  0  0
  143.5630   67.0290  218.8400 C   0  0  0  0  0  0  0  0  0  0  0  0
  140.1620   71.5840  223.3840 C   0  0  0  0  0  0  0  0  0  0  0  0
  139.6410   70.3120  223.2020 C   0  0  0  0  0  0  0  0  0  0  0  0
  139.6030   69.4260  224.2820 C   0  0  0  0  0  0  0  0  0  0  0  0
  140.0750   69.7940  225.5280 C   0  0  0  0  0  0  0  0  0  0  0  0
  140.0590   68.9550  226.6200 C   0  0  0  0  0  0  0  0  0  0  0  0
  140.5360   69.3350  227.8620 C   0  0  0  0  0  0  0  0  0  0  0  0
  140.5160   68.5020  228.9370 F   0  0  0  0  0  0  0  0  0  0  0  0
  141.0410   70.6160  227.9720 C   0  0  0  0  0  0  0  0  0  0  0  0
  141.0700   71.4860  226.8840 C   0  0  0  0  0  0  0  0  0  0  0  0
  140.5840   71.0650  225.6600 C   0  0  0  0  0  0  0  0  0  0  0  0
  140.6110   71.8940  224.6180 N   0  0  0  0  0  0  0  0  0  0  0  0
  141.3690   71.2490  221.0270 H   0  0  0  0  0  0  0  0  0  0  0  0
  141.1556   72.5235  219.0805 H   0  0  0  0  0  0  0  0  0  0  0  0
  140.0501   73.6621  219.9656 H   0  0  0  0  0  0  0  0  0  0  0  0
  145.0262   75.0433  219.8408 H   0  0  0  0  0  0  0  0  0  0  0  0
  144.4895   74.6801  221.4831 H   0  0  0  0  0  0  0  0  0  0  0  0
  146.1106   73.0020  221.5396 H   0  0  0  0  0  0  0  0  0  0  0  0
  146.7070   74.2310  219.2710 H   0  0  0  0  0  0  0  0  0  0  0  0
  145.4879   71.1348  219.5788 H   0  0  0  0  0  0  0  0  0  0  0  0
  144.3719   71.3073  220.8905 H   0  0  0  0  0  0  0  0  0  0  0  0
  144.3329   72.8580  218.1573 H   0  0  0  0  0  0  0  0  0  0  0  0
  141.8300   72.1364  218.7778 H   0  0  0  0  0  0  0  0  0  0  0  0
  142.9768   71.2751  217.6792 H   0  0  0  0  0  0  0  0  0  0  0  0
  141.6654   68.8120  219.1946 H   0  0  0  0  0  0  0  0  0  0  0  0
  142.4527   69.5708  217.7546 H   0  0  0  0  0  0  0  0  0  0  0  0
  145.1787   69.9326  219.3285 H   0  0  0  0  0  0  0  0  0  0  0  0
  147.0921   68.4234  219.5738 H   0  0  0  0  0  0  0  0  0  0  0  0
  146.7730   65.9567  219.3419 H   0  0  0  0  0  0  0  0  0  0  0  0
  144.4931   65.1100  218.8778 H   0  0  0  0  0  0  0  0  0  0  0  0
  142.5674   66.6107  218.6308 H   0  0  0  0  0  0  0  0  0  0  0  0
  139.2612   70.0032  222.2169 H   0  0  0  0  0  0  0  0  0  0  0  0
  139.1897   68.4168  224.1379 H   0  0  0  0  0  0  0  0  0  0  0  0
  139.6501   67.9409  226.4999 H   0  0  0  0  0  0  0  0  0  0  0  0
  141.4299   70.9577  228.9426 H   0  0  0  0  0  0  0  0  0  0  0  0
  141.4771   72.5015  226.9982 H   0  0  0  0  0  0  0  0  0  0  0  0
  1  2  2  0
  2  3  1  0
  3  4  1  0
  4  5  1  0
  5  6  2  0
  5  7  1  0
  7  8  1  0
  8  9  1  0
  9 10  1  0
  9 11  1  0
 11 12  1  0
 12 13  1  0
 13 14  1  0
 14 15  1  0
 15 16  1  0
 16 17  2  0
 17 18  1  0
 18 19  2  0
 19 20  1  0
 20 21  2  0
  2 22  1  0
 22 23  2  0
 23 24  1  0
 24 25  2  0
 25 26  1  0
 26 27  2  0
 27 28  1  0
 27 29  1  0
 29 30  2  0
 30 31  1  0
 31 32  2  0
 12  7  1  0
 21 16  1  0
 32 22  1  0
 31 25  1  0
  3 33  1  0
  4 34  1  0
  4 35  1  0
  8 36  1  0
  8 37  1  0
  9 38  1  1
 10 39  1  0
 11 40  1  0
 11 41  1  0
 12 42  1  6
 13 43  1  0
 13 44  1  0
 15 45  1  0
 15 46  1  0
 17 47  1  0
 18 48  1  0
 19 49  1  0
 20 50  1  0
 21 51  1  0
 23 52  1  0
 24 53  1  0
 26 54  1  0
 29 55  1  0
 30 56  1  0
M  END
>  <smiles>  (30) 
O=C(NCC(=O)N1C[C@H](O)C[C@H]1COCc1ccccc1)c1ccc2cc(F)ccc2n1

>  <score_type>  (30) 
oracle

>  <origin>  (30) 
autodockgpu

>  <m_score__min__energy>  (30) 
-9.4199999999999999

>  <m_primary>  (30) 
energy

>  <rmsd>  (30) 
4.0215301019533145

>  <m_score__min__rmsd>  (30) 
4.0215301019533145

>  <meeko>  (30) 
{"free_energy": -8.83, "intermolecular_energy": -11.51, "internal_energy": -1.5, "cluster_size": 2, "cluster_id": 2, "rank_in_cluster": 1}

>  <energy>  (30) 
-7.79

>  <cluster_rmsd>  (30) 
1.68

>  <cluster>  (30) 
2

$$$$

     RDKit          3D

 56 59  0  0  0  0  0  0  0  0999 V2000
  141.3080   72.0760  221.4400 O   0  0  0  0  0  0  0  0  0  0  0  0
  140.4160   72.2800  222.3080 C   0  0  0  0  0  0  0  0  0  0  0  0
  139.5670   73.3940  222.2070 N   0  0  0  0  0  0  0  0  0  0  0  0
  139.7150   74.3060  221.1090 C   0  0  0  0  0  0  0  0  0  0  0  0
  140.9130   75.1720  221.2540 C   0  0  0  0  0  0  0  0  0  0  0  0
  141.0740   75.8550  222.3170 O   0  0  0  0  0  0  0  0  0  0  0  0
  141.8550   75.2200  220.2020 N   0  0  0  0  0  0  0  0  0  0  0  0
  142.2470   74.1120  219.3140 C   0  0  0  0  0  0  0  0  0  0  0  0
  142.6850   74.7760  218.0240 C   0  0  2  0  0  0  0  0  0  0  0  0
  144.0780   74.6440  217.8460 O   0  0  0  0  0  0  0  0  0  0  0  0
  142.4030   76.2630  218.2580 C   0  0  0  0  0  0  0  0  0  0  0  0
  142.6490   76.3440  219.7490 C   0  0  1  0  0  0  0  0  0  0  0  0
  142.1760   77.6560  220.3080 C   0  0  0  0  0  0  0  0  0  0  0  0
  140.9290   77.9860  219.8030 O   0  0  0  0  0  0  0  0  0  0  0  0
  140.1410   78.6470  220.7450 C   0  0  0  0  0  0  0  0  0  0  0  0
  140.9750   79.2040  221.8420 C   0  0  0  0  0  0  0  0  0  0  0  0
  141.0500   78.6390  223.0990 C   0  0  0  0  0  0  0  0  0  0  0  0
  141.8220   79.1520  224.1180 C   0  0  0  0  0  0  0  0  0  0  0  0
  142.5690   80.2850  223.9060 C   0  0  0  0  0  0  0  0  0  0  0  0
  142.5030   80.8600  222.6530 C   0  0  0  0  0  0  0  0  0  0  0  0
  141.7340   80.3530  221.6300 C   0  0  0  0  0  0  0  0  0  0  0  0
  140.2290   71.3680  223.4550 C   0  0  0  0  0  0  0  0  0  0  0  0
  139.5710   70.1560  223.3130 C   0  0  0  0  0  0  0  0  0  0  0  0
  139.4160   69.3260  224.4270 C   0  0  0  0  0  0  0  0  0  0  0  0
  139.9080   69.6900  225.6670 C   0  0  0  0  0  0  0  0  0  0  0  0
  139.7800   68.9050  226.7900 C   0  0  0  0  0  0  0  0  0  0  0  0
  140.2770   69.2800  228.0260 C   0  0  0  0  0  0  0  0  0  0  0  0
  140.1470   68.5010  229.1320 F   0  0  0  0  0  0  0  0  0  0  0  0
  140.9220   70.5000  228.0940 C   0  0  0  0  0  0  0  0  0  0  0  0
  141.0660   71.3160  226.9740 C   0  0  0  0  0  0  0  0  0  0  0  0
  140.5540   70.9010  225.7590 C   0  0  0  0  0  0  0  0  0  0  0  0
  140.6900   71.6780  224.6850 N   0  0  0  0  0  0  0  0  0  0  0  0
  138.8250   73.5740  222.9190 H   0  0  0  0  0  0  0  0  0  0  0  0
  139.8073   73.7272  220.1782 H   0  0  0  0  0  0  0  0  0  0  0  0
  138.8288   74.9574  221.0903 H   0  0  0  0  0  0  0  0  0  0  0  0
  143.0763   73.5391  219.7544 H   0  0  0  0  0  0  0  0  0  0  0  0
  141.4227   73.4017  219.1527 H   0  0  0  0  0  0  0  0  0  0  0  0
  142.1744   74.3400  217.1527 H   0  0  0  0  0  0  0  0  0  0  0  0
  144.5360   75.5220  217.8740 H   0  0  0  0  0  0  0  0  0  0  0  0
  143.0967   76.9040  217.6941 H   0  0  0  0  0  0  0  0  0  0  0  0
  141.4089   76.6035  217.9327 H   0  0  0  0  0  0  0  0  0  0  0  0
  143.7037   76.2989  220.0581 H   0  0  0  0  0  0  0  0  0  0  0  0
  142.1124   77.5791  221.4035 H   0  0  0  0  0  0  0  0  0  0  0  0
  142.8915   78.4401  220.0196 H   0  0  0  0  0  0  0  0  0  0  0  0
  139.6024   79.4686  220.2502 H   0  0  0  0  0  0  0  0  0  0  0  0
  139.4318   77.9252  221.1764 H   0  0  0  0  0  0  0  0  0  0  0  0
  140.4621   77.7308  223.2977 H   0  0  0  0  0  0  0  0  0  0  0  0
  141.8402   78.6554  225.0993 H   0  0  0  0  0  0  0  0  0  0  0  0
  143.1940   80.7163  224.7019 H   0  0  0  0  0  0  0  0  0  0  0  0
  143.0940   81.7680  222.4625 H   0  0  0  0  0  0  0  0  0  0  0  0
  141.7188   80.8525  220.6501 H   0  0  0  0  0  0  0  0  0  0  0  0
  139.1748   69.8505  222.3334 H   0  0  0  0  0  0  0  0  0  0  0  0
  138.8927   68.3650  224.3151 H   0  0  0  0  0  0  0  0  0  0  0  0
  139.2610   67.9392  226.7016 H   0  0  0  0  0  0  0  0  0  0  0  0
  141.3326   70.8358  229.0577 H   0  0  0  0  0  0  0  0  0  0  0  0
  141.5833   72.2833  227.0560 H   0  0  0  0  0  0  0  0  0  0  0  0
  1  2  2  0
  2  3  1  0
  3  4  1  0
  4  5  1  0
  5  6  2  0
  5  7  1  0
  7  8  1  0
  8  9  1  0
  9 10  1  0
  9 11  1  0
 11 12  1  0
 12 13  1  0
 13 14  1  0
 14 15  1  0
 15 16  1  0
 16 17  2  0
 17 18  1  0
 18 19  2  0
 19 20  1  0
 20 21  2  0
  2 22  1  0
 22 23  2  0
 23 24  1  0
 24 25  2  0
 25 26  1  0
 26 27  2  0
 27 28  1  0
 27 29  1  0
 29 30  2  0
 30 31  1  0
 31 32  2  0
 12  7  1  0
 21 16  1  0
 32 22  1  0
 31 25  1  0
  3 33  1  0
  4 34  1  0
  4 35  1  0
  8 36  1  0
  8 37  1  0
  9 38  1  6
 10 39  1  0
 11 40  1  0
 11 41  1  0
 12 42  1  6
 13 43  1  0
 13 44  1  0
 15 45  1  0
 15 46  1  0
 17 47  1  0
 18 48  1  0
 19 49  1  0
 20 50  1  0
 21 51  1  0
 23 52  1  0
 24 53  1  0
 26 54  1  0
 29 55  1  0
 30 56  1  0
M  END
>  <smiles>  (31) 
O=C(NCC(=O)N1C[C@H](O)C[C@H]1COCc1ccccc1)c1ccc2cc(F)ccc2n1

>  <score_type>  (31) 
oracle

>  <origin>  (31) 
autodockgpu

>  <m_score__min__energy>  (31) 
-9.4199999999999999

>  <m_primary>  (31) 
energy

>  <rmsd>  (31) 
1.7614109802457065

>  <m_score__min__rmsd>  (31) 
1.7614109802457065

>  <meeko>  (31) 
{"free_energy": -8.77, "intermolecular_energy": -11.46, "internal_energy": -1.6, "cluster_size": 28, "cluster_id": 1, "rank_in_cluster": 9}

>  <energy>  (31) 
-8.37

>  <cluster_rmsd>  (31) 
0.0

>  <cluster>  (31) 
3

$$$$

     RDKit          3D

 56 59  0  0  0  0  0  0  0  0999 V2000
  137.4520   70.0780  222.1770 O   0  0  0  0  0  0  0  0  0  0  0  0
  138.2220   70.6240  223.0150 C   0  0  0  0  0  0  0  0  0  0  0  0
  138.5440   71.9860  222.9020 N   0  0  0  0  0  0  0  0  0  0  0  0
  137.9940   72.7620  221.8290 C   0  0  0  0  0  0  0  0  0  0  0  0
  138.7620   74.0120  221.5860 C   0  0  0  0  0  0  0  0  0  0  0  0
  139.8100   74.2510  222.2680 O   0  0  0  0  0  0  0  0  0  0  0  0
  138.3080   74.9130  220.5980 N   0  0  0  0  0  0  0  0  0  0  0  0
  137.4980   74.5910  219.4110 C   0  0  0  0  0  0  0  0  0  0  0  0
  136.7320   75.8610  219.0980 C   0  0  2  0  0  0  0  0  0  0  0  0
  137.2020   76.4430  217.9030 O   0  0  0  0  0  0  0  0  0  0  0  0
  137.1100   76.8120  220.2380 C   0  0  0  0  0  0  0  0  0  0  0  0
  138.5230   76.3430  220.5110 C   0  0  1  0  0  0  0  0  0  0  0  0
  139.0540   76.9330  221.7860 C   0  0  0  0  0  0  0  0  0  0  0  0
  140.2920   77.5200  221.5800 O   0  0  0  0  0  0  0  0  0  0  0  0
  141.0600   77.5440  222.7440 C   0  0  0  0  0  0  0  0  0  0  0  0
  141.4340   78.9350  223.1080 C   0  0  0  0  0  0  0  0  0  0  0  0
  140.5120   79.9050  223.4460 C   0  0  0  0  0  0  0  0  0  0  0  0
  140.8550   81.1950  223.7860 C   0  0  0  0  0  0  0  0  0  0  0  0
  142.1760   81.5720  223.7960 C   0  0  0  0  0  0  0  0  0  0  0  0
  143.1090   80.6120  223.4590 C   0  0  0  0  0  0  0  0  0  0  0  0
  142.7740   79.3200  223.1200 C   0  0  0  0  0  0  0  0  0  0  0  0
  138.8110   69.8620  224.1350 C   0  0  0  0  0  0  0  0  0  0  0  0
  138.7710   68.4760  224.1650 C   0  0  0  0  0  0  0  0  0  0  0  0
  139.3410   67.7980  225.2460 C   0  0  0  0  0  0  0  0  0  0  0  0
  139.9430   68.4820  226.2860 C   0  0  0  0  0  0  0  0  0  0  0  0
  140.5170   67.8570  227.3690 C   0  0  0  0  0  0  0  0  0  0  0  0
  141.1180   68.5530  228.4030 C   0  0  0  0  0  0  0  0  0  0  0  0
  141.6830   67.9290  229.4720 F   0  0  0  0  0  0  0  0  0  0  0  0
  141.1220   69.9310  228.3080 C   0  0  0  0  0  0  0  0  0  0  0  0
  140.5480   70.5910  227.2230 C   0  0  0  0  0  0  0  0  0  0  0  0
  139.9590   69.8550  226.2120 C   0  0  0  0  0  0  0  0  0  0  0  0
  139.4100   70.4830  225.1730 N   0  0  0  0  0  0  0  0  0  0  0  0
  139.1800   72.4480  223.5880 H   0  0  0  0  0  0  0  0  0  0  0  0
  138.0058   72.1554  220.9114 H   0  0  0  0  0  0  0  0  0  0  0  0
  136.9689   73.0457  222.1095 H   0  0  0  0  0  0  0  0  0  0  0  0
  138.1450   74.3124  218.5662 H   0  0  0  0  0  0  0  0  0  0  0  0
  136.8263   73.7385  219.5898 H   0  0  0  0  0  0  0  0  0  0  0  0
  135.6541   75.6666  218.9957 H   0  0  0  0  0  0  0  0  0  0  0  0
  136.8060   76.0090  217.1050 H   0  0  0  0  0  0  0  0  0  0  0  0
  137.0833   77.8641  219.9182 H   0  0  0  0  0  0  0  0  0  0  0  0
  136.4362   76.7857  221.1071 H   0  0  0  0  0  0  0  0  0  0  0  0
  139.2726   76.6357  219.7611 H   0  0  0  0  0  0  0  0  0  0  0  0
  138.3500   77.6954  222.1509 H   0  0  0  0  0  0  0  0  0  0  0  0
  139.1653   76.1276  222.5269 H   0  0  0  0  0  0  0  0  0  0  0  0
  140.4798   77.1008  223.5667 H   0  0  0  0  0  0  0  0  0  0  0  0
  141.9809   76.9688  222.5675 H   0  0  0  0  0  0  0  0  0  0  0  0
  139.4461   79.6333  223.4437 H   0  0  0  0  0  0  0  0  0  0  0  0
  140.0725   81.9220  224.0490 H   0  0  0  0  0  0  0  0  0  0  0  0
  142.4777   82.5960  224.0615 H   0  0  0  0  0  0  0  0  0  0  0  0
  144.1725   80.8929  223.4614 H   0  0  0  0  0  0  0  0  0  0  0  0
  143.5597   78.5954  222.8600 H   0  0  0  0  0  0  0  0  0  0  0  0
  138.2955   67.9161  223.3463 H   0  0  0  0  0  0  0  0  0  0  0  0
  139.3101   66.6987  225.2700 H   0  0  0  0  0  0  0  0  0  0  0  0
  140.4973   66.7581  227.4148 H   0  0  0  0  0  0  0  0  0  0  0  0
  141.5900   70.5223  229.1088 H   0  0  0  0  0  0  0  0  0  0  0  0
  140.5636   71.6897  227.1715 H   0  0  0  0  0  0  0  0  0  0  0  0
  1  2  2  0
  2  3  1  0
  3  4  1  0
  4  5  1  0
  5  6  2  0
  5  7  1  0
  7  8  1  0
  8  9  1  0
  9 10  1  0
  9 11  1  0
 11 12  1  0
 12 13  1  0
 13 14  1  0
 14 15  1  0
 15 16  1  0
 16 17  2  0
 17 18  1  0
 18 19  2  0
 19 20  1  0
 20 21  2  0
  2 22  1  0
 22 23  2  0
 23 24  1  0
 24 25  2  0
 25 26  1  0
 26 27  2  0
 27 28  1  0
 27 29  1  0
 29 30  2  0
 30 31  1  0
 31 32  2  0
 12  7  1  0
 21 16  1  0
 32 22  1  0
 31 25  1  0
  3 33  1  0
  4 34  1  0
  4 35  1  0
  8 36  1  0
  8 37  1  0
  9 38  1  6
 10 39  1  0
 11 40  1  0
 11 41  1  0
 12 42  1  6
 13 43  1  0
 13 44  1  0
 15 45  1  0
 15 46  1  0
 17 47  1  0
 18 48  1  0
 19 49  1  0
 20 50  1  0
 21 51  1  0
 23 52  1  0
 24 53  1  0
 26 54  1  0
 29 55  1  0
 30 56  1  0
M  END
>  <smiles>  (32) 
O=C(NCC(=O)N1C[C@H](O)C[C@H]1COCc1ccccc1)c1ccc2cc(F)ccc2n1

>  <score_type>  (32) 
oracle

>  <origin>  (32) 
autodockgpu

>  <m_score__min__energy>  (32) 
-9.4199999999999999

>  <m_primary>  (32) 
energy

>  <rmsd>  (32) 
2.1469842773525065

>  <m_score__min__rmsd>  (32) 
2.1469842773525065

>  <meeko>  (32) 
{"free_energy": -7.54, "intermolecular_energy": -10.22, "internal_energy": -1.83, "cluster_size": 1, "cluster_id": 7, "rank_in_cluster": 1}

>  <energy>  (32) 
-8.33

>  <cluster_rmsd>  (32) 
0.87

>  <cluster>  (32) 
3

$$$$

     RDKit          3D

 56 59  0  0  0  0  0  0  0  0999 V2000
  140.9230   71.9810  221.8420 O   0  0  0  0  0  0  0  0  0  0  0  0
  139.9510   71.9170  222.6450 C   0  0  0  0  0  0  0  0  0  0  0  0
  138.8390   72.7590  222.4820 N   0  0  0  0  0  0  0  0  0  0  0  0
  138.8070   73.6960  221.3960 C   0  0  0  0  0  0  0  0  0  0  0  0
  139.4740   74.9800  221.7400 C   0  0  0  0  0  0  0  0  0  0  0  0
  140.7200   74.9920  222.0040 O   0  0  0  0  0  0  0  0  0  0  0  0
  138.7060   76.1640  221.7660 N   0  0  0  0  0  0  0  0  0  0  0  0
  137.4010   76.3590  222.4200 C   0  0  0  0  0  0  0  0  0  0  0  0
  137.3460   77.8360  222.7590 C   0  0  2  0  0  0  0  0  0  0  0  0
  136.3900   78.4940  221.9570 O   0  0  0  0  0  0  0  0  0  0  0  0
  138.7210   78.3650  222.3410 C   0  0  0  0  0  0  0  0  0  0  0  0
  139.0060   77.4500  221.1690 C   0  0  1  0  0  0  0  0  0  0  0  0
  140.4360   77.5680  220.7230 C   0  0  0  0  0  0  0  0  0  0  0  0
  140.5860   78.6030  219.8150 O   0  0  0  0  0  0  0  0  0  0  0  0
  141.8070   79.2590  219.9660 C   0  0  0  0  0  0  0  0  0  0  0  0
  141.8790   79.9590  221.2750 C   0  0  0  0  0  0  0  0  0  0  0  0
  141.3410   81.2100  221.4970 C   0  0  0  0  0  0  0  0  0  0  0  0
  141.4040   81.8610  222.7090 C   0  0  0  0  0  0  0  0  0  0  0  0
  142.0320   81.2630  223.7750 C   0  0  0  0  0  0  0  0  0  0  0  0
  142.5750   80.0120  223.5670 C   0  0  0  0  0  0  0  0  0  0  0  0
  142.5150   79.3540  222.3580 C   0  0  0  0  0  0  0  0  0  0  0  0
  139.9430   70.9680  223.7770 C   0  0  0  0  0  0  0  0  0  0  0  0
  139.4000   69.6990  223.6490 C   0  0  0  0  0  0  0  0  0  0  0  0
  139.4130   68.8340  224.7470 C   0  0  0  0  0  0  0  0  0  0  0  0
  139.9560   69.2220  225.9580 C   0  0  0  0  0  0  0  0  0  0  0  0
  139.9900   68.4050  227.0660 C   0  0  0  0  0  0  0  0  0  0  0  0
  140.5370   68.8050  228.2730 C   0  0  0  0  0  0  0  0  0  0  0  0
  140.5690   67.9940  229.3640 F   0  0  0  0  0  0  0  0  0  0  0  0
  141.0600   70.0820  228.3290 C   0  0  0  0  0  0  0  0  0  0  0  0
  141.0380   70.9310  227.2240 C   0  0  0  0  0  0  0  0  0  0  0  0
  140.4820   70.4900  226.0370 C   0  0  0  0  0  0  0  0  0  0  0  0
  140.4600   71.2980  224.9780 N   0  0  0  0  0  0  0  0  0  0  0  0
  138.0300   72.7170  223.1380 H   0  0  0  0  0  0  0  0  0  0  0  0
  139.3196   73.2518  220.5300 H   0  0  0  0  0  0  0  0  0  0  0  0
  137.7528   73.9139  221.1698 H   0  0  0  0  0  0  0  0  0  0  0  0
  136.5824   76.0888  221.7367 H   0  0  0  0  0  0  0  0  0  0  0  0
  137.2889   75.7266  223.3131 H   0  0  0  0  0  0  0  0  0  0  0  0
  137.0912   77.9971  223.8169 H   0  0  0  0  0  0  0  0  0  0  0  0
  136.6020   79.4550  221.8490 H   0  0  0  0  0  0  0  0  0  0  0  0
  138.6769   79.4204  222.0343 H   0  0  0  0  0  0  0  0  0  0  0  0
  139.4832   78.3552  223.1341 H   0  0  0  0  0  0  0  0  0  0  0  0
  138.4333   77.6604  220.2537 H   0  0  0  0  0  0  0  0  0  0  0  0
  141.0718   77.7625  221.5993 H   0  0  0  0  0  0  0  0  0  0  0  0
  140.7313   76.6270  220.2358 H   0  0  0  0  0  0  0  0  0  0  0  0
  142.6210   78.5214  219.9076 H   0  0  0  0  0  0  0  0  0  0  0  0
  141.9043   80.0058  219.1642 H   0  0  0  0  0  0  0  0  0  0  0  0
  140.8345   81.7145  220.6610 H   0  0  0  0  0  0  0  0  0  0  0  0
  140.9526   82.8575  222.8235 H   0  0  0  0  0  0  0  0  0  0  0  0
  142.0989   81.7611  224.7535 H   0  0  0  0  0  0  0  0  0  0  0  0
  143.0809   79.5153  224.4080 H   0  0  0  0  0  0  0  0  0  0  0  0
  142.9664   78.3569  222.2479 H   0  0  0  0  0  0  0  0  0  0  0  0
  138.9631   69.3758  222.6926 H   0  0  0  0  0  0  0  0  0  0  0  0
  138.9835   67.8264  224.6458 H   0  0  0  0  0  0  0  0  0  0  0  0
  139.5652   67.3933  226.9887 H   0  0  0  0  0  0  0  0  0  0  0  0
  141.5053   70.4381  229.2697 H   0  0  0  0  0  0  0  0  0  0  0  0
  141.4598   71.9444  227.2954 H   0  0  0  0  0  0  0  0  0  0  0  0
  1  2  2  0
  2  3  1  0
  3  4  1  0
  4  5  1  0
  5  6  2  0
  5  7  1  0
  7  8  1  0
  8  9  1  0
  9 10  1  0
  9 11  1  0
 11 12  1  0
 12 13  1  0
 13 14  1  0
 14 15  1  0
 15 16  1  0
 16 17  2  0
 17 18  1  0
 18 19  2  0
 19 20  1  0
 20 21  2  0
  2 22  1  0
 22 23  2  0
 23 24  1  0
 24 25  2  0
 25 26  1  0
 26 27  2  0
 27 28  1  0
 27 29  1  0
 29 30  2  0
 30 31  1  0
 31 32  2  0
 12  7  1  0
 21 16  1  0
 32 22  1  0
 31 25  1  0
  3 33  1  0
  4 34  1  0
  4 35  1  0
  8 36  1  0
  8 37  1  0
  9 38  1  1
 10 39  1  0
 11 40  1  0
 11 41  1  0
 12 42  1  6
 13 43  1  0
 13 44  1  0
 15 45  1  0
 15 46  1  0
 17 47  1  0
 18 48  1  0
 19 49  1  0
 20 50  1  0
 21 51  1  0
 23 52  1  0
 24 53  1  0
 26 54  1  0
 29 55  1  0
 30 56  1  0
M  END
>  <smiles>  (33) 
O=C(NCC(=O)N1C[C@H](O)C[C@H]1COCc1ccccc1)c1ccc2cc(F)ccc2n1

>  <score_type>  (33) 
oracle

>  <origin>  (33) 
autodockgpu

>  <m_score__min__energy>  (33) 
-9.4199999999999999

>  <m_primary>  (33) 
energy

>  <rmsd>  (33) 
2.7777497885815885

>  <m_score__min__rmsd>  (33) 
2.7777497885815885

>  <meeko>  (33) 
{"free_energy": -8.22, "intermolecular_energy": -10.9, "internal_energy": -1.42, "cluster_size": 7, "cluster_id": 3, "rank_in_cluster": 7}

>  <energy>  (33) 
-8.33

>  <cluster_rmsd>  (33) 
0.98

>  <cluster>  (33) 
3

$$$$

     RDKit          3D

 56 59  0  0  0  0  0  0  0  0999 V2000
  141.2690   72.7440  221.8900 O   0  0  0  0  0  0  0  0  0  0  0  0
  140.2090   72.6100  222.5610 C   0  0  0  0  0  0  0  0  0  0  0  0
  139.0850   73.4030  222.2810 N   0  0  0  0  0  0  0  0  0  0  0  0
  139.1410   74.3710  221.2240 C   0  0  0  0  0  0  0  0  0  0  0  0
  139.9150   75.5810  221.6090 C   0  0  0  0  0  0  0  0  0  0  0  0
  139.6620   76.1660  222.7110 O   0  0  0  0  0  0  0  0  0  0  0  0
  140.9190   76.0570  220.7380 N   0  0  0  0  0  0  0  0  0  0  0  0
  142.2250   75.4330  220.4680 C   0  0  0  0  0  0  0  0  0  0  0  0
  142.5920   75.8750  219.0650 C   0  0  2  0  0  0  0  0  0  0  0  0
  143.6790   76.7730  219.0960 O   0  0  0  0  0  0  0  0  0  0  0  0
  141.3690   76.6670  218.5940 C   0  0  0  0  0  0  0  0  0  0  0  0
  140.9110   77.2490  219.9150 C   0  0  1  0  0  0  0  0  0  0  0  0
  139.5470   77.8660  219.7930 C   0  0  0  0  0  0  0  0  0  0  0  0
  139.4420   78.9920  220.5930 O   0  0  0  0  0  0  0  0  0  0  0  0
  140.4930   79.8840  220.3820 C   0  0  0  0  0  0  0  0  0  0  0  0
  141.2260   80.1550  221.6460 C   0  0  0  0  0  0  0  0  0  0  0  0
  141.3350   81.4110  222.2050 C   0  0  0  0  0  0  0  0  0  0  0  0
  142.0130   81.6660  223.3770 C   0  0  0  0  0  0  0  0  0  0  0  0
  142.6260   80.6370  224.0500 C   0  0  0  0  0  0  0  0  0  0  0  0
  142.5250   79.3750  223.5020 C   0  0  0  0  0  0  0  0  0  0  0  0
  141.8490   79.1130  222.3310 C   0  0  0  0  0  0  0  0  0  0  0  0
  140.1080   71.6260  223.6590 C   0  0  0  0  0  0  0  0  0  0  0  0
  139.5020   70.3930  223.4680 C   0  0  0  0  0  0  0  0  0  0  0  0
  139.4280   69.4940  224.5370 C   0  0  0  0  0  0  0  0  0  0  0  0
  139.9460   69.8110  225.7780 C   0  0  0  0  0  0  0  0  0  0  0  0
  139.8960   68.9580  226.8580 C   0  0  0  0  0  0  0  0  0  0  0  0
  140.4190   69.2870  228.0960 C   0  0  0  0  0  0  0  0  0  0  0  0
  140.3660   68.4410  229.1590 F   0  0  0  0  0  0  0  0  0  0  0  0
  141.0080   70.5320  228.2140 C   0  0  0  0  0  0  0  0  0  0  0  0
  141.0720   71.4160  227.1390 C   0  0  0  0  0  0  0  0  0  0  0  0
  140.5370   71.0450  225.9190 C   0  0  0  0  0  0  0  0  0  0  0  0
  140.5980   71.8880  224.8890 N   0  0  0  0  0  0  0  0  0  0  0  0
  138.2030   73.3020  222.8290 H   0  0  0  0  0  0  0  0  0  0  0  0
  139.6181   73.9099  220.3467 H   0  0  0  0  0  0  0  0  0  0  0  0
  138.1111   74.6865  221.0009 H   0  0  0  0  0  0  0  0  0  0  0  0
  142.9765   75.7817  221.1916 H   0  0  0  0  0  0  0  0  0  0  0  0
  142.1844   74.3374  220.5574 H   0  0  0  0  0  0  0  0  0  0  0  0
  142.8602   75.0182  218.4294 H   0  0  0  0  0  0  0  0  0  0  0  0
  143.7400   77.2440  219.9650 H   0  0  0  0  0  0  0  0  0  0  0  0
  141.6432   77.4526  217.8745 H   0  0  0  0  0  0  0  0  0  0  0  0
  140.6109   76.0759  218.0593 H   0  0  0  0  0  0  0  0  0  0  0  0
  141.5285   78.0684  220.3115 H   0  0  0  0  0  0  0  0  0  0  0  0
  139.3727   78.1510  218.7449 H   0  0  0  0  0  0  0  0  0  0  0  0
  138.7973   77.1305  220.1201 H   0  0  0  0  0  0  0  0  0  0  0  0
  141.1894   79.4518  219.6484 H   0  0  0  0  0  0  0  0  0  0  0  0
  140.0776   80.8317  220.0087 H   0  0  0  0  0  0  0  0  0  0  0  0
  140.8549   82.2545  221.6874 H   0  0  0  0  0  0  0  0  0  0  0  0
  142.0634   82.6910  223.7729 H   0  0  0  0  0  0  0  0  0  0  0  0
  143.1747   80.8122  224.9871 H   0  0  0  0  0  0  0  0  0  0  0  0
  143.0080   78.5370  224.0259 H   0  0  0  0  0  0  0  0  0  0  0  0
  141.8010   78.0866  221.9382 H   0  0  0  0  0  0  0  0  0  0  0  0
  139.0841   70.1251  222.4864 H   0  0  0  0  0  0  0  0  0  0  0  0
  138.9481   68.5157  224.3868 H   0  0  0  0  0  0  0  0  0  0  0  0
  139.4205   67.9742  226.7312 H   0  0  0  0  0  0  0  0  0  0  0  0
  141.4371   70.8324  229.1813 H   0  0  0  0  0  0  0  0  0  0  0  0
  141.5447   72.4019  227.2599 H   0  0  0  0  0  0  0  0  0  0  0  0
  1  2  2  0
  2  3  1  0
  3  4  1  0
  4  5  1  0
  5  6  2  0
  5  7  1  0
  7  8  1  0
  8  9  1  0
  9 10  1  0
  9 11  1  0
 11 12  1  0
 12 13  1  0
 13 14  1  0
 14 15  1  0
 15 16  1  0
 16 17  2  0
 17 18  1  0
 18 19  2  0
 19 20  1  0
 20 21  2  0
  2 22  1  0
 22 23  2  0
 23 24  1  0
 24 25  2  0
 25 26  1  0
 26 27  2  0
 27 28  1  0
 27 29  1  0
 29 30  2  0
 30 31  1  0
 31 32  2  0
 12  7  1  0
 21 16  1  0
 32 22  1  0
 31 25  1  0
  3 33  1  0
  4 34  1  0
  4 35  1  0
  8 36  1  0
  8 37  1  0
  9 38  1  6
 10 39  1  0
 11 40  1  0
 11 41  1  0
 12 42  1  1
 13 43  1  0
 13 44  1  0
 15 45  1  0
 15 46  1  0
 17 47  1  0
 18 48  1  0
 19 49  1  0
 20 50  1  0
 21 51  1  0
 23 52  1  0
 24 53  1  0
 26 54  1  0
 29 55  1  0
 30 56  1  0
M  END
>  <smiles>  (34) 
O=C(NCC(=O)N1C[C@H](O)C[C@H]1COCc1ccccc1)c1ccc2cc(F)ccc2n1

>  <score_type>  (34) 
oracle

>  <origin>  (34) 
autodockgpu

>  <m_score__min__energy>  (34) 
-9.4199999999999999

>  <m_primary>  (34) 
energy

>  <rmsd>  (34) 
1.8431610167903016

>  <m_score__min__rmsd>  (34) 
1.8431610167903016

>  <meeko>  (34) 
{"free_energy": -8.71, "intermolecular_energy": -11.4, "internal_energy": -1.76, "cluster_size": 28, "cluster_id": 1, "rank_in_cluster": 10}

>  <energy>  (34) 
-8.27

>  <cluster_rmsd>  (34) 
1.22

>  <cluster>  (34) 
3

$$$$

     RDKit          3D

 56 59  0  0  0  0  0  0  0  0999 V2000
  141.3480   72.2150  221.4860 O   0  0  0  0  0  0  0  0  0  0  0  0
  140.4450   72.4370  222.3380 C   0  0  0  0  0  0  0  0  0  0  0  0
  139.6180   73.5660  222.2210 N   0  0  0  0  0  0  0  0  0  0  0  0
  139.8010   74.4730  221.1240 C   0  0  0  0  0  0  0  0  0  0  0  0
  141.0540   75.2630  221.2500 C   0  0  0  0  0  0  0  0  0  0  0  0
  141.3080   75.8730  222.3380 O   0  0  0  0  0  0  0  0  0  0  0  0
  141.9410   75.3200  220.1530 N   0  0  0  0  0  0  0  0  0  0  0  0
  142.3760   74.1960  219.3070 C   0  0  0  0  0  0  0  0  0  0  0  0
  142.7040   74.8150  217.9630 C   0  0  2  0  0  0  0  0  0  0  0  0
  144.0930   74.7760  217.7240 O   0  0  0  0  0  0  0  0  0  0  0  0
  142.3200   76.2880  218.1300 C   0  0  0  0  0  0  0  0  0  0  0  0
  142.6260   76.4720  219.6020 C   0  0  1  0  0  0  0  0  0  0  0  0
  142.0790   77.7750  220.1120 C   0  0  0  0  0  0  0  0  0  0  0  0
  140.7000   77.8150  219.9840 O   0  0  0  0  0  0  0  0  0  0  0  0
  140.1510   78.9380  220.6030 C   0  0  0  0  0  0  0  0  0  0  0  0
  140.9880   79.3810  221.7480 C   0  0  0  0  0  0  0  0  0  0  0  0
  141.8220   80.4790  221.6970 C   0  0  0  0  0  0  0  0  0  0  0  0
  142.5990   80.8930  222.7560 C   0  0  0  0  0  0  0  0  0  0  0  0
  142.5670   80.1980  223.9410 C   0  0  0  0  0  0  0  0  0  0  0  0
  141.7370   79.0980  224.0050 C   0  0  0  0  0  0  0  0  0  0  0  0
  140.9570   78.6780  222.9500 C   0  0  0  0  0  0  0  0  0  0  0  0
  140.2210   71.5300  223.4830 C   0  0  0  0  0  0  0  0  0  0  0  0
  139.5350   70.3350  223.3340 C   0  0  0  0  0  0  0  0  0  0  0  0
  139.3470   69.5090  224.4460 C   0  0  0  0  0  0  0  0  0  0  0  0
  139.8320   69.8620  225.6920 C   0  0  0  0  0  0  0  0  0  0  0  0
  139.6700   69.0810  226.8140 C   0  0  0  0  0  0  0  0  0  0  0  0
  140.1610   69.4450  228.0550 C   0  0  0  0  0  0  0  0  0  0  0  0
  139.9990   68.6700  229.1600 F   0  0  0  0  0  0  0  0  0  0  0  0
  140.8350   70.6490  228.1310 C   0  0  0  0  0  0  0  0  0  0  0  0
  141.0130   71.4600  227.0120 C   0  0  0  0  0  0  0  0  0  0  0  0
  140.5060   71.0570  225.7910 C   0  0  0  0  0  0  0  0  0  0  0  0
  140.6750   71.8300  224.7190 N   0  0  0  0  0  0  0  0  0  0  0  0
  138.8680   73.7610  222.9190 H   0  0  0  0  0  0  0  0  0  0  0  0
  139.8396   73.8946  220.1891 H   0  0  0  0  0  0  0  0  0  0  0  0
  138.9565   75.1779  221.1248 H   0  0  0  0  0  0  0  0  0  0  0  0
  143.2655   73.7117  219.7362 H   0  0  0  0  0  0  0  0  0  0  0  0
  141.6014   73.4194  219.2243 H   0  0  0  0  0  0  0  0  0  0  0  0
  142.1897   74.2930  217.1426 H   0  0  0  0  0  0  0  0  0  0  0  0
  144.5170   75.6570  217.8840 H   0  0  0  0  0  0  0  0  0  0  0  0
  142.9368   76.9451  217.4992 H   0  0  0  0  0  0  0  0  0  0  0  0
  141.2893   76.5352  217.8358 H   0  0  0  0  0  0  0  0  0  0  0  0
  143.6938   76.5225  219.8612 H   0  0  0  0  0  0  0  0  0  0  0  0
  142.3458   77.8871  221.1732 H   0  0  0  0  0  0  0  0  0  0  0  0
  142.5114   78.5944  219.5191 H   0  0  0  0  0  0  0  0  0  0  0  0
  140.0837   79.7553  219.8699 H   0  0  0  0  0  0  0  0  0  0  0  0
  139.1523   78.6748  220.9817 H   0  0  0  0  0  0  0  0  0  0  0  0
  141.8688   81.0543  220.7606 H   0  0  0  0  0  0  0  0  0  0  0  0
  143.2439   81.7782  222.6535 H   0  0  0  0  0  0  0  0  0  0  0  0
  143.1777   80.5059  224.8025 H   0  0  0  0  0  0  0  0  0  0  0  0
  141.6959   78.5280  224.9449 H   0  0  0  0  0  0  0  0  0  0  0  0
  140.3133   77.7924  223.0563 H   0  0  0  0  0  0  0  0  0  0  0  0
  139.1422   70.0393  222.3500 H   0  0  0  0  0  0  0  0  0  0  0  0
  138.8030   68.5603  224.3277 H   0  0  0  0  0  0  0  0  0  0  0  0
  139.1279   68.1285  226.7199 H   0  0  0  0  0  0  0  0  0  0  0  0
  141.2414   70.9755  229.0996 H   0  0  0  0  0  0  0  0  0  0  0  0
  141.5532   72.4142  227.0997 H   0  0  0  0  0  0  0  0  0  0  0  0
  1  2  2  0
  2  3  1  0
  3  4  1  0
  4  5  1  0
  5  6  2  0
  5  7  1  0
  7  8  1  0
  8  9  1  0
  9 10  1  0
  9 11  1  0
 11 12  1  0
 12 13  1  0
 13 14  1  0
 14 15  1  0
 15 16  1  0
 16 17  2  0
 17 18  1  0
 18 19  2  0
 19 20  1  0
 20 21  2  0
  2 22  1  0
 22 23  2  0
 23 24  1  0
 24 25  2  0
 25 26  1  0
 26 27  2  0
 27 28  1  0
 27 29  1  0
 29 30  2  0
 30 31  1  0
 31 32  2  0
 12  7  1  0
 21 16  1  0
 32 22  1  0
 31 25  1  0
  3 33  1  0
  4 34  1  0
  4 35  1  0
  8 36  1  0
  8 37  1  0
  9 38  1  6
 10 39  1  0
 11 40  1  0
 11 41  1  0
 12 42  1  6
 13 43  1  0
 13 44  1  0
 15 45  1  0
 15 46  1  0
 17 47  1  0
 18 48  1  0
 19 49  1  0
 20 50  1  0
 21 51  1  0
 23 52  1  0
 24 53  1  0
 26 54  1  0
 29 55  1  0
 30 56  1  0
M  END
>  <smiles>  (35) 
O=C(NCC(=O)N1C[C@H](O)C[C@H]1COCc1ccccc1)c1ccc2cc(F)ccc2n1

>  <score_type>  (35) 
oracle

>  <origin>  (35) 
autodockgpu

>  <m_score__min__energy>  (35) 
-9.4199999999999999

>  <m_primary>  (35) 
energy

>  <rmsd>  (35) 
1.8378198183922512

>  <m_score__min__rmsd>  (35) 
1.8378198183922512

>  <meeko>  (35) 
{"free_energy": -8.71, "intermolecular_energy": -11.39, "internal_energy": -1.65, "cluster_size": 28, "cluster_id": 1, "rank_in_cluster": 11}

>  <energy>  (35) 
-8.27

>  <cluster_rmsd>  (35) 
1.53

>  <cluster>  (35) 
3

$$$$

     RDKit          3D

 56 59  0  0  0  0  0  0  0  0999 V2000
  139.2300   71.1530  221.2180 O   0  0  0  0  0  0  0  0  0  0  0  0
  139.4970   71.6160  222.3610 C   0  0  0  0  0  0  0  0  0  0  0  0
  139.7220   72.9910  222.5360 N   0  0  0  0  0  0  0  0  0  0  0  0
  139.6460   73.8750  221.4090 C   0  0  0  0  0  0  0  0  0  0  0  0
  140.5500   73.4590  220.3050 C   0  0  0  0  0  0  0  0  0  0  0  0
  140.0560   73.0550  219.2030 O   0  0  0  0  0  0  0  0  0  0  0  0
  141.9470   73.5230  220.5040 N   0  0  0  0  0  0  0  0  0  0  0  0
  142.8450   72.4070  220.8440 C   0  0  0  0  0  0  0  0  0  0  0  0
  144.1960   72.8010  220.2810 C   0  0  2  0  0  0  0  0  0  0  0  0
  145.1030   73.0850  221.3230 O   0  0  0  0  0  0  0  0  0  0  0  0
  143.9240   74.1200  219.5520 C   0  0  0  0  0  0  0  0  0  0  0  0
  142.8200   74.6770  220.4240 C   0  0  1  0  0  0  0  0  0  0  0  0
  142.1620   75.8640  219.7780 C   0  0  0  0  0  0  0  0  0  0  0  0
  142.5420   77.0400  220.4040 O   0  0  0  0  0  0  0  0  0  0  0  0
  141.4580   77.8900  220.6220 C   0  0  0  0  0  0  0  0  0  0  0  0
  141.7080   78.7870  221.7800 C   0  0  0  0  0  0  0  0  0  0  0  0
  141.5170   78.4040  223.0910 C   0  0  0  0  0  0  0  0  0  0  0  0
  141.7490   79.2320  224.1670 C   0  0  0  0  0  0  0  0  0  0  0  0
  142.1910   80.5160  223.9590 C   0  0  0  0  0  0  0  0  0  0  0  0
  142.3860   80.9130  222.6520 C   0  0  0  0  0  0  0  0  0  0  0  0
  142.1570   80.0900  221.5710 C   0  0  0  0  0  0  0  0  0  0  0  0
  139.5870   70.7420  223.5480 C   0  0  0  0  0  0  0  0  0  0  0  0
  139.0980   69.4440  223.5270 C   0  0  0  0  0  0  0  0  0  0  0  0
  139.2030   68.6540  224.6750 C   0  0  0  0  0  0  0  0  0  0  0  0
  139.7850   69.1410  225.8310 C   0  0  0  0  0  0  0  0  0  0  0  0
  139.9110   68.4000  226.9840 C   0  0  0  0  0  0  0  0  0  0  0  0
  140.4960   68.8990  228.1340 C   0  0  0  0  0  0  0  0  0  0  0  0
  140.6170   68.1620  229.2700 F   0  0  0  0  0  0  0  0  0  0  0  0
  140.9600   70.1990  228.0840 C   0  0  0  0  0  0  0  0  0  0  0  0
  140.8460   70.9730  226.9310 C   0  0  0  0  0  0  0  0  0  0  0  0
  140.2550   70.4330  225.8040 C   0  0  0  0  0  0  0  0  0  0  0  0
  140.1450   71.1700  224.7000 N   0  0  0  0  0  0  0  0  0  0  0  0
  139.9440   73.3860  223.4760 H   0  0  0  0  0  0  0  0  0  0  0  0
  138.6115   73.8837  221.0351 H   0  0  0  0  0  0  0  0  0  0  0  0
  139.9603   74.8748  221.7432 H   0  0  0  0  0  0  0  0  0  0  0  0
  142.9041   72.2776  221.9347 H   0  0  0  0  0  0  0  0  0  0  0  0
  142.4893   71.4515  220.4309 H   0  0  0  0  0  0  0  0  0  0  0  0
  144.6187   72.0042  219.6514 H   0  0  0  0  0  0  0  0  0  0  0  0
  145.5320   72.2620  221.6700 H   0  0  0  0  0  0  0  0  0  0  0  0
  144.8088   74.7735  219.5459 H   0  0  0  0  0  0  0  0  0  0  0  0
  143.6673   74.0174  218.4873 H   0  0  0  0  0  0  0  0  0  0  0  0
  143.1398   75.0629  221.4032 H   0  0  0  0  0  0  0  0  0  0  0  0
  142.4571   75.9077  218.7192 H   0  0  0  0  0  0  0  0  0  0  0  0
  141.0712   75.7540  219.8680 H   0  0  0  0  0  0  0  0  0  0  0  0
  141.2939   78.5014  219.7224 H   0  0  0  0  0  0  0  0  0  0  0  0
  140.5707   77.2771  220.8390 H   0  0  0  0  0  0  0  0  0  0  0  0
  141.1602   77.3823  223.2880 H   0  0  0  0  0  0  0  0  0  0  0  0
  141.5807   78.8660  225.1906 H   0  0  0  0  0  0  0  0  0  0  0  0
  142.3816   81.1994  224.7996 H   0  0  0  0  0  0  0  0  0  0  0  0
  142.7417   81.9368  222.4639 H   0  0  0  0  0  0  0  0  0  0  0  0
  142.3275   80.4590  220.5489 H   0  0  0  0  0  0  0  0  0  0  0  0
  138.6322   69.0406  222.6158 H   0  0  0  0  0  0  0  0  0  0  0  0
  138.8151   67.6248  224.6587 H   0  0  0  0  0  0  0  0  0  0  0  0
  139.5306   67.3679  226.9914 H   0  0  0  0  0  0  0  0  0  0  0  0
  141.4316   70.6344  228.9773 H   0  0  0  0  0  0  0  0  0  0  0  0
  141.2235   72.0061  226.9176 H   0  0  0  0  0  0  0  0  0  0  0  0
  1  2  2  0
  2  3  1  0
  3  4  1  0
  4  5  1  0
  5  6  2  0
  5  7  1  0
  7  8  1  0
  8  9  1  0
  9 10  1  0
  9 11  1  0
 11 12  1  0
 12 13  1  0
 13 14  1  0
 14 15  1  0
 15 16  1  0
 16 17  2  0
 17 18  1  0
 18 19  2  0
 19 20  1  0
 20 21  2  0
  2 22  1  0
 22 23  2  0
 23 24  1  0
 24 25  2  0
 25 26  1  0
 26 27  2  0
 27 28  1  0
 27 29  1  0
 29 30  2  0
 30 31  1  0
 31 32  2  0
 12  7  1  0
 21 16  1  0
 32 22  1  0
 31 25  1  0
  3 33  1  0
  4 34  1  0
  4 35  1  0
  8 36  1  0
  8 37  1  0
  9 38  1  6
 10 39  1  0
 11 40  1  0
 11 41  1  0
 12 42  1  1
 13 43  1  0
 13 44  1  0
 15 45  1  0
 15 46  1  0
 17 47  1  0
 18 48  1  0
 19 49  1  0
 20 50  1  0
 21 51  1  0
 23 52  1  0
 24 53  1  0
 26 54  1  0
 29 55  1  0
 30 56  1  0
M  END
>  <smiles>  (36) 
O=C(NCC(=O)N1C[C@H](O)C[C@H]1COCc1ccccc1)c1ccc2cc(F)ccc2n1

>  <score_type>  (36) 
oracle

>  <origin>  (36) 
autodockgpu

>  <m_score__min__energy>  (36) 
-9.4199999999999999

>  <m_primary>  (36) 
energy

>  <rmsd>  (36) 
2.820891037284868

>  <m_score__min__rmsd>  (36) 
2.820891037284868

>  <meeko>  (36) 
{"free_energy": -8.52, "intermolecular_energy": -11.2, "internal_energy": -1.6, "cluster_size": 28, "cluster_id": 1, "rank_in_cluster": 20}

>  <energy>  (36) 
-8.23

>  <cluster_rmsd>  (36) 
1.2

>  <cluster>  (36) 
3

$$$$

     RDKit          3D

 56 59  0  0  0  0  0  0  0  0999 V2000
  139.0890   74.3370  222.2210 O   0  0  0  0  0  0  0  0  0  0  0  0
  140.1160   75.0260  221.9720 C   0  0  0  0  0  0  0  0  0  0  0  0
  141.3030   74.4060  221.5480 N   0  0  0  0  0  0  0  0  0  0  0  0
  141.3470   72.9800  221.3970 C   0  0  0  0  0  0  0  0  0  0  0  0
  141.9040   72.5700  220.0810 C   0  0  0  0  0  0  0  0  0  0  0  0
  141.1900   71.8840  219.2810 O   0  0  0  0  0  0  0  0  0  0  0  0
  143.2210   72.9530  219.7460 N   0  0  0  0  0  0  0  0  0  0  0  0
  144.4380   72.1320  219.8570 C   0  0  0  0  0  0  0  0  0  0  0  0
  145.3780   72.6720  218.7970 C   0  0  2  0  0  0  0  0  0  0  0  0
  146.4700   73.3350  219.3950 O   0  0  0  0  0  0  0  0  0  0  0  0
  144.5490   73.7380  218.0740 C   0  0  0  0  0  0  0  0  0  0  0  0
  143.6880   74.2210  219.2220 C   0  0  1  0  0  0  0  0  0  0  0  0
  142.5710   75.0980  218.7320 C   0  0  0  0  0  0  0  0  0  0  0  0
  142.4050   76.1960  219.5610 O   0  0  0  0  0  0  0  0  0  0  0  0
  142.9360   77.3580  219.0020 C   0  0  0  0  0  0  0  0  0  0  0  0
  141.9180   78.4390  218.9520 C   0  0  0  0  0  0  0  0  0  0  0  0
  142.2390   79.7810  218.9070 C   0  0  0  0  0  0  0  0  0  0  0  0
  141.2980   80.7860  218.8590 C   0  0  0  0  0  0  0  0  0  0  0  0
  139.9610   80.4720  218.8560 C   0  0  0  0  0  0  0  0  0  0  0  0
  139.6260   79.1340  218.9000 C   0  0  0  0  0  0  0  0  0  0  0  0
  140.5610   78.1230  218.9480 C   0  0  0  0  0  0  0  0  0  0  0  0
  140.1150   76.4960  222.1150 C   0  0  0  0  0  0  0  0  0  0  0  0
  138.9300   77.2140  222.1820 C   0  0  0  0  0  0  0  0  0  0  0  0
  138.9780   78.6040  222.3160 C   0  0  0  0  0  0  0  0  0  0  0  0
  140.1840   79.2770  222.3830 C   0  0  0  0  0  0  0  0  0  0  0  0
  140.2790   80.6440  222.5150 C   0  0  0  0  0  0  0  0  0  0  0  0
  141.4920   81.3060  222.5820 C   0  0  0  0  0  0  0  0  0  0  0  0
  141.5800   82.6570  222.7120 F   0  0  0  0  0  0  0  0  0  0  0  0
  142.6320   80.5290  222.5090 C   0  0  0  0  0  0  0  0  0  0  0  0
  142.5660   79.1440  222.3740 C   0  0  0  0  0  0  0  0  0  0  0  0
  141.3320   78.5240  222.3130 C   0  0  0  0  0  0  0  0  0  0  0  0
  141.2650   77.1990  222.1850 N   0  0  0  0  0  0  0  0  0  0  0  0
  142.1590   74.9650  221.3390 H   0  0  0  0  0  0  0  0  0  0  0  0
  141.9767   72.5589  222.1946 H   0  0  0  0  0  0  0  0  0  0  0  0
  140.3156   72.6026  221.4588 H   0  0  0  0  0  0  0  0  0  0  0  0
  144.8837   72.2358  220.8573 H   0  0  0  0  0  0  0  0  0  0  0  0
  144.2272   71.0619  219.7139 H   0  0  0  0  0  0  0  0  0  0  0  0
  145.7620   71.8686  218.1511 H   0  0  0  0  0  0  0  0  0  0  0  0
  146.3760   74.3200  219.3380 H   0  0  0  0  0  0  0  0  0  0  0  0
  145.1809   74.5428  217.6703 H   0  0  0  0  0  0  0  0  0  0  0  0
  143.9928   73.3773  217.1962 H   0  0  0  0  0  0  0  0  0  0  0  0
  144.1997   74.8491  219.9661 H   0  0  0  0  0  0  0  0  0  0  0  0
  142.8060   75.4464  217.7154 H   0  0  0  0  0  0  0  0  0  0  0  0
  141.6392   74.5135  218.7317 H   0  0  0  0  0  0  0  0  0  0  0  0
  143.7875   77.6939  219.6120 H   0  0  0  0  0  0  0  0  0  0  0  0
  143.2612   77.1355  217.9750 H   0  0  0  0  0  0  0  0  0  0  0  0
  143.3023   80.0627  218.9096 H   0  0  0  0  0  0  0  0  0  0  0  0
  141.6169   81.8381  218.8231 H   0  0  0  0  0  0  0  0  0  0  0  0
  139.1890   81.2548  218.8200 H   0  0  0  0  0  0  0  0  0  0  0  0
  138.5604   78.8612  218.8966 H   0  0  0  0  0  0  0  0  0  0  0  0
  140.2378   77.0721  218.9830 H   0  0  0  0  0  0  0  0  0  0  0  0
  137.9620   76.6941  222.1302 H   0  0  0  0  0  0  0  0  0  0  0  0
  138.0385   79.1737  222.3692 H   0  0  0  0  0  0  0  0  0  0  0  0
  139.3524   81.2342  222.5694 H   0  0  0  0  0  0  0  0  0  0  0  0
  143.6169   81.0163  222.5588 H   0  0  0  0  0  0  0  0  0  0  0  0
  143.4889   78.5483  222.3164 H   0  0  0  0  0  0  0  0  0  0  0  0
  1  2  2  0
  2  3  1  0
  3  4  1  0
  4  5  1  0
  5  6  2  0
  5  7  1  0
  7  8  1  0
  8  9  1  0
  9 10  1  0
  9 11  1  0
 11 12  1  0
 12 13  1  0
 13 14  1  0
 14 15  1  0
 15 16  1  0
 16 17  2  0
 17 18  1  0
 18 19  2  0
 19 20  1  0
 20 21  2  0
  2 22  1  0
 22 23  2  0
 23 24  1  0
 24 25  2  0
 25 26  1  0
 26 27  2  0
 27 28  1  0
 27 29  1  0
 29 30  2  0
 30 31  1  0
 31 32  2  0
 12  7  1  0
 21 16  1  0
 32 22  1  0
 31 25  1  0
  3 33  1  0
  4 34  1  0
  4 35  1  0
  8 36  1  0
  8 37  1  0
  9 38  1  6
 10 39  1  0
 11 40  1  0
 11 41  1  0
 12 42  1  1
 13 43  1  0
 13 44  1  0
 15 45  1  0
 15 46  1  0
 17 47  1  0
 18 48  1  0
 19 49  1  0
 20 50  1  0
 21 51  1  0
 23 52  1  0
 24 53  1  0
 26 54  1  0
 29 55  1  0
 30 56  1  0
M  END
>  <smiles>  (37) 
O=C(NCC(=O)N1C[C@H](O)C[C@H]1COCc1ccccc1)c1ccc2cc(F)ccc2n1

>  <score_type>  (37) 
oracle

>  <origin>  (37) 
autodockgpu

>  <m_score__min__energy>  (37) 
-9.4199999999999999

>  <m_primary>  (37) 
energy

>  <rmsd>  (37) 
7.942429815966071

>  <m_score__min__rmsd>  (37) 
7.942429815966071

>  <meeko>  (37) 
{"free_energy": -5.75, "intermolecular_energy": -8.44, "internal_energy": -4.05, "cluster_size": 6, "cluster_id": 8, "rank_in_cluster": 6}

>  <energy>  (37) 
-8.22

>  <cluster_rmsd>  (37) 
1.59

>  <cluster>  (37) 
3

$$$$

     RDKit          3D

 56 59  0  0  0  0  0  0  0  0999 V2000
  140.9780   71.5700  221.2240 O   0  0  0  0  0  0  0  0  0  0  0  0
  140.4340   72.0340  222.2640 C   0  0  0  0  0  0  0  0  0  0  0  0
  140.0310   73.3780  222.3160 N   0  0  0  0  0  0  0  0  0  0  0  0
  140.2380   74.2280  221.1800 C   0  0  0  0  0  0  0  0  0  0  0  0
  140.3890   75.6560  221.5650 C   0  0  0  0  0  0  0  0  0  0  0  0
  139.9800   76.0490  222.7050 O   0  0  0  0  0  0  0  0  0  0  0  0
  140.9880   76.5520  220.6520 N   0  0  0  0  0  0  0  0  0  0  0  0
  142.2130   76.3280  219.8670 C   0  0  0  0  0  0  0  0  0  0  0  0
  142.0500   77.1830  218.6250 C   0  0  2  0  0  0  0  0  0  0  0  0
  142.9540   78.2650  218.6450 O   0  0  0  0  0  0  0  0  0  0  0  0
  140.6430   77.7710  218.7630 C   0  0  0  0  0  0  0  0  0  0  0  0
  140.5520   77.8800  220.2710 C   0  0  1  0  0  0  0  0  0  0  0  0
  139.1480   78.1840  220.7100 C   0  0  0  0  0  0  0  0  0  0  0  0
  138.8840   79.5400  220.6140 O   0  0  0  0  0  0  0  0  0  0  0  0
  138.9280   80.1720  221.8570 C   0  0  0  0  0  0  0  0  0  0  0  0
  140.2980   80.1270  222.4300 C   0  0  0  0  0  0  0  0  0  0  0  0
  140.6440   79.3350  223.5060 C   0  0  0  0  0  0  0  0  0  0  0  0
  141.9130   79.2900  224.0400 C   0  0  0  0  0  0  0  0  0  0  0  0
  142.9110   80.0630  223.4980 C   0  0  0  0  0  0  0  0  0  0  0  0
  142.5780   80.8600  222.4220 C   0  0  0  0  0  0  0  0  0  0  0  0
  141.3120   80.9100  221.8830 C   0  0  0  0  0  0  0  0  0  0  0  0
  140.2030   71.1940  223.4570 C   0  0  0  0  0  0  0  0  0  0  0  0
  139.4820   70.0120  223.3790 C   0  0  0  0  0  0  0  0  0  0  0  0
  139.2870   69.2500  224.5340 C   0  0  0  0  0  0  0  0  0  0  0  0
  139.8000   69.6520  225.7530 C   0  0  0  0  0  0  0  0  0  0  0  0
  139.6340   68.9340  226.9160 C   0  0  0  0  0  0  0  0  0  0  0  0
  140.1540   69.3470  228.1310 C   0  0  0  0  0  0  0  0  0  0  0  0
  139.9860   68.6340  229.2760 F   0  0  0  0  0  0  0  0  0  0  0  0
  140.8620   70.5330  228.1360 C   0  0  0  0  0  0  0  0  0  0  0  0
  141.0450   71.2810  226.9740 C   0  0  0  0  0  0  0  0  0  0  0  0
  140.5090   70.8300  225.7820 C   0  0  0  0  0  0  0  0  0  0  0  0
  140.6830   71.5420  224.6690 N   0  0  0  0  0  0  0  0  0  0  0  0
  139.5810   73.7730  223.1700 H   0  0  0  0  0  0  0  0  0  0  0  0
  141.1500   73.9041  220.6571 H   0  0  0  0  0  0  0  0  0  0  0  0
  139.3531   74.1456  220.5318 H   0  0  0  0  0  0  0  0  0  0  0  0
  143.0997   76.6413  220.4376 H   0  0  0  0  0  0  0  0  0  0  0  0
  142.3548   75.2656  219.6196 H   0  0  0  0  0  0  0  0  0  0  0  0
  142.2192   76.5994  217.7081 H   0  0  0  0  0  0  0  0  0  0  0  0
  143.6850   78.1190  219.2970 H   0  0  0  0  0  0  0  0  0  0  0  0
  140.5617   78.7543  218.2767 H   0  0  0  0  0  0  0  0  0  0  0  0
  139.8446   77.1791  218.2916 H   0  0  0  0  0  0  0  0  0  0  0  0
  141.1427   78.6896  220.7244 H   0  0  0  0  0  0  0  0  0  0  0  0
  138.4430   77.6334  220.0698 H   0  0  0  0  0  0  0  0  0  0  0  0
  139.0332   77.8766  221.7599 H   0  0  0  0  0  0  0  0  0  0  0  0
  138.6225   81.2220  221.7375 H   0  0  0  0  0  0  0  0  0  0  0  0
  138.2450   79.6469  222.5410 H   0  0  0  0  0  0  0  0  0  0  0  0
  139.8648   78.7061  223.9615 H   0  0  0  0  0  0  0  0  0  0  0  0
  142.1268   78.6365  224.8986 H   0  0  0  0  0  0  0  0  0  0  0  0
  143.9329   80.0472  223.9048 H   0  0  0  0  0  0  0  0  0  0  0  0
  143.3627   81.4863  221.9726 H   0  0  0  0  0  0  0  0  0  0  0  0
  141.1023   81.5651  221.0246 H   0  0  0  0  0  0  0  0  0  0  0  0
  139.0673   69.6773  222.4167 H   0  0  0  0  0  0  0  0  0  0  0  0
  138.7146   68.3127  224.4720 H   0  0  0  0  0  0  0  0  0  0  0  0
  139.0648   67.9935  226.8784 H   0  0  0  0  0  0  0  0  0  0  0  0
  141.2923   70.8965  229.0808 H   0  0  0  0  0  0  0  0  0  0  0  0
  141.6117   72.2232  227.0052 H   0  0  0  0  0  0  0  0  0  0  0  0
  1  2  2  0
  2  3  1  0
  3  4  1  0
  4  5  1  0
  5  6  2  0
  5  7  1  0
  7  8  1  0
  8  9  1  0
  9 10  1  0
  9 11  1  0
 11 12  1  0
 12 13  1  0
 13 14  1  0
 14 15  1  0
 15 16  1  0
 16 17  2  0
 17 18  1  0
 18 19  2  0
 19 20  1  0
 20 21  2  0
  2 22  1  0
 22 23  2  0
 23 24  1  0
 24 25  2  0
 25 26  1  0
 26 27  2  0
 27 28  1  0
 27 29  1  0
 29 30  2  0
 30 31  1  0
 31 32  2  0
 12  7  1  0
 21 16  1  0
 32 22  1  0
 31 25  1  0
  3 33  1  0
  4 34  1  0
  4 35  1  0
  8 36  1  0
  8 37  1  0
  9 38  1  6
 10 39  1  0
 11 40  1  0
 11 41  1  0
 12 42  1  1
 13 43  1  0
 13 44  1  0
 15 45  1  0
 15 46  1  0
 17 47  1  0
 18 48  1  0
 19 49  1  0
 20 50  1  0
 21 51  1  0
 23 52  1  0
 24 53  1  0
 26 54  1  0
 29 55  1  0
 30 56  1  0
M  END
>  <smiles>  (38) 
O=C(NCC(=O)N1C[C@H](O)C[C@H]1COCc1ccccc1)c1ccc2cc(F)ccc2n1

>  <score_type>  (38) 
oracle

>  <origin>  (38) 
autodockgpu

>  <m_score__min__energy>  (38) 
-9.4199999999999999

>  <m_primary>  (38) 
energy

>  <rmsd>  (38) 
1.851406768969921

>  <m_score__min__rmsd>  (38) 
1.851406768969921

>  <meeko>  (38) 
{"free_energy": -8.33, "intermolecular_energy": -11.01, "internal_energy": -2.17, "cluster_size": 7, "cluster_id": 3, "rank_in_cluster": 3}

>  <energy>  (38) 
-8.16

>  <cluster_rmsd>  (38) 
0.0

>  <cluster>  (38) 
4

$$$$

     RDKit          3D

 56 59  0  0  0  0  0  0  0  0999 V2000
  138.7410   75.0040  222.1230 O   0  0  0  0  0  0  0  0  0  0  0  0
  139.8300   75.5990  221.8960 C   0  0  0  0  0  0  0  0  0  0  0  0
  140.8350   74.9780  221.1360 N   0  0  0  0  0  0  0  0  0  0  0  0
  140.6210   73.6590  220.6140 C   0  0  0  0  0  0  0  0  0  0  0  0
  141.6100   73.3010  219.5630 C   0  0  0  0  0  0  0  0  0  0  0  0
  141.2100   73.0520  218.3810 O   0  0  0  0  0  0  0  0  0  0  0  0
  142.9790   73.2470  219.9020 N   0  0  0  0  0  0  0  0  0  0  0  0
  143.6840   72.1380  220.5670 C   0  0  0  0  0  0  0  0  0  0  0  0
  145.1200   72.2410  220.0920 C   0  0  2  0  0  0  0  0  0  0  0  0
  145.9640   72.6430  221.1490 O   0  0  0  0  0  0  0  0  0  0  0  0
  145.0940   73.3890  219.0790 C   0  0  0  0  0  0  0  0  0  0  0  0
  144.0050   74.2480  219.6850 C   0  0  1  0  0  0  0  0  0  0  0  0
  143.5740   75.3290  218.7350 C   0  0  0  0  0  0  0  0  0  0  0  0
  142.8600   76.3130  219.4000 O   0  0  0  0  0  0  0  0  0  0  0  0
  142.9060   77.5360  218.7300 C   0  0  0  0  0  0  0  0  0  0  0  0
  141.8230   78.4400  219.1950 C   0  0  0  0  0  0  0  0  0  0  0  0
  142.0440   79.7390  219.6070 C   0  0  0  0  0  0  0  0  0  0  0  0
  141.0430   80.5810  220.0380 C   0  0  0  0  0  0  0  0  0  0  0  0
  139.7440   80.1360  220.0740 C   0  0  0  0  0  0  0  0  0  0  0  0
  139.5080   78.8390  219.6650 C   0  0  0  0  0  0  0  0  0  0  0  0
  140.5040   77.9920  219.2330 C   0  0  0  0  0  0  0  0  0  0  0  0
  140.0930   76.9570  222.4150 C   0  0  0  0  0  0  0  0  0  0  0  0
  139.0640   77.7640  222.8770 C   0  0  0  0  0  0  0  0  0  0  0  0
  139.3600   79.0430  223.3580 C   0  0  0  0  0  0  0  0  0  0  0  0
  140.6590   79.5180  223.3810 C   0  0  0  0  0  0  0  0  0  0  0  0
  140.9970   80.7690  223.8450 C   0  0  0  0  0  0  0  0  0  0  0  0
  142.3000   81.2320  223.8640 C   0  0  0  0  0  0  0  0  0  0  0  0
  142.6280   82.4690  224.3240 F   0  0  0  0  0  0  0  0  0  0  0  0
  143.2740   80.3760  223.3890 C   0  0  0  0  0  0  0  0  0  0  0  0
  142.9610   79.1040  222.9120 C   0  0  0  0  0  0  0  0  0  0  0  0
  141.6450   78.6810  222.9130 C   0  0  0  0  0  0  0  0  0  0  0  0
  141.3420   77.4660  222.4580 N   0  0  0  0  0  0  0  0  0  0  0  0
  141.7400   75.4590  220.9420 H   0  0  0  0  0  0  0  0  0  0  0  0
  140.7026   72.9349  221.4380 H   0  0  0  0  0  0  0  0  0  0  0  0
  139.6208   73.6361  220.1568 H   0  0  0  0  0  0  0  0  0  0  0  0
  143.6302   72.2467  221.6603 H   0  0  0  0  0  0  0  0  0  0  0  0
  143.2387   71.1620  220.3239 H   0  0  0  0  0  0  0  0  0  0  0  0
  145.4832   71.2819  219.6943 H   0  0  0  0  0  0  0  0  0  0  0  0
  145.9700   71.9790  221.8850 H   0  0  0  0  0  0  0  0  0  0  0  0
  146.0569   73.9192  219.0377 H   0  0  0  0  0  0  0  0  0  0  0  0
  144.9181   73.0840  218.0369 H   0  0  0  0  0  0  0  0  0  0  0  0
  144.2878   74.8014  220.5926 H   0  0  0  0  0  0  0  0  0  0  0  0
  144.4650   75.7797  218.2734 H   0  0  0  0  0  0  0  0  0  0  0  0
  142.9271   74.8839  217.9647 H   0  0  0  0  0  0  0  0  0  0  0  0
  143.8788   78.0133  218.9194 H   0  0  0  0  0  0  0  0  0  0  0  0
  142.7698   77.3511  217.6542 H   0  0  0  0  0  0  0  0  0  0  0  0
  143.0750   80.1221  219.5901 H   0  0  0  0  0  0  0  0  0  0  0  0
  141.2832   81.6073  220.3526 H   0  0  0  0  0  0  0  0  0  0  0  0
  138.9252   80.7867  220.4149 H   0  0  0  0  0  0  0  0  0  0  0  0
  138.4741   78.4638  219.6851 H   0  0  0  0  0  0  0  0  0  0  0  0
  140.2596   76.9664  218.9193 H   0  0  0  0  0  0  0  0  0  0  0  0
  138.0255   77.4015  222.8651 H   0  0  0  0  0  0  0  0  0  0  0  0
  138.5446   79.6836  223.7251 H   0  0  0  0  0  0  0  0  0  0  0  0
  140.1978   81.4276  224.2160 H   0  0  0  0  0  0  0  0  0  0  0  0
  144.3233   80.7061  223.3870 H   0  0  0  0  0  0  0  0  0  0  0  0
  143.7555   78.4417  222.5376 H   0  0  0  0  0  0  0  0  0  0  0  0
  1  2  2  0
  2  3  1  0
  3  4  1  0
  4  5  1  0
  5  6  2  0
  5  7  1  0
  7  8  1  0
  8  9  1  0
  9 10  1  0
  9 11  1  0
 11 12  1  0
 12 13  1  0
 13 14  1  0
 14 15  1  0
 15 16  1  0
 16 17  2  0
 17 18  1  0
 18 19  2  0
 19 20  1  0
 20 21  2  0
  2 22  1  0
 22 23  2  0
 23 24  1  0
 24 25  2  0
 25 26  1  0
 26 27  2  0
 27 28  1  0
 27 29  1  0
 29 30  2  0
 30 31  1  0
 31 32  2  0
 12  7  1  0
 21 16  1  0
 32 22  1  0
 31 25  1  0
  3 33  1  0
  4 34  1  0
  4 35  1  0
  8 36  1  0
  8 37  1  0
  9 38  1  6
 10 39  1  0
 11 40  1  0
 11 41  1  0
 12 42  1  1
 13 43  1  0
 13 44  1  0
 15 45  1  0
 15 46  1  0
 17 47  1  0
 18 48  1  0
 19 49  1  0
 20 50  1  0
 21 51  1  0
 23 52  1  0
 24 53  1  0
 26 54  1  0
 29 55  1  0
 30 56  1  0
M  END
>  <smiles>  (39) 
O=C(NCC(=O)N1C[C@H](O)C[C@H]1COCc1ccccc1)c1ccc2cc(F)ccc2n1

>  <score_type>  (39) 
oracle

>  <origin>  (39) 
autodockgpu

>  <m_score__min__energy>  (39) 
-9.4199999999999999

>  <m_primary>  (39) 
energy

>  <rmsd>  (39) 
7.920610212052708

>  <m_score__min__rmsd>  (39) 
7.920610212052708

>  <meeko>  (39) 
{"free_energy": -5.81, "intermolecular_energy": -8.5, "internal_energy": -4.08, "cluster_size": 6, "cluster_id": 8, "rank_in_cluster": 5}

>  <energy>  (39) 
-7.85

>  <cluster_rmsd>  (39) 
1.36

>  <cluster>  (39) 
4

$$$$

     RDKit          3D

 56 59  0  0  0  0  0  0  0  0999 V2000
  141.2740   72.7640  221.9230 O   0  0  0  0  0  0  0  0  0  0  0  0
  140.2150   72.5890  222.5850 C   0  0  0  0  0  0  0  0  0  0  0  0
  139.0660   73.3460  222.3000 N   0  0  0  0  0  0  0  0  0  0  0  0
  139.0990   74.3230  221.2500 C   0  0  0  0  0  0  0  0  0  0  0  0
  139.8160   75.5610  221.6550 C   0  0  0  0  0  0  0  0  0  0  0  0
  139.4800   76.1620  222.7260 O   0  0  0  0  0  0  0  0  0  0  0  0
  140.8610   76.0450  220.8380 N   0  0  0  0  0  0  0  0  0  0  0  0
  142.1790   75.4250  220.6270 C   0  0  0  0  0  0  0  0  0  0  0  0
  142.6130   75.8790  219.2460 C   0  0  2  0  0  0  0  0  0  0  0  0
  143.6960   76.7780  219.3370 O   0  0  0  0  0  0  0  0  0  0  0  0
  141.4130   76.6740  218.7230 C   0  0  0  0  0  0  0  0  0  0  0  0
  140.8910   77.2440  220.0250 C   0  0  1  0  0  0  0  0  0  0  0  0
  139.5330   77.8610  219.8420 C   0  0  0  0  0  0  0  0  0  0  0  0
  139.0030   78.2540  221.0590 O   0  0  0  0  0  0  0  0  0  0  0  0
  139.2390   79.6040  221.3210 C   0  0  0  0  0  0  0  0  0  0  0  0
  140.4640   79.7820  222.1420 C   0  0  0  0  0  0  0  0  0  0  0  0
  141.4300   80.7290  221.8690 C   0  0  0  0  0  0  0  0  0  0  0  0
  142.5670   80.8970  222.6280 C   0  0  0  0  0  0  0  0  0  0  0  0
  142.7830   80.0960  223.7230 C   0  0  0  0  0  0  0  0  0  0  0  0
  141.8250   79.1440  224.0080 C   0  0  0  0  0  0  0  0  0  0  0  0
  140.6860   78.9700  223.2540 C   0  0  0  0  0  0  0  0  0  0  0  0
  140.1370   71.5940  223.6740 C   0  0  0  0  0  0  0  0  0  0  0  0
  139.5760   70.3430  223.4700 C   0  0  0  0  0  0  0  0  0  0  0  0
  139.5230   69.4340  224.5310 C   0  0  0  0  0  0  0  0  0  0  0  0
  140.0190   69.7600  225.7790 C   0  0  0  0  0  0  0  0  0  0  0  0
  139.9880   68.8980  226.8520 C   0  0  0  0  0  0  0  0  0  0  0  0
  140.4890   69.2360  228.0970 C   0  0  0  0  0  0  0  0  0  0  0  0
  140.4560   68.3800  229.1540 F   0  0  0  0  0  0  0  0  0  0  0  0
  141.0340   70.4980  228.2300 C   0  0  0  0  0  0  0  0  0  0  0  0
  141.0770   71.3920  227.1610 C   0  0  0  0  0  0  0  0  0  0  0  0
  140.5660   71.0120  225.9340 C   0  0  0  0  0  0  0  0  0  0  0  0
  140.6070   71.8640  224.9100 N   0  0  0  0  0  0  0  0  0  0  0  0
  138.1840   73.2110  222.8400 H   0  0  0  0  0  0  0  0  0  0  0  0
  139.6088   73.8880  220.3777 H   0  0  0  0  0  0  0  0  0  0  0  0
  138.0606   74.5974  221.0122 H   0  0  0  0  0  0  0  0  0  0  0  0
  142.8939   75.7689  221.3889 H   0  0  0  0  0  0  0  0  0  0  0  0
  142.1360   74.3287  220.7058 H   0  0  0  0  0  0  0  0  0  0  0  0
  142.9127   75.0277  218.6171 H   0  0  0  0  0  0  0  0  0  0  0  0
  143.7470   77.2000  220.2320 H   0  0  0  0  0  0  0  0  0  0  0  0
  141.7206   77.4660  218.0244 H   0  0  0  0  0  0  0  0  0  0  0  0
  140.6824   76.0869  218.1472 H   0  0  0  0  0  0  0  0  0  0  0  0
  141.4876   78.0606  220.4579 H   0  0  0  0  0  0  0  0  0  0  0  0
  139.6217   78.7400  219.1867 H   0  0  0  0  0  0  0  0  0  0  0  0
  138.8640   77.1131  219.3914 H   0  0  0  0  0  0  0  0  0  0  0  0
  139.3642   80.1386  220.3678 H   0  0  0  0  0  0  0  0  0  0  0  0
  138.3816   80.0070  221.8799 H   0  0  0  0  0  0  0  0  0  0  0  0
  141.2840   81.3851  220.9982 H   0  0  0  0  0  0  0  0  0  0  0  0
  143.3006   81.6709  222.3580 H   0  0  0  0  0  0  0  0  0  0  0  0
  143.6820   80.2086  224.3467 H   0  0  0  0  0  0  0  0  0  0  0  0
  141.9790   78.4921  224.8805 H   0  0  0  0  0  0  0  0  0  0  0  0
  139.9551   78.1947  223.5273 H   0  0  0  0  0  0  0  0  0  0  0  0
  139.1763   70.0680  222.4828 H   0  0  0  0  0  0  0  0  0  0  0  0
  139.0783   68.4410  224.3694 H   0  0  0  0  0  0  0  0  0  0  0  0
  139.5470   67.8998  226.7141 H   0  0  0  0  0  0  0  0  0  0  0  0
  141.4442   70.8054  229.2033 H   0  0  0  0  0  0  0  0  0  0  0  0
  141.5144   72.3926  227.2930 H   0  0  0  0  0  0  0  0  0  0  0  0
  1  2  2  0
  2  3  1  0
  3  4  1  0
  4  5  1  0
  5  6  2  0
  5  7  1  0
  7  8  1  0
  8  9  1  0
  9 10  1  0
  9 11  1  0
 11 12  1  0
 12 13  1  0
 13 14  1  0
 14 15  1  0
 15 16  1  0
 16 17  2  0
 17 18  1  0
 18 19  2  0
 19 20  1  0
 20 21  2  0
  2 22  1  0
 22 23  2  0
 23 24  1  0
 24 25  2  0
 25 26  1  0
 26 27  2  0
 27 28  1  0
 27 29  1  0
 29 30  2  0
 30 31  1  0
 31 32  2  0
 12  7  1  0
 21 16  1  0
 32 22  1  0
 31 25  1  0
  3 33  1  0
  4 34  1  0
  4 35  1  0
  8 36  1  0
  8 37  1  0
  9 38  1  6
 10 39  1  0
 11 40  1  0
 11 41  1  0
 12 42  1  1
 13 43  1  0
 13 44  1  0
 15 45  1  0
 15 46  1  0
 17 47  1  0
 18 48  1  0
 19 49  1  0
 20 50  1  0
 21 51  1  0
 23 52  1  0
 24 53  1  0
 26 54  1  0
 29 55  1  0
 30 56  1  0
M  END
>  <smiles>  (40) 
O=C(NCC(=O)N1C[C@H](O)C[C@H]1COCc1ccccc1)c1ccc2cc(F)ccc2n1

>  <score_type>  (40) 
oracle

>  <origin>  (40) 
autodockgpu

>  <m_score__min__energy>  (40) 
-9.4199999999999999

>  <m_primary>  (40) 
energy

>  <rmsd>  (40) 
1.8615241913412708

>  <m_score__min__rmsd>  (40) 
1.8615241913412708

>  <meeko>  (40) 
{"free_energy": -8.65, "intermolecular_energy": -11.33, "internal_energy": -1.85, "cluster_size": 28, "cluster_id": 1, "rank_in_cluster": 14}

>  <energy>  (40) 
-7.71

>  <cluster_rmsd>  (40) 
0.59

>  <cluster>  (40) 
4

$$$$

     RDKit          3D

 56 59  0  0  0  0  0  0  0  0999 V2000
  140.9670   71.9720  221.0810 O   0  0  0  0  0  0  0  0  0  0  0  0
  140.4210   72.4300  222.1210 C   0  0  0  0  0  0  0  0  0  0  0  0
  140.0270   73.7770  222.1830 N   0  0  0  0  0  0  0  0  0  0  0  0
  140.2470   74.6360  221.0550 C   0  0  0  0  0  0  0  0  0  0  0  0
  140.8740   75.9260  221.4440 C   0  0  0  0  0  0  0  0  0  0  0  0
  140.9890   76.2260  222.6760 O   0  0  0  0  0  0  0  0  0  0  0  0
  141.3310   76.7980  220.4310 N   0  0  0  0  0  0  0  0  0  0  0  0
  142.6440   76.7710  219.7660 C   0  0  0  0  0  0  0  0  0  0  0  0
  142.4050   77.3660  218.3920 C   0  0  2  0  0  0  0  0  0  0  0  0
  143.0240   78.6290  218.2850 O   0  0  0  0  0  0  0  0  0  0  0  0
  140.8920   77.6040  218.3500 C   0  0  0  0  0  0  0  0  0  0  0  0
  140.6350   77.9070  219.8100 C   0  0  1  0  0  0  0  0  0  0  0  0
  139.1630   77.9160  220.1120 C   0  0  0  0  0  0  0  0  0  0  0  0
  138.8160   79.0400  220.8440 O   0  0  0  0  0  0  0  0  0  0  0  0
  139.0140   78.8560  222.2120 C   0  0  0  0  0  0  0  0  0  0  0  0
  140.3250   79.4090  222.6410 C   0  0  0  0  0  0  0  0  0  0  0  0
  140.9720   79.0170  223.7950 C   0  0  0  0  0  0  0  0  0  0  0  0
  142.1870   79.5270  224.1960 C   0  0  0  0  0  0  0  0  0  0  0  0
  142.8150   80.4800  223.4310 C   0  0  0  0  0  0  0  0  0  0  0  0
  142.1790   80.8810  222.2740 C   0  0  0  0  0  0  0  0  0  0  0  0
  140.9640   80.3750  221.8670 C   0  0  0  0  0  0  0  0  0  0  0  0
  140.1760   71.5820  223.3060 C   0  0  0  0  0  0  0  0  0  0  0  0
  139.4260   70.4190  223.2170 C   0  0  0  0  0  0  0  0  0  0  0  0
  139.2190   69.6480  224.3650 C   0  0  0  0  0  0  0  0  0  0  0  0
  139.7490   70.0230  225.5860 C   0  0  0  0  0  0  0  0  0  0  0  0
  139.5720   69.2950  226.7410 C   0  0  0  0  0  0  0  0  0  0  0  0
  140.1090   69.6800  227.9570 C   0  0  0  0  0  0  0  0  0  0  0  0
  139.9300   68.9580  229.0950 F   0  0  0  0  0  0  0  0  0  0  0  0
  140.8450   70.8490  227.9720 C   0  0  0  0  0  0  0  0  0  0  0  0
  141.0400   71.6060  226.8180 C   0  0  0  0  0  0  0  0  0  0  0  0
  140.4870   71.1830  225.6240 C   0  0  0  0  0  0  0  0  0  0  0  0
  140.6720   71.9040  224.5190 N   0  0  0  0  0  0  0  0  0  0  0  0
  139.5740   74.1680  223.0370 H   0  0  0  0  0  0  0  0  0  0  0  0
  140.9083   74.1218  220.3421 H   0  0  0  0  0  0  0  0  0  0  0  0
  139.2683   74.8590  220.6051 H   0  0  0  0  0  0  0  0  0  0  0  0
  143.3729   77.3747  220.3265 H   0  0  0  0  0  0  0  0  0  0  0  0
  143.0548   75.7523  219.7075 H   0  0  0  0  0  0  0  0  0  0  0  0
  142.7927   76.7133  217.5959 H   0  0  0  0  0  0  0  0  0  0  0  0
  143.5950   78.6890  217.4770 H   0  0  0  0  0  0  0  0  0  0  0  0
  140.6301   78.4549  217.7039 H   0  0  0  0  0  0  0  0  0  0  0  0
  140.3026   76.7716  217.9381 H   0  0  0  0  0  0  0  0  0  0  0  0
  140.9741   78.8948  220.1553 H   0  0  0  0  0  0  0  0  0  0  0  0
  138.6012   77.9143  219.1663 H   0  0  0  0  0  0  0  0  0  0  0  0
  138.9200   77.0216  220.7044 H   0  0  0  0  0  0  0  0  0  0  0  0
  138.2107   79.3667  222.7633 H   0  0  0  0  0  0  0  0  0  0  0  0
  139.0030   77.7769  222.4250 H   0  0  0  0  0  0  0  0  0  0  0  0
  140.4918   78.2566  224.4285 H   0  0  0  0  0  0  0  0  0  0  0  0
  142.6536   79.1721  225.1268 H   0  0  0  0  0  0  0  0  0  0  0  0
  143.7847   80.9057  223.7286 H   0  0  0  0  0  0  0  0  0  0  0  0
  142.6658   81.6417  221.6461 H   0  0  0  0  0  0  0  0  0  0  0  0
  140.5007   80.7320  220.9354 H   0  0  0  0  0  0  0  0  0  0  0  0
  138.9982   70.1062  222.2531 H   0  0  0  0  0  0  0  0  0  0  0  0
  138.6234   68.7258  224.2956 H   0  0  0  0  0  0  0  0  0  0  0  0
  138.9795   68.3693  226.6954 H   0  0  0  0  0  0  0  0  0  0  0  0
  141.2884   71.1911  228.9187 H   0  0  0  0  0  0  0  0  0  0  0  0
  141.6299   72.5336  226.8572 H   0  0  0  0  0  0  0  0  0  0  0  0
  1  2  2  0
  2  3  1  0
  3  4  1  0
  4  5  1  0
  5  6  2  0
  5  7  1  0
  7  8  1  0
  8  9  1  0
  9 10  1  0
  9 11  1  0
 11 12  1  0
 12 13  1  0
 13 14  1  0
 14 15  1  0
 15 16  1  0
 16 17  2  0
 17 18  1  0
 18 19  2  0
 19 20  1  0
 20 21  2  0
  2 22  1  0
 22 23  2  0
 23 24  1  0
 24 25  2  0
 25 26  1  0
 26 27  2  0
 27 28  1  0
 27 29  1  0
 29 30  2  0
 30 31  1  0
 31 32  2  0
 12  7  1  0
 21 16  1  0
 32 22  1  0
 31 25  1  0
  3 33  1  0
  4 34  1  0
  4 35  1  0
  8 36  1  0
  8 37  1  0
  9 38  1  6
 10 39  1  0
 11 40  1  0
 11 41  1  0
 12 42  1  1
 13 43  1  0
 13 44  1  0
 15 45  1  0
 15 46  1  0
 17 47  1  0
 18 48  1  0
 19 49  1  0
 20 50  1  0
 21 51  1  0
 23 52  1  0
 24 53  1  0
 26 54  1  0
 29 55  1  0
 30 56  1  0
M  END
>  <smiles>  (41) 
O=C(NCC(=O)N1C[C@H](O)C[C@H]1COCc1ccccc1)c1ccc2cc(F)ccc2n1

>  <score_type>  (41) 
oracle

>  <origin>  (41) 
autodockgpu

>  <m_score__min__energy>  (41) 
-9.4199999999999999

>  <m_primary>  (41) 
energy

>  <rmsd>  (41) 
2.073440629415648

>  <m_score__min__rmsd>  (41) 
2.073440629415648

>  <meeko>  (41) 
{"free_energy": -8.27, "intermolecular_energy": -10.96, "internal_energy": -2.12, "cluster_size": 7, "cluster_id": 3, "rank_in_cluster": 4}

>  <energy>  (41) 
-7.8

>  <cluster_rmsd>  (41) 
0.0

>  <cluster>  (41) 
5

$$$$

     RDKit          3D

 56 59  0  0  0  0  0  0  0  0999 V2000
  138.8430   71.0730  221.0440 O   0  0  0  0  0  0  0  0  0  0  0  0
  139.1510   71.6250  222.1350 C   0  0  0  0  0  0  0  0  0  0  0  0
  139.2800   73.0220  222.2130 N   0  0  0  0  0  0  0  0  0  0  0  0
  139.0610   73.8240  221.0440 C   0  0  0  0  0  0  0  0  0  0  0  0
  140.0780   73.5740  219.9900 C   0  0  0  0  0  0  0  0  0  0  0  0
  139.7070   73.3870  218.7870 O   0  0  0  0  0  0  0  0  0  0  0  0
  141.4440   73.5490  220.3490 N   0  0  0  0  0  0  0  0  0  0  0  0
  142.3690   72.4090  220.2360 C   0  0  0  0  0  0  0  0  0  0  0  0
  143.7420   73.0280  220.0700 C   0  0  2  0  0  0  0  0  0  0  0  0
  144.5290   72.8060  221.2190 O   0  0  0  0  0  0  0  0  0  0  0  0
  143.4640   74.5330  220.0010 C   0  0  0  0  0  0  0  0  0  0  0  0
  142.2520   74.6160  220.9040 C   0  0  1  0  0  0  0  0  0  0  0  0
  141.5920   75.9620  220.8050 C   0  0  0  0  0  0  0  0  0  0  0  0
  140.7080   76.1550  221.8540 O   0  0  0  0  0  0  0  0  0  0  0  0
  140.0400   77.3760  221.7560 C   0  0  0  0  0  0  0  0  0  0  0  0
  140.9260   78.5030  222.1460 C   0  0  0  0  0  0  0  0  0  0  0  0
  141.4470   78.6530  223.4150 C   0  0  0  0  0  0  0  0  0  0  0  0
  142.2700   79.6960  223.7810 C   0  0  0  0  0  0  0  0  0  0  0  0
  142.6090   80.6550  222.8580 C   0  0  0  0  0  0  0  0  0  0  0  0
  142.0950   80.5170  221.5850 C   0  0  0  0  0  0  0  0  0  0  0  0
  141.2720   79.4770  221.2120 C   0  0  0  0  0  0  0  0  0  0  0  0
  139.3870   70.8380  223.3630 C   0  0  0  0  0  0  0  0  0  0  0  0
  139.0130   69.5050  223.4480 C   0  0  0  0  0  0  0  0  0  0  0  0
  139.2550   68.8000  224.6300 C   0  0  0  0  0  0  0  0  0  0  0  0
  139.8600   69.4060  225.7160 C   0  0  0  0  0  0  0  0  0  0  0  0
  140.1180   68.7510  226.8990 C   0  0  0  0  0  0  0  0  0  0  0  0
  140.7250   69.3680  227.9780 C   0  0  0  0  0  0  0  0  0  0  0  0
  140.9770   68.7160  229.1450 F   0  0  0  0  0  0  0  0  0  0  0  0
  141.0710   70.6970  227.8240 C   0  0  0  0  0  0  0  0  0  0  0  0
  140.8210   71.3850  226.6380 C   0  0  0  0  0  0  0  0  0  0  0  0
  140.2130   70.7280  225.5840 C   0  0  0  0  0  0  0  0  0  0  0  0
  139.9740   71.3830  224.4490 N   0  0  0  0  0  0  0  0  0  0  0  0
  139.5350   73.4910  223.1100 H   0  0  0  0  0  0  0  0  0  0  0  0
  138.0656   73.5920  220.6373 H   0  0  0  0  0  0  0  0  0  0  0  0
  139.1373   74.8803  221.3414 H   0  0  0  0  0  0  0  0  0  0  0  0
  142.3319   71.7903  221.1447 H   0  0  0  0  0  0  0  0  0  0  0  0
  142.1098   71.7505  219.3938 H   0  0  0  0  0  0  0  0  0  0  0  0
  144.2679   72.6145  219.1968 H   0  0  0  0  0  0  0  0  0  0  0  0
  144.8730   71.8780  221.2530 H   0  0  0  0  0  0  0  0  0  0  0  0
  144.3063   75.1224  220.3924 H   0  0  0  0  0  0  0  0  0  0  0  0
  143.3151   74.9314  218.9866 H   0  0  0  0  0  0  0  0  0  0  0  0
  142.4540   74.5083  221.9799 H   0  0  0  0  0  0  0  0  0  0  0  0
  142.3638   76.7452  220.8351 H   0  0  0  0  0  0  0  0  0  0  0  0
  141.0327   76.0116  219.8591 H   0  0  0  0  0  0  0  0  0  0  0  0
  139.7090   77.5221  220.7172 H   0  0  0  0  0  0  0  0  0  0  0  0
  139.1770   77.3579  222.4378 H   0  0  0  0  0  0  0  0  0  0  0  0
  141.1918   77.8998  224.1750 H   0  0  0  0  0  0  0  0  0  0  0  0
  142.6544   79.7603  224.8096 H   0  0  0  0  0  0  0  0  0  0  0  0
  143.2635   81.4985  223.1228 H   0  0  0  0  0  0  0  0  0  0  0  0
  142.3551   81.2745  220.8310 H   0  0  0  0  0  0  0  0  0  0  0  0
  140.8901   79.4160  220.1822 H   0  0  0  0  0  0  0  0  0  0  0  0
  138.5307   69.0078  222.5935 H   0  0  0  0  0  0  0  0  0  0  0  0
  138.9586   67.7429  224.6980 H   0  0  0  0  0  0  0  0  0  0  0  0
  139.8296   67.6934  226.9900 H   0  0  0  0  0  0  0  0  0  0  0  0
  141.5558   71.2251  228.6583 H   0  0  0  0  0  0  0  0  0  0  0  0
  141.1053   72.4432  226.5410 H   0  0  0  0  0  0  0  0  0  0  0  0
  1  2  2  0
  2  3  1  0
  3  4  1  0
  4  5  1  0
  5  6  2  0
  5  7  1  0
  7  8  1  0
  8  9  1  0
  9 10  1  0
  9 11  1  0
 11 12  1  0
 12 13  1  0
 13 14  1  0
 14 15  1  0
 15 16  1  0
 16 17  2  0
 17 18  1  0
 18 19  2  0
 19 20  1  0
 20 21  2  0
  2 22  1  0
 22 23  2  0
 23 24  1  0
 24 25  2  0
 25 26  1  0
 26 27  2  0
 27 28  1  0
 27 29  1  0
 29 30  2  0
 30 31  1  0
 31 32  2  0
 12  7  1  0
 21 16  1  0
 32 22  1  0
 31 25  1  0
  3 33  1  0
  4 34  1  0
  4 35  1  0
  8 36  1  0
  8 37  1  0
  9 38  1  6
 10 39  1  0
 11 40  1  0
 11 41  1  0
 12 42  1  1
 13 43  1  0
 13 44  1  0
 15 45  1  0
 15 46  1  0
 17 47  1  0
 18 48  1  0
 19 49  1  0
 20 50  1  0
 21 51  1  0
 23 52  1  0
 24 53  1  0
 26 54  1  0
 29 55  1  0
 30 56  1  0
M  END
>  <smiles>  (42) 
O=C(NCC(=O)N1C[C@H](O)C[C@H]1COCc1ccccc1)c1ccc2cc(F)ccc2n1

>  <score_type>  (42) 
oracle

>  <origin>  (42) 
autodockgpu

>  <m_score__min__energy>  (42) 
-9.4199999999999999

>  <m_primary>  (42) 
energy

>  <rmsd>  (42) 
2.506435586327263

>  <m_score__min__rmsd>  (42) 
2.506435586327263

>  <meeko>  (42) 
{"free_energy": -8.19, "intermolecular_energy": -10.87, "internal_energy": -1.9, "cluster_size": 28, "cluster_id": 1, "rank_in_cluster": 22}

>  <energy>  (42) 
-7.77

>  <cluster_rmsd>  (42) 
0.0

>  <cluster>  (42) 
6

$$$$

     RDKit          3D

 56 59  0  0  0  0  0  0  0  0999 V2000
  134.6680   67.8540  224.4690 O   0  0  0  0  0  0  0  0  0  0  0  0
  134.8430   69.0610  224.1480 C   0  0  0  0  0  0  0  0  0  0  0  0
  135.5700   69.3920  222.9930 N   0  0  0  0  0  0  0  0  0  0  0  0
  136.1160   68.3490  222.1720 C   0  0  0  0  0  0  0  0  0  0  0  0
  137.5950   68.4430  222.0520 C   0  0  0  0  0  0  0  0  0  0  0  0
  138.2410   67.5090  221.4760 O   0  0  0  0  0  0  0  0  0  0  0  0
  138.2540   69.5730  222.5830 N   0  0  0  0  0  0  0  0  0  0  0  0
  138.5890   70.8180  221.8720 C   0  0  0  0  0  0  0  0  0  0  0  0
  138.6200   71.8900  222.9440 C   0  0  2  0  0  0  0  0  0  0  0  0
  139.9400   72.3400  223.1570 O   0  0  0  0  0  0  0  0  0  0  0  0
  138.1870   71.1550  224.2160 C   0  0  0  0  0  0  0  0  0  0  0  0
  138.7530   69.7800  223.9280 C   0  0  1  0  0  0  0  0  0  0  0  0
  138.2360   68.7640  224.9060 C   0  0  0  0  0  0  0  0  0  0  0  0
  139.2720   68.0020  225.4200 O   0  0  0  0  0  0  0  0  0  0  0  0
  139.4750   68.2430  226.7790 C   0  0  0  0  0  0  0  0  0  0  0  0
  140.0700   69.5860  227.0000 C   0  0  0  0  0  0  0  0  0  0  0  0
  139.8170   70.3530  228.1190 C   0  0  0  0  0  0  0  0  0  0  0  0
  140.3670   71.5990  228.3280 C   0  0  0  0  0  0  0  0  0  0  0  0
  141.2160   72.1370  227.3920 C   0  0  0  0  0  0  0  0  0  0  0  0
  141.4780   71.3810  226.2680 C   0  0  0  0  0  0  0  0  0  0  0  0
  140.9320   70.1350  226.0520 C   0  0  0  0  0  0  0  0  0  0  0  0
  134.2990   70.1660  224.9640 C   0  0  0  0  0  0  0  0  0  0  0  0
  133.4550   69.9220  226.0360 C   0  0  0  0  0  0  0  0  0  0  0  0
  132.9630   70.9990  226.7800 C   0  0  0  0  0  0  0  0  0  0  0  0
  133.3040   72.3020  226.4660 C   0  0  0  0  0  0  0  0  0  0  0  0
  132.8450   73.3930  227.1700 C   0  0  0  0  0  0  0  0  0  0  0  0
  133.1940   74.6920  226.8470 C   0  0  0  0  0  0  0  0  0  0  0  0
  132.7370   75.7660  227.5460 F   0  0  0  0  0  0  0  0  0  0  0  0
  134.0390   74.8610  225.7680 C   0  0  0  0  0  0  0  0  0  0  0  0
  134.5190   73.7760  225.0370 C   0  0  0  0  0  0  0  0  0  0  0  0
  134.1450   72.4940  225.3950 C   0  0  0  0  0  0  0  0  0  0  0  0
  134.6020   71.4540  224.6990 N   0  0  0  0  0  0  0  0  0  0  0  0
  135.7230   70.3860  222.7170 H   0  0  0  0  0  0  0  0  0  0  0  0
  135.8580   67.3766  222.6169 H   0  0  0  0  0  0  0  0  0  0  0  0
  135.6886   68.4548  221.1640 H   0  0  0  0  0  0  0  0  0  0  0  0
  139.5710   70.7316  221.3840 H   0  0  0  0  0  0  0  0  0  0  0  0
  137.8613   71.0485  221.0800 H   0  0  0  0  0  0  0  0  0  0  0  0
  137.9923   72.7513  222.6716 H   0  0  0  0  0  0  0  0  0  0  0  0
  139.9740   73.0690  223.8270 H   0  0  0  0  0  0  0  0  0  0  0  0
  138.6337   71.6002  225.1173 H   0  0  0  0  0  0  0  0  0  0  0  0
  137.1065   71.1786  224.4208 H   0  0  0  0  0  0  0  0  0  0  0  0
  139.8456   69.6889  224.0171 H   0  0  0  0  0  0  0  0  0  0  0  0
  137.7277   69.2843  225.7312 H   0  0  0  0  0  0  0  0  0  0  0  0
  137.5348   68.0972  224.3829 H   0  0  0  0  0  0  0  0  0  0  0  0
  138.5090   68.1874  227.3021 H   0  0  0  0  0  0  0  0  0  0  0  0
  140.1695   67.4843  227.1689 H   0  0  0  0  0  0  0  0  0  0  0  0
  139.1398   69.9479  228.8854 H   0  0  0  0  0  0  0  0  0  0  0  0
  140.1267   72.1614  229.2423 H   0  0  0  0  0  0  0  0  0  0  0  0
  141.6684   73.1297  227.5327 H   0  0  0  0  0  0  0  0  0  0  0  0
  142.1564   71.7937  225.5068 H   0  0  0  0  0  0  0  0  0  0  0  0
  141.1749   69.5761  225.1362 H   0  0  0  0  0  0  0  0  0  0  0  0
  133.1749   68.8913  226.2990 H   0  0  0  0  0  0  0  0  0  0  0  0
  132.2925   70.8063  227.6305 H   0  0  0  0  0  0  0  0  0  0  0  0
  132.1731   73.2245  228.0245 H   0  0  0  0  0  0  0  0  0  0  0  0
  134.3410   75.8782  225.4780 H   0  0  0  0  0  0  0  0  0  0  0  0
  135.1907   73.9384  224.1812 H   0  0  0  0  0  0  0  0  0  0  0  0
  1  2  2  0
  2  3  1  0
  3  4  1  0
  4  5  1  0
  5  6  2  0
  5  7  1  0
  7  8  1  0
  8  9  1  0
  9 10  1  0
  9 11  1  0
 11 12  1  0
 12 13  1  0
 13 14  1  0
 14 15  1  0
 15 16  1  0
 16 17  2  0
 17 18  1  0
 18 19  2  0
 19 20  1  0
 20 21  2  0
  2 22  1  0
 22 23  2  0
 23 24  1  0
 24 25  2  0
 25 26  1  0
 26 27  2  0
 27 28  1  0
 27 29  1  0
 29 30  2  0
 30 31  1  0
 31 32  2  0
 12  7  1  0
 21 16  1  0
 32 22  1  0
 31 25  1  0
  3 33  1  0
  4 34  1  0
  4 35  1  0
  8 36  1  0
  8 37  1  0
  9 38  1  6
 10 39  1  0
 11 40  1  0
 11 41  1  0
 12 42  1  6
 13 43  1  0
 13 44  1  0
 15 45  1  0
 15 46  1  0
 17 47  1  0
 18 48  1  0
 19 49  1  0
 20 50  1  0
 21 51  1  0
 23 52  1  0
 24 53  1  0
 26 54  1  0
 29 55  1  0
 30 56  1  0
M  END
>  <smiles>  (43) 
O=C(NCC(=O)N1C[C@H](O)C[C@H]1COCc1ccccc1)c1ccc2cc(F)ccc2n1

>  <score_type>  (43) 
oracle

>  <origin>  (43) 
autodockgpu

>  <m_score__min__energy>  (43) 
-9.4199999999999999

>  <m_primary>  (43) 
energy

>  <rmsd>  (43) 
7.315605515496436

>  <m_score__min__rmsd>  (43) 
7.315605515496436

>  <meeko>  (43) 
{"free_energy": -7.77, "intermolecular_energy": -10.46, "internal_energy": -2.47, "cluster_size": 1, "cluster_id": 6, "rank_in_cluster": 1}

>  <energy>  (43) 
-7.54

>  <cluster_rmsd>  (43) 
0.0

>  <cluster>  (43) 
7

$$$$

     RDKit          3D

 56 59  0  0  0  0  0  0  0  0999 V2000
  141.2910   72.0490  221.5980 O   0  0  0  0  0  0  0  0  0  0  0  0
  140.3760   72.1950  222.4540 C   0  0  0  0  0  0  0  0  0  0  0  0
  139.4810   73.2730  222.3620 N   0  0  0  0  0  0  0  0  0  0  0  0
  139.6080   74.2140  221.2860 C   0  0  0  0  0  0  0  0  0  0  0  0
  139.1920   75.5840  221.6840 C   0  0  0  0  0  0  0  0  0  0  0  0
  138.1900   75.7410  222.4530 O   0  0  0  0  0  0  0  0  0  0  0  0
  139.9240   76.6900  221.1970 N   0  0  0  0  0  0  0  0  0  0  0  0
  141.1870   76.6520  220.4420 C   0  0  0  0  0  0  0  0  0  0  0  0
  141.1840   77.9140  219.6010 C   0  0  2  0  0  0  0  0  0  0  0  0
  142.1600   78.8200  220.0630 O   0  0  0  0  0  0  0  0  0  0  0  0
  139.8170   78.5440  219.8860 C   0  0  0  0  0  0  0  0  0  0  0  0
  139.6190   78.1010  221.3190 C   0  0  1  0  0  0  0  0  0  0  0  0
  138.2110   78.3570  221.7770 C   0  0  0  0  0  0  0  0  0  0  0  0
  138.1220   79.5670  222.4470 O   0  0  0  0  0  0  0  0  0  0  0  0
  138.8020   79.5420  223.6640 C   0  0  0  0  0  0  0  0  0  0  0  0
  140.2100   79.9850  223.4980 C   0  0  0  0  0  0  0  0  0  0  0  0
  140.5620   81.2190  222.9900 C   0  0  0  0  0  0  0  0  0  0  0  0
  141.8660   81.6350  222.8350 C   0  0  0  0  0  0  0  0  0  0  0  0
  142.8970   80.8000  223.1950 C   0  0  0  0  0  0  0  0  0  0  0  0
  142.5590   79.5630  223.7040 C   0  0  0  0  0  0  0  0  0  0  0  0
  141.2580   79.1410  223.8620 C   0  0  0  0  0  0  0  0  0  0  0  0
  140.2100   71.2510  223.5780 C   0  0  0  0  0  0  0  0  0  0  0  0
  139.5800   70.0280  223.4060 C   0  0  0  0  0  0  0  0  0  0  0  0
  139.4440   69.1670  224.4990 C   0  0  0  0  0  0  0  0  0  0  0  0
  139.9260   69.5120  225.7480 C   0  0  0  0  0  0  0  0  0  0  0  0
  139.8150   68.6960  226.8510 C   0  0  0  0  0  0  0  0  0  0  0  0
  140.3030   69.0530  228.0960 C   0  0  0  0  0  0  0  0  0  0  0  0
  140.1900   68.2440  229.1830 F   0  0  0  0  0  0  0  0  0  0  0  0
  140.9190   70.2850  228.1960 C   0  0  0  0  0  0  0  0  0  0  0  0
  141.0450   71.1320  227.0960 C   0  0  0  0  0  0  0  0  0  0  0  0
  140.5440   70.7340  225.8700 C   0  0  0  0  0  0  0  0  0  0  0  0
  140.6630   71.5410  224.8160 N   0  0  0  0  0  0  0  0  0  0  0  0
  138.7210   73.4050  223.0630 H   0  0  0  0  0  0  0  0  0  0  0  0
  140.6592   74.2430  220.9634 H   0  0  0  0  0  0  0  0  0  0  0  0
  138.9471   73.8847  220.4707 H   0  0  0  0  0  0  0  0  0  0  0  0
  142.0468   76.6474  221.1281 H   0  0  0  0  0  0  0  0  0  0  0  0
  141.2702   75.7457  219.8241 H   0  0  0  0  0  0  0  0  0  0  0  0
  141.3804   77.6939  218.5413 H   0  0  0  0  0  0  0  0  0  0  0  0
  142.9270   78.3510  220.4800 H   0  0  0  0  0  0  0  0  0  0  0  0
  139.8459   79.6401  219.7976 H   0  0  0  0  0  0  0  0  0  0  0  0
  139.0157   78.2466  219.1936 H   0  0  0  0  0  0  0  0  0  0  0  0
  140.2317   78.6264  222.0664 H   0  0  0  0  0  0  0  0  0  0  0  0
  137.5459   78.3803  220.9012 H   0  0  0  0  0  0  0  0  0  0  0  0
  137.9126   77.5515  222.4642 H   0  0  0  0  0  0  0  0  0  0  0  0
  138.2952   80.2134  224.3728 H   0  0  0  0  0  0  0  0  0  0  0  0
  138.8026   78.5094  224.0432 H   0  0  0  0  0  0  0  0  0  0  0  0
  139.7575   81.9078  222.6927 H   0  0  0  0  0  0  0  0  0  0  0  0
  142.0817   82.6324  222.4244 H   0  0  0  0  0  0  0  0  0  0  0  0
  143.9477   81.1054  223.0820 H   0  0  0  0  0  0  0  0  0  0  0  0
  143.3694   78.8798  223.9983 H   0  0  0  0  0  0  0  0  0  0  0  0
  141.0467   78.1429  224.2734 H   0  0  0  0  0  0  0  0  0  0  0  0
  139.1909   69.7379  222.4189 H   0  0  0  0  0  0  0  0  0  0  0  0
  138.9440   68.1967  224.3626 H   0  0  0  0  0  0  0  0  0  0  0  0
  139.3185   67.7209  226.7384 H   0  0  0  0  0  0  0  0  0  0  0  0
  141.3205   70.6061  229.1685 H   0  0  0  0  0  0  0  0  0  0  0  0
  141.5389   72.1091  227.2023 H   0  0  0  0  0  0  0  0  0  0  0  0
  1  2  2  0
  2  3  1  0
  3  4  1  0
  4  5  1  0
  5  6  2  0
  5  7  1  0
  7  8  1  0
  8  9  1  0
  9 10  1  0
  9 11  1  0
 11 12  1  0
 12 13  1  0
 13 14  1  0
 14 15  1  0
 15 16  1  0
 16 17  2  0
 17 18  1  0
 18 19  2  0
 19 20  1  0
 20 21  2  0
  2 22  1  0
 22 23  2  0
 23 24  1  0
 24 25  2  0
 25 26  1  0
 26 27  2  0
 27 28  1  0
 27 29  1  0
 29 30  2  0
 30 31  1  0
 31 32  2  0
 12  7  1  0
 21 16  1  0
 32 22  1  0
 31 25  1  0
  3 33  1  0
  4 34  1  0
  4 35  1  0
  8 36  1  0
  8 37  1  0
  9 38  1  6
 10 39  1  0
 11 40  1  0
 11 41  1  0
 12 42  1  1
 13 43  1  0
 13 44  1  0
 15 45  1  0
 15 46  1  0
 17 47  1  0
 18 48  1  0
 19 49  1  0
 20 50  1  0
 21 51  1  0
 23 52  1  0
 24 53  1  0
 26 54  1  0
 29 55  1  0
 30 56  1  0
M  END
>  <smiles>  (44) 
O=C(NCC(=O)N1C[C@H](O)C[C@H]1COCc1ccccc1)c1ccc2cc(F)ccc2n1

>  <score_type>  (44) 
oracle

>  <origin>  (44) 
autodockgpu

>  <m_score__min__energy>  (44) 
-9.4199999999999999

>  <m_primary>  (44) 
energy

>  <rmsd>  (44) 
1.9875216741876267

>  <m_score__min__rmsd>  (44) 
1.9875216741876267

>  <meeko>  (44) 
{"free_energy": -8.37, "intermolecular_energy": -11.05, "internal_energy": -1.83, "cluster_size": 7, "cluster_id": 3, "rank_in_cluster": 1}

>  <energy>  (44) 
-6.09

>  <cluster_rmsd>  (44) 
0.0

>  <cluster>  (44) 
8

$$$$

     RDKit          3D

 56 59  0  0  0  0  0  0  0  0999 V2000
  138.4970   75.6390  221.9240 O   0  0  0  0  0  0  0  0  0  0  0  0
  139.6670   76.1040  221.8410 C   0  0  0  0  0  0  0  0  0  0  0  0
  140.6730   75.3830  221.1760 N   0  0  0  0  0  0  0  0  0  0  0  0
  140.3670   74.1110  220.5890 C   0  0  0  0  0  0  0  0  0  0  0  0
  141.4190   73.6610  219.6390 C   0  0  0  0  0  0  0  0  0  0  0  0
  141.1010   73.3450  218.4480 O   0  0  0  0  0  0  0  0  0  0  0  0
  142.7580   73.5950  220.0830 N   0  0  0  0  0  0  0  0  0  0  0  0
  143.3970   72.4850  220.8100 C   0  0  0  0  0  0  0  0  0  0  0  0
  144.8670   72.5680  220.4460 C   0  0  2  0  0  0  0  0  0  0  0  0
  145.6310   72.9700  221.5610 O   0  0  0  0  0  0  0  0  0  0  0  0
  144.9320   73.7060  219.4230 C   0  0  0  0  0  0  0  0  0  0  0  0
  143.8090   74.5820  219.9360 C   0  0  1  0  0  0  0  0  0  0  0  0
  143.4650   75.6590  218.9470 C   0  0  0  0  0  0  0  0  0  0  0  0
  142.8670   76.7370  219.5790 O   0  0  0  0  0  0  0  0  0  0  0  0
  142.7950   77.8560  218.7500 C   0  0  0  0  0  0  0  0  0  0  0  0
  141.8210   78.8480  219.2740 C   0  0  0  0  0  0  0  0  0  0  0  0
  142.1800   80.1090  219.7030 C   0  0  0  0  0  0  0  0  0  0  0  0
  141.2790   81.0320  220.1890 C   0  0  0  0  0  0  0  0  0  0  0  0
  139.9460   80.7110  220.2660 C   0  0  0  0  0  0  0  0  0  0  0  0
  139.5730   79.4520  219.8410 C   0  0  0  0  0  0  0  0  0  0  0  0
  140.4680   78.5250  219.3530 C   0  0  0  0  0  0  0  0  0  0  0  0
  140.0260   77.4100  222.4320 C   0  0  0  0  0  0  0  0  0  0  0  0
  139.0630   78.2400  222.9850 C   0  0  0  0  0  0  0  0  0  0  0  0
  139.4480   79.4670  223.5320 C   0  0  0  0  0  0  0  0  0  0  0  0
  140.7720   79.8680  223.5320 C   0  0  0  0  0  0  0  0  0  0  0  0
  141.1970   81.0660  224.0600 C   0  0  0  0  0  0  0  0  0  0  0  0
  142.5250   81.4560  224.0540 C   0  0  0  0  0  0  0  0  0  0  0  0
  142.9400   82.6410  224.5770 F   0  0  0  0  0  0  0  0  0  0  0  0
  143.4300   80.5800  223.4880 C   0  0  0  0  0  0  0  0  0  0  0  0
  143.0280   79.3610  222.9460 C   0  0  0  0  0  0  0  0  0  0  0  0
  141.6910   79.0110  222.9730 C   0  0  0  0  0  0  0  0  0  0  0  0
  141.3030   77.8460  222.4570 N   0  0  0  0  0  0  0  0  0  0  0  0
  141.6440   75.7560  221.1010 H   0  0  0  0  0  0  0  0  0  0  0  0
  140.2720   73.3646  221.3914 H   0  0  0  0  0  0  0  0  0  0  0  0
  139.4278   74.2169  220.0262 H   0  0  0  0  0  0  0  0  0  0  0  0
  143.2605   72.6047  221.8949 H   0  0  0  0  0  0  0  0  0  0  0  0
  142.9605   71.5115  220.5419 H   0  0  0  0  0  0  0  0  0  0  0  0
  145.2493   71.6015  220.0858 H   0  0  0  0  0  0  0  0  0  0  0  0
  145.9580   72.1930  222.0810 H   0  0  0  0  0  0  0  0  0  0  0  0
  145.9011   74.2258  219.4510 H   0  0  0  0  0  0  0  0  0  0  0  0
  144.8337   73.3926  218.3732 H   0  0  0  0  0  0  0  0  0  0  0  0
  144.0276   75.1406  220.8581 H   0  0  0  0  0  0  0  0  0  0  0  0
  144.3854   75.9984  218.4493 H   0  0  0  0  0  0  0  0  0  0  0  0
  142.7594   75.2476  218.2102 H   0  0  0  0  0  0  0  0  0  0  0  0
  143.7886   78.3244  218.6916 H   0  0  0  0  0  0  0  0  0  0  0  0
  142.4613   77.5316  217.7533 H   0  0  0  0  0  0  0  0  0  0  0  0
  143.2416   80.3930  219.6547 H   0  0  0  0  0  0  0  0  0  0  0  0
  141.6269   82.0235  220.5144 H   0  0  0  0  0  0  0  0  0  0  0  0
  139.2058   81.4280  220.6507 H   0  0  0  0  0  0  0  0  0  0  0  0
  138.5097   79.1752  219.8945 H   0  0  0  0  0  0  0  0  0  0  0  0
  140.1161   77.5350  219.0274 H   0  0  0  0  0  0  0  0  0  0  0  0
  138.0060   77.9356  222.9931 H   0  0  0  0  0  0  0  0  0  0  0  0
  138.6843   80.1260  223.9706 H   0  0  0  0  0  0  0  0  0  0  0  0
  140.4509   81.7409  224.5048 H   0  0  0  0  0  0  0  0  0  0  0  0
  144.4957   80.8515  223.4644 H   0  0  0  0  0  0  0  0  0  0  0  0
  143.7694   78.6819  222.4997 H   0  0  0  0  0  0  0  0  0  0  0  0
  1  2  2  0
  2  3  1  0
  3  4  1  0
  4  5  1  0
  5  6  2  0
  5  7  1  0
  7  8  1  0
  8  9  1  0
  9 10  1  0
  9 11  1  0
 11 12  1  0
 12 13  1  0
 13 14  1  0
 14 15  1  0
 15 16  1  0
 16 17  2  0
 17 18  1  0
 18 19  2  0
 19 20  1  0
 20 21  2  0
  2 22  1  0
 22 23  2  0
 23 24  1  0
 24 25  2  0
 25 26  1  0
 26 27  2  0
 27 28  1  0
 27 29  1  0
 29 30  2  0
 30 31  1  0
 31 32  2  0
 12  7  1  0
 21 16  1  0
 32 22  1  0
 31 25  1  0
  3 33  1  0
  4 34  1  0
  4 35  1  0
  8 36  1  0
  8 37  1  0
  9 38  1  6
 10 39  1  0
 11 40  1  0
 11 41  1  0
 12 42  1  1
 13 43  1  0
 13 44  1  0
 15 45  1  0
 15 46  1  0
 17 47  1  0
 18 48  1  0
 19 49  1  0
 20 50  1  0
 21 51  1  0
 23 52  1  0
 24 53  1  0
 26 54  1  0
 29 55  1  0
 30 56  1  0
M  END
>  <smiles>  (45) 
O=C(NCC(=O)N1C[C@H](O)C[C@H]1COCc1ccccc1)c1ccc2cc(F)ccc2n1

>  <score_type>  (45) 
oracle

>  <origin>  (45) 
autodockgpu

>  <m_score__min__energy>  (45) 
-9.4199999999999999

>  <m_primary>  (45) 
energy

>  <rmsd>  (45) 
8.034035892692627

>  <m_score__min__rmsd>  (45) 
8.034035892692627

>  <meeko>  (45) 
{"free_energy": -5.9, "intermolecular_energy": -8.58, "internal_energy": -4.09, "cluster_size": 6, "cluster_id": 8, "rank_in_cluster": 4}

>  <energy>  (45) 
-6.08

>  <cluster_rmsd>  (45) 
1.1

>  <cluster>  (45) 
8

$$$$

     RDKit          3D

 56 59  0  0  0  0  0  0  0  0999 V2000
  142.2050   79.2080  218.2360 O   0  0  0  0  0  0  0  0  0  0  0  0
  141.8090   78.1260  218.7490 C   0  0  0  0  0  0  0  0  0  0  0  0
  140.6010   78.0780  219.4650 N   0  0  0  0  0  0  0  0  0  0  0  0
  139.8130   79.2670  219.6120 C   0  0  0  0  0  0  0  0  0  0  0  0
  139.7690   79.7430  221.0200 C   0  0  0  0  0  0  0  0  0  0  0  0
  138.6620   80.1220  221.5230 O   0  0  0  0  0  0  0  0  0  0  0  0
  140.9630   79.7630  221.7730 N   0  0  0  0  0  0  0  0  0  0  0  0
  141.8570   80.9140  221.9840 C   0  0  0  0  0  0  0  0  0  0  0  0
  142.5280   80.6550  223.3180 C   0  0  2  0  0  0  0  0  0  0  0  0
  143.8960   80.3640  223.1380 O   0  0  0  0  0  0  0  0  0  0  0  0
  141.8610   79.3720  223.8250 C   0  0  0  0  0  0  0  0  0  0  0  0
  141.5880   78.6810  222.5060 C   0  0  1  0  0  0  0  0  0  0  0  0
  140.6810   77.4980  222.6900 C   0  0  0  0  0  0  0  0  0  0  0  0
  141.0020   76.4870  221.7990 O   0  0  0  0  0  0  0  0  0  0  0  0
  139.9950   75.5260  221.7140 C   0  0  0  0  0  0  0  0  0  0  0  0
  140.5120   74.2630  221.1250 C   0  0  0  0  0  0  0  0  0  0  0  0
  140.5410   74.0150  219.7680 C   0  0  0  0  0  0  0  0  0  0  0  0
  141.0190   72.8460  219.2180 C   0  0  0  0  0  0  0  0  0  0  0  0
  141.4990   71.8520  220.0360 C   0  0  0  0  0  0  0  0  0  0  0  0
  141.4760   72.0870  221.3950 C   0  0  0  0  0  0  0  0  0  0  0  0
  140.9990   73.2530  221.9520 C   0  0  0  0  0  0  0  0  0  0  0  0
  142.5900   76.8780  218.6220 C   0  0  0  0  0  0  0  0  0  0  0  0
  142.8770   76.3300  217.3820 C   0  0  0  0  0  0  0  0  0  0  0  0
  143.6180   75.1470  217.3100 C   0  0  0  0  0  0  0  0  0  0  0  0
  144.0690   74.5130  218.4530 C   0  0  0  0  0  0  0  0  0  0  0  0
  144.8020   73.3480  218.4310 C   0  0  0  0  0  0  0  0  0  0  0  0
  145.2480   72.7230  219.5830 C   0  0  0  0  0  0  0  0  0  0  0  0
  145.9720   71.5720  219.5550 F   0  0  0  0  0  0  0  0  0  0  0  0
  144.9250   73.3240  220.7840 C   0  0  0  0  0  0  0  0  0  0  0  0
  144.1850   74.5030  220.8360 C   0  0  0  0  0  0  0  0  0  0  0  0
  143.7600   75.0940  219.6610 C   0  0  0  0  0  0  0  0  0  0  0  0
  143.0520   76.2220  219.7070 N   0  0  0  0  0  0  0  0  0  0  0  0
  140.2630   77.1890  219.8940 H   0  0  0  0  0  0  0  0  0  0  0  0
  140.2469   80.0591  218.9840 H   0  0  0  0  0  0  0  0  0  0  0  0
  138.7840   79.0295  219.3042 H   0  0  0  0  0  0  0  0  0  0  0  0
  142.6058   80.9735  221.1804 H   0  0  0  0  0  0  0  0  0  0  0  0
  141.3088   81.8677  221.9772 H   0  0  0  0  0  0  0  0  0  0  0  0
  142.4366   81.5212  223.9899 H   0  0  0  0  0  0  0  0  0  0  0  0
  144.0490   79.8140  222.3290 H   0  0  0  0  0  0  0  0  0  0  0  0
  142.5380   78.7838  224.4619 H   0  0  0  0  0  0  0  0  0  0  0  0
  140.9757   79.5285  224.4588 H   0  0  0  0  0  0  0  0  0  0  0  0
  142.4681   78.2530  222.0038 H   0  0  0  0  0  0  0  0  0  0  0  0
  140.7862   77.1196  223.7175 H   0  0  0  0  0  0  0  0  0  0  0  0
  139.6449   77.8164  222.5026 H   0  0  0  0  0  0  0  0  0  0  0  0
  139.6080   75.3204  222.7229 H   0  0  0  0  0  0  0  0  0  0  0  0
  139.1950   75.9132  221.0658 H   0  0  0  0  0  0  0  0  0  0  0  0
  140.1620   74.7927  219.0887 H   0  0  0  0  0  0  0  0  0  0  0  0
  141.0164   72.7087  218.1266 H   0  0  0  0  0  0  0  0  0  0  0  0
  141.8856   70.9080  219.6243 H   0  0  0  0  0  0  0  0  0  0  0  0
  141.8575   71.3044  222.0673 H   0  0  0  0  0  0  0  0  0  0  0  0
  141.0025   73.3860  223.0439 H   0  0  0  0  0  0  0  0  0  0  0  0
  142.5250   76.8214  216.4630 H   0  0  0  0  0  0  0  0  0  0  0  0
  143.8466   74.7123  216.3257 H   0  0  0  0  0  0  0  0  0  0  0  0
  145.0433   72.8950  217.4581 H   0  0  0  0  0  0  0  0  0  0  0  0
  145.2606   72.8598  221.7231 H   0  0  0  0  0  0  0  0  0  0  0  0
  143.9404   74.9607  221.8059 H   0  0  0  0  0  0  0  0  0  0  0  0
  1  2  2  0
  2  3  1  0
  3  4  1  0
  4  5  1  0
  5  6  2  0
  5  7  1  0
  7  8  1  0
  8  9  1  0
  9 10  1  0
  9 11  1  0
 11 12  1  0
 12 13  1  0
 13 14  1  0
 14 15  1  0
 15 16  1  0
 16 17  2  0
 17 18  1  0
 18 19  2  0
 19 20  1  0
 20 21  2  0
  2 22  1  0
 22 23  2  0
 23 24  1  0
 24 25  2  0
 25 26  1  0
 26 27  2  0
 27 28  1  0
 27 29  1  0
 29 30  2  0
 30 31  1  0
 31 32  2  0
 12  7  1  0
 21 16  1  0
 32 22  1  0
 31 25  1  0
  3 33  1  0
  4 34  1  0
  4 35  1  0
  8 36  1  0
  8 37  1  0
  9 38  1  1
 10 39  1  0
 11 40  1  0
 11 41  1  0
 12 42  1  6
 13 43  1  0
 13 44  1  0
 15 45  1  0
 15 46  1  0
 17 47  1  0
 18 48  1  0
 19 49  1  0
 20 50  1  0
 21 51  1  0
 23 52  1  0
 24 53  1  0
 26 54  1  0
 29 55  1  0
 30 56  1  0
M  END
>  <smiles>  (46) 
O=C(NCC(=O)N1C[C@H](O)C[C@H]1COCc1ccccc1)c1ccc2cc(F)ccc2n1

>  <score_type>  (46) 
oracle

>  <origin>  (46) 
autodockgpu

>  <m_score__min__energy>  (46) 
-9.4199999999999999

>  <m_primary>  (46) 
energy

>  <rmsd>  (46) 
8.028082998168786

>  <m_score__min__rmsd>  (46) 
8.028082998168786

>  <meeko>  (46) 
{"free_energy": -5.45, "intermolecular_energy": -8.13, "internal_energy": -4.0, "cluster_size": 1, "cluster_id": 9, "rank_in_cluster": 1}

>  <energy>  (46) 
-5.9

>  <cluster_rmsd>  (46) 
0.88

>  <cluster>  (46) 
8

$$$$

     RDKit          3D

 56 59  0  0  0  0  0  0  0  0999 V2000
  139.6150   73.6230  222.3800 O   0  0  0  0  0  0  0  0  0  0  0  0
  140.3140   72.5740  222.4260 C   0  0  0  0  0  0  0  0  0  0  0  0
  141.2330   72.2860  221.4030 N   0  0  0  0  0  0  0  0  0  0  0  0
  141.3780   73.1920  220.3000 C   0  0  0  0  0  0  0  0  0  0  0  0
  142.5830   74.0530  220.4330 C   0  0  0  0  0  0  0  0  0  0  0  0
  143.6400   73.5810  220.9640 O   0  0  0  0  0  0  0  0  0  0  0  0
  142.5290   75.3830  219.9640 N   0  0  0  0  0  0  0  0  0  0  0  0
  143.1100   75.9070  218.7160 C   0  0  0  0  0  0  0  0  0  0  0  0
  142.2430   77.0930  218.3430 C   0  0  2  0  0  0  0  0  0  0  0  0
  142.9580   78.2990  218.4990 O   0  0  0  0  0  0  0  0  0  0  0  0
  141.1340   77.0890  219.3990 C   0  0  0  0  0  0  0  0  0  0  0  0
  141.9020   76.5350  220.5810 C   0  0  1  0  0  0  0  0  0  0  0  0
  140.9760   76.1640  221.7040 C   0  0  0  0  0  0  0  0  0  0  0  0
  139.7780   76.8520  221.6040 O   0  0  0  0  0  0  0  0  0  0  0  0
  139.6020   77.7530  222.6540 C   0  0  0  0  0  0  0  0  0  0  0  0
  140.7070   78.7450  222.6980 C   0  0  0  0  0  0  0  0  0  0  0  0
  141.0060   79.5930  221.6510 C   0  0  0  0  0  0  0  0  0  0  0  0
  142.0290   80.5160  221.6880 C   0  0  0  0  0  0  0  0  0  0  0  0
  142.8130   80.6220  222.8110 C   0  0  0  0  0  0  0  0  0  0  0  0
  142.5250   79.7790  223.8650 C   0  0  0  0  0  0  0  0  0  0  0  0
  141.5040   78.8560  223.8350 C   0  0  0  0  0  0  0  0  0  0  0  0
  140.1960   71.6140  223.5420 C   0  0  0  0  0  0  0  0  0  0  0  0
  139.5720   70.3870  223.3750 C   0  0  0  0  0  0  0  0  0  0  0  0
  139.4820   69.5100  224.4600 C   0  0  0  0  0  0  0  0  0  0  0  0
  140.0040   69.8430  225.6960 C   0  0  0  0  0  0  0  0  0  0  0  0
  139.9400   69.0120  226.7920 C   0  0  0  0  0  0  0  0  0  0  0  0
  140.4670   69.3570  228.0240 C   0  0  0  0  0  0  0  0  0  0  0  0
  140.4010   68.5320  229.1030 F   0  0  0  0  0  0  0  0  0  0  0  0
  141.0750   70.5940  228.1180 C   0  0  0  0  0  0  0  0  0  0  0  0
  141.1540   71.4560  227.0260 C   0  0  0  0  0  0  0  0  0  0  0  0
  140.6150   71.0700  225.8130 C   0  0  0  0  0  0  0  0  0  0  0  0
  140.6890   71.8920  224.7670 N   0  0  0  0  0  0  0  0  0  0  0  0
  141.8160   71.4220  221.4300 H   0  0  0  0  0  0  0  0  0  0  0  0
  141.4607   72.6085  219.3712 H   0  0  0  0  0  0  0  0  0  0  0  0
  140.4952   73.8480  220.2844 H   0  0  0  0  0  0  0  0  0  0  0  0
  144.1503   76.2253  218.8784 H   0  0  0  0  0  0  0  0  0  0  0  0
  143.1319   75.1469  217.9212 H   0  0  0  0  0  0  0  0  0  0  0  0
  141.8906   77.0236  217.3033 H   0  0  0  0  0  0  0  0  0  0  0  0
  143.6660   78.2170  219.1870 H   0  0  0  0  0  0  0  0  0  0  0  0
  140.7545   78.1023  219.5969 H   0  0  0  0  0  0  0  0  0  0  0  0
  140.2328   76.5215  219.1237 H   0  0  0  0  0  0  0  0  0  0  0  0
  142.6124   77.2300  221.0524 H   0  0  0  0  0  0  0  0  0  0  0  0
  140.7752   75.0832  221.6632 H   0  0  0  0  0  0  0  0  0  0  0  0
  141.4556   76.4298  222.6576 H   0  0  0  0  0  0  0  0  0  0  0  0
  138.6482   78.2834  222.5163 H   0  0  0  0  0  0  0  0  0  0  0  0
  139.5988   77.1913  223.5998 H   0  0  0  0  0  0  0  0  0  0  0  0
  140.3953   79.5289  220.7383 H   0  0  0  0  0  0  0  0  0  0  0  0
  142.2171   81.1659  220.8207 H   0  0  0  0  0  0  0  0  0  0  0  0
  143.6366   81.3490  222.8678 H   0  0  0  0  0  0  0  0  0  0  0  0
  143.1414   79.8479  224.7735 H   0  0  0  0  0  0  0  0  0  0  0  0
  141.3184   78.2090  224.7051 H   0  0  0  0  0  0  0  0  0  0  0  0
  139.1518   70.1063  222.3980 H   0  0  0  0  0  0  0  0  0  0  0  0
  138.9866   68.5368  224.3278 H   0  0  0  0  0  0  0  0  0  0  0  0
  139.4496   68.0333  226.6837 H   0  0  0  0  0  0  0  0  0  0  0  0
  141.5079   70.9065  229.0797 H   0  0  0  0  0  0  0  0  0  0  0  0
  141.6418   72.4366  227.1285 H   0  0  0  0  0  0  0  0  0  0  0  0
  1  2  2  0
  2  3  1  0
  3  4  1  0
  4  5  1  0
  5  6  2  0
  5  7  1  0
  7  8  1  0
  8  9  1  0
  9 10  1  0
  9 11  1  0
 11 12  1  0
 12 13  1  0
 13 14  1  0
 14 15  1  0
 15 16  1  0
 16 17  2  0
 17 18  1  0
 18 19  2  0
 19 20  1  0
 20 21  2  0
  2 22  1  0
 22 23  2  0
 23 24  1  0
 24 25  2  0
 25 26  1  0
 26 27  2  0
 27 28  1  0
 27 29  1  0
 29 30  2  0
 30 31  1  0
 31 32  2  0
 12  7  1  0
 21 16  1  0
 32 22  1  0
 31 25  1  0
  3 33  1  0
  4 34  1  0
  4 35  1  0
  8 36  1  0
  8 37  1  0
  9 38  1  6
 10 39  1  0
 11 40  1  0
 11 41  1  0
 12 42  1  1
 13 43  1  0
 13 44  1  0
 15 45  1  0
 15 46  1  0
 17 47  1  0
 18 48  1  0
 19 49  1  0
 20 50  1  0
 21 51  1  0
 23 52  1  0
 24 53  1  0
 26 54  1  0
 29 55  1  0
 30 56  1  0
M  END
>  <smiles>  (47) 
O=C(NCC(=O)N1C[C@H](O)C[C@H]1COCc1ccccc1)c1ccc2cc(F)ccc2n1

>  <score_type>  (47) 
oracle

>  <origin>  (47) 
autodockgpu

>  <m_score__min__energy>  (47) 
-9.4199999999999999

>  <m_primary>  (47) 
energy

>  <rmsd>  (47) 
2.340139453676534

>  <m_score__min__rmsd>  (47) 
2.340139453676534

>  <meeko>  (47) 
{"free_energy": -8.65, "intermolecular_energy": -11.33, "internal_energy": -1.83, "cluster_size": 28, "cluster_id": 1, "rank_in_cluster": 15}

>  <energy>  (47) 
-5.9

>  <cluster_rmsd>  (47) 
0.88

>  <cluster>  (47) 
8

$$$$

     RDKit          3D

 56 59  0  0  0  0  0  0  0  0999 V2000
  141.8040   72.1560  221.2400 O   0  0  0  0  0  0  0  0  0  0  0  0
  141.0730   73.0430  221.7600 C   0  0  0  0  0  0  0  0  0  0  0  0
  140.0670   72.6880  222.6740 N   0  0  0  0  0  0  0  0  0  0  0  0
  139.8720   71.3100  223.0200 C   0  0  0  0  0  0  0  0  0  0  0  0
  138.4330   70.9550  223.1300 C   0  0  0  0  0  0  0  0  0  0  0  0
  137.5890   71.8430  223.4760 O   0  0  0  0  0  0  0  0  0  0  0  0
  138.0310   69.6310  222.8460 N   0  0  0  0  0  0  0  0  0  0  0  0
  137.7020   69.0700  221.5250 C   0  0  0  0  0  0  0  0  0  0  0  0
  138.0150   67.5910  221.6340 C   0  0  2  0  0  0  0  0  0  0  0  0
  136.8280   66.8290  221.6090 O   0  0  0  0  0  0  0  0  0  0  0  0
  138.6130   67.4410  223.0360 C   0  0  0  0  0  0  0  0  0  0  0  0
  137.8470   68.5250  223.7640 C   0  0  1  0  0  0  0  0  0  0  0  0
  138.4350   68.7880  225.1210 C   0  0  0  0  0  0  0  0  0  0  0  0
  139.2440   67.7370  225.5200 O   0  0  0  0  0  0  0  0  0  0  0  0
  139.8080   67.9580  226.7760 C   0  0  0  0  0  0  0  0  0  0  0  0
  140.2530   69.3680  226.9200 C   0  0  0  0  0  0  0  0  0  0  0  0
  139.9010   70.1700  227.9870 C   0  0  0  0  0  0  0  0  0  0  0  0
  140.3120   71.4770  228.1250 C   0  0  0  0  0  0  0  0  0  0  0  0
  141.1160   72.0450  227.1660 C   0  0  0  0  0  0  0  0  0  0  0  0
  141.4760   71.2550  226.0940 C   0  0  0  0  0  0  0  0  0  0  0  0
  141.0680   69.9480  225.9500 C   0  0  0  0  0  0  0  0  0  0  0  0
  141.2380   74.4740  221.4320 C   0  0  0  0  0  0  0  0  0  0  0  0
  142.0270   74.8830  220.3680 C   0  0  0  0  0  0  0  0  0  0  0  0
  142.1560   76.2480  220.0950 C   0  0  0  0  0  0  0  0  0  0  0  0
  141.5110   77.1970  220.8670 C   0  0  0  0  0  0  0  0  0  0  0  0
  141.6080   78.5510  220.6360 C   0  0  0  0  0  0  0  0  0  0  0  0
  140.9570   79.4910  221.4160 C   0  0  0  0  0  0  0  0  0  0  0  0
  141.0570   80.8270  221.1830 F   0  0  0  0  0  0  0  0  0  0  0  0
  140.1880   79.0120  222.4590 C   0  0  0  0  0  0  0  0  0  0  0  0
  140.0720   77.6480  222.7170 C   0  0  0  0  0  0  0  0  0  0  0  0
  140.7390   76.7430  221.9110 C   0  0  0  0  0  0  0  0  0  0  0  0
  140.6300   75.4380  222.1540 N   0  0  0  0  0  0  0  0  0  0  0  0
  139.4560   73.4120  223.1110 H   0  0  0  0  0  0  0  0  0  0  0  0
  140.3332   70.6816  222.2439 H   0  0  0  0  0  0  0  0  0  0  0  0
  140.3368   71.1403  224.0024 H   0  0  0  0  0  0  0  0  0  0  0  0
  136.6373   69.2233  221.2948 H   0  0  0  0  0  0  0  0  0  0  0  0
  138.2729   69.5534  220.7185 H   0  0  0  0  0  0  0  0  0  0  0  0
  138.6676   67.2558  220.8144 H   0  0  0  0  0  0  0  0  0  0  0  0
  136.3520   66.8640  222.4770 H   0  0  0  0  0  0  0  0  0  0  0  0
  138.4149   66.4456  223.4602 H   0  0  0  0  0  0  0  0  0  0  0  0
  139.7080   67.5335  223.0857 H   0  0  0  0  0  0  0  0  0  0  0  0
  136.7932   68.2963  223.9811 H   0  0  0  0  0  0  0  0  0  0  0  0
  139.0345   69.7094  225.0815 H   0  0  0  0  0  0  0  0  0  0  0  0
  137.6142   68.8951  225.8455 H   0  0  0  0  0  0  0  0  0  0  0  0
  139.0590   67.7365  227.5505 H   0  0  0  0  0  0  0  0  0  0  0  0
  140.6836   67.3015  226.8871 H   0  0  0  0  0  0  0  0  0  0  0  0
  139.2573   69.7418  228.7695 H   0  0  0  0  0  0  0  0  0  0  0  0
  139.9977   72.0646  229.0002 H   0  0  0  0  0  0  0  0  0  0  0  0
  141.4584   73.0870  227.2498 H   0  0  0  0  0  0  0  0  0  0  0  0
  142.1205   71.6906  225.3163 H   0  0  0  0  0  0  0  0  0  0  0  0
  141.3840   69.3641  225.0730 H   0  0  0  0  0  0  0  0  0  0  0  0
  142.5466   74.1405  219.7445 H   0  0  0  0  0  0  0  0  0  0  0  0
  142.7819   76.5731  219.2509 H   0  0  0  0  0  0  0  0  0  0  0  0
  142.2283   78.8999  219.7972 H   0  0  0  0  0  0  0  0  0  0  0  0
  139.6534   79.7263  223.1025 H   0  0  0  0  0  0  0  0  0  0  0  0
  139.4546   77.2932  223.5554 H   0  0  0  0  0  0  0  0  0  0  0  0
  1  2  2  0
  2  3  1  0
  3  4  1  0
  4  5  1  0
  5  6  2  0
  5  7  1  0
  7  8  1  0
  8  9  1  0
  9 10  1  0
  9 11  1  0
 11 12  1  0
 12 13  1  0
 13 14  1  0
 14 15  1  0
 15 16  1  0
 16 17  2  0
 17 18  1  0
 18 19  2  0
 19 20  1  0
 20 21  2  0
  2 22  1  0
 22 23  2  0
 23 24  1  0
 24 25  2  0
 25 26  1  0
 26 27  2  0
 27 28  1  0
 27 29  1  0
 29 30  2  0
 30 31  1  0
 31 32  2  0
 12  7  1  0
 21 16  1  0
 32 22  1  0
 31 25  1  0
  3 33  1  0
  4 34  1  0
  4 35  1  0
  8 36  1  0
  8 37  1  0
  9 38  1  6
 10 39  1  0
 11 40  1  0
 11 41  1  0
 12 42  1  1
 13 43  1  0
 13 44  1  0
 15 45  1  0
 15 46  1  0
 17 47  1  0
 18 48  1  0
 19 49  1  0
 20 50  1  0
 21 51  1  0
 23 52  1  0
 24 53  1  0
 26 54  1  0
 29 55  1  0
 30 56  1  0
M  END
>  <smiles>  (48) 
O=C(NCC(=O)N1C[C@H](O)C[C@H]1COCc1ccccc1)c1ccc2cc(F)ccc2n1

>  <score_type>  (48) 
oracle

>  <origin>  (48) 
autodockgpu

>  <m_score__min__energy>  (48) 
-9.4199999999999999

>  <m_primary>  (48) 
energy

>  <rmsd>  (48) 
8.454133048082262

>  <m_score__min__rmsd>  (48) 
8.454133048082262

>  <meeko>  (48) 
{"free_energy": -8.16, "intermolecular_energy": -10.84, "internal_energy": -2.16, "cluster_size": 3, "cluster_id": 4, "rank_in_cluster": 1}

>  <energy>  (48) 
-5.81

>  <cluster_rmsd>  (48) 
0.82

>  <cluster>  (48) 
8

$$$$

     RDKit          3D

 56 59  0  0  0  0  0  0  0  0999 V2000
  141.0380   71.5940  221.2920 O   0  0  0  0  0  0  0  0  0  0  0  0
  140.4110   72.0010  222.3080 C   0  0  0  0  0  0  0  0  0  0  0  0
  139.8790   73.3010  222.3420 N   0  0  0  0  0  0  0  0  0  0  0  0
  140.0490   74.1700  221.2130 C   0  0  0  0  0  0  0  0  0  0  0  0
  141.1950   75.1010  221.3870 C   0  0  0  0  0  0  0  0  0  0  0  0
  141.0720   76.1180  222.1430 O   0  0  0  0  0  0  0  0  0  0  0  0
  142.4030   74.8340  220.7060 N   0  0  0  0  0  0  0  0  0  0  0  0
  143.2420   73.6310  220.8300 C   0  0  0  0  0  0  0  0  0  0  0  0
  143.9540   73.5060  219.4970 C   0  0  2  0  0  0  0  0  0  0  0  0
  145.3310   73.7740  219.6430 O   0  0  0  0  0  0  0  0  0  0  0  0
  143.3640   74.6410  218.6540 C   0  0  0  0  0  0  0  0  0  0  0  0
  143.0970   75.6610  219.7400 C   0  0  1  0  0  0  0  0  0  0  0  0
  142.2540   76.7940  219.2260 C   0  0  0  0  0  0  0  0  0  0  0  0
  142.5390   77.9680  219.9050 O   0  0  0  0  0  0  0  0  0  0  0  0
  141.3820   78.6340  220.3050 C   0  0  0  0  0  0  0  0  0  0  0  0
  141.6360   79.4700  221.5070 C   0  0  0  0  0  0  0  0  0  0  0  0
  141.5900   80.8490  221.4950 C   0  0  0  0  0  0  0  0  0  0  0  0
  141.8240   81.6280  222.6070 C   0  0  0  0  0  0  0  0  0  0  0  0
  142.1230   81.0320  223.8090 C   0  0  0  0  0  0  0  0  0  0  0  0
  142.1720   79.6530  223.8350 C   0  0  0  0  0  0  0  0  0  0  0  0
  141.9390   78.8690  222.7270 C   0  0  0  0  0  0  0  0  0  0  0  0
  140.2130   71.1410  223.4930 C   0  0  0  0  0  0  0  0  0  0  0  0
  139.5370   69.9340  223.4020 C   0  0  0  0  0  0  0  0  0  0  0  0
  139.3720   69.1520  224.5490 C   0  0  0  0  0  0  0  0  0  0  0  0
  139.8710   69.5610  225.7720 C   0  0  0  0  0  0  0  0  0  0  0  0
  139.7330   68.8250  226.9280 C   0  0  0  0  0  0  0  0  0  0  0  0
  140.2380   69.2440  228.1460 C   0  0  0  0  0  0  0  0  0  0  0  0
  140.0990   68.5130  229.2840 F   0  0  0  0  0  0  0  0  0  0  0  0
  140.9010   70.4560  228.1630 C   0  0  0  0  0  0  0  0  0  0  0  0
  141.0540   71.2220  227.0100 C   0  0  0  0  0  0  0  0  0  0  0  0
  140.5350   70.7640  225.8130 C   0  0  0  0  0  0  0  0  0  0  0  0
  140.6810   71.4940  224.7080 N   0  0  0  0  0  0  0  0  0  0  0  0
  139.3590   73.6490  223.1760 H   0  0  0  0  0  0  0  0  0  0  0  0
  140.2243   73.5563  220.3171 H   0  0  0  0  0  0  0  0  0  0  0  0
  139.1356   74.7747  221.1124 H   0  0  0  0  0  0  0  0  0  0  0  0
  143.9694   73.7501  221.6465 H   0  0  0  0  0  0  0  0  0  0  0  0
  142.6468   72.7361  221.0646 H   0  0  0  0  0  0  0  0  0  0  0  0
  143.8333   72.5003  219.0679 H   0  0  0  0  0  0  0  0  0  0  0  0
  145.6310   74.4930  219.0300 H   0  0  0  0  0  0  0  0  0  0  0  0
  144.0837   75.0145  217.9107 H   0  0  0  0  0  0  0  0  0  0  0  0
  142.4862   74.3638  218.0518 H   0  0  0  0  0  0  0  0  0  0  0  0
  143.9864   76.1665  220.1444 H   0  0  0  0  0  0  0  0  0  0  0  0
  142.4585   76.9384  218.1549 H   0  0  0  0  0  0  0  0  0  0  0  0
  141.1944   76.5443  219.3837 H   0  0  0  0  0  0  0  0  0  0  0  0
  141.0370   79.2800  219.4842 H   0  0  0  0  0  0  0  0  0  0  0  0
  140.6159   77.8853  220.5550 H   0  0  0  0  0  0  0  0  0  0  0  0
  141.3538   81.3536  220.5465 H   0  0  0  0  0  0  0  0  0  0  0  0
  141.7717   82.7243  222.5331 H   0  0  0  0  0  0  0  0  0  0  0  0
  142.3152   81.6293  224.7125 H   0  0  0  0  0  0  0  0  0  0  0  0
  142.4087   79.1558  224.7872 H   0  0  0  0  0  0  0  0  0  0  0  0
  141.9919   77.7730  222.8048 H   0  0  0  0  0  0  0  0  0  0  0  0
  139.1342   69.5948  222.4362 H   0  0  0  0  0  0  0  0  0  0  0  0
  138.8357   68.1943  224.4773 H   0  0  0  0  0  0  0  0  0  0  0  0
  139.1992   67.8643  226.8809 H   0  0  0  0  0  0  0  0  0  0  0  0
  141.3186   70.8253  229.1113 H   0  0  0  0  0  0  0  0  0  0  0  0
  141.5842   72.1849  227.0513 H   0  0  0  0  0  0  0  0  0  0  0  0
  1  2  2  0
  2  3  1  0
  3  4  1  0
  4  5  1  0
  5  6  2  0
  5  7  1  0
  7  8  1  0
  8  9  1  0
  9 10  1  0
  9 11  1  0
 11 12  1  0
 12 13  1  0
 13 14  1  0
 14 15  1  0
 15 16  1  0
 16 17  2  0
 17 18  1  0
 18 19  2  0
 19 20  1  0
 20 21  2  0
  2 22  1  0
 22 23  2  0
 23 24  1  0
 24 25  2  0
 25 26  1  0
 26 27  2  0
 27 28  1  0
 27 29  1  0
 29 30  2  0
 30 31  1  0
 31 32  2  0
 12  7  1  0
 21 16  1  0
 32 22  1  0
 31 25  1  0
  3 33  1  0
  4 34  1  0
  4 35  1  0
  8 36  1  0
  8 37  1  0
  9 38  1  6
 10 39  1  0
 11 40  1  0
 11 41  1  0
 12 42  1  1
 13 43  1  0
 13 44  1  0
 15 45  1  0
 15 46  1  0
 17 47  1  0
 18 48  1  0
 19 49  1  0
 20 50  1  0
 21 51  1  0
 23 52  1  0
 24 53  1  0
 26 54  1  0
 29 55  1  0
 30 56  1  0
M  END
>  <smiles>  (49) 
O=C(NCC(=O)N1C[C@H](O)C[C@H]1COCc1ccccc1)c1ccc2cc(F)ccc2n1

>  <score_type>  (49) 
oracle

>  <origin>  (49) 
autodockgpu

>  <m_score__min__energy>  (49) 
-9.4199999999999999

>  <m_primary>  (49) 
energy

>  <rmsd>  (49) 
2.577122217980014

>  <m_score__min__rmsd>  (49) 
2.577122217980014

>  <meeko>  (49) 
{"free_energy": -8.93, "intermolecular_energy": -11.62, "internal_energy": -1.64, "cluster_size": 28, "cluster_id": 1, "rank_in_cluster": 4}

>  <energy>  (49) 
-5.75

>  <cluster_rmsd>  (49) 
1.37

>  <cluster>  (49) 
8

$$$$

     RDKit          3D

 56 59  0  0  0  0  0  0  0  0999 V2000
  140.8670   71.4470  221.2140 O   0  0  0  0  0  0  0  0  0  0  0  0
  140.3520   71.9120  222.2680 C   0  0  0  0  0  0  0  0  0  0  0  0
  139.9550   73.2580  222.3310 N   0  0  0  0  0  0  0  0  0  0  0  0
  140.1360   74.1080  221.1900 C   0  0  0  0  0  0  0  0  0  0  0  0
  140.2510   75.5410  221.5690 C   0  0  0  0  0  0  0  0  0  0  0  0
  139.8300   75.9290  222.7070 O   0  0  0  0  0  0  0  0  0  0  0  0
  140.8290   76.4470  220.6530 N   0  0  0  0  0  0  0  0  0  0  0  0
  142.0980   76.2820  219.9250 C   0  0  0  0  0  0  0  0  0  0  0  0
  141.9320   77.0880  218.6510 C   0  0  2  0  0  0  0  0  0  0  0  0
  142.7630   78.2270  218.6730 O   0  0  0  0  0  0  0  0  0  0  0  0
  140.4850   77.5870  218.7150 C   0  0  0  0  0  0  0  0  0  0  0  0
  140.3250   77.7330  220.2130 C   0  0  1  0  0  0  0  0  0  0  0  0
  138.8870   77.9570  220.5870 C   0  0  0  0  0  0  0  0  0  0  0  0
  138.7630   78.1990  221.9450 O   0  0  0  0  0  0  0  0  0  0  0  0
  138.8800   79.5560  222.2470 C   0  0  0  0  0  0  0  0  0  0  0  0
  140.2360   79.8730  222.7660 C   0  0  0  0  0  0  0  0  0  0  0  0
  140.8930   79.0930  223.6960 C   0  0  0  0  0  0  0  0  0  0  0  0
  142.1500   79.3830  224.1790 C   0  0  0  0  0  0  0  0  0  0  0  0
  142.8130   80.5000  223.7330 C   0  0  0  0  0  0  0  0  0  0  0  0
  142.1670   81.2890  222.8030 C   0  0  0  0  0  0  0  0  0  0  0  0
  140.9110   81.0050  222.3160 C   0  0  0  0  0  0  0  0  0  0  0  0
  140.1470   71.0720  223.4650 C   0  0  0  0  0  0  0  0  0  0  0  0
  139.4640   69.8670  223.3930 C   0  0  0  0  0  0  0  0  0  0  0  0
  139.2930   69.1060  224.5530 C   0  0  0  0  0  0  0  0  0  0  0  0
  139.7930   69.5310  225.7700 C   0  0  0  0  0  0  0  0  0  0  0  0
  139.6490   68.8150  226.9370 C   0  0  0  0  0  0  0  0  0  0  0  0
  140.1550   69.2510  228.1490 C   0  0  0  0  0  0  0  0  0  0  0  0
  140.0100   68.5390  229.2990 F   0  0  0  0  0  0  0  0  0  0  0  0
  140.8250   70.4590  228.1470 C   0  0  0  0  0  0  0  0  0  0  0  0
  140.9850   71.2060  226.9820 C   0  0  0  0  0  0  0  0  0  0  0  0
  140.4640   70.7310  225.7920 C   0  0  0  0  0  0  0  0  0  0  0  0
  140.6160   71.4420  224.6760 N   0  0  0  0  0  0  0  0  0  0  0  0
  139.5280   73.6540  223.1960 H   0  0  0  0  0  0  0  0  0  0  0  0
  141.0543   73.8057  220.6653 H   0  0  0  0  0  0  0  0  0  0  0  0
  139.2517   73.9996  220.5448 H   0  0  0  0  0  0  0  0  0  0  0  0
  142.9377   76.6698  220.5204 H   0  0  0  0  0  0  0  0  0  0  0  0
  142.3188   75.2246  219.7172 H   0  0  0  0  0  0  0  0  0  0  0  0
  142.1760   76.4904  217.7603 H   0  0  0  0  0  0  0  0  0  0  0  0
  143.4810   78.1430  219.3500 H   0  0  0  0  0  0  0  0  0  0  0  0
  140.3611   78.5486  218.1953 H   0  0  0  0  0  0  0  0  0  0  0  0
  139.7463   76.9310  218.2313 H   0  0  0  0  0  0  0  0  0  0  0  0
  140.8435   78.5923  220.6633 H   0  0  0  0  0  0  0  0  0  0  0  0
  138.5003   78.8230  220.0298 H   0  0  0  0  0  0  0  0  0  0  0  0
  138.3130   77.0526  220.3366 H   0  0  0  0  0  0  0  0  0  0  0  0
  138.6976   80.1440  221.3354 H   0  0  0  0  0  0  0  0  0  0  0  0
  138.1414   79.8065  223.0226 H   0  0  0  0  0  0  0  0  0  0  0  0
  140.3859   78.1919  224.0714 H   0  0  0  0  0  0  0  0  0  0  0  0
  142.6218   78.7213  224.9204 H   0  0  0  0  0  0  0  0  0  0  0  0
  143.8174   80.7552  224.1018 H   0  0  0  0  0  0  0  0  0  0  0  0
  142.6807   82.1885  222.4329 H   0  0  0  0  0  0  0  0  0  0  0  0
  140.4427   81.6692  221.5747 H   0  0  0  0  0  0  0  0  0  0  0  0
  139.0608   69.5136  222.4325 H   0  0  0  0  0  0  0  0  0  0  0  0
  138.7503   68.1509  224.4965 H   0  0  0  0  0  0  0  0  0  0  0  0
  139.1095   67.8569  226.9047 H   0  0  0  0  0  0  0  0  0  0  0  0
  141.2431   70.8411  229.0899 H   0  0  0  0  0  0  0  0  0  0  0  0
  141.5214   72.1660  227.0083 H   0  0  0  0  0  0  0  0  0  0  0  0
  1  2  2  0
  2  3  1  0
  3  4  1  0
  4  5  1  0
  5  6  2  0
  5  7  1  0
  7  8  1  0
  8  9  1  0
  9 10  1  0
  9 11  1  0
 11 12  1  0
 12 13  1  0
 13 14  1  0
 14 15  1  0
 15 16  1  0
 16 17  2  0
 17 18  1  0
 18 19  2  0
 19 20  1  0
 20 21  2  0
  2 22  1  0
 22 23  2  0
 23 24  1  0
 24 25  2  0
 25 26  1  0
 26 27  2  0
 27 28  1  0
 27 29  1  0
 29 30  2  0
 30 31  1  0
 31 32  2  0
 12  7  1  0
 21 16  1  0
 32 22  1  0
 31 25  1  0
  3 33  1  0
  4 34  1  0
  4 35  1  0
  8 36  1  0
  8 37  1  0
  9 38  1  6
 10 39  1  0
 11 40  1  0
 11 41  1  0
 12 42  1  1
 13 43  1  0
 13 44  1  0
 15 45  1  0
 15 46  1  0
 17 47  1  0
 18 48  1  0
 19 49  1  0
 20 50  1  0
 21 51  1  0
 23 52  1  0
 24 53  1  0
 26 54  1  0
 29 55  1  0
 30 56  1  0
M  END
>  <smiles>  (50) 
O=C(NCC(=O)N1C[C@H](O)C[C@H]1COCc1ccccc1)c1ccc2cc(F)ccc2n1

>  <score_type>  (50) 
oracle

>  <origin>  (50) 
autodockgpu

>  <m_score__min__energy>  (50) 
-9.4199999999999999

>  <m_primary>  (50) 
energy

>  <rmsd>  (50) 
1.7915839243359

>  <m_score__min__rmsd>  (50) 
1.7915839243359

>  <meeko>  (50) 
{"free_energy": -8.33, "intermolecular_energy": -11.02, "internal_energy": -2.11, "cluster_size": 7, "cluster_id": 3, "rank_in_cluster": 2}

>  <energy>  (50) 
-5.45

>  <cluster_rmsd>  (50) 
0.0

>  <cluster>  (50) 
9

$$$$
