
     RDKit          3D

 52 56  0  0  0  0  0  0  0  0999 V2000
  142.9270   74.9780  220.4090 O   0  0  0  0  0  0  0  0  0  0  0  0
  141.8850   74.6310  221.0200 C   0  0  0  0  0  0  0  0  0  0  0  0
  141.6190   73.1870  221.1530 C   0  0  0  0  0  0  0  0  0  0  0  0
  140.3500   73.0020  221.9010 C   0  0  0  0  0  0  0  0  0  0  0  0
  139.9430   71.6010  222.1410 C   0  0  0  0  0  0  0  0  0  0  0  0
  139.5570   70.7770  221.1050 C   0  0  0  0  0  0  0  0  0  0  0  0
  139.1850   69.4620  221.2690 C   0  0  0  0  0  0  0  0  0  0  0  0
  139.1920   68.9270  222.5390 C   0  0  0  0  0  0  0  0  0  0  0  0
  139.5710   69.7220  223.5910 C   0  0  0  0  0  0  0  0  0  0  0  0
  139.5670   69.1060  224.9200 C   0  0  0  0  0  0  0  0  0  0  0  0
  138.8010   68.1470  225.2170 O   0  0  0  0  0  0  0  0  0  0  0  0
  140.4320   69.5710  225.9310 N   0  0  0  0  0  0  0  0  0  0  0  0
  140.3730   68.9040  227.2420 C   0  0  0  0  0  0  0  0  0  0  0  0
  140.1680   69.9210  228.3420 C   0  0  0  0  0  0  0  0  0  0  0  0
  141.0760   71.1190  228.1870 C   0  0  0  0  0  0  0  0  0  0  0  0
  141.0050   71.7150  226.7900 C   0  0  0  0  0  0  0  0  0  0  0  0
  141.3740   70.6440  225.8050 C   0  0  0  0  0  0  0  0  0  0  0  0
  139.9510   71.0610  223.4220 C   0  0  0  0  0  0  0  0  0  0  0  0
  139.6190   73.9460  222.3480 N   0  0  0  0  0  0  0  0  0  0  0  0
  139.8860   75.3360  222.2140 C   0  0  0  0  0  0  0  0  0  0  0  0
  139.1030   76.3340  222.7040 C   0  0  0  0  0  0  0  0  0  0  0  0
  139.4050   77.6900  222.5610 C   0  0  0  0  0  0  0  0  0  0  0  0
  140.5550   78.0130  221.8880 C   0  0  0  0  0  0  0  0  0  0  0  0
  140.9600   79.4360  221.6920 C   0  0  0  0  0  0  0  0  0  0  0  0
  140.9490   80.0370  220.5170 C   0  0  0  0  0  0  0  0  0  0  0  0
  141.3350   81.3680  220.4000 C   0  0  0  0  0  0  0  0  0  0  0  0
  141.7700   81.8330  222.1770 S   0  0  0  0  0  0  0  0  0  0  0  0
  141.3680   80.1580  222.8240 C   0  0  0  0  0  0  0  0  0  0  0  0
  141.3610   77.0070  221.3840 C   0  0  0  0  0  0  0  0  0  0  0  0
  141.0370   75.6850  221.5410 C   0  0  0  0  0  0  0  0  0  0  0  0
  141.5293   72.7340  220.1546 H   0  0  0  0  0  0  0  0  0  0  0  0
  142.4457   72.7025  221.6932 H   0  0  0  0  0  0  0  0  0  0  0  0
  139.5457   71.1952  220.0876 H   0  0  0  0  0  0  0  0  0  0  0  0
  138.8882   68.8506  220.4041 H   0  0  0  0  0  0  0  0  0  0  0  0
  138.8987   67.8801  222.7065 H   0  0  0  0  0  0  0  0  0  0  0  0
  139.5363   68.1899  227.2480 H   0  0  0  0  0  0  0  0  0  0  0  0
  141.3219   68.3758  227.4167 H   0  0  0  0  0  0  0  0  0  0  0  0
  139.1228   70.2630  228.3182 H   0  0  0  0  0  0  0  0  0  0  0  0
  140.4084   69.4362  229.2997 H   0  0  0  0  0  0  0  0  0  0  0  0
  140.7771   71.8870  228.9156 H   0  0  0  0  0  0  0  0  0  0  0  0
  142.1096   70.7847  228.3600 H   0  0  0  0  0  0  0  0  0  0  0  0
  139.9839   72.0709  226.5883 H   0  0  0  0  0  0  0  0  0  0  0  0
  141.6969   72.5658  226.7038 H   0  0  0  0  0  0  0  0  0  0  0  0
  141.3397   71.0507  224.7835 H   0  0  0  0  0  0  0  0  0  0  0  0
  142.3921   70.2793  226.0061 H   0  0  0  0  0  0  0  0  0  0  0  0
  140.2497   71.6724  224.2863 H   0  0  0  0  0  0  0  0  0  0  0  0
  138.1834   76.0588  223.2412 H   0  0  0  0  0  0  0  0  0  0  0  0
  138.7458   78.4687  222.9724 H   0  0  0  0  0  0  0  0  0  0  0  0
  140.6319   79.4805  219.6227 H   0  0  0  0  0  0  0  0  0  0  0  0
  141.3765   81.9941  219.4965 H   0  0  0  0  0  0  0  0  0  0  0  0
  141.4328   79.8029  223.8631 H   0  0  0  0  0  0  0  0  0  0  0  0
  142.2820   77.2748  220.8455 H   0  0  0  0  0  0  0  0  0  0  0  0
  1  2  2  0
  2  3  1  0
  3  4  1  0
  4  5  1  0
  5  6  2  0
  6  7  1  0
  7  8  2  0
  8  9  1  0
  9 10  1  0
 10 11  2  0
 10 12  1  0
 12 13  1  0
 13 14  1  0
 14 15  1  0
 15 16  1  0
 16 17  1  0
  9 18  2  0
  4 19  2  0
 19 20  1  0
 20 21  2  0
 21 22  1  0
 22 23  2  0
 23 24  1  0
 24 25  1  0
 25 26  2  0
 26 27  1  0
 27 28  1  0
 23 29  1  0
 29 30  2  0
 30  2  1  0
 18  5  1  0
 30 20  1  0
 17 12  1  0
 28 24  2  0
  3 31  1  0
  3 32  1  0
  6 33  1  0
  7 34  1  0
  8 35  1  0
 13 36  1  0
 13 37  1  0
 14 38  1  0
 14 39  1  0
 15 40  1  0
 15 41  1  0
 16 42  1  0
 16 43  1  0
 17 44  1  0
 17 45  1  0
 18 46  1  0
 21 47  1  0
 22 48  1  0
 25 49  1  0
 26 50  1  0
 28 51  1  0
 29 52  1  0
M  END
>  <smiles>  (1) 
O=C1CC(c2cccc(C(=O)N3CCCCC3)c2)=Nc2ccc(-c3ccsc3)cc21

>  <score_type>  (1) 
oracle

>  <origin>  (1) 
autodockgpu

>  <m_score__min__energy>  (1) 
-9.6199999999999992

>  <m_primary>  (1) 
energy

>  <rmsd>  (1) 
10.994639164301804

>  <m_score__min__rmsd>  (1) 
10.994639164301804

>  <meeko>  (1) 
{"free_energy": -9.57, "intermolecular_energy": -10.47, "internal_energy": -0.73, "cluster_size": 50, "cluster_id": 1, "rank_in_cluster": 5}

>  <energy>  (1) 
-9.62

>  <cluster_rmsd>  (1) 
0.0

>  <cluster>  (1) 
1

$$$$

     RDKit          3D

 52 56  0  0  0  0  0  0  0  0999 V2000
  142.9060   75.1850  220.2900 O   0  0  0  0  0  0  0  0  0  0  0  0
  141.8850   74.8310  220.9330 C   0  0  0  0  0  0  0  0  0  0  0  0
  141.6260   73.3860  221.0650 C   0  0  0  0  0  0  0  0  0  0  0  0
  140.3840   73.1930  221.8530 C   0  0  0  0  0  0  0  0  0  0  0  0
  139.9870   71.7900  222.0960 C   0  0  0  0  0  0  0  0  0  0  0  0
  139.7350   70.9240  221.0540 C   0  0  0  0  0  0  0  0  0  0  0  0
  139.3790   69.6040  221.2220 C   0  0  0  0  0  0  0  0  0  0  0  0
  139.2630   69.1100  222.5020 C   0  0  0  0  0  0  0  0  0  0  0  0
  139.5070   69.9470  223.5610 C   0  0  0  0  0  0  0  0  0  0  0  0
  139.3750   69.3740  224.9030 C   0  0  0  0  0  0  0  0  0  0  0  0
  138.4800   68.5310  225.1910 O   0  0  0  0  0  0  0  0  0  0  0  0
  140.2580   69.7490  225.9360 N   0  0  0  0  0  0  0  0  0  0  0  0
  140.0650   69.1310  227.2580 C   0  0  0  0  0  0  0  0  0  0  0  0
  139.9570   70.1960  228.3270 C   0  0  0  0  0  0  0  0  0  0  0  0
  141.0180   71.2600  228.1800 C   0  0  0  0  0  0  0  0  0  0  0  0
  141.0760   71.8230  226.7680 C   0  0  0  0  0  0  0  0  0  0  0  0
  141.3360   70.6860  225.8230 C   0  0  0  0  0  0  0  0  0  0  0  0
  139.8700   71.2900  223.3880 C   0  0  0  0  0  0  0  0  0  0  0  0
  139.6670   74.1330  222.3320 N   0  0  0  0  0  0  0  0  0  0  0  0
  139.9270   75.5240  222.2000 C   0  0  0  0  0  0  0  0  0  0  0  0
  139.1600   76.5160  222.7240 C   0  0  0  0  0  0  0  0  0  0  0  0
  139.4540   77.8750  222.5800 C   0  0  0  0  0  0  0  0  0  0  0  0
  140.5800   78.2050  221.8720 C   0  0  0  0  0  0  0  0  0  0  0  0
  140.9760   79.6290  221.6730 C   0  0  0  0  0  0  0  0  0  0  0  0
  141.4730   80.3840  222.6360 C   0  0  0  0  0  0  0  0  0  0  0  0
  141.8270   81.7060  222.3870 C   0  0  0  0  0  0  0  0  0  0  0  0
  141.4080   81.9120  220.5580 S   0  0  0  0  0  0  0  0  0  0  0  0
  140.8110   80.1790  220.3920 C   0  0  0  0  0  0  0  0  0  0  0  0
  141.3700   77.2030  221.3340 C   0  0  0  0  0  0  0  0  0  0  0  0
  141.0540   75.8810  221.4910 C   0  0  0  0  0  0  0  0  0  0  0  0
  141.5038   72.9396  220.0671 H   0  0  0  0  0  0  0  0  0  0  0  0
  142.4711   72.8998  221.5743 H   0  0  0  0  0  0  0  0  0  0  0  0
  139.8234   71.3096  220.0276 H   0  0  0  0  0  0  0  0  0  0  0  0
  139.1913   68.9580  220.3517 H   0  0  0  0  0  0  0  0  0  0  0  0
  138.9792   68.0610  222.6726 H   0  0  0  0  0  0  0  0  0  0  0  0
  139.1417   68.5331  227.2474 H   0  0  0  0  0  0  0  0  0  0  0  0
  140.9291   68.4878  227.4809 H   0  0  0  0  0  0  0  0  0  0  0  0
  138.9671   70.6704  228.2559 H   0  0  0  0  0  0  0  0  0  0  0  0
  140.0984   69.7102  229.3037 H   0  0  0  0  0  0  0  0  0  0  0  0
  140.7968   72.0798  228.8793 H   0  0  0  0  0  0  0  0  0  0  0  0
  141.9919   70.7981  228.3995 H   0  0  0  0  0  0  0  0  0  0  0  0
  140.1185   72.3036  226.5186 H   0  0  0  0  0  0  0  0  0  0  0  0
  141.8758   72.5741  226.6897 H   0  0  0  0  0  0  0  0  0  0  0  0
  141.3922   71.0652  224.7920 H   0  0  0  0  0  0  0  0  0  0  0  0
  142.2894   70.1974  226.0726 H   0  0  0  0  0  0  0  0  0  0  0  0
  140.0587   71.9360  224.2581 H   0  0  0  0  0  0  0  0  0  0  0  0
  138.2605   76.2347  223.2913 H   0  0  0  0  0  0  0  0  0  0  0  0
  138.8068   78.6493  223.0179 H   0  0  0  0  0  0  0  0  0  0  0  0
  141.6082   79.9638  223.6436 H   0  0  0  0  0  0  0  0  0  0  0  0
  142.2468   82.4472  223.0830 H   0  0  0  0  0  0  0  0  0  0  0  0
  140.4145   79.6857  219.4923 H   0  0  0  0  0  0  0  0  0  0  0  0
  142.2724   77.4761  220.7674 H   0  0  0  0  0  0  0  0  0  0  0  0
  1  2  2  0
  2  3  1  0
  3  4  1  0
  4  5  1  0
  5  6  2  0
  6  7  1  0
  7  8  2  0
  8  9  1  0
  9 10  1  0
 10 11  2  0
 10 12  1  0
 12 13  1  0
 13 14  1  0
 14 15  1  0
 15 16  1  0
 16 17  1  0
  9 18  2  0
  4 19  2  0
 19 20  1  0
 20 21  2  0
 21 22  1  0
 22 23  2  0
 23 24  1  0
 24 25  1  0
 25 26  2  0
 26 27  1  0
 27 28  1  0
 23 29  1  0
 29 30  2  0
 30  2  1  0
 18  5  1  0
 30 20  1  0
 17 12  1  0
 28 24  2  0
  3 31  1  0
  3 32  1  0
  6 33  1  0
  7 34  1  0
  8 35  1  0
 13 36  1  0
 13 37  1  0
 14 38  1  0
 14 39  1  0
 15 40  1  0
 15 41  1  0
 16 42  1  0
 16 43  1  0
 17 44  1  0
 17 45  1  0
 18 46  1  0
 21 47  1  0
 22 48  1  0
 25 49  1  0
 26 50  1  0
 28 51  1  0
 29 52  1  0
M  END
>  <smiles>  (2) 
O=C1CC(c2cccc(C(=O)N3CCCCC3)c2)=Nc2ccc(-c3ccsc3)cc21

>  <score_type>  (2) 
oracle

>  <origin>  (2) 
autodockgpu

>  <m_score__min__energy>  (2) 
-9.6199999999999992

>  <m_primary>  (2) 
energy

>  <rmsd>  (2) 
10.86801921667846

>  <m_score__min__rmsd>  (2) 
10.86801921667846

>  <meeko>  (2) 
{"free_energy": -9.53, "intermolecular_energy": -10.43, "internal_energy": -0.87, "cluster_size": 50, "cluster_id": 1, "rank_in_cluster": 33}

>  <energy>  (2) 
-9.61

>  <cluster_rmsd>  (2) 
0.11

>  <cluster>  (2) 
1

$$$$

     RDKit          3D

 52 56  0  0  0  0  0  0  0  0999 V2000
  142.8840   75.1690  220.2840 O   0  0  0  0  0  0  0  0  0  0  0  0
  141.8610   74.8260  220.9290 C   0  0  0  0  0  0  0  0  0  0  0  0
  141.5920   73.3840  221.0690 C   0  0  0  0  0  0  0  0  0  0  0  0
  140.3480   73.2030  221.8580 C   0  0  0  0  0  0  0  0  0  0  0  0
  139.9430   71.8040  222.1100 C   0  0  0  0  0  0  0  0  0  0  0  0
  139.6740   70.9370  221.0730 C   0  0  0  0  0  0  0  0  0  0  0  0
  139.3080   69.6210  221.2480 C   0  0  0  0  0  0  0  0  0  0  0  0
  139.2000   69.1310  222.5320 C   0  0  0  0  0  0  0  0  0  0  0  0
  139.4610   69.9710  223.5860 C   0  0  0  0  0  0  0  0  0  0  0  0
  139.3370   69.4030  224.9300 C   0  0  0  0  0  0  0  0  0  0  0  0
  138.4450   68.5590  225.2270 O   0  0  0  0  0  0  0  0  0  0  0  0
  140.2230   69.7840  225.9570 N   0  0  0  0  0  0  0  0  0  0  0  0
  140.0380   69.1720  227.2830 C   0  0  0  0  0  0  0  0  0  0  0  0
  139.9320   70.2420  228.3480 C   0  0  0  0  0  0  0  0  0  0  0  0
  140.9910   71.3080  228.1910 C   0  0  0  0  0  0  0  0  0  0  0  0
  141.0410   71.8640  226.7770 C   0  0  0  0  0  0  0  0  0  0  0  0
  141.2980   70.7240  225.8350 C   0  0  0  0  0  0  0  0  0  0  0  0
  139.8340   71.3100  223.4050 C   0  0  0  0  0  0  0  0  0  0  0  0
  139.6370   74.1510  222.3310 N   0  0  0  0  0  0  0  0  0  0  0  0
  139.9070   75.5390  222.1900 C   0  0  0  0  0  0  0  0  0  0  0  0
  139.1450   76.5400  222.7070 C   0  0  0  0  0  0  0  0  0  0  0  0
  139.4490   77.8950  222.5560 C   0  0  0  0  0  0  0  0  0  0  0  0
  140.5770   78.2140  221.8460 C   0  0  0  0  0  0  0  0  0  0  0  0
  140.9830   79.6340  221.6390 C   0  0  0  0  0  0  0  0  0  0  0  0
  141.4660   80.3980  222.6010 C   0  0  0  0  0  0  0  0  0  0  0  0
  141.8300   81.7150  222.3440 C   0  0  0  0  0  0  0  0  0  0  0  0
  141.4430   81.9030  220.5070 S   0  0  0  0  0  0  0  0  0  0  0  0
  140.8420   80.1710  220.3490 C   0  0  0  0  0  0  0  0  0  0  0  0
  141.3610   77.2040  221.3140 C   0  0  0  0  0  0  0  0  0  0  0  0
  141.0360   75.8840  221.4800 C   0  0  0  0  0  0  0  0  0  0  0  0
  141.4671   72.9330  220.0735 H   0  0  0  0  0  0  0  0  0  0  0  0
  142.4337   72.8952  221.5816 H   0  0  0  0  0  0  0  0  0  0  0  0
  139.7565   71.3188  220.0447 H   0  0  0  0  0  0  0  0  0  0  0  0
  139.1061   68.9743  220.3814 H   0  0  0  0  0  0  0  0  0  0  0  0
  138.9097   68.0849  222.7090 H   0  0  0  0  0  0  0  0  0  0  0  0
  139.1164   68.5715  227.2796 H   0  0  0  0  0  0  0  0  0  0  0  0
  140.9051   68.5325  227.5049 H   0  0  0  0  0  0  0  0  0  0  0  0
  138.9408   70.7140  228.2790 H   0  0  0  0  0  0  0  0  0  0  0  0
  140.0783   69.7612  229.3265 H   0  0  0  0  0  0  0  0  0  0  0  0
  140.7716   72.1306  228.8875 H   0  0  0  0  0  0  0  0  0  0  0  0
  141.9668   70.8491  228.4081 H   0  0  0  0  0  0  0  0  0  0  0  0
  140.0815   72.3420  226.5304 H   0  0  0  0  0  0  0  0  0  0  0  0
  141.8397   72.6156  226.6917 H   0  0  0  0  0  0  0  0  0  0  0  0
  141.3475   71.0996  224.8023 H   0  0  0  0  0  0  0  0  0  0  0  0
  142.2538   70.2386  226.0817 H   0  0  0  0  0  0  0  0  0  0  0  0
  140.0366   71.9575  224.2709 H   0  0  0  0  0  0  0  0  0  0  0  0
  138.2422   76.2683  223.2736 H   0  0  0  0  0  0  0  0  0  0  0  0
  138.8076   78.6760  222.9903 H   0  0  0  0  0  0  0  0  0  0  0  0
  141.5816   79.9889  223.6155 H   0  0  0  0  0  0  0  0  0  0  0  0
  142.2414   82.4618  223.0390 H   0  0  0  0  0  0  0  0  0  0  0  0
  140.4589   79.6696  219.4480 H   0  0  0  0  0  0  0  0  0  0  0  0
  142.2649   77.4679  220.7454 H   0  0  0  0  0  0  0  0  0  0  0  0
  1  2  2  0
  2  3  1  0
  3  4  1  0
  4  5  1  0
  5  6  2  0
  6  7  1  0
  7  8  2  0
  8  9  1  0
  9 10  1  0
 10 11  2  0
 10 12  1  0
 12 13  1  0
 13 14  1  0
 14 15  1  0
 15 16  1  0
 16 17  1  0
  9 18  2  0
  4 19  2  0
 19 20  1  0
 20 21  2  0
 21 22  1  0
 22 23  2  0
 23 24  1  0
 24 25  1  0
 25 26  2  0
 26 27  1  0
 27 28  1  0
 23 29  1  0
 29 30  2  0
 30  2  1  0
 18  5  1  0
 30 20  1  0
 17 12  1  0
 28 24  2  0
  3 31  1  0
  3 32  1  0
  6 33  1  0
  7 34  1  0
  8 35  1  0
 13 36  1  0
 13 37  1  0
 14 38  1  0
 14 39  1  0
 15 40  1  0
 15 41  1  0
 16 42  1  0
 16 43  1  0
 17 44  1  0
 17 45  1  0
 18 46  1  0
 21 47  1  0
 22 48  1  0
 25 49  1  0
 26 50  1  0
 28 51  1  0
 29 52  1  0
M  END
>  <smiles>  (3) 
O=C1CC(c2cccc(C(=O)N3CCCCC3)c2)=Nc2ccc(-c3ccsc3)cc21

>  <score_type>  (3) 
oracle

>  <origin>  (3) 
autodockgpu

>  <m_score__min__energy>  (3) 
-9.6199999999999992

>  <m_primary>  (3) 
energy

>  <rmsd>  (3) 
10.852580006476437

>  <m_score__min__rmsd>  (3) 
10.852580006476437

>  <meeko>  (3) 
{"free_energy": -9.55, "intermolecular_energy": -10.44, "internal_energy": -0.87, "cluster_size": 50, "cluster_id": 1, "rank_in_cluster": 14}

>  <energy>  (3) 
-9.6

>  <cluster_rmsd>  (3) 
0.41

>  <cluster>  (3) 
1

$$$$

     RDKit          3D

 52 56  0  0  0  0  0  0  0  0999 V2000
  142.8820   75.1670  220.2290 O   0  0  0  0  0  0  0  0  0  0  0  0
  141.8700   74.8220  220.8910 C   0  0  0  0  0  0  0  0  0  0  0  0
  141.6060   73.3790  221.0350 C   0  0  0  0  0  0  0  0  0  0  0  0
  140.3750   73.1960  221.8440 C   0  0  0  0  0  0  0  0  0  0  0  0
  139.9760   71.7970  222.1010 C   0  0  0  0  0  0  0  0  0  0  0  0
  139.7220   70.9200  221.0680 C   0  0  0  0  0  0  0  0  0  0  0  0
  139.3630   69.6030  221.2500 C   0  0  0  0  0  0  0  0  0  0  0  0
  139.2460   69.1220  222.5360 C   0  0  0  0  0  0  0  0  0  0  0  0
  139.4920   69.9710  223.5860 C   0  0  0  0  0  0  0  0  0  0  0  0
  139.3590   69.4110  224.9330 C   0  0  0  0  0  0  0  0  0  0  0  0
  138.4560   68.5800  225.2330 O   0  0  0  0  0  0  0  0  0  0  0  0
  140.2480   69.7880  225.9600 N   0  0  0  0  0  0  0  0  0  0  0  0
  140.0540   69.1850  227.2880 C   0  0  0  0  0  0  0  0  0  0  0  0
  139.9590   70.2620  228.3470 C   0  0  0  0  0  0  0  0  0  0  0  0
  141.0300   71.3140  228.1860 C   0  0  0  0  0  0  0  0  0  0  0  0
  141.0890   71.8620  226.7690 C   0  0  0  0  0  0  0  0  0  0  0  0
  141.3350   70.7140  225.8340 C   0  0  0  0  0  0  0  0  0  0  0  0
  139.8580   71.3110  223.3980 C   0  0  0  0  0  0  0  0  0  0  0  0
  139.6710   74.1430  222.3280 N   0  0  0  0  0  0  0  0  0  0  0  0
  139.9360   75.5320  222.1830 C   0  0  0  0  0  0  0  0  0  0  0  0
  139.1810   76.5310  222.7130 C   0  0  0  0  0  0  0  0  0  0  0  0
  139.4800   77.8870  222.5570 C   0  0  0  0  0  0  0  0  0  0  0  0
  140.5960   78.2070  221.8290 C   0  0  0  0  0  0  0  0  0  0  0  0
  140.9960   79.6290  221.6150 C   0  0  0  0  0  0  0  0  0  0  0  0
  141.4590   80.4040  222.5790 C   0  0  0  0  0  0  0  0  0  0  0  0
  141.8190   81.7210  222.3160 C   0  0  0  0  0  0  0  0  0  0  0  0
  141.4600   81.8900  220.4710 S   0  0  0  0  0  0  0  0  0  0  0  0
  140.8720   80.1530  220.3190 C   0  0  0  0  0  0  0  0  0  0  0  0
  141.3730   77.1990  221.2840 C   0  0  0  0  0  0  0  0  0  0  0  0
  141.0530   75.8790  221.4550 C   0  0  0  0  0  0  0  0  0  0  0  0
  141.4659   72.9279  220.0416 H   0  0  0  0  0  0  0  0  0  0  0  0
  142.4567   72.8915  221.5337 H   0  0  0  0  0  0  0  0  0  0  0  0
  139.8114   71.2944  220.0375 H   0  0  0  0  0  0  0  0  0  0  0  0
  139.1735   68.9484  220.3865 H   0  0  0  0  0  0  0  0  0  0  0  0
  138.9603   68.0754  222.7179 H   0  0  0  0  0  0  0  0  0  0  0  0
  139.1254   68.5953  227.2863 H   0  0  0  0  0  0  0  0  0  0  0  0
  140.9130   68.5363  227.5145 H   0  0  0  0  0  0  0  0  0  0  0  0
  138.9735   70.7452  228.2738 H   0  0  0  0  0  0  0  0  0  0  0  0
  140.0981   69.7849  229.3283 H   0  0  0  0  0  0  0  0  0  0  0  0
  140.8191   72.1429  228.8778 H   0  0  0  0  0  0  0  0  0  0  0  0
  142.0000   70.8447  228.4070 H   0  0  0  0  0  0  0  0  0  0  0  0
  140.1354   72.3494  226.5179 H   0  0  0  0  0  0  0  0  0  0  0  0
  141.8961   72.6042  226.6812 H   0  0  0  0  0  0  0  0  0  0  0  0
  141.3910   71.0829  224.7992 H   0  0  0  0  0  0  0  0  0  0  0  0
  142.2848   70.2188  226.0845 H   0  0  0  0  0  0  0  0  0  0  0  0
  140.0484   71.9660  224.2610 H   0  0  0  0  0  0  0  0  0  0  0  0
  138.2884   76.2575  223.2948 H   0  0  0  0  0  0  0  0  0  0  0  0
  138.8444   78.6671  223.0012 H   0  0  0  0  0  0  0  0  0  0  0  0
  141.5607   80.0041  223.5987 H   0  0  0  0  0  0  0  0  0  0  0  0
  142.2147   82.4766  223.0106 H   0  0  0  0  0  0  0  0  0  0  0  0
  140.5061   79.6412  219.4166 H   0  0  0  0  0  0  0  0  0  0  0  0
  142.2671   77.4646  220.7008 H   0  0  0  0  0  0  0  0  0  0  0  0
  1  2  2  0
  2  3  1  0
  3  4  1  0
  4  5  1  0
  5  6  2  0
  6  7  1  0
  7  8  2  0
  8  9  1  0
  9 10  1  0
 10 11  2  0
 10 12  1  0
 12 13  1  0
 13 14  1  0
 14 15  1  0
 15 16  1  0
 16 17  1  0
  9 18  2  0
  4 19  2  0
 19 20  1  0
 20 21  2  0
 21 22  1  0
 22 23  2  0
 23 24  1  0
 24 25  1  0
 25 26  2  0
 26 27  1  0
 27 28  1  0
 23 29  1  0
 29 30  2  0
 30  2  1  0
 18  5  1  0
 30 20  1  0
 17 12  1  0
 28 24  2  0
  3 31  1  0
  3 32  1  0
  6 33  1  0
  7 34  1  0
  8 35  1  0
 13 36  1  0
 13 37  1  0
 14 38  1  0
 14 39  1  0
 15 40  1  0
 15 41  1  0
 16 42  1  0
 16 43  1  0
 17 44  1  0
 17 45  1  0
 18 46  1  0
 21 47  1  0
 22 48  1  0
 25 49  1  0
 26 50  1  0
 28 51  1  0
 29 52  1  0
M  END
>  <smiles>  (4) 
O=C1CC(c2cccc(C(=O)N3CCCCC3)c2)=Nc2ccc(-c3ccsc3)cc21

>  <score_type>  (4) 
oracle

>  <origin>  (4) 
autodockgpu

>  <m_score__min__energy>  (4) 
-9.6199999999999992

>  <m_primary>  (4) 
energy

>  <rmsd>  (4) 
10.853871312074912

>  <m_score__min__rmsd>  (4) 
10.853871312074912

>  <meeko>  (4) 
{"free_energy": -9.53, "intermolecular_energy": -10.43, "internal_energy": -0.88, "cluster_size": 50, "cluster_id": 1, "rank_in_cluster": 31}

>  <energy>  (4) 
-9.58

>  <cluster_rmsd>  (4) 
0.17

>  <cluster>  (4) 
1

$$$$

     RDKit          3D

 52 56  0  0  0  0  0  0  0  0999 V2000
  142.8830   75.1890  220.3680 O   0  0  0  0  0  0  0  0  0  0  0  0
  141.8470   74.8430  220.9900 C   0  0  0  0  0  0  0  0  0  0  0  0
  141.5740   73.4000  221.1160 C   0  0  0  0  0  0  0  0  0  0  0  0
  140.3140   73.2160  221.8780 C   0  0  0  0  0  0  0  0  0  0  0  0
  139.9020   71.8160  222.1130 C   0  0  0  0  0  0  0  0  0  0  0  0
  139.6000   70.9710  221.0670 C   0  0  0  0  0  0  0  0  0  0  0  0
  139.2270   69.6550  221.2260 C   0  0  0  0  0  0  0  0  0  0  0  0
  139.1460   69.1420  222.5020 C   0  0  0  0  0  0  0  0  0  0  0  0
  139.4400   69.9590  223.5650 C   0  0  0  0  0  0  0  0  0  0  0  0
  139.3440   69.3660  224.9010 C   0  0  0  0  0  0  0  0  0  0  0  0
  138.4720   68.5000  225.1940 O   0  0  0  0  0  0  0  0  0  0  0  0
  140.2350   69.7480  225.9240 N   0  0  0  0  0  0  0  0  0  0  0  0
  140.0790   69.1100  227.2410 C   0  0  0  0  0  0  0  0  0  0  0  0
  139.9650   70.1600  228.3250 C   0  0  0  0  0  0  0  0  0  0  0  0
  140.9990   71.2500  228.1740 C   0  0  0  0  0  0  0  0  0  0  0  0
  141.0210   71.8300  226.7690 C   0  0  0  0  0  0  0  0  0  0  0  0
  141.2890   70.7110  225.8050 C   0  0  0  0  0  0  0  0  0  0  0  0
  139.8200   71.2980  223.4000 C   0  0  0  0  0  0  0  0  0  0  0  0
  139.5940   74.1620  222.3420 N   0  0  0  0  0  0  0  0  0  0  0  0
  139.8680   75.5510  222.2150 C   0  0  0  0  0  0  0  0  0  0  0  0
  139.0970   76.5490  222.7230 C   0  0  0  0  0  0  0  0  0  0  0  0
  139.4050   77.9050  222.5860 C   0  0  0  0  0  0  0  0  0  0  0  0
  140.5480   78.2270  221.9010 C   0  0  0  0  0  0  0  0  0  0  0  0
  140.9590   79.6480  221.7110 C   0  0  0  0  0  0  0  0  0  0  0  0
  141.4710   80.3890  222.6750 C   0  0  0  0  0  0  0  0  0  0  0  0
  141.8390   81.7090  222.4340 C   0  0  0  0  0  0  0  0  0  0  0  0
  141.4080   81.9340  220.6110 S   0  0  0  0  0  0  0  0  0  0  0  0
  140.7900   80.2100  220.4350 C   0  0  0  0  0  0  0  0  0  0  0  0
  141.3410   77.2190  221.3790 C   0  0  0  0  0  0  0  0  0  0  0  0
  141.0120   75.8990  221.5300 C   0  0  0  0  0  0  0  0  0  0  0  0
  141.4693   72.9549  220.1155 H   0  0  0  0  0  0  0  0  0  0  0  0
  142.4045   72.9073  221.6428 H   0  0  0  0  0  0  0  0  0  0  0  0
  139.6605   71.3716  220.0443 H   0  0  0  0  0  0  0  0  0  0  0  0
  138.9985   69.0266  220.3525 H   0  0  0  0  0  0  0  0  0  0  0  0
  138.8506   68.0952  222.6662 H   0  0  0  0  0  0  0  0  0  0  0  0
  139.1696   68.4911  227.2386 H   0  0  0  0  0  0  0  0  0  0  0  0
  140.9612   68.4842  227.4414 H   0  0  0  0  0  0  0  0  0  0  0  0
  138.9635   70.6124  228.2761 H   0  0  0  0  0  0  0  0  0  0  0  0
  140.1341   69.6658  229.2931 H   0  0  0  0  0  0  0  0  0  0  0  0
  140.7704   72.0563  228.8865 H   0  0  0  0  0  0  0  0  0  0  0  0
  141.9867   70.8083  228.3725 H   0  0  0  0  0  0  0  0  0  0  0  0
  140.0493   72.2928  226.5417 H   0  0  0  0  0  0  0  0  0  0  0  0
  141.8037   72.5985  226.6869 H   0  0  0  0  0  0  0  0  0  0  0  0
  141.3182   71.1045  224.7782 H   0  0  0  0  0  0  0  0  0  0  0  0
  142.2572   70.2409  226.0321 H   0  0  0  0  0  0  0  0  0  0  0  0
  140.0491   71.9271  224.2728 H   0  0  0  0  0  0  0  0  0  0  0  0
  138.1832   76.2747  223.2704 H   0  0  0  0  0  0  0  0  0  0  0  0
  138.7554   78.6841  223.0114 H   0  0  0  0  0  0  0  0  0  0  0  0
  141.6082   79.9594  223.6783 H   0  0  0  0  0  0  0  0  0  0  0  0
  142.2732   82.4395  223.1325 H   0  0  0  0  0  0  0  0  0  0  0  0
  140.3809   79.7286  219.5345 H   0  0  0  0  0  0  0  0  0  0  0  0
  142.2565   77.4852  220.8303 H   0  0  0  0  0  0  0  0  0  0  0  0
  1  2  2  0
  2  3  1  0
  3  4  1  0
  4  5  1  0
  5  6  2  0
  6  7  1  0
  7  8  2  0
  8  9  1  0
  9 10  1  0
 10 11  2  0
 10 12  1  0
 12 13  1  0
 13 14  1  0
 14 15  1  0
 15 16  1  0
 16 17  1  0
  9 18  2  0
  4 19  2  0
 19 20  1  0
 20 21  2  0
 21 22  1  0
 22 23  2  0
 23 24  1  0
 24 25  1  0
 25 26  2  0
 26 27  1  0
 27 28  1  0
 23 29  1  0
 29 30  2  0
 30  2  1  0
 18  5  1  0
 30 20  1  0
 17 12  1  0
 28 24  2  0
  3 31  1  0
  3 32  1  0
  6 33  1  0
  7 34  1  0
  8 35  1  0
 13 36  1  0
 13 37  1  0
 14 38  1  0
 14 39  1  0
 15 40  1  0
 15 41  1  0
 16 42  1  0
 16 43  1  0
 17 44  1  0
 17 45  1  0
 18 46  1  0
 21 47  1  0
 22 48  1  0
 25 49  1  0
 26 50  1  0
 28 51  1  0
 29 52  1  0
M  END
>  <smiles>  (5) 
O=C1CC(c2cccc(C(=O)N3CCCCC3)c2)=Nc2ccc(-c3ccsc3)cc21

>  <score_type>  (5) 
oracle

>  <origin>  (5) 
autodockgpu

>  <m_score__min__energy>  (5) 
-9.6199999999999992

>  <m_primary>  (5) 
energy

>  <rmsd>  (5) 
10.852487114574958

>  <m_score__min__rmsd>  (5) 
10.852487114574958

>  <meeko>  (5) 
{"free_energy": -9.56, "intermolecular_energy": -10.45, "internal_energy": -0.84, "cluster_size": 50, "cluster_id": 1, "rank_in_cluster": 8}

>  <energy>  (5) 
-9.57

>  <cluster_rmsd>  (5) 
0.41

>  <cluster>  (5) 
1

$$$$

     RDKit          3D

 52 56  0  0  0  0  0  0  0  0999 V2000
  142.8930   75.2110  220.2630 O   0  0  0  0  0  0  0  0  0  0  0  0
  141.8750   74.8590  220.9120 C   0  0  0  0  0  0  0  0  0  0  0  0
  141.6140   73.4140  221.0430 C   0  0  0  0  0  0  0  0  0  0  0  0
  140.3750   73.2230  221.8380 C   0  0  0  0  0  0  0  0  0  0  0  0
  139.9780   71.8200  222.0820 C   0  0  0  0  0  0  0  0  0  0  0  0
  139.7200   70.9550  221.0410 C   0  0  0  0  0  0  0  0  0  0  0  0
  139.3620   69.6360  221.2090 C   0  0  0  0  0  0  0  0  0  0  0  0
  139.2500   69.1410  222.4900 C   0  0  0  0  0  0  0  0  0  0  0  0
  139.4990   69.9780  223.5490 C   0  0  0  0  0  0  0  0  0  0  0  0
  139.3710   69.4040  224.8900 C   0  0  0  0  0  0  0  0  0  0  0  0
  138.4800   68.5570  225.1800 O   0  0  0  0  0  0  0  0  0  0  0  0
  140.2510   69.7850  225.9230 N   0  0  0  0  0  0  0  0  0  0  0  0
  140.0630   69.1660  227.2450 C   0  0  0  0  0  0  0  0  0  0  0  0
  139.9490   70.2320  228.3140 C   0  0  0  0  0  0  0  0  0  0  0  0
  141.0040   71.3020  228.1660 C   0  0  0  0  0  0  0  0  0  0  0  0
  141.0590   71.8640  226.7540 C   0  0  0  0  0  0  0  0  0  0  0  0
  141.3240   70.7280  225.8090 C   0  0  0  0  0  0  0  0  0  0  0  0
  139.8640   71.3210  223.3750 C   0  0  0  0  0  0  0  0  0  0  0  0
  139.6630   74.1640  222.3210 N   0  0  0  0  0  0  0  0  0  0  0  0
  139.9250   75.5550  222.1890 C   0  0  0  0  0  0  0  0  0  0  0  0
  139.1630   76.5480  222.7180 C   0  0  0  0  0  0  0  0  0  0  0  0
  139.4590   77.9060  222.5740 C   0  0  0  0  0  0  0  0  0  0  0  0
  140.5820   78.2340  221.8600 C   0  0  0  0  0  0  0  0  0  0  0  0
  140.9800   79.6580  221.6600 C   0  0  0  0  0  0  0  0  0  0  0  0
  141.4680   80.4160  222.6250 C   0  0  0  0  0  0  0  0  0  0  0  0
  141.8240   81.7370  222.3750 C   0  0  0  0  0  0  0  0  0  0  0  0
  141.4220   81.9370  220.5420 S   0  0  0  0  0  0  0  0  0  0  0  0
  140.8270   80.2040  220.3760 C   0  0  0  0  0  0  0  0  0  0  0  0
  141.3670   77.2320  221.3170 C   0  0  0  0  0  0  0  0  0  0  0  0
  141.0490   75.9090  221.4750 C   0  0  0  0  0  0  0  0  0  0  0  0
  141.4855   72.9694  220.0451 H   0  0  0  0  0  0  0  0  0  0  0  0
  142.4609   72.9249  221.5465 H   0  0  0  0  0  0  0  0  0  0  0  0
  139.8051   71.3411  220.0145 H   0  0  0  0  0  0  0  0  0  0  0  0
  139.1695   68.9911  220.3389 H   0  0  0  0  0  0  0  0  0  0  0  0
  138.9657   68.0923  222.6612 H   0  0  0  0  0  0  0  0  0  0  0  0
  139.1435   68.5623  227.2353 H   0  0  0  0  0  0  0  0  0  0  0  0
  140.9310   68.5280  227.4676 H   0  0  0  0  0  0  0  0  0  0  0  0
  138.9564   70.7007  228.2427 H   0  0  0  0  0  0  0  0  0  0  0  0
  140.0933   69.7478  229.2911 H   0  0  0  0  0  0  0  0  0  0  0  0
  140.7781   72.1211  228.8646 H   0  0  0  0  0  0  0  0  0  0  0  0
  141.9805   70.8457  228.3858 H   0  0  0  0  0  0  0  0  0  0  0  0
  140.0992   72.3400  226.5047 H   0  0  0  0  0  0  0  0  0  0  0  0
  141.8556   72.6185  226.6753 H   0  0  0  0  0  0  0  0  0  0  0  0
  141.3773   71.1073  224.7778 H   0  0  0  0  0  0  0  0  0  0  0  0
  142.2801   70.2445  226.0580 H   0  0  0  0  0  0  0  0  0  0  0  0
  140.0563   71.9670  224.2443 H   0  0  0  0  0  0  0  0  0  0  0  0
  138.2659   76.2680  223.2897 H   0  0  0  0  0  0  0  0  0  0  0  0
  138.8161   78.6813  223.0163 H   0  0  0  0  0  0  0  0  0  0  0  0
  141.5940   79.9991  223.6351 H   0  0  0  0  0  0  0  0  0  0  0  0
  142.2372   82.4805  223.0724 H   0  0  0  0  0  0  0  0  0  0  0  0
  140.4390   79.7078  219.4742 H   0  0  0  0  0  0  0  0  0  0  0  0
  142.2667   77.5041  220.7456 H   0  0  0  0  0  0  0  0  0  0  0  0
  1  2  2  0
  2  3  1  0
  3  4  1  0
  4  5  1  0
  5  6  2  0
  6  7  1  0
  7  8  2  0
  8  9  1  0
  9 10  1  0
 10 11  2  0
 10 12  1  0
 12 13  1  0
 13 14  1  0
 14 15  1  0
 15 16  1  0
 16 17  1  0
  9 18  2  0
  4 19  2  0
 19 20  1  0
 20 21  2  0
 21 22  1  0
 22 23  2  0
 23 24  1  0
 24 25  1  0
 25 26  2  0
 26 27  1  0
 27 28  1  0
 23 29  1  0
 29 30  2  0
 30  2  1  0
 18  5  1  0
 30 20  1  0
 17 12  1  0
 28 24  2  0
  3 31  1  0
  3 32  1  0
  6 33  1  0
  7 34  1  0
  8 35  1  0
 13 36  1  0
 13 37  1  0
 14 38  1  0
 14 39  1  0
 15 40  1  0
 15 41  1  0
 16 42  1  0
 16 43  1  0
 17 44  1  0
 17 45  1  0
 18 46  1  0
 21 47  1  0
 22 48  1  0
 25 49  1  0
 26 50  1  0
 28 51  1  0
 29 52  1  0
M  END
>  <smiles>  (6) 
O=C1CC(c2cccc(C(=O)N3CCCCC3)c2)=Nc2ccc(-c3ccsc3)cc21

>  <score_type>  (6) 
oracle

>  <origin>  (6) 
autodockgpu

>  <m_score__min__energy>  (6) 
-9.6199999999999992

>  <m_primary>  (6) 
energy

>  <rmsd>  (6) 
10.835593432630349

>  <m_score__min__rmsd>  (6) 
10.835593432630349

>  <meeko>  (6) 
{"free_energy": -9.54, "intermolecular_energy": -10.44, "internal_energy": -0.87, "cluster_size": 50, "cluster_id": 1, "rank_in_cluster": 23}

>  <energy>  (6) 
-9.56

>  <cluster_rmsd>  (6) 
0.24

>  <cluster>  (6) 
1

$$$$

     RDKit          3D

 52 56  0  0  0  0  0  0  0  0999 V2000
  142.8320   75.2150  220.1650 O   0  0  0  0  0  0  0  0  0  0  0  0
  141.8380   74.8510  220.8420 C   0  0  0  0  0  0  0  0  0  0  0  0
  141.6030   73.4040  220.9900 C   0  0  0  0  0  0  0  0  0  0  0  0
  140.3890   73.1980  221.8180 C   0  0  0  0  0  0  0  0  0  0  0  0
  140.0210   71.7910  222.0820 C   0  0  0  0  0  0  0  0  0  0  0  0
  139.8330   70.8920  221.0540 C   0  0  0  0  0  0  0  0  0  0  0  0
  139.5060   69.5680  221.2420 C   0  0  0  0  0  0  0  0  0  0  0  0
  139.3520   69.1030  222.5300 C   0  0  0  0  0  0  0  0  0  0  0  0
  139.5310   69.9730  223.5750 C   0  0  0  0  0  0  0  0  0  0  0  0
  139.3610   69.4300  224.9250 C   0  0  0  0  0  0  0  0  0  0  0  0
  138.4460   68.6080  225.2110 O   0  0  0  0  0  0  0  0  0  0  0  0
  140.2260   69.8130  225.9690 N   0  0  0  0  0  0  0  0  0  0  0  0
  139.9950   69.2270  227.2990 C   0  0  0  0  0  0  0  0  0  0  0  0
  139.8800   70.3160  228.3430 C   0  0  0  0  0  0  0  0  0  0  0  0
  140.9610   71.3600  228.1980 C   0  0  0  0  0  0  0  0  0  0  0  0
  141.0590   71.8920  226.7760 C   0  0  0  0  0  0  0  0  0  0  0  0
  141.3210   70.7320  225.8610 C   0  0  0  0  0  0  0  0  0  0  0  0
  139.8650   71.3210  223.3810 C   0  0  0  0  0  0  0  0  0  0  0  0
  139.6740   74.1310  222.3130 N   0  0  0  0  0  0  0  0  0  0  0  0
  139.9100   75.5250  222.1640 C   0  0  0  0  0  0  0  0  0  0  0  0
  139.1450   76.5100  222.7060 C   0  0  0  0  0  0  0  0  0  0  0  0
  139.4160   77.8710  222.5440 C   0  0  0  0  0  0  0  0  0  0  0  0
  140.5140   78.2120  221.7990 C   0  0  0  0  0  0  0  0  0  0  0  0
  140.8830   79.6410  221.5790 C   0  0  0  0  0  0  0  0  0  0  0  0
  141.1160   80.1540  220.3850 C   0  0  0  0  0  0  0  0  0  0  0  0
  141.4540   81.4960  220.2460 C   0  0  0  0  0  0  0  0  0  0  0  0
  141.4400   82.1160  222.0280 S   0  0  0  0  0  0  0  0  0  0  0  0
  140.9810   80.4690  222.7090 C   0  0  0  0  0  0  0  0  0  0  0  0
  141.3010   77.2180  221.2430 C   0  0  0  0  0  0  0  0  0  0  0  0
  141.0090   75.8920  221.4180 C   0  0  0  0  0  0  0  0  0  0  0  0
  141.4556   72.9503  219.9988 H   0  0  0  0  0  0  0  0  0  0  0  0
  142.4703   72.9326  221.4753 H   0  0  0  0  0  0  0  0  0  0  0  0
  139.9513   71.2541  220.0221 H   0  0  0  0  0  0  0  0  0  0  0  0
  139.3705   68.8954  220.3822 H   0  0  0  0  0  0  0  0  0  0  0  0
  139.0898   68.0512  222.7170 H   0  0  0  0  0  0  0  0  0  0  0  0
  139.0632   68.6428  227.2807 H   0  0  0  0  0  0  0  0  0  0  0  0
  140.8444   68.5764  227.5544 H   0  0  0  0  0  0  0  0  0  0  0  0
  138.8997   70.8041  228.2396 H   0  0  0  0  0  0  0  0  0  0  0  0
  139.9916   69.8489  229.3326 H   0  0  0  0  0  0  0  0  0  0  0  0
  140.7376   72.1977  228.8750 H   0  0  0  0  0  0  0  0  0  0  0  0
  141.9223   70.8879  228.4490 H   0  0  0  0  0  0  0  0  0  0  0  0
  140.1151   72.3823  226.4955 H   0  0  0  0  0  0  0  0  0  0  0  0
  141.8725   72.6285  226.7000 H   0  0  0  0  0  0  0  0  0  0  0  0
  141.4054   71.0888  224.8239 H   0  0  0  0  0  0  0  0  0  0  0  0
  142.2608   70.2342  226.1420 H   0  0  0  0  0  0  0  0  0  0  0  0
  140.0010   71.9939  224.2405 H   0  0  0  0  0  0  0  0  0  0  0  0
  138.2675   76.2203  223.3028 H   0  0  0  0  0  0  0  0  0  0  0  0
  138.7724   78.6393  222.9973 H   0  0  0  0  0  0  0  0  0  0  0  0
  141.0422   79.5148  219.4928 H   0  0  0  0  0  0  0  0  0  0  0  0
  141.6747   82.0567  219.3257 H   0  0  0  0  0  0  0  0  0  0  0  0
  140.8200   80.1953  223.7622 H   0  0  0  0  0  0  0  0  0  0  0  0
  142.1813   77.5002  220.6468 H   0  0  0  0  0  0  0  0  0  0  0  0
  1  2  2  0
  2  3  1  0
  3  4  1  0
  4  5  1  0
  5  6  2  0
  6  7  1  0
  7  8  2  0
  8  9  1  0
  9 10  1  0
 10 11  2  0
 10 12  1  0
 12 13  1  0
 13 14  1  0
 14 15  1  0
 15 16  1  0
 16 17  1  0
  9 18  2  0
  4 19  2  0
 19 20  1  0
 20 21  2  0
 21 22  1  0
 22 23  2  0
 23 24  1  0
 24 25  1  0
 25 26  2  0
 26 27  1  0
 27 28  1  0
 23 29  1  0
 29 30  2  0
 30  2  1  0
 18  5  1  0
 30 20  1  0
 17 12  1  0
 28 24  2  0
  3 31  1  0
  3 32  1  0
  6 33  1  0
  7 34  1  0
  8 35  1  0
 13 36  1  0
 13 37  1  0
 14 38  1  0
 14 39  1  0
 15 40  1  0
 15 41  1  0
 16 42  1  0
 16 43  1  0
 17 44  1  0
 17 45  1  0
 18 46  1  0
 21 47  1  0
 22 48  1  0
 25 49  1  0
 26 50  1  0
 28 51  1  0
 29 52  1  0
M  END
>  <smiles>  (7) 
O=C1CC(c2cccc(C(=O)N3CCCCC3)c2)=Nc2ccc(-c3ccsc3)cc21

>  <score_type>  (7) 
oracle

>  <origin>  (7) 
autodockgpu

>  <m_score__min__energy>  (7) 
-9.6199999999999992

>  <m_primary>  (7) 
energy

>  <rmsd>  (7) 
10.854718727659106

>  <m_score__min__rmsd>  (7) 
10.854718727659106

>  <meeko>  (7) 
{"free_energy": -9.45, "intermolecular_energy": -10.35, "internal_energy": -0.91, "cluster_size": 50, "cluster_id": 1, "rank_in_cluster": 46}

>  <energy>  (7) 
-9.56

>  <cluster_rmsd>  (7) 
0.23

>  <cluster>  (7) 
1

$$$$

     RDKit          3D

 52 56  0  0  0  0  0  0  0  0999 V2000
  142.8760   75.1870  220.2180 O   0  0  0  0  0  0  0  0  0  0  0  0
  141.8680   74.8380  220.8830 C   0  0  0  0  0  0  0  0  0  0  0  0
  141.6100   73.3940  221.0260 C   0  0  0  0  0  0  0  0  0  0  0  0
  140.3830   73.2050  221.8400 C   0  0  0  0  0  0  0  0  0  0  0  0
  139.9900   71.8040  222.0970 C   0  0  0  0  0  0  0  0  0  0  0  0
  139.7410   70.9270  221.0630 C   0  0  0  0  0  0  0  0  0  0  0  0
  139.3870   69.6080  221.2430 C   0  0  0  0  0  0  0  0  0  0  0  0
  139.2710   69.1260  222.5290 C   0  0  0  0  0  0  0  0  0  0  0  0
  139.5130   69.9750  223.5800 C   0  0  0  0  0  0  0  0  0  0  0  0
  139.3810   69.4140  224.9270 C   0  0  0  0  0  0  0  0  0  0  0  0
  138.4820   68.5790  225.2250 O   0  0  0  0  0  0  0  0  0  0  0  0
  140.2680   69.7940  225.9540 N   0  0  0  0  0  0  0  0  0  0  0  0
  140.0760   69.1890  227.2820 C   0  0  0  0  0  0  0  0  0  0  0  0
  139.9750   70.2650  228.3420 C   0  0  0  0  0  0  0  0  0  0  0  0
  141.0420   71.3220  228.1820 C   0  0  0  0  0  0  0  0  0  0  0  0
  141.1000   71.8710  226.7660 C   0  0  0  0  0  0  0  0  0  0  0  0
  141.3510   70.7250  225.8300 C   0  0  0  0  0  0  0  0  0  0  0  0
  139.8730   71.3170  223.3930 C   0  0  0  0  0  0  0  0  0  0  0  0
  139.6780   74.1480  222.3300 N   0  0  0  0  0  0  0  0  0  0  0  0
  139.9380   75.5390  222.1870 C   0  0  0  0  0  0  0  0  0  0  0  0
  139.1820   76.5340  222.7230 C   0  0  0  0  0  0  0  0  0  0  0  0
  139.4760   77.8920  222.5680 C   0  0  0  0  0  0  0  0  0  0  0  0
  140.5880   78.2170  221.8350 C   0  0  0  0  0  0  0  0  0  0  0  0
  140.9820   79.6400  221.6230 C   0  0  0  0  0  0  0  0  0  0  0  0
  141.4070   80.4270  222.5950 C   0  0  0  0  0  0  0  0  0  0  0  0
  141.7630   81.7450  222.3320 C   0  0  0  0  0  0  0  0  0  0  0  0
  141.4630   81.8960  220.4750 S   0  0  0  0  0  0  0  0  0  0  0  0
  140.8960   80.1530  220.3190 C   0  0  0  0  0  0  0  0  0  0  0  0
  141.3650   77.2120  221.2850 C   0  0  0  0  0  0  0  0  0  0  0  0
  141.0500   75.8910  221.4540 C   0  0  0  0  0  0  0  0  0  0  0  0
  141.4674   72.9438  220.0325 H   0  0  0  0  0  0  0  0  0  0  0  0
  142.4646   72.9090  221.5204 H   0  0  0  0  0  0  0  0  0  0  0  0
  139.8303   71.3028  220.0330 H   0  0  0  0  0  0  0  0  0  0  0  0
  139.2009   68.9534  220.3788 H   0  0  0  0  0  0  0  0  0  0  0  0
  138.9891   68.0783  222.7101 H   0  0  0  0  0  0  0  0  0  0  0  0
  139.1503   68.5948  227.2793 H   0  0  0  0  0  0  0  0  0  0  0  0
  140.9380   68.5444  227.5086 H   0  0  0  0  0  0  0  0  0  0  0  0
  138.9875   70.7439  228.2683 H   0  0  0  0  0  0  0  0  0  0  0  0
  140.1151   69.7881  229.3233 H   0  0  0  0  0  0  0  0  0  0  0  0
  140.8271   72.1496  228.8741 H   0  0  0  0  0  0  0  0  0  0  0  0
  142.0138   70.8564  228.4033 H   0  0  0  0  0  0  0  0  0  0  0  0
  140.1447   72.3550  226.5146 H   0  0  0  0  0  0  0  0  0  0  0  0
  141.9045   72.6162  226.6795 H   0  0  0  0  0  0  0  0  0  0  0  0
  141.4060   71.0953  224.7957 H   0  0  0  0  0  0  0  0  0  0  0  0
  142.3025   70.2335  226.0809 H   0  0  0  0  0  0  0  0  0  0  0  0
  140.0594   71.9724  224.2565 H   0  0  0  0  0  0  0  0  0  0  0  0
  138.2934   76.2562  223.3088 H   0  0  0  0  0  0  0  0  0  0  0  0
  138.8399   78.6693  223.0166 H   0  0  0  0  0  0  0  0  0  0  0  0
  141.4798   80.0365  223.6208 H   0  0  0  0  0  0  0  0  0  0  0  0
  142.1288   82.5100  223.0326 H   0  0  0  0  0  0  0  0  0  0  0  0
  140.5645   79.6307  219.4095 H   0  0  0  0  0  0  0  0  0  0  0  0
  142.2559   77.4813  220.6988 H   0  0  0  0  0  0  0  0  0  0  0  0
  1  2  2  0
  2  3  1  0
  3  4  1  0
  4  5  1  0
  5  6  2  0
  6  7  1  0
  7  8  2  0
  8  9  1  0
  9 10  1  0
 10 11  2  0
 10 12  1  0
 12 13  1  0
 13 14  1  0
 14 15  1  0
 15 16  1  0
 16 17  1  0
  9 18  2  0
  4 19  2  0
 19 20  1  0
 20 21  2  0
 21 22  1  0
 22 23  2  0
 23 24  1  0
 24 25  1  0
 25 26  2  0
 26 27  1  0
 27 28  1  0
 23 29  1  0
 29 30  2  0
 30  2  1  0
 18  5  1  0
 30 20  1  0
 17 12  1  0
 28 24  2  0
  3 31  1  0
  3 32  1  0
  6 33  1  0
  7 34  1  0
  8 35  1  0
 13 36  1  0
 13 37  1  0
 14 38  1  0
 14 39  1  0
 15 40  1  0
 15 41  1  0
 16 42  1  0
 16 43  1  0
 17 44  1  0
 17 45  1  0
 18 46  1  0
 21 47  1  0
 22 48  1  0
 25 49  1  0
 26 50  1  0
 28 51  1  0
 29 52  1  0
M  END
>  <smiles>  (8) 
O=C1CC(c2cccc(C(=O)N3CCCCC3)c2)=Nc2ccc(-c3ccsc3)cc21

>  <score_type>  (8) 
oracle

>  <origin>  (8) 
autodockgpu

>  <m_score__min__energy>  (8) 
-9.6199999999999992

>  <m_primary>  (8) 
energy

>  <rmsd>  (8) 
10.847715745171305

>  <m_score__min__rmsd>  (8) 
10.847715745171305

>  <meeko>  (8) 
{"free_energy": -9.52, "intermolecular_energy": -10.41, "internal_energy": -0.88, "cluster_size": 50, "cluster_id": 1, "rank_in_cluster": 35}

>  <energy>  (8) 
-9.56

>  <cluster_rmsd>  (8) 
0.23

>  <cluster>  (8) 
1

$$$$

     RDKit          3D

 52 56  0  0  0  0  0  0  0  0999 V2000
  142.8600   75.1870  220.2810 O   0  0  0  0  0  0  0  0  0  0  0  0
  141.8400   74.8350  220.9260 C   0  0  0  0  0  0  0  0  0  0  0  0
  141.5830   73.3900  221.0650 C   0  0  0  0  0  0  0  0  0  0  0  0
  140.3410   73.1990  221.8550 C   0  0  0  0  0  0  0  0  0  0  0  0
  139.9470   71.7970  222.1050 C   0  0  0  0  0  0  0  0  0  0  0  0
  139.6890   70.9270  221.0670 C   0  0  0  0  0  0  0  0  0  0  0  0
  139.3350   69.6080  221.2420 C   0  0  0  0  0  0  0  0  0  0  0  0
  139.2260   69.1170  222.5250 C   0  0  0  0  0  0  0  0  0  0  0  0
  139.4760   69.9590  223.5790 C   0  0  0  0  0  0  0  0  0  0  0  0
  139.3520   69.3900  224.9240 C   0  0  0  0  0  0  0  0  0  0  0  0
  138.4570   68.5500  225.2210 O   0  0  0  0  0  0  0  0  0  0  0  0
  140.2410   69.7680  225.9500 N   0  0  0  0  0  0  0  0  0  0  0  0
  140.0570   69.1550  227.2750 C   0  0  0  0  0  0  0  0  0  0  0  0
  139.9570   70.2240  228.3410 C   0  0  0  0  0  0  0  0  0  0  0  0
  141.0180   71.2860  228.1840 C   0  0  0  0  0  0  0  0  0  0  0  0
  141.0680   71.8440  226.7700 C   0  0  0  0  0  0  0  0  0  0  0  0
  141.3200   70.7040  225.8260 C   0  0  0  0  0  0  0  0  0  0  0  0
  139.8380   71.3020  223.3990 C   0  0  0  0  0  0  0  0  0  0  0  0
  139.6230   74.1400  222.3280 N   0  0  0  0  0  0  0  0  0  0  0  0
  139.8810   75.5310  222.1890 C   0  0  0  0  0  0  0  0  0  0  0  0
  139.1120   76.5250  222.7080 C   0  0  0  0  0  0  0  0  0  0  0  0
  139.4040   77.8830  222.5580 C   0  0  0  0  0  0  0  0  0  0  0  0
  140.5300   78.2110  221.8470 C   0  0  0  0  0  0  0  0  0  0  0  0
  140.9240   79.6350  221.6410 C   0  0  0  0  0  0  0  0  0  0  0  0
  141.4480   80.3870  222.5920 C   0  0  0  0  0  0  0  0  0  0  0  0
  141.7980   81.7080  222.3370 C   0  0  0  0  0  0  0  0  0  0  0  0
  141.3300   81.9190  220.5200 S   0  0  0  0  0  0  0  0  0  0  0  0
  140.7260   80.1880  220.3660 C   0  0  0  0  0  0  0  0  0  0  0  0
  141.3210   77.2080  221.3140 C   0  0  0  0  0  0  0  0  0  0  0  0
  141.0070   75.8860  221.4780 C   0  0  0  0  0  0  0  0  0  0  0  0
  141.4609   72.9387  220.0693 H   0  0  0  0  0  0  0  0  0  0  0  0
  142.4290   72.9073  221.5761 H   0  0  0  0  0  0  0  0  0  0  0  0
  139.7708   71.3091  220.0387 H   0  0  0  0  0  0  0  0  0  0  0  0
  139.1430   68.9590  220.3749 H   0  0  0  0  0  0  0  0  0  0  0  0
  138.9435   68.0685  222.7010 H   0  0  0  0  0  0  0  0  0  0  0  0
  139.1334   68.5576  227.2729 H   0  0  0  0  0  0  0  0  0  0  0  0
  140.9223   68.5122  227.4942 H   0  0  0  0  0  0  0  0  0  0  0  0
  138.9673   70.6994  228.2744 H   0  0  0  0  0  0  0  0  0  0  0  0
  140.1040   69.7413  229.3185 H   0  0  0  0  0  0  0  0  0  0  0  0
  140.8020   72.1084  228.8819 H   0  0  0  0  0  0  0  0  0  0  0  0
  141.9927   70.8238  228.3991 H   0  0  0  0  0  0  0  0  0  0  0  0
  140.1097   72.3255  226.5253 H   0  0  0  0  0  0  0  0  0  0  0  0
  141.8690   72.5931  226.6846 H   0  0  0  0  0  0  0  0  0  0  0  0
  141.3689   71.0803  224.7935 H   0  0  0  0  0  0  0  0  0  0  0  0
  142.2748   70.2151  226.0695 H   0  0  0  0  0  0  0  0  0  0  0  0
  140.0319   71.9512  224.2656 H   0  0  0  0  0  0  0  0  0  0  0  0
  138.2125   76.2452  223.2759 H   0  0  0  0  0  0  0  0  0  0  0  0
  138.7564   78.6585  222.9930 H   0  0  0  0  0  0  0  0  0  0  0  0
  141.6089   79.9643  223.5947 H   0  0  0  0  0  0  0  0  0  0  0  0
  142.2381   82.4466  223.0231 H   0  0  0  0  0  0  0  0  0  0  0  0
  140.3049   79.6973  219.4761 H   0  0  0  0  0  0  0  0  0  0  0  0
  142.2227   77.4796  220.7455 H   0  0  0  0  0  0  0  0  0  0  0  0
  1  2  2  0
  2  3  1  0
  3  4  1  0
  4  5  1  0
  5  6  2  0
  6  7  1  0
  7  8  2  0
  8  9  1  0
  9 10  1  0
 10 11  2  0
 10 12  1  0
 12 13  1  0
 13 14  1  0
 14 15  1  0
 15 16  1  0
 16 17  1  0
  9 18  2  0
  4 19  2  0
 19 20  1  0
 20 21  2  0
 21 22  1  0
 22 23  2  0
 23 24  1  0
 24 25  1  0
 25 26  2  0
 26 27  1  0
 27 28  1  0
 23 29  1  0
 29 30  2  0
 30  2  1  0
 18  5  1  0
 30 20  1  0
 17 12  1  0
 28 24  2  0
  3 31  1  0
  3 32  1  0
  6 33  1  0
  7 34  1  0
  8 35  1  0
 13 36  1  0
 13 37  1  0
 14 38  1  0
 14 39  1  0
 15 40  1  0
 15 41  1  0
 16 42  1  0
 16 43  1  0
 17 44  1  0
 17 45  1  0
 18 46  1  0
 21 47  1  0
 22 48  1  0
 25 49  1  0
 26 50  1  0
 28 51  1  0
 29 52  1  0
M  END
>  <smiles>  (9) 
O=C1CC(c2cccc(C(=O)N3CCCCC3)c2)=Nc2ccc(-c3ccsc3)cc21

>  <score_type>  (9) 
oracle

>  <origin>  (9) 
autodockgpu

>  <m_score__min__energy>  (9) 
-9.6199999999999992

>  <m_primary>  (9) 
energy

>  <rmsd>  (9) 
10.860374956054695

>  <m_score__min__rmsd>  (9) 
10.860374956054695

>  <meeko>  (9) 
{"free_energy": -9.53, "intermolecular_energy": -10.43, "internal_energy": -0.88, "cluster_size": 50, "cluster_id": 1, "rank_in_cluster": 32}

>  <energy>  (9) 
-9.56

>  <cluster_rmsd>  (9) 
0.24

>  <cluster>  (9) 
1

$$$$

     RDKit          3D

 52 56  0  0  0  0  0  0  0  0999 V2000
  142.8910   75.2040  220.2300 O   0  0  0  0  0  0  0  0  0  0  0  0
  141.8820   74.8490  220.8900 C   0  0  0  0  0  0  0  0  0  0  0  0
  141.6270   73.4030  221.0250 C   0  0  0  0  0  0  0  0  0  0  0  0
  140.3980   73.2080  221.8340 C   0  0  0  0  0  0  0  0  0  0  0  0
  140.0080   71.8040  222.0840 C   0  0  0  0  0  0  0  0  0  0  0  0
  139.7840   70.9250  221.0460 C   0  0  0  0  0  0  0  0  0  0  0  0
  139.4350   69.6040  221.2200 C   0  0  0  0  0  0  0  0  0  0  0  0
  139.2970   69.1220  222.5030 C   0  0  0  0  0  0  0  0  0  0  0  0
  139.5120   69.9730  223.5580 C   0  0  0  0  0  0  0  0  0  0  0  0
  139.3570   69.4120  224.9020 C   0  0  0  0  0  0  0  0  0  0  0  0
  138.4480   68.5820  225.1870 O   0  0  0  0  0  0  0  0  0  0  0  0
  140.2310   69.7860  225.9430 N   0  0  0  0  0  0  0  0  0  0  0  0
  140.0150   69.1820  227.2680 C   0  0  0  0  0  0  0  0  0  0  0  0
  139.9050   70.2570  228.3270 C   0  0  0  0  0  0  0  0  0  0  0  0
  140.9800   71.3080  228.1840 C   0  0  0  0  0  0  0  0  0  0  0  0
  141.0620   71.8580  226.7690 C   0  0  0  0  0  0  0  0  0  0  0  0
  141.3210   70.7110  225.8360 C   0  0  0  0  0  0  0  0  0  0  0  0
  139.8680   71.3170  223.3780 C   0  0  0  0  0  0  0  0  0  0  0  0
  139.6880   74.1460  222.3240 N   0  0  0  0  0  0  0  0  0  0  0  0
  139.9430   75.5380  222.1880 C   0  0  0  0  0  0  0  0  0  0  0  0
  139.1830   76.5290  222.7240 C   0  0  0  0  0  0  0  0  0  0  0  0
  139.4730   77.8880  222.5760 C   0  0  0  0  0  0  0  0  0  0  0  0
  140.5860   78.2200  221.8490 C   0  0  0  0  0  0  0  0  0  0  0  0
  140.9770   79.6450  221.6440 C   0  0  0  0  0  0  0  0  0  0  0  0
  141.4170   80.4230  222.6160 C   0  0  0  0  0  0  0  0  0  0  0  0
  141.7690   81.7440  222.3600 C   0  0  0  0  0  0  0  0  0  0  0  0
  141.4400   81.9120  220.5090 S   0  0  0  0  0  0  0  0  0  0  0  0
  140.8710   80.1690  220.3460 C   0  0  0  0  0  0  0  0  0  0  0  0
  141.3690   77.2200  221.2980 C   0  0  0  0  0  0  0  0  0  0  0  0
  141.0580   75.8960  221.4600 C   0  0  0  0  0  0  0  0  0  0  0  0
  141.4886   72.9573  220.0289 H   0  0  0  0  0  0  0  0  0  0  0  0
  142.4811   72.9172  221.5194 H   0  0  0  0  0  0  0  0  0  0  0  0
  139.8903   71.3009  220.0177 H   0  0  0  0  0  0  0  0  0  0  0  0
  139.2700   68.9478  220.3527 H   0  0  0  0  0  0  0  0  0  0  0  0
  139.0191   68.0724  222.6790 H   0  0  0  0  0  0  0  0  0  0  0  0
  139.0856   68.5938  227.2509 H   0  0  0  0  0  0  0  0  0  0  0  0
  140.8697   68.5322  227.5072 H   0  0  0  0  0  0  0  0  0  0  0  0
  138.9214   70.7416  228.2395 H   0  0  0  0  0  0  0  0  0  0  0  0
  140.0283   69.7781  229.3096 H   0  0  0  0  0  0  0  0  0  0  0  0
  140.7595   72.1362  228.8736 H   0  0  0  0  0  0  0  0  0  0  0  0
  141.9458   70.8369  228.4193 H   0  0  0  0  0  0  0  0  0  0  0  0
  140.1131   72.3472  226.5038 H   0  0  0  0  0  0  0  0  0  0  0  0
  141.8715   72.5991  226.6950 H   0  0  0  0  0  0  0  0  0  0  0  0
  141.3938   71.0816  224.8029 H   0  0  0  0  0  0  0  0  0  0  0  0
  142.2659   70.2141  226.1010 H   0  0  0  0  0  0  0  0  0  0  0  0
  140.0334   71.9737  224.2448 H   0  0  0  0  0  0  0  0  0  0  0  0
  138.2927   76.2465  223.3049 H   0  0  0  0  0  0  0  0  0  0  0  0
  138.8327   78.6612  223.0257 H   0  0  0  0  0  0  0  0  0  0  0  0
  141.5059   80.0230  223.6368 H   0  0  0  0  0  0  0  0  0  0  0  0
  142.1456   82.5025  223.0620 H   0  0  0  0  0  0  0  0  0  0  0  0
  140.5260   79.6544  219.4371 H   0  0  0  0  0  0  0  0  0  0  0  0
  142.2614   77.4951  220.7167 H   0  0  0  0  0  0  0  0  0  0  0  0
  1  2  2  0
  2  3  1  0
  3  4  1  0
  4  5  1  0
  5  6  2  0
  6  7  1  0
  7  8  2  0
  8  9  1  0
  9 10  1  0
 10 11  2  0
 10 12  1  0
 12 13  1  0
 13 14  1  0
 14 15  1  0
 15 16  1  0
 16 17  1  0
  9 18  2  0
  4 19  2  0
 19 20  1  0
 20 21  2  0
 21 22  1  0
 22 23  2  0
 23 24  1  0
 24 25  1  0
 25 26  2  0
 26 27  1  0
 27 28  1  0
 23 29  1  0
 29 30  2  0
 30  2  1  0
 18  5  1  0
 30 20  1  0
 17 12  1  0
 28 24  2  0
  3 31  1  0
  3 32  1  0
  6 33  1  0
  7 34  1  0
  8 35  1  0
 13 36  1  0
 13 37  1  0
 14 38  1  0
 14 39  1  0
 15 40  1  0
 15 41  1  0
 16 42  1  0
 16 43  1  0
 17 44  1  0
 17 45  1  0
 18 46  1  0
 21 47  1  0
 22 48  1  0
 25 49  1  0
 26 50  1  0
 28 51  1  0
 29 52  1  0
M  END
>  <smiles>  (10) 
O=C1CC(c2cccc(C(=O)N3CCCCC3)c2)=Nc2ccc(-c3ccsc3)cc21

>  <score_type>  (10) 
oracle

>  <origin>  (10) 
autodockgpu

>  <m_score__min__energy>  (10) 
-9.6199999999999992

>  <m_primary>  (10) 
energy

>  <rmsd>  (10) 
10.851605932562071

>  <m_score__min__rmsd>  (10) 
10.851605932562071

>  <meeko>  (10) 
{"free_energy": -9.51, "intermolecular_energy": -10.4, "internal_energy": -0.89, "cluster_size": 50, "cluster_id": 1, "rank_in_cluster": 36}

>  <energy>  (10) 
-9.56

>  <cluster_rmsd>  (10) 
0.23

>  <cluster>  (10) 
1

$$$$

     RDKit          3D

 52 56  0  0  0  0  0  0  0  0999 V2000
  142.7730   75.2330  220.2580 O   0  0  0  0  0  0  0  0  0  0  0  0
  141.7640   74.8620  220.9100 C   0  0  0  0  0  0  0  0  0  0  0  0
  141.5320   73.4130  221.0450 C   0  0  0  0  0  0  0  0  0  0  0  0
  140.2990   73.1980  221.8430 C   0  0  0  0  0  0  0  0  0  0  0  0
  139.9300   71.7890  222.0910 C   0  0  0  0  0  0  0  0  0  0  0  0
  139.7050   70.9110  221.0520 C   0  0  0  0  0  0  0  0  0  0  0  0
  139.3750   69.5860  221.2240 C   0  0  0  0  0  0  0  0  0  0  0  0
  139.2580   69.0960  222.5070 C   0  0  0  0  0  0  0  0  0  0  0  0
  139.4740   69.9450  223.5630 C   0  0  0  0  0  0  0  0  0  0  0  0
  139.3420   69.3770  224.9070 C   0  0  0  0  0  0  0  0  0  0  0  0
  138.4540   68.5250  225.1950 O   0  0  0  0  0  0  0  0  0  0  0  0
  140.2140   69.7670  225.9420 N   0  0  0  0  0  0  0  0  0  0  0  0
  140.0220   69.1540  227.2660 C   0  0  0  0  0  0  0  0  0  0  0  0
  139.8950   70.2230  228.3300 C   0  0  0  0  0  0  0  0  0  0  0  0
  140.9450   71.2990  228.1830 C   0  0  0  0  0  0  0  0  0  0  0  0
  141.0050   71.8540  226.7690 C   0  0  0  0  0  0  0  0  0  0  0  0
  141.2820   70.7160  225.8300 C   0  0  0  0  0  0  0  0  0  0  0  0
  139.8110   71.2940  223.3850 C   0  0  0  0  0  0  0  0  0  0  0  0
  139.5690   74.1260  222.3260 N   0  0  0  0  0  0  0  0  0  0  0  0
  139.8040   75.5210  222.1900 C   0  0  0  0  0  0  0  0  0  0  0  0
  139.0230   76.5010  222.7190 C   0  0  0  0  0  0  0  0  0  0  0  0
  139.2920   77.8640  222.5720 C   0  0  0  0  0  0  0  0  0  0  0  0
  140.4060   78.2130  221.8540 C   0  0  0  0  0  0  0  0  0  0  0  0
  140.7750   79.6440  221.6510 C   0  0  0  0  0  0  0  0  0  0  0  0
  140.9140   80.5040  222.6420 C   0  0  0  0  0  0  0  0  0  0  0  0
  141.2640   81.8260  222.3880 C   0  0  0  0  0  0  0  0  0  0  0  0
  141.4190   81.8610  220.5080 S   0  0  0  0  0  0  0  0  0  0  0  0
  140.9870   80.0810  220.3340 C   0  0  0  0  0  0  0  0  0  0  0  0
  141.2100   77.2250  221.3110 C   0  0  0  0  0  0  0  0  0  0  0  0
  140.9190   75.8970  221.4730 C   0  0  0  0  0  0  0  0  0  0  0  0
  141.4103   72.9637  220.0483 H   0  0  0  0  0  0  0  0  0  0  0  0
  142.3896   72.9426  221.5483 H   0  0  0  0  0  0  0  0  0  0  0  0
  139.7946   71.2924  220.0241 H   0  0  0  0  0  0  0  0  0  0  0  0
  139.2081   68.9317  220.3557 H   0  0  0  0  0  0  0  0  0  0  0  0
  138.9959   68.0420  222.6814 H   0  0  0  0  0  0  0  0  0  0  0  0
  139.1064   68.5445  227.2537 H   0  0  0  0  0  0  0  0  0  0  0  0
  140.8933   68.5234  227.4966 H   0  0  0  0  0  0  0  0  0  0  0  0
  138.9000   70.6853  228.2512 H   0  0  0  0  0  0  0  0  0  0  0  0
  140.0361   69.7438  229.3100 H   0  0  0  0  0  0  0  0  0  0  0  0
  140.7100   72.1202  228.8761 H   0  0  0  0  0  0  0  0  0  0  0  0
  141.9229   70.8498  228.4110 H   0  0  0  0  0  0  0  0  0  0  0  0
  140.0439   72.3233  226.5121 H   0  0  0  0  0  0  0  0  0  0  0  0
  141.7982   72.6122  226.6917 H   0  0  0  0  0  0  0  0  0  0  0  0
  141.3386   71.0915  224.7976 H   0  0  0  0  0  0  0  0  0  0  0  0
  142.2397   70.2392  226.0861 H   0  0  0  0  0  0  0  0  0  0  0  0
  139.9782   71.9489  224.2529 H   0  0  0  0  0  0  0  0  0  0  0  0
  138.1325   76.2047  223.2928 H   0  0  0  0  0  0  0  0  0  0  0  0
  138.6354   78.6272  223.0152 H   0  0  0  0  0  0  0  0  0  0  0  0
  140.7516   80.1725  223.6782 H   0  0  0  0  0  0  0  0  0  0  0  0
  141.4133   82.6469  223.1049 H   0  0  0  0  0  0  0  0  0  0  0  0
  140.9119   79.4925  219.4077 H   0  0  0  0  0  0  0  0  0  0  0  0
  142.1026   77.5136  220.7366 H   0  0  0  0  0  0  0  0  0  0  0  0
  1  2  2  0
  2  3  1  0
  3  4  1  0
  4  5  1  0
  5  6  2  0
  6  7  1  0
  7  8  2  0
  8  9  1  0
  9 10  1  0
 10 11  2  0
 10 12  1  0
 12 13  1  0
 13 14  1  0
 14 15  1  0
 15 16  1  0
 16 17  1  0
  9 18  2  0
  4 19  2  0
 19 20  1  0
 20 21  2  0
 21 22  1  0
 22 23  2  0
 23 24  1  0
 24 25  1  0
 25 26  2  0
 26 27  1  0
 27 28  1  0
 23 29  1  0
 29 30  2  0
 30  2  1  0
 18  5  1  0
 30 20  1  0
 17 12  1  0
 28 24  2  0
  3 31  1  0
  3 32  1  0
  6 33  1  0
  7 34  1  0
  8 35  1  0
 13 36  1  0
 13 37  1  0
 14 38  1  0
 14 39  1  0
 15 40  1  0
 15 41  1  0
 16 42  1  0
 16 43  1  0
 17 44  1  0
 17 45  1  0
 18 46  1  0
 21 47  1  0
 22 48  1  0
 25 49  1  0
 26 50  1  0
 28 51  1  0
 29 52  1  0
M  END
>  <smiles>  (11) 
O=C1CC(c2cccc(C(=O)N3CCCCC3)c2)=Nc2ccc(-c3ccsc3)cc21

>  <score_type>  (11) 
oracle

>  <origin>  (11) 
autodockgpu

>  <m_score__min__energy>  (11) 
-9.6199999999999992

>  <m_primary>  (11) 
energy

>  <rmsd>  (11) 
10.863983972301309

>  <m_score__min__rmsd>  (11) 
10.863983972301309

>  <meeko>  (11) 
{"free_energy": -9.45, "intermolecular_energy": -10.34, "internal_energy": -0.88, "cluster_size": 50, "cluster_id": 1, "rank_in_cluster": 47}

>  <energy>  (11) 
-9.56

>  <cluster_rmsd>  (11) 
0.24

>  <cluster>  (11) 
1

$$$$

     RDKit          3D

 52 56  0  0  0  0  0  0  0  0999 V2000
  142.8750   75.1890  220.2590 O   0  0  0  0  0  0  0  0  0  0  0  0
  141.8570   74.8410  220.9090 C   0  0  0  0  0  0  0  0  0  0  0  0
  141.5900   73.3970  221.0410 C   0  0  0  0  0  0  0  0  0  0  0  0
  140.3510   73.2110  221.8360 C   0  0  0  0  0  0  0  0  0  0  0  0
  139.9480   71.8100  222.0810 C   0  0  0  0  0  0  0  0  0  0  0  0
  139.6820   70.9460  221.0400 C   0  0  0  0  0  0  0  0  0  0  0  0
  139.3190   69.6290  221.2090 C   0  0  0  0  0  0  0  0  0  0  0  0
  139.2090   69.1340  222.4900 C   0  0  0  0  0  0  0  0  0  0  0  0
  139.4660   69.9690  223.5480 C   0  0  0  0  0  0  0  0  0  0  0  0
  139.3410   69.3950  224.8900 C   0  0  0  0  0  0  0  0  0  0  0  0
  138.4500   68.5470  225.1800 O   0  0  0  0  0  0  0  0  0  0  0  0
  140.2230   69.7750  225.9200 N   0  0  0  0  0  0  0  0  0  0  0  0
  140.0370   69.1560  227.2430 C   0  0  0  0  0  0  0  0  0  0  0  0
  139.9250   70.2210  228.3120 C   0  0  0  0  0  0  0  0  0  0  0  0
  140.9800   71.2910  228.1630 C   0  0  0  0  0  0  0  0  0  0  0  0
  141.0320   71.8530  226.7510 C   0  0  0  0  0  0  0  0  0  0  0  0
  141.2960   70.7180  225.8050 C   0  0  0  0  0  0  0  0  0  0  0  0
  139.8370   71.3100  223.3730 C   0  0  0  0  0  0  0  0  0  0  0  0
  139.6430   74.1540  222.3200 N   0  0  0  0  0  0  0  0  0  0  0  0
  139.9100   75.5440  222.1870 C   0  0  0  0  0  0  0  0  0  0  0  0
  139.1520   76.5410  222.7160 C   0  0  0  0  0  0  0  0  0  0  0  0
  139.4540   77.8980  222.5720 C   0  0  0  0  0  0  0  0  0  0  0  0
  140.5770   78.2210  221.8570 C   0  0  0  0  0  0  0  0  0  0  0  0
  140.9810   79.6440  221.6570 C   0  0  0  0  0  0  0  0  0  0  0  0
  141.4570   80.4050  222.6250 C   0  0  0  0  0  0  0  0  0  0  0  0
  141.8200   81.7240  222.3740 C   0  0  0  0  0  0  0  0  0  0  0  0
  141.4420   81.9170  220.5350 S   0  0  0  0  0  0  0  0  0  0  0  0
  140.8460   80.1840  220.3680 C   0  0  0  0  0  0  0  0  0  0  0  0
  141.3580   77.2150  221.3130 C   0  0  0  0  0  0  0  0  0  0  0  0
  141.0350   75.8940  221.4720 C   0  0  0  0  0  0  0  0  0  0  0  0
  141.4595   72.9524  220.0434 H   0  0  0  0  0  0  0  0  0  0  0  0
  142.4350   72.9050  221.5449 H   0  0  0  0  0  0  0  0  0  0  0  0
  139.7648   71.3321  220.0133 H   0  0  0  0  0  0  0  0  0  0  0  0
  139.1209   68.9852  220.3394 H   0  0  0  0  0  0  0  0  0  0  0  0
  138.9199   68.0867  222.6618 H   0  0  0  0  0  0  0  0  0  0  0  0
  139.1174   68.5524  227.2348 H   0  0  0  0  0  0  0  0  0  0  0  0
  140.9055   68.5182  227.4641 H   0  0  0  0  0  0  0  0  0  0  0  0
  138.9324   70.6899  228.2424 H   0  0  0  0  0  0  0  0  0  0  0  0
  140.0708   69.7362  229.2886 H   0  0  0  0  0  0  0  0  0  0  0  0
  140.7554   72.1099  228.8623 H   0  0  0  0  0  0  0  0  0  0  0  0
  141.9569   70.8350  228.3814 H   0  0  0  0  0  0  0  0  0  0  0  0
  140.0714   72.3284  226.5036 H   0  0  0  0  0  0  0  0  0  0  0  0
  141.8282   72.6078  226.6711 H   0  0  0  0  0  0  0  0  0  0  0  0
  141.3479   71.0980  224.7740 H   0  0  0  0  0  0  0  0  0  0  0  0
  142.2526   70.2344  226.0522 H   0  0  0  0  0  0  0  0  0  0  0  0
  140.0365   71.9541  224.2421 H   0  0  0  0  0  0  0  0  0  0  0  0
  138.2535   76.2651  223.2875 H   0  0  0  0  0  0  0  0  0  0  0  0
  138.8151   78.6760  223.0153 H   0  0  0  0  0  0  0  0  0  0  0  0
  141.5675   79.9925  223.6387 H   0  0  0  0  0  0  0  0  0  0  0  0
  142.2264   82.4694  223.0734 H   0  0  0  0  0  0  0  0  0  0  0  0
  140.4693   79.6844  219.4633 H   0  0  0  0  0  0  0  0  0  0  0  0
  142.2580   77.4833  220.7403 H   0  0  0  0  0  0  0  0  0  0  0  0
  1  2  2  0
  2  3  1  0
  3  4  1  0
  4  5  1  0
  5  6  2  0
  6  7  1  0
  7  8  2  0
  8  9  1  0
  9 10  1  0
 10 11  2  0
 10 12  1  0
 12 13  1  0
 13 14  1  0
 14 15  1  0
 15 16  1  0
 16 17  1  0
  9 18  2  0
  4 19  2  0
 19 20  1  0
 20 21  2  0
 21 22  1  0
 22 23  2  0
 23 24  1  0
 24 25  1  0
 25 26  2  0
 26 27  1  0
 27 28  1  0
 23 29  1  0
 29 30  2  0
 30  2  1  0
 18  5  1  0
 30 20  1  0
 17 12  1  0
 28 24  2  0
  3 31  1  0
  3 32  1  0
  6 33  1  0
  7 34  1  0
  8 35  1  0
 13 36  1  0
 13 37  1  0
 14 38  1  0
 14 39  1  0
 15 40  1  0
 15 41  1  0
 16 42  1  0
 16 43  1  0
 17 44  1  0
 17 45  1  0
 18 46  1  0
 21 47  1  0
 22 48  1  0
 25 49  1  0
 26 50  1  0
 28 51  1  0
 29 52  1  0
M  END
>  <smiles>  (12) 
O=C1CC(c2cccc(C(=O)N3CCCCC3)c2)=Nc2ccc(-c3ccsc3)cc21

>  <score_type>  (12) 
oracle

>  <origin>  (12) 
autodockgpu

>  <m_score__min__energy>  (12) 
-9.6199999999999992

>  <m_primary>  (12) 
energy

>  <rmsd>  (12) 
10.840647737404698

>  <m_score__min__rmsd>  (12) 
10.840647737404698

>  <meeko>  (12) 
{"free_energy": -9.55, "intermolecular_energy": -10.45, "internal_energy": -0.87, "cluster_size": 50, "cluster_id": 1, "rank_in_cluster": 13}

>  <energy>  (12) 
-9.55

>  <cluster_rmsd>  (12) 
0.23

>  <cluster>  (12) 
1

$$$$

     RDKit          3D

 52 56  0  0  0  0  0  0  0  0999 V2000
  142.8940   75.1700  220.3050 O   0  0  0  0  0  0  0  0  0  0  0  0
  141.8690   74.8230  220.9440 C   0  0  0  0  0  0  0  0  0  0  0  0
  141.6030   73.3790  221.0800 C   0  0  0  0  0  0  0  0  0  0  0  0
  140.3560   73.1930  221.8620 C   0  0  0  0  0  0  0  0  0  0  0  0
  139.9530   71.7930  222.1080 C   0  0  0  0  0  0  0  0  0  0  0  0
  139.6800   70.9300  221.0680 C   0  0  0  0  0  0  0  0  0  0  0  0
  139.3160   69.6130  221.2380 C   0  0  0  0  0  0  0  0  0  0  0  0
  139.2150   69.1170  222.5200 C   0  0  0  0  0  0  0  0  0  0  0  0
  139.4790   69.9510  223.5770 C   0  0  0  0  0  0  0  0  0  0  0  0
  139.3620   69.3760  224.9190 C   0  0  0  0  0  0  0  0  0  0  0  0
  138.4800   68.5200  225.2120 O   0  0  0  0  0  0  0  0  0  0  0  0
  140.2440   69.7640  225.9480 N   0  0  0  0  0  0  0  0  0  0  0  0
  140.0660   69.1440  227.2710 C   0  0  0  0  0  0  0  0  0  0  0  0
  139.9470   70.2070  228.3400 C   0  0  0  0  0  0  0  0  0  0  0  0
  140.9930   71.2870  228.1880 C   0  0  0  0  0  0  0  0  0  0  0  0
  141.0360   71.8500  226.7760 C   0  0  0  0  0  0  0  0  0  0  0  0
  141.3070   70.7170  225.8290 C   0  0  0  0  0  0  0  0  0  0  0  0
  139.8500   71.2920  223.4010 C   0  0  0  0  0  0  0  0  0  0  0  0
  139.6400   74.1370  222.3330 N   0  0  0  0  0  0  0  0  0  0  0  0
  139.9060   75.5270  222.1970 C   0  0  0  0  0  0  0  0  0  0  0  0
  139.1400   76.5250  222.7140 C   0  0  0  0  0  0  0  0  0  0  0  0
  139.4400   77.8810  222.5670 C   0  0  0  0  0  0  0  0  0  0  0  0
  140.5710   78.2040  221.8630 C   0  0  0  0  0  0  0  0  0  0  0  0
  140.9740   79.6260  221.6610 C   0  0  0  0  0  0  0  0  0  0  0  0
  141.4560   80.3870  222.6270 C   0  0  0  0  0  0  0  0  0  0  0  0
  141.8180   81.7060  222.3750 C   0  0  0  0  0  0  0  0  0  0  0  0
  141.4290   81.9000  220.5380 S   0  0  0  0  0  0  0  0  0  0  0  0
  140.8310   80.1680  220.3740 C   0  0  0  0  0  0  0  0  0  0  0  0
  141.3600   77.1980  221.3330 C   0  0  0  0  0  0  0  0  0  0  0  0
  141.0380   75.8770  221.4930 C   0  0  0  0  0  0  0  0  0  0  0  0
  141.4844   72.9296  220.0830 H   0  0  0  0  0  0  0  0  0  0  0  0
  142.4434   72.8916  221.5960 H   0  0  0  0  0  0  0  0  0  0  0  0
  139.7576   71.3167  220.0411 H   0  0  0  0  0  0  0  0  0  0  0  0
  139.1102   68.9704  220.3692 H   0  0  0  0  0  0  0  0  0  0  0  0
  138.9274   68.0694  222.6929 H   0  0  0  0  0  0  0  0  0  0  0  0
  139.1516   68.5326  227.2646 H   0  0  0  0  0  0  0  0  0  0  0  0
  140.9407   68.5140  227.4903 H   0  0  0  0  0  0  0  0  0  0  0  0
  138.9501   70.6671  228.2730 H   0  0  0  0  0  0  0  0  0  0  0  0
  140.0993   69.7236  229.3163 H   0  0  0  0  0  0  0  0  0  0  0  0
  140.7634   72.1037  228.8882 H   0  0  0  0  0  0  0  0  0  0  0  0
  141.9745   70.8394  228.4032 H   0  0  0  0  0  0  0  0  0  0  0  0
  140.0706   72.3172  226.5315 H   0  0  0  0  0  0  0  0  0  0  0  0
  141.8252   72.6118  226.6939 H   0  0  0  0  0  0  0  0  0  0  0  0
  141.3513   71.0973  224.7978 H   0  0  0  0  0  0  0  0  0  0  0  0
  142.2690   70.2425  226.0728 H   0  0  0  0  0  0  0  0  0  0  0  0
  140.0556   71.9352  224.2693 H   0  0  0  0  0  0  0  0  0  0  0  0
  138.2365   76.2495  223.2777 H   0  0  0  0  0  0  0  0  0  0  0  0
  138.7940   78.6594  222.9992 H   0  0  0  0  0  0  0  0  0  0  0  0
  141.5721   79.9739  223.6398 H   0  0  0  0  0  0  0  0  0  0  0  0
  142.2287   82.4508  223.0725 H   0  0  0  0  0  0  0  0  0  0  0  0
  140.4479   79.6696  219.4713 H   0  0  0  0  0  0  0  0  0  0  0  0
  142.2665   77.4659  220.7704 H   0  0  0  0  0  0  0  0  0  0  0  0
  1  2  2  0
  2  3  1  0
  3  4  1  0
  4  5  1  0
  5  6  2  0
  6  7  1  0
  7  8  2  0
  8  9  1  0
  9 10  1  0
 10 11  2  0
 10 12  1  0
 12 13  1  0
 13 14  1  0
 14 15  1  0
 15 16  1  0
 16 17  1  0
  9 18  2  0
  4 19  2  0
 19 20  1  0
 20 21  2  0
 21 22  1  0
 22 23  2  0
 23 24  1  0
 24 25  1  0
 25 26  2  0
 26 27  1  0
 27 28  1  0
 23 29  1  0
 29 30  2  0
 30  2  1  0
 18  5  1  0
 30 20  1  0
 17 12  1  0
 28 24  2  0
  3 31  1  0
  3 32  1  0
  6 33  1  0
  7 34  1  0
  8 35  1  0
 13 36  1  0
 13 37  1  0
 14 38  1  0
 14 39  1  0
 15 40  1  0
 15 41  1  0
 16 42  1  0
 16 43  1  0
 17 44  1  0
 17 45  1  0
 18 46  1  0
 21 47  1  0
 22 48  1  0
 25 49  1  0
 26 50  1  0
 28 51  1  0
 29 52  1  0
M  END
>  <smiles>  (13) 
O=C1CC(c2cccc(C(=O)N3CCCCC3)c2)=Nc2ccc(-c3ccsc3)cc21

>  <score_type>  (13) 
oracle

>  <origin>  (13) 
autodockgpu

>  <m_score__min__energy>  (13) 
-9.6199999999999992

>  <m_primary>  (13) 
energy

>  <rmsd>  (13) 
10.862156970873533

>  <m_score__min__rmsd>  (13) 
10.862156970873533

>  <meeko>  (13) 
{"free_energy": -9.56, "intermolecular_energy": -10.46, "internal_energy": -0.86, "cluster_size": 50, "cluster_id": 1, "rank_in_cluster": 7}

>  <energy>  (13) 
-9.55

>  <cluster_rmsd>  (13) 
0.25

>  <cluster>  (13) 
1

$$$$

     RDKit          3D

 52 56  0  0  0  0  0  0  0  0999 V2000
  142.8940   75.1800  220.2970 O   0  0  0  0  0  0  0  0  0  0  0  0
  141.8700   74.8330  220.9380 C   0  0  0  0  0  0  0  0  0  0  0  0
  141.6040   73.3900  221.0730 C   0  0  0  0  0  0  0  0  0  0  0  0
  140.3580   73.2040  221.8580 C   0  0  0  0  0  0  0  0  0  0  0  0
  139.9550   71.8030  222.1040 C   0  0  0  0  0  0  0  0  0  0  0  0
  139.6860   70.9400  221.0640 C   0  0  0  0  0  0  0  0  0  0  0  0
  139.3230   69.6220  221.2340 C   0  0  0  0  0  0  0  0  0  0  0  0
  139.2170   69.1270  222.5160 C   0  0  0  0  0  0  0  0  0  0  0  0
  139.4770   69.9630  223.5730 C   0  0  0  0  0  0  0  0  0  0  0  0
  139.3560   69.3890  224.9150 C   0  0  0  0  0  0  0  0  0  0  0  0
  138.4690   68.5390  225.2080 O   0  0  0  0  0  0  0  0  0  0  0  0
  140.2380   69.7730  225.9440 N   0  0  0  0  0  0  0  0  0  0  0  0
  140.0560   69.1540  227.2680 C   0  0  0  0  0  0  0  0  0  0  0  0
  139.9420   70.2190  228.3360 C   0  0  0  0  0  0  0  0  0  0  0  0
  140.9940   71.2930  228.1850 C   0  0  0  0  0  0  0  0  0  0  0  0
  141.0420   71.8550  226.7730 C   0  0  0  0  0  0  0  0  0  0  0  0
  141.3080   70.7200  225.8270 C   0  0  0  0  0  0  0  0  0  0  0  0
  139.8480   71.3040  223.3970 C   0  0  0  0  0  0  0  0  0  0  0  0
  139.6430   74.1480  222.3310 N   0  0  0  0  0  0  0  0  0  0  0  0
  139.9100   75.5380  222.1950 C   0  0  0  0  0  0  0  0  0  0  0  0
  139.1450   76.5350  222.7130 C   0  0  0  0  0  0  0  0  0  0  0  0
  139.4450   77.8920  222.5660 C   0  0  0  0  0  0  0  0  0  0  0  0
  140.5750   78.2150  221.8600 C   0  0  0  0  0  0  0  0  0  0  0  0
  140.9780   79.6370  221.6590 C   0  0  0  0  0  0  0  0  0  0  0  0
  141.4630   80.3970  222.6240 C   0  0  0  0  0  0  0  0  0  0  0  0
  141.8240   81.7160  222.3720 C   0  0  0  0  0  0  0  0  0  0  0  0
  141.4320   81.9110  220.5360 S   0  0  0  0  0  0  0  0  0  0  0  0
  140.8330   80.1790  220.3720 C   0  0  0  0  0  0  0  0  0  0  0  0
  141.3630   77.2080  221.3290 C   0  0  0  0  0  0  0  0  0  0  0  0
  141.0410   75.8880  221.4890 C   0  0  0  0  0  0  0  0  0  0  0  0
  141.4830   72.9416  220.0758 H   0  0  0  0  0  0  0  0  0  0  0  0
  142.4453   72.9016  221.5865 H   0  0  0  0  0  0  0  0  0  0  0  0
  139.7659   71.3264  220.0372 H   0  0  0  0  0  0  0  0  0  0  0  0
  139.1220   68.9782  220.3650 H   0  0  0  0  0  0  0  0  0  0  0  0
  138.9289   68.0796  222.6891 H   0  0  0  0  0  0  0  0  0  0  0  0
  139.1385   68.5473  227.2616 H   0  0  0  0  0  0  0  0  0  0  0  0
  140.9269   68.5192  227.4882 H   0  0  0  0  0  0  0  0  0  0  0  0
  138.9478   70.6847  228.2673 H   0  0  0  0  0  0  0  0  0  0  0  0
  140.0907   69.7353  229.3127 H   0  0  0  0  0  0  0  0  0  0  0  0
  140.7679   72.1113  228.8845 H   0  0  0  0  0  0  0  0  0  0  0  0
  141.9727   70.8401  228.4018 H   0  0  0  0  0  0  0  0  0  0  0  0
  140.0796   72.3274  226.5270 H   0  0  0  0  0  0  0  0  0  0  0  0
  141.8355   72.6124  226.6915 H   0  0  0  0  0  0  0  0  0  0  0  0
  141.3570   71.0996  224.7957 H   0  0  0  0  0  0  0  0  0  0  0  0
  142.2664   70.2396  226.0732 H   0  0  0  0  0  0  0  0  0  0  0  0
  140.0504   71.9484  224.2652 H   0  0  0  0  0  0  0  0  0  0  0  0
  138.2422   76.2592  223.2777 H   0  0  0  0  0  0  0  0  0  0  0  0
  138.7999   78.6703  222.9997 H   0  0  0  0  0  0  0  0  0  0  0  0
  141.5825   79.9830  223.6361 H   0  0  0  0  0  0  0  0  0  0  0  0
  142.2357   82.4606  223.0692 H   0  0  0  0  0  0  0  0  0  0  0  0
  140.4483   79.6809  219.4698 H   0  0  0  0  0  0  0  0  0  0  0  0
  142.2690   77.4755  220.7654 H   0  0  0  0  0  0  0  0  0  0  0  0
  1  2  2  0
  2  3  1  0
  3  4  1  0
  4  5  1  0
  5  6  2  0
  6  7  1  0
  7  8  2  0
  8  9  1  0
  9 10  1  0
 10 11  2  0
 10 12  1  0
 12 13  1  0
 13 14  1  0
 14 15  1  0
 15 16  1  0
 16 17  1  0
  9 18  2  0
  4 19  2  0
 19 20  1  0
 20 21  2  0
 21 22  1  0
 22 23  2  0
 23 24  1  0
 24 25  1  0
 25 26  2  0
 26 27  1  0
 27 28  1  0
 23 29  1  0
 29 30  2  0
 30  2  1  0
 18  5  1  0
 30 20  1  0
 17 12  1  0
 28 24  2  0
  3 31  1  0
  3 32  1  0
  6 33  1  0
  7 34  1  0
  8 35  1  0
 13 36  1  0
 13 37  1  0
 14 38  1  0
 14 39  1  0
 15 40  1  0
 15 41  1  0
 16 42  1  0
 16 43  1  0
 17 44  1  0
 17 45  1  0
 18 46  1  0
 21 47  1  0
 22 48  1  0
 25 49  1  0
 26 50  1  0
 28 51  1  0
 29 52  1  0
M  END
>  <smiles>  (14) 
O=C1CC(c2cccc(C(=O)N3CCCCC3)c2)=Nc2ccc(-c3ccsc3)cc21

>  <score_type>  (14) 
oracle

>  <origin>  (14) 
autodockgpu

>  <m_score__min__energy>  (14) 
-9.6199999999999992

>  <m_primary>  (14) 
energy

>  <rmsd>  (14) 
10.85425401344527

>  <m_score__min__rmsd>  (14) 
10.85425401344527

>  <meeko>  (14) 
{"free_energy": -9.56, "intermolecular_energy": -10.45, "internal_energy": -0.86, "cluster_size": 50, "cluster_id": 1, "rank_in_cluster": 9}

>  <energy>  (14) 
-9.55

>  <cluster_rmsd>  (14) 
0.25

>  <cluster>  (14) 
1

$$$$

     RDKit          3D

 52 56  0  0  0  0  0  0  0  0999 V2000
  142.8970   75.2040  220.2120 O   0  0  0  0  0  0  0  0  0  0  0  0
  141.8890   74.8540  220.8760 C   0  0  0  0  0  0  0  0  0  0  0  0
  141.6310   73.4100  221.0170 C   0  0  0  0  0  0  0  0  0  0  0  0
  140.4040   73.2200  221.8300 C   0  0  0  0  0  0  0  0  0  0  0  0
  140.0110   71.8180  222.0850 C   0  0  0  0  0  0  0  0  0  0  0  0
  139.7850   70.9360  221.0500 C   0  0  0  0  0  0  0  0  0  0  0  0
  139.4330   69.6170  221.2300 C   0  0  0  0  0  0  0  0  0  0  0  0
  139.2940   69.1400  222.5150 C   0  0  0  0  0  0  0  0  0  0  0  0
  139.5110   69.9940  223.5670 C   0  0  0  0  0  0  0  0  0  0  0  0
  139.3540   69.4390  224.9130 C   0  0  0  0  0  0  0  0  0  0  0  0
  138.4460   68.6100  225.2000 O   0  0  0  0  0  0  0  0  0  0  0  0
  140.2260   69.8180  225.9530 N   0  0  0  0  0  0  0  0  0  0  0  0
  140.0090   69.2190  227.2800 C   0  0  0  0  0  0  0  0  0  0  0  0
  139.8970   70.2990  228.3340 C   0  0  0  0  0  0  0  0  0  0  0  0
  140.9720   71.3500  228.1890 C   0  0  0  0  0  0  0  0  0  0  0  0
  141.0560   71.8940  226.7710 C   0  0  0  0  0  0  0  0  0  0  0  0
  141.3160   70.7420  225.8440 C   0  0  0  0  0  0  0  0  0  0  0  0
  139.8700   71.3370  223.3820 C   0  0  0  0  0  0  0  0  0  0  0  0
  139.6980   74.1620  222.3190 N   0  0  0  0  0  0  0  0  0  0  0  0
  139.9570   75.5530  222.1780 C   0  0  0  0  0  0  0  0  0  0  0  0
  139.2010   76.5480  222.7140 C   0  0  0  0  0  0  0  0  0  0  0  0
  139.4940   77.9050  222.5600 C   0  0  0  0  0  0  0  0  0  0  0  0
  140.6060   78.2320  221.8290 C   0  0  0  0  0  0  0  0  0  0  0  0
  141.0010   79.6550  221.6180 C   0  0  0  0  0  0  0  0  0  0  0  0
  141.4300   80.4400  222.5890 C   0  0  0  0  0  0  0  0  0  0  0  0
  141.7860   81.7590  222.3280 C   0  0  0  0  0  0  0  0  0  0  0  0
  141.4770   81.9130  220.4730 S   0  0  0  0  0  0  0  0  0  0  0  0
  140.9090   80.1710  220.3150 C   0  0  0  0  0  0  0  0  0  0  0  0
  141.3850   77.2280  221.2780 C   0  0  0  0  0  0  0  0  0  0  0  0
  141.0700   75.9060  221.4460 C   0  0  0  0  0  0  0  0  0  0  0  0
  141.4888   72.9611  220.0229 H   0  0  0  0  0  0  0  0  0  0  0  0
  142.4854   72.9244  221.5111 H   0  0  0  0  0  0  0  0  0  0  0  0
  139.8921   71.3076  220.0202 H   0  0  0  0  0  0  0  0  0  0  0  0
  139.2662   68.9576  220.3655 H   0  0  0  0  0  0  0  0  0  0  0  0
  139.0136   68.0916  222.6948 H   0  0  0  0  0  0  0  0  0  0  0  0
  139.0801   68.6300  227.2644 H   0  0  0  0  0  0  0  0  0  0  0  0
  140.8636   68.5704  227.5229 H   0  0  0  0  0  0  0  0  0  0  0  0
  138.9135   70.7830  228.2424 H   0  0  0  0  0  0  0  0  0  0  0  0
  140.0189   69.8243  229.3188 H   0  0  0  0  0  0  0  0  0  0  0  0
  140.7498   72.1810  228.8746 H   0  0  0  0  0  0  0  0  0  0  0  0
  141.9376   70.8807  228.4285 H   0  0  0  0  0  0  0  0  0  0  0  0
  140.1076   72.3822  226.5022 H   0  0  0  0  0  0  0  0  0  0  0  0
  141.8655   72.6349  226.6944 H   0  0  0  0  0  0  0  0  0  0  0  0
  141.3909   71.1076  224.8092 H   0  0  0  0  0  0  0  0  0  0  0  0
  142.2600   70.2459  226.1136 H   0  0  0  0  0  0  0  0  0  0  0  0
  140.0368   71.9970  224.2461 H   0  0  0  0  0  0  0  0  0  0  0  0
  138.3123   76.2697  223.2995 H   0  0  0  0  0  0  0  0  0  0  0  0
  138.8566   78.6814  223.0083 H   0  0  0  0  0  0  0  0  0  0  0  0
  141.5066   80.0474  223.6137 H   0  0  0  0  0  0  0  0  0  0  0  0
  142.1556   82.5223  223.0286 H   0  0  0  0  0  0  0  0  0  0  0  0
  140.5732   79.6509  219.4058 H   0  0  0  0  0  0  0  0  0  0  0  0
  142.2762   77.4985  220.6927 H   0  0  0  0  0  0  0  0  0  0  0  0
  1  2  2  0
  2  3  1  0
  3  4  1  0
  4  5  1  0
  5  6  2  0
  6  7  1  0
  7  8  2  0
  8  9  1  0
  9 10  1  0
 10 11  2  0
 10 12  1  0
 12 13  1  0
 13 14  1  0
 14 15  1  0
 15 16  1  0
 16 17  1  0
  9 18  2  0
  4 19  2  0
 19 20  1  0
 20 21  2  0
 21 22  1  0
 22 23  2  0
 23 24  1  0
 24 25  1  0
 25 26  2  0
 26 27  1  0
 27 28  1  0
 23 29  1  0
 29 30  2  0
 30  2  1  0
 18  5  1  0
 30 20  1  0
 17 12  1  0
 28 24  2  0
  3 31  1  0
  3 32  1  0
  6 33  1  0
  7 34  1  0
  8 35  1  0
 13 36  1  0
 13 37  1  0
 14 38  1  0
 14 39  1  0
 15 40  1  0
 15 41  1  0
 16 42  1  0
 16 43  1  0
 17 44  1  0
 17 45  1  0
 18 46  1  0
 21 47  1  0
 22 48  1  0
 25 49  1  0
 26 50  1  0
 28 51  1  0
 29 52  1  0
M  END
>  <smiles>  (15) 
O=C1CC(c2cccc(C(=O)N3CCCCC3)c2)=Nc2ccc(-c3ccsc3)cc21

>  <score_type>  (15) 
oracle

>  <origin>  (15) 
autodockgpu

>  <m_score__min__energy>  (15) 
-9.6199999999999992

>  <m_primary>  (15) 
energy

>  <rmsd>  (15) 
10.835753147986567

>  <m_score__min__rmsd>  (15) 
10.835753147986567

>  <meeko>  (15) 
{"free_energy": -9.5, "intermolecular_energy": -10.4, "internal_energy": -0.89, "cluster_size": 50, "cluster_id": 1, "rank_in_cluster": 39}

>  <energy>  (15) 
-9.55

>  <cluster_rmsd>  (15) 
0.22

>  <cluster>  (15) 
1

$$$$

     RDKit          3D

 52 56  0  0  0  0  0  0  0  0999 V2000
  142.8010   75.3490  220.4690 O   0  0  0  0  0  0  0  0  0  0  0  0
  141.7700   74.9390  221.0600 C   0  0  0  0  0  0  0  0  0  0  0  0
  141.5810   73.4820  221.1750 C   0  0  0  0  0  0  0  0  0  0  0  0
  140.3130   73.2190  221.9010 C   0  0  0  0  0  0  0  0  0  0  0  0
  139.9800   71.7960  222.1200 C   0  0  0  0  0  0  0  0  0  0  0  0
  139.8240   70.9240  221.0640 C   0  0  0  0  0  0  0  0  0  0  0  0
  139.5290   69.5870  221.2100 C   0  0  0  0  0  0  0  0  0  0  0  0
  139.3780   69.0790  222.4820 C   0  0  0  0  0  0  0  0  0  0  0  0
  139.5270   69.9230  223.5540 C   0  0  0  0  0  0  0  0  0  0  0  0
  139.3610   69.3360  224.8860 C   0  0  0  0  0  0  0  0  0  0  0  0
  138.4510   68.4990  225.1460 O   0  0  0  0  0  0  0  0  0  0  0  0
  140.2250   69.6900  225.9420 N   0  0  0  0  0  0  0  0  0  0  0  0
  139.9990   69.0590  227.2520 C   0  0  0  0  0  0  0  0  0  0  0  0
  139.8780   70.1140  228.3310 C   0  0  0  0  0  0  0  0  0  0  0  0
  140.9530   71.1690  228.2180 C   0  0  0  0  0  0  0  0  0  0  0  0
  141.0470   71.7460  226.8150 C   0  0  0  0  0  0  0  0  0  0  0  0
  141.3150   70.6180  225.8620 C   0  0  0  0  0  0  0  0  0  0  0  0
  139.8270   71.2840  223.4030 C   0  0  0  0  0  0  0  0  0  0  0  0
  139.5260   74.1180  222.3460 N   0  0  0  0  0  0  0  0  0  0  0  0
  139.7190   75.5210  222.2310 C   0  0  0  0  0  0  0  0  0  0  0  0
  138.8760   76.4700  222.7200 C   0  0  0  0  0  0  0  0  0  0  0  0
  139.1050   77.8420  222.5950 C   0  0  0  0  0  0  0  0  0  0  0  0
  140.2450   78.2350  221.9430 C   0  0  0  0  0  0  0  0  0  0  0  0
  140.5760   79.6790  221.7680 C   0  0  0  0  0  0  0  0  0  0  0  0
  139.7780   80.5360  221.1580 C   0  0  0  0  0  0  0  0  0  0  0  0
  140.1410   81.8720  221.0300 C   0  0  0  0  0  0  0  0  0  0  0  0
  141.8250   81.9290  221.8810 S   0  0  0  0  0  0  0  0  0  0  0  0
  141.7970   80.1350  222.2880 C   0  0  0  0  0  0  0  0  0  0  0  0
  141.1120   77.2790  221.4410 C   0  0  0  0  0  0  0  0  0  0  0  0
  140.8590   75.9400  221.5790 C   0  0  0  0  0  0  0  0  0  0  0  0
  141.5314   73.0354  220.1710 H   0  0  0  0  0  0  0  0  0  0  0  0
  142.4246   73.0383  221.7241 H   0  0  0  0  0  0  0  0  0  0  0  0
  139.9422   71.3196  220.0444 H   0  0  0  0  0  0  0  0  0  0  0  0
  139.4162   68.9377  220.3293 H   0  0  0  0  0  0  0  0  0  0  0  0
  139.1422   68.0156  222.6355 H   0  0  0  0  0  0  0  0  0  0  0  0
  139.0709   68.4697  227.2153 H   0  0  0  0  0  0  0  0  0  0  0  0
  140.8523   68.4053  227.4856 H   0  0  0  0  0  0  0  0  0  0  0  0
  138.8946   70.5991  228.2439 H   0  0  0  0  0  0  0  0  0  0  0  0
  139.9931   69.6165  229.3053 H   0  0  0  0  0  0  0  0  0  0  0  0
  140.7251   71.9835  228.9213 H   0  0  0  0  0  0  0  0  0  0  0  0
  141.9172   70.6947  228.4530 H   0  0  0  0  0  0  0  0  0  0  0  0
  140.1001   72.2397  226.5510 H   0  0  0  0  0  0  0  0  0  0  0  0
  141.8568   72.4887  226.7626 H   0  0  0  0  0  0  0  0  0  0  0  0
  141.3958   71.0088  224.8369 H   0  0  0  0  0  0  0  0  0  0  0  0
  142.2583   70.1169  226.1248 H   0  0  0  0  0  0  0  0  0  0  0  0
  139.9392   71.9343  224.2831 H   0  0  0  0  0  0  0  0  0  0  0  0
  137.9657   76.1393  223.2415 H   0  0  0  0  0  0  0  0  0  0  0  0
  138.3979   78.5788  223.0039 H   0  0  0  0  0  0  0  0  0  0  0  0
  138.8179   80.1900  220.7476 H   0  0  0  0  0  0  0  0  0  0  0  0
  139.5851   82.6919  220.5517 H   0  0  0  0  0  0  0  0  0  0  0  0
  142.5639   79.5518  222.8188 H   0  0  0  0  0  0  0  0  0  0  0  0
  142.0249   77.6024  220.9194 H   0  0  0  0  0  0  0  0  0  0  0  0
  1  2  2  0
  2  3  1  0
  3  4  1  0
  4  5  1  0
  5  6  2  0
  6  7  1  0
  7  8  2  0
  8  9  1  0
  9 10  1  0
 10 11  2  0
 10 12  1  0
 12 13  1  0
 13 14  1  0
 14 15  1  0
 15 16  1  0
 16 17  1  0
  9 18  2  0
  4 19  2  0
 19 20  1  0
 20 21  2  0
 21 22  1  0
 22 23  2  0
 23 24  1  0
 24 25  1  0
 25 26  2  0
 26 27  1  0
 27 28  1  0
 23 29  1  0
 29 30  2  0
 30  2  1  0
 18  5  1  0
 30 20  1  0
 17 12  1  0
 28 24  2  0
  3 31  1  0
  3 32  1  0
  6 33  1  0
  7 34  1  0
  8 35  1  0
 13 36  1  0
 13 37  1  0
 14 38  1  0
 14 39  1  0
 15 40  1  0
 15 41  1  0
 16 42  1  0
 16 43  1  0
 17 44  1  0
 17 45  1  0
 18 46  1  0
 21 47  1  0
 22 48  1  0
 25 49  1  0
 26 50  1  0
 28 51  1  0
 29 52  1  0
M  END
>  <smiles>  (16) 
O=C1CC(c2cccc(C(=O)N3CCCCC3)c2)=Nc2ccc(-c3ccsc3)cc21

>  <score_type>  (16) 
oracle

>  <origin>  (16) 
autodockgpu

>  <m_score__min__energy>  (16) 
-9.6199999999999992

>  <m_primary>  (16) 
energy

>  <rmsd>  (16) 
10.915690814066501

>  <m_score__min__rmsd>  (16) 
10.915690814066501

>  <meeko>  (16) 
{"free_energy": -9.2, "intermolecular_energy": -10.09, "internal_energy": -0.92, "cluster_size": 50, "cluster_id": 1, "rank_in_cluster": 48}

>  <energy>  (16) 
-9.55

>  <cluster_rmsd>  (16) 
0.24

>  <cluster>  (16) 
1

$$$$

     RDKit          3D

 52 56  0  0  0  0  0  0  0  0999 V2000
  142.4170   75.2010  219.2670 O   0  0  0  0  0  0  0  0  0  0  0  0
  141.6390   74.8830  220.2020 C   0  0  0  0  0  0  0  0  0  0  0  0
  141.4070   73.4470  220.4400 C   0  0  0  0  0  0  0  0  0  0  0  0
  140.4660   73.2960  221.5780 C   0  0  0  0  0  0  0  0  0  0  0  0
  140.1380   71.9080  221.9630 C   0  0  0  0  0  0  0  0  0  0  0  0
  140.1640   70.8810  221.0430 C   0  0  0  0  0  0  0  0  0  0  0  0
  139.8840   69.5680  221.3490 C   0  0  0  0  0  0  0  0  0  0  0  0
  139.5560   69.2500  222.6490 C   0  0  0  0  0  0  0  0  0  0  0  0
  139.5200   70.2490  223.5880 C   0  0  0  0  0  0  0  0  0  0  0  0
  139.1700   69.8600  224.9560 C   0  0  0  0  0  0  0  0  0  0  0  0
  138.0570   69.3360  225.2450 O   0  0  0  0  0  0  0  0  0  0  0  0
  140.0770   70.0590  226.0160 N   0  0  0  0  0  0  0  0  0  0  0  0
  139.6570   69.6430  227.3640 C   0  0  0  0  0  0  0  0  0  0  0  0
  139.8150   70.7860  228.3420 C   0  0  0  0  0  0  0  0  0  0  0  0
  141.1440   71.4870  228.1890 C   0  0  0  0  0  0  0  0  0  0  0  0
  141.4240   71.8800  226.7470 C   0  0  0  0  0  0  0  0  0  0  0  0
  141.3840   70.6370  225.9070 C   0  0  0  0  0  0  0  0  0  0  0  0
  139.8060   71.5860  223.2740 C   0  0  0  0  0  0  0  0  0  0  0  0
  139.9490   74.2610  222.2330 N   0  0  0  0  0  0  0  0  0  0  0  0
  140.1820   75.6430  221.9950 C   0  0  0  0  0  0  0  0  0  0  0  0
  139.6320   76.6620  222.7080 C   0  0  0  0  0  0  0  0  0  0  0  0
  139.8930   78.0110  222.4490 C   0  0  0  0  0  0  0  0  0  0  0  0
  140.7500   78.3020  221.4200 C   0  0  0  0  0  0  0  0  0  0  0  0
  141.0920   79.7130  221.0770 C   0  0  0  0  0  0  0  0  0  0  0  0
  141.1590   80.6810  221.9720 C   0  0  0  0  0  0  0  0  0  0  0  0
  141.4870   81.9770  221.5890 C   0  0  0  0  0  0  0  0  0  0  0  0
  141.7350   81.8100  219.7260 S   0  0  0  0  0  0  0  0  0  0  0  0
  141.3580   80.0090  219.7310 C   0  0  0  0  0  0  0  0  0  0  0  0
  141.3170   77.2730  220.6870 C   0  0  0  0  0  0  0  0  0  0  0  0
  141.0410   75.9610  220.9650 C   0  0  0  0  0  0  0  0  0  0  0  0
  140.9739   72.9883  219.5389 H   0  0  0  0  0  0  0  0  0  0  0  0
  142.3593   72.9486  220.6741 H   0  0  0  0  0  0  0  0  0  0  0  0
  140.4240   71.1253  220.0025 H   0  0  0  0  0  0  0  0  0  0  0  0
  139.9214   68.7898  220.5725 H   0  0  0  0  0  0  0  0  0  0  0  0
  139.3267   68.2113  222.9292 H   0  0  0  0  0  0  0  0  0  0  0  0
  138.6018   69.3337  227.3355 H   0  0  0  0  0  0  0  0  0  0  0  0
  140.2883   68.8037  227.6912 H   0  0  0  0  0  0  0  0  0  0  0  0
  139.0085   71.5139  228.1697 H   0  0  0  0  0  0  0  0  0  0  0  0
  139.7675   70.3697  229.3591 H   0  0  0  0  0  0  0  0  0  0  0  0
  141.1386   72.3956  228.8090 H   0  0  0  0  0  0  0  0  0  0  0  0
  141.9323   70.7892  228.5078 H   0  0  0  0  0  0  0  0  0  0  0  0
  140.6589   72.5896  226.3990 H   0  0  0  0  0  0  0  0  0  0  0  0
  142.4103   72.3606  226.6684 H   0  0  0  0  0  0  0  0  0  0  0  0
  141.5913   70.8913  224.8571 H   0  0  0  0  0  0  0  0  0  0  0  0
  142.1438   69.9215  226.2545 H   0  0  0  0  0  0  0  0  0  0  0  0
  139.7683   72.3646  224.0502 H   0  0  0  0  0  0  0  0  0  0  0  0
  138.9463   76.4121  223.5310 H   0  0  0  0  0  0  0  0  0  0  0  0
  139.4284   78.8080  223.0481 H   0  0  0  0  0  0  0  0  0  0  0  0
  140.9536   80.4606  223.0299 H   0  0  0  0  0  0  0  0  0  0  0  0
  141.5790   82.8760  222.2162 H   0  0  0  0  0  0  0  0  0  0  0  0
  141.3442   79.3203  218.8734 H   0  0  0  0  0  0  0  0  0  0  0  0
  142.0044   77.5150  219.8631 H   0  0  0  0  0  0  0  0  0  0  0  0
  1  2  2  0
  2  3  1  0
  3  4  1  0
  4  5  1  0
  5  6  2  0
  6  7  1  0
  7  8  2  0
  8  9  1  0
  9 10  1  0
 10 11  2  0
 10 12  1  0
 12 13  1  0
 13 14  1  0
 14 15  1  0
 15 16  1  0
 16 17  1  0
  9 18  2  0
  4 19  2  0
 19 20  1  0
 20 21  2  0
 21 22  1  0
 22 23  2  0
 23 24  1  0
 24 25  1  0
 25 26  2  0
 26 27  1  0
 27 28  1  0
 23 29  1  0
 29 30  2  0
 30  2  1  0
 18  5  1  0
 30 20  1  0
 17 12  1  0
 28 24  2  0
  3 31  1  0
  3 32  1  0
  6 33  1  0
  7 34  1  0
  8 35  1  0
 13 36  1  0
 13 37  1  0
 14 38  1  0
 14 39  1  0
 15 40  1  0
 15 41  1  0
 16 42  1  0
 16 43  1  0
 17 44  1  0
 17 45  1  0
 18 46  1  0
 21 47  1  0
 22 48  1  0
 25 49  1  0
 26 50  1  0
 28 51  1  0
 29 52  1  0
M  END
>  <smiles>  (17) 
O=C1CC(c2cccc(C(=O)N3CCCCC3)c2)=Nc2ccc(-c3ccsc3)cc21

>  <score_type>  (17) 
oracle

>  <origin>  (17) 
autodockgpu

>  <m_score__min__energy>  (17) 
-9.6199999999999992

>  <m_primary>  (17) 
energy

>  <rmsd>  (17) 
10.754384289817388

>  <m_score__min__rmsd>  (17) 
10.754384289817388

>  <meeko>  (17) 
{"free_energy": -8.67, "intermolecular_energy": -9.56, "internal_energy": -1.05, "cluster_size": 50, "cluster_id": 1, "rank_in_cluster": 49}

>  <energy>  (17) 
-9.55

>  <cluster_rmsd>  (17) 
0.24

>  <cluster>  (17) 
1

$$$$

     RDKit          3D

 52 56  0  0  0  0  0  0  0  0999 V2000
  142.9030   75.1610  220.2580 O   0  0  0  0  0  0  0  0  0  0  0  0
  141.8860   74.8140  220.9100 C   0  0  0  0  0  0  0  0  0  0  0  0
  141.6230   73.3700  221.0500 C   0  0  0  0  0  0  0  0  0  0  0  0
  140.3850   73.1840  221.8470 C   0  0  0  0  0  0  0  0  0  0  0  0
  139.9860   71.7840  222.0990 C   0  0  0  0  0  0  0  0  0  0  0  0
  139.7330   70.9110  221.0630 C   0  0  0  0  0  0  0  0  0  0  0  0
  139.3750   69.5930  221.2400 C   0  0  0  0  0  0  0  0  0  0  0  0
  139.2560   69.1080  222.5240 C   0  0  0  0  0  0  0  0  0  0  0  0
  139.5000   69.9520  223.5770 C   0  0  0  0  0  0  0  0  0  0  0  0
  139.3660   69.3890  224.9220 C   0  0  0  0  0  0  0  0  0  0  0  0
  138.4670   68.5520  225.2160 O   0  0  0  0  0  0  0  0  0  0  0  0
  140.2490   69.7680  225.9530 N   0  0  0  0  0  0  0  0  0  0  0  0
  140.0540   69.1600  227.2790 C   0  0  0  0  0  0  0  0  0  0  0  0
  139.9490   70.2330  228.3410 C   0  0  0  0  0  0  0  0  0  0  0  0
  141.0140   71.2920  228.1870 C   0  0  0  0  0  0  0  0  0  0  0  0
  141.0750   71.8440  226.7720 C   0  0  0  0  0  0  0  0  0  0  0  0
  141.3310   70.7000  225.8340 C   0  0  0  0  0  0  0  0  0  0  0  0
  139.8660   71.2940  223.3950 C   0  0  0  0  0  0  0  0  0  0  0  0
  139.6740   74.1290  222.3250 N   0  0  0  0  0  0  0  0  0  0  0  0
  139.9370   75.5190  222.1850 C   0  0  0  0  0  0  0  0  0  0  0  0
  139.1760   76.5160  222.7090 C   0  0  0  0  0  0  0  0  0  0  0  0
  139.4740   77.8730  222.5570 C   0  0  0  0  0  0  0  0  0  0  0  0
  140.5960   78.1960  221.8390 C   0  0  0  0  0  0  0  0  0  0  0  0
  140.9960   79.6180  221.6310 C   0  0  0  0  0  0  0  0  0  0  0  0
  141.4750   80.3840  222.5940 C   0  0  0  0  0  0  0  0  0  0  0  0
  141.8330   81.7030  222.3360 C   0  0  0  0  0  0  0  0  0  0  0  0
  141.4460   81.8870  220.4970 S   0  0  0  0  0  0  0  0  0  0  0  0
  140.8530   80.1530  220.3410 C   0  0  0  0  0  0  0  0  0  0  0  0
  141.3800   77.1890  221.3010 C   0  0  0  0  0  0  0  0  0  0  0  0
  141.0610   75.8680  221.4670 C   0  0  0  0  0  0  0  0  0  0  0  0
  141.4931   72.9198  220.0548 H   0  0  0  0  0  0  0  0  0  0  0  0
  142.4698   72.8834  221.5562 H   0  0  0  0  0  0  0  0  0  0  0  0
  139.8223   71.2893  220.0340 H   0  0  0  0  0  0  0  0  0  0  0  0
  139.1879   68.9410  220.3741 H   0  0  0  0  0  0  0  0  0  0  0  0
  138.9699   68.0608  222.7017 H   0  0  0  0  0  0  0  0  0  0  0  0
  139.1289   68.5648  227.2724 H   0  0  0  0  0  0  0  0  0  0  0  0
  140.9162   68.5159  227.5065 H   0  0  0  0  0  0  0  0  0  0  0  0
  138.9609   70.7104  228.2661 H   0  0  0  0  0  0  0  0  0  0  0  0
  140.0879   69.7536  229.3212 H   0  0  0  0  0  0  0  0  0  0  0  0
  140.7953   72.1177  228.8802 H   0  0  0  0  0  0  0  0  0  0  0  0
  141.9861   70.8282  228.4106 H   0  0  0  0  0  0  0  0  0  0  0  0
  140.1195   72.3267  226.5189 H   0  0  0  0  0  0  0  0  0  0  0  0
  141.8784   72.5909  226.6893 H   0  0  0  0  0  0  0  0  0  0  0  0
  141.3888   71.0725  224.8006 H   0  0  0  0  0  0  0  0  0  0  0  0
  142.2826   70.2093  226.0865 H   0  0  0  0  0  0  0  0  0  0  0  0
  140.0544   71.9461  224.2606 H   0  0  0  0  0  0  0  0  0  0  0  0
  138.2788   76.2404  223.2826 H   0  0  0  0  0  0  0  0  0  0  0  0
  138.8331   78.6515  222.9965 H   0  0  0  0  0  0  0  0  0  0  0  0
  141.5919   79.9756  223.6087 H   0  0  0  0  0  0  0  0  0  0  0  0
  142.2403   82.4525  223.0305 H   0  0  0  0  0  0  0  0  0  0  0  0
  140.4723   79.6490  219.4404 H   0  0  0  0  0  0  0  0  0  0  0  0
  142.2795   77.4567  220.7272 H   0  0  0  0  0  0  0  0  0  0  0  0
  1  2  2  0
  2  3  1  0
  3  4  1  0
  4  5  1  0
  5  6  2  0
  6  7  1  0
  7  8  2  0
  8  9  1  0
  9 10  1  0
 10 11  2  0
 10 12  1  0
 12 13  1  0
 13 14  1  0
 14 15  1  0
 15 16  1  0
 16 17  1  0
  9 18  2  0
  4 19  2  0
 19 20  1  0
 20 21  2  0
 21 22  1  0
 22 23  2  0
 23 24  1  0
 24 25  1  0
 25 26  2  0
 26 27  1  0
 27 28  1  0
 23 29  1  0
 29 30  2  0
 30  2  1  0
 18  5  1  0
 30 20  1  0
 17 12  1  0
 28 24  2  0
  3 31  1  0
  3 32  1  0
  6 33  1  0
  7 34  1  0
  8 35  1  0
 13 36  1  0
 13 37  1  0
 14 38  1  0
 14 39  1  0
 15 40  1  0
 15 41  1  0
 16 42  1  0
 16 43  1  0
 17 44  1  0
 17 45  1  0
 18 46  1  0
 21 47  1  0
 22 48  1  0
 25 49  1  0
 26 50  1  0
 28 51  1  0
 29 52  1  0
M  END
>  <smiles>  (18) 
O=C1CC(c2cccc(C(=O)N3CCCCC3)c2)=Nc2ccc(-c3ccsc3)cc21

>  <score_type>  (18) 
oracle

>  <origin>  (18) 
autodockgpu

>  <m_score__min__energy>  (18) 
-9.6199999999999992

>  <m_primary>  (18) 
energy

>  <rmsd>  (18) 
10.865751257479719

>  <m_score__min__rmsd>  (18) 
10.865751257479719

>  <meeko>  (18) 
{"free_energy": -9.54, "intermolecular_energy": -10.43, "internal_energy": -0.88, "cluster_size": 50, "cluster_id": 1, "rank_in_cluster": 28}

>  <energy>  (18) 
-9.55

>  <cluster_rmsd>  (18) 
0.24

>  <cluster>  (18) 
1

$$$$

     RDKit          3D

 52 56  0  0  0  0  0  0  0  0999 V2000
  142.8320   75.1810  220.1660 O   0  0  0  0  0  0  0  0  0  0  0  0
  141.8350   74.8200  220.8420 C   0  0  0  0  0  0  0  0  0  0  0  0
  141.5980   73.3730  220.9920 C   0  0  0  0  0  0  0  0  0  0  0  0
  140.3820   73.1710  221.8190 C   0  0  0  0  0  0  0  0  0  0  0  0
  140.0100   71.7650  222.0840 C   0  0  0  0  0  0  0  0  0  0  0  0
  139.8010   70.8710  221.0560 C   0  0  0  0  0  0  0  0  0  0  0  0
  139.4700   69.5480  221.2450 C   0  0  0  0  0  0  0  0  0  0  0  0
  139.3340   69.0790  222.5340 C   0  0  0  0  0  0  0  0  0  0  0  0
  139.5350   69.9450  223.5790 C   0  0  0  0  0  0  0  0  0  0  0  0
  139.3830   69.3990  224.9290 C   0  0  0  0  0  0  0  0  0  0  0  0
  138.4800   68.5670  225.2230 O   0  0  0  0  0  0  0  0  0  0  0  0
  140.2560   69.7890  225.9660 N   0  0  0  0  0  0  0  0  0  0  0  0
  140.0440   69.1980  227.2970 C   0  0  0  0  0  0  0  0  0  0  0  0
  139.9290   70.2840  228.3440 C   0  0  0  0  0  0  0  0  0  0  0  0
  140.9980   71.3390  228.1890 C   0  0  0  0  0  0  0  0  0  0  0  0
  141.0760   71.8740  226.7680 C   0  0  0  0  0  0  0  0  0  0  0  0
  141.3400   70.7180  225.8470 C   0  0  0  0  0  0  0  0  0  0  0  0
  139.8730   71.2920  223.3840 C   0  0  0  0  0  0  0  0  0  0  0  0
  139.6680   74.1060  222.3120 N   0  0  0  0  0  0  0  0  0  0  0  0
  139.9070   75.4990  222.1610 C   0  0  0  0  0  0  0  0  0  0  0  0
  139.1440   76.4860  222.7010 C   0  0  0  0  0  0  0  0  0  0  0  0
  139.4170   77.8470  222.5380 C   0  0  0  0  0  0  0  0  0  0  0  0
  140.5170   78.1850  221.7940 C   0  0  0  0  0  0  0  0  0  0  0  0
  140.8900   79.6120  221.5730 C   0  0  0  0  0  0  0  0  0  0  0  0
  141.1110   80.1270  220.3770 C   0  0  0  0  0  0  0  0  0  0  0  0
  141.4530   81.4680  220.2360 C   0  0  0  0  0  0  0  0  0  0  0  0
  141.4620   82.0850  222.0200 S   0  0  0  0  0  0  0  0  0  0  0  0
  141.0040   80.4380  222.7020 C   0  0  0  0  0  0  0  0  0  0  0  0
  141.3030   77.1890  221.2400 C   0  0  0  0  0  0  0  0  0  0  0  0
  141.0080   75.8640  221.4160 C   0  0  0  0  0  0  0  0  0  0  0  0
  141.4514   72.9177  220.0015 H   0  0  0  0  0  0  0  0  0  0  0  0
  142.4640   72.9008  221.4789 H   0  0  0  0  0  0  0  0  0  0  0  0
  139.9048   71.2361  220.0236 H   0  0  0  0  0  0  0  0  0  0  0  0
  139.3173   68.8791  220.3852 H   0  0  0  0  0  0  0  0  0  0  0  0
  139.0688   68.0281  222.7217 H   0  0  0  0  0  0  0  0  0  0  0  0
  139.1177   68.6048  227.2868 H   0  0  0  0  0  0  0  0  0  0  0  0
  140.9020   68.5549  227.5426 H   0  0  0  0  0  0  0  0  0  0  0  0
  138.9428   70.7624  228.2518 H   0  0  0  0  0  0  0  0  0  0  0  0
  140.0556   69.8166  229.3317 H   0  0  0  0  0  0  0  0  0  0  0  0
  140.7734   72.1734  228.8697 H   0  0  0  0  0  0  0  0  0  0  0  0
  141.9665   70.8758  228.4288 H   0  0  0  0  0  0  0  0  0  0  0  0
  140.1245   72.3555  226.4984 H   0  0  0  0  0  0  0  0  0  0  0  0
  141.8817   72.6183  226.6852 H   0  0  0  0  0  0  0  0  0  0  0  0
  141.4091   71.0776  224.8097 H   0  0  0  0  0  0  0  0  0  0  0  0
  142.2881   70.2293  226.1157 H   0  0  0  0  0  0  0  0  0  0  0  0
  140.0268   71.9614  224.2432 H   0  0  0  0  0  0  0  0  0  0  0  0
  138.2657   76.1984  223.2975 H   0  0  0  0  0  0  0  0  0  0  0  0
  138.7739   78.6169  222.9894 H   0  0  0  0  0  0  0  0  0  0  0  0
  141.0238   79.4899  219.4845 H   0  0  0  0  0  0  0  0  0  0  0  0
  141.6654   82.0293  219.3141 H   0  0  0  0  0  0  0  0  0  0  0  0
  140.8536   80.1631  223.7564 H   0  0  0  0  0  0  0  0  0  0  0  0
  142.1847   77.4688  220.6448 H   0  0  0  0  0  0  0  0  0  0  0  0
  1  2  2  0
  2  3  1  0
  3  4  1  0
  4  5  1  0
  5  6  2  0
  6  7  1  0
  7  8  2  0
  8  9  1  0
  9 10  1  0
 10 11  2  0
 10 12  1  0
 12 13  1  0
 13 14  1  0
 14 15  1  0
 15 16  1  0
 16 17  1  0
  9 18  2  0
  4 19  2  0
 19 20  1  0
 20 21  2  0
 21 22  1  0
 22 23  2  0
 23 24  1  0
 24 25  1  0
 25 26  2  0
 26 27  1  0
 27 28  1  0
 23 29  1  0
 29 30  2  0
 30  2  1  0
 18  5  1  0
 30 20  1  0
 17 12  1  0
 28 24  2  0
  3 31  1  0
  3 32  1  0
  6 33  1  0
  7 34  1  0
  8 35  1  0
 13 36  1  0
 13 37  1  0
 14 38  1  0
 14 39  1  0
 15 40  1  0
 15 41  1  0
 16 42  1  0
 16 43  1  0
 17 44  1  0
 17 45  1  0
 18 46  1  0
 21 47  1  0
 22 48  1  0
 25 49  1  0
 26 50  1  0
 28 51  1  0
 29 52  1  0
M  END
>  <smiles>  (19) 
O=C1CC(c2cccc(C(=O)N3CCCCC3)c2)=Nc2ccc(-c3ccsc3)cc21

>  <score_type>  (19) 
oracle

>  <origin>  (19) 
autodockgpu

>  <m_score__min__energy>  (19) 
-9.6199999999999992

>  <m_primary>  (19) 
energy

>  <rmsd>  (19) 
10.868036001276266

>  <m_score__min__rmsd>  (19) 
10.868036001276266

>  <meeko>  (19) 
{"free_energy": -9.47, "intermolecular_energy": -10.36, "internal_energy": -0.89, "cluster_size": 50, "cluster_id": 1, "rank_in_cluster": 43}

>  <energy>  (19) 
-9.55

>  <cluster_rmsd>  (19) 
0.24

>  <cluster>  (19) 
1

$$$$

     RDKit          3D

 52 56  0  0  0  0  0  0  0  0999 V2000
  142.9150   75.1110  220.3140 O   0  0  0  0  0  0  0  0  0  0  0  0
  141.8890   74.7670  220.9520 C   0  0  0  0  0  0  0  0  0  0  0  0
  141.6220   73.3240  221.0910 C   0  0  0  0  0  0  0  0  0  0  0  0
  140.3730   73.1410  221.8720 C   0  0  0  0  0  0  0  0  0  0  0  0
  139.9690   71.7420  222.1220 C   0  0  0  0  0  0  0  0  0  0  0  0
  139.6350   70.8950  221.0860 C   0  0  0  0  0  0  0  0  0  0  0  0
  139.2670   69.5800  221.2590 C   0  0  0  0  0  0  0  0  0  0  0  0
  139.2250   69.0690  222.5380 C   0  0  0  0  0  0  0  0  0  0  0  0
  139.5510   69.8870  223.5900 C   0  0  0  0  0  0  0  0  0  0  0  0
  139.4950   69.2970  224.9300 C   0  0  0  0  0  0  0  0  0  0  0  0
  138.6720   68.3880  225.2330 O   0  0  0  0  0  0  0  0  0  0  0  0
  140.3720   69.7290  225.9440 N   0  0  0  0  0  0  0  0  0  0  0  0
  140.2590   69.0910  227.2650 C   0  0  0  0  0  0  0  0  0  0  0  0
  140.0980   70.1380  228.3450 C   0  0  0  0  0  0  0  0  0  0  0  0
  141.0740   71.2790  228.1810 C   0  0  0  0  0  0  0  0  0  0  0  0
  141.0550   71.8530  226.7740 C   0  0  0  0  0  0  0  0  0  0  0  0
  141.3750   70.7450  225.8130 C   0  0  0  0  0  0  0  0  0  0  0  0
  139.9260   71.2260  223.4120 C   0  0  0  0  0  0  0  0  0  0  0  0
  139.6570   74.0880  222.3390 N   0  0  0  0  0  0  0  0  0  0  0  0
  139.9250   75.4770  222.2000 C   0  0  0  0  0  0  0  0  0  0  0  0
  139.1590   76.4760  222.7120 C   0  0  0  0  0  0  0  0  0  0  0  0
  139.4610   77.8320  222.5620 C   0  0  0  0  0  0  0  0  0  0  0  0
  140.5930   78.1530  221.8590 C   0  0  0  0  0  0  0  0  0  0  0  0
  140.9970   79.5740  221.6540 C   0  0  0  0  0  0  0  0  0  0  0  0
  141.4660   80.3410  222.6210 C   0  0  0  0  0  0  0  0  0  0  0  0
  141.8300   81.6580  222.3660 C   0  0  0  0  0  0  0  0  0  0  0  0
  141.4650   81.8410  220.5230 S   0  0  0  0  0  0  0  0  0  0  0  0
  140.8710   80.1070  220.3620 C   0  0  0  0  0  0  0  0  0  0  0  0
  141.3820   77.1440  221.3330 C   0  0  0  0  0  0  0  0  0  0  0  0
  141.0590   75.8240  221.4970 C   0  0  0  0  0  0  0  0  0  0  0  0
  141.5046   72.8722  220.0949 H   0  0  0  0  0  0  0  0  0  0  0  0
  142.4612   72.8371  221.6093 H   0  0  0  0  0  0  0  0  0  0  0  0
  139.6644   71.2938  220.0613 H   0  0  0  0  0  0  0  0  0  0  0  0
  139.0117   68.9501  220.3941 H   0  0  0  0  0  0  0  0  0  0  0  0
  138.9349   68.0224  222.7126 H   0  0  0  0  0  0  0  0  0  0  0  0
  139.3833   68.4254  227.2722 H   0  0  0  0  0  0  0  0  0  0  0  0
  141.1745   68.5138  227.4616 H   0  0  0  0  0  0  0  0  0  0  0  0
  139.0743   70.5380  228.3013 H   0  0  0  0  0  0  0  0  0  0  0  0
  140.2982   69.6580  229.3143 H   0  0  0  0  0  0  0  0  0  0  0  0
  140.8103   72.0757  228.8922 H   0  0  0  0  0  0  0  0  0  0  0  0
  142.0845   70.8892  228.3730 H   0  0  0  0  0  0  0  0  0  0  0  0
  140.0585   72.2627  226.5520 H   0  0  0  0  0  0  0  0  0  0  0  0
  141.7950   72.6617  226.6827 H   0  0  0  0  0  0  0  0  0  0  0  0
  141.3772   71.1345  224.7843 H   0  0  0  0  0  0  0  0  0  0  0  0
  142.3679   70.3269  226.0351 H   0  0  0  0  0  0  0  0  0  0  0  0
  140.1813   71.8563  224.2766 H   0  0  0  0  0  0  0  0  0  0  0  0
  138.2537   76.2028  223.2740 H   0  0  0  0  0  0  0  0  0  0  0  0
  138.8151   78.6119  222.9916 H   0  0  0  0  0  0  0  0  0  0  0  0
  141.5696   79.9340  223.6377 H   0  0  0  0  0  0  0  0  0  0  0  0
  142.2310   82.4072  223.0644 H   0  0  0  0  0  0  0  0  0  0  0  0
  140.5008   79.6023  219.4575 H   0  0  0  0  0  0  0  0  0  0  0  0
  142.2892   77.4093  220.7704 H   0  0  0  0  0  0  0  0  0  0  0  0
  1  2  2  0
  2  3  1  0
  3  4  1  0
  4  5  1  0
  5  6  2  0
  6  7  1  0
  7  8  2  0
  8  9  1  0
  9 10  1  0
 10 11  2  0
 10 12  1  0
 12 13  1  0
 13 14  1  0
 14 15  1  0
 15 16  1  0
 16 17  1  0
  9 18  2  0
  4 19  2  0
 19 20  1  0
 20 21  2  0
 21 22  1  0
 22 23  2  0
 23 24  1  0
 24 25  1  0
 25 26  2  0
 26 27  1  0
 27 28  1  0
 23 29  1  0
 29 30  2  0
 30  2  1  0
 18  5  1  0
 30 20  1  0
 17 12  1  0
 28 24  2  0
  3 31  1  0
  3 32  1  0
  6 33  1  0
  7 34  1  0
  8 35  1  0
 13 36  1  0
 13 37  1  0
 14 38  1  0
 14 39  1  0
 15 40  1  0
 15 41  1  0
 16 42  1  0
 16 43  1  0
 17 44  1  0
 17 45  1  0
 18 46  1  0
 21 47  1  0
 22 48  1  0
 25 49  1  0
 26 50  1  0
 28 51  1  0
 29 52  1  0
M  END
>  <smiles>  (20) 
O=C1CC(c2cccc(C(=O)N3CCCCC3)c2)=Nc2ccc(-c3ccsc3)cc21

>  <score_type>  (20) 
oracle

>  <origin>  (20) 
autodockgpu

>  <m_score__min__energy>  (20) 
-9.6199999999999992

>  <m_primary>  (20) 
energy

>  <rmsd>  (20) 
10.88551531299187

>  <m_score__min__rmsd>  (20) 
10.88551531299187

>  <meeko>  (20) 
{"free_energy": -9.58, "intermolecular_energy": -10.48, "internal_energy": -0.8, "cluster_size": 50, "cluster_id": 1, "rank_in_cluster": 4}

>  <energy>  (20) 
-9.55

>  <cluster_rmsd>  (20) 
0.24

>  <cluster>  (20) 
1

$$$$

     RDKit          3D

 52 56  0  0  0  0  0  0  0  0999 V2000
  142.8810   75.2100  220.2390 O   0  0  0  0  0  0  0  0  0  0  0  0
  141.8680   74.8590  220.8950 C   0  0  0  0  0  0  0  0  0  0  0  0
  141.6080   73.4140  221.0290 C   0  0  0  0  0  0  0  0  0  0  0  0
  140.3750   73.2230  221.8330 C   0  0  0  0  0  0  0  0  0  0  0  0
  139.9790   71.8200  222.0810 C   0  0  0  0  0  0  0  0  0  0  0  0
  139.7330   70.9490  221.0420 C   0  0  0  0  0  0  0  0  0  0  0  0
  139.3780   69.6300  221.2140 C   0  0  0  0  0  0  0  0  0  0  0  0
  139.2560   69.1410  222.4970 C   0  0  0  0  0  0  0  0  0  0  0  0
  139.4940   69.9840  223.5530 C   0  0  0  0  0  0  0  0  0  0  0  0
  139.3560   69.4170  224.8970 C   0  0  0  0  0  0  0  0  0  0  0  0
  138.4630   68.5730  225.1840 O   0  0  0  0  0  0  0  0  0  0  0  0
  140.2310   69.8020  225.9330 N   0  0  0  0  0  0  0  0  0  0  0  0
  140.0330   69.1900  227.2570 C   0  0  0  0  0  0  0  0  0  0  0  0
  139.9130   70.2600  228.3200 C   0  0  0  0  0  0  0  0  0  0  0  0
  140.9710   71.3290  228.1740 C   0  0  0  0  0  0  0  0  0  0  0  0
  141.0350   71.8840  226.7600 C   0  0  0  0  0  0  0  0  0  0  0  0
  141.3050   70.7430  225.8220 C   0  0  0  0  0  0  0  0  0  0  0  0
  139.8570   71.3270  223.3750 C   0  0  0  0  0  0  0  0  0  0  0  0
  139.6660   74.1640  222.3200 N   0  0  0  0  0  0  0  0  0  0  0  0
  139.9270   75.5550  222.1850 C   0  0  0  0  0  0  0  0  0  0  0  0
  139.1680   76.5490  222.7180 C   0  0  0  0  0  0  0  0  0  0  0  0
  139.4630   77.9060  222.5710 C   0  0  0  0  0  0  0  0  0  0  0  0
  140.5810   78.2340  221.8480 C   0  0  0  0  0  0  0  0  0  0  0  0
  140.9770   79.6580  221.6450 C   0  0  0  0  0  0  0  0  0  0  0  0
  141.4250   80.4320  222.6170 C   0  0  0  0  0  0  0  0  0  0  0  0
  141.7820   81.7510  222.3620 C   0  0  0  0  0  0  0  0  0  0  0  0
  141.4450   81.9250  220.5130 S   0  0  0  0  0  0  0  0  0  0  0  0
  140.8670   80.1860  220.3490 C   0  0  0  0  0  0  0  0  0  0  0  0
  141.3620   77.2310  221.3010 C   0  0  0  0  0  0  0  0  0  0  0  0
  141.0460   75.9090  221.4620 C   0  0  0  0  0  0  0  0  0  0  0  0
  141.4723   72.9687  220.0324 H   0  0  0  0  0  0  0  0  0  0  0  0
  142.4586   72.9255  221.5269 H   0  0  0  0  0  0  0  0  0  0  0  0
  139.8257   71.3301  220.0143 H   0  0  0  0  0  0  0  0  0  0  0  0
  139.1955   68.9799  220.3457 H   0  0  0  0  0  0  0  0  0  0  0  0
  138.9726   68.0925  222.6713 H   0  0  0  0  0  0  0  0  0  0  0  0
  139.1129   68.5874  227.2438 H   0  0  0  0  0  0  0  0  0  0  0  0
  140.8990   68.5525  227.4886 H   0  0  0  0  0  0  0  0  0  0  0  0
  138.9214   70.7294  228.2401 H   0  0  0  0  0  0  0  0  0  0  0  0
  140.0502   69.7800  229.3002 H   0  0  0  0  0  0  0  0  0  0  0  0
  140.7416   72.1515  228.8674 H   0  0  0  0  0  0  0  0  0  0  0  0
  141.9457   70.8731  228.4024 H   0  0  0  0  0  0  0  0  0  0  0  0
  140.0771   72.3595  226.5025 H   0  0  0  0  0  0  0  0  0  0  0  0
  141.8326   72.6376  226.6825 H   0  0  0  0  0  0  0  0  0  0  0  0
  141.3655   71.1174  224.7895 H   0  0  0  0  0  0  0  0  0  0  0  0
  142.2588   70.2596  226.0799 H   0  0  0  0  0  0  0  0  0  0  0  0
  140.0416   71.9776  224.2426 H   0  0  0  0  0  0  0  0  0  0  0  0
  138.2744   76.2696  223.2955 H   0  0  0  0  0  0  0  0  0  0  0  0
  138.8235   78.6815  223.0178 H   0  0  0  0  0  0  0  0  0  0  0  0
  141.5163   80.0295  223.6366 H   0  0  0  0  0  0  0  0  0  0  0  0
  142.1657   82.5061  223.0638 H   0  0  0  0  0  0  0  0  0  0  0  0
  140.5148   79.6754  219.4406 H   0  0  0  0  0  0  0  0  0  0  0  0
  142.2578   77.5026  220.7232 H   0  0  0  0  0  0  0  0  0  0  0  0
  1  2  2  0
  2  3  1  0
  3  4  1  0
  4  5  1  0
  5  6  2  0
  6  7  1  0
  7  8  2  0
  8  9  1  0
  9 10  1  0
 10 11  2  0
 10 12  1  0
 12 13  1  0
 13 14  1  0
 14 15  1  0
 15 16  1  0
 16 17  1  0
  9 18  2  0
  4 19  2  0
 19 20  1  0
 20 21  2  0
 21 22  1  0
 22 23  2  0
 23 24  1  0
 24 25  1  0
 25 26  2  0
 26 27  1  0
 27 28  1  0
 23 29  1  0
 29 30  2  0
 30  2  1  0
 18  5  1  0
 30 20  1  0
 17 12  1  0
 28 24  2  0
  3 31  1  0
  3 32  1  0
  6 33  1  0
  7 34  1  0
  8 35  1  0
 13 36  1  0
 13 37  1  0
 14 38  1  0
 14 39  1  0
 15 40  1  0
 15 41  1  0
 16 42  1  0
 16 43  1  0
 17 44  1  0
 17 45  1  0
 18 46  1  0
 21 47  1  0
 22 48  1  0
 25 49  1  0
 26 50  1  0
 28 51  1  0
 29 52  1  0
M  END
>  <smiles>  (21) 
O=C1CC(c2cccc(C(=O)N3CCCCC3)c2)=Nc2ccc(-c3ccsc3)cc21

>  <score_type>  (21) 
oracle

>  <origin>  (21) 
autodockgpu

>  <m_score__min__energy>  (21) 
-9.6199999999999992

>  <m_primary>  (21) 
energy

>  <rmsd>  (21) 
10.83265612952036

>  <m_score__min__rmsd>  (21) 
10.83265612952036

>  <meeko>  (21) 
{"free_energy": -9.53, "intermolecular_energy": -10.43, "internal_energy": -0.87, "cluster_size": 50, "cluster_id": 1, "rank_in_cluster": 30}

>  <energy>  (21) 
-9.55

>  <cluster_rmsd>  (21) 
0.24

>  <cluster>  (21) 
1

$$$$

     RDKit          3D

 52 56  0  0  0  0  0  0  0  0999 V2000
  142.8250   75.1290  220.1840 O   0  0  0  0  0  0  0  0  0  0  0  0
  141.8240   74.7710  220.8550 C   0  0  0  0  0  0  0  0  0  0  0  0
  141.5840   73.3240  221.0060 C   0  0  0  0  0  0  0  0  0  0  0  0
  140.3640   73.1250  221.8270 C   0  0  0  0  0  0  0  0  0  0  0  0
  139.9890   71.7200  222.0930 C   0  0  0  0  0  0  0  0  0  0  0  0
  139.7680   70.8290  221.0650 C   0  0  0  0  0  0  0  0  0  0  0  0
  139.4330   69.5070  221.2550 C   0  0  0  0  0  0  0  0  0  0  0  0
  139.3070   69.0360  222.5430 C   0  0  0  0  0  0  0  0  0  0  0  0
  139.5200   69.8990  223.5880 C   0  0  0  0  0  0  0  0  0  0  0  0
  139.3790   69.3510  224.9390 C   0  0  0  0  0  0  0  0  0  0  0  0
  138.4790   68.5160  225.2380 O   0  0  0  0  0  0  0  0  0  0  0  0
  140.2560   69.7420  225.9700 N   0  0  0  0  0  0  0  0  0  0  0  0
  140.0550   69.1490  227.3020 C   0  0  0  0  0  0  0  0  0  0  0  0
  139.9430   70.2340  228.3510 C   0  0  0  0  0  0  0  0  0  0  0  0
  141.0080   71.2930  228.1910 C   0  0  0  0  0  0  0  0  0  0  0  0
  141.0760   71.8290  226.7700 C   0  0  0  0  0  0  0  0  0  0  0  0
  141.3380   70.6750  225.8470 C   0  0  0  0  0  0  0  0  0  0  0  0
  139.8620   71.2450  223.3930 C   0  0  0  0  0  0  0  0  0  0  0  0
  139.6480   74.0620  222.3140 N   0  0  0  0  0  0  0  0  0  0  0  0
  139.8900   75.4550  222.1620 C   0  0  0  0  0  0  0  0  0  0  0  0
  139.1240   76.4440  222.6950 C   0  0  0  0  0  0  0  0  0  0  0  0
  139.4000   77.8040  222.5320 C   0  0  0  0  0  0  0  0  0  0  0  0
  140.5050   78.1390  221.7930 C   0  0  0  0  0  0  0  0  0  0  0  0
  140.8800   79.5660  221.5710 C   0  0  0  0  0  0  0  0  0  0  0  0
  141.1220   80.0740  220.3770 C   0  0  0  0  0  0  0  0  0  0  0  0
  141.4650   81.4150  220.2350 C   0  0  0  0  0  0  0  0  0  0  0  0
  141.4420   82.0410  222.0160 S   0  0  0  0  0  0  0  0  0  0  0  0
  140.9730   80.3970  222.6980 C   0  0  0  0  0  0  0  0  0  0  0  0
  141.2930   77.1410  221.2450 C   0  0  0  0  0  0  0  0  0  0  0  0
  140.9950   75.8160  221.4230 C   0  0  0  0  0  0  0  0  0  0  0  0
  141.4416   72.8675  220.0154 H   0  0  0  0  0  0  0  0  0  0  0  0
  142.4469   72.8512  221.4979 H   0  0  0  0  0  0  0  0  0  0  0  0
  139.8649   71.1954  220.0324 H   0  0  0  0  0  0  0  0  0  0  0  0
  139.2693   68.8405  220.3953 H   0  0  0  0  0  0  0  0  0  0  0  0
  139.0401   67.9855  222.7307 H   0  0  0  0  0  0  0  0  0  0  0  0
  139.1308   68.5524  227.2975 H   0  0  0  0  0  0  0  0  0  0  0  0
  140.9169   68.5088  227.5414 H   0  0  0  0  0  0  0  0  0  0  0  0
  138.9547   70.7094  228.2651 H   0  0  0  0  0  0  0  0  0  0  0  0
  140.0771   69.7659  229.3373 H   0  0  0  0  0  0  0  0  0  0  0  0
  140.7845   72.1262  228.8735 H   0  0  0  0  0  0  0  0  0  0  0  0
  141.9794   70.8331  228.4253 H   0  0  0  0  0  0  0  0  0  0  0  0
  140.1214   72.3078  226.5063 H   0  0  0  0  0  0  0  0  0  0  0  0
  141.8790   72.5757  226.6830 H   0  0  0  0  0  0  0  0  0  0  0  0
  141.4012   71.0359  224.8098 H   0  0  0  0  0  0  0  0  0  0  0  0
  142.2885   70.1883  226.1110 H   0  0  0  0  0  0  0  0  0  0  0  0
  140.0265   71.9119  224.2522 H   0  0  0  0  0  0  0  0  0  0  0  0
  138.2409   76.1585  223.2854 H   0  0  0  0  0  0  0  0  0  0  0  0
  138.7559   78.5756  222.9791 H   0  0  0  0  0  0  0  0  0  0  0  0
  141.0519   79.4318  219.4867 H   0  0  0  0  0  0  0  0  0  0  0  0
  141.6929   81.9719  219.3141 H   0  0  0  0  0  0  0  0  0  0  0  0
  140.8039   80.1270  223.7508 H   0  0  0  0  0  0  0  0  0  0  0  0
  142.1780   77.4184  220.6535 H   0  0  0  0  0  0  0  0  0  0  0  0
  1  2  2  0
  2  3  1  0
  3  4  1  0
  4  5  1  0
  5  6  2  0
  6  7  1  0
  7  8  2  0
  8  9  1  0
  9 10  1  0
 10 11  2  0
 10 12  1  0
 12 13  1  0
 13 14  1  0
 14 15  1  0
 15 16  1  0
 16 17  1  0
  9 18  2  0
  4 19  2  0
 19 20  1  0
 20 21  2  0
 21 22  1  0
 22 23  2  0
 23 24  1  0
 24 25  1  0
 25 26  2  0
 26 27  1  0
 27 28  1  0
 23 29  1  0
 29 30  2  0
 30  2  1  0
 18  5  1  0
 30 20  1  0
 17 12  1  0
 28 24  2  0
  3 31  1  0
  3 32  1  0
  6 33  1  0
  7 34  1  0
  8 35  1  0
 13 36  1  0
 13 37  1  0
 14 38  1  0
 14 39  1  0
 15 40  1  0
 15 41  1  0
 16 42  1  0
 16 43  1  0
 17 44  1  0
 17 45  1  0
 18 46  1  0
 21 47  1  0
 22 48  1  0
 25 49  1  0
 26 50  1  0
 28 51  1  0
 29 52  1  0
M  END
>  <smiles>  (22) 
O=C1CC(c2cccc(C(=O)N3CCCCC3)c2)=Nc2ccc(-c3ccsc3)cc21

>  <score_type>  (22) 
oracle

>  <origin>  (22) 
autodockgpu

>  <m_score__min__energy>  (22) 
-9.6199999999999992

>  <m_primary>  (22) 
energy

>  <rmsd>  (22) 
10.902081809468001

>  <m_score__min__rmsd>  (22) 
10.902081809468001

>  <meeko>  (22) 
{"free_energy": -9.46, "intermolecular_energy": -10.36, "internal_energy": -0.89, "cluster_size": 50, "cluster_id": 1, "rank_in_cluster": 44}

>  <energy>  (22) 
-9.55

>  <cluster_rmsd>  (22) 
0.24

>  <cluster>  (22) 
1

$$$$

     RDKit          3D

 52 56  0  0  0  0  0  0  0  0999 V2000
  142.8920   75.1890  220.3250 O   0  0  0  0  0  0  0  0  0  0  0  0
  141.8630   74.8420  220.9590 C   0  0  0  0  0  0  0  0  0  0  0  0
  141.5950   73.3990  221.0920 C   0  0  0  0  0  0  0  0  0  0  0  0
  140.3440   73.2130  221.8690 C   0  0  0  0  0  0  0  0  0  0  0  0
  139.9390   71.8130  222.1110 C   0  0  0  0  0  0  0  0  0  0  0  0
  139.6640   70.9530  221.0690 C   0  0  0  0  0  0  0  0  0  0  0  0
  139.2990   69.6360  221.2360 C   0  0  0  0  0  0  0  0  0  0  0  0
  139.1960   69.1370  222.5160 C   0  0  0  0  0  0  0  0  0  0  0  0
  139.4620   69.9680  223.5750 C   0  0  0  0  0  0  0  0  0  0  0  0
  139.3430   69.3900  224.9160 C   0  0  0  0  0  0  0  0  0  0  0  0
  138.4610   68.5350  225.2060 O   0  0  0  0  0  0  0  0  0  0  0  0
  140.2240   69.7750  225.9460 N   0  0  0  0  0  0  0  0  0  0  0  0
  140.0460   69.1520  227.2670 C   0  0  0  0  0  0  0  0  0  0  0  0
  139.9270   70.2130  228.3390 C   0  0  0  0  0  0  0  0  0  0  0  0
  140.9730   71.2930  228.1900 C   0  0  0  0  0  0  0  0  0  0  0  0
  141.0180   71.8590  226.7800 C   0  0  0  0  0  0  0  0  0  0  0  0
  141.2890   70.7280  225.8310 C   0  0  0  0  0  0  0  0  0  0  0  0
  139.8350   71.3090  223.4020 C   0  0  0  0  0  0  0  0  0  0  0  0
  139.6270   74.1580  222.3380 N   0  0  0  0  0  0  0  0  0  0  0  0
  139.8960   75.5470  222.2050 C   0  0  0  0  0  0  0  0  0  0  0  0
  139.1280   76.5450  222.7190 C   0  0  0  0  0  0  0  0  0  0  0  0
  139.4310   77.9010  222.5750 C   0  0  0  0  0  0  0  0  0  0  0  0
  140.5650   78.2240  221.8760 C   0  0  0  0  0  0  0  0  0  0  0  0
  140.9700   79.6460  221.6780 C   0  0  0  0  0  0  0  0  0  0  0  0
  141.4500   80.4050  222.6470 C   0  0  0  0  0  0  0  0  0  0  0  0
  141.8130   81.7240  222.3980 C   0  0  0  0  0  0  0  0  0  0  0  0
  141.4320   81.9210  220.5600 S   0  0  0  0  0  0  0  0  0  0  0  0
  140.8330   80.1890  220.3910 C   0  0  0  0  0  0  0  0  0  0  0  0
  141.3560   77.2180  221.3490 C   0  0  0  0  0  0  0  0  0  0  0  0
  141.0310   75.8970  221.5060 C   0  0  0  0  0  0  0  0  0  0  0  0
  141.4801   72.9511  220.0939 H   0  0  0  0  0  0  0  0  0  0  0  0
  142.4327   72.9102  221.6109 H   0  0  0  0  0  0  0  0  0  0  0  0
  139.7408   71.3423  220.0431 H   0  0  0  0  0  0  0  0  0  0  0  0
  139.0939   68.9955  220.3655 H   0  0  0  0  0  0  0  0  0  0  0  0
  138.9054   68.0898  222.6862 H   0  0  0  0  0  0  0  0  0  0  0  0
  139.1316   68.5406  227.2591 H   0  0  0  0  0  0  0  0  0  0  0  0
  140.9206   68.5214  227.4848 H   0  0  0  0  0  0  0  0  0  0  0  0
  138.9302   70.6734  228.2729 H   0  0  0  0  0  0  0  0  0  0  0  0
  140.0790   69.7271  229.3141 H   0  0  0  0  0  0  0  0  0  0  0  0
  140.7427   72.1082  228.8917 H   0  0  0  0  0  0  0  0  0  0  0  0
  141.9541   70.8445  228.4050 H   0  0  0  0  0  0  0  0  0  0  0  0
  140.0533   72.3276  226.5355 H   0  0  0  0  0  0  0  0  0  0  0  0
  141.8079   72.6204  226.7004 H   0  0  0  0  0  0  0  0  0  0  0  0
  141.3353   71.1106  224.8007 H   0  0  0  0  0  0  0  0  0  0  0  0
  142.2500   70.2518  226.0755 H   0  0  0  0  0  0  0  0  0  0  0  0
  140.0414   71.9498  224.2719 H   0  0  0  0  0  0  0  0  0  0  0  0
  138.2210   76.2700  223.2772 H   0  0  0  0  0  0  0  0  0  0  0  0
  138.7845   78.6796  223.0060 H   0  0  0  0  0  0  0  0  0  0  0  0
  141.5634   79.9900  223.6594 H   0  0  0  0  0  0  0  0  0  0  0  0
  142.2209   82.4678  223.0983 H   0  0  0  0  0  0  0  0  0  0  0  0
  140.4535   79.6919  219.4861 H   0  0  0  0  0  0  0  0  0  0  0  0
  142.2659   77.4855  220.7917 H   0  0  0  0  0  0  0  0  0  0  0  0
  1  2  2  0
  2  3  1  0
  3  4  1  0
  4  5  1  0
  5  6  2  0
  6  7  1  0
  7  8  2  0
  8  9  1  0
  9 10  1  0
 10 11  2  0
 10 12  1  0
 12 13  1  0
 13 14  1  0
 14 15  1  0
 15 16  1  0
 16 17  1  0
  9 18  2  0
  4 19  2  0
 19 20  1  0
 20 21  2  0
 21 22  1  0
 22 23  2  0
 23 24  1  0
 24 25  1  0
 25 26  2  0
 26 27  1  0
 27 28  1  0
 23 29  1  0
 29 30  2  0
 30  2  1  0
 18  5  1  0
 30 20  1  0
 17 12  1  0
 28 24  2  0
  3 31  1  0
  3 32  1  0
  6 33  1  0
  7 34  1  0
  8 35  1  0
 13 36  1  0
 13 37  1  0
 14 38  1  0
 14 39  1  0
 15 40  1  0
 15 41  1  0
 16 42  1  0
 16 43  1  0
 17 44  1  0
 17 45  1  0
 18 46  1  0
 21 47  1  0
 22 48  1  0
 25 49  1  0
 26 50  1  0
 28 51  1  0
 29 52  1  0
M  END
>  <smiles>  (23) 
O=C1CC(c2cccc(C(=O)N3CCCCC3)c2)=Nc2ccc(-c3ccsc3)cc21

>  <score_type>  (23) 
oracle

>  <origin>  (23) 
autodockgpu

>  <m_score__min__energy>  (23) 
-9.6199999999999992

>  <m_primary>  (23) 
energy

>  <rmsd>  (23) 
10.851774110725966

>  <m_score__min__rmsd>  (23) 
10.851774110725966

>  <meeko>  (23) 
{"free_energy": -9.56, "intermolecular_energy": -10.46, "internal_energy": -0.86, "cluster_size": 50, "cluster_id": 1, "rank_in_cluster": 6}

>  <energy>  (23) 
-9.54

>  <cluster_rmsd>  (23) 
0.25

>  <cluster>  (23) 
1

$$$$

     RDKit          3D

 52 56  0  0  0  0  0  0  0  0999 V2000
  142.8740   75.0320  220.4190 O   0  0  0  0  0  0  0  0  0  0  0  0
  141.8340   74.6700  221.0240 C   0  0  0  0  0  0  0  0  0  0  0  0
  141.5840   73.2220  221.1490 C   0  0  0  0  0  0  0  0  0  0  0  0
  140.3150   73.0180  221.8910 C   0  0  0  0  0  0  0  0  0  0  0  0
  139.9240   71.6110  222.1220 C   0  0  0  0  0  0  0  0  0  0  0  0
  139.5650   70.7840  221.0790 C   0  0  0  0  0  0  0  0  0  0  0  0
  139.2080   69.4640  221.2340 C   0  0  0  0  0  0  0  0  0  0  0  0
  139.2040   68.9260  222.5030 C   0  0  0  0  0  0  0  0  0  0  0  0
  139.5550   69.7240  223.5620 C   0  0  0  0  0  0  0  0  0  0  0  0
  139.5390   69.1050  224.8900 C   0  0  0  0  0  0  0  0  0  0  0  0
  138.7670   68.1490  225.1800 O   0  0  0  0  0  0  0  0  0  0  0  0
  140.3990   69.5640  225.9080 N   0  0  0  0  0  0  0  0  0  0  0  0
  140.3280   68.8950  227.2170 C   0  0  0  0  0  0  0  0  0  0  0  0
  140.1190   69.9110  228.3180 C   0  0  0  0  0  0  0  0  0  0  0  0
  141.0320   71.1050  228.1720 C   0  0  0  0  0  0  0  0  0  0  0  0
  140.9740   71.7050  226.7760 C   0  0  0  0  0  0  0  0  0  0  0  0
  141.3450   70.6340  225.7920 C   0  0  0  0  0  0  0  0  0  0  0  0
  139.9190   71.0680  223.4020 C   0  0  0  0  0  0  0  0  0  0  0  0
  139.5710   73.9510  222.3400 N   0  0  0  0  0  0  0  0  0  0  0  0
  139.8230   75.3450  222.2150 C   0  0  0  0  0  0  0  0  0  0  0  0
  139.0260   76.3300  222.7070 C   0  0  0  0  0  0  0  0  0  0  0  0
  139.3120   77.6910  222.5720 C   0  0  0  0  0  0  0  0  0  0  0  0
  140.4610   78.0310  221.9050 C   0  0  0  0  0  0  0  0  0  0  0  0
  140.8500   79.4590  221.7190 C   0  0  0  0  0  0  0  0  0  0  0  0
  141.0770   80.0000  220.5360 C   0  0  0  0  0  0  0  0  0  0  0  0
  141.4340   81.3400  220.4270 C   0  0  0  0  0  0  0  0  0  0  0  0
  141.4510   81.9130  222.2260 S   0  0  0  0  0  0  0  0  0  0  0  0
  140.9740   80.2560  222.8680 C   0  0  0  0  0  0  0  0  0  0  0  0
  141.2800   77.0370  221.4000 C   0  0  0  0  0  0  0  0  0  0  0  0
  140.9720   75.7110  221.5480 C   0  0  0  0  0  0  0  0  0  0  0  0
  141.5033   72.7730  220.1481 H   0  0  0  0  0  0  0  0  0  0  0  0
  142.4142   72.7448  221.6902 H   0  0  0  0  0  0  0  0  0  0  0  0
  139.5639   71.2042  220.0624 H   0  0  0  0  0  0  0  0  0  0  0  0
  138.9316   68.8511  220.3634 H   0  0  0  0  0  0  0  0  0  0  0  0
  138.9240   67.8744  222.6638 H   0  0  0  0  0  0  0  0  0  0  0  0
  139.4885   68.1842  227.2157 H   0  0  0  0  0  0  0  0  0  0  0  0
  141.2737   68.3629  227.3974 H   0  0  0  0  0  0  0  0  0  0  0  0
  139.0753   70.2571  228.2874 H   0  0  0  0  0  0  0  0  0  0  0  0
  140.3507   69.4234  229.2764 H   0  0  0  0  0  0  0  0  0  0  0  0
  140.7308   71.8724  228.9002 H   0  0  0  0  0  0  0  0  0  0  0  0
  142.0629   70.7658  228.3512 H   0  0  0  0  0  0  0  0  0  0  0  0
  139.9562   72.0664  226.5676 H   0  0  0  0  0  0  0  0  0  0  0  0
  141.6701   72.5530  226.6966 H   0  0  0  0  0  0  0  0  0  0  0  0
  141.3197   71.0429  224.7711 H   0  0  0  0  0  0  0  0  0  0  0  0
  142.3599   70.2647  226.0010 H   0  0  0  0  0  0  0  0  0  0  0  0
  140.1954   71.6814  224.2723 H   0  0  0  0  0  0  0  0  0  0  0  0
  138.1079   76.0406  223.2393 H   0  0  0  0  0  0  0  0  0  0  0  0
  138.6418   78.4596  222.9845 H   0  0  0  0  0  0  0  0  0  0  0  0
  140.9829   79.3855  219.6285 H   0  0  0  0  0  0  0  0  0  0  0  0
  141.6521   81.9211  219.5189 H   0  0  0  0  0  0  0  0  0  0  0  0
  140.8206   79.9573  223.9155 H   0  0  0  0  0  0  0  0  0  0  0  0
  142.2002   77.3184  220.8671 H   0  0  0  0  0  0  0  0  0  0  0  0
  1  2  2  0
  2  3  1  0
  3  4  1  0
  4  5  1  0
  5  6  2  0
  6  7  1  0
  7  8  2  0
  8  9  1  0
  9 10  1  0
 10 11  2  0
 10 12  1  0
 12 13  1  0
 13 14  1  0
 14 15  1  0
 15 16  1  0
 16 17  1  0
  9 18  2  0
  4 19  2  0
 19 20  1  0
 20 21  2  0
 21 22  1  0
 22 23  2  0
 23 24  1  0
 24 25  1  0
 25 26  2  0
 26 27  1  0
 27 28  1  0
 23 29  1  0
 29 30  2  0
 30  2  1  0
 18  5  1  0
 30 20  1  0
 17 12  1  0
 28 24  2  0
  3 31  1  0
  3 32  1  0
  6 33  1  0
  7 34  1  0
  8 35  1  0
 13 36  1  0
 13 37  1  0
 14 38  1  0
 14 39  1  0
 15 40  1  0
 15 41  1  0
 16 42  1  0
 16 43  1  0
 17 44  1  0
 17 45  1  0
 18 46  1  0
 21 47  1  0
 22 48  1  0
 25 49  1  0
 26 50  1  0
 28 51  1  0
 29 52  1  0
M  END
>  <smiles>  (24) 
O=C1CC(c2cccc(C(=O)N3CCCCC3)c2)=Nc2ccc(-c3ccsc3)cc21

>  <score_type>  (24) 
oracle

>  <origin>  (24) 
autodockgpu

>  <m_score__min__energy>  (24) 
-9.6199999999999992

>  <m_primary>  (24) 
energy

>  <rmsd>  (24) 
10.98861370445626

>  <m_score__min__rmsd>  (24) 
10.98861370445626

>  <meeko>  (24) 
{"free_energy": -9.6, "intermolecular_energy": -10.49, "internal_energy": -0.75, "cluster_size": 50, "cluster_id": 1, "rank_in_cluster": 3}

>  <energy>  (24) 
-9.54

>  <cluster_rmsd>  (24) 
0.22

>  <cluster>  (24) 
1

$$$$

     RDKit          3D

 52 56  0  0  0  0  0  0  0  0999 V2000
  142.8270   75.1970  220.1840 O   0  0  0  0  0  0  0  0  0  0  0  0
  141.8270   74.8350  220.8540 C   0  0  0  0  0  0  0  0  0  0  0  0
  141.5890   73.3870  220.9990 C   0  0  0  0  0  0  0  0  0  0  0  0
  140.3690   73.1830  221.8190 C   0  0  0  0  0  0  0  0  0  0  0  0
  139.9970   71.7760  222.0790 C   0  0  0  0  0  0  0  0  0  0  0  0
  139.7830   70.8870  221.0480 C   0  0  0  0  0  0  0  0  0  0  0  0
  139.4500   69.5640  221.2310 C   0  0  0  0  0  0  0  0  0  0  0  0
  139.3190   69.0890  222.5180 C   0  0  0  0  0  0  0  0  0  0  0  0
  139.5250   69.9500  223.5670 C   0  0  0  0  0  0  0  0  0  0  0  0
  139.3770   69.3970  224.9150 C   0  0  0  0  0  0  0  0  0  0  0  0
  138.4750   68.5630  225.2080 O   0  0  0  0  0  0  0  0  0  0  0  0
  140.2520   69.7830  225.9510 N   0  0  0  0  0  0  0  0  0  0  0  0
  140.0440   69.1850  227.2800 C   0  0  0  0  0  0  0  0  0  0  0  0
  139.9320   70.2670  228.3320 C   0  0  0  0  0  0  0  0  0  0  0  0
  141.0000   71.3240  228.1790 C   0  0  0  0  0  0  0  0  0  0  0  0
  141.0740   71.8650  226.7600 C   0  0  0  0  0  0  0  0  0  0  0  0
  141.3360   70.7130  225.8340 C   0  0  0  0  0  0  0  0  0  0  0  0
  139.8640   71.2970  223.3770 C   0  0  0  0  0  0  0  0  0  0  0  0
  139.6530   74.1160  222.3110 N   0  0  0  0  0  0  0  0  0  0  0  0
  139.8930   75.5100  222.1660 C   0  0  0  0  0  0  0  0  0  0  0  0
  139.1260   76.4960  222.7040 C   0  0  0  0  0  0  0  0  0  0  0  0
  139.4000   77.8570  222.5460 C   0  0  0  0  0  0  0  0  0  0  0  0
  140.5040   78.1970  221.8080 C   0  0  0  0  0  0  0  0  0  0  0  0
  140.8770   79.6250  221.5930 C   0  0  0  0  0  0  0  0  0  0  0  0
  141.1030   80.1430  220.3990 C   0  0  0  0  0  0  0  0  0  0  0  0
  141.4450   81.4840  220.2640 C   0  0  0  0  0  0  0  0  0  0  0  0
  141.4470   82.0960  222.0490 S   0  0  0  0  0  0  0  0  0  0  0  0
  140.9860   80.4480  222.7250 C   0  0  0  0  0  0  0  0  0  0  0  0
  141.2930   77.2020  221.2550 C   0  0  0  0  0  0  0  0  0  0  0  0
  140.9970   75.8770  221.4270 C   0  0  0  0  0  0  0  0  0  0  0  0
  141.4474   72.9343  220.0065 H   0  0  0  0  0  0  0  0  0  0  0  0
  142.4524   72.9134  221.4891 H   0  0  0  0  0  0  0  0  0  0  0  0
  139.8844   71.2568  220.0170 H   0  0  0  0  0  0  0  0  0  0  0  0
  139.2918   68.9001  220.3684 H   0  0  0  0  0  0  0  0  0  0  0  0
  139.0538   68.0374  222.7016 H   0  0  0  0  0  0  0  0  0  0  0  0
  139.1178   68.5917  227.2699 H   0  0  0  0  0  0  0  0  0  0  0  0
  140.9023   68.5404  227.5202 H   0  0  0  0  0  0  0  0  0  0  0  0
  138.9452   70.7452  228.2448 H   0  0  0  0  0  0  0  0  0  0  0  0
  140.0624   69.7951  229.3171 H   0  0  0  0  0  0  0  0  0  0  0  0
  140.7763   72.1553  228.8638 H   0  0  0  0  0  0  0  0  0  0  0  0
  141.9695   70.8608  228.4147 H   0  0  0  0  0  0  0  0  0  0  0  0
  140.1216   72.3472  226.4948 H   0  0  0  0  0  0  0  0  0  0  0  0
  141.8791   72.6101  226.6781 H   0  0  0  0  0  0  0  0  0  0  0  0
  141.4031   71.0769  224.7981 H   0  0  0  0  0  0  0  0  0  0  0  0
  142.2845   70.2231  226.0992 H   0  0  0  0  0  0  0  0  0  0  0  0
  140.0217   71.9622  224.2388 H   0  0  0  0  0  0  0  0  0  0  0  0
  138.2440   76.2069  223.2943 H   0  0  0  0  0  0  0  0  0  0  0  0
  138.7548   78.6258  222.9963 H   0  0  0  0  0  0  0  0  0  0  0  0
  141.0200   79.5084  219.5044 H   0  0  0  0  0  0  0  0  0  0  0  0
  141.6609   82.0482  219.3447 H   0  0  0  0  0  0  0  0  0  0  0  0
  140.8309   80.1704  223.7780 H   0  0  0  0  0  0  0  0  0  0  0  0
  142.1774   77.4831  220.6643 H   0  0  0  0  0  0  0  0  0  0  0  0
  1  2  2  0
  2  3  1  0
  3  4  1  0
  4  5  1  0
  5  6  2  0
  6  7  1  0
  7  8  2  0
  8  9  1  0
  9 10  1  0
 10 11  2  0
 10 12  1  0
 12 13  1  0
 13 14  1  0
 14 15  1  0
 15 16  1  0
 16 17  1  0
  9 18  2  0
  4 19  2  0
 19 20  1  0
 20 21  2  0
 21 22  1  0
 22 23  2  0
 23 24  1  0
 24 25  1  0
 25 26  2  0
 26 27  1  0
 27 28  1  0
 23 29  1  0
 29 30  2  0
 30  2  1  0
 18  5  1  0
 30 20  1  0
 17 12  1  0
 28 24  2  0
  3 31  1  0
  3 32  1  0
  6 33  1  0
  7 34  1  0
  8 35  1  0
 13 36  1  0
 13 37  1  0
 14 38  1  0
 14 39  1  0
 15 40  1  0
 15 41  1  0
 16 42  1  0
 16 43  1  0
 17 44  1  0
 17 45  1  0
 18 46  1  0
 21 47  1  0
 22 48  1  0
 25 49  1  0
 26 50  1  0
 28 51  1  0
 29 52  1  0
M  END
>  <smiles>  (25) 
O=C1CC(c2cccc(C(=O)N3CCCCC3)c2)=Nc2ccc(-c3ccsc3)cc21

>  <score_type>  (25) 
oracle

>  <origin>  (25) 
autodockgpu

>  <m_score__min__energy>  (25) 
-9.6199999999999992

>  <m_primary>  (25) 
energy

>  <rmsd>  (25) 
10.861717068709059

>  <m_score__min__rmsd>  (25) 
10.861717068709059

>  <meeko>  (25) 
{"free_energy": -9.47, "intermolecular_energy": -10.36, "internal_energy": -0.89, "cluster_size": 50, "cluster_id": 1, "rank_in_cluster": 42}

>  <energy>  (25) 
-9.54

>  <cluster_rmsd>  (25) 
0.24

>  <cluster>  (25) 
1

$$$$

     RDKit          3D

 52 56  0  0  0  0  0  0  0  0999 V2000
  142.9030   75.0880  220.3590 O   0  0  0  0  0  0  0  0  0  0  0  0
  141.8710   74.7390  220.9850 C   0  0  0  0  0  0  0  0  0  0  0  0
  141.6080   73.2950  221.1190 C   0  0  0  0  0  0  0  0  0  0  0  0
  140.3510   73.1060  221.8860 C   0  0  0  0  0  0  0  0  0  0  0  0
  139.9490   71.7050  222.1280 C   0  0  0  0  0  0  0  0  0  0  0  0
  139.5840   70.8730  221.0920 C   0  0  0  0  0  0  0  0  0  0  0  0
  139.2170   69.5560  221.2580 C   0  0  0  0  0  0  0  0  0  0  0  0
  139.2080   69.0290  222.5310 C   0  0  0  0  0  0  0  0  0  0  0  0
  139.5660   69.8320  223.5840 C   0  0  0  0  0  0  0  0  0  0  0  0
  139.5450   69.2250  224.9170 C   0  0  0  0  0  0  0  0  0  0  0  0
  138.7580   68.2840  225.2180 O   0  0  0  0  0  0  0  0  0  0  0  0
  140.4180   69.6770  225.9270 N   0  0  0  0  0  0  0  0  0  0  0  0
  140.3410   69.0190  227.2420 C   0  0  0  0  0  0  0  0  0  0  0  0
  140.1550   70.0480  228.3360 C   0  0  0  0  0  0  0  0  0  0  0  0
  141.0880   71.2250  228.1760 C   0  0  0  0  0  0  0  0  0  0  0  0
  141.0340   71.8140  226.7750 C   0  0  0  0  0  0  0  0  0  0  0  0
  141.3820   70.7290  225.7980 C   0  0  0  0  0  0  0  0  0  0  0  0
  139.9400   71.1730  223.4120 C   0  0  0  0  0  0  0  0  0  0  0  0
  139.6260   74.0490  222.3460 N   0  0  0  0  0  0  0  0  0  0  0  0
  139.8900   75.4400  222.2120 C   0  0  0  0  0  0  0  0  0  0  0  0
  139.1140   76.4350  222.7170 C   0  0  0  0  0  0  0  0  0  0  0  0
  139.4130   77.7930  222.5720 C   0  0  0  0  0  0  0  0  0  0  0  0
  140.5510   78.1180  221.8820 C   0  0  0  0  0  0  0  0  0  0  0  0
  140.9530   79.5410  221.6840 C   0  0  0  0  0  0  0  0  0  0  0  0
  141.3960   80.3120  222.6600 C   0  0  0  0  0  0  0  0  0  0  0  0
  141.7580   81.6320  222.4110 C   0  0  0  0  0  0  0  0  0  0  0  0
  141.4340   81.8090  220.5600 S   0  0  0  0  0  0  0  0  0  0  0  0
  140.8530   80.0720  220.3880 C   0  0  0  0  0  0  0  0  0  0  0  0
  141.3510   77.1140  221.3640 C   0  0  0  0  0  0  0  0  0  0  0  0
  141.0300   75.7920  221.5220 C   0  0  0  0  0  0  0  0  0  0  0  0
  141.5033   72.8443  220.1211 H   0  0  0  0  0  0  0  0  0  0  0  0
  142.4433   72.8106  221.6459 H   0  0  0  0  0  0  0  0  0  0  0  0
  139.5859   71.2851  220.0721 H   0  0  0  0  0  0  0  0  0  0  0  0
  138.9369   68.9378  220.3924 H   0  0  0  0  0  0  0  0  0  0  0  0
  138.9184   67.9814  222.7002 H   0  0  0  0  0  0  0  0  0  0  0  0
  139.4890   68.3233  227.2500 H   0  0  0  0  0  0  0  0  0  0  0  0
  141.2776   68.4712  227.4226 H   0  0  0  0  0  0  0  0  0  0  0  0
  139.1173   70.4119  228.3075 H   0  0  0  0  0  0  0  0  0  0  0  0
  140.3830   69.5643  229.2973 H   0  0  0  0  0  0  0  0  0  0  0  0
  140.8033   72.0037  228.8989 H   0  0  0  0  0  0  0  0  0  0  0  0
  142.1137   70.8697  228.3538 H   0  0  0  0  0  0  0  0  0  0  0  0
  140.0216   72.1911  226.5681 H   0  0  0  0  0  0  0  0  0  0  0  0
  141.7445   72.6490  226.6855 H   0  0  0  0  0  0  0  0  0  0  0  0
  141.3592   71.1301  224.7740 H   0  0  0  0  0  0  0  0  0  0  0  0
  142.3913   70.3438  226.0052 H   0  0  0  0  0  0  0  0  0  0  0  0
  140.2209   71.7918  224.2770 H   0  0  0  0  0  0  0  0  0  0  0  0
  138.2035   76.1574  223.2684 H   0  0  0  0  0  0  0  0  0  0  0  0
  138.7599   78.5703  222.9955 H   0  0  0  0  0  0  0  0  0  0  0  0
  141.4796   79.9070  223.6793 H   0  0  0  0  0  0  0  0  0  0  0  0
  142.1383   82.3850  223.1170 H   0  0  0  0  0  0  0  0  0  0  0  0
  140.5058   79.5642  219.4761 H   0  0  0  0  0  0  0  0  0  0  0  0
  142.2643   77.3839  220.8135 H   0  0  0  0  0  0  0  0  0  0  0  0
  1  2  2  0
  2  3  1  0
  3  4  1  0
  4  5  1  0
  5  6  2  0
  6  7  1  0
  7  8  2  0
  8  9  1  0
  9 10  1  0
 10 11  2  0
 10 12  1  0
 12 13  1  0
 13 14  1  0
 14 15  1  0
 15 16  1  0
 16 17  1  0
  9 18  2  0
  4 19  2  0
 19 20  1  0
 20 21  2  0
 21 22  1  0
 22 23  2  0
 23 24  1  0
 24 25  1  0
 25 26  2  0
 26 27  1  0
 27 28  1  0
 23 29  1  0
 29 30  2  0
 30  2  1  0
 18  5  1  0
 30 20  1  0
 17 12  1  0
 28 24  2  0
  3 31  1  0
  3 32  1  0
  6 33  1  0
  7 34  1  0
  8 35  1  0
 13 36  1  0
 13 37  1  0
 14 38  1  0
 14 39  1  0
 15 40  1  0
 15 41  1  0
 16 42  1  0
 16 43  1  0
 17 44  1  0
 17 45  1  0
 18 46  1  0
 21 47  1  0
 22 48  1  0
 25 49  1  0
 26 50  1  0
 28 51  1  0
 29 52  1  0
M  END
>  <smiles>  (26) 
O=C1CC(c2cccc(C(=O)N3CCCCC3)c2)=Nc2ccc(-c3ccsc3)cc21

>  <score_type>  (26) 
oracle

>  <origin>  (26) 
autodockgpu

>  <m_score__min__energy>  (26) 
-9.6199999999999992

>  <m_primary>  (26) 
energy

>  <rmsd>  (26) 
10.9140582317959

>  <m_score__min__rmsd>  (26) 
10.9140582317959

>  <meeko>  (26) 
{"free_energy": -9.61, "intermolecular_energy": -10.51, "internal_energy": -0.75, "cluster_size": 50, "cluster_id": 1, "rank_in_cluster": 2}

>  <energy>  (26) 
-9.54

>  <cluster_rmsd>  (26) 
0.25

>  <cluster>  (26) 
1

$$$$

     RDKit          3D

 52 56  0  0  0  0  0  0  0  0999 V2000
  137.9390   75.9800  221.7230 O   0  0  0  0  0  0  0  0  0  0  0  0
  138.8360   75.1090  221.5970 C   0  0  0  0  0  0  0  0  0  0  0  0
  138.5050   73.7250  221.9800 C   0  0  0  0  0  0  0  0  0  0  0  0
  139.6950   72.8680  221.7540 C   0  0  0  0  0  0  0  0  0  0  0  0
  139.5260   71.4340  222.0720 C   0  0  0  0  0  0  0  0  0  0  0  0
  139.3500   70.4940  221.0790 C   0  0  0  0  0  0  0  0  0  0  0  0
  139.2040   69.1460  221.3160 C   0  0  0  0  0  0  0  0  0  0  0  0
  139.2320   68.6980  222.6190 C   0  0  0  0  0  0  0  0  0  0  0  0
  139.4050   69.6100  223.6300 C   0  0  0  0  0  0  0  0  0  0  0  0
  139.4330   69.0840  224.9970 C   0  0  0  0  0  0  0  0  0  0  0  0
  138.6590   68.1630  225.3820 O   0  0  0  0  0  0  0  0  0  0  0  0
  140.3390   69.5970  225.9470 N   0  0  0  0  0  0  0  0  0  0  0  0
  140.3100   69.0210  227.3010 C   0  0  0  0  0  0  0  0  0  0  0  0
  140.1590   70.1140  228.3370 C   0  0  0  0  0  0  0  0  0  0  0  0
  141.0820   71.2790  228.0730 C   0  0  0  0  0  0  0  0  0  0  0  0
  140.9780   71.7820  226.6420 C   0  0  0  0  0  0  0  0  0  0  0  0
  141.2950   70.6400  225.7200 C   0  0  0  0  0  0  0  0  0  0  0  0
  139.5550   70.9820  223.3860 C   0  0  0  0  0  0  0  0  0  0  0  0
  140.8160   73.2760  221.3030 N   0  0  0  0  0  0  0  0  0  0  0  0
  141.1250   74.6150  220.9360 C   0  0  0  0  0  0  0  0  0  0  0  0
  142.3210   75.0350  220.4460 C   0  0  0  0  0  0  0  0  0  0  0  0
  142.5830   76.3600  220.0870 C   0  0  0  0  0  0  0  0  0  0  0  0
  141.5690   77.2680  220.2420 C   0  0  0  0  0  0  0  0  0  0  0  0
  141.7560   78.7030  219.8790 C   0  0  0  0  0  0  0  0  0  0  0  0
  141.6110   79.6940  220.7390 C   0  0  0  0  0  0  0  0  0  0  0  0
  141.8030   81.0120  220.3390 C   0  0  0  0  0  0  0  0  0  0  0  0
  142.2470   80.8320  218.5130 S   0  0  0  0  0  0  0  0  0  0  0  0
  142.1090   78.9980  218.5520 C   0  0  0  0  0  0  0  0  0  0  0  0
  140.3460   76.8520  220.7390 C   0  0  0  0  0  0  0  0  0  0  0  0
  140.1200   75.5470  221.0830 C   0  0  0  0  0  0  0  0  0  0  0  0
  138.2230   73.6930  223.0427 H   0  0  0  0  0  0  0  0  0  0  0  0
  137.6622   73.3612  221.3739 H   0  0  0  0  0  0  0  0  0  0  0  0
  139.3248   70.8418  220.0357 H   0  0  0  0  0  0  0  0  0  0  0  0
  139.0678   68.4410  220.4827 H   0  0  0  0  0  0  0  0  0  0  0  0
  139.1176   67.6275  222.8449 H   0  0  0  0  0  0  0  0  0  0  0  0
  139.4610   68.3262  227.3810 H   0  0  0  0  0  0  0  0  0  0  0  0
  141.2545   68.4868  227.4815 H   0  0  0  0  0  0  0  0  0  0  0  0
  139.1199   70.4747  228.3231 H   0  0  0  0  0  0  0  0  0  0  0  0
  140.4214   69.6897  229.3174 H   0  0  0  0  0  0  0  0  0  0  0  0
  140.8206   72.1000  228.7568 H   0  0  0  0  0  0  0  0  0  0  0  0
  142.1142   70.9354  228.2357 H   0  0  0  0  0  0  0  0  0  0  0  0
  139.9580   72.1453  226.4480 H   0  0  0  0  0  0  0  0  0  0  0  0
  141.6829   72.6103  226.4778 H   0  0  0  0  0  0  0  0  0  0  0  0
  141.2347   70.9783  224.6751 H   0  0  0  0  0  0  0  0  0  0  0  0
  142.3123   70.2691  225.9135 H   0  0  0  0  0  0  0  0  0  0  0  0
  139.6930   71.6876  224.2185 H   0  0  0  0  0  0  0  0  0  0  0  0
  143.1246   74.2935  220.3257 H   0  0  0  0  0  0  0  0  0  0  0  0
  143.5654   76.6621  219.6951 H   0  0  0  0  0  0  0  0  0  0  0  0
  141.3358   79.4753  221.7813 H   0  0  0  0  0  0  0  0  0  0  0  0
  141.7174   81.9308  220.9377 H   0  0  0  0  0  0  0  0  0  0  0  0
  142.2672   78.2920  217.7234 H   0  0  0  0  0  0  0  0  0  0  0  0
  139.5370   77.5874  220.8602 H   0  0  0  0  0  0  0  0  0  0  0  0
  1  2  2  0
  2  3  1  0
  3  4  1  0
  4  5  1  0
  5  6  2  0
  6  7  1  0
  7  8  2  0
  8  9  1  0
  9 10  1  0
 10 11  2  0
 10 12  1  0
 12 13  1  0
 13 14  1  0
 14 15  1  0
 15 16  1  0
 16 17  1  0
  9 18  2  0
  4 19  2  0
 19 20  1  0
 20 21  2  0
 21 22  1  0
 22 23  2  0
 23 24  1  0
 24 25  1  0
 25 26  2  0
 26 27  1  0
 27 28  1  0
 23 29  1  0
 29 30  2  0
 30  2  1  0
 18  5  1  0
 30 20  1  0
 17 12  1  0
 28 24  2  0
  3 31  1  0
  3 32  1  0
  6 33  1  0
  7 34  1  0
  8 35  1  0
 13 36  1  0
 13 37  1  0
 14 38  1  0
 14 39  1  0
 15 40  1  0
 15 41  1  0
 16 42  1  0
 16 43  1  0
 17 44  1  0
 17 45  1  0
 18 46  1  0
 21 47  1  0
 22 48  1  0
 25 49  1  0
 26 50  1  0
 28 51  1  0
 29 52  1  0
M  END
>  <smiles>  (27) 
O=C1CC(c2cccc(C(=O)N3CCCCC3)c2)=Nc2ccc(-c3ccsc3)cc21

>  <score_type>  (27) 
oracle

>  <origin>  (27) 
autodockgpu

>  <m_score__min__energy>  (27) 
-9.6199999999999992

>  <m_primary>  (27) 
energy

>  <rmsd>  (27) 
11.019525262460094

>  <m_score__min__rmsd>  (27) 
11.019525262460094

>  <meeko>  (27) 
{"free_energy": -8.44, "intermolecular_energy": -9.33, "internal_energy": -0.89, "cluster_size": 50, "cluster_id": 1, "rank_in_cluster": 50}

>  <energy>  (27) 
-9.54

>  <cluster_rmsd>  (27) 
0.25

>  <cluster>  (27) 
1

$$$$

     RDKit          3D

 52 56  0  0  0  0  0  0  0  0999 V2000
  142.8760   75.1420  220.3120 O   0  0  0  0  0  0  0  0  0  0  0  0
  141.8500   74.7940  220.9480 C   0  0  0  0  0  0  0  0  0  0  0  0
  141.5840   73.3510  221.0820 C   0  0  0  0  0  0  0  0  0  0  0  0
  140.3350   73.1640  221.8610 C   0  0  0  0  0  0  0  0  0  0  0  0
  139.9320   71.7630  222.1060 C   0  0  0  0  0  0  0  0  0  0  0  0
  139.6670   70.9000  221.0650 C   0  0  0  0  0  0  0  0  0  0  0  0
  139.3040   69.5820  221.2330 C   0  0  0  0  0  0  0  0  0  0  0  0
  139.1940   69.0870  222.5150 C   0  0  0  0  0  0  0  0  0  0  0  0
  139.4510   69.9220  223.5730 C   0  0  0  0  0  0  0  0  0  0  0  0
  139.3260   69.3470  224.9140 C   0  0  0  0  0  0  0  0  0  0  0  0
  138.4330   68.5040  225.2060 O   0  0  0  0  0  0  0  0  0  0  0  0
  140.2130   69.7230  225.9430 N   0  0  0  0  0  0  0  0  0  0  0  0
  140.0270   69.1040  227.2660 C   0  0  0  0  0  0  0  0  0  0  0  0
  139.9220   70.1690  228.3360 C   0  0  0  0  0  0  0  0  0  0  0  0
  140.9820   71.2350  228.1850 C   0  0  0  0  0  0  0  0  0  0  0  0
  141.0330   71.7980  226.7730 C   0  0  0  0  0  0  0  0  0  0  0  0
  141.2890   70.6620  225.8260 C   0  0  0  0  0  0  0  0  0  0  0  0
  139.8220   71.2630  223.3980 C   0  0  0  0  0  0  0  0  0  0  0  0
  139.6180   74.1080  222.3310 N   0  0  0  0  0  0  0  0  0  0  0  0
  139.8840   75.4980  222.1970 C   0  0  0  0  0  0  0  0  0  0  0  0
  139.1160   76.4950  222.7120 C   0  0  0  0  0  0  0  0  0  0  0  0
  139.4160   77.8510  222.5660 C   0  0  0  0  0  0  0  0  0  0  0  0
  140.5490   78.1750  221.8650 C   0  0  0  0  0  0  0  0  0  0  0  0
  140.9520   79.5980  221.6650 C   0  0  0  0  0  0  0  0  0  0  0  0
  141.4670   80.3470  222.6230 C   0  0  0  0  0  0  0  0  0  0  0  0
  141.8260   81.6670  222.3730 C   0  0  0  0  0  0  0  0  0  0  0  0
  141.3820   81.8810  220.5510 S   0  0  0  0  0  0  0  0  0  0  0  0
  140.7720   80.1520  220.3880 C   0  0  0  0  0  0  0  0  0  0  0  0
  141.3400   77.1690  221.3370 C   0  0  0  0  0  0  0  0  0  0  0  0
  141.0180   75.8480  221.4960 C   0  0  0  0  0  0  0  0  0  0  0  0
  141.4678   72.9025  220.0843 H   0  0  0  0  0  0  0  0  0  0  0  0
  142.4232   72.8633  221.5996 H   0  0  0  0  0  0  0  0  0  0  0  0
  139.7503   71.2867  220.0386 H   0  0  0  0  0  0  0  0  0  0  0  0
  139.1062   68.9384  220.3632 H   0  0  0  0  0  0  0  0  0  0  0  0
  138.9049   68.0397  222.6869 H   0  0  0  0  0  0  0  0  0  0  0  0
  139.1047   68.5046  227.2594 H   0  0  0  0  0  0  0  0  0  0  0  0
  140.8931   68.4621  227.4849 H   0  0  0  0  0  0  0  0  0  0  0  0
  138.9313   70.6423  228.2689 H   0  0  0  0  0  0  0  0  0  0  0  0
  140.0678   69.6831  229.3120 H   0  0  0  0  0  0  0  0  0  0  0  0
  140.7628   72.0544  228.8854 H   0  0  0  0  0  0  0  0  0  0  0  0
  141.9574   70.7745  228.4006 H   0  0  0  0  0  0  0  0  0  0  0  0
  140.0741   72.2782  226.5284 H   0  0  0  0  0  0  0  0  0  0  0  0
  141.8324   72.5492  226.6913 H   0  0  0  0  0  0  0  0  0  0  0  0
  141.3395   71.0422  224.7951 H   0  0  0  0  0  0  0  0  0  0  0  0
  142.2440   70.1742  226.0710 H   0  0  0  0  0  0  0  0  0  0  0  0
  140.0222   71.9070  224.2670 H   0  0  0  0  0  0  0  0  0  0  0  0
  138.2110   76.2189  223.2730 H   0  0  0  0  0  0  0  0  0  0  0  0
  138.7685   78.6290  222.9966 H   0  0  0  0  0  0  0  0  0  0  0  0
  141.6132   79.9231  223.6274 H   0  0  0  0  0  0  0  0  0  0  0  0
  142.2607   82.4033  223.0650 H   0  0  0  0  0  0  0  0  0  0  0  0
  140.3598   79.6636  219.4927 H   0  0  0  0  0  0  0  0  0  0  0  0
  142.2479   77.4372  220.7769 H   0  0  0  0  0  0  0  0  0  0  0  0
  1  2  2  0
  2  3  1  0
  3  4  1  0
  4  5  1  0
  5  6  2  0
  6  7  1  0
  7  8  2  0
  8  9  1  0
  9 10  1  0
 10 11  2  0
 10 12  1  0
 12 13  1  0
 13 14  1  0
 14 15  1  0
 15 16  1  0
 16 17  1  0
  9 18  2  0
  4 19  2  0
 19 20  1  0
 20 21  2  0
 21 22  1  0
 22 23  2  0
 23 24  1  0
 24 25  1  0
 25 26  2  0
 26 27  1  0
 27 28  1  0
 23 29  1  0
 29 30  2  0
 30  2  1  0
 18  5  1  0
 30 20  1  0
 17 12  1  0
 28 24  2  0
  3 31  1  0
  3 32  1  0
  6 33  1  0
  7 34  1  0
  8 35  1  0
 13 36  1  0
 13 37  1  0
 14 38  1  0
 14 39  1  0
 15 40  1  0
 15 41  1  0
 16 42  1  0
 16 43  1  0
 17 44  1  0
 17 45  1  0
 18 46  1  0
 21 47  1  0
 22 48  1  0
 25 49  1  0
 26 50  1  0
 28 51  1  0
 29 52  1  0
M  END
>  <smiles>  (28) 
O=C1CC(c2cccc(C(=O)N3CCCCC3)c2)=Nc2ccc(-c3ccsc3)cc21

>  <score_type>  (28) 
oracle

>  <origin>  (28) 
autodockgpu

>  <m_score__min__energy>  (28) 
-9.6199999999999992

>  <m_primary>  (28) 
energy

>  <rmsd>  (28) 
10.888235499681501

>  <m_score__min__rmsd>  (28) 
10.888235499681501

>  <meeko>  (28) 
{"free_energy": -9.54, "intermolecular_energy": -10.43, "internal_energy": -0.87, "cluster_size": 50, "cluster_id": 1, "rank_in_cluster": 24}

>  <energy>  (28) 
-9.54

>  <cluster_rmsd>  (28) 
0.24

>  <cluster>  (28) 
1

$$$$

     RDKit          3D

 52 56  0  0  0  0  0  0  0  0999 V2000
  142.8910   75.2110  220.3460 O   0  0  0  0  0  0  0  0  0  0  0  0
  141.8600   74.8600  220.9740 C   0  0  0  0  0  0  0  0  0  0  0  0
  141.5940   73.4160  221.0980 C   0  0  0  0  0  0  0  0  0  0  0  0
  140.3400   73.2250  221.8690 C   0  0  0  0  0  0  0  0  0  0  0  0
  139.9350   71.8230  222.1030 C   0  0  0  0  0  0  0  0  0  0  0  0
  139.6580   70.9700  221.0550 C   0  0  0  0  0  0  0  0  0  0  0  0
  139.2930   69.6520  221.2140 C   0  0  0  0  0  0  0  0  0  0  0  0
  139.1920   69.1450  222.4910 C   0  0  0  0  0  0  0  0  0  0  0  0
  139.4610   69.9680  223.5550 C   0  0  0  0  0  0  0  0  0  0  0  0
  139.3450   69.3810  224.8920 C   0  0  0  0  0  0  0  0  0  0  0  0
  138.4580   68.5290  225.1800 O   0  0  0  0  0  0  0  0  0  0  0  0
  140.2330   69.7530  225.9210 N   0  0  0  0  0  0  0  0  0  0  0  0
  140.0560   69.1220  227.2390 C   0  0  0  0  0  0  0  0  0  0  0  0
  139.9490   70.1760  228.3190 C   0  0  0  0  0  0  0  0  0  0  0  0
  141.0010   71.2500  228.1730 C   0  0  0  0  0  0  0  0  0  0  0  0
  141.0420   71.8260  226.7660 C   0  0  0  0  0  0  0  0  0  0  0  0
  141.3030   70.7000  225.8080 C   0  0  0  0  0  0  0  0  0  0  0  0
  139.8330   71.3100  223.3910 C   0  0  0  0  0  0  0  0  0  0  0  0
  139.6200   74.1660  222.3390 N   0  0  0  0  0  0  0  0  0  0  0  0
  139.8870   75.5570  222.2140 C   0  0  0  0  0  0  0  0  0  0  0  0
  139.1160   76.5510  222.7300 C   0  0  0  0  0  0  0  0  0  0  0  0
  139.4180   77.9090  222.5940 C   0  0  0  0  0  0  0  0  0  0  0  0
  140.5550   78.2360  221.9020 C   0  0  0  0  0  0  0  0  0  0  0  0
  140.9590   79.6590  221.7130 C   0  0  0  0  0  0  0  0  0  0  0  0
  141.4610   80.4050  222.6800 C   0  0  0  0  0  0  0  0  0  0  0  0
  141.8230   81.7260  222.4400 C   0  0  0  0  0  0  0  0  0  0  0  0
  141.4030   81.9470  220.6130 S   0  0  0  0  0  0  0  0  0  0  0  0
  140.7960   80.2190  220.4360 C   0  0  0  0  0  0  0  0  0  0  0  0
  141.3490   77.2330  221.3730 C   0  0  0  0  0  0  0  0  0  0  0  0
  141.0250   75.9110  221.5230 C   0  0  0  0  0  0  0  0  0  0  0  0
  141.4837   72.9731  220.0972 H   0  0  0  0  0  0  0  0  0  0  0  0
  142.4304   72.9252  221.6172 H   0  0  0  0  0  0  0  0  0  0  0  0
  139.7332   71.3662  220.0316 H   0  0  0  0  0  0  0  0  0  0  0  0
  139.0864   69.0171  220.3398 H   0  0  0  0  0  0  0  0  0  0  0  0
  138.9003   68.0971  222.6548 H   0  0  0  0  0  0  0  0  0  0  0  0
  139.1372   68.5172  227.2307 H   0  0  0  0  0  0  0  0  0  0  0  0
  140.9271   68.4839  227.4486 H   0  0  0  0  0  0  0  0  0  0  0  0
  138.9549   70.6434  228.2609 H   0  0  0  0  0  0  0  0  0  0  0  0
  140.1025   69.6821  229.2898 H   0  0  0  0  0  0  0  0  0  0  0  0
  140.7796   72.0615  228.8818 H   0  0  0  0  0  0  0  0  0  0  0  0
  141.9804   70.7940  228.3801 H   0  0  0  0  0  0  0  0  0  0  0  0
  140.0784   72.3009  226.5294 H   0  0  0  0  0  0  0  0  0  0  0  0
  141.8351   72.5842  226.6878 H   0  0  0  0  0  0  0  0  0  0  0  0
  141.3475   71.0894  224.7802 H   0  0  0  0  0  0  0  0  0  0  0  0
  142.2623   70.2166  226.0450 H   0  0  0  0  0  0  0  0  0  0  0  0
  140.0402   71.9449  224.2651 H   0  0  0  0  0  0  0  0  0  0  0  0
  138.2072   76.2719  223.2833 H   0  0  0  0  0  0  0  0  0  0  0  0
  138.7685   78.6849  223.0255 H   0  0  0  0  0  0  0  0  0  0  0  0
  141.5941   79.9775  223.6848 H   0  0  0  0  0  0  0  0  0  0  0  0
  142.2483   82.4597  223.1406 H   0  0  0  0  0  0  0  0  0  0  0  0
  140.3958   79.7342  219.5334 H   0  0  0  0  0  0  0  0  0  0  0  0
  142.2604   77.5040  220.8199 H   0  0  0  0  0  0  0  0  0  0  0  0
  1  2  2  0
  2  3  1  0
  3  4  1  0
  4  5  1  0
  5  6  2  0
  6  7  1  0
  7  8  2  0
  8  9  1  0
  9 10  1  0
 10 11  2  0
 10 12  1  0
 12 13  1  0
 13 14  1  0
 14 15  1  0
 15 16  1  0
 16 17  1  0
  9 18  2  0
  4 19  2  0
 19 20  1  0
 20 21  2  0
 21 22  1  0
 22 23  2  0
 23 24  1  0
 24 25  1  0
 25 26  2  0
 26 27  1  0
 27 28  1  0
 23 29  1  0
 29 30  2  0
 30  2  1  0
 18  5  1  0
 30 20  1  0
 17 12  1  0
 28 24  2  0
  3 31  1  0
  3 32  1  0
  6 33  1  0
  7 34  1  0
  8 35  1  0
 13 36  1  0
 13 37  1  0
 14 38  1  0
 14 39  1  0
 15 40  1  0
 15 41  1  0
 16 42  1  0
 16 43  1  0
 17 44  1  0
 17 45  1  0
 18 46  1  0
 21 47  1  0
 22 48  1  0
 25 49  1  0
 26 50  1  0
 28 51  1  0
 29 52  1  0
M  END
>  <smiles>  (29) 
O=C1CC(c2cccc(C(=O)N3CCCCC3)c2)=Nc2ccc(-c3ccsc3)cc21

>  <score_type>  (29) 
oracle

>  <origin>  (29) 
autodockgpu

>  <m_score__min__energy>  (29) 
-9.6199999999999992

>  <m_primary>  (29) 
energy

>  <rmsd>  (29) 
10.850066346494753

>  <m_score__min__rmsd>  (29) 
10.850066346494753

>  <meeko>  (29) 
{"free_energy": -9.55, "intermolecular_energy": -10.44, "internal_energy": -0.85, "cluster_size": 50, "cluster_id": 1, "rank_in_cluster": 22}

>  <energy>  (29) 
-9.54

>  <cluster_rmsd>  (29) 
0.24

>  <cluster>  (29) 
1

$$$$

     RDKit          3D

 52 56  0  0  0  0  0  0  0  0999 V2000
  142.8000   75.1700  220.2270 O   0  0  0  0  0  0  0  0  0  0  0  0
  141.7920   74.8160  220.8900 C   0  0  0  0  0  0  0  0  0  0  0  0
  141.5380   73.3710  221.0310 C   0  0  0  0  0  0  0  0  0  0  0  0
  140.3110   73.1780  221.8430 C   0  0  0  0  0  0  0  0  0  0  0  0
  139.9230   71.7750  222.0980 C   0  0  0  0  0  0  0  0  0  0  0  0
  139.6600   70.9020  221.0630 C   0  0  0  0  0  0  0  0  0  0  0  0
  139.3100   69.5830  221.2420 C   0  0  0  0  0  0  0  0  0  0  0  0
  139.2120   69.0940  222.5270 C   0  0  0  0  0  0  0  0  0  0  0  0
  139.4670   69.9380  223.5780 C   0  0  0  0  0  0  0  0  0  0  0  0
  139.3530   69.3710  224.9240 C   0  0  0  0  0  0  0  0  0  0  0  0
  138.4640   68.5260  225.2280 O   0  0  0  0  0  0  0  0  0  0  0  0
  140.2470   69.7540  225.9440 N   0  0  0  0  0  0  0  0  0  0  0  0
  140.0730   69.1420  227.2710 C   0  0  0  0  0  0  0  0  0  0  0  0
  139.9740   70.2120  228.3370 C   0  0  0  0  0  0  0  0  0  0  0  0
  141.0300   71.2800  228.1710 C   0  0  0  0  0  0  0  0  0  0  0  0
  141.0690   71.8350  226.7560 C   0  0  0  0  0  0  0  0  0  0  0  0
  141.3200   70.6950  225.8130 C   0  0  0  0  0  0  0  0  0  0  0  0
  139.8230   71.2810  223.3940 C   0  0  0  0  0  0  0  0  0  0  0  0
  139.6010   74.1180  222.3320 N   0  0  0  0  0  0  0  0  0  0  0  0
  139.8560   75.5090  222.1900 C   0  0  0  0  0  0  0  0  0  0  0  0
  139.0960   76.5010  222.7250 C   0  0  0  0  0  0  0  0  0  0  0  0
  139.3850   77.8600  222.5720 C   0  0  0  0  0  0  0  0  0  0  0  0
  140.4970   78.1900  221.8410 C   0  0  0  0  0  0  0  0  0  0  0  0
  140.8860   79.6150  221.6310 C   0  0  0  0  0  0  0  0  0  0  0  0
  141.1030   80.1380  220.4390 C   0  0  0  0  0  0  0  0  0  0  0  0
  141.4610   81.4760  220.3080 C   0  0  0  0  0  0  0  0  0  0  0  0
  141.4950   82.0750  222.0970 S   0  0  0  0  0  0  0  0  0  0  0  0
  141.0210   80.4280  222.7680 C   0  0  0  0  0  0  0  0  0  0  0  0
  141.2790   77.1880  221.2920 C   0  0  0  0  0  0  0  0  0  0  0  0
  140.9690   75.8660  221.4600 C   0  0  0  0  0  0  0  0  0  0  0  0
  141.3979   72.9215  220.0368 H   0  0  0  0  0  0  0  0  0  0  0  0
  142.3934   72.8878  221.5258 H   0  0  0  0  0  0  0  0  0  0  0  0
  139.7344   71.2825  220.0336 H   0  0  0  0  0  0  0  0  0  0  0  0
  139.1125   68.9324  220.3773 H   0  0  0  0  0  0  0  0  0  0  0  0
  138.9341   68.0450  222.7067 H   0  0  0  0  0  0  0  0  0  0  0  0
  139.1521   68.5405  227.2747 H   0  0  0  0  0  0  0  0  0  0  0  0
  140.9425   68.5036  227.4861 H   0  0  0  0  0  0  0  0  0  0  0  0
  138.9815   70.6823  228.2763 H   0  0  0  0  0  0  0  0  0  0  0  0
  140.1292   69.7315  229.3143 H   0  0  0  0  0  0  0  0  0  0  0  0
  140.8141   72.1029  228.8683 H   0  0  0  0  0  0  0  0  0  0  0  0
  142.0082   70.8229  228.3812 H   0  0  0  0  0  0  0  0  0  0  0  0
  140.1072   72.3119  226.5162 H   0  0  0  0  0  0  0  0  0  0  0  0
  141.8664   72.5871  226.6643 H   0  0  0  0  0  0  0  0  0  0  0  0
  141.3611   71.0699  224.7797 H   0  0  0  0  0  0  0  0  0  0  0  0
  142.2782   70.2108  226.0525 H   0  0  0  0  0  0  0  0  0  0  0  0
  140.0196   71.9321  224.2585 H   0  0  0  0  0  0  0  0  0  0  0  0
  138.2072   76.2196  223.3088 H   0  0  0  0  0  0  0  0  0  0  0  0
  138.7453   78.6344  223.0205 H   0  0  0  0  0  0  0  0  0  0  0  0
  140.9999   79.5107  219.5413 H   0  0  0  0  0  0  0  0  0  0  0  0
  141.6718   82.0437  219.3897 H   0  0  0  0  0  0  0  0  0  0  0  0
  140.8763   80.1447  223.8210 H   0  0  0  0  0  0  0  0  0  0  0  0
  142.1699   77.4610  220.7074 H   0  0  0  0  0  0  0  0  0  0  0  0
  1  2  2  0
  2  3  1  0
  3  4  1  0
  4  5  1  0
  5  6  2  0
  6  7  1  0
  7  8  2  0
  8  9  1  0
  9 10  1  0
 10 11  2  0
 10 12  1  0
 12 13  1  0
 13 14  1  0
 14 15  1  0
 15 16  1  0
 16 17  1  0
  9 18  2  0
  4 19  2  0
 19 20  1  0
 20 21  2  0
 21 22  1  0
 22 23  2  0
 23 24  1  0
 24 25  1  0
 25 26  2  0
 26 27  1  0
 27 28  1  0
 23 29  1  0
 29 30  2  0
 30  2  1  0
 18  5  1  0
 30 20  1  0
 17 12  1  0
 28 24  2  0
  3 31  1  0
  3 32  1  0
  6 33  1  0
  7 34  1  0
  8 35  1  0
 13 36  1  0
 13 37  1  0
 14 38  1  0
 14 39  1  0
 15 40  1  0
 15 41  1  0
 16 42  1  0
 16 43  1  0
 17 44  1  0
 17 45  1  0
 18 46  1  0
 21 47  1  0
 22 48  1  0
 25 49  1  0
 26 50  1  0
 28 51  1  0
 29 52  1  0
M  END
>  <smiles>  (30) 
O=C1CC(c2cccc(C(=O)N3CCCCC3)c2)=Nc2ccc(-c3ccsc3)cc21

>  <score_type>  (30) 
oracle

>  <origin>  (30) 
autodockgpu

>  <m_score__min__energy>  (30) 
-9.6199999999999992

>  <m_primary>  (30) 
energy

>  <rmsd>  (30) 
10.8679157393565

>  <m_score__min__rmsd>  (30) 
10.8679157393565

>  <meeko>  (30) 
{"free_energy": -9.49, "intermolecular_energy": -10.39, "internal_energy": -0.87, "cluster_size": 50, "cluster_id": 1, "rank_in_cluster": 40}

>  <energy>  (30) 
-9.53

>  <cluster_rmsd>  (30) 
0.26

>  <cluster>  (30) 
1

$$$$

     RDKit          3D

 52 56  0  0  0  0  0  0  0  0999 V2000
  142.9060   75.1680  220.3390 O   0  0  0  0  0  0  0  0  0  0  0  0
  141.8750   74.8220  220.9680 C   0  0  0  0  0  0  0  0  0  0  0  0
  141.6080   73.3780  221.1030 C   0  0  0  0  0  0  0  0  0  0  0  0
  140.3520   73.1940  221.8730 C   0  0  0  0  0  0  0  0  0  0  0  0
  139.9470   71.7940  222.1180 C   0  0  0  0  0  0  0  0  0  0  0  0
  139.6720   70.9330  221.0760 C   0  0  0  0  0  0  0  0  0  0  0  0
  139.3060   69.6160  221.2450 C   0  0  0  0  0  0  0  0  0  0  0  0
  139.2040   69.1190  222.5260 C   0  0  0  0  0  0  0  0  0  0  0  0
  139.4710   69.9510  223.5840 C   0  0  0  0  0  0  0  0  0  0  0  0
  139.3520   69.3740  224.9250 C   0  0  0  0  0  0  0  0  0  0  0  0
  138.4650   68.5250  225.2190 O   0  0  0  0  0  0  0  0  0  0  0  0
  140.2390   69.7540  225.9520 N   0  0  0  0  0  0  0  0  0  0  0  0
  140.0610   69.1330  227.2750 C   0  0  0  0  0  0  0  0  0  0  0  0
  139.9520   70.1960  228.3460 C   0  0  0  0  0  0  0  0  0  0  0  0
  141.0050   71.2680  228.1940 C   0  0  0  0  0  0  0  0  0  0  0  0
  141.0490   71.8330  226.7830 C   0  0  0  0  0  0  0  0  0  0  0  0
  141.3100   70.7000  225.8330 C   0  0  0  0  0  0  0  0  0  0  0  0
  139.8430   71.2910  223.4100 C   0  0  0  0  0  0  0  0  0  0  0  0
  139.6320   74.1390  222.3360 N   0  0  0  0  0  0  0  0  0  0  0  0
  139.9000   75.5290  222.2000 C   0  0  0  0  0  0  0  0  0  0  0  0
  139.1280   76.5270  222.7070 C   0  0  0  0  0  0  0  0  0  0  0  0
  139.4300   77.8830  222.5600 C   0  0  0  0  0  0  0  0  0  0  0  0
  140.5680   78.2050  221.8680 C   0  0  0  0  0  0  0  0  0  0  0  0
  140.9730   79.6270  221.6680 C   0  0  0  0  0  0  0  0  0  0  0  0
  141.4700   80.3810  222.6310 C   0  0  0  0  0  0  0  0  0  0  0  0
  141.8330   81.7000  222.3810 C   0  0  0  0  0  0  0  0  0  0  0  0
  141.4210   81.9050  220.5500 S   0  0  0  0  0  0  0  0  0  0  0  0
  140.8150   80.1750  220.3850 C   0  0  0  0  0  0  0  0  0  0  0  0
  141.3620   77.1980  221.3480 C   0  0  0  0  0  0  0  0  0  0  0  0
  141.0390   75.8770  221.5070 C   0  0  0  0  0  0  0  0  0  0  0  0
  141.4996   72.9272  220.1055 H   0  0  0  0  0  0  0  0  0  0  0  0
  142.4431   72.8908  221.6277 H   0  0  0  0  0  0  0  0  0  0  0  0
  139.7496   71.3211  220.0497 H   0  0  0  0  0  0  0  0  0  0  0  0
  139.0995   68.9745  220.3756 H   0  0  0  0  0  0  0  0  0  0  0  0
  138.9132   68.0721  222.6978 H   0  0  0  0  0  0  0  0  0  0  0  0
  139.1427   68.5274  227.2706 H   0  0  0  0  0  0  0  0  0  0  0  0
  140.9321   68.4970  227.4908 H   0  0  0  0  0  0  0  0  0  0  0  0
  138.9584   70.6635  228.2814 H   0  0  0  0  0  0  0  0  0  0  0  0
  140.1027   69.7100  229.3212 H   0  0  0  0  0  0  0  0  0  0  0  0
  140.7828   72.0851  228.8961 H   0  0  0  0  0  0  0  0  0  0  0  0
  141.9837   70.8130  228.4065 H   0  0  0  0  0  0  0  0  0  0  0  0
  140.0864   72.3075  226.5415 H   0  0  0  0  0  0  0  0  0  0  0  0
  141.8436   72.5892  226.7007 H   0  0  0  0  0  0  0  0  0  0  0  0
  141.3554   71.0821  224.8025 H   0  0  0  0  0  0  0  0  0  0  0  0
  142.2688   70.2178  226.0740 H   0  0  0  0  0  0  0  0  0  0  0  0
  140.0488   71.9328  224.2794 H   0  0  0  0  0  0  0  0  0  0  0  0
  138.2186   76.2524  223.2616 H   0  0  0  0  0  0  0  0  0  0  0  0
  138.7793   78.6623  222.9835 H   0  0  0  0  0  0  0  0  0  0  0  0
  141.5981   79.9622  223.6401 H   0  0  0  0  0  0  0  0  0  0  0  0
  142.2552   82.4398  223.0770 H   0  0  0  0  0  0  0  0  0  0  0  0
  140.4188   79.6820  219.4850 H   0  0  0  0  0  0  0  0  0  0  0  0
  142.2740   77.4651  220.7940 H   0  0  0  0  0  0  0  0  0  0  0  0
  1  2  2  0
  2  3  1  0
  3  4  1  0
  4  5  1  0
  5  6  2  0
  6  7  1  0
  7  8  2  0
  8  9  1  0
  9 10  1  0
 10 11  2  0
 10 12  1  0
 12 13  1  0
 13 14  1  0
 14 15  1  0
 15 16  1  0
 16 17  1  0
  9 18  2  0
  4 19  2  0
 19 20  1  0
 20 21  2  0
 21 22  1  0
 22 23  2  0
 23 24  1  0
 24 25  1  0
 25 26  2  0
 26 27  1  0
 27 28  1  0
 23 29  1  0
 29 30  2  0
 30  2  1  0
 18  5  1  0
 30 20  1  0
 17 12  1  0
 28 24  2  0
  3 31  1  0
  3 32  1  0
  6 33  1  0
  7 34  1  0
  8 35  1  0
 13 36  1  0
 13 37  1  0
 14 38  1  0
 14 39  1  0
 15 40  1  0
 15 41  1  0
 16 42  1  0
 16 43  1  0
 17 44  1  0
 17 45  1  0
 18 46  1  0
 21 47  1  0
 22 48  1  0
 25 49  1  0
 26 50  1  0
 28 51  1  0
 29 52  1  0
M  END
>  <smiles>  (31) 
O=C1CC(c2cccc(C(=O)N3CCCCC3)c2)=Nc2ccc(-c3ccsc3)cc21

>  <score_type>  (31) 
oracle

>  <origin>  (31) 
autodockgpu

>  <m_score__min__energy>  (31) 
-9.6199999999999992

>  <m_primary>  (31) 
energy

>  <rmsd>  (31) 
10.869214196950162

>  <m_score__min__rmsd>  (31) 
10.869214196950162

>  <meeko>  (31) 
{"free_energy": -9.55, "intermolecular_energy": -10.45, "internal_energy": -0.85, "cluster_size": 50, "cluster_id": 1, "rank_in_cluster": 12}

>  <energy>  (31) 
-9.53

>  <cluster_rmsd>  (31) 
0.26

>  <cluster>  (31) 
1

$$$$

     RDKit          3D

 52 56  0  0  0  0  0  0  0  0999 V2000
  142.8390   75.2150  220.3220 O   0  0  0  0  0  0  0  0  0  0  0  0
  141.8190   74.8500  220.9580 C   0  0  0  0  0  0  0  0  0  0  0  0
  141.5780   73.4020  221.0920 C   0  0  0  0  0  0  0  0  0  0  0  0
  140.3320   73.1940  221.8700 C   0  0  0  0  0  0  0  0  0  0  0  0
  139.9530   71.7860  222.1140 C   0  0  0  0  0  0  0  0  0  0  0  0
  139.7140   70.9150  221.0730 C   0  0  0  0  0  0  0  0  0  0  0  0
  139.3740   69.5920  221.2410 C   0  0  0  0  0  0  0  0  0  0  0  0
  139.2610   69.0970  222.5230 C   0  0  0  0  0  0  0  0  0  0  0  0
  139.4920   69.9400  223.5810 C   0  0  0  0  0  0  0  0  0  0  0  0
  139.3640   69.3660  224.9230 C   0  0  0  0  0  0  0  0  0  0  0  0
  138.4690   68.5240  225.2140 O   0  0  0  0  0  0  0  0  0  0  0  0
  140.2500   69.7410  225.9530 N   0  0  0  0  0  0  0  0  0  0  0  0
  140.0620   69.1230  227.2760 C   0  0  0  0  0  0  0  0  0  0  0  0
  139.9570   70.1890  228.3450 C   0  0  0  0  0  0  0  0  0  0  0  0
  141.0190   71.2530  228.1940 C   0  0  0  0  0  0  0  0  0  0  0  0
  141.0730   71.8150  226.7830 C   0  0  0  0  0  0  0  0  0  0  0  0
  141.3280   70.6780  225.8360 C   0  0  0  0  0  0  0  0  0  0  0  0
  139.8390   71.2870  223.4070 C   0  0  0  0  0  0  0  0  0  0  0  0
  139.5980   74.1250  222.3400 N   0  0  0  0  0  0  0  0  0  0  0  0
  139.8400   75.5190  222.2060 C   0  0  0  0  0  0  0  0  0  0  0  0
  139.0550   76.5030  222.7200 C   0  0  0  0  0  0  0  0  0  0  0  0
  139.3320   77.8650  222.5750 C   0  0  0  0  0  0  0  0  0  0  0  0
  140.4590   78.2080  221.8750 C   0  0  0  0  0  0  0  0  0  0  0  0
  140.8380   79.6370  221.6750 C   0  0  0  0  0  0  0  0  0  0  0  0
  141.4250   80.3680  222.6050 C   0  0  0  0  0  0  0  0  0  0  0  0
  141.7570   81.6950  222.3570 C   0  0  0  0  0  0  0  0  0  0  0  0
  141.1650   81.9470  220.5820 S   0  0  0  0  0  0  0  0  0  0  0  0
  140.5520   80.2190  220.4300 C   0  0  0  0  0  0  0  0  0  0  0  0
  141.2680   77.2160  221.3460 C   0  0  0  0  0  0  0  0  0  0  0  0
  140.9680   75.8890  221.5050 C   0  0  0  0  0  0  0  0  0  0  0  0
  141.4703   72.9514  220.0943 H   0  0  0  0  0  0  0  0  0  0  0  0
  142.4252   72.9288  221.6101 H   0  0  0  0  0  0  0  0  0  0  0  0
  139.8002   71.3003  220.0463 H   0  0  0  0  0  0  0  0  0  0  0  0
  139.1961   68.9431  220.3708 H   0  0  0  0  0  0  0  0  0  0  0  0
  138.9904   68.0447  222.6947 H   0  0  0  0  0  0  0  0  0  0  0  0
  139.1391   68.5245  227.2688 H   0  0  0  0  0  0  0  0  0  0  0  0
  140.9271   68.4802  227.4962 H   0  0  0  0  0  0  0  0  0  0  0  0
  138.9671   70.6638  228.2762 H   0  0  0  0  0  0  0  0  0  0  0  0
  140.1004   69.7040  229.3218 H   0  0  0  0  0  0  0  0  0  0  0  0
  140.8006   72.0732  228.8937 H   0  0  0  0  0  0  0  0  0  0  0  0
  141.9932   70.7904  228.4104 H   0  0  0  0  0  0  0  0  0  0  0  0
  140.1154   72.2971  226.5371 H   0  0  0  0  0  0  0  0  0  0  0  0
  141.8742   72.5644  226.7023 H   0  0  0  0  0  0  0  0  0  0  0  0
  141.3797   71.0578  224.8050 H   0  0  0  0  0  0  0  0  0  0  0  0
  142.2822   70.1887  226.0813 H   0  0  0  0  0  0  0  0  0  0  0  0
  140.0177   71.9367  224.2764 H   0  0  0  0  0  0  0  0  0  0  0  0
  138.1540   76.2115  223.2797 H   0  0  0  0  0  0  0  0  0  0  0  0
  138.6713   78.6317  223.0059 H   0  0  0  0  0  0  0  0  0  0  0  0
  141.6533   79.9229  223.5847 H   0  0  0  0  0  0  0  0  0  0  0  0
  142.2436   82.4182  223.0280 H   0  0  0  0  0  0  0  0  0  0  0  0
  140.0703   79.7484  219.5602 H   0  0  0  0  0  0  0  0  0  0  0  0
  142.1711   77.5000  220.7859 H   0  0  0  0  0  0  0  0  0  0  0  0
  1  2  2  0
  2  3  1  0
  3  4  1  0
  4  5  1  0
  5  6  2  0
  6  7  1  0
  7  8  2  0
  8  9  1  0
  9 10  1  0
 10 11  2  0
 10 12  1  0
 12 13  1  0
 13 14  1  0
 14 15  1  0
 15 16  1  0
 16 17  1  0
  9 18  2  0
  4 19  2  0
 19 20  1  0
 20 21  2  0
 21 22  1  0
 22 23  2  0
 23 24  1  0
 24 25  1  0
 25 26  2  0
 26 27  1  0
 27 28  1  0
 23 29  1  0
 29 30  2  0
 30  2  1  0
 18  5  1  0
 30 20  1  0
 17 12  1  0
 28 24  2  0
  3 31  1  0
  3 32  1  0
  6 33  1  0
  7 34  1  0
  8 35  1  0
 13 36  1  0
 13 37  1  0
 14 38  1  0
 14 39  1  0
 15 40  1  0
 15 41  1  0
 16 42  1  0
 16 43  1  0
 17 44  1  0
 17 45  1  0
 18 46  1  0
 21 47  1  0
 22 48  1  0
 25 49  1  0
 26 50  1  0
 28 51  1  0
 29 52  1  0
M  END
>  <smiles>  (32) 
O=C1CC(c2cccc(C(=O)N3CCCCC3)c2)=Nc2ccc(-c3ccsc3)cc21

>  <score_type>  (32) 
oracle

>  <origin>  (32) 
autodockgpu

>  <m_score__min__energy>  (32) 
-9.6199999999999992

>  <m_primary>  (32) 
energy

>  <rmsd>  (32) 
10.881679688601237

>  <m_score__min__rmsd>  (32) 
10.881679688601237

>  <meeko>  (32) 
{"free_energy": -9.5, "intermolecular_energy": -10.4, "internal_energy": -0.88, "cluster_size": 50, "cluster_id": 1, "rank_in_cluster": 38}

>  <energy>  (32) 
-9.53

>  <cluster_rmsd>  (32) 
0.24

>  <cluster>  (32) 
1

$$$$

     RDKit          3D

 52 56  0  0  0  0  0  0  0  0999 V2000
  142.8450   75.1310  220.2080 O   0  0  0  0  0  0  0  0  0  0  0  0
  141.8370   74.7860  220.8740 C   0  0  0  0  0  0  0  0  0  0  0  0
  141.5750   73.3420  221.0200 C   0  0  0  0  0  0  0  0  0  0  0  0
  140.3490   73.1580  221.8350 C   0  0  0  0  0  0  0  0  0  0  0  0
  139.9520   71.7580  222.0960 C   0  0  0  0  0  0  0  0  0  0  0  0
  139.6930   70.8820  221.0640 C   0  0  0  0  0  0  0  0  0  0  0  0
  139.3370   69.5640  221.2480 C   0  0  0  0  0  0  0  0  0  0  0  0
  139.2280   69.0830  222.5350 C   0  0  0  0  0  0  0  0  0  0  0  0
  139.4790   69.9320  223.5830 C   0  0  0  0  0  0  0  0  0  0  0  0
  139.3550   69.3730  224.9310 C   0  0  0  0  0  0  0  0  0  0  0  0
  138.4670   68.5270  225.2320 O   0  0  0  0  0  0  0  0  0  0  0  0
  140.2380   69.7660  225.9570 N   0  0  0  0  0  0  0  0  0  0  0  0
  140.0540   69.1620  227.2870 C   0  0  0  0  0  0  0  0  0  0  0  0
  139.9400   70.2380  228.3440 C   0  0  0  0  0  0  0  0  0  0  0  0
  140.9930   71.3080  228.1820 C   0  0  0  0  0  0  0  0  0  0  0  0
  141.0440   71.8550  226.7640 C   0  0  0  0  0  0  0  0  0  0  0  0
  141.3090   70.7100  225.8310 C   0  0  0  0  0  0  0  0  0  0  0  0
  139.8430   71.2730  223.3940 C   0  0  0  0  0  0  0  0  0  0  0  0
  139.6450   74.1040  222.3220 N   0  0  0  0  0  0  0  0  0  0  0  0
  139.9070   75.4930  222.1760 C   0  0  0  0  0  0  0  0  0  0  0  0
  139.1540   76.4920  222.7090 C   0  0  0  0  0  0  0  0  0  0  0  0
  139.4500   77.8480  222.5500 C   0  0  0  0  0  0  0  0  0  0  0  0
  140.5620   78.1700  221.8170 C   0  0  0  0  0  0  0  0  0  0  0  0
  140.9590   79.5910  221.6010 C   0  0  0  0  0  0  0  0  0  0  0  0
  141.0860   80.1350  220.4050 C   0  0  0  0  0  0  0  0  0  0  0  0
  141.4560   81.4690  220.2690 C   0  0  0  0  0  0  0  0  0  0  0  0
  141.6500   82.0310  222.0600 S   0  0  0  0  0  0  0  0  0  0  0  0
  141.2040   80.3790  222.7370 C   0  0  0  0  0  0  0  0  0  0  0  0
  141.3380   77.1620  221.2690 C   0  0  0  0  0  0  0  0  0  0  0  0
  141.0210   75.8410  221.4420 C   0  0  0  0  0  0  0  0  0  0  0  0
  141.4302   72.8904  220.0275 H   0  0  0  0  0  0  0  0  0  0  0  0
  142.4287   72.8556  221.5145 H   0  0  0  0  0  0  0  0  0  0  0  0
  139.7753   71.2572  220.0332 H   0  0  0  0  0  0  0  0  0  0  0  0
  139.1438   68.9090  220.3856 H   0  0  0  0  0  0  0  0  0  0  0  0
  138.9445   68.0362  222.7188 H   0  0  0  0  0  0  0  0  0  0  0  0
  139.1358   68.5563  227.2860 H   0  0  0  0  0  0  0  0  0  0  0  0
  140.9244   68.5291  227.5148 H   0  0  0  0  0  0  0  0  0  0  0  0
  138.9464   70.7042  228.2697 H   0  0  0  0  0  0  0  0  0  0  0  0
  140.0867   69.7647  229.3260 H   0  0  0  0  0  0  0  0  0  0  0  0
  140.7674   72.1342  228.8723 H   0  0  0  0  0  0  0  0  0  0  0  0
  141.9707   70.8555  228.4044 H   0  0  0  0  0  0  0  0  0  0  0  0
  140.0828   72.3266  226.5117 H   0  0  0  0  0  0  0  0  0  0  0  0
  141.8390   72.6100  226.6756 H   0  0  0  0  0  0  0  0  0  0  0  0
  141.3595   71.0785  224.7958 H   0  0  0  0  0  0  0  0  0  0  0  0
  142.2665   70.2309  226.0834 H   0  0  0  0  0  0  0  0  0  0  0  0
  140.0384   71.9280  224.2558 H   0  0  0  0  0  0  0  0  0  0  0  0
  138.2651   76.2180  223.2962 H   0  0  0  0  0  0  0  0  0  0  0  0
  138.8147   78.6273  222.9962 H   0  0  0  0  0  0  0  0  0  0  0  0
  140.8975   79.5277  219.5074 H   0  0  0  0  0  0  0  0  0  0  0  0
  141.5997   82.0514  219.3469 H   0  0  0  0  0  0  0  0  0  0  0  0
  141.1431   80.0771  223.7930 H   0  0  0  0  0  0  0  0  0  0  0  0
  142.2290   77.4286  220.6816 H   0  0  0  0  0  0  0  0  0  0  0  0
  1  2  2  0
  2  3  1  0
  3  4  1  0
  4  5  1  0
  5  6  2  0
  6  7  1  0
  7  8  2  0
  8  9  1  0
  9 10  1  0
 10 11  2  0
 10 12  1  0
 12 13  1  0
 13 14  1  0
 14 15  1  0
 15 16  1  0
 16 17  1  0
  9 18  2  0
  4 19  2  0
 19 20  1  0
 20 21  2  0
 21 22  1  0
 22 23  2  0
 23 24  1  0
 24 25  1  0
 25 26  2  0
 26 27  1  0
 27 28  1  0
 23 29  1  0
 29 30  2  0
 30  2  1  0
 18  5  1  0
 30 20  1  0
 17 12  1  0
 28 24  2  0
  3 31  1  0
  3 32  1  0
  6 33  1  0
  7 34  1  0
  8 35  1  0
 13 36  1  0
 13 37  1  0
 14 38  1  0
 14 39  1  0
 15 40  1  0
 15 41  1  0
 16 42  1  0
 16 43  1  0
 17 44  1  0
 17 45  1  0
 18 46  1  0
 21 47  1  0
 22 48  1  0
 25 49  1  0
 26 50  1  0
 28 51  1  0
 29 52  1  0
M  END
>  <smiles>  (33) 
O=C1CC(c2cccc(C(=O)N3CCCCC3)c2)=Nc2ccc(-c3ccsc3)cc21

>  <score_type>  (33) 
oracle

>  <origin>  (33) 
autodockgpu

>  <m_score__min__energy>  (33) 
-9.6199999999999992

>  <m_primary>  (33) 
energy

>  <rmsd>  (33) 
10.871856499395767

>  <m_score__min__rmsd>  (33) 
10.871856499395767

>  <meeko>  (33) 
{"free_energy": -9.49, "intermolecular_energy": -10.38, "internal_energy": -0.87, "cluster_size": 50, "cluster_id": 1, "rank_in_cluster": 41}

>  <energy>  (33) 
-9.53

>  <cluster_rmsd>  (33) 
0.23

>  <cluster>  (33) 
1

$$$$

     RDKit          3D

 52 56  0  0  0  0  0  0  0  0999 V2000
  142.8850   75.1580  220.2710 O   0  0  0  0  0  0  0  0  0  0  0  0
  141.8630   74.8150  220.9180 C   0  0  0  0  0  0  0  0  0  0  0  0
  141.5950   73.3730  221.0590 C   0  0  0  0  0  0  0  0  0  0  0  0
  140.3520   73.1920  221.8500 C   0  0  0  0  0  0  0  0  0  0  0  0
  139.9480   71.7930  222.1020 C   0  0  0  0  0  0  0  0  0  0  0  0
  139.6780   70.9250  221.0660 C   0  0  0  0  0  0  0  0  0  0  0  0
  139.3130   69.6090  221.2420 C   0  0  0  0  0  0  0  0  0  0  0  0
  139.2060   69.1200  222.5260 C   0  0  0  0  0  0  0  0  0  0  0  0
  139.4680   69.9600  223.5790 C   0  0  0  0  0  0  0  0  0  0  0  0
  139.3450   69.3930  224.9240 C   0  0  0  0  0  0  0  0  0  0  0  0
  138.4530   68.5500  225.2220 O   0  0  0  0  0  0  0  0  0  0  0  0
  140.2330   69.7740  225.9500 N   0  0  0  0  0  0  0  0  0  0  0  0
  140.0510   69.1620  227.2760 C   0  0  0  0  0  0  0  0  0  0  0  0
  139.9470   70.2320  228.3410 C   0  0  0  0  0  0  0  0  0  0  0  0
  141.0060   71.2970  228.1820 C   0  0  0  0  0  0  0  0  0  0  0  0
  141.0540   71.8530  226.7680 C   0  0  0  0  0  0  0  0  0  0  0  0
  141.3090   70.7120  225.8260 C   0  0  0  0  0  0  0  0  0  0  0  0
  139.8400   71.3000  223.3970 C   0  0  0  0  0  0  0  0  0  0  0  0
  139.6420   74.1400  222.3240 N   0  0  0  0  0  0  0  0  0  0  0  0
  139.9110   75.5280  222.1820 C   0  0  0  0  0  0  0  0  0  0  0  0
  139.1500   76.5290  222.7010 C   0  0  0  0  0  0  0  0  0  0  0  0
  139.4530   77.8840  222.5480 C   0  0  0  0  0  0  0  0  0  0  0  0
  140.5800   78.2030  221.8360 C   0  0  0  0  0  0  0  0  0  0  0  0
  140.9850   79.6240  221.6280 C   0  0  0  0  0  0  0  0  0  0  0  0
  141.4600   80.3900  222.5930 C   0  0  0  0  0  0  0  0  0  0  0  0
  141.8240   81.7080  222.3350 C   0  0  0  0  0  0  0  0  0  0  0  0
  141.4500   81.8890  220.4940 S   0  0  0  0  0  0  0  0  0  0  0  0
  140.8530   80.1560  220.3360 C   0  0  0  0  0  0  0  0  0  0  0  0
  141.3630   77.1930  221.3040 C   0  0  0  0  0  0  0  0  0  0  0  0
  141.0390   75.8730  221.4700 C   0  0  0  0  0  0  0  0  0  0  0  0
  141.4689   72.9215  220.0639 H   0  0  0  0  0  0  0  0  0  0  0  0
  142.4376   72.8848  221.5705 H   0  0  0  0  0  0  0  0  0  0  0  0
  139.7589   71.3062  220.0373 H   0  0  0  0  0  0  0  0  0  0  0  0
  139.1111   68.9616  220.3759 H   0  0  0  0  0  0  0  0  0  0  0  0
  138.9155   68.0741  222.7038 H   0  0  0  0  0  0  0  0  0  0  0  0
  139.1295   68.5613  227.2746 H   0  0  0  0  0  0  0  0  0  0  0  0
  140.9186   68.5226  227.4961 H   0  0  0  0  0  0  0  0  0  0  0  0
  138.9559   70.7045  228.2735 H   0  0  0  0  0  0  0  0  0  0  0  0
  140.0943   69.7514  229.3194 H   0  0  0  0  0  0  0  0  0  0  0  0
  140.7883   72.1198  228.8789 H   0  0  0  0  0  0  0  0  0  0  0  0
  141.9819   70.8374  228.3973 H   0  0  0  0  0  0  0  0  0  0  0  0
  140.0943   72.3314  226.5228 H   0  0  0  0  0  0  0  0  0  0  0  0
  141.8526   72.6044  226.6811 H   0  0  0  0  0  0  0  0  0  0  0  0
  141.3578   71.0869  224.7930 H   0  0  0  0  0  0  0  0  0  0  0  0
  142.2646   70.2256  226.0715 H   0  0  0  0  0  0  0  0  0  0  0  0
  140.0423   71.9482  224.2624 H   0  0  0  0  0  0  0  0  0  0  0  0
  138.2492   76.2573  223.2708 H   0  0  0  0  0  0  0  0  0  0  0  0
  138.8117   78.6651  222.9823 H   0  0  0  0  0  0  0  0  0  0  0  0
  141.5688   79.9829  223.6091 H   0  0  0  0  0  0  0  0  0  0  0  0
  142.2289   82.4577  223.0307 H   0  0  0  0  0  0  0  0  0  0  0  0
  140.4777   79.6513  219.4336 H   0  0  0  0  0  0  0  0  0  0  0  0
  142.2665   77.4569  220.7347 H   0  0  0  0  0  0  0  0  0  0  0  0
  1  2  2  0
  2  3  1  0
  3  4  1  0
  4  5  1  0
  5  6  2  0
  6  7  1  0
  7  8  2  0
  8  9  1  0
  9 10  1  0
 10 11  2  0
 10 12  1  0
 12 13  1  0
 13 14  1  0
 14 15  1  0
 15 16  1  0
 16 17  1  0
  9 18  2  0
  4 19  2  0
 19 20  1  0
 20 21  2  0
 21 22  1  0
 22 23  2  0
 23 24  1  0
 24 25  1  0
 25 26  2  0
 26 27  1  0
 27 28  1  0
 23 29  1  0
 29 30  2  0
 30  2  1  0
 18  5  1  0
 30 20  1  0
 17 12  1  0
 28 24  2  0
  3 31  1  0
  3 32  1  0
  6 33  1  0
  7 34  1  0
  8 35  1  0
 13 36  1  0
 13 37  1  0
 14 38  1  0
 14 39  1  0
 15 40  1  0
 15 41  1  0
 16 42  1  0
 16 43  1  0
 17 44  1  0
 17 45  1  0
 18 46  1  0
 21 47  1  0
 22 48  1  0
 25 49  1  0
 26 50  1  0
 28 51  1  0
 29 52  1  0
M  END
>  <smiles>  (34) 
O=C1CC(c2cccc(C(=O)N3CCCCC3)c2)=Nc2ccc(-c3ccsc3)cc21

>  <score_type>  (34) 
oracle

>  <origin>  (34) 
autodockgpu

>  <m_score__min__energy>  (34) 
-9.6199999999999992

>  <m_primary>  (34) 
energy

>  <rmsd>  (34) 
10.856658261695491

>  <m_score__min__rmsd>  (34) 
10.856658261695491

>  <meeko>  (34) 
{"free_energy": -9.56, "intermolecular_energy": -10.45, "internal_energy": -0.87, "cluster_size": 50, "cluster_id": 1, "rank_in_cluster": 11}

>  <energy>  (34) 
-9.52

>  <cluster_rmsd>  (34) 
0.28

>  <cluster>  (34) 
1

$$$$

     RDKit          3D

 52 56  0  0  0  0  0  0  0  0999 V2000
  142.8630   75.1800  220.2550 O   0  0  0  0  0  0  0  0  0  0  0  0
  141.8470   74.8330  220.9080 C   0  0  0  0  0  0  0  0  0  0  0  0
  141.5830   73.3890  221.0460 C   0  0  0  0  0  0  0  0  0  0  0  0
  140.3470   73.2030  221.8460 C   0  0  0  0  0  0  0  0  0  0  0  0
  139.9470   71.8020  222.0960 C   0  0  0  0  0  0  0  0  0  0  0  0
  139.6930   70.9310  221.0590 C   0  0  0  0  0  0  0  0  0  0  0  0
  139.3330   69.6130  221.2330 C   0  0  0  0  0  0  0  0  0  0  0  0
  139.2160   69.1260  222.5160 C   0  0  0  0  0  0  0  0  0  0  0  0
  139.4620   69.9680  223.5710 C   0  0  0  0  0  0  0  0  0  0  0  0
  139.3290   69.4020  224.9150 C   0  0  0  0  0  0  0  0  0  0  0  0
  138.4340   68.5600  225.2070 O   0  0  0  0  0  0  0  0  0  0  0  0
  140.2090   69.7830  225.9470 N   0  0  0  0  0  0  0  0  0  0  0  0
  140.0150   69.1720  227.2720 C   0  0  0  0  0  0  0  0  0  0  0  0
  139.9040   70.2430  228.3360 C   0  0  0  0  0  0  0  0  0  0  0  0
  140.9650   71.3080  228.1840 C   0  0  0  0  0  0  0  0  0  0  0  0
  141.0250   71.8620  226.7700 C   0  0  0  0  0  0  0  0  0  0  0  0
  141.2870   70.7210  225.8310 C   0  0  0  0  0  0  0  0  0  0  0  0
  139.8290   71.3090  223.3910 C   0  0  0  0  0  0  0  0  0  0  0  0
  139.6390   74.1470  222.3290 N   0  0  0  0  0  0  0  0  0  0  0  0
  139.9040   75.5370  222.1920 C   0  0  0  0  0  0  0  0  0  0  0  0
  139.1460   76.5340  222.7210 C   0  0  0  0  0  0  0  0  0  0  0  0
  139.4450   77.8900  222.5710 C   0  0  0  0  0  0  0  0  0  0  0  0
  140.5650   78.2140  221.8510 C   0  0  0  0  0  0  0  0  0  0  0  0
  140.9660   79.6360  221.6450 C   0  0  0  0  0  0  0  0  0  0  0  0
  141.4180   80.4090  222.6160 C   0  0  0  0  0  0  0  0  0  0  0  0
  141.7780   81.7280  222.3590 C   0  0  0  0  0  0  0  0  0  0  0  0
  141.4390   81.9010  220.5110 S   0  0  0  0  0  0  0  0  0  0  0  0
  140.8550   80.1630  220.3490 C   0  0  0  0  0  0  0  0  0  0  0  0
  141.3460   77.2080  221.3080 C   0  0  0  0  0  0  0  0  0  0  0  0
  141.0260   75.8870  221.4710 C   0  0  0  0  0  0  0  0  0  0  0  0
  141.4499   72.9407  220.0504 H   0  0  0  0  0  0  0  0  0  0  0  0
  142.4306   72.9005  221.5489 H   0  0  0  0  0  0  0  0  0  0  0  0
  139.7831   71.3110  220.0307 H   0  0  0  0  0  0  0  0  0  0  0  0
  139.1430   68.9633  220.3659 H   0  0  0  0  0  0  0  0  0  0  0  0
  138.9299   68.0786  222.6921 H   0  0  0  0  0  0  0  0  0  0  0  0
  139.0925   68.5728  227.2633 H   0  0  0  0  0  0  0  0  0  0  0  0
  140.8798   68.5314  227.4995 H   0  0  0  0  0  0  0  0  0  0  0  0
  138.9137   70.7159  228.2612 H   0  0  0  0  0  0  0  0  0  0  0  0
  140.0443   69.7628  229.3156 H   0  0  0  0  0  0  0  0  0  0  0  0
  140.7418   72.1318  228.8779 H   0  0  0  0  0  0  0  0  0  0  0  0
  141.9389   70.8483  228.4078 H   0  0  0  0  0  0  0  0  0  0  0  0
  140.0676   72.3407  226.5165 H   0  0  0  0  0  0  0  0  0  0  0  0
  141.8252   72.6125  226.6892 H   0  0  0  0  0  0  0  0  0  0  0  0
  141.3442   71.0954  224.7982 H   0  0  0  0  0  0  0  0  0  0  0  0
  142.2404   70.2343  226.0842 H   0  0  0  0  0  0  0  0  0  0  0  0
  140.0200   71.9589  224.2577 H   0  0  0  0  0  0  0  0  0  0  0  0
  138.2505   76.2583  223.2972 H   0  0  0  0  0  0  0  0  0  0  0  0
  138.8059   78.6681  223.0139 H   0  0  0  0  0  0  0  0  0  0  0  0
  141.5105   80.0068  223.6356 H   0  0  0  0  0  0  0  0  0  0  0  0
  142.1645   82.4829  223.0595 H   0  0  0  0  0  0  0  0  0  0  0  0
  140.4994   79.6528  219.4417 H   0  0  0  0  0  0  0  0  0  0  0  0
  142.2442   77.4763  220.7324 H   0  0  0  0  0  0  0  0  0  0  0  0
  1  2  2  0
  2  3  1  0
  3  4  1  0
  4  5  1  0
  5  6  2  0
  6  7  1  0
  7  8  2  0
  8  9  1  0
  9 10  1  0
 10 11  2  0
 10 12  1  0
 12 13  1  0
 13 14  1  0
 14 15  1  0
 15 16  1  0
 16 17  1  0
  9 18  2  0
  4 19  2  0
 19 20  1  0
 20 21  2  0
 21 22  1  0
 22 23  2  0
 23 24  1  0
 24 25  1  0
 25 26  2  0
 26 27  1  0
 27 28  1  0
 23 29  1  0
 29 30  2  0
 30  2  1  0
 18  5  1  0
 30 20  1  0
 17 12  1  0
 28 24  2  0
  3 31  1  0
  3 32  1  0
  6 33  1  0
  7 34  1  0
  8 35  1  0
 13 36  1  0
 13 37  1  0
 14 38  1  0
 14 39  1  0
 15 40  1  0
 15 41  1  0
 16 42  1  0
 16 43  1  0
 17 44  1  0
 17 45  1  0
 18 46  1  0
 21 47  1  0
 22 48  1  0
 25 49  1  0
 26 50  1  0
 28 51  1  0
 29 52  1  0
M  END
>  <smiles>  (35) 
O=C1CC(c2cccc(C(=O)N3CCCCC3)c2)=Nc2ccc(-c3ccsc3)cc21

>  <score_type>  (35) 
oracle

>  <origin>  (35) 
autodockgpu

>  <m_score__min__energy>  (35) 
-9.6199999999999992

>  <m_primary>  (35) 
energy

>  <rmsd>  (35) 
10.85121091336309

>  <m_score__min__rmsd>  (35) 
10.85121091336309

>  <meeko>  (35) 
{"free_energy": -9.54, "intermolecular_energy": -10.43, "internal_energy": -0.87, "cluster_size": 50, "cluster_id": 1, "rank_in_cluster": 27}

>  <energy>  (35) 
-9.52

>  <cluster_rmsd>  (35) 
0.25

>  <cluster>  (35) 
1

$$$$

     RDKit          3D

 52 56  0  0  0  0  0  0  0  0999 V2000
  142.8980   75.1790  220.2370 O   0  0  0  0  0  0  0  0  0  0  0  0
  141.8800   74.8300  220.8870 C   0  0  0  0  0  0  0  0  0  0  0  0
  141.6160   73.3860  221.0210 C   0  0  0  0  0  0  0  0  0  0  0  0
  140.3780   73.1980  221.8170 C   0  0  0  0  0  0  0  0  0  0  0  0
  139.9780   71.7970  222.0630 C   0  0  0  0  0  0  0  0  0  0  0  0
  139.7190   70.9290  221.0230 C   0  0  0  0  0  0  0  0  0  0  0  0
  139.3600   69.6110  221.1940 C   0  0  0  0  0  0  0  0  0  0  0  0
  139.2460   69.1190  222.4760 C   0  0  0  0  0  0  0  0  0  0  0  0
  139.4960   69.9580  223.5330 C   0  0  0  0  0  0  0  0  0  0  0  0
  139.3670   69.3870  224.8760 C   0  0  0  0  0  0  0  0  0  0  0  0
  138.4710   68.5460  225.1680 O   0  0  0  0  0  0  0  0  0  0  0  0
  140.2510   69.7630  225.9060 N   0  0  0  0  0  0  0  0  0  0  0  0
  140.0610   69.1480  227.2300 C   0  0  0  0  0  0  0  0  0  0  0  0
  139.9560   70.2160  228.2970 C   0  0  0  0  0  0  0  0  0  0  0  0
  141.0180   71.2790  228.1460 C   0  0  0  0  0  0  0  0  0  0  0  0
  141.0730   71.8390  226.7330 C   0  0  0  0  0  0  0  0  0  0  0  0
  141.3300   70.7000  225.7890 C   0  0  0  0  0  0  0  0  0  0  0  0
  139.8630   71.3000  223.3570 C   0  0  0  0  0  0  0  0  0  0  0  0
  139.6670   74.1410  222.2990 N   0  0  0  0  0  0  0  0  0  0  0  0
  139.9320   75.5310  222.1640 C   0  0  0  0  0  0  0  0  0  0  0  0
  139.1710   76.5270  222.6910 C   0  0  0  0  0  0  0  0  0  0  0  0
  139.4700   77.8840  222.5450 C   0  0  0  0  0  0  0  0  0  0  0  0
  140.5920   78.2090  221.8290 C   0  0  0  0  0  0  0  0  0  0  0  0
  140.9930   79.6320  221.6270 C   0  0  0  0  0  0  0  0  0  0  0  0
  141.4630   80.3970  222.5950 C   0  0  0  0  0  0  0  0  0  0  0  0
  141.8230   81.7160  222.3420 C   0  0  0  0  0  0  0  0  0  0  0  0
  141.4520   81.9040  220.5010 S   0  0  0  0  0  0  0  0  0  0  0  0
  140.8610   80.1690  220.3370 C   0  0  0  0  0  0  0  0  0  0  0  0
  141.3760   77.2040  221.2880 C   0  0  0  0  0  0  0  0  0  0  0  0
  141.0560   75.8830  221.4480 C   0  0  0  0  0  0  0  0  0  0  0  0
  141.4858   72.9399  220.0240 H   0  0  0  0  0  0  0  0  0  0  0  0
  142.4624   72.8966  221.5251 H   0  0  0  0  0  0  0  0  0  0  0  0
  139.8044   71.3127  219.9956 H   0  0  0  0  0  0  0  0  0  0  0  0
  139.1682   68.9641  220.3253 H   0  0  0  0  0  0  0  0  0  0  0  0
  138.9594   68.0712  222.6494 H   0  0  0  0  0  0  0  0  0  0  0  0
  139.1375   68.5505  227.2230 H   0  0  0  0  0  0  0  0  0  0  0  0
  140.9253   68.5049  227.4523 H   0  0  0  0  0  0  0  0  0  0  0  0
  138.9665   70.6912  228.2265 H   0  0  0  0  0  0  0  0  0  0  0  0
  140.0988   69.7322  229.2745 H   0  0  0  0  0  0  0  0  0  0  0  0
  140.7991   72.1002  228.8443 H   0  0  0  0  0  0  0  0  0  0  0  0
  141.9920   70.8169  228.3644 H   0  0  0  0  0  0  0  0  0  0  0  0
  140.1152   72.3198  226.4850 H   0  0  0  0  0  0  0  0  0  0  0  0
  141.8733   72.5892  226.6515 H   0  0  0  0  0  0  0  0  0  0  0  0
  141.3839   71.0775  224.7572 H   0  0  0  0  0  0  0  0  0  0  0  0
  142.2837   70.2112  226.0372 H   0  0  0  0  0  0  0  0  0  0  0  0
  140.0562   71.9470  224.2254 H   0  0  0  0  0  0  0  0  0  0  0  0
  138.2728   76.2498  223.2623 H   0  0  0  0  0  0  0  0  0  0  0  0
  138.8296   78.6611  222.9876 H   0  0  0  0  0  0  0  0  0  0  0  0
  141.5707   79.9874  223.6102 H   0  0  0  0  0  0  0  0  0  0  0  0
  142.2244   82.4642  223.0413 H   0  0  0  0  0  0  0  0  0  0  0  0
  140.4884   79.6663  219.4323 H   0  0  0  0  0  0  0  0  0  0  0  0
  142.2765   77.4735  220.7166 H   0  0  0  0  0  0  0  0  0  0  0  0
  1  2  2  0
  2  3  1  0
  3  4  1  0
  4  5  1  0
  5  6  2  0
  6  7  1  0
  7  8  2  0
  8  9  1  0
  9 10  1  0
 10 11  2  0
 10 12  1  0
 12 13  1  0
 13 14  1  0
 14 15  1  0
 15 16  1  0
 16 17  1  0
  9 18  2  0
  4 19  2  0
 19 20  1  0
 20 21  2  0
 21 22  1  0
 22 23  2  0
 23 24  1  0
 24 25  1  0
 25 26  2  0
 26 27  1  0
 27 28  1  0
 23 29  1  0
 29 30  2  0
 30  2  1  0
 18  5  1  0
 30 20  1  0
 17 12  1  0
 28 24  2  0
  3 31  1  0
  3 32  1  0
  6 33  1  0
  7 34  1  0
  8 35  1  0
 13 36  1  0
 13 37  1  0
 14 38  1  0
 14 39  1  0
 15 40  1  0
 15 41  1  0
 16 42  1  0
 16 43  1  0
 17 44  1  0
 17 45  1  0
 18 46  1  0
 21 47  1  0
 22 48  1  0
 25 49  1  0
 26 50  1  0
 28 51  1  0
 29 52  1  0
M  END
>  <smiles>  (36) 
O=C1CC(c2cccc(C(=O)N3CCCCC3)c2)=Nc2ccc(-c3ccsc3)cc21

>  <score_type>  (36) 
oracle

>  <origin>  (36) 
autodockgpu

>  <m_score__min__energy>  (36) 
-9.6199999999999992

>  <m_primary>  (36) 
energy

>  <rmsd>  (36) 
10.84303192714916

>  <m_score__min__rmsd>  (36) 
10.84303192714916

>  <meeko>  (36) 
{"free_energy": -9.54, "intermolecular_energy": -10.43, "internal_energy": -0.87, "cluster_size": 50, "cluster_id": 1, "rank_in_cluster": 29}

>  <energy>  (36) 
-9.51

>  <cluster_rmsd>  (36) 
0.26

>  <cluster>  (36) 
1

$$$$

     RDKit          3D

 52 56  0  0  0  0  0  0  0  0999 V2000
  142.8800   75.2000  220.2560 O   0  0  0  0  0  0  0  0  0  0  0  0
  141.8690   74.8460  220.9120 C   0  0  0  0  0  0  0  0  0  0  0  0
  141.6150   73.4000  221.0510 C   0  0  0  0  0  0  0  0  0  0  0  0
  140.3830   73.2060  221.8550 C   0  0  0  0  0  0  0  0  0  0  0  0
  139.9940   71.8020  222.1070 C   0  0  0  0  0  0  0  0  0  0  0  0
  139.7540   70.9260  221.0700 C   0  0  0  0  0  0  0  0  0  0  0  0
  139.4050   69.6050  221.2460 C   0  0  0  0  0  0  0  0  0  0  0  0
  139.2830   69.1210  222.5310 C   0  0  0  0  0  0  0  0  0  0  0  0
  139.5140   69.9690  223.5840 C   0  0  0  0  0  0  0  0  0  0  0  0
  139.3760   69.4060  224.9290 C   0  0  0  0  0  0  0  0  0  0  0  0
  138.4790   68.5660  225.2210 O   0  0  0  0  0  0  0  0  0  0  0  0
  140.2540   69.7890  225.9630 N   0  0  0  0  0  0  0  0  0  0  0  0
  140.0560   69.1810  227.2890 C   0  0  0  0  0  0  0  0  0  0  0  0
  139.9430   70.2550  228.3490 C   0  0  0  0  0  0  0  0  0  0  0  0
  141.0050   71.3180  228.1990 C   0  0  0  0  0  0  0  0  0  0  0  0
  141.0700   71.8690  226.7830 C   0  0  0  0  0  0  0  0  0  0  0  0
  141.3330   70.7250  225.8480 C   0  0  0  0  0  0  0  0  0  0  0  0
  139.8700   71.3130  223.4020 C   0  0  0  0  0  0  0  0  0  0  0  0
  139.6690   74.1450  222.3390 N   0  0  0  0  0  0  0  0  0  0  0  0
  139.9230   75.5360  222.1990 C   0  0  0  0  0  0  0  0  0  0  0  0
  139.1590   76.5280  222.7290 C   0  0  0  0  0  0  0  0  0  0  0  0
  139.4470   77.8870  222.5780 C   0  0  0  0  0  0  0  0  0  0  0  0
  140.5640   78.2180  221.8550 C   0  0  0  0  0  0  0  0  0  0  0  0
  140.9530   79.6430  221.6470 C   0  0  0  0  0  0  0  0  0  0  0  0
  141.3400   80.4390  222.6270 C   0  0  0  0  0  0  0  0  0  0  0  0
  141.6940   81.7590  222.3690 C   0  0  0  0  0  0  0  0  0  0  0  0
  141.4530   81.8960  220.5020 S   0  0  0  0  0  0  0  0  0  0  0  0
  140.9060   80.1470  220.3380 C   0  0  0  0  0  0  0  0  0  0  0  0
  141.3510   77.2170  221.3110 C   0  0  0  0  0  0  0  0  0  0  0  0
  141.0410   75.8940  221.4760 C   0  0  0  0  0  0  0  0  0  0  0  0
  141.4816   72.9507  220.0558 H   0  0  0  0  0  0  0  0  0  0  0  0
  142.4675   72.9172  221.5511 H   0  0  0  0  0  0  0  0  0  0  0  0
  139.8466   71.3041  220.0412 H   0  0  0  0  0  0  0  0  0  0  0  0
  139.2275   68.9505  220.3799 H   0  0  0  0  0  0  0  0  0  0  0  0
  139.0049   68.0717  222.7090 H   0  0  0  0  0  0  0  0  0  0  0  0
  139.1332   68.5825  227.2794 H   0  0  0  0  0  0  0  0  0  0  0  0
  140.9193   68.5399  227.5206 H   0  0  0  0  0  0  0  0  0  0  0  0
  138.9535   70.7289  228.2691 H   0  0  0  0  0  0  0  0  0  0  0  0
  140.0797   69.7770  229.3302 H   0  0  0  0  0  0  0  0  0  0  0  0
  140.7802   72.1435  228.8904 H   0  0  0  0  0  0  0  0  0  0  0  0
  141.9778   70.8582  228.4275 H   0  0  0  0  0  0  0  0  0  0  0  0
  140.1141   72.3486  226.5255 H   0  0  0  0  0  0  0  0  0  0  0  0
  141.8713   72.6183  226.7025 H   0  0  0  0  0  0  0  0  0  0  0  0
  141.3938   71.0965  224.8144 H   0  0  0  0  0  0  0  0  0  0  0  0
  142.2849   70.2377  226.1057 H   0  0  0  0  0  0  0  0  0  0  0  0
  140.0477   71.9679  224.2678 H   0  0  0  0  0  0  0  0  0  0  0  0
  138.2669   76.2458  223.3073 H   0  0  0  0  0  0  0  0  0  0  0  0
  138.8031   78.6607  223.0216 H   0  0  0  0  0  0  0  0  0  0  0  0
  141.3828   80.0546  223.6567 H   0  0  0  0  0  0  0  0  0  0  0  0
  142.0306   82.5309  223.0767 H   0  0  0  0  0  0  0  0  0  0  0  0
  140.6092   79.6164  219.4213 H   0  0  0  0  0  0  0  0  0  0  0  0
  142.2458   77.4913  220.7330 H   0  0  0  0  0  0  0  0  0  0  0  0
  1  2  2  0
  2  3  1  0
  3  4  1  0
  4  5  1  0
  5  6  2  0
  6  7  1  0
  7  8  2  0
  8  9  1  0
  9 10  1  0
 10 11  2  0
 10 12  1  0
 12 13  1  0
 13 14  1  0
 14 15  1  0
 15 16  1  0
 16 17  1  0
  9 18  2  0
  4 19  2  0
 19 20  1  0
 20 21  2  0
 21 22  1  0
 22 23  2  0
 23 24  1  0
 24 25  1  0
 25 26  2  0
 26 27  1  0
 27 28  1  0
 23 29  1  0
 29 30  2  0
 30  2  1  0
 18  5  1  0
 30 20  1  0
 17 12  1  0
 28 24  2  0
  3 31  1  0
  3 32  1  0
  6 33  1  0
  7 34  1  0
  8 35  1  0
 13 36  1  0
 13 37  1  0
 14 38  1  0
 14 39  1  0
 15 40  1  0
 15 41  1  0
 16 42  1  0
 16 43  1  0
 17 44  1  0
 17 45  1  0
 18 46  1  0
 21 47  1  0
 22 48  1  0
 25 49  1  0
 26 50  1  0
 28 51  1  0
 29 52  1  0
M  END
>  <smiles>  (37) 
O=C1CC(c2cccc(C(=O)N3CCCCC3)c2)=Nc2ccc(-c3ccsc3)cc21

>  <score_type>  (37) 
oracle

>  <origin>  (37) 
autodockgpu

>  <m_score__min__energy>  (37) 
-9.6199999999999992

>  <m_primary>  (37) 
energy

>  <rmsd>  (37) 
10.857720225984455

>  <m_score__min__rmsd>  (37) 
10.857720225984455

>  <meeko>  (37) 
{"free_energy": -9.51, "intermolecular_energy": -10.4, "internal_energy": -0.88, "cluster_size": 50, "cluster_id": 1, "rank_in_cluster": 37}

>  <energy>  (37) 
-9.51

>  <cluster_rmsd>  (37) 
0.24

>  <cluster>  (37) 
1

$$$$

     RDKit          3D

 52 56  0  0  0  0  0  0  0  0999 V2000
  142.9180   75.2340  220.1660 O   0  0  0  0  0  0  0  0  0  0  0  0
  141.9210   74.8760  220.8420 C   0  0  0  0  0  0  0  0  0  0  0  0
  141.6730   73.4300  220.9840 C   0  0  0  0  0  0  0  0  0  0  0  0
  140.4580   73.2310  221.8110 C   0  0  0  0  0  0  0  0  0  0  0  0
  140.0770   71.8260  222.0690 C   0  0  0  0  0  0  0  0  0  0  0  0
  139.9050   70.9280  221.0380 C   0  0  0  0  0  0  0  0  0  0  0  0
  139.5660   69.6060  221.2200 C   0  0  0  0  0  0  0  0  0  0  0  0
  139.3850   69.1420  222.5050 C   0  0  0  0  0  0  0  0  0  0  0  0
  139.5490   70.0120  223.5530 C   0  0  0  0  0  0  0  0  0  0  0  0
  139.3490   69.4710  224.9000 C   0  0  0  0  0  0  0  0  0  0  0  0
  138.4100   68.6730  225.1740 O   0  0  0  0  0  0  0  0  0  0  0  0
  140.2140   69.8280  225.9540 N   0  0  0  0  0  0  0  0  0  0  0  0
  139.9530   69.2450  227.2800 C   0  0  0  0  0  0  0  0  0  0  0  0
  139.8560   70.3350  228.3260 C   0  0  0  0  0  0  0  0  0  0  0  0
  140.9670   71.3500  228.1940 C   0  0  0  0  0  0  0  0  0  0  0  0
  141.0940   71.8820  226.7750 C   0  0  0  0  0  0  0  0  0  0  0  0
  141.3340   70.7170  225.8590 C   0  0  0  0  0  0  0  0  0  0  0  0
  139.8940   71.3580  223.3650 C   0  0  0  0  0  0  0  0  0  0  0  0
  139.7510   74.1680  222.3110 N   0  0  0  0  0  0  0  0  0  0  0  0
  140.0000   75.5600  222.1690 C   0  0  0  0  0  0  0  0  0  0  0  0
  139.2440   76.5500  222.7150 C   0  0  0  0  0  0  0  0  0  0  0  0
  139.5270   77.9090  222.5600 C   0  0  0  0  0  0  0  0  0  0  0  0
  140.6280   78.2440  221.8160 C   0  0  0  0  0  0  0  0  0  0  0  0
  141.0100   79.6700  221.6030 C   0  0  0  0  0  0  0  0  0  0  0  0
  141.4690   80.4490  222.5650 C   0  0  0  0  0  0  0  0  0  0  0  0
  141.8120   81.7710  222.3020 C   0  0  0  0  0  0  0  0  0  0  0  0
  141.4410   81.9380  220.4590 S   0  0  0  0  0  0  0  0  0  0  0  0
  140.8730   80.1950  220.3080 C   0  0  0  0  0  0  0  0  0  0  0  0
  141.4060   77.2460  221.2540 C   0  0  0  0  0  0  0  0  0  0  0  0
  141.1020   75.9220  221.4240 C   0  0  0  0  0  0  0  0  0  0  0  0
  141.5214   72.9819  219.9909 H   0  0  0  0  0  0  0  0  0  0  0  0
  142.5362   72.9490  221.4672 H   0  0  0  0  0  0  0  0  0  0  0  0
  140.0470   71.2887  220.0086 H   0  0  0  0  0  0  0  0  0  0  0  0
  139.4422   68.9342  220.3578 H   0  0  0  0  0  0  0  0  0  0  0  0
  139.1136   68.0917  222.6873 H   0  0  0  0  0  0  0  0  0  0  0  0
  139.0061   68.6860  227.2501 H   0  0  0  0  0  0  0  0  0  0  0  0
  140.7817   68.5711  227.5428 H   0  0  0  0  0  0  0  0  0  0  0  0
  138.8903   70.8496  228.2135 H   0  0  0  0  0  0  0  0  0  0  0  0
  139.9441   69.8633  229.3158 H   0  0  0  0  0  0  0  0  0  0  0  0
  140.7597   72.1921  228.8707 H   0  0  0  0  0  0  0  0  0  0  0  0
  141.9125   70.8512  228.4533 H   0  0  0  0  0  0  0  0  0  0  0  0
  140.1667   72.3984  226.4862 H   0  0  0  0  0  0  0  0  0  0  0  0
  141.9281   72.5961  226.7093 H   0  0  0  0  0  0  0  0  0  0  0  0
  141.4382   71.0739  224.8237 H   0  0  0  0  0  0  0  0  0  0  0  0
  142.2573   70.1935  226.1477 H   0  0  0  0  0  0  0  0  0  0  0  0
  140.0175   72.0307  224.2266 H   0  0  0  0  0  0  0  0  0  0  0  0
  138.3635   76.2655  223.3098 H   0  0  0  0  0  0  0  0  0  0  0  0
  138.8905   78.6807  223.0176 H   0  0  0  0  0  0  0  0  0  0  0  0
  141.5812   80.0490  223.5835 H   0  0  0  0  0  0  0  0  0  0  0  0
  142.2024   82.5303  222.9956 H   0  0  0  0  0  0  0  0  0  0  0  0
  140.5084   79.6803  219.4068 H   0  0  0  0  0  0  0  0  0  0  0  0
  142.2879   77.5231  220.6577 H   0  0  0  0  0  0  0  0  0  0  0  0
  1  2  2  0
  2  3  1  0
  3  4  1  0
  4  5  1  0
  5  6  2  0
  6  7  1  0
  7  8  2  0
  8  9  1  0
  9 10  1  0
 10 11  2  0
 10 12  1  0
 12 13  1  0
 13 14  1  0
 14 15  1  0
 15 16  1  0
 16 17  1  0
  9 18  2  0
  4 19  2  0
 19 20  1  0
 20 21  2  0
 21 22  1  0
 22 23  2  0
 23 24  1  0
 24 25  1  0
 25 26  2  0
 26 27  1  0
 27 28  1  0
 23 29  1  0
 29 30  2  0
 30  2  1  0
 18  5  1  0
 30 20  1  0
 17 12  1  0
 28 24  2  0
  3 31  1  0
  3 32  1  0
  6 33  1  0
  7 34  1  0
  8 35  1  0
 13 36  1  0
 13 37  1  0
 14 38  1  0
 14 39  1  0
 15 40  1  0
 15 41  1  0
 16 42  1  0
 16 43  1  0
 17 44  1  0
 17 45  1  0
 18 46  1  0
 21 47  1  0
 22 48  1  0
 25 49  1  0
 26 50  1  0
 28 51  1  0
 29 52  1  0
M  END
>  <smiles>  (38) 
O=C1CC(c2cccc(C(=O)N3CCCCC3)c2)=Nc2ccc(-c3ccsc3)cc21

>  <score_type>  (38) 
oracle

>  <origin>  (38) 
autodockgpu

>  <m_score__min__energy>  (38) 
-9.6199999999999992

>  <m_primary>  (38) 
energy

>  <rmsd>  (38) 
10.836055110968195

>  <m_score__min__rmsd>  (38) 
10.836055110968195

>  <meeko>  (38) 
{"free_energy": -9.45, "intermolecular_energy": -10.35, "internal_energy": -0.92, "cluster_size": 50, "cluster_id": 1, "rank_in_cluster": 45}

>  <energy>  (38) 
-9.5

>  <cluster_rmsd>  (38) 
0.24

>  <cluster>  (38) 
1

$$$$

     RDKit          3D

 52 56  0  0  0  0  0  0  0  0999 V2000
  142.8830   75.1740  220.2540 O   0  0  0  0  0  0  0  0  0  0  0  0
  141.8670   74.8270  220.9080 C   0  0  0  0  0  0  0  0  0  0  0  0
  141.6040   73.3830  221.0470 C   0  0  0  0  0  0  0  0  0  0  0  0
  140.3690   73.1970  221.8480 C   0  0  0  0  0  0  0  0  0  0  0  0
  139.9700   71.7970  222.1010 C   0  0  0  0  0  0  0  0  0  0  0  0
  139.7100   70.9260  221.0640 C   0  0  0  0  0  0  0  0  0  0  0  0
  139.3510   69.6080  221.2400 C   0  0  0  0  0  0  0  0  0  0  0  0
  139.2400   69.1210  222.5240 C   0  0  0  0  0  0  0  0  0  0  0  0
  139.4920   69.9630  223.5780 C   0  0  0  0  0  0  0  0  0  0  0  0
  139.3650   69.3970  224.9230 C   0  0  0  0  0  0  0  0  0  0  0  0
  138.4670   68.5600  225.2210 O   0  0  0  0  0  0  0  0  0  0  0  0
  140.2550   69.7720  225.9480 N   0  0  0  0  0  0  0  0  0  0  0  0
  140.0680   69.1620  227.2750 C   0  0  0  0  0  0  0  0  0  0  0  0
  139.9720   70.2330  228.3390 C   0  0  0  0  0  0  0  0  0  0  0  0
  141.0380   71.2910  228.1800 C   0  0  0  0  0  0  0  0  0  0  0  0
  141.0900   71.8460  226.7660 C   0  0  0  0  0  0  0  0  0  0  0  0
  141.3380   70.7040  225.8240 C   0  0  0  0  0  0  0  0  0  0  0  0
  139.8580   71.3040  223.3960 C   0  0  0  0  0  0  0  0  0  0  0  0
  139.6600   74.1420  222.3300 N   0  0  0  0  0  0  0  0  0  0  0  0
  139.9240   75.5310  222.1900 C   0  0  0  0  0  0  0  0  0  0  0  0
  139.1640   76.5290  222.7170 C   0  0  0  0  0  0  0  0  0  0  0  0
  139.4620   77.8850  222.5660 C   0  0  0  0  0  0  0  0  0  0  0  0
  140.5830   78.2090  221.8450 C   0  0  0  0  0  0  0  0  0  0  0  0
  140.9820   79.6310  221.6370 C   0  0  0  0  0  0  0  0  0  0  0  0
  141.4630   80.3960  222.5990 C   0  0  0  0  0  0  0  0  0  0  0  0
  141.8220   81.7150  222.3420 C   0  0  0  0  0  0  0  0  0  0  0  0
  141.4310   81.9010  220.5040 S   0  0  0  0  0  0  0  0  0  0  0  0
  140.8370   80.1670  220.3480 C   0  0  0  0  0  0  0  0  0  0  0  0
  141.3640   77.2020  221.3040 C   0  0  0  0  0  0  0  0  0  0  0  0
  141.0450   75.8810  221.4690 C   0  0  0  0  0  0  0  0  0  0  0  0
  141.4703   72.9341  220.0517 H   0  0  0  0  0  0  0  0  0  0  0  0
  142.4524   72.8952  221.5493 H   0  0  0  0  0  0  0  0  0  0  0  0
  139.7943   71.3064  220.0353 H   0  0  0  0  0  0  0  0  0  0  0  0
  139.1570   68.9581  220.3740 H   0  0  0  0  0  0  0  0  0  0  0  0
  138.9539   68.0738  222.7015 H   0  0  0  0  0  0  0  0  0  0  0  0
  139.1419   68.5683  227.2737 H   0  0  0  0  0  0  0  0  0  0  0  0
  140.9307   68.5162  227.4956 H   0  0  0  0  0  0  0  0  0  0  0  0
  138.9842   70.7122  228.2714 H   0  0  0  0  0  0  0  0  0  0  0  0
  140.1168   69.7515  229.3174 H   0  0  0  0  0  0  0  0  0  0  0  0
  140.8255   72.1154  228.8765 H   0  0  0  0  0  0  0  0  0  0  0  0
  142.0108   70.8251  228.3958 H   0  0  0  0  0  0  0  0  0  0  0  0
  140.1334   72.3305  226.5205 H   0  0  0  0  0  0  0  0  0  0  0  0
  141.8937   72.5920  226.6794 H   0  0  0  0  0  0  0  0  0  0  0  0
  141.3893   71.0788  224.7911 H   0  0  0  0  0  0  0  0  0  0  0  0
  142.2906   70.2116  226.0693 H   0  0  0  0  0  0  0  0  0  0  0  0
  140.0529   71.9540  224.2617 H   0  0  0  0  0  0  0  0  0  0  0  0
  138.2678   76.2533  223.2922 H   0  0  0  0  0  0  0  0  0  0  0  0
  138.8225   78.6631  223.0082 H   0  0  0  0  0  0  0  0  0  0  0  0
  141.5810   79.9868  223.6132 H   0  0  0  0  0  0  0  0  0  0  0  0
  142.2316   82.4633  223.0364 H   0  0  0  0  0  0  0  0  0  0  0  0
  140.4545   79.6638  219.4477 H   0  0  0  0  0  0  0  0  0  0  0  0
  142.2621   77.4697  220.7280 H   0  0  0  0  0  0  0  0  0  0  0  0
  1  2  2  0
  2  3  1  0
  3  4  1  0
  4  5  1  0
  5  6  2  0
  6  7  1  0
  7  8  2  0
  8  9  1  0
  9 10  1  0
 10 11  2  0
 10 12  1  0
 12 13  1  0
 13 14  1  0
 14 15  1  0
 15 16  1  0
 16 17  1  0
  9 18  2  0
  4 19  2  0
 19 20  1  0
 20 21  2  0
 21 22  1  0
 22 23  2  0
 23 24  1  0
 24 25  1  0
 25 26  2  0
 26 27  1  0
 27 28  1  0
 23 29  1  0
 29 30  2  0
 30  2  1  0
 18  5  1  0
 30 20  1  0
 17 12  1  0
 28 24  2  0
  3 31  1  0
  3 32  1  0
  6 33  1  0
  7 34  1  0
  8 35  1  0
 13 36  1  0
 13 37  1  0
 14 38  1  0
 14 39  1  0
 15 40  1  0
 15 41  1  0
 16 42  1  0
 16 43  1  0
 17 44  1  0
 17 45  1  0
 18 46  1  0
 21 47  1  0
 22 48  1  0
 25 49  1  0
 26 50  1  0
 28 51  1  0
 29 52  1  0
M  END
>  <smiles>  (39) 
O=C1CC(c2cccc(C(=O)N3CCCCC3)c2)=Nc2ccc(-c3ccsc3)cc21

>  <score_type>  (39) 
oracle

>  <origin>  (39) 
autodockgpu

>  <m_score__min__energy>  (39) 
-9.6199999999999992

>  <m_primary>  (39) 
energy

>  <rmsd>  (39) 
10.857051295954532

>  <m_score__min__rmsd>  (39) 
10.857051295954532

>  <meeko>  (39) 
{"free_energy": -9.54, "intermolecular_energy": -10.43, "internal_energy": -0.88, "cluster_size": 50, "cluster_id": 1, "rank_in_cluster": 25}

>  <energy>  (39) 
-9.5

>  <cluster_rmsd>  (39) 
0.28

>  <cluster>  (39) 
1

$$$$

     RDKit          3D

 52 56  0  0  0  0  0  0  0  0999 V2000
  142.8990   75.1760  220.2730 O   0  0  0  0  0  0  0  0  0  0  0  0
  141.8770   74.8300  220.9180 C   0  0  0  0  0  0  0  0  0  0  0  0
  141.6110   73.3870  221.0550 C   0  0  0  0  0  0  0  0  0  0  0  0
  140.3680   73.2020  221.8450 C   0  0  0  0  0  0  0  0  0  0  0  0
  139.9650   71.8020  222.0930 C   0  0  0  0  0  0  0  0  0  0  0  0
  139.6990   70.9360  221.0540 C   0  0  0  0  0  0  0  0  0  0  0  0
  139.3360   69.6190  221.2270 C   0  0  0  0  0  0  0  0  0  0  0  0
  139.2270   69.1270  222.5090 C   0  0  0  0  0  0  0  0  0  0  0  0
  139.4840   69.9640  223.5650 C   0  0  0  0  0  0  0  0  0  0  0  0
  139.3600   69.3940  224.9080 C   0  0  0  0  0  0  0  0  0  0  0  0
  138.4660   68.5510  225.2030 O   0  0  0  0  0  0  0  0  0  0  0  0
  140.2470   69.7710  225.9360 N   0  0  0  0  0  0  0  0  0  0  0  0
  140.0610   69.1560  227.2600 C   0  0  0  0  0  0  0  0  0  0  0  0
  139.9580   70.2240  228.3270 C   0  0  0  0  0  0  0  0  0  0  0  0
  141.0180   71.2890  228.1730 C   0  0  0  0  0  0  0  0  0  0  0  0
  141.0680   71.8480  226.7600 C   0  0  0  0  0  0  0  0  0  0  0  0
  141.3240   70.7100  225.8150 C   0  0  0  0  0  0  0  0  0  0  0  0
  139.8550   71.3050  223.3870 C   0  0  0  0  0  0  0  0  0  0  0  0
  139.6560   74.1470  222.3200 N   0  0  0  0  0  0  0  0  0  0  0  0
  139.9230   75.5370  222.1830 C   0  0  0  0  0  0  0  0  0  0  0  0
  139.1600   76.5350  222.7040 C   0  0  0  0  0  0  0  0  0  0  0  0
  139.4620   77.8910  222.5560 C   0  0  0  0  0  0  0  0  0  0  0  0
  140.5880   78.2130  221.8450 C   0  0  0  0  0  0  0  0  0  0  0  0
  140.9920   79.6350  221.6420 C   0  0  0  0  0  0  0  0  0  0  0  0
  141.4640   80.4000  222.6080 C   0  0  0  0  0  0  0  0  0  0  0  0
  141.8270   81.7180  222.3540 C   0  0  0  0  0  0  0  0  0  0  0  0
  141.4550   81.9050  220.5130 S   0  0  0  0  0  0  0  0  0  0  0  0
  140.8600   80.1710  220.3510 C   0  0  0  0  0  0  0  0  0  0  0  0
  141.3740   77.2060  221.3100 C   0  0  0  0  0  0  0  0  0  0  0  0
  141.0510   75.8850  221.4730 C   0  0  0  0  0  0  0  0  0  0  0  0
  141.4859   72.9380  220.0586 H   0  0  0  0  0  0  0  0  0  0  0  0
  142.4541   72.8986  221.5655 H   0  0  0  0  0  0  0  0  0  0  0  0
  139.7816   71.3195  220.0263 H   0  0  0  0  0  0  0  0  0  0  0  0
  139.1371   68.9730  220.3592 H   0  0  0  0  0  0  0  0  0  0  0  0
  138.9386   68.0799  222.6831 H   0  0  0  0  0  0  0  0  0  0  0  0
  139.1379   68.5577  227.2555 H   0  0  0  0  0  0  0  0  0  0  0  0
  140.9263   68.5135  227.4801 H   0  0  0  0  0  0  0  0  0  0  0  0
  138.9675   70.6977  228.2595 H   0  0  0  0  0  0  0  0  0  0  0  0
  140.1049   69.7403  229.3040 H   0  0  0  0  0  0  0  0  0  0  0  0
  140.7995   72.1102  228.8715 H   0  0  0  0  0  0  0  0  0  0  0  0
  141.9935   70.8290  228.3894 H   0  0  0  0  0  0  0  0  0  0  0  0
  140.1087   72.3272  226.5148 H   0  0  0  0  0  0  0  0  0  0  0  0
  141.8673   72.5991  226.6762 H   0  0  0  0  0  0  0  0  0  0  0  0
  141.3735   71.0878  224.7831 H   0  0  0  0  0  0  0  0  0  0  0  0
  142.2796   70.2231  226.0594 H   0  0  0  0  0  0  0  0  0  0  0  0
  140.0551   71.9511  224.2545 H   0  0  0  0  0  0  0  0  0  0  0  0
  138.2585   76.2603  223.2713 H   0  0  0  0  0  0  0  0  0  0  0  0
  138.8205   78.6701  222.9935 H   0  0  0  0  0  0  0  0  0  0  0  0
  141.5713   79.9913  223.6236 H   0  0  0  0  0  0  0  0  0  0  0  0
  142.2306   82.4659  223.0524 H   0  0  0  0  0  0  0  0  0  0  0  0
  140.4856   79.6682  219.4471 H   0  0  0  0  0  0  0  0  0  0  0  0
  142.2773   77.4729  220.7418 H   0  0  0  0  0  0  0  0  0  0  0  0
  1  2  2  0
  2  3  1  0
  3  4  1  0
  4  5  1  0
  5  6  2  0
  6  7  1  0
  7  8  2  0
  8  9  1  0
  9 10  1  0
 10 11  2  0
 10 12  1  0
 12 13  1  0
 13 14  1  0
 14 15  1  0
 15 16  1  0
 16 17  1  0
  9 18  2  0
  4 19  2  0
 19 20  1  0
 20 21  2  0
 21 22  1  0
 22 23  2  0
 23 24  1  0
 24 25  1  0
 25 26  2  0
 26 27  1  0
 27 28  1  0
 23 29  1  0
 29 30  2  0
 30  2  1  0
 18  5  1  0
 30 20  1  0
 17 12  1  0
 28 24  2  0
  3 31  1  0
  3 32  1  0
  6 33  1  0
  7 34  1  0
  8 35  1  0
 13 36  1  0
 13 37  1  0
 14 38  1  0
 14 39  1  0
 15 40  1  0
 15 41  1  0
 16 42  1  0
 16 43  1  0
 17 44  1  0
 17 45  1  0
 18 46  1  0
 21 47  1  0
 22 48  1  0
 25 49  1  0
 26 50  1  0
 28 51  1  0
 29 52  1  0
M  END
>  <smiles>  (40) 
O=C1CC(c2cccc(C(=O)N3CCCCC3)c2)=Nc2ccc(-c3ccsc3)cc21

>  <score_type>  (40) 
oracle

>  <origin>  (40) 
autodockgpu

>  <m_score__min__energy>  (40) 
-9.6199999999999992

>  <m_primary>  (40) 
energy

>  <rmsd>  (40) 
10.850410425452713

>  <m_score__min__rmsd>  (40) 
10.850410425452713

>  <meeko>  (40) 
{"free_energy": -9.55, "intermolecular_energy": -10.44, "internal_energy": -0.87, "cluster_size": 50, "cluster_id": 1, "rank_in_cluster": 21}

>  <energy>  (40) 
-9.49

>  <cluster_rmsd>  (40) 
0.45

>  <cluster>  (40) 
1

$$$$

     RDKit          3D

 52 56  0  0  0  0  0  0  0  0999 V2000
  142.9210   75.2090  220.3820 O   0  0  0  0  0  0  0  0  0  0  0  0
  141.8830   74.8600  220.9990 C   0  0  0  0  0  0  0  0  0  0  0  0
  141.6160   73.4160  221.1260 C   0  0  0  0  0  0  0  0  0  0  0  0
  140.3520   73.2280  221.8820 C   0  0  0  0  0  0  0  0  0  0  0  0
  139.9450   71.8270  222.1170 C   0  0  0  0  0  0  0  0  0  0  0  0
  139.6600   70.9760  221.0700 C   0  0  0  0  0  0  0  0  0  0  0  0
  139.2930   69.6590  221.2300 C   0  0  0  0  0  0  0  0  0  0  0  0
  139.1980   69.1500  222.5070 C   0  0  0  0  0  0  0  0  0  0  0  0
  139.4750   69.9720  223.5700 C   0  0  0  0  0  0  0  0  0  0  0  0
  139.3650   69.3840  224.9070 C   0  0  0  0  0  0  0  0  0  0  0  0
  138.4810   68.5310  225.1990 O   0  0  0  0  0  0  0  0  0  0  0  0
  140.2570   69.7570  225.9330 N   0  0  0  0  0  0  0  0  0  0  0  0
  140.0880   69.1240  227.2510 C   0  0  0  0  0  0  0  0  0  0  0  0
  139.9830   70.1780  228.3320 C   0  0  0  0  0  0  0  0  0  0  0  0
  141.0330   71.2530  228.1820 C   0  0  0  0  0  0  0  0  0  0  0  0
  141.0680   71.8300  226.7760 C   0  0  0  0  0  0  0  0  0  0  0  0
  141.3260   70.7050  225.8150 C   0  0  0  0  0  0  0  0  0  0  0  0
  139.8500   71.3130  223.4050 C   0  0  0  0  0  0  0  0  0  0  0  0
  139.6260   74.1710  222.3390 N   0  0  0  0  0  0  0  0  0  0  0  0
  139.8940   75.5610  222.2120 C   0  0  0  0  0  0  0  0  0  0  0  0
  139.1170   76.5570  222.7140 C   0  0  0  0  0  0  0  0  0  0  0  0
  139.4190   77.9140  222.5750 C   0  0  0  0  0  0  0  0  0  0  0  0
  140.5640   78.2390  221.8960 C   0  0  0  0  0  0  0  0  0  0  0  0
  140.9710   79.6620  221.7060 C   0  0  0  0  0  0  0  0  0  0  0  0
  141.4730   80.4080  222.6720 C   0  0  0  0  0  0  0  0  0  0  0  0
  141.8360   81.7280  222.4310 C   0  0  0  0  0  0  0  0  0  0  0  0
  141.4170   81.9480  220.6030 S   0  0  0  0  0  0  0  0  0  0  0  0
  140.8080   80.2200  220.4280 C   0  0  0  0  0  0  0  0  0  0  0  0
  141.3650   77.2340  221.3810 C   0  0  0  0  0  0  0  0  0  0  0  0
  141.0410   75.9130  221.5320 C   0  0  0  0  0  0  0  0  0  0  0  0
  141.5186   72.9686  220.1258 H   0  0  0  0  0  0  0  0  0  0  0  0
  142.4459   72.9278  221.6579 H   0  0  0  0  0  0  0  0  0  0  0  0
  139.7301   71.3731  220.0466 H   0  0  0  0  0  0  0  0  0  0  0  0
  139.0799   69.0257  220.3562 H   0  0  0  0  0  0  0  0  0  0  0  0
  138.9051   68.1025  222.6713 H   0  0  0  0  0  0  0  0  0  0  0  0
  139.1710   68.5165  227.2466 H   0  0  0  0  0  0  0  0  0  0  0  0
  140.9615   68.4877  227.4563 H   0  0  0  0  0  0  0  0  0  0  0  0
  138.9881   70.6440  228.2774 H   0  0  0  0  0  0  0  0  0  0  0  0
  140.1402   69.6844  229.3024 H   0  0  0  0  0  0  0  0  0  0  0  0
  140.8137   72.0638  228.8922 H   0  0  0  0  0  0  0  0  0  0  0  0
  142.0136   70.7975  228.3844 H   0  0  0  0  0  0  0  0  0  0  0  0
  140.1032   72.3045  226.5438 H   0  0  0  0  0  0  0  0  0  0  0  0
  141.8605   72.5886  226.6955 H   0  0  0  0  0  0  0  0  0  0  0  0
  141.3650   71.0954  224.7874 H   0  0  0  0  0  0  0  0  0  0  0  0
  142.2872   70.2225  226.0461 H   0  0  0  0  0  0  0  0  0  0  0  0
  140.0650   71.9463  224.2783 H   0  0  0  0  0  0  0  0  0  0  0  0
  138.2022   76.2800  223.2584 H   0  0  0  0  0  0  0  0  0  0  0  0
  138.7632   78.6912  222.9943 H   0  0  0  0  0  0  0  0  0  0  0  0
  141.6054   79.9813  223.6772 H   0  0  0  0  0  0  0  0  0  0  0  0
  142.2615   82.4620  223.1311 H   0  0  0  0  0  0  0  0  0  0  0  0
  140.4070   79.7343  219.5261 H   0  0  0  0  0  0  0  0  0  0  0  0
  142.2829   77.5035  220.8380 H   0  0  0  0  0  0  0  0  0  0  0  0
  1  2  2  0
  2  3  1  0
  3  4  1  0
  4  5  1  0
  5  6  2  0
  6  7  1  0
  7  8  2  0
  8  9  1  0
  9 10  1  0
 10 11  2  0
 10 12  1  0
 12 13  1  0
 13 14  1  0
 14 15  1  0
 15 16  1  0
 16 17  1  0
  9 18  2  0
  4 19  2  0
 19 20  1  0
 20 21  2  0
 21 22  1  0
 22 23  2  0
 23 24  1  0
 24 25  1  0
 25 26  2  0
 26 27  1  0
 27 28  1  0
 23 29  1  0
 29 30  2  0
 30  2  1  0
 18  5  1  0
 30 20  1  0
 17 12  1  0
 28 24  2  0
  3 31  1  0
  3 32  1  0
  6 33  1  0
  7 34  1  0
  8 35  1  0
 13 36  1  0
 13 37  1  0
 14 38  1  0
 14 39  1  0
 15 40  1  0
 15 41  1  0
 16 42  1  0
 16 43  1  0
 17 44  1  0
 17 45  1  0
 18 46  1  0
 21 47  1  0
 22 48  1  0
 25 49  1  0
 26 50  1  0
 28 51  1  0
 29 52  1  0
M  END
>  <smiles>  (41) 
O=C1CC(c2cccc(C(=O)N3CCCCC3)c2)=Nc2ccc(-c3ccsc3)cc21

>  <score_type>  (41) 
oracle

>  <origin>  (41) 
autodockgpu

>  <m_score__min__energy>  (41) 
-9.6199999999999992

>  <m_primary>  (41) 
energy

>  <rmsd>  (41) 
10.85169764888328

>  <m_score__min__rmsd>  (41) 
10.85169764888328

>  <meeko>  (41) 
{"free_energy": -9.55, "intermolecular_energy": -10.44, "internal_energy": -0.85, "cluster_size": 50, "cluster_id": 1, "rank_in_cluster": 17}

>  <energy>  (41) 
-9.49

>  <cluster_rmsd>  (41) 
0.45

>  <cluster>  (41) 
1

$$$$

     RDKit          3D

 52 56  0  0  0  0  0  0  0  0999 V2000
  142.8840   75.1800  220.3240 O   0  0  0  0  0  0  0  0  0  0  0  0
  141.8560   74.8290  220.9570 C   0  0  0  0  0  0  0  0  0  0  0  0
  141.5940   73.3850  221.0890 C   0  0  0  0  0  0  0  0  0  0  0  0
  140.3430   73.1940  221.8650 C   0  0  0  0  0  0  0  0  0  0  0  0
  139.9430   71.7920  222.1070 C   0  0  0  0  0  0  0  0  0  0  0  0
  139.6680   70.9330  221.0640 C   0  0  0  0  0  0  0  0  0  0  0  0
  139.3070   69.6150  221.2300 C   0  0  0  0  0  0  0  0  0  0  0  0
  139.2100   69.1140  222.5100 C   0  0  0  0  0  0  0  0  0  0  0  0
  139.4770   69.9440  223.5700 C   0  0  0  0  0  0  0  0  0  0  0  0
  139.3640   69.3640  224.9100 C   0  0  0  0  0  0  0  0  0  0  0  0
  138.4780   68.5130  225.2050 O   0  0  0  0  0  0  0  0  0  0  0  0
  140.2550   69.7410  225.9350 N   0  0  0  0  0  0  0  0  0  0  0  0
  140.0820   69.1160  227.2560 C   0  0  0  0  0  0  0  0  0  0  0  0
  139.9780   70.1760  228.3310 C   0  0  0  0  0  0  0  0  0  0  0  0
  141.0300   71.2490  228.1770 C   0  0  0  0  0  0  0  0  0  0  0  0
  141.0680   71.8170  226.7670 C   0  0  0  0  0  0  0  0  0  0  0  0
  141.3250   70.6870  225.8140 C   0  0  0  0  0  0  0  0  0  0  0  0
  139.8450   71.2860  223.3980 C   0  0  0  0  0  0  0  0  0  0  0  0
  139.6220   74.1360  222.3340 N   0  0  0  0  0  0  0  0  0  0  0  0
  139.8860   75.5260  222.2020 C   0  0  0  0  0  0  0  0  0  0  0  0
  139.1130   76.5210  222.7150 C   0  0  0  0  0  0  0  0  0  0  0  0
  139.4110   77.8790  222.5720 C   0  0  0  0  0  0  0  0  0  0  0  0
  140.5440   78.2060  221.8740 C   0  0  0  0  0  0  0  0  0  0  0  0
  140.9440   79.6300  221.6770 C   0  0  0  0  0  0  0  0  0  0  0  0
  141.4400   80.3830  222.6410 C   0  0  0  0  0  0  0  0  0  0  0  0
  141.7980   81.7040  222.3930 C   0  0  0  0  0  0  0  0  0  0  0  0
  141.3840   81.9110  220.5630 S   0  0  0  0  0  0  0  0  0  0  0  0
  140.7840   80.1800  220.3960 C   0  0  0  0  0  0  0  0  0  0  0  0
  141.3390   77.2020  221.3470 C   0  0  0  0  0  0  0  0  0  0  0  0
  141.0200   75.8800  221.5040 C   0  0  0  0  0  0  0  0  0  0  0  0
  141.4816   72.9370  220.0907 H   0  0  0  0  0  0  0  0  0  0  0  0
  142.4333   72.8991  221.6081 H   0  0  0  0  0  0  0  0  0  0  0  0
  139.7414   71.3241  220.0385 H   0  0  0  0  0  0  0  0  0  0  0  0
  139.1004   68.9753  220.3593 H   0  0  0  0  0  0  0  0  0  0  0  0
  138.9232   68.0657  222.6795 H   0  0  0  0  0  0  0  0  0  0  0  0
  139.1633   68.5110  227.2533 H   0  0  0  0  0  0  0  0  0  0  0  0
  140.9535   68.4785  227.4663 H   0  0  0  0  0  0  0  0  0  0  0  0
  138.9839   70.6434  228.2728 H   0  0  0  0  0  0  0  0  0  0  0  0
  140.1338   69.6871  229.3040 H   0  0  0  0  0  0  0  0  0  0  0  0
  140.8102   72.0645  228.8818 H   0  0  0  0  0  0  0  0  0  0  0  0
  142.0097   70.7941  228.3846 H   0  0  0  0  0  0  0  0  0  0  0  0
  140.1043   72.2918  226.5306 H   0  0  0  0  0  0  0  0  0  0  0  0
  141.8622   72.5734  226.6830 H   0  0  0  0  0  0  0  0  0  0  0  0
  141.3662   71.0715  224.7842 H   0  0  0  0  0  0  0  0  0  0  0  0
  142.2848   70.2043  226.0501 H   0  0  0  0  0  0  0  0  0  0  0  0
  140.0522   71.9263  224.2681 H   0  0  0  0  0  0  0  0  0  0  0  0
  138.2060   76.2422  223.2714 H   0  0  0  0  0  0  0  0  0  0  0  0
  138.7614   78.6551  223.0030 H   0  0  0  0  0  0  0  0  0  0  0  0
  141.5713   79.9623  223.6489 H   0  0  0  0  0  0  0  0  0  0  0  0
  142.2180   82.4441  223.0900 H   0  0  0  0  0  0  0  0  0  0  0  0
  140.3890   79.6873  219.4953 H   0  0  0  0  0  0  0  0  0  0  0  0
  142.2477   77.4730  220.7894 H   0  0  0  0  0  0  0  0  0  0  0  0
  1  2  2  0
  2  3  1  0
  3  4  1  0
  4  5  1  0
  5  6  2  0
  6  7  1  0
  7  8  2  0
  8  9  1  0
  9 10  1  0
 10 11  2  0
 10 12  1  0
 12 13  1  0
 13 14  1  0
 14 15  1  0
 15 16  1  0
 16 17  1  0
  9 18  2  0
  4 19  2  0
 19 20  1  0
 20 21  2  0
 21 22  1  0
 22 23  2  0
 23 24  1  0
 24 25  1  0
 25 26  2  0
 26 27  1  0
 27 28  1  0
 23 29  1  0
 29 30  2  0
 30  2  1  0
 18  5  1  0
 30 20  1  0
 17 12  1  0
 28 24  2  0
  3 31  1  0
  3 32  1  0
  6 33  1  0
  7 34  1  0
  8 35  1  0
 13 36  1  0
 13 37  1  0
 14 38  1  0
 14 39  1  0
 15 40  1  0
 15 41  1  0
 16 42  1  0
 16 43  1  0
 17 44  1  0
 17 45  1  0
 18 46  1  0
 21 47  1  0
 22 48  1  0
 25 49  1  0
 26 50  1  0
 28 51  1  0
 29 52  1  0
M  END
>  <smiles>  (42) 
O=C1CC(c2cccc(C(=O)N3CCCCC3)c2)=Nc2ccc(-c3ccsc3)cc21

>  <score_type>  (42) 
oracle

>  <origin>  (42) 
autodockgpu

>  <m_score__min__energy>  (42) 
-9.6199999999999992

>  <m_primary>  (42) 
energy

>  <rmsd>  (42) 
10.868031902508159

>  <m_score__min__rmsd>  (42) 
10.868031902508159

>  <meeko>  (42) 
{"free_energy": -9.55, "intermolecular_energy": -10.44, "internal_energy": -0.87, "cluster_size": 50, "cluster_id": 1, "rank_in_cluster": 15}

>  <energy>  (42) 
-9.47

>  <cluster_rmsd>  (42) 
0.46

>  <cluster>  (42) 
1

$$$$

     RDKit          3D

 52 56  0  0  0  0  0  0  0  0999 V2000
  142.8850   75.1870  220.2210 O   0  0  0  0  0  0  0  0  0  0  0  0
  141.8750   74.8400  220.8830 C   0  0  0  0  0  0  0  0  0  0  0  0
  141.6150   73.3960  221.0290 C   0  0  0  0  0  0  0  0  0  0  0  0
  140.3860   73.2110  221.8400 C   0  0  0  0  0  0  0  0  0  0  0  0
  139.9910   71.8110  222.0990 C   0  0  0  0  0  0  0  0  0  0  0  0
  139.7530   70.9280  221.0670 C   0  0  0  0  0  0  0  0  0  0  0  0
  139.3990   69.6100  221.2500 C   0  0  0  0  0  0  0  0  0  0  0  0
  139.2690   69.1340  222.5370 C   0  0  0  0  0  0  0  0  0  0  0  0
  139.4980   69.9890  223.5860 C   0  0  0  0  0  0  0  0  0  0  0  0
  139.3520   69.4350  224.9340 C   0  0  0  0  0  0  0  0  0  0  0  0
  138.4460   68.6050  225.2280 O   0  0  0  0  0  0  0  0  0  0  0  0
  140.2310   69.8160  225.9680 N   0  0  0  0  0  0  0  0  0  0  0  0
  140.0240   69.2180  227.2970 C   0  0  0  0  0  0  0  0  0  0  0  0
  139.9180   70.2990  228.3500 C   0  0  0  0  0  0  0  0  0  0  0  0
  140.9910   71.3510  228.1960 C   0  0  0  0  0  0  0  0  0  0  0  0
  141.0640   71.8930  226.7770 C   0  0  0  0  0  0  0  0  0  0  0  0
  141.3190   70.7410  225.8490 C   0  0  0  0  0  0  0  0  0  0  0  0
  139.8590   71.3300  223.3970 C   0  0  0  0  0  0  0  0  0  0  0  0
  139.6790   74.1560  222.3240 N   0  0  0  0  0  0  0  0  0  0  0  0
  139.9400   75.5460  222.1780 C   0  0  0  0  0  0  0  0  0  0  0  0
  139.1830   76.5430  222.7070 C   0  0  0  0  0  0  0  0  0  0  0  0
  139.4780   77.9000  222.5500 C   0  0  0  0  0  0  0  0  0  0  0  0
  140.5930   78.2230  221.8200 C   0  0  0  0  0  0  0  0  0  0  0  0
  140.9890   79.6450  221.6050 C   0  0  0  0  0  0  0  0  0  0  0  0
  141.4560   80.4200  222.5660 C   0  0  0  0  0  0  0  0  0  0  0  0
  141.8120   81.7380  222.3020 C   0  0  0  0  0  0  0  0  0  0  0  0
  141.4410   81.9080  220.4590 S   0  0  0  0  0  0  0  0  0  0  0  0
  140.8560   80.1690  220.3100 C   0  0  0  0  0  0  0  0  0  0  0  0
  141.3720   77.2160  221.2760 C   0  0  0  0  0  0  0  0  0  0  0  0
  141.0560   75.8950  221.4470 C   0  0  0  0  0  0  0  0  0  0  0  0
  141.4745   72.9434  220.0363 H   0  0  0  0  0  0  0  0  0  0  0  0
  142.4678   72.9111  221.5267 H   0  0  0  0  0  0  0  0  0  0  0  0
  139.8519   71.2986  220.0360 H   0  0  0  0  0  0  0  0  0  0  0  0
  139.2236   68.9507  220.3871 H   0  0  0  0  0  0  0  0  0  0  0  0
  138.9865   68.0868  222.7203 H   0  0  0  0  0  0  0  0  0  0  0  0
  139.0958   68.6278  227.2885 H   0  0  0  0  0  0  0  0  0  0  0  0
  140.8809   68.5705  227.5348 H   0  0  0  0  0  0  0  0  0  0  0  0
  138.9333   70.7818  228.2645 H   0  0  0  0  0  0  0  0  0  0  0  0
  140.0470   69.8259  229.3346 H   0  0  0  0  0  0  0  0  0  0  0  0
  140.7729   72.1826  228.8822 H   0  0  0  0  0  0  0  0  0  0  0  0
  141.9588   70.8831  228.4292 H   0  0  0  0  0  0  0  0  0  0  0  0
  140.1130   72.3795  226.5145 H   0  0  0  0  0  0  0  0  0  0  0  0
  141.8721   72.6346  226.6940 H   0  0  0  0  0  0  0  0  0  0  0  0
  141.3852   71.1057  224.8133 H   0  0  0  0  0  0  0  0  0  0  0  0
  142.2662   70.2467  226.1109 H   0  0  0  0  0  0  0  0  0  0  0  0
  140.0346   71.9898  224.2595 H   0  0  0  0  0  0  0  0  0  0  0  0
  138.2914   76.2675  223.2893 H   0  0  0  0  0  0  0  0  0  0  0  0
  138.8407   78.6786  222.9946 H   0  0  0  0  0  0  0  0  0  0  0  0
  141.5645   80.0197  223.5848 H   0  0  0  0  0  0  0  0  0  0  0  0
  142.2107   82.4937  222.9949 H   0  0  0  0  0  0  0  0  0  0  0  0
  140.4860   79.6566  219.4097 H   0  0  0  0  0  0  0  0  0  0  0  0
  142.2655   77.4836  220.6929 H   0  0  0  0  0  0  0  0  0  0  0  0
  1  2  2  0
  2  3  1  0
  3  4  1  0
  4  5  1  0
  5  6  2  0
  6  7  1  0
  7  8  2  0
  8  9  1  0
  9 10  1  0
 10 11  2  0
 10 12  1  0
 12 13  1  0
 13 14  1  0
 14 15  1  0
 15 16  1  0
 16 17  1  0
  9 18  2  0
  4 19  2  0
 19 20  1  0
 20 21  2  0
 21 22  1  0
 22 23  2  0
 23 24  1  0
 24 25  1  0
 25 26  2  0
 26 27  1  0
 27 28  1  0
 23 29  1  0
 29 30  2  0
 30  2  1  0
 18  5  1  0
 30 20  1  0
 17 12  1  0
 28 24  2  0
  3 31  1  0
  3 32  1  0
  6 33  1  0
  7 34  1  0
  8 35  1  0
 13 36  1  0
 13 37  1  0
 14 38  1  0
 14 39  1  0
 15 40  1  0
 15 41  1  0
 16 42  1  0
 16 43  1  0
 17 44  1  0
 17 45  1  0
 18 46  1  0
 21 47  1  0
 22 48  1  0
 25 49  1  0
 26 50  1  0
 28 51  1  0
 29 52  1  0
M  END
>  <smiles>  (43) 
O=C1CC(c2cccc(C(=O)N3CCCCC3)c2)=Nc2ccc(-c3ccsc3)cc21

>  <score_type>  (43) 
oracle

>  <origin>  (43) 
autodockgpu

>  <m_score__min__energy>  (43) 
-9.6199999999999992

>  <m_primary>  (43) 
energy

>  <rmsd>  (43) 
10.842749300690171

>  <m_score__min__rmsd>  (43) 
10.842749300690171

>  <meeko>  (43) 
{"free_energy": -9.52, "intermolecular_energy": -10.42, "internal_energy": -0.88, "cluster_size": 50, "cluster_id": 1, "rank_in_cluster": 34}

>  <energy>  (43) 
-9.47

>  <cluster_rmsd>  (43) 
0.46

>  <cluster>  (43) 
1

$$$$

     RDKit          3D

 52 56  0  0  0  0  0  0  0  0999 V2000
  142.8850   75.1860  220.2890 O   0  0  0  0  0  0  0  0  0  0  0  0
  141.8620   74.8370  220.9310 C   0  0  0  0  0  0  0  0  0  0  0  0
  141.5970   73.3930  221.0620 C   0  0  0  0  0  0  0  0  0  0  0  0
  140.3520   73.2040  221.8490 C   0  0  0  0  0  0  0  0  0  0  0  0
  139.9500   71.8030  222.0910 C   0  0  0  0  0  0  0  0  0  0  0  0
  139.6870   70.9400  221.0490 C   0  0  0  0  0  0  0  0  0  0  0  0
  139.3250   69.6220  221.2160 C   0  0  0  0  0  0  0  0  0  0  0  0
  139.2140   69.1250  222.4960 C   0  0  0  0  0  0  0  0  0  0  0  0
  139.4690   69.9600  223.5550 C   0  0  0  0  0  0  0  0  0  0  0  0
  139.3420   69.3840  224.8960 C   0  0  0  0  0  0  0  0  0  0  0  0
  138.4520   68.5350  225.1850 O   0  0  0  0  0  0  0  0  0  0  0  0
  140.2220   69.7640  225.9290 N   0  0  0  0  0  0  0  0  0  0  0  0
  140.0350   69.1440  227.2510 C   0  0  0  0  0  0  0  0  0  0  0  0
  139.9200   70.2080  228.3210 C   0  0  0  0  0  0  0  0  0  0  0  0
  140.9730   71.2800  228.1740 C   0  0  0  0  0  0  0  0  0  0  0  0
  141.0270   71.8440  226.7630 C   0  0  0  0  0  0  0  0  0  0  0  0
  141.2930   70.7100  225.8160 C   0  0  0  0  0  0  0  0  0  0  0  0
  139.8380   71.3010  223.3830 C   0  0  0  0  0  0  0  0  0  0  0  0
  139.6390   74.1470  222.3260 N   0  0  0  0  0  0  0  0  0  0  0  0
  139.9050   75.5370  222.1940 C   0  0  0  0  0  0  0  0  0  0  0  0
  139.1400   76.5330  222.7170 C   0  0  0  0  0  0  0  0  0  0  0  0
  139.4400   77.8900  222.5740 C   0  0  0  0  0  0  0  0  0  0  0  0
  140.5680   78.2150  221.8670 C   0  0  0  0  0  0  0  0  0  0  0  0
  140.9710   79.6380  221.6690 C   0  0  0  0  0  0  0  0  0  0  0  0
  141.4690   80.3910  222.6330 C   0  0  0  0  0  0  0  0  0  0  0  0
  141.8280   81.7120  222.3840 C   0  0  0  0  0  0  0  0  0  0  0  0
  141.4130   81.9190  220.5550 S   0  0  0  0  0  0  0  0  0  0  0  0
  140.8090   80.1890  220.3880 C   0  0  0  0  0  0  0  0  0  0  0  0
  141.3560   77.2110  221.3300 C   0  0  0  0  0  0  0  0  0  0  0  0
  141.0340   75.8890  221.4870 C   0  0  0  0  0  0  0  0  0  0  0  0
  141.4744   72.9476  220.0637 H   0  0  0  0  0  0  0  0  0  0  0  0
  142.4395   72.9034  221.5723 H   0  0  0  0  0  0  0  0  0  0  0  0
  139.7713   71.3272  220.0229 H   0  0  0  0  0  0  0  0  0  0  0  0
  139.1285   68.9792  220.3453 H   0  0  0  0  0  0  0  0  0  0  0  0
  138.9260   68.0771  222.6664 H   0  0  0  0  0  0  0  0  0  0  0  0
  139.1163   68.5392  227.2410 H   0  0  0  0  0  0  0  0  0  0  0  0
  140.9042   68.5073  227.4728 H   0  0  0  0  0  0  0  0  0  0  0  0
  138.9266   70.6751  228.2509 H   0  0  0  0  0  0  0  0  0  0  0  0
  140.0658   69.7226  229.2973 H   0  0  0  0  0  0  0  0  0  0  0  0
  140.7458   72.0978  228.8737 H   0  0  0  0  0  0  0  0  0  0  0  0
  141.9503   70.8250  228.3929 H   0  0  0  0  0  0  0  0  0  0  0  0
  140.0666   72.3193  226.5147 H   0  0  0  0  0  0  0  0  0  0  0  0
  141.8228   72.5994  226.6853 H   0  0  0  0  0  0  0  0  0  0  0  0
  141.3445   71.0912  224.7854 H   0  0  0  0  0  0  0  0  0  0  0  0
  142.2502   70.2279  226.0638 H   0  0  0  0  0  0  0  0  0  0  0  0
  140.0353   71.9442  224.2533 H   0  0  0  0  0  0  0  0  0  0  0  0
  138.2380   76.2554  223.2821 H   0  0  0  0  0  0  0  0  0  0  0  0
  138.7961   78.6670  223.0117 H   0  0  0  0  0  0  0  0  0  0  0  0
  141.6010   79.9704  223.6408 H   0  0  0  0  0  0  0  0  0  0  0  0
  142.2492   82.4520  223.0805 H   0  0  0  0  0  0  0  0  0  0  0  0
  140.4110   79.6976  219.4879 H   0  0  0  0  0  0  0  0  0  0  0  0
  142.2603   77.4810  220.7650 H   0  0  0  0  0  0  0  0  0  0  0  0
  1  2  2  0
  2  3  1  0
  3  4  1  0
  4  5  1  0
  5  6  2  0
  6  7  1  0
  7  8  2  0
  8  9  1  0
  9 10  1  0
 10 11  2  0
 10 12  1  0
 12 13  1  0
 13 14  1  0
 14 15  1  0
 15 16  1  0
 16 17  1  0
  9 18  2  0
  4 19  2  0
 19 20  1  0
 20 21  2  0
 21 22  1  0
 22 23  2  0
 23 24  1  0
 24 25  1  0
 25 26  2  0
 26 27  1  0
 27 28  1  0
 23 29  1  0
 29 30  2  0
 30  2  1  0
 18  5  1  0
 30 20  1  0
 17 12  1  0
 28 24  2  0
  3 31  1  0
  3 32  1  0
  6 33  1  0
  7 34  1  0
  8 35  1  0
 13 36  1  0
 13 37  1  0
 14 38  1  0
 14 39  1  0
 15 40  1  0
 15 41  1  0
 16 42  1  0
 16 43  1  0
 17 44  1  0
 17 45  1  0
 18 46  1  0
 21 47  1  0
 22 48  1  0
 25 49  1  0
 26 50  1  0
 28 51  1  0
 29 52  1  0
M  END
>  <smiles>  (44) 
O=C1CC(c2cccc(C(=O)N3CCCCC3)c2)=Nc2ccc(-c3ccsc3)cc21

>  <score_type>  (44) 
oracle

>  <origin>  (44) 
autodockgpu

>  <m_score__min__energy>  (44) 
-9.6199999999999992

>  <m_primary>  (44) 
energy

>  <rmsd>  (44) 
10.852419106538948

>  <m_score__min__rmsd>  (44) 
10.852419106538948

>  <meeko>  (44) 
{"free_energy": -9.55, "intermolecular_energy": -10.44, "internal_energy": -0.87, "cluster_size": 50, "cluster_id": 1, "rank_in_cluster": 16}

>  <energy>  (44) 
-9.46

>  <cluster_rmsd>  (44) 
0.44

>  <cluster>  (44) 
1

$$$$

     RDKit          3D

 52 56  0  0  0  0  0  0  0  0999 V2000
  142.8980   75.1890  220.3230 O   0  0  0  0  0  0  0  0  0  0  0  0
  141.8700   74.8410  220.9560 C   0  0  0  0  0  0  0  0  0  0  0  0
  141.6030   73.3970  221.0860 C   0  0  0  0  0  0  0  0  0  0  0  0
  140.3520   73.2100  221.8630 C   0  0  0  0  0  0  0  0  0  0  0  0
  139.9470   71.8090  222.1030 C   0  0  0  0  0  0  0  0  0  0  0  0
  139.6810   70.9490  221.0590 C   0  0  0  0  0  0  0  0  0  0  0  0
  139.3160   69.6310  221.2230 C   0  0  0  0  0  0  0  0  0  0  0  0
  139.2050   69.1320  222.5030 C   0  0  0  0  0  0  0  0  0  0  0  0
  139.4620   69.9630  223.5630 C   0  0  0  0  0  0  0  0  0  0  0  0
  139.3350   69.3850  224.9030 C   0  0  0  0  0  0  0  0  0  0  0  0
  138.4390   68.5450  225.1930 O   0  0  0  0  0  0  0  0  0  0  0  0
  140.2240   69.7530  225.9330 N   0  0  0  0  0  0  0  0  0  0  0  0
  140.0370   69.1310  227.2540 C   0  0  0  0  0  0  0  0  0  0  0  0
  139.9380   70.1920  228.3280 C   0  0  0  0  0  0  0  0  0  0  0  0
  141.0020   71.2540  228.1790 C   0  0  0  0  0  0  0  0  0  0  0  0
  141.0550   71.8210  226.7690 C   0  0  0  0  0  0  0  0  0  0  0  0
  141.3050   70.6870  225.8180 C   0  0  0  0  0  0  0  0  0  0  0  0
  139.8350   71.3050  223.3930 C   0  0  0  0  0  0  0  0  0  0  0  0
  139.6350   74.1530  222.3340 N   0  0  0  0  0  0  0  0  0  0  0  0
  139.9030   75.5430  222.2040 C   0  0  0  0  0  0  0  0  0  0  0  0
  139.1350   76.5390  222.7210 C   0  0  0  0  0  0  0  0  0  0  0  0
  139.4380   77.8960  222.5790 C   0  0  0  0  0  0  0  0  0  0  0  0
  140.5720   78.2210  221.8810 C   0  0  0  0  0  0  0  0  0  0  0  0
  140.9770   79.6430  221.6860 C   0  0  0  0  0  0  0  0  0  0  0  0
  141.4530   80.4010  222.6570 C   0  0  0  0  0  0  0  0  0  0  0  0
  141.8160   81.7200  222.4100 C   0  0  0  0  0  0  0  0  0  0  0  0
  141.4410   81.9190  220.5710 S   0  0  0  0  0  0  0  0  0  0  0  0
  140.8430   80.1880  220.3990 C   0  0  0  0  0  0  0  0  0  0  0  0
  141.3620   77.2150  221.3510 C   0  0  0  0  0  0  0  0  0  0  0  0
  141.0380   75.8940  221.5060 C   0  0  0  0  0  0  0  0  0  0  0  0
  141.4880   72.9509  220.0871 H   0  0  0  0  0  0  0  0  0  0  0  0
  142.4411   72.9070  221.6032 H   0  0  0  0  0  0  0  0  0  0  0  0
  139.7653   71.3386  220.0338 H   0  0  0  0  0  0  0  0  0  0  0  0
  139.1173   68.9904  220.3511 H   0  0  0  0  0  0  0  0  0  0  0  0
  138.9150   68.0844  222.6714 H   0  0  0  0  0  0  0  0  0  0  0  0
  139.1121   68.5356  227.2465 H   0  0  0  0  0  0  0  0  0  0  0  0
  140.9009   68.4851  227.4695 H   0  0  0  0  0  0  0  0  0  0  0  0
  138.9491   70.6696  228.2644 H   0  0  0  0  0  0  0  0  0  0  0  0
  140.0833   69.7019  229.3020 H   0  0  0  0  0  0  0  0  0  0  0  0
  140.7865   72.0723  228.8819 H   0  0  0  0  0  0  0  0  0  0  0  0
  141.9756   70.7885  228.3923 H   0  0  0  0  0  0  0  0  0  0  0  0
  140.0983   72.3066  226.5265 H   0  0  0  0  0  0  0  0  0  0  0  0
  141.8581   72.5684  226.6894 H   0  0  0  0  0  0  0  0  0  0  0  0
  141.3567   71.0703  224.7882 H   0  0  0  0  0  0  0  0  0  0  0  0
  142.2579   70.1937  226.0604 H   0  0  0  0  0  0  0  0  0  0  0  0
  140.0349   71.9458  224.2644 H   0  0  0  0  0  0  0  0  0  0  0  0
  138.2287   76.2625  223.2797 H   0  0  0  0  0  0  0  0  0  0  0  0
  138.7910   78.6737  223.0110 H   0  0  0  0  0  0  0  0  0  0  0  0
  141.5632   79.9853  223.6695 H   0  0  0  0  0  0  0  0  0  0  0  0
  142.2213   82.4634  223.1122 H   0  0  0  0  0  0  0  0  0  0  0  0
  140.4657   79.6919  219.4926 H   0  0  0  0  0  0  0  0  0  0  0  0
  142.2709   77.4834  220.7925 H   0  0  0  0  0  0  0  0  0  0  0  0
  1  2  2  0
  2  3  1  0
  3  4  1  0
  4  5  1  0
  5  6  2  0
  6  7  1  0
  7  8  2  0
  8  9  1  0
  9 10  1  0
 10 11  2  0
 10 12  1  0
 12 13  1  0
 13 14  1  0
 14 15  1  0
 15 16  1  0
 16 17  1  0
  9 18  2  0
  4 19  2  0
 19 20  1  0
 20 21  2  0
 21 22  1  0
 22 23  2  0
 23 24  1  0
 24 25  1  0
 25 26  2  0
 26 27  1  0
 27 28  1  0
 23 29  1  0
 29 30  2  0
 30  2  1  0
 18  5  1  0
 30 20  1  0
 17 12  1  0
 28 24  2  0
  3 31  1  0
  3 32  1  0
  6 33  1  0
  7 34  1  0
  8 35  1  0
 13 36  1  0
 13 37  1  0
 14 38  1  0
 14 39  1  0
 15 40  1  0
 15 41  1  0
 16 42  1  0
 16 43  1  0
 17 44  1  0
 17 45  1  0
 18 46  1  0
 21 47  1  0
 22 48  1  0
 25 49  1  0
 26 50  1  0
 28 51  1  0
 29 52  1  0
M  END
>  <smiles>  (45) 
O=C1CC(c2cccc(C(=O)N3CCCCC3)c2)=Nc2ccc(-c3ccsc3)cc21

>  <score_type>  (45) 
oracle

>  <origin>  (45) 
autodockgpu

>  <m_score__min__energy>  (45) 
-9.6199999999999992

>  <m_primary>  (45) 
energy

>  <rmsd>  (45) 
10.858670008122903

>  <m_score__min__rmsd>  (45) 
10.858670008122903

>  <meeko>  (45) 
{"free_energy": -9.55, "intermolecular_energy": -10.44, "internal_energy": -0.87, "cluster_size": 50, "cluster_id": 1, "rank_in_cluster": 18}

>  <energy>  (45) 
-9.45

>  <cluster_rmsd>  (45) 
0.32

>  <cluster>  (45) 
1

$$$$

     RDKit          3D

 52 56  0  0  0  0  0  0  0  0999 V2000
  142.8880   75.1800  220.2740 O   0  0  0  0  0  0  0  0  0  0  0  0
  141.8680   74.8310  220.9210 C   0  0  0  0  0  0  0  0  0  0  0  0
  141.6040   73.3870  221.0530 C   0  0  0  0  0  0  0  0  0  0  0  0
  140.3630   73.1980  221.8460 C   0  0  0  0  0  0  0  0  0  0  0  0
  139.9620   71.7960  222.0900 C   0  0  0  0  0  0  0  0  0  0  0  0
  139.7000   70.9320  221.0490 C   0  0  0  0  0  0  0  0  0  0  0  0
  139.3390   69.6140  221.2170 C   0  0  0  0  0  0  0  0  0  0  0  0
  139.2280   69.1190  222.4990 C   0  0  0  0  0  0  0  0  0  0  0  0
  139.4820   69.9550  223.5570 C   0  0  0  0  0  0  0  0  0  0  0  0
  139.3560   69.3810  224.8980 C   0  0  0  0  0  0  0  0  0  0  0  0
  138.4640   68.5350  225.1890 O   0  0  0  0  0  0  0  0  0  0  0  0
  140.2400   69.7590  225.9290 N   0  0  0  0  0  0  0  0  0  0  0  0
  140.0530   69.1400  227.2520 C   0  0  0  0  0  0  0  0  0  0  0  0
  139.9440   70.2050  228.3210 C   0  0  0  0  0  0  0  0  0  0  0  0
  141.0020   71.2730  228.1710 C   0  0  0  0  0  0  0  0  0  0  0  0
  141.0540   71.8360  226.7590 C   0  0  0  0  0  0  0  0  0  0  0  0
  141.3150   70.7000  225.8130 C   0  0  0  0  0  0  0  0  0  0  0  0
  139.8500   71.2970  223.3820 C   0  0  0  0  0  0  0  0  0  0  0  0
  139.6510   74.1410  222.3260 N   0  0  0  0  0  0  0  0  0  0  0  0
  139.9170   75.5310  222.1930 C   0  0  0  0  0  0  0  0  0  0  0  0
  139.1550   76.5260  222.7200 C   0  0  0  0  0  0  0  0  0  0  0  0
  139.4540   77.8840  222.5750 C   0  0  0  0  0  0  0  0  0  0  0  0
  140.5790   78.2090  221.8630 C   0  0  0  0  0  0  0  0  0  0  0  0
  140.9800   79.6320  221.6630 C   0  0  0  0  0  0  0  0  0  0  0  0
  141.4750   80.3880  222.6260 C   0  0  0  0  0  0  0  0  0  0  0  0
  141.8340   81.7080  222.3760 C   0  0  0  0  0  0  0  0  0  0  0  0
  141.4230   81.9110  220.5450 S   0  0  0  0  0  0  0  0  0  0  0  0
  140.8220   80.1790  220.3800 C   0  0  0  0  0  0  0  0  0  0  0  0
  141.3640   77.2050  221.3220 C   0  0  0  0  0  0  0  0  0  0  0  0
  141.0430   75.8830  221.4810 C   0  0  0  0  0  0  0  0  0  0  0  0
  141.4766   72.9417  220.0552 H   0  0  0  0  0  0  0  0  0  0  0  0
  142.4491   72.8973  221.5590 H   0  0  0  0  0  0  0  0  0  0  0  0
  139.7843   71.3183  220.0225 H   0  0  0  0  0  0  0  0  0  0  0  0
  139.1434   68.9698  220.3471 H   0  0  0  0  0  0  0  0  0  0  0  0
  138.9406   68.0712  222.6708 H   0  0  0  0  0  0  0  0  0  0  0  0
  139.1320   68.5386  227.2440 H   0  0  0  0  0  0  0  0  0  0  0  0
  140.9200   68.4999  227.4726 H   0  0  0  0  0  0  0  0  0  0  0  0
  138.9524   70.6762  228.2521 H   0  0  0  0  0  0  0  0  0  0  0  0
  140.0892   69.7200  229.2976 H   0  0  0  0  0  0  0  0  0  0  0  0
  140.7803   72.0921  228.8710 H   0  0  0  0  0  0  0  0  0  0  0  0
  141.9780   70.8143  228.3878 H   0  0  0  0  0  0  0  0  0  0  0  0
  140.0942   72.3134  226.5124 H   0  0  0  0  0  0  0  0  0  0  0  0
  141.8512   72.5896  226.6785 H   0  0  0  0  0  0  0  0  0  0  0  0
  141.3669   71.0796  224.7819 H   0  0  0  0  0  0  0  0  0  0  0  0
  142.2707   70.2145  226.0597 H   0  0  0  0  0  0  0  0  0  0  0  0
  140.0462   71.9422  224.2510 H   0  0  0  0  0  0  0  0  0  0  0  0
  138.2563   76.2481  223.2902 H   0  0  0  0  0  0  0  0  0  0  0  0
  138.8116   78.6610  223.0150 H   0  0  0  0  0  0  0  0  0  0  0  0
  141.6045   79.9698  223.6351 H   0  0  0  0  0  0  0  0  0  0  0  0
  142.2532   82.4494  223.0721 H   0  0  0  0  0  0  0  0  0  0  0  0
  140.4282   79.6846  219.4798 H   0  0  0  0  0  0  0  0  0  0  0  0
  142.2652   77.4750  220.7520 H   0  0  0  0  0  0  0  0  0  0  0  0
  1  2  2  0
  2  3  1  0
  3  4  1  0
  4  5  1  0
  5  6  2  0
  6  7  1  0
  7  8  2  0
  8  9  1  0
  9 10  1  0
 10 11  2  0
 10 12  1  0
 12 13  1  0
 13 14  1  0
 14 15  1  0
 15 16  1  0
 16 17  1  0
  9 18  2  0
  4 19  2  0
 19 20  1  0
 20 21  2  0
 21 22  1  0
 22 23  2  0
 23 24  1  0
 24 25  1  0
 25 26  2  0
 26 27  1  0
 27 28  1  0
 23 29  1  0
 29 30  2  0
 30  2  1  0
 18  5  1  0
 30 20  1  0
 17 12  1  0
 28 24  2  0
  3 31  1  0
  3 32  1  0
  6 33  1  0
  7 34  1  0
  8 35  1  0
 13 36  1  0
 13 37  1  0
 14 38  1  0
 14 39  1  0
 15 40  1  0
 15 41  1  0
 16 42  1  0
 16 43  1  0
 17 44  1  0
 17 45  1  0
 18 46  1  0
 21 47  1  0
 22 48  1  0
 25 49  1  0
 26 50  1  0
 28 51  1  0
 29 52  1  0
M  END
>  <smiles>  (46) 
O=C1CC(c2cccc(C(=O)N3CCCCC3)c2)=Nc2ccc(-c3ccsc3)cc21

>  <score_type>  (46) 
oracle

>  <origin>  (46) 
autodockgpu

>  <m_score__min__energy>  (46) 
-9.6199999999999992

>  <m_primary>  (46) 
energy

>  <rmsd>  (46) 
10.856300959302926

>  <m_score__min__rmsd>  (46) 
10.856300959302926

>  <meeko>  (46) 
{"free_energy": -9.55, "intermolecular_energy": -10.44, "internal_energy": -0.87, "cluster_size": 50, "cluster_id": 1, "rank_in_cluster": 20}

>  <energy>  (46) 
-9.45

>  <cluster_rmsd>  (46) 
0.48

>  <cluster>  (46) 
1

$$$$

     RDKit          3D

 52 56  0  0  0  0  0  0  0  0999 V2000
  142.9080   75.1800  220.3360 O   0  0  0  0  0  0  0  0  0  0  0  0
  141.8770   74.8330  220.9660 C   0  0  0  0  0  0  0  0  0  0  0  0
  141.6090   73.3890  221.0960 C   0  0  0  0  0  0  0  0  0  0  0  0
  140.3550   73.2030  221.8690 C   0  0  0  0  0  0  0  0  0  0  0  0
  139.9490   71.8030  222.1090 C   0  0  0  0  0  0  0  0  0  0  0  0
  139.6690   70.9470  221.0650 C   0  0  0  0  0  0  0  0  0  0  0  0
  139.3030   69.6300  221.2300 C   0  0  0  0  0  0  0  0  0  0  0  0
  139.2040   69.1270  222.5090 C   0  0  0  0  0  0  0  0  0  0  0  0
  139.4750   69.9550  223.5690 C   0  0  0  0  0  0  0  0  0  0  0  0
  139.3600   69.3730  224.9090 C   0  0  0  0  0  0  0  0  0  0  0  0
  138.4750   68.5210  225.2010 O   0  0  0  0  0  0  0  0  0  0  0  0
  140.2490   69.7500  225.9350 N   0  0  0  0  0  0  0  0  0  0  0  0
  140.0740   69.1240  227.2560 C   0  0  0  0  0  0  0  0  0  0  0  0
  139.9670   70.1820  228.3320 C   0  0  0  0  0  0  0  0  0  0  0  0
  141.0180   71.2560  228.1800 C   0  0  0  0  0  0  0  0  0  0  0  0
  141.0580   71.8270  226.7710 C   0  0  0  0  0  0  0  0  0  0  0  0
  141.3180   70.6970  225.8170 C   0  0  0  0  0  0  0  0  0  0  0  0
  139.8490   71.2950  223.3990 C   0  0  0  0  0  0  0  0  0  0  0  0
  139.6370   74.1480  222.3360 N   0  0  0  0  0  0  0  0  0  0  0  0
  139.9060   75.5370  222.2050 C   0  0  0  0  0  0  0  0  0  0  0  0
  139.1360   76.5340  222.7170 C   0  0  0  0  0  0  0  0  0  0  0  0
  139.4390   77.8910  222.5750 C   0  0  0  0  0  0  0  0  0  0  0  0
  140.5760   78.2140  221.8810 C   0  0  0  0  0  0  0  0  0  0  0  0
  140.9820   79.6360  221.6850 C   0  0  0  0  0  0  0  0  0  0  0  0
  141.4710   80.3900  222.6530 C   0  0  0  0  0  0  0  0  0  0  0  0
  141.8350   81.7090  222.4060 C   0  0  0  0  0  0  0  0  0  0  0  0
  141.4380   81.9150  220.5730 S   0  0  0  0  0  0  0  0  0  0  0  0
  140.8340   80.1850  220.4020 C   0  0  0  0  0  0  0  0  0  0  0  0
  141.3680   77.2080  221.3550 C   0  0  0  0  0  0  0  0  0  0  0  0
  141.0440   75.8870  221.5110 C   0  0  0  0  0  0  0  0  0  0  0  0
  141.4972   72.9423  220.0970 H   0  0  0  0  0  0  0  0  0  0  0  0
  142.4451   72.8989  221.6164 H   0  0  0  0  0  0  0  0  0  0  0  0
  139.7424   71.3394  220.0400 H   0  0  0  0  0  0  0  0  0  0  0  0
  139.0938   68.9923  220.3585 H   0  0  0  0  0  0  0  0  0  0  0  0
  138.9127   68.0797  222.6773 H   0  0  0  0  0  0  0  0  0  0  0  0
  139.1559   68.5182  227.2510 H   0  0  0  0  0  0  0  0  0  0  0  0
  140.9461   68.4878  227.4672 H   0  0  0  0  0  0  0  0  0  0  0  0
  138.9724   70.6483  228.2732 H   0  0  0  0  0  0  0  0  0  0  0  0
  140.1216   69.6923  229.3048 H   0  0  0  0  0  0  0  0  0  0  0  0
  140.7968   72.0702  228.8858 H   0  0  0  0  0  0  0  0  0  0  0  0
  141.9977   70.8008  228.3872 H   0  0  0  0  0  0  0  0  0  0  0  0
  140.0944   72.3013  226.5334 H   0  0  0  0  0  0  0  0  0  0  0  0
  141.8511   72.5849  226.6893 H   0  0  0  0  0  0  0  0  0  0  0  0
  141.3609   71.0824  224.7876 H   0  0  0  0  0  0  0  0  0  0  0  0
  142.2777   70.2150  226.0549 H   0  0  0  0  0  0  0  0  0  0  0  0
  140.0595   71.9328  224.2702 H   0  0  0  0  0  0  0  0  0  0  0  0
  138.2272   76.2581  223.2719 H   0  0  0  0  0  0  0  0  0  0  0  0
  138.7904   78.6693  223.0034 H   0  0  0  0  0  0  0  0  0  0  0  0
  141.5912   79.9710  223.6629 H   0  0  0  0  0  0  0  0  0  0  0  0
  142.2512   82.4488  223.1056 H   0  0  0  0  0  0  0  0  0  0  0  0
  140.4450   79.6927  219.4985 H   0  0  0  0  0  0  0  0  0  0  0  0
  142.2785   77.4760  220.7990 H   0  0  0  0  0  0  0  0  0  0  0  0
  1  2  2  0
  2  3  1  0
  3  4  1  0
  4  5  1  0
  5  6  2  0
  6  7  1  0
  7  8  2  0
  8  9  1  0
  9 10  1  0
 10 11  2  0
 10 12  1  0
 12 13  1  0
 13 14  1  0
 14 15  1  0
 15 16  1  0
 16 17  1  0
  9 18  2  0
  4 19  2  0
 19 20  1  0
 20 21  2  0
 21 22  1  0
 22 23  2  0
 23 24  1  0
 24 25  1  0
 25 26  2  0
 26 27  1  0
 27 28  1  0
 23 29  1  0
 29 30  2  0
 30  2  1  0
 18  5  1  0
 30 20  1  0
 17 12  1  0
 28 24  2  0
  3 31  1  0
  3 32  1  0
  6 33  1  0
  7 34  1  0
  8 35  1  0
 13 36  1  0
 13 37  1  0
 14 38  1  0
 14 39  1  0
 15 40  1  0
 15 41  1  0
 16 42  1  0
 16 43  1  0
 17 44  1  0
 17 45  1  0
 18 46  1  0
 21 47  1  0
 22 48  1  0
 25 49  1  0
 26 50  1  0
 28 51  1  0
 29 52  1  0
M  END
>  <smiles>  (47) 
O=C1CC(c2cccc(C(=O)N3CCCCC3)c2)=Nc2ccc(-c3ccsc3)cc21

>  <score_type>  (47) 
oracle

>  <origin>  (47) 
autodockgpu

>  <m_score__min__energy>  (47) 
-9.6199999999999992

>  <m_primary>  (47) 
energy

>  <rmsd>  (47) 
10.861329220039492

>  <m_score__min__rmsd>  (47) 
10.861329220039492

>  <meeko>  (47) 
{"free_energy": -9.56, "intermolecular_energy": -10.45, "internal_energy": -0.85, "cluster_size": 50, "cluster_id": 1, "rank_in_cluster": 10}

>  <energy>  (47) 
-9.45

>  <cluster_rmsd>  (47) 
0.24

>  <cluster>  (47) 
1

$$$$

     RDKit          3D

 52 56  0  0  0  0  0  0  0  0999 V2000
  142.8740   75.1670  220.2740 O   0  0  0  0  0  0  0  0  0  0  0  0
  141.8550   74.8220  220.9240 C   0  0  0  0  0  0  0  0  0  0  0  0
  141.5880   73.3780  221.0620 C   0  0  0  0  0  0  0  0  0  0  0  0
  140.3480   73.1950  221.8580 C   0  0  0  0  0  0  0  0  0  0  0  0
  139.9450   71.7950  222.1080 C   0  0  0  0  0  0  0  0  0  0  0  0
  139.6770   70.9280  221.0700 C   0  0  0  0  0  0  0  0  0  0  0  0
  139.3140   69.6110  221.2440 C   0  0  0  0  0  0  0  0  0  0  0  0
  139.2070   69.1200  222.5270 C   0  0  0  0  0  0  0  0  0  0  0  0
  139.4670   69.9590  223.5820 C   0  0  0  0  0  0  0  0  0  0  0  0
  139.3450   69.3890  224.9260 C   0  0  0  0  0  0  0  0  0  0  0  0
  138.4510   68.5470  225.2230 O   0  0  0  0  0  0  0  0  0  0  0  0
  140.2340   69.7670  225.9520 N   0  0  0  0  0  0  0  0  0  0  0  0
  140.0510   69.1530  227.2770 C   0  0  0  0  0  0  0  0  0  0  0  0
  139.9490   70.2210  228.3440 C   0  0  0  0  0  0  0  0  0  0  0  0
  141.0090   71.2860  228.1860 C   0  0  0  0  0  0  0  0  0  0  0  0
  141.0580   71.8440  226.7730 C   0  0  0  0  0  0  0  0  0  0  0  0
  141.3110   70.7050  225.8290 C   0  0  0  0  0  0  0  0  0  0  0  0
  139.8380   71.2990  223.4020 C   0  0  0  0  0  0  0  0  0  0  0  0
  139.6400   74.1400  222.3370 N   0  0  0  0  0  0  0  0  0  0  0  0
  139.9070   75.5300  222.1990 C   0  0  0  0  0  0  0  0  0  0  0  0
  139.1480   76.5280  222.7240 C   0  0  0  0  0  0  0  0  0  0  0  0
  139.4500   77.8840  222.5740 C   0  0  0  0  0  0  0  0  0  0  0  0
  140.5740   78.2060  221.8580 C   0  0  0  0  0  0  0  0  0  0  0  0
  140.9770   79.6270  221.6520 C   0  0  0  0  0  0  0  0  0  0  0  0
  141.4810   80.3830  222.6100 C   0  0  0  0  0  0  0  0  0  0  0  0
  141.8420   81.7020  222.3550 C   0  0  0  0  0  0  0  0  0  0  0  0
  141.4170   81.9030  220.5270 S   0  0  0  0  0  0  0  0  0  0  0  0
  140.8100   80.1730  220.3700 C   0  0  0  0  0  0  0  0  0  0  0  0
  141.3550   77.1980  221.3190 C   0  0  0  0  0  0  0  0  0  0  0  0
  141.0320   75.8770  221.4830 C   0  0  0  0  0  0  0  0  0  0  0  0
  141.4578   72.9292  220.0662 H   0  0  0  0  0  0  0  0  0  0  0  0
  142.4329   72.8882  221.5681 H   0  0  0  0  0  0  0  0  0  0  0  0
  139.7579   71.3109  220.0420 H   0  0  0  0  0  0  0  0  0  0  0  0
  139.1136   68.9645  220.3769 H   0  0  0  0  0  0  0  0  0  0  0  0
  138.9181   68.0733  222.7029 H   0  0  0  0  0  0  0  0  0  0  0  0
  139.1284   68.5539  227.2745 H   0  0  0  0  0  0  0  0  0  0  0  0
  140.9176   68.5118  227.4958 H   0  0  0  0  0  0  0  0  0  0  0  0
  138.9582   70.6943  228.2784 H   0  0  0  0  0  0  0  0  0  0  0  0
  140.0971   69.7384  229.3213 H   0  0  0  0  0  0  0  0  0  0  0  0
  140.7917   72.1080  228.8839 H   0  0  0  0  0  0  0  0  0  0  0  0
  141.9845   70.8252  228.4005 H   0  0  0  0  0  0  0  0  0  0  0  0
  140.0991   72.3245  226.5287 H   0  0  0  0  0  0  0  0  0  0  0  0
  141.8582   72.5940  226.6876 H   0  0  0  0  0  0  0  0  0  0  0  0
  141.3592   71.0819  224.7967 H   0  0  0  0  0  0  0  0  0  0  0  0
  142.2664   70.2173  226.0729 H   0  0  0  0  0  0  0  0  0  0  0  0
  140.0406   71.9456  224.2685 H   0  0  0  0  0  0  0  0  0  0  0  0
  138.2496   76.2540  223.2965 H   0  0  0  0  0  0  0  0  0  0  0  0
  138.8103   78.6634  223.0136 H   0  0  0  0  0  0  0  0  0  0  0  0
  141.6167   79.9661  223.6188 H   0  0  0  0  0  0  0  0  0  0  0  0
  142.2689   82.4433  223.0465 H   0  0  0  0  0  0  0  0  0  0  0  0
  140.4072   79.6785  219.4738 H   0  0  0  0  0  0  0  0  0  0  0  0
  142.2555   77.4640  220.7459 H   0  0  0  0  0  0  0  0  0  0  0  0
  1  2  2  0
  2  3  1  0
  3  4  1  0
  4  5  1  0
  5  6  2  0
  6  7  1  0
  7  8  2  0
  8  9  1  0
  9 10  1  0
 10 11  2  0
 10 12  1  0
 12 13  1  0
 13 14  1  0
 14 15  1  0
 15 16  1  0
 16 17  1  0
  9 18  2  0
  4 19  2  0
 19 20  1  0
 20 21  2  0
 21 22  1  0
 22 23  2  0
 23 24  1  0
 24 25  1  0
 25 26  2  0
 26 27  1  0
 27 28  1  0
 23 29  1  0
 29 30  2  0
 30  2  1  0
 18  5  1  0
 30 20  1  0
 17 12  1  0
 28 24  2  0
  3 31  1  0
  3 32  1  0
  6 33  1  0
  7 34  1  0
  8 35  1  0
 13 36  1  0
 13 37  1  0
 14 38  1  0
 14 39  1  0
 15 40  1  0
 15 41  1  0
 16 42  1  0
 16 43  1  0
 17 44  1  0
 17 45  1  0
 18 46  1  0
 21 47  1  0
 22 48  1  0
 25 49  1  0
 26 50  1  0
 28 51  1  0
 29 52  1  0
M  END
>  <smiles>  (48) 
O=C1CC(c2cccc(C(=O)N3CCCCC3)c2)=Nc2ccc(-c3ccsc3)cc21

>  <score_type>  (48) 
oracle

>  <origin>  (48) 
autodockgpu

>  <m_score__min__energy>  (48) 
-9.6199999999999992

>  <m_primary>  (48) 
energy

>  <rmsd>  (48) 
10.86118943185838

>  <m_score__min__rmsd>  (48) 
10.86118943185838

>  <meeko>  (48) 
{"free_energy": -9.55, "intermolecular_energy": -10.44, "internal_energy": -0.87, "cluster_size": 50, "cluster_id": 1, "rank_in_cluster": 19}

>  <energy>  (48) 
-9.2

>  <cluster_rmsd>  (48) 
0.59

>  <cluster>  (48) 
1

$$$$

     RDKit          3D

 52 56  0  0  0  0  0  0  0  0999 V2000
  142.8870   75.1860  220.2680 O   0  0  0  0  0  0  0  0  0  0  0  0
  141.8660   74.8380  220.9130 C   0  0  0  0  0  0  0  0  0  0  0  0
  141.6000   73.3940  221.0470 C   0  0  0  0  0  0  0  0  0  0  0  0
  140.3580   73.2070  221.8370 C   0  0  0  0  0  0  0  0  0  0  0  0
  139.9550   71.8060  222.0820 C   0  0  0  0  0  0  0  0  0  0  0  0
  139.6940   70.9410  221.0410 C   0  0  0  0  0  0  0  0  0  0  0  0
  139.3320   69.6230  221.2110 C   0  0  0  0  0  0  0  0  0  0  0  0
  139.2190   69.1300  222.4930 C   0  0  0  0  0  0  0  0  0  0  0  0
  139.4710   69.9670  223.5500 C   0  0  0  0  0  0  0  0  0  0  0  0
  139.3420   69.3950  224.8920 C   0  0  0  0  0  0  0  0  0  0  0  0
  138.4470   68.5530  225.1840 O   0  0  0  0  0  0  0  0  0  0  0  0
  140.2270   69.7700  225.9230 N   0  0  0  0  0  0  0  0  0  0  0  0
  140.0370   69.1540  227.2460 C   0  0  0  0  0  0  0  0  0  0  0  0
  139.9310   70.2200  228.3150 C   0  0  0  0  0  0  0  0  0  0  0  0
  140.9930   71.2840  228.1640 C   0  0  0  0  0  0  0  0  0  0  0  0
  141.0480   71.8450  226.7520 C   0  0  0  0  0  0  0  0  0  0  0  0
  141.3050   70.7070  225.8070 C   0  0  0  0  0  0  0  0  0  0  0  0
  139.8410   71.3080  223.3750 C   0  0  0  0  0  0  0  0  0  0  0  0
  139.6460   74.1510  222.3150 N   0  0  0  0  0  0  0  0  0  0  0  0
  139.9120   75.5410  222.1810 C   0  0  0  0  0  0  0  0  0  0  0  0
  139.1500   76.5380  222.7050 C   0  0  0  0  0  0  0  0  0  0  0  0
  139.4510   77.8940  222.5590 C   0  0  0  0  0  0  0  0  0  0  0  0
  140.5770   78.2180  221.8480 C   0  0  0  0  0  0  0  0  0  0  0  0
  140.9800   79.6410  221.6480 C   0  0  0  0  0  0  0  0  0  0  0  0
  141.4690   80.3980  222.6120 C   0  0  0  0  0  0  0  0  0  0  0  0
  141.8300   81.7180  222.3610 C   0  0  0  0  0  0  0  0  0  0  0  0
  141.4290   81.9170  220.5270 S   0  0  0  0  0  0  0  0  0  0  0  0
  140.8280   80.1850  220.3630 C   0  0  0  0  0  0  0  0  0  0  0  0
  141.3620   77.2130  221.3110 C   0  0  0  0  0  0  0  0  0  0  0  0
  141.0400   75.8910  221.4700 C   0  0  0  0  0  0  0  0  0  0  0  0
  141.4744   72.9473  220.0497 H   0  0  0  0  0  0  0  0  0  0  0  0
  142.4435   72.9046  221.5559 H   0  0  0  0  0  0  0  0  0  0  0  0
  139.7799   71.3260  220.0141 H   0  0  0  0  0  0  0  0  0  0  0  0
  139.1372   68.9775  220.3419 H   0  0  0  0  0  0  0  0  0  0  0  0
  138.9314   68.0824  222.6657 H   0  0  0  0  0  0  0  0  0  0  0  0
  139.1138   68.5559  227.2380 H   0  0  0  0  0  0  0  0  0  0  0  0
  140.9021   68.5117  227.4677 H   0  0  0  0  0  0  0  0  0  0  0  0
  138.9411   70.6946  228.2457 H   0  0  0  0  0  0  0  0  0  0  0  0
  140.0737   69.7352  229.2921 H   0  0  0  0  0  0  0  0  0  0  0  0
  140.7739   72.1047  228.8629 H   0  0  0  0  0  0  0  0  0  0  0  0
  141.9671   70.8217  228.3816 H   0  0  0  0  0  0  0  0  0  0  0  0
  140.0902   72.3260  226.5045 H   0  0  0  0  0  0  0  0  0  0  0  0
  141.8484   72.5953  226.6712 H   0  0  0  0  0  0  0  0  0  0  0  0
  141.3587   71.0856  224.7756 H   0  0  0  0  0  0  0  0  0  0  0  0
  142.2587   70.2182  226.0548 H   0  0  0  0  0  0  0  0  0  0  0  0
  140.0373   71.9535  224.2438 H   0  0  0  0  0  0  0  0  0  0  0  0
  138.2496   76.2621  223.2735 H   0  0  0  0  0  0  0  0  0  0  0  0
  138.8090   78.6720  222.9978 H   0  0  0  0  0  0  0  0  0  0  0  0
  141.5922   79.9818  223.6227 H   0  0  0  0  0  0  0  0  0  0  0  0
  142.2456   82.4608  223.0578 H   0  0  0  0  0  0  0  0  0  0  0  0
  140.4381   79.6887  219.4621 H   0  0  0  0  0  0  0  0  0  0  0  0
  142.2652   77.4817  220.7435 H   0  0  0  0  0  0  0  0  0  0  0  0
  1  2  2  0
  2  3  1  0
  3  4  1  0
  4  5  1  0
  5  6  2  0
  6  7  1  0
  7  8  2  0
  8  9  1  0
  9 10  1  0
 10 11  2  0
 10 12  1  0
 12 13  1  0
 13 14  1  0
 14 15  1  0
 15 16  1  0
 16 17  1  0
  9 18  2  0
  4 19  2  0
 19 20  1  0
 20 21  2  0
 21 22  1  0
 22 23  2  0
 23 24  1  0
 24 25  1  0
 25 26  2  0
 26 27  1  0
 27 28  1  0
 23 29  1  0
 29 30  2  0
 30  2  1  0
 18  5  1  0
 30 20  1  0
 17 12  1  0
 28 24  2  0
  3 31  1  0
  3 32  1  0
  6 33  1  0
  7 34  1  0
  8 35  1  0
 13 36  1  0
 13 37  1  0
 14 38  1  0
 14 39  1  0
 15 40  1  0
 15 41  1  0
 16 42  1  0
 16 43  1  0
 17 44  1  0
 17 45  1  0
 18 46  1  0
 21 47  1  0
 22 48  1  0
 25 49  1  0
 26 50  1  0
 28 51  1  0
 29 52  1  0
M  END
>  <smiles>  (49) 
O=C1CC(c2cccc(C(=O)N3CCCCC3)c2)=Nc2ccc(-c3ccsc3)cc21

>  <score_type>  (49) 
oracle

>  <origin>  (49) 
autodockgpu

>  <m_score__min__energy>  (49) 
-9.6199999999999992

>  <m_primary>  (49) 
energy

>  <rmsd>  (49) 
10.845287303174786

>  <m_score__min__rmsd>  (49) 
10.845287303174786

>  <meeko>  (49) 
{"free_energy": -9.54, "intermolecular_energy": -10.43, "internal_energy": -0.87, "cluster_size": 50, "cluster_id": 1, "rank_in_cluster": 26}

>  <energy>  (49) 
-8.67

>  <cluster_rmsd>  (49) 
0.74

>  <cluster>  (49) 
1

$$$$

     RDKit          3D

 52 56  0  0  0  0  0  0  0  0999 V2000
  142.8950   75.0660  220.4320 O   0  0  0  0  0  0  0  0  0  0  0  0
  141.8500   74.7060  221.0280 C   0  0  0  0  0  0  0  0  0  0  0  0
  141.5970   73.2590  221.1540 C   0  0  0  0  0  0  0  0  0  0  0  0
  140.3220   73.0570  221.8850 C   0  0  0  0  0  0  0  0  0  0  0  0
  139.9270   71.6510  222.1150 C   0  0  0  0  0  0  0  0  0  0  0  0
  139.5450   70.8320  221.0740 C   0  0  0  0  0  0  0  0  0  0  0  0
  139.1840   69.5130  221.2280 C   0  0  0  0  0  0  0  0  0  0  0  0
  139.2000   68.9680  222.4940 C   0  0  0  0  0  0  0  0  0  0  0  0
  139.5750   69.7570  223.5510 C   0  0  0  0  0  0  0  0  0  0  0  0
  139.5800   69.1310  224.8750 C   0  0  0  0  0  0  0  0  0  0  0  0
  138.8290   68.1580  225.1650 O   0  0  0  0  0  0  0  0  0  0  0  0
  140.4380   69.6010  225.8900 N   0  0  0  0  0  0  0  0  0  0  0  0
  140.3890   68.9230  227.1960 C   0  0  0  0  0  0  0  0  0  0  0  0
  140.1680   69.9290  228.3040 C   0  0  0  0  0  0  0  0  0  0  0  0
  141.0560   71.1420  228.1580 C   0  0  0  0  0  0  0  0  0  0  0  0
  140.9770   71.7480  226.7660 C   0  0  0  0  0  0  0  0  0  0  0  0
  141.3620   70.6900  225.7730 C   0  0  0  0  0  0  0  0  0  0  0  0
  139.9430   71.1010  223.3910 C   0  0  0  0  0  0  0  0  0  0  0  0
  139.5750   73.9920  222.3250 N   0  0  0  0  0  0  0  0  0  0  0  0
  139.8290   75.3850  222.2000 C   0  0  0  0  0  0  0  0  0  0  0  0
  139.0280   76.3720  222.6830 C   0  0  0  0  0  0  0  0  0  0  0  0
  139.3170   77.7330  222.5480 C   0  0  0  0  0  0  0  0  0  0  0  0
  140.4720   78.0700  221.8910 C   0  0  0  0  0  0  0  0  0  0  0  0
  140.8640   79.4980  221.7050 C   0  0  0  0  0  0  0  0  0  0  0  0
  141.1350   80.3110  222.7090 C   0  0  0  0  0  0  0  0  0  0  0  0
  141.4990   81.6320  222.4700 C   0  0  0  0  0  0  0  0  0  0  0  0
  141.4550   81.7420  220.5870 S   0  0  0  0  0  0  0  0  0  0  0  0
  140.9490   79.9840  220.3910 C   0  0  0  0  0  0  0  0  0  0  0  0
  141.2950   77.0740  221.3940 C   0  0  0  0  0  0  0  0  0  0  0  0
  140.9840   75.7490  221.5420 C   0  0  0  0  0  0  0  0  0  0  0  0
  141.5245   72.8081  220.1533 H   0  0  0  0  0  0  0  0  0  0  0  0
  142.4219   72.7825  221.7039 H   0  0  0  0  0  0  0  0  0  0  0  0
  139.5277   71.2581  220.0600 H   0  0  0  0  0  0  0  0  0  0  0  0
  138.8889   68.9064  220.3591 H   0  0  0  0  0  0  0  0  0  0  0  0
  138.9165   67.9172  222.6538 H   0  0  0  0  0  0  0  0  0  0  0  0
  139.5634   68.1961  227.1963 H   0  0  0  0  0  0  0  0  0  0  0  0
  141.3458   68.4080  227.3670 H   0  0  0  0  0  0  0  0  0  0  0  0
  139.1174   70.2543  228.2829 H   0  0  0  0  0  0  0  0  0  0  0  0
  140.4166   69.4411  229.2580 H   0  0  0  0  0  0  0  0  0  0  0  0
  140.7443   71.8995  228.8922 H   0  0  0  0  0  0  0  0  0  0  0  0
  142.0946   70.8223  228.3284 H   0  0  0  0  0  0  0  0  0  0  0  0
  139.9510   72.0907  226.5664 H   0  0  0  0  0  0  0  0  0  0  0  0
  141.6563   72.6096  226.6868 H   0  0  0  0  0  0  0  0  0  0  0  0
  141.3211   71.1040  224.7547 H   0  0  0  0  0  0  0  0  0  0  0  0
  142.3856   70.3398  225.9722 H   0  0  0  0  0  0  0  0  0  0  0  0
  140.2387   71.7082  224.2593 H   0  0  0  0  0  0  0  0  0  0  0  0
  138.1046   76.0845  223.2072 H   0  0  0  0  0  0  0  0  0  0  0  0
  138.6441   78.5032  222.9530 H   0  0  0  0  0  0  0  0  0  0  0  0
  141.0725   79.9408  223.7430 H   0  0  0  0  0  0  0  0  0  0  0  0
  141.7501   82.4175  223.1980 H   0  0  0  0  0  0  0  0  0  0  0  0
  140.7567   79.4376  219.4559 H   0  0  0  0  0  0  0  0  0  0  0  0
  142.2199   77.3535  220.8682 H   0  0  0  0  0  0  0  0  0  0  0  0
  1  2  2  0
  2  3  1  0
  3  4  1  0
  4  5  1  0
  5  6  2  0
  6  7  1  0
  7  8  2  0
  8  9  1  0
  9 10  1  0
 10 11  2  0
 10 12  1  0
 12 13  1  0
 13 14  1  0
 14 15  1  0
 15 16  1  0
 16 17  1  0
  9 18  2  0
  4 19  2  0
 19 20  1  0
 20 21  2  0
 21 22  1  0
 22 23  2  0
 23 24  1  0
 24 25  1  0
 25 26  2  0
 26 27  1  0
 27 28  1  0
 23 29  1  0
 29 30  2  0
 30  2  1  0
 18  5  1  0
 30 20  1  0
 17 12  1  0
 28 24  2  0
  3 31  1  0
  3 32  1  0
  6 33  1  0
  7 34  1  0
  8 35  1  0
 13 36  1  0
 13 37  1  0
 14 38  1  0
 14 39  1  0
 15 40  1  0
 15 41  1  0
 16 42  1  0
 16 43  1  0
 17 44  1  0
 17 45  1  0
 18 46  1  0
 21 47  1  0
 22 48  1  0
 25 49  1  0
 26 50  1  0
 28 51  1  0
 29 52  1  0
M  END
>  <smiles>  (50) 
O=C1CC(c2cccc(C(=O)N3CCCCC3)c2)=Nc2ccc(-c3ccsc3)cc21

>  <score_type>  (50) 
oracle

>  <origin>  (50) 
autodockgpu

>  <m_score__min__energy>  (50) 
-9.6199999999999992

>  <m_primary>  (50) 
energy

>  <rmsd>  (50) 
10.952113767069303

>  <m_score__min__rmsd>  (50) 
10.952113767069303

>  <meeko>  (50) 
{"free_energy": -9.62, "intermolecular_energy": -10.52, "internal_energy": -0.71, "cluster_size": 50, "cluster_id": 1, "rank_in_cluster": 1}

>  <energy>  (50) 
-8.44

>  <cluster_rmsd>  (50) 
1.54

>  <cluster>  (50) 
1

$$$$
