
     RDKit          3D

 65 70  0  0  0  0  0  0  0  0999 V2000
  141.9210   80.6330  222.7610 C   0  0  0  0  0  0  0  0  0  0  0  0
  142.2000   79.7930  223.8180 C   0  0  0  0  0  0  0  0  0  0  0  0
  141.8030   78.4710  223.8520 C   0  0  0  0  0  0  0  0  0  0  0  0
  141.0960   77.9980  222.7650 C   0  0  0  0  0  0  0  0  0  0  0  0
  140.8150   78.8390  221.7060 C   0  0  0  0  0  0  0  0  0  0  0  0
  141.2120   80.1600  221.6680 C   0  0  0  0  0  0  0  0  0  0  0  0
  140.0380   78.2150  220.5750 C   0  0  0  0  0  0  0  0  0  0  0  0
  140.9080   77.0170  220.1640 C   0  0  0  0  0  0  0  0  0  0  0  0
  140.8570   76.1200  221.3050 N   0  0  0  0  0  0  0  0  0  0  0  0
  141.0550   74.7210  221.1330 C   0  0  0  0  0  0  0  0  0  0  0  0
  141.6660   74.1930  220.0570 N   0  0  0  0  0  0  0  0  0  0  0  0
  141.8300   72.8510  219.9410 C   0  0  0  0  0  0  0  0  0  0  0  0
  142.5220   72.3240  218.7130 C   0  0  0  0  0  0  0  0  0  0  0  0
  144.0150   72.5300  218.9970 C   0  0  2  0  0  0  0  0  0  0  0  0
  144.2900   72.0710  220.3900 C   0  0  0  0  0  0  0  0  0  0  0  0
  145.5000   72.7140  221.0300 C   0  0  0  0  0  0  0  0  0  0  0  0
  145.4980   74.2150  220.8500 C   0  0  0  0  0  0  0  0  0  0  0  0
  144.3980   74.6550  220.0150 N   0  0  0  0  0  0  0  0  0  0  0  0
  144.3600   73.9640  218.7640 C   0  0  0  0  0  0  0  0  0  0  0  0
  141.3910   72.0040  220.8910 N   0  0  0  0  0  0  0  0  0  0  0  0
  140.7790   72.5190  221.9720 C   0  0  0  0  0  0  0  0  0  0  0  0
  140.3030   71.6690  222.9920 N   0  0  0  0  0  0  0  0  0  0  0  0
  139.4250   70.5650  222.6470 C   0  0  0  0  0  0  0  0  0  0  0  0
  138.3070   70.5700  223.6980 C   0  0  0  0  0  0  0  0  0  0  0  0
  139.0090   70.1380  224.9610 C   0  0  0  0  0  0  0  0  0  0  0  0
  138.5080   69.1300  225.7590 C   0  0  0  0  0  0  0  0  0  0  0  0
  139.2030   68.7850  226.8990 C   0  0  0  0  0  0  0  0  0  0  0  0
  140.3860   69.4610  227.2150 C   0  0  0  0  0  0  0  0  0  0  0  0
  140.8630   70.4670  226.3970 C   0  0  0  0  0  0  0  0  0  0  0  0
  140.1770   70.8210  225.2500 C   0  0  0  0  0  0  0  0  0  0  0  0
  140.6910   71.9030  224.3700 C   0  0  0  0  0  0  0  0  0  0  0  0
  140.6250   73.8600  222.0690 N   0  0  0  0  0  0  0  0  0  0  0  0
  140.6030   76.5980  222.6630 C   0  0  0  0  0  0  0  0  0  0  0  0
  142.2612   81.6788  222.7851 H   0  0  0  0  0  0  0  0  0  0  0  0
  142.7643   80.1941  224.6728 H   0  0  0  0  0  0  0  0  0  0  0  0
  142.0399   77.8227  224.7085 H   0  0  0  0  0  0  0  0  0  0  0  0
  140.9768   80.8074  220.8104 H   0  0  0  0  0  0  0  0  0  0  0  0
  139.0460   77.8828  220.9151 H   0  0  0  0  0  0  0  0  0  0  0  0
  139.8498   78.9135  219.7464 H   0  0  0  0  0  0  0  0  0  0  0  0
  140.4984   76.5288  219.2674 H   0  0  0  0  0  0  0  0  0  0  0  0
  141.9367   77.3147  219.9125 H   0  0  0  0  0  0  0  0  0  0  0  0
  142.2973   71.2571  218.5675 H   0  0  0  0  0  0  0  0  0  0  0  0
  142.1955   72.8363  217.7959 H   0  0  0  0  0  0  0  0  0  0  0  0
  144.6513   71.9390  218.3218 H   0  0  0  0  0  0  0  0  0  0  0  0
  143.4100   72.3012  221.0086 H   0  0  0  0  0  0  0  0  0  0  0  0
  144.5008   70.9930  220.3305 H   0  0  0  0  0  0  0  0  0  0  0  0
  145.4984   72.4842  222.1057 H   0  0  0  0  0  0  0  0  0  0  0  0
  146.3999   72.3118  220.5417 H   0  0  0  0  0  0  0  0  0  0  0  0
  145.4087   74.6920  221.8372 H   0  0  0  0  0  0  0  0  0  0  0  0
  146.4383   74.5016  220.3563 H   0  0  0  0  0  0  0  0  0  0  0  0
  143.4840   74.6300  220.4980 H   0  0  0  0  0  0  0  0  0  0  0  0
  143.6000   74.4230  218.1146 H   0  0  0  0  0  0  0  0  0  0  0  0
  145.3452   74.0297  218.2791 H   0  0  0  0  0  0  0  0  0  0  0  0
  139.0046   70.7108  221.6410 H   0  0  0  0  0  0  0  0  0  0  0  0
  139.9660   69.6072  222.6385 H   0  0  0  0  0  0  0  0  0  0  0  0
  137.8783   71.5767  223.8111 H   0  0  0  0  0  0  0  0  0  0  0  0
  137.4647   69.9150  223.4306 H   0  0  0  0  0  0  0  0  0  0  0  0
  137.5746   68.6129  225.4917 H   0  0  0  0  0  0  0  0  0  0  0  0
  138.8299   67.9844  227.5547 H   0  0  0  0  0  0  0  0  0  0  0  0
  140.9423   69.1889  228.1241 H   0  0  0  0  0  0  0  0  0  0  0  0
  141.7945   70.9897  226.6600 H   0  0  0  0  0  0  0  0  0  0  0  0
  140.2779   72.8665  224.7031 H   0  0  0  0  0  0  0  0  0  0  0  0
  141.7892   71.9178  224.4312 H   0  0  0  0  0  0  0  0  0  0  0  0
  139.5235   76.5676  222.8723 H   0  0  0  0  0  0  0  0  0  0  0  0
  141.1218   75.9593  223.3930 H   0  0  0  0  0  0  0  0  0  0  0  0
  1  2  2  0
  2  3  1  0
  3  4  2  0
  4  5  1  0
  5  6  2  0
  5  7  1  0
  7  8  1  0
  8  9  1  0
  9 10  1  0
 10 11  2  0
 11 12  1  0
 12 13  1  0
 13 14  1  0
 14 15  1  0
 15 16  1  0
 16 17  1  0
 17 18  1  0
 18 19  1  0
 12 20  2  0
 20 21  1  0
 21 22  1  0
 22 23  1  0
 23 24  1  0
 24 25  1  0
 25 26  2  0
 26 27  1  0
 27 28  2  0
 28 29  1  0
 29 30  2  0
 30 31  1  0
 21 32  2  0
  9 33  1  0
  6  1  1  0
 32 10  1  0
 33  4  1  0
 19 14  1  0
 31 22  1  0
 30 25  1  0
  1 34  1  0
  2 35  1  0
  3 36  1  0
  6 37  1  0
  7 38  1  0
  7 39  1  0
  8 40  1  0
  8 41  1  0
 13 42  1  0
 13 43  1  0
 14 44  1  6
 15 45  1  0
 15 46  1  0
 16 47  1  0
 16 48  1  0
 17 49  1  0
 17 50  1  0
 18 51  1  0
 19 52  1  0
 19 53  1  0
 23 54  1  0
 23 55  1  0
 24 56  1  0
 24 57  1  0
 26 58  1  0
 27 59  1  0
 28 60  1  0
 29 61  1  0
 31 62  1  0
 31 63  1  0
 33 64  1  0
 33 65  1  0
M  END
>  <smiles>  (1) 
c1ccc2c(c1)CCN(c1nc(CC3CCCNC3)nc(N3CCc4ccccc4C3)n1)C2

>  <score_type>  (1) 
oracle

>  <origin>  (1) 
autodockgpu

>  <m_score__min__energy>  (1) 
-10.23

>  <m_primary>  (1) 
energy

>  <rmsd>  (1) 
4.979493904878257

>  <m_score__min__rmsd>  (1) 
4.979493904878257

>  <meeko>  (1) 
{"free_energy": -9.42, "intermolecular_energy": -10.61, "internal_energy": -2.0, "cluster_size": 50, "cluster_id": 1, "rank_in_cluster": 21}

>  <energy>  (1) 
-10.23

>  <cluster_rmsd>  (1) 
0.0

>  <cluster>  (1) 
1

$$$$

     RDKit          3D

 65 70  0  0  0  0  0  0  0  0999 V2000
  141.8540   80.6120  222.7840 C   0  0  0  0  0  0  0  0  0  0  0  0
  142.1790   79.7710  223.8280 C   0  0  0  0  0  0  0  0  0  0  0  0
  141.8090   78.4410  223.8620 C   0  0  0  0  0  0  0  0  0  0  0  0
  141.0820   77.9600  222.7920 C   0  0  0  0  0  0  0  0  0  0  0  0
  140.7560   78.8020  221.7470 C   0  0  0  0  0  0  0  0  0  0  0  0
  141.1250   80.1310  221.7080 C   0  0  0  0  0  0  0  0  0  0  0  0
  139.9620   78.1700  220.6330 C   0  0  0  0  0  0  0  0  0  0  0  0
  140.8430   76.9930  220.1900 C   0  0  0  0  0  0  0  0  0  0  0  0
  140.8420   76.0880  221.3260 N   0  0  0  0  0  0  0  0  0  0  0  0
  141.0640   74.6940  221.1390 C   0  0  0  0  0  0  0  0  0  0  0  0
  141.6740   74.1870  220.0520 N   0  0  0  0  0  0  0  0  0  0  0  0
  141.8600   72.8490  219.9220 C   0  0  0  0  0  0  0  0  0  0  0  0
  142.5500   72.3470  218.6820 C   0  0  0  0  0  0  0  0  0  0  0  0
  144.0400   72.5930  218.9470 C   0  0  2  0  0  0  0  0  0  0  0  0
  144.3540   72.1030  220.3220 C   0  0  0  0  0  0  0  0  0  0  0  0
  145.5550   72.7670  220.9600 C   0  0  0  0  0  0  0  0  0  0  0  0
  145.5010   74.2720  220.8230 C   0  0  0  0  0  0  0  0  0  0  0  0
  144.3730   74.6990  220.0200 N   0  0  0  0  0  0  0  0  0  0  0  0
  144.3350   74.0430  218.7500 C   0  0  0  0  0  0  0  0  0  0  0  0
  141.4460   71.9860  220.8670 N   0  0  0  0  0  0  0  0  0  0  0  0
  140.8350   72.4800  221.9590 C   0  0  0  0  0  0  0  0  0  0  0  0
  140.3840   71.6120  222.9750 N   0  0  0  0  0  0  0  0  0  0  0  0
  139.6100   70.4360  222.6160 C   0  0  0  0  0  0  0  0  0  0  0  0
  138.4520   70.3700  223.6210 C   0  0  0  0  0  0  0  0  0  0  0  0
  139.1310   70.0150  224.9190 C   0  0  0  0  0  0  0  0  0  0  0  0
  138.6770   68.9850  225.7150 C   0  0  0  0  0  0  0  0  0  0  0  0
  139.3480   68.7150  226.8900 C   0  0  0  0  0  0  0  0  0  0  0  0
  140.4590   69.4860  227.2410 C   0  0  0  0  0  0  0  0  0  0  0  0
  140.8910   70.5130  226.4230 C   0  0  0  0  0  0  0  0  0  0  0  0
  140.2280   70.7940  225.2420 C   0  0  0  0  0  0  0  0  0  0  0  0
  140.6930   71.8980  224.3630 C   0  0  0  0  0  0  0  0  0  0  0  0
  140.6570   73.8170  222.0710 N   0  0  0  0  0  0  0  0  0  0  0  0
  140.6150   76.5510  222.6940 C   0  0  0  0  0  0  0  0  0  0  0  0
  142.1735   81.6644  222.8055 H   0  0  0  0  0  0  0  0  0  0  0  0
  142.7582   80.1775  224.6702 H   0  0  0  0  0  0  0  0  0  0  0  0
  142.0824   77.7918  224.7069 H   0  0  0  0  0  0  0  0  0  0  0  0
  140.8530   80.7789  220.8617 H   0  0  0  0  0  0  0  0  0  0  0  0
  138.9863   77.8159  220.9971 H   0  0  0  0  0  0  0  0  0  0  0  0
  139.7384   78.8703  219.8147 H   0  0  0  0  0  0  0  0  0  0  0  0
  140.4180   76.5023  219.3020 H   0  0  0  0  0  0  0  0  0  0  0  0
  141.8581   77.3128  219.9118 H   0  0  0  0  0  0  0  0  0  0  0  0
  142.3530   71.2749  218.5342 H   0  0  0  0  0  0  0  0  0  0  0  0
  142.1972   72.8543  217.7720 H   0  0  0  0  0  0  0  0  0  0  0  0
  144.6830   72.0425  218.2445 H   0  0  0  0  0  0  0  0  0  0  0  0
  143.4783   72.2869  220.9617 H   0  0  0  0  0  0  0  0  0  0  0  0
  144.5975   71.0344  220.2279 H   0  0  0  0  0  0  0  0  0  0  0  0
  145.5802   72.5071  222.0286 H   0  0  0  0  0  0  0  0  0  0  0  0
  146.4586   72.4082  220.4454 H   0  0  0  0  0  0  0  0  0  0  0  0
  145.4140   74.7179  221.8248 H   0  0  0  0  0  0  0  0  0  0  0  0
  146.4225   74.6030  220.3216 H   0  0  0  0  0  0  0  0  0  0  0  0
  143.4690   74.6310  220.5170 H   0  0  0  0  0  0  0  0  0  0  0  0
  143.5495   74.4956  218.1270 H   0  0  0  0  0  0  0  0  0  0  0  0
  145.3089   74.1543  218.2508 H   0  0  0  0  0  0  0  0  0  0  0  0
  139.2219   70.5318  221.5912 H   0  0  0  0  0  0  0  0  0  0  0  0
  140.2240   69.5239  222.6477 H   0  0  0  0  0  0  0  0  0  0  0  0
  137.9419   71.3416  223.6972 H   0  0  0  0  0  0  0  0  0  0  0  0
  137.6754   69.6464  223.3323 H   0  0  0  0  0  0  0  0  0  0  0  0
  137.7991   68.3915  225.4199 H   0  0  0  0  0  0  0  0  0  0  0  0
  139.0107   67.8987  227.5456 H   0  0  0  0  0  0  0  0  0  0  0  0
  140.9952   69.2736  228.1777 H   0  0  0  0  0  0  0  0  0  0  0  0
  141.7677   71.1107  226.7131 H   0  0  0  0  0  0  0  0  0  0  0  0
  140.1921   72.8313  224.6597 H   0  0  0  0  0  0  0  0  0  0  0  0
  141.7831   71.9999  224.4693 H   0  0  0  0  0  0  0  0  0  0  0  0
  139.5425   76.4969  222.9322 H   0  0  0  0  0  0  0  0  0  0  0  0
  141.1658   75.9181  223.4054 H   0  0  0  0  0  0  0  0  0  0  0  0
  1  2  2  0
  2  3  1  0
  3  4  2  0
  4  5  1  0
  5  6  2  0
  5  7  1  0
  7  8  1  0
  8  9  1  0
  9 10  1  0
 10 11  2  0
 11 12  1  0
 12 13  1  0
 13 14  1  0
 14 15  1  0
 15 16  1  0
 16 17  1  0
 17 18  1  0
 18 19  1  0
 12 20  2  0
 20 21  1  0
 21 22  1  0
 22 23  1  0
 23 24  1  0
 24 25  1  0
 25 26  2  0
 26 27  1  0
 27 28  2  0
 28 29  1  0
 29 30  2  0
 30 31  1  0
 21 32  2  0
  9 33  1  0
  6  1  1  0
 32 10  1  0
 33  4  1  0
 19 14  1  0
 31 22  1  0
 30 25  1  0
  1 34  1  0
  2 35  1  0
  3 36  1  0
  6 37  1  0
  7 38  1  0
  7 39  1  0
  8 40  1  0
  8 41  1  0
 13 42  1  0
 13 43  1  0
 14 44  1  6
 15 45  1  0
 15 46  1  0
 16 47  1  0
 16 48  1  0
 17 49  1  0
 17 50  1  0
 18 51  1  0
 19 52  1  0
 19 53  1  0
 23 54  1  0
 23 55  1  0
 24 56  1  0
 24 57  1  0
 26 58  1  0
 27 59  1  0
 28 60  1  0
 29 61  1  0
 31 62  1  0
 31 63  1  0
 33 64  1  0
 33 65  1  0
M  END
>  <smiles>  (2) 
c1ccc2c(c1)CCN(c1nc(CC3CCCNC3)nc(N3CCc4ccccc4C3)n1)C2

>  <score_type>  (2) 
oracle

>  <origin>  (2) 
autodockgpu

>  <m_score__min__energy>  (2) 
-10.23

>  <m_primary>  (2) 
energy

>  <rmsd>  (2) 
4.984564344019984

>  <m_score__min__rmsd>  (2) 
4.984564344019984

>  <meeko>  (2) 
{"free_energy": -9.43, "intermolecular_energy": -10.63, "internal_energy": -1.99, "cluster_size": 50, "cluster_id": 1, "rank_in_cluster": 14}

>  <energy>  (2) 
-10.21

>  <cluster_rmsd>  (2) 
0.1

>  <cluster>  (2) 
1

$$$$

     RDKit          3D

 65 70  0  0  0  0  0  0  0  0999 V2000
  141.8390   80.6140  222.7990 C   0  0  0  0  0  0  0  0  0  0  0  0
  142.1870   79.7720  223.8350 C   0  0  0  0  0  0  0  0  0  0  0  0
  141.8260   78.4400  223.8720 C   0  0  0  0  0  0  0  0  0  0  0  0
  141.0840   77.9570  222.8130 C   0  0  0  0  0  0  0  0  0  0  0  0
  140.7350   78.8000  221.7760 C   0  0  0  0  0  0  0  0  0  0  0  0
  141.0940   80.1310  221.7340 C   0  0  0  0  0  0  0  0  0  0  0  0
  139.9260   78.1650  220.6740 C   0  0  0  0  0  0  0  0  0  0  0  0
  140.8070   76.9950  220.2130 C   0  0  0  0  0  0  0  0  0  0  0  0
  140.8310   76.0870  221.3460 N   0  0  0  0  0  0  0  0  0  0  0  0
  141.0590   74.6960  221.1510 C   0  0  0  0  0  0  0  0  0  0  0  0
  141.6680   74.1960  220.0600 N   0  0  0  0  0  0  0  0  0  0  0  0
  141.8600   72.8600  219.9230 C   0  0  0  0  0  0  0  0  0  0  0  0
  142.5480   72.3670  218.6780 C   0  0  0  0  0  0  0  0  0  0  0  0
  144.0380   72.6190  218.9380 C   0  0  2  0  0  0  0  0  0  0  0  0
  144.3670   72.0920  220.2960 C   0  0  0  0  0  0  0  0  0  0  0  0
  145.5660   72.7480  220.9440 C   0  0  0  0  0  0  0  0  0  0  0  0
  145.4980   74.2560  220.8510 C   0  0  0  0  0  0  0  0  0  0  0  0
  144.3600   74.6960  220.0700 N   0  0  0  0  0  0  0  0  0  0  0  0
  144.3180   74.0770  218.7820 C   0  0  0  0  0  0  0  0  0  0  0  0
  141.4540   71.9900  220.8650 N   0  0  0  0  0  0  0  0  0  0  0  0
  140.8440   72.4760  221.9610 C   0  0  0  0  0  0  0  0  0  0  0  0
  140.4010   71.6010  222.9760 N   0  0  0  0  0  0  0  0  0  0  0  0
  139.6250   70.4270  222.6140 C   0  0  0  0  0  0  0  0  0  0  0  0
  138.4750   70.3550  223.6270 C   0  0  0  0  0  0  0  0  0  0  0  0
  139.1640   69.9910  224.9180 C   0  0  0  0  0  0  0  0  0  0  0  0
  138.7160   68.9550  225.7110 C   0  0  0  0  0  0  0  0  0  0  0  0
  139.3960   68.6770  226.8780 C   0  0  0  0  0  0  0  0  0  0  0  0
  140.5100   69.4460  227.2250 C   0  0  0  0  0  0  0  0  0  0  0  0
  140.9360   70.4790  226.4120 C   0  0  0  0  0  0  0  0  0  0  0  0
  140.2630   70.7670  225.2380 C   0  0  0  0  0  0  0  0  0  0  0  0
  140.7210   71.8780  224.3630 C   0  0  0  0  0  0  0  0  0  0  0  0
  140.6610   73.8110  222.0810 N   0  0  0  0  0  0  0  0  0  0  0  0
  140.6250   76.5450  222.7190 C   0  0  0  0  0  0  0  0  0  0  0  0
  142.1525   81.6682  222.8179 H   0  0  0  0  0  0  0  0  0  0  0  0
  142.7781   80.1799  224.6682 H   0  0  0  0  0  0  0  0  0  0  0  0
  142.1176   77.7906  224.7106 H   0  0  0  0  0  0  0  0  0  0  0  0
  140.8028   80.7794  220.8945 H   0  0  0  0  0  0  0  0  0  0  0  0
  138.9591   77.8035  221.0540 H   0  0  0  0  0  0  0  0  0  0  0  0
  139.6837   78.8657  219.8614 H   0  0  0  0  0  0  0  0  0  0  0  0
  140.3704   76.5040  219.3308 H   0  0  0  0  0  0  0  0  0  0  0  0
  141.8152   77.3222  219.9188 H   0  0  0  0  0  0  0  0  0  0  0  0
  142.3557   71.2947  218.5261 H   0  0  0  0  0  0  0  0  0  0  0  0
  142.1892   72.8769  217.7718 H   0  0  0  0  0  0  0  0  0  0  0  0
  144.6802   72.0957  218.2144 H   0  0  0  0  0  0  0  0  0  0  0  0
  143.4945   72.2489  220.9472 H   0  0  0  0  0  0  0  0  0  0  0  0
  144.6196   71.0290  220.1689 H   0  0  0  0  0  0  0  0  0  0  0  0
  145.6013   72.4576  222.0044 H   0  0  0  0  0  0  0  0  0  0  0  0
  146.4688   72.4124  220.4127 H   0  0  0  0  0  0  0  0  0  0  0  0
  145.4156   74.6720  221.8660 H   0  0  0  0  0  0  0  0  0  0  0  0
  146.4124   74.6094  220.3520 H   0  0  0  0  0  0  0  0  0  0  0  0
  143.4610   74.6050  220.5710 H   0  0  0  0  0  0  0  0  0  0  0  0
  143.5234   74.5402  218.1786 H   0  0  0  0  0  0  0  0  0  0  0  0
  145.2870   74.2119  218.2792 H   0  0  0  0  0  0  0  0  0  0  0  0
  139.2295   70.5296  221.5927 H   0  0  0  0  0  0  0  0  0  0  0  0
  140.2391   69.5146  222.6344 H   0  0  0  0  0  0  0  0  0  0  0  0
  137.9660   71.3263  223.7135 H   0  0  0  0  0  0  0  0  0  0  0  0
  137.6959   69.6337  223.3395 H   0  0  0  0  0  0  0  0  0  0  0  0
  137.8357   68.3636  225.4189 H   0  0  0  0  0  0  0  0  0  0  0  0
  139.0641   67.8562  227.5308 H   0  0  0  0  0  0  0  0  0  0  0  0
  141.0538   69.2266  228.1557 H   0  0  0  0  0  0  0  0  0  0  0  0
  141.8145   71.0752  226.6996 H   0  0  0  0  0  0  0  0  0  0  0  0
  140.2221   72.8090  224.6700 H   0  0  0  0  0  0  0  0  0  0  0  0
  141.8118   71.9802  224.4615 H   0  0  0  0  0  0  0  0  0  0  0  0
  139.5572   76.4829  222.9758 H   0  0  0  0  0  0  0  0  0  0  0  0
  141.1927   75.9140  223.4187 H   0  0  0  0  0  0  0  0  0  0  0  0
  1  2  2  0
  2  3  1  0
  3  4  2  0
  4  5  1  0
  5  6  2  0
  5  7  1  0
  7  8  1  0
  8  9  1  0
  9 10  1  0
 10 11  2  0
 11 12  1  0
 12 13  1  0
 13 14  1  0
 14 15  1  0
 15 16  1  0
 16 17  1  0
 17 18  1  0
 18 19  1  0
 12 20  2  0
 20 21  1  0
 21 22  1  0
 22 23  1  0
 23 24  1  0
 24 25  1  0
 25 26  2  0
 26 27  1  0
 27 28  2  0
 28 29  1  0
 29 30  2  0
 30 31  1  0
 21 32  2  0
  9 33  1  0
  6  1  1  0
 32 10  1  0
 33  4  1  0
 19 14  1  0
 31 22  1  0
 30 25  1  0
  1 34  1  0
  2 35  1  0
  3 36  1  0
  6 37  1  0
  7 38  1  0
  7 39  1  0
  8 40  1  0
  8 41  1  0
 13 42  1  0
 13 43  1  0
 14 44  1  6
 15 45  1  0
 15 46  1  0
 16 47  1  0
 16 48  1  0
 17 49  1  0
 17 50  1  0
 18 51  1  0
 19 52  1  0
 19 53  1  0
 23 54  1  0
 23 55  1  0
 24 56  1  0
 24 57  1  0
 26 58  1  0
 27 59  1  0
 28 60  1  0
 29 61  1  0
 31 62  1  0
 31 63  1  0
 33 64  1  0
 33 65  1  0
M  END
>  <smiles>  (3) 
c1ccc2c(c1)CCN(c1nc(CC3CCCNC3)nc(N3CCc4ccccc4C3)n1)C2

>  <score_type>  (3) 
oracle

>  <origin>  (3) 
autodockgpu

>  <m_score__min__energy>  (3) 
-10.23

>  <m_primary>  (3) 
energy

>  <rmsd>  (3) 
4.993101669764665

>  <m_score__min__rmsd>  (3) 
4.993101669764665

>  <meeko>  (3) 
{"free_energy": -9.43, "intermolecular_energy": -10.63, "internal_energy": -1.98, "cluster_size": 50, "cluster_id": 1, "rank_in_cluster": 15}

>  <energy>  (3) 
-10.21

>  <cluster_rmsd>  (3) 
0.54

>  <cluster>  (3) 
1

$$$$

     RDKit          3D

 65 70  0  0  0  0  0  0  0  0999 V2000
  141.8280   80.6550  222.7500 C   0  0  0  0  0  0  0  0  0  0  0  0
  142.1480   79.8250  223.8050 C   0  0  0  0  0  0  0  0  0  0  0  0
  141.7790   78.4950  223.8510 C   0  0  0  0  0  0  0  0  0  0  0  0
  141.0590   78.0020  222.7820 C   0  0  0  0  0  0  0  0  0  0  0  0
  140.7380   78.8330  221.7270 C   0  0  0  0  0  0  0  0  0  0  0  0
  141.1050   80.1620  221.6750 C   0  0  0  0  0  0  0  0  0  0  0  0
  139.9490   78.1890  220.6150 C   0  0  0  0  0  0  0  0  0  0  0  0
  140.8340   77.0080  220.1890 C   0  0  0  0  0  0  0  0  0  0  0  0
  140.8270   76.1150  221.3350 N   0  0  0  0  0  0  0  0  0  0  0  0
  141.0520   74.7200  221.1630 C   0  0  0  0  0  0  0  0  0  0  0  0
  141.6840   74.2030  220.0930 N   0  0  0  0  0  0  0  0  0  0  0  0
  141.8710   72.8640  219.9780 C   0  0  0  0  0  0  0  0  0  0  0  0
  142.5860   72.3510  218.7570 C   0  0  0  0  0  0  0  0  0  0  0  0
  144.0690   72.6220  219.0390 C   0  0  2  0  0  0  0  0  0  0  0  0
  144.3500   72.2310  220.4520 C   0  0  0  0  0  0  0  0  0  0  0  0
  145.5330   72.9420  221.0710 C   0  0  0  0  0  0  0  0  0  0  0  0
  145.4790   74.4340  220.8270 C   0  0  0  0  0  0  0  0  0  0  0  0
  144.3700   74.7990  219.9690 N   0  0  0  0  0  0  0  0  0  0  0  0
  144.3640   74.0550  218.7480 C   0  0  0  0  0  0  0  0  0  0  0  0
  141.4360   72.0090  220.9210 N   0  0  0  0  0  0  0  0  0  0  0  0
  140.8030   72.5120  221.9960 C   0  0  0  0  0  0  0  0  0  0  0  0
  140.3300   71.6520  223.0100 N   0  0  0  0  0  0  0  0  0  0  0  0
  139.4790   70.5310  222.6520 C   0  0  0  0  0  0  0  0  0  0  0  0
  138.3470   70.5140  223.6890 C   0  0  0  0  0  0  0  0  0  0  0  0
  139.0400   70.0960  224.9610 C   0  0  0  0  0  0  0  0  0  0  0  0
  138.5480   69.0780  225.7520 C   0  0  0  0  0  0  0  0  0  0  0  0
  139.2340   68.7470  226.9020 C   0  0  0  0  0  0  0  0  0  0  0  0
  140.3980   69.4460  227.2340 C   0  0  0  0  0  0  0  0  0  0  0  0
  140.8670   70.4620  226.4230 C   0  0  0  0  0  0  0  0  0  0  0  0
  140.1890   70.8020  225.2660 C   0  0  0  0  0  0  0  0  0  0  0  0
  140.6940   71.8940  224.3930 C   0  0  0  0  0  0  0  0  0  0  0  0
  140.6250   73.8500  222.0930 N   0  0  0  0  0  0  0  0  0  0  0  0
  140.5930   76.5920  222.6960 C   0  0  0  0  0  0  0  0  0  0  0  0
  142.1467   81.7078  222.7621 H   0  0  0  0  0  0  0  0  0  0  0  0
  142.7221   80.2409  224.6461 H   0  0  0  0  0  0  0  0  0  0  0  0
  142.0479   77.8552  224.7044 H   0  0  0  0  0  0  0  0  0  0  0  0
  140.8364   80.8005  220.8205 H   0  0  0  0  0  0  0  0  0  0  0  0
  138.9718   77.8379  220.9779 H   0  0  0  0  0  0  0  0  0  0  0  0
  139.7283   78.8805  219.7885 H   0  0  0  0  0  0  0  0  0  0  0  0
  140.4146   76.5076  219.3038 H   0  0  0  0  0  0  0  0  0  0  0  0
  141.8503   77.3256  219.9129 H   0  0  0  0  0  0  0  0  0  0  0  0
  142.4058   71.2740  218.6246 H   0  0  0  0  0  0  0  0  0  0  0  0
  142.2397   72.8382  217.8336 H   0  0  0  0  0  0  0  0  0  0  0  0
  144.7309   72.0273  218.3923 H   0  0  0  0  0  0  0  0  0  0  0  0
  143.4584   72.4561  221.0556 H   0  0  0  0  0  0  0  0  0  0  0  0
  144.5980   71.1594  220.4390 H   0  0  0  0  0  0  0  0  0  0  0  0
  145.5322   72.7578  222.1555 H   0  0  0  0  0  0  0  0  0  0  0  0
  146.4500   72.5513  220.6057 H   0  0  0  0  0  0  0  0  0  0  0  0
  145.3667   74.9489  221.7925 H   0  0  0  0  0  0  0  0  0  0  0  0
  146.4117   74.7325  220.3260 H   0  0  0  0  0  0  0  0  0  0  0  0
  143.4540   74.7620  220.4480 H   0  0  0  0  0  0  0  0  0  0  0  0
  143.5921   74.4590  218.0765 H   0  0  0  0  0  0  0  0  0  0  0  0
  145.3492   74.1354  218.2654 H   0  0  0  0  0  0  0  0  0  0  0  0
  139.0693   70.6694  221.6406 H   0  0  0  0  0  0  0  0  0  0  0  0
  140.0385   69.5839  222.6493 H   0  0  0  0  0  0  0  0  0  0  0  0
  137.8972   71.5121  223.7962 H   0  0  0  0  0  0  0  0  0  0  0  0
  137.5215   69.8424  223.4106 H   0  0  0  0  0  0  0  0  0  0  0  0
  137.6291   68.5423  225.4717 H   0  0  0  0  0  0  0  0  0  0  0  0
  138.8679   67.9392  227.5527 H   0  0  0  0  0  0  0  0  0  0  0  0
  140.9467   69.1846  228.1508 H   0  0  0  0  0  0  0  0  0  0  0  0
  141.7841   71.0031  226.6989 H   0  0  0  0  0  0  0  0  0  0  0  0
  140.2574   72.8493  224.7199 H   0  0  0  0  0  0  0  0  0  0  0  0
  141.7907   71.9307  224.4697 H   0  0  0  0  0  0  0  0  0  0  0  0
  139.5192   76.5400  222.9291 H   0  0  0  0  0  0  0  0  0  0  0  0
  141.1404   75.9667  223.4167 H   0  0  0  0  0  0  0  0  0  0  0  0
  1  2  2  0
  2  3  1  0
  3  4  2  0
  4  5  1  0
  5  6  2  0
  5  7  1  0
  7  8  1  0
  8  9  1  0
  9 10  1  0
 10 11  2  0
 11 12  1  0
 12 13  1  0
 13 14  1  0
 14 15  1  0
 15 16  1  0
 16 17  1  0
 17 18  1  0
 18 19  1  0
 12 20  2  0
 20 21  1  0
 21 22  1  0
 22 23  1  0
 23 24  1  0
 24 25  1  0
 25 26  2  0
 26 27  1  0
 27 28  2  0
 28 29  1  0
 29 30  2  0
 30 31  1  0
 21 32  2  0
  9 33  1  0
  6  1  1  0
 32 10  1  0
 33  4  1  0
 19 14  1  0
 31 22  1  0
 30 25  1  0
  1 34  1  0
  2 35  1  0
  3 36  1  0
  6 37  1  0
  7 38  1  0
  7 39  1  0
  8 40  1  0
  8 41  1  0
 13 42  1  0
 13 43  1  0
 14 44  1  6
 15 45  1  0
 15 46  1  0
 16 47  1  0
 16 48  1  0
 17 49  1  0
 17 50  1  0
 18 51  1  0
 19 52  1  0
 19 53  1  0
 23 54  1  0
 23 55  1  0
 24 56  1  0
 24 57  1  0
 26 58  1  0
 27 59  1  0
 28 60  1  0
 29 61  1  0
 31 62  1  0
 31 63  1  0
 33 64  1  0
 33 65  1  0
M  END
>  <smiles>  (4) 
c1ccc2c(c1)CCN(c1nc(CC3CCCNC3)nc(N3CCc4ccccc4C3)n1)C2

>  <score_type>  (4) 
oracle

>  <origin>  (4) 
autodockgpu

>  <m_score__min__energy>  (4) 
-10.23

>  <m_primary>  (4) 
energy

>  <rmsd>  (4) 
4.967114393253392

>  <m_score__min__rmsd>  (4) 
4.967114393253392

>  <meeko>  (4) 
{"free_energy": -9.43, "intermolecular_energy": -10.62, "internal_energy": -2.0, "cluster_size": 50, "cluster_id": 1, "rank_in_cluster": 17}

>  <energy>  (4) 
-10.19

>  <cluster_rmsd>  (4) 
0.56

>  <cluster>  (4) 
1

$$$$

     RDKit          3D

 65 70  0  0  0  0  0  0  0  0999 V2000
  139.3060   69.7060  228.0190 C   0  0  0  0  0  0  0  0  0  0  0  0
  140.3010   70.6590  228.0760 C   0  0  0  0  0  0  0  0  0  0  0  0
  140.9190   71.1670  226.9500 C   0  0  0  0  0  0  0  0  0  0  0  0
  140.5020   70.6810  225.7280 C   0  0  0  0  0  0  0  0  0  0  0  0
  139.5060   69.7250  225.6700 C   0  0  0  0  0  0  0  0  0  0  0  0
  138.8850   69.2160  226.7920 C   0  0  0  0  0  0  0  0  0  0  0  0
  139.1310   69.2670  224.2840 C   0  0  0  0  0  0  0  0  0  0  0  0
  138.7420   70.5700  223.5710 C   0  0  0  0  0  0  0  0  0  0  0  0
  139.9800   71.3240  223.4860 N   0  0  0  0  0  0  0  0  0  0  0  0
  140.1670   72.2900  222.4570 C   0  0  0  0  0  0  0  0  0  0  0  0
  140.5330   71.9670  221.2030 N   0  0  0  0  0  0  0  0  0  0  0  0
  140.6990   72.9280  220.2600 C   0  0  0  0  0  0  0  0  0  0  0  0
  141.1080   72.4990  218.8760 C   0  0  0  0  0  0  0  0  0  0  0  0
  142.6290   72.6880  218.8500 C   0  0  2  0  0  0  0  0  0  0  0  0
  143.1930   72.0790  220.0910 C   0  0  0  0  0  0  0  0  0  0  0  0
  144.5230   72.6600  220.5200 C   0  0  0  0  0  0  0  0  0  0  0  0
  144.5010   74.1730  220.5120 C   0  0  0  0  0  0  0  0  0  0  0  0
  143.2520   74.6900  219.9910 N   0  0  0  0  0  0  0  0  0  0  0  0
  142.9350   74.1420  218.7090 C   0  0  0  0  0  0  0  0  0  0  0  0
  140.5050   74.2290  220.5390 N   0  0  0  0  0  0  0  0  0  0  0  0
  140.1390   74.5670  221.7880 C   0  0  0  0  0  0  0  0  0  0  0  0
  139.9250   75.9190  222.1260 N   0  0  0  0  0  0  0  0  0  0  0  0
  138.6060   76.3430  222.5630 C   0  0  0  0  0  0  0  0  0  0  0  0
  138.3260   77.6640  221.8340 C   0  0  0  0  0  0  0  0  0  0  0  0
  139.2860   78.6330  222.4770 C   0  0  0  0  0  0  0  0  0  0  0  0
  138.8680   79.8600  222.9500 C   0  0  0  0  0  0  0  0  0  0  0  0
  139.8010   80.6960  223.5280 C   0  0  0  0  0  0  0  0  0  0  0  0
  141.1330   80.2820  223.6180 C   0  0  0  0  0  0  0  0  0  0  0  0
  141.5230   79.0470  223.1350 C   0  0  0  0  0  0  0  0  0  0  0  0
  140.5970   78.1990  222.5550 C   0  0  0  0  0  0  0  0  0  0  0  0
  141.0160   76.8710  222.0360 C   0  0  0  0  0  0  0  0  0  0  0  0
  139.9790   73.5950  222.7160 N   0  0  0  0  0  0  0  0  0  0  0  0
  141.0770   71.1340  224.4330 C   0  0  0  0  0  0  0  0  0  0  0  0
  138.8463   69.3345  228.9467 H   0  0  0  0  0  0  0  0  0  0  0  0
  140.6165   71.0311  229.0619 H   0  0  0  0  0  0  0  0  0  0  0  0
  141.7105   71.9272  227.0245 H   0  0  0  0  0  0  0  0  0  0  0  0
  138.0927   68.4567  226.7167 H   0  0  0  0  0  0  0  0  0  0  0  0
  139.9843   68.7848  223.7846 H   0  0  0  0  0  0  0  0  0  0  0  0
  138.3239   68.5196  224.2827 H   0  0  0  0  0  0  0  0  0  0  0  0
  138.3455   70.3598  222.5667 H   0  0  0  0  0  0  0  0  0  0  0  0
  137.9543   71.1199  224.1069 H   0  0  0  0  0  0  0  0  0  0  0  0
  140.8440   71.4455  218.7015 H   0  0  0  0  0  0  0  0  0  0  0  0
  140.6007   73.0791  218.0910 H   0  0  0  0  0  0  0  0  0  0  0  0
  143.0955   72.1832  217.9912 H   0  0  0  0  0  0  0  0  0  0  0  0
  142.4715   72.2298  220.9075 H   0  0  0  0  0  0  0  0  0  0  0  0
  143.3701   71.0164  219.8684 H   0  0  0  0  0  0  0  0  0  0  0  0
  144.7523   72.3121  221.5380 H   0  0  0  0  0  0  0  0  0  0  0  0
  145.2901   72.3242  219.8067 H   0  0  0  0  0  0  0  0  0  0  0  0
  144.6351   74.5365  221.5415 H   0  0  0  0  0  0  0  0  0  0  0  0
  145.3147   74.5234  219.8600 H   0  0  0  0  0  0  0  0  0  0  0  0
  142.4650   74.6020  220.6540 H   0  0  0  0  0  0  0  0  0  0  0  0
  142.0590   74.6623  218.2945 H   0  0  0  0  0  0  0  0  0  0  0  0
  143.7930   74.2717  218.0330 H   0  0  0  0  0  0  0  0  0  0  0  0
  137.8523   75.5891  222.2918 H   0  0  0  0  0  0  0  0  0  0  0  0
  138.5629   76.4674  223.6551 H   0  0  0  0  0  0  0  0  0  0  0  0
  138.5268   77.5685  220.7567 H   0  0  0  0  0  0  0  0  0  0  0  0
  137.2766   77.9836  221.9156 H   0  0  0  0  0  0  0  0  0  0  0  0
  137.8143   80.1649  222.8680 H   0  0  0  0  0  0  0  0  0  0  0  0
  139.4990   81.6804  223.9149 H   0  0  0  0  0  0  0  0  0  0  0  0
  141.8791   80.9464  224.0783 H   0  0  0  0  0  0  0  0  0  0  0  0
  142.5755   78.7369  223.2123 H   0  0  0  0  0  0  0  0  0  0  0  0
  141.3200   76.9738  220.9838 H   0  0  0  0  0  0  0  0  0  0  0  0
  141.8576   76.5035  222.6416 H   0  0  0  0  0  0  0  0  0  0  0  0
  141.7729   70.3737  224.0486 H   0  0  0  0  0  0  0  0  0  0  0  0
  141.6264   72.0769  224.5711 H   0  0  0  0  0  0  0  0  0  0  0  0
  1  2  2  0
  2  3  1  0
  3  4  2  0
  4  5  1  0
  5  6  2  0
  5  7  1  0
  7  8  1  0
  8  9  1  0
  9 10  1  0
 10 11  2  0
 11 12  1  0
 12 13  1  0
 13 14  1  0
 14 15  1  0
 15 16  1  0
 16 17  1  0
 17 18  1  0
 18 19  1  0
 12 20  2  0
 20 21  1  0
 21 22  1  0
 22 23  1  0
 23 24  1  0
 24 25  1  0
 25 26  2  0
 26 27  1  0
 27 28  2  0
 28 29  1  0
 29 30  2  0
 30 31  1  0
 21 32  2  0
  9 33  1  0
  6  1  1  0
 32 10  1  0
 33  4  1  0
 19 14  1  0
 31 22  1  0
 30 25  1  0
  1 34  1  0
  2 35  1  0
  3 36  1  0
  6 37  1  0
  7 38  1  0
  7 39  1  0
  8 40  1  0
  8 41  1  0
 13 42  1  0
 13 43  1  0
 14 44  1  6
 15 45  1  0
 15 46  1  0
 16 47  1  0
 16 48  1  0
 17 49  1  0
 17 50  1  0
 18 51  1  0
 19 52  1  0
 19 53  1  0
 23 54  1  0
 23 55  1  0
 24 56  1  0
 24 57  1  0
 26 58  1  0
 27 59  1  0
 28 60  1  0
 29 61  1  0
 31 62  1  0
 31 63  1  0
 33 64  1  0
 33 65  1  0
M  END
>  <smiles>  (5) 
c1ccc2c(c1)CCN(c1nc(CC3CCCNC3)nc(N3CCc4ccccc4C3)n1)C2

>  <score_type>  (5) 
oracle

>  <origin>  (5) 
autodockgpu

>  <m_score__min__energy>  (5) 
-10.23

>  <m_primary>  (5) 
energy

>  <rmsd>  (5) 
10.857119466992545

>  <m_score__min__rmsd>  (5) 
10.857119466992545

>  <meeko>  (5) 
{"free_energy": -9.24, "intermolecular_energy": -10.43, "internal_energy": -2.01, "cluster_size": 50, "cluster_id": 1, "rank_in_cluster": 39}

>  <energy>  (5) 
-10.18

>  <cluster_rmsd>  (5) 
0.62

>  <cluster>  (5) 
1

$$$$

     RDKit          3D

 65 70  0  0  0  0  0  0  0  0999 V2000
  141.9380   80.4800  222.7540 C   0  0  0  0  0  0  0  0  0  0  0  0
  142.1560   79.6400  223.8260 C   0  0  0  0  0  0  0  0  0  0  0  0
  141.7410   78.3230  223.8440 C   0  0  0  0  0  0  0  0  0  0  0  0
  141.0810   77.8550  222.7260 C   0  0  0  0  0  0  0  0  0  0  0  0
  140.8620   78.6960  221.6530 C   0  0  0  0  0  0  0  0  0  0  0  0
  141.2750   80.0120  221.6300 C   0  0  0  0  0  0  0  0  0  0  0  0
  140.1320   78.0780  220.4870 C   0  0  0  0  0  0  0  0  0  0  0  0
  141.0050   76.8680  220.1210 C   0  0  0  0  0  0  0  0  0  0  0  0
  140.8890   75.9750  221.2610 N   0  0  0  0  0  0  0  0  0  0  0  0
  141.0790   74.5740  221.1020 C   0  0  0  0  0  0  0  0  0  0  0  0
  141.6630   74.0290  220.0190 N   0  0  0  0  0  0  0  0  0  0  0  0
  141.8190   72.6850  219.9170 C   0  0  0  0  0  0  0  0  0  0  0  0
  142.4810   72.1400  218.6800 C   0  0  0  0  0  0  0  0  0  0  0  0
  143.9780   72.3810  218.9090 C   0  0  2  0  0  0  0  0  0  0  0  0
  144.3030   71.9800  220.3100 C   0  0  0  0  0  0  0  0  0  0  0  0
  145.5210   72.6660  220.8870 C   0  0  0  0  0  0  0  0  0  0  0  0
  145.4870   74.1600  220.6500 C   0  0  0  0  0  0  0  0  0  0  0  0
  144.3550   74.5490  219.8340 N   0  0  0  0  0  0  0  0  0  0  0  0
  144.2910   73.8100  218.6120 C   0  0  0  0  0  0  0  0  0  0  0  0
  141.3990   71.8520  220.8870 N   0  0  0  0  0  0  0  0  0  0  0  0
  140.8140   72.3830  221.9750 C   0  0  0  0  0  0  0  0  0  0  0  0
  140.3590   71.5480  223.0170 N   0  0  0  0  0  0  0  0  0  0  0  0
  139.6210   70.3410  222.6900 C   0  0  0  0  0  0  0  0  0  0  0  0
  138.4410   70.2900  223.6710 C   0  0  0  0  0  0  0  0  0  0  0  0
  139.0970   70.0060  224.9980 C   0  0  0  0  0  0  0  0  0  0  0  0
  138.6470   68.9990  225.8270 C   0  0  0  0  0  0  0  0  0  0  0  0
  139.2960   68.7940  227.0270 C   0  0  0  0  0  0  0  0  0  0  0  0
  140.3810   69.6050  227.3690 C   0  0  0  0  0  0  0  0  0  0  0  0
  140.8090   70.6070  226.5190 C   0  0  0  0  0  0  0  0  0  0  0  0
  140.1680   70.8220  225.3130 C   0  0  0  0  0  0  0  0  0  0  0  0
  140.6290   71.9000  224.3980 C   0  0  0  0  0  0  0  0  0  0  0  0
  140.6670   73.7260  222.0590 N   0  0  0  0  0  0  0  0  0  0  0  0
  140.5760   76.4610  222.6040 C   0  0  0  0  0  0  0  0  0  0  0  0
  142.2903   81.5214  222.7909 H   0  0  0  0  0  0  0  0  0  0  0  0
  142.6839   80.0368  224.7057 H   0  0  0  0  0  0  0  0  0  0  0  0
  141.9285   77.6745  224.7125 H   0  0  0  0  0  0  0  0  0  0  0  0
  141.0871   80.6595  220.7608 H   0  0  0  0  0  0  0  0  0  0  0  0
  139.1207   77.7595  220.7799 H   0  0  0  0  0  0  0  0  0  0  0  0
  139.9929   78.7764  219.6486 H   0  0  0  0  0  0  0  0  0  0  0  0
  140.6320   76.3820  219.2074 H   0  0  0  0  0  0  0  0  0  0  0  0
  142.0481   77.1521  219.9177 H   0  0  0  0  0  0  0  0  0  0  0  0
  142.2726   71.0657  218.5685 H   0  0  0  0  0  0  0  0  0  0  0  0
  142.1149   72.6228  217.7619 H   0  0  0  0  0  0  0  0  0  0  0  0
  144.6034   71.7753  218.2367 H   0  0  0  0  0  0  0  0  0  0  0  0
  143.4385   72.2201  220.9464 H   0  0  0  0  0  0  0  0  0  0  0  0
  144.5297   70.9039  220.2851 H   0  0  0  0  0  0  0  0  0  0  0  0
  145.5565   72.4777  221.9702 H   0  0  0  0  0  0  0  0  0  0  0  0
  146.4124   72.2598  220.3867 H   0  0  0  0  0  0  0  0  0  0  0  0
  145.4195   74.6732  221.6206 H   0  0  0  0  0  0  0  0  0  0  0  0
  146.4066   74.4429  220.1167 H   0  0  0  0  0  0  0  0  0  0  0  0
  143.4570   74.5280  220.3450 H   0  0  0  0  0  0  0  0  0  0  0  0
  143.5039   74.2316  217.9696 H   0  0  0  0  0  0  0  0  0  0  0  0
  145.2599   73.8728  218.0950 H   0  0  0  0  0  0  0  0  0  0  0  0
  139.2552   70.3853  221.6536 H   0  0  0  0  0  0  0  0  0  0  0  0
  140.2543   69.4455  222.7734 H   0  0  0  0  0  0  0  0  0  0  0  0
  137.9074   71.2517  223.6942 H   0  0  0  0  0  0  0  0  0  0  0  0
  137.6881   69.5367  223.3959 H   0  0  0  0  0  0  0  0  0  0  0  0
  137.7897   68.3735  225.5375 H   0  0  0  0  0  0  0  0  0  0  0  0
  138.9619   67.9983  227.7091 H   0  0  0  0  0  0  0  0  0  0  0  0
  140.9002   69.4442  228.3253 H   0  0  0  0  0  0  0  0  0  0  0  0
  141.6646   71.2371  226.8035 H   0  0  0  0  0  0  0  0  0  0  0  0
  140.1003   72.8329  224.6432 H   0  0  0  0  0  0  0  0  0  0  0  0
  141.7136   72.0326  224.5245 H   0  0  0  0  0  0  0  0  0  0  0  0
  139.4874   76.4447  222.7611 H   0  0  0  0  0  0  0  0  0  0  0  0
  141.0512   75.8184  223.3598 H   0  0  0  0  0  0  0  0  0  0  0  0
  1  2  2  0
  2  3  1  0
  3  4  2  0
  4  5  1  0
  5  6  2  0
  5  7  1  0
  7  8  1  0
  8  9  1  0
  9 10  1  0
 10 11  2  0
 11 12  1  0
 12 13  1  0
 13 14  1  0
 14 15  1  0
 15 16  1  0
 16 17  1  0
 17 18  1  0
 18 19  1  0
 12 20  2  0
 20 21  1  0
 21 22  1  0
 22 23  1  0
 23 24  1  0
 24 25  1  0
 25 26  2  0
 26 27  1  0
 27 28  2  0
 28 29  1  0
 29 30  2  0
 30 31  1  0
 21 32  2  0
  9 33  1  0
  6  1  1  0
 32 10  1  0
 33  4  1  0
 19 14  1  0
 31 22  1  0
 30 25  1  0
  1 34  1  0
  2 35  1  0
  3 36  1  0
  6 37  1  0
  7 38  1  0
  7 39  1  0
  8 40  1  0
  8 41  1  0
 13 42  1  0
 13 43  1  0
 14 44  1  6
 15 45  1  0
 15 46  1  0
 16 47  1  0
 16 48  1  0
 17 49  1  0
 17 50  1  0
 18 51  1  0
 19 52  1  0
 19 53  1  0
 23 54  1  0
 23 55  1  0
 24 56  1  0
 24 57  1  0
 26 58  1  0
 27 59  1  0
 28 60  1  0
 29 61  1  0
 31 62  1  0
 31 63  1  0
 33 64  1  0
 33 65  1  0
M  END
>  <smiles>  (6) 
c1ccc2c(c1)CCN(c1nc(CC3CCCNC3)nc(N3CCc4ccccc4C3)n1)C2

>  <score_type>  (6) 
oracle

>  <origin>  (6) 
autodockgpu

>  <m_score__min__energy>  (6) 
-10.23

>  <m_primary>  (6) 
energy

>  <rmsd>  (6) 
4.960832007171746

>  <m_score__min__rmsd>  (6) 
4.960832007171746

>  <meeko>  (6) 
{"free_energy": -9.34, "intermolecular_energy": -10.53, "internal_energy": -2.0, "cluster_size": 50, "cluster_id": 1, "rank_in_cluster": 28}

>  <energy>  (6) 
-10.18

>  <cluster_rmsd>  (6) 
0.57

>  <cluster>  (6) 
1

$$$$

     RDKit          3D

 65 70  0  0  0  0  0  0  0  0999 V2000
  139.4210   69.7190  227.9790 C   0  0  0  0  0  0  0  0  0  0  0  0
  140.4210   70.6680  228.0140 C   0  0  0  0  0  0  0  0  0  0  0  0
  141.0050   71.1860  226.8750 C   0  0  0  0  0  0  0  0  0  0  0  0
  140.5470   70.7150  225.6620 C   0  0  0  0  0  0  0  0  0  0  0  0
  139.5460   69.7640  225.6250 C   0  0  0  0  0  0  0  0  0  0  0  0
  138.9590   69.2440  226.7610 C   0  0  0  0  0  0  0  0  0  0  0  0
  139.1250   69.3230  224.2470 C   0  0  0  0  0  0  0  0  0  0  0  0
  138.7180   70.6360  223.5610 C   0  0  0  0  0  0  0  0  0  0  0  0
  139.9560   71.3860  223.4450 N   0  0  0  0  0  0  0  0  0  0  0  0
  140.1140   72.3630  222.4220 C   0  0  0  0  0  0  0  0  0  0  0  0
  140.4170   72.0510  221.1480 N   0  0  0  0  0  0  0  0  0  0  0  0
  140.5570   73.0220  220.2110 C   0  0  0  0  0  0  0  0  0  0  0  0
  140.8960   72.6050  218.8040 C   0  0  0  0  0  0  0  0  0  0  0  0
  142.4260   72.6770  218.7420 C   0  0  2  0  0  0  0  0  0  0  0  0
  142.9750   71.8920  219.8870 C   0  0  0  0  0  0  0  0  0  0  0  0
  144.3590   72.3160  220.3260 C   0  0  0  0  0  0  0  0  0  0  0  0
  144.4610   73.8170  220.4830 C   0  0  0  0  0  0  0  0  0  0  0  0
  143.2440   74.4850  220.0680 N   0  0  0  0  0  0  0  0  0  0  0  0
  142.8450   74.1090  218.7470 C   0  0  0  0  0  0  0  0  0  0  0  0
  140.3990   74.3220  220.5150 N   0  0  0  0  0  0  0  0  0  0  0  0
  140.0960   74.6480  221.7840 C   0  0  0  0  0  0  0  0  0  0  0  0
  139.9210   76.0000  222.1500 N   0  0  0  0  0  0  0  0  0  0  0  0
  138.6280   76.4430  222.6390 C   0  0  0  0  0  0  0  0  0  0  0  0
  138.3480   77.7800  221.9400 C   0  0  0  0  0  0  0  0  0  0  0  0
  139.3500   78.7200  222.5630 C   0  0  0  0  0  0  0  0  0  0  0  0
  138.9740   79.9470  223.0670 C   0  0  0  0  0  0  0  0  0  0  0  0
  139.9440   80.7560  223.6240 C   0  0  0  0  0  0  0  0  0  0  0  0
  141.2700   80.3150  223.6600 C   0  0  0  0  0  0  0  0  0  0  0  0
  141.6170   79.0800  223.1450 C   0  0  0  0  0  0  0  0  0  0  0  0
  140.6540   78.2600  222.5860 C   0  0  0  0  0  0  0  0  0  0  0  0
  141.0270   76.9310  222.0330 C   0  0  0  0  0  0  0  0  0  0  0  0
  139.9600   73.6670  222.7060 N   0  0  0  0  0  0  0  0  0  0  0  0
  141.0820   71.1810  224.3540 C   0  0  0  0  0  0  0  0  0  0  0  0
  138.9900   69.3390  228.9170 H   0  0  0  0  0  0  0  0  0  0  0  0
  140.7690   71.0285  228.9932 H   0  0  0  0  0  0  0  0  0  0  0  0
  141.8017   71.9422  226.9325 H   0  0  0  0  0  0  0  0  0  0  0  0
  138.1620   68.4881  226.7027 H   0  0  0  0  0  0  0  0  0  0  0  0
  139.9599   68.8435  223.7151 H   0  0  0  0  0  0  0  0  0  0  0  0
  138.3154   68.5784  224.2633 H   0  0  0  0  0  0  0  0  0  0  0  0
  138.2887   70.4386  222.5677 H   0  0  0  0  0  0  0  0  0  0  0  0
  137.9499   71.1827  224.1276 H   0  0  0  0  0  0  0  0  0  0  0  0
  140.5464   71.5808  218.6068 H   0  0  0  0  0  0  0  0  0  0  0  0
  140.4156   73.2458  218.0500 H   0  0  0  0  0  0  0  0  0  0  0  0
  142.8248   72.2354  217.8168 H   0  0  0  0  0  0  0  0  0  0  0  0
  142.2923   72.0064  220.7419 H   0  0  0  0  0  0  0  0  0  0  0  0
  143.0590   70.8505  219.5432 H   0  0  0  0  0  0  0  0  0  0  0  0
  144.5882   71.8403  221.2910 H   0  0  0  0  0  0  0  0  0  0  0  0
  145.0751   72.0028  219.5520 H   0  0  0  0  0  0  0  0  0  0  0  0
  144.6536   74.0522  221.5402 H   0  0  0  0  0  0  0  0  0  0  0  0
  145.2819   74.1729  219.8431 H   0  0  0  0  0  0  0  0  0  0  0  0
  142.4710   74.3850  220.7470 H   0  0  0  0  0  0  0  0  0  0  0  0
  142.0023   74.7386  218.4255 H   0  0  0  0  0  0  0  0  0  0  0  0
  143.6899   74.2459  218.0561 H   0  0  0  0  0  0  0  0  0  0  0  0
  137.8504   75.7080  222.3839 H   0  0  0  0  0  0  0  0  0  0  0  0
  138.6266   76.5521  223.7336 H   0  0  0  0  0  0  0  0  0  0  0  0
  138.5083   77.6974  220.8549 H   0  0  0  0  0  0  0  0  0  0  0  0
  137.3087   78.1185  222.0635 H   0  0  0  0  0  0  0  0  0  0  0  0
  137.9245   80.2740  223.0262 H   0  0  0  0  0  0  0  0  0  0  0  0
  139.6756   81.7399  224.0362 H   0  0  0  0  0  0  0  0  0  0  0  0
  142.0454   80.9574  224.1028 H   0  0  0  0  0  0  0  0  0  0  0  0
  142.6650   78.7477  223.1801 H   0  0  0  0  0  0  0  0  0  0  0  0
  141.2942   77.0432  220.9719 H   0  0  0  0  0  0  0  0  0  0  0  0
  141.8826   76.5380  222.6018 H   0  0  0  0  0  0  0  0  0  0  0  0
  141.7621   70.4227  223.9388 H   0  0  0  0  0  0  0  0  0  0  0  0
  141.6393   72.1202  224.4852 H   0  0  0  0  0  0  0  0  0  0  0  0
  1  2  2  0
  2  3  1  0
  3  4  2  0
  4  5  1  0
  5  6  2  0
  5  7  1  0
  7  8  1  0
  8  9  1  0
  9 10  1  0
 10 11  2  0
 11 12  1  0
 12 13  1  0
 13 14  1  0
 14 15  1  0
 15 16  1  0
 16 17  1  0
 17 18  1  0
 18 19  1  0
 12 20  2  0
 20 21  1  0
 21 22  1  0
 22 23  1  0
 23 24  1  0
 24 25  1  0
 25 26  2  0
 26 27  1  0
 27 28  2  0
 28 29  1  0
 29 30  2  0
 30 31  1  0
 21 32  2  0
  9 33  1  0
  6  1  1  0
 32 10  1  0
 33  4  1  0
 19 14  1  0
 31 22  1  0
 30 25  1  0
  1 34  1  0
  2 35  1  0
  3 36  1  0
  6 37  1  0
  7 38  1  0
  7 39  1  0
  8 40  1  0
  8 41  1  0
 13 42  1  0
 13 43  1  0
 14 44  1  6
 15 45  1  0
 15 46  1  0
 16 47  1  0
 16 48  1  0
 17 49  1  0
 17 50  1  0
 18 51  1  0
 19 52  1  0
 19 53  1  0
 23 54  1  0
 23 55  1  0
 24 56  1  0
 24 57  1  0
 26 58  1  0
 27 59  1  0
 28 60  1  0
 29 61  1  0
 31 62  1  0
 31 63  1  0
 33 64  1  0
 33 65  1  0
M  END
>  <smiles>  (7) 
c1ccc2c(c1)CCN(c1nc(CC3CCCNC3)nc(N3CCc4ccccc4C3)n1)C2

>  <score_type>  (7) 
oracle

>  <origin>  (7) 
autodockgpu

>  <m_score__min__energy>  (7) 
-10.23

>  <m_primary>  (7) 
energy

>  <rmsd>  (7) 
10.804832586519916

>  <m_score__min__rmsd>  (7) 
10.804832586519916

>  <meeko>  (7) 
{"free_energy": -9.19, "intermolecular_energy": -10.39, "internal_energy": -2.0, "cluster_size": 50, "cluster_id": 1, "rank_in_cluster": 41}

>  <energy>  (7) 
-10.18

>  <cluster_rmsd>  (7) 
0.45

>  <cluster>  (7) 
1

$$$$

     RDKit          3D

 65 70  0  0  0  0  0  0  0  0999 V2000
  139.6340   69.7870  228.2170 C   0  0  0  0  0  0  0  0  0  0  0  0
  140.4320   70.9120  228.1930 C   0  0  0  0  0  0  0  0  0  0  0  0
  140.9320   71.4520  227.0250 C   0  0  0  0  0  0  0  0  0  0  0  0
  140.6030   70.8180  225.8450 C   0  0  0  0  0  0  0  0  0  0  0  0
  139.8050   69.6900  225.8680 C   0  0  0  0  0  0  0  0  0  0  0  0
  139.3020   69.1480  227.0330 C   0  0  0  0  0  0  0  0  0  0  0  0
  139.5110   69.0800  224.5210 C   0  0  0  0  0  0  0  0  0  0  0  0
  138.8750   70.2380  223.7370 C   0  0  0  0  0  0  0  0  0  0  0  0
  139.9480   71.2040  223.5790 N   0  0  0  0  0  0  0  0  0  0  0  0
  139.9400   72.1190  222.4880 C   0  0  0  0  0  0  0  0  0  0  0  0
  139.9820   71.7280  221.2010 N   0  0  0  0  0  0  0  0  0  0  0  0
  139.9730   72.6420  220.1980 C   0  0  0  0  0  0  0  0  0  0  0  0
  140.0200   72.1390  218.7800 C   0  0  0  0  0  0  0  0  0  0  0  0
  141.4880   71.7520  218.5600 C   0  0  2  0  0  0  0  0  0  0  0  0
  141.7210   70.4280  219.2120 C   0  0  0  0  0  0  0  0  0  0  0  0
  143.1590   70.1740  219.6070 C   0  0  0  0  0  0  0  0  0  0  0  0
  143.7540   71.3540  220.3430 C   0  0  0  0  0  0  0  0  0  0  0  0
  142.8380   72.4760  220.3900 N   0  0  0  0  0  0  0  0  0  0  0  0
  142.3610   72.8380  219.0920 C   0  0  0  0  0  0  0  0  0  0  0  0
  139.9210   73.9630  220.4500 N   0  0  0  0  0  0  0  0  0  0  0  0
  139.8790   74.3670  221.7320 C   0  0  0  0  0  0  0  0  0  0  0  0
  139.8250   75.7420  222.0430 N   0  0  0  0  0  0  0  0  0  0  0  0
  138.5400   76.3550  222.3340 C   0  0  0  0  0  0  0  0  0  0  0  0
  138.5300   77.6900  221.5770 C   0  0  0  0  0  0  0  0  0  0  0  0
  139.5440   78.5240  222.3190 C   0  0  0  0  0  0  0  0  0  0  0  0
  139.2570   79.8050  222.7420 C   0  0  0  0  0  0  0  0  0  0  0  0
  140.2320   80.5110  223.4160 C   0  0  0  0  0  0  0  0  0  0  0  0
  141.4750   79.9140  223.6500 C   0  0  0  0  0  0  0  0  0  0  0  0
  141.7340   78.6290  223.2140 C   0  0  0  0  0  0  0  0  0  0  0  0
  140.7650   77.9110  222.5380 C   0  0  0  0  0  0  0  0  0  0  0  0
  141.0430   76.5280  222.0690 C   0  0  0  0  0  0  0  0  0  0  0  0
  139.8890   73.4410  222.7190 N   0  0  0  0  0  0  0  0  0  0  0  0
  141.0700   71.2860  224.5120 C   0  0  0  0  0  0  0  0  0  0  0  0
  139.2613   69.3973  229.1757 H   0  0  0  0  0  0  0  0  0  0  0  0
  140.6809   71.4004  229.1467 H   0  0  0  0  0  0  0  0  0  0  0  0
  141.5664   72.3506  227.0349 H   0  0  0  0  0  0  0  0  0  0  0  0
  138.6667   68.2500  227.0224 H   0  0  0  0  0  0  0  0  0  0  0  0
  140.4356   68.7361  224.0343 H   0  0  0  0  0  0  0  0  0  0  0  0
  138.8606   68.1950  224.5830 H   0  0  0  0  0  0  0  0  0  0  0  0
  138.5157   69.8924  222.7565 H   0  0  0  0  0  0  0  0  0  0  0  0
  138.0025   70.6635  224.2544 H   0  0  0  0  0  0  0  0  0  0  0  0
  139.3642   71.2647  218.6554 H   0  0  0  0  0  0  0  0  0  0  0  0
  139.6722   72.8914  218.0568 H   0  0  0  0  0  0  0  0  0  0  0  0
  141.7337   71.6446  217.4932 H   0  0  0  0  0  0  0  0  0  0  0  0
  141.1003   70.3763  220.1187 H   0  0  0  0  0  0  0  0  0  0  0  0
  141.4575   69.6602  218.4697 H   0  0  0  0  0  0  0  0  0  0  0  0
  143.1984   69.2898  220.2602 H   0  0  0  0  0  0  0  0  0  0  0  0
  143.7432   70.0125  218.6891 H   0  0  0  0  0  0  0  0  0  0  0  0
  143.9948   71.0475  221.3716 H   0  0  0  0  0  0  0  0  0  0  0  0
  144.6582   71.6729  219.8038 H   0  0  0  0  0  0  0  0  0  0  0  0
  142.0640   72.3430  221.0620 H   0  0  0  0  0  0  0  0  0  0  0  0
  141.7832   73.7715  219.1613 H   0  0  0  0  0  0  0  0  0  0  0  0
  143.2162   72.9841  218.4157 H   0  0  0  0  0  0  0  0  0  0  0  0
  137.7204   75.7103  221.9837 H   0  0  0  0  0  0  0  0  0  0  0  0
  138.3983   76.5024  223.4148 H   0  0  0  0  0  0  0  0  0  0  0  0
  138.8290   77.5492  220.5278 H   0  0  0  0  0  0  0  0  0  0  0  0
  137.5341   78.1560  221.5440 H   0  0  0  0  0  0  0  0  0  0  0  0
  138.2721   80.2540  222.5462 H   0  0  0  0  0  0  0  0  0  0  0  0
  140.0335   81.5346  223.7664 H   0  0  0  0  0  0  0  0  0  0  0  0
  142.2549   80.4738  224.1870 H   0  0  0  0  0  0  0  0  0  0  0  0
  142.7171   78.1743  223.4058 H   0  0  0  0  0  0  0  0  0  0  0  0
  141.4682   76.5689  221.0553 H   0  0  0  0  0  0  0  0  0  0  0  0
  141.7545   76.0555  222.7621 H   0  0  0  0  0  0  0  0  0  0  0  0
  141.8935   70.6469  224.1607 H   0  0  0  0  0  0  0  0  0  0  0  0
  141.4325   72.3224  224.5793 H   0  0  0  0  0  0  0  0  0  0  0  0
  1  2  2  0
  2  3  1  0
  3  4  2  0
  4  5  1  0
  5  6  2  0
  5  7  1  0
  7  8  1  0
  8  9  1  0
  9 10  1  0
 10 11  2  0
 11 12  1  0
 12 13  1  0
 13 14  1  0
 14 15  1  0
 15 16  1  0
 16 17  1  0
 17 18  1  0
 18 19  1  0
 12 20  2  0
 20 21  1  0
 21 22  1  0
 22 23  1  0
 23 24  1  0
 24 25  1  0
 25 26  2  0
 26 27  1  0
 27 28  2  0
 28 29  1  0
 29 30  2  0
 30 31  1  0
 21 32  2  0
  9 33  1  0
  6  1  1  0
 32 10  1  0
 33  4  1  0
 19 14  1  0
 31 22  1  0
 30 25  1  0
  1 34  1  0
  2 35  1  0
  3 36  1  0
  6 37  1  0
  7 38  1  0
  7 39  1  0
  8 40  1  0
  8 41  1  0
 13 42  1  0
 13 43  1  0
 14 44  1  6
 15 45  1  0
 15 46  1  0
 16 47  1  0
 16 48  1  0
 17 49  1  0
 17 50  1  0
 18 51  1  0
 19 52  1  0
 19 53  1  0
 23 54  1  0
 23 55  1  0
 24 56  1  0
 24 57  1  0
 26 58  1  0
 27 59  1  0
 28 60  1  0
 29 61  1  0
 31 62  1  0
 31 63  1  0
 33 64  1  0
 33 65  1  0
M  END
>  <smiles>  (8) 
c1ccc2c(c1)CCN(c1nc(CC3CCCNC3)nc(N3CCc4ccccc4C3)n1)C2

>  <score_type>  (8) 
oracle

>  <origin>  (8) 
autodockgpu

>  <m_score__min__energy>  (8) 
-10.23

>  <m_primary>  (8) 
energy

>  <rmsd>  (8) 
10.867826379978675

>  <m_score__min__rmsd>  (8) 
10.867826379978675

>  <meeko>  (8) 
{"free_energy": -8.76, "intermolecular_energy": -9.95, "internal_energy": -2.06, "cluster_size": 50, "cluster_id": 1, "rank_in_cluster": 50}

>  <energy>  (8) 
-9.47

>  <cluster_rmsd>  (8) 
0.83

>  <cluster>  (8) 
1

$$$$

     RDKit          3D

 65 70  0  0  0  0  0  0  0  0999 V2000
  141.0330   81.2170  222.4470 C   0  0  0  0  0  0  0  0  0  0  0  0
  142.2140   80.5720  222.7480 C   0  0  0  0  0  0  0  0  0  0  0  0
  142.2970   79.2060  222.9300 C   0  0  0  0  0  0  0  0  0  0  0  0
  141.1310   78.4800  222.8010 C   0  0  0  0  0  0  0  0  0  0  0  0
  139.9470   79.1260  222.5010 C   0  0  0  0  0  0  0  0  0  0  0  0
  139.8600   80.4900  222.3170 C   0  0  0  0  0  0  0  0  0  0  0  0
  138.7370   78.2340  222.3840 C   0  0  0  0  0  0  0  0  0  0  0  0
  139.1450   77.2190  221.3070 C   0  0  0  0  0  0  0  0  0  0  0  0
  140.2220   76.4550  221.9130 N   0  0  0  0  0  0  0  0  0  0  0  0
  140.4890   75.1230  221.4890 C   0  0  0  0  0  0  0  0  0  0  0  0
  140.9660   74.8230  220.2670 N   0  0  0  0  0  0  0  0  0  0  0  0
  141.2030   73.5350  219.9120 C   0  0  0  0  0  0  0  0  0  0  0  0
  141.7360   73.2670  218.5300 C   0  0  0  0  0  0  0  0  0  0  0  0
  143.2590   73.3610  218.6830 C   0  0  2  0  0  0  0  0  0  0  0  0
  143.6790   72.3990  219.7440 C   0  0  0  0  0  0  0  0  0  0  0  0
  144.9820   72.7540  220.4260 C   0  0  0  0  0  0  0  0  0  0  0  0
  145.0170   74.2080  220.8430 C   0  0  0  0  0  0  0  0  0  0  0  0
  143.8440   74.9260  220.3870 N   0  0  0  0  0  0  0  0  0  0  0  0
  143.6310   74.7760  218.9820 C   0  0  0  0  0  0  0  0  0  0  0  0
  140.9730   72.5170  220.7620 N   0  0  0  0  0  0  0  0  0  0  0  0
  140.4970   72.8030  221.9860 C   0  0  0  0  0  0  0  0  0  0  0  0
  140.2420   71.7680  222.9100 N   0  0  0  0  0  0  0  0  0  0  0  0
  139.5320   70.5800  222.4690 C   0  0  0  0  0  0  0  0  0  0  0  0
  138.5080   70.2680  223.5690 C   0  0  0  0  0  0  0  0  0  0  0  0
  139.3620   69.8130  224.7260 C   0  0  0  0  0  0  0  0  0  0  0  0
  139.0910   68.6460  225.4100 C   0  0  0  0  0  0  0  0  0  0  0  0
  139.9140   68.2900  226.4580 C   0  0  0  0  0  0  0  0  0  0  0  0
  140.9910   69.1140  226.7970 C   0  0  0  0  0  0  0  0  0  0  0  0
  141.2380   70.2780  226.0940 C   0  0  0  0  0  0  0  0  0  0  0  0
  140.4200   70.6450  225.0410 C   0  0  0  0  0  0  0  0  0  0  0  0
  140.6860   71.8970  224.2850 C   0  0  0  0  0  0  0  0  0  0  0  0
  140.2660   74.0940  222.3220 N   0  0  0  0  0  0  0  0  0  0  0  0
  141.0680   77.0030  222.9710 C   0  0  0  0  0  0  0  0  0  0  0  0
  141.0217   82.3084  222.3101 H   0  0  0  0  0  0  0  0  0  0  0  0
  143.1304   81.1723  222.8475 H   0  0  0  0  0  0  0  0  0  0  0  0
  143.2531   78.7168  223.1680 H   0  0  0  0  0  0  0  0  0  0  0  0
  138.9038   80.9785  222.0781 H   0  0  0  0  0  0  0  0  0  0  0  0
  138.5253   77.7307  223.3390 H   0  0  0  0  0  0  0  0  0  0  0  0
  137.8203   78.7857  222.1284 H   0  0  0  0  0  0  0  0  0  0  0  0
  138.2997   76.5632  221.0513 H   0  0  0  0  0  0  0  0  0  0  0  0
  139.4545   77.7060  220.3705 H   0  0  0  0  0  0  0  0  0  0  0  0
  141.4405   72.2646  218.1866 H   0  0  0  0  0  0  0  0  0  0  0  0
  141.3451   73.9760  217.7853 H   0  0  0  0  0  0  0  0  0  0  0  0
  143.7865   73.0854  217.7579 H   0  0  0  0  0  0  0  0  0  0  0  0
  142.8888   72.3626  220.5084 H   0  0  0  0  0  0  0  0  0  0  0  0
  143.8375   71.4308  219.2465 H   0  0  0  0  0  0  0  0  0  0  0  0
  145.0998   72.1238  221.3198 H   0  0  0  0  0  0  0  0  0  0  0  0
  145.8009   72.5821  219.7119 H   0  0  0  0  0  0  0  0  0  0  0  0
  145.0638   74.2628  221.9406 H   0  0  0  0  0  0  0  0  0  0  0  0
  145.9026   74.6739  220.3862 H   0  0  0  0  0  0  0  0  0  0  0  0
  142.9940   74.7070  220.9330 H   0  0  0  0  0  0  0  0  0  0  0  0
  142.8185   75.4444  218.6609 H   0  0  0  0  0  0  0  0  0  0  0  0
  144.5536   75.0345  218.4417 H   0  0  0  0  0  0  0  0  0  0  0  0
  139.0209   70.7723  221.5141 H   0  0  0  0  0  0  0  0  0  0  0  0
  140.2190   69.7365  222.3064 H   0  0  0  0  0  0  0  0  0  0  0  0
  137.9311   71.1659  223.8353 H   0  0  0  0  0  0  0  0  0  0  0  0
  137.7657   69.5162  223.2627 H   0  0  0  0  0  0  0  0  0  0  0  0
  138.2373   68.0133  225.1258 H   0  0  0  0  0  0  0  0  0  0  0  0
  139.7244   67.3651  227.0224 H   0  0  0  0  0  0  0  0  0  0  0  0
  141.6491   68.8330  227.6324 H   0  0  0  0  0  0  0  0  0  0  0  0
  142.0896   70.9158  226.3734 H   0  0  0  0  0  0  0  0  0  0  0  0
  140.1471   72.7288  224.7623 H   0  0  0  0  0  0  0  0  0  0  0  0
  141.7687   72.0914  224.2910 H   0  0  0  0  0  0  0  0  0  0  0  0
  140.6386   76.7597  223.9541 H   0  0  0  0  0  0  0  0  0  0  0  0
  142.0779   76.5712  222.9106 H   0  0  0  0  0  0  0  0  0  0  0  0
  1  2  2  0
  2  3  1  0
  3  4  2  0
  4  5  1  0
  5  6  2  0
  5  7  1  0
  7  8  1  0
  8  9  1  0
  9 10  1  0
 10 11  2  0
 11 12  1  0
 12 13  1  0
 13 14  1  0
 14 15  1  0
 15 16  1  0
 16 17  1  0
 17 18  1  0
 18 19  1  0
 12 20  2  0
 20 21  1  0
 21 22  1  0
 22 23  1  0
 23 24  1  0
 24 25  1  0
 25 26  2  0
 26 27  1  0
 27 28  2  0
 28 29  1  0
 29 30  2  0
 30 31  1  0
 21 32  2  0
  9 33  1  0
  6  1  1  0
 32 10  1  0
 33  4  1  0
 19 14  1  0
 31 22  1  0
 30 25  1  0
  1 34  1  0
  2 35  1  0
  3 36  1  0
  6 37  1  0
  7 38  1  0
  7 39  1  0
  8 40  1  0
  8 41  1  0
 13 42  1  0
 13 43  1  0
 14 44  1  6
 15 45  1  0
 15 46  1  0
 16 47  1  0
 16 48  1  0
 17 49  1  0
 17 50  1  0
 18 51  1  0
 19 52  1  0
 19 53  1  0
 23 54  1  0
 23 55  1  0
 24 56  1  0
 24 57  1  0
 26 58  1  0
 27 59  1  0
 28 60  1  0
 29 61  1  0
 31 62  1  0
 31 63  1  0
 33 64  1  0
 33 65  1  0
M  END
>  <smiles>  (9) 
c1ccc2c(c1)CCN(c1nc(CC3CCCNC3)nc(N3CCc4ccccc4C3)n1)C2

>  <score_type>  (9) 
oracle

>  <origin>  (9) 
autodockgpu

>  <m_score__min__energy>  (9) 
-10.23

>  <m_primary>  (9) 
energy

>  <rmsd>  (9) 
4.9508983494117516

>  <m_score__min__rmsd>  (9) 
4.9508983494117516

>  <meeko>  (9) 
{"free_energy": -9.27, "intermolecular_energy": -10.47, "internal_energy": -2.01, "cluster_size": 50, "cluster_id": 1, "rank_in_cluster": 37}

>  <energy>  (9) 
-9.46

>  <cluster_rmsd>  (9) 
0.81

>  <cluster>  (9) 
1

$$$$

     RDKit          3D

 65 70  0  0  0  0  0  0  0  0999 V2000
  140.9440   81.2750  222.5710 C   0  0  0  0  0  0  0  0  0  0  0  0
  142.1550   80.6510  222.7910 C   0  0  0  0  0  0  0  0  0  0  0  0
  142.2770   79.2840  222.9420 C   0  0  0  0  0  0  0  0  0  0  0  0
  141.1220   78.5350  222.8650 C   0  0  0  0  0  0  0  0  0  0  0  0
  139.9090   79.1590  222.6450 C   0  0  0  0  0  0  0  0  0  0  0  0
  139.7820   80.5240  222.4920 C   0  0  0  0  0  0  0  0  0  0  0  0
  138.7140   78.2420  222.5780 C   0  0  0  0  0  0  0  0  0  0  0  0
  139.0830   77.2570  221.4600 C   0  0  0  0  0  0  0  0  0  0  0  0
  140.2080   76.5070  221.9900 N   0  0  0  0  0  0  0  0  0  0  0  0
  140.4800   75.1890  221.5250 C   0  0  0  0  0  0  0  0  0  0  0  0
  140.9540   74.9280  220.2930 N   0  0  0  0  0  0  0  0  0  0  0  0
  141.1950   73.6520  219.8990 C   0  0  0  0  0  0  0  0  0  0  0  0
  141.7260   73.4280  218.5080 C   0  0  0  0  0  0  0  0  0  0  0  0
  143.2500   73.4680  218.6680 C   0  0  2  0  0  0  0  0  0  0  0  0
  143.6350   72.4570  219.6970 C   0  0  0  0  0  0  0  0  0  0  0  0
  144.9450   72.7470  220.3950 C   0  0  0  0  0  0  0  0  0  0  0  0
  145.0260   74.1840  220.8610 C   0  0  0  0  0  0  0  0  0  0  0  0
  143.8780   74.9550  220.4270 N   0  0  0  0  0  0  0  0  0  0  0  0
  143.6660   74.8590  219.0170 C   0  0  0  0  0  0  0  0  0  0  0  0
  140.9730   72.6080  220.7180 N   0  0  0  0  0  0  0  0  0  0  0  0
  140.4990   72.8550  221.9520 C   0  0  0  0  0  0  0  0  0  0  0  0
  140.2510   71.7920  222.8450 N   0  0  0  0  0  0  0  0  0  0  0  0
  139.5780   70.5990  222.3620 C   0  0  0  0  0  0  0  0  0  0  0  0
  138.5420   70.2360  223.4340 C   0  0  0  0  0  0  0  0  0  0  0  0
  139.3840   69.7720  224.5950 C   0  0  0  0  0  0  0  0  0  0  0  0
  139.1280   68.5820  225.2450 C   0  0  0  0  0  0  0  0  0  0  0  0
  139.9400   68.2190  226.3000 C   0  0  0  0  0  0  0  0  0  0  0  0
  140.9900   69.0590  226.6800 C   0  0  0  0  0  0  0  0  0  0  0  0
  141.2220   70.2460  226.0110 C   0  0  0  0  0  0  0  0  0  0  0  0
  140.4170   70.6210  224.9510 C   0  0  0  0  0  0  0  0  0  0  0  0
  140.6670   71.8970  224.2310 C   0  0  0  0  0  0  0  0  0  0  0  0
  140.2640   74.1340  222.3280 N   0  0  0  0  0  0  0  0  0  0  0  0
  141.1010   77.0540  223.0090 C   0  0  0  0  0  0  0  0  0  0  0  0
  140.9010   82.3684  222.4583 H   0  0  0  0  0  0  0  0  0  0  0  0
  143.0627   81.2697  222.8486 H   0  0  0  0  0  0  0  0  0  0  0  0
  143.2552   78.8120  223.1165 H   0  0  0  0  0  0  0  0  0  0  0  0
  138.8036   80.9947  222.3154 H   0  0  0  0  0  0  0  0  0  0  0  0
  138.5673   77.7163  223.5331 H   0  0  0  0  0  0  0  0  0  0  0  0
  137.7725   78.7772  222.3851 H   0  0  0  0  0  0  0  0  0  0  0  0
  138.2392   76.5870  221.2385 H   0  0  0  0  0  0  0  0  0  0  0  0
  139.3290   77.7683  220.5176 H   0  0  0  0  0  0  0  0  0  0  0  0
  141.4012   72.4511  218.1205 H   0  0  0  0  0  0  0  0  0  0  0  0
  141.3604   74.1810  217.7944 H   0  0  0  0  0  0  0  0  0  0  0  0
  143.7717   73.2078  217.7352 H   0  0  0  0  0  0  0  0  0  0  0  0
  142.8407   72.4193  220.4570 H   0  0  0  0  0  0  0  0  0  0  0  0
  143.7652   71.5020  219.1670 H   0  0  0  0  0  0  0  0  0  0  0  0
  145.0382   72.0837  221.2676 H   0  0  0  0  0  0  0  0  0  0  0  0
  145.7608   72.5731  219.6779 H   0  0  0  0  0  0  0  0  0  0  0  0
  145.0712   74.2001  221.9599 H   0  0  0  0  0  0  0  0  0  0  0  0
  145.9277   74.6360  220.4221 H   0  0  0  0  0  0  0  0  0  0  0  0
  143.0190   74.7440  220.9620 H   0  0  0  0  0  0  0  0  0  0  0  0
  142.8767   75.5637  218.7164 H   0  0  0  0  0  0  0  0  0  0  0  0
  144.5991   75.1052  218.4891 H   0  0  0  0  0  0  0  0  0  0  0  0
  139.0801   70.8028  221.4025 H   0  0  0  0  0  0  0  0  0  0  0  0
  140.2880   69.7762  222.1921 H   0  0  0  0  0  0  0  0  0  0  0  0
  137.9394   71.1134  223.7114 H   0  0  0  0  0  0  0  0  0  0  0  0
  137.8236   69.4751  223.0950 H   0  0  0  0  0  0  0  0  0  0  0  0
  138.2949   67.9369  224.9291 H   0  0  0  0  0  0  0  0  0  0  0  0
  139.7621   67.2759  226.8376 H   0  0  0  0  0  0  0  0  0  0  0  0
  141.6390   68.7725  227.5207 H   0  0  0  0  0  0  0  0  0  0  0  0
  142.0521   70.8964  226.3237 H   0  0  0  0  0  0  0  0  0  0  0  0
  140.1002   72.7040  224.7183 H   0  0  0  0  0  0  0  0  0  0  0  0
  141.7445   72.1161  224.2619 H   0  0  0  0  0  0  0  0  0  0  0  0
  140.7339   76.7827  224.0098 H   0  0  0  0  0  0  0  0  0  0  0  0
  142.1149   76.6464  222.8830 H   0  0  0  0  0  0  0  0  0  0  0  0
  1  2  2  0
  2  3  1  0
  3  4  2  0
  4  5  1  0
  5  6  2  0
  5  7  1  0
  7  8  1  0
  8  9  1  0
  9 10  1  0
 10 11  2  0
 11 12  1  0
 12 13  1  0
 13 14  1  0
 14 15  1  0
 15 16  1  0
 16 17  1  0
 17 18  1  0
 18 19  1  0
 12 20  2  0
 20 21  1  0
 21 22  1  0
 22 23  1  0
 23 24  1  0
 24 25  1  0
 25 26  2  0
 26 27  1  0
 27 28  2  0
 28 29  1  0
 29 30  2  0
 30 31  1  0
 21 32  2  0
  9 33  1  0
  6  1  1  0
 32 10  1  0
 33  4  1  0
 19 14  1  0
 31 22  1  0
 30 25  1  0
  1 34  1  0
  2 35  1  0
  3 36  1  0
  6 37  1  0
  7 38  1  0
  7 39  1  0
  8 40  1  0
  8 41  1  0
 13 42  1  0
 13 43  1  0
 14 44  1  6
 15 45  1  0
 15 46  1  0
 16 47  1  0
 16 48  1  0
 17 49  1  0
 17 50  1  0
 18 51  1  0
 19 52  1  0
 19 53  1  0
 23 54  1  0
 23 55  1  0
 24 56  1  0
 24 57  1  0
 26 58  1  0
 27 59  1  0
 28 60  1  0
 29 61  1  0
 31 62  1  0
 31 63  1  0
 33 64  1  0
 33 65  1  0
M  END
>  <smiles>  (10) 
c1ccc2c(c1)CCN(c1nc(CC3CCCNC3)nc(N3CCc4ccccc4C3)n1)C2

>  <score_type>  (10) 
oracle

>  <origin>  (10) 
autodockgpu

>  <m_score__min__energy>  (10) 
-10.23

>  <m_primary>  (10) 
energy

>  <rmsd>  (10) 
5.012362177217674

>  <m_score__min__rmsd>  (10) 
5.012362177217674

>  <meeko>  (10) 
{"free_energy": -9.29, "intermolecular_energy": -10.48, "internal_energy": -2.0, "cluster_size": 50, "cluster_id": 1, "rank_in_cluster": 31}

>  <energy>  (10) 
-9.45

>  <cluster_rmsd>  (10) 
0.83

>  <cluster>  (10) 
1

$$$$

     RDKit          3D

 65 70  0  0  0  0  0  0  0  0999 V2000
  141.7630   80.5070  222.4730 C   0  0  0  0  0  0  0  0  0  0  0  0
  142.1270   79.7420  223.5610 C   0  0  0  0  0  0  0  0  0  0  0  0
  141.7750   78.4130  223.6960 C   0  0  0  0  0  0  0  0  0  0  0  0
  141.0260   77.8530  222.6810 C   0  0  0  0  0  0  0  0  0  0  0  0
  140.6610   78.6190  221.5920 C   0  0  0  0  0  0  0  0  0  0  0  0
  141.0100   79.9470  221.4520 C   0  0  0  0  0  0  0  0  0  0  0  0
  139.8440   77.9040  220.5450 C   0  0  0  0  0  0  0  0  0  0  0  0
  140.7280   76.7100  220.1580 C   0  0  0  0  0  0  0  0  0  0  0  0
  140.7700   75.8840  221.3520 N   0  0  0  0  0  0  0  0  0  0  0  0
  141.0050   74.4830  221.2520 C   0  0  0  0  0  0  0  0  0  0  0  0
  141.5930   73.9110  220.1850 N   0  0  0  0  0  0  0  0  0  0  0  0
  141.7930   72.5700  220.1400 C   0  0  0  0  0  0  0  0  0  0  0  0
  142.4570   71.9930  218.9190 C   0  0  0  0  0  0  0  0  0  0  0  0
  143.9220   72.4320  219.0360 C   0  0  2  0  0  0  0  0  0  0  0  0
  144.3650   72.1960  220.4420 C   0  0  0  0  0  0  0  0  0  0  0  0
  145.5160   73.0720  220.8860 C   0  0  0  0  0  0  0  0  0  0  0  0
  145.2830   74.5240  220.5330 C   0  0  0  0  0  0  0  0  0  0  0  0
  144.0700   74.7010  219.7590 N   0  0  0  0  0  0  0  0  0  0  0  0
  144.0380   73.8560  218.6060 C   0  0  0  0  0  0  0  0  0  0  0  0
  141.4150   71.7670  221.1520 N   0  0  0  0  0  0  0  0  0  0  0  0
  140.8260   72.3260  222.2240 C   0  0  0  0  0  0  0  0  0  0  0  0
  140.4130   71.5240  223.3080 N   0  0  0  0  0  0  0  0  0  0  0  0
  139.6400   70.3210  223.0490 C   0  0  0  0  0  0  0  0  0  0  0  0
  138.5120   70.3130  224.0900 C   0  0  0  0  0  0  0  0  0  0  0  0
  139.2320   70.0490  225.3880 C   0  0  0  0  0  0  0  0  0  0  0  0
  138.8110   69.0700  226.2640 C   0  0  0  0  0  0  0  0  0  0  0  0
  139.5180   68.8820  227.4330 C   0  0  0  0  0  0  0  0  0  0  0  0
  140.6320   69.6840  227.6990 C   0  0  0  0  0  0  0  0  0  0  0  0
  141.0300   70.6580  226.8040 C   0  0  0  0  0  0  0  0  0  0  0  0
  140.3310   70.8550  225.6280 C   0  0  0  0  0  0  0  0  0  0  0  0
  140.7600   71.9030  224.6640 C   0  0  0  0  0  0  0  0  0  0  0  0
  140.6340   73.6660  222.2510 N   0  0  0  0  0  0  0  0  0  0  0  0
  140.5750   76.4360  222.6910 C   0  0  0  0  0  0  0  0  0  0  0  0
  142.0700   81.5617  222.4150 H   0  0  0  0  0  0  0  0  0  0  0  0
  142.7243   80.2109  224.3569 H   0  0  0  0  0  0  0  0  0  0  0  0
  142.0788   77.8259  224.5752 H   0  0  0  0  0  0  0  0  0  0  0  0
  140.7054   80.5332  220.5725 H   0  0  0  0  0  0  0  0  0  0  0  0
  138.8833   77.5645  220.9595 H   0  0  0  0  0  0  0  0  0  0  0  0
  139.5885   78.5447  219.6881 H   0  0  0  0  0  0  0  0  0  0  0  0
  140.2856   76.1554  219.3174 H   0  0  0  0  0  0  0  0  0  0  0  0
  141.7308   77.0218  219.8306 H   0  0  0  0  0  0  0  0  0  0  0  0
  142.3788   70.8958  218.9156 H   0  0  0  0  0  0  0  0  0  0  0  0
  141.9896   72.3390  217.9853 H   0  0  0  0  0  0  0  0  0  0  0  0
  144.5841   71.8503  218.3777 H   0  0  0  0  0  0  0  0  0  0  0  0
  143.5108   72.3848  221.1089 H   0  0  0  0  0  0  0  0  0  0  0  0
  144.7224   71.1568  220.4901 H   0  0  0  0  0  0  0  0  0  0  0  0
  145.6306   72.9843  221.9765 H   0  0  0  0  0  0  0  0  0  0  0  0
  146.4243   72.7343  220.3655 H   0  0  0  0  0  0  0  0  0  0  0  0
  145.2013   75.1077  221.4618 H   0  0  0  0  0  0  0  0  0  0  0  0
  146.1314   74.8685  219.9234 H   0  0  0  0  0  0  0  0  0  0  0  0
  143.2090   74.6170  220.3240 H   0  0  0  0  0  0  0  0  0  0  0  0
  143.1730   74.1218  217.9806 H   0  0  0  0  0  0  0  0  0  0  0  0
  144.9639   73.9900  218.0274 H   0  0  0  0  0  0  0  0  0  0  0  0
  139.2218   70.3466  222.0319 H   0  0  0  0  0  0  0  0  0  0  0  0
  140.2630   69.4173  223.1218 H   0  0  0  0  0  0  0  0  0  0  0  0
  137.9955   71.2838  224.1174 H   0  0  0  0  0  0  0  0  0  0  0  0
  137.7339   69.5666  223.8725 H   0  0  0  0  0  0  0  0  0  0  0  0
  137.9300   68.4524  226.0349 H   0  0  0  0  0  0  0  0  0  0  0  0
  139.2081   68.1076  228.1501 H   0  0  0  0  0  0  0  0  0  0  0  0
  141.1976   69.5377  228.6311 H   0  0  0  0  0  0  0  0  0  0  0  0
  141.9086   71.2806  227.0286 H   0  0  0  0  0  0  0  0  0  0  0  0
  140.2594   72.8502  224.9137 H   0  0  0  0  0  0  0  0  0  0  0  0
  141.8518   72.0196  224.7306 H   0  0  0  0  0  0  0  0  0  0  0  0
  139.5102   76.3863  222.9626 H   0  0  0  0  0  0  0  0  0  0  0  0
  141.1536   75.8588  223.4273 H   0  0  0  0  0  0  0  0  0  0  0  0
  1  2  2  0
  2  3  1  0
  3  4  2  0
  4  5  1  0
  5  6  2  0
  5  7  1  0
  7  8  1  0
  8  9  1  0
  9 10  1  0
 10 11  2  0
 11 12  1  0
 12 13  1  0
 13 14  1  0
 14 15  1  0
 15 16  1  0
 16 17  1  0
 17 18  1  0
 18 19  1  0
 12 20  2  0
 20 21  1  0
 21 22  1  0
 22 23  1  0
 23 24  1  0
 24 25  1  0
 25 26  2  0
 26 27  1  0
 27 28  2  0
 28 29  1  0
 29 30  2  0
 30 31  1  0
 21 32  2  0
  9 33  1  0
  6  1  1  0
 32 10  1  0
 33  4  1  0
 19 14  1  0
 31 22  1  0
 30 25  1  0
  1 34  1  0
  2 35  1  0
  3 36  1  0
  6 37  1  0
  7 38  1  0
  7 39  1  0
  8 40  1  0
  8 41  1  0
 13 42  1  0
 13 43  1  0
 14 44  1  6
 15 45  1  0
 15 46  1  0
 16 47  1  0
 16 48  1  0
 17 49  1  0
 17 50  1  0
 18 51  1  0
 19 52  1  0
 19 53  1  0
 23 54  1  0
 23 55  1  0
 24 56  1  0
 24 57  1  0
 26 58  1  0
 27 59  1  0
 28 60  1  0
 29 61  1  0
 31 62  1  0
 31 63  1  0
 33 64  1  0
 33 65  1  0
M  END
>  <smiles>  (11) 
c1ccc2c(c1)CCN(c1nc(CC3CCCNC3)nc(N3CCc4ccccc4C3)n1)C2

>  <score_type>  (11) 
oracle

>  <origin>  (11) 
autodockgpu

>  <m_score__min__energy>  (11) 
-10.23

>  <m_primary>  (11) 
energy

>  <rmsd>  (11) 
4.8202666100813225

>  <m_score__min__rmsd>  (11) 
4.8202666100813225

>  <meeko>  (11) 
{"free_energy": -9.3, "intermolecular_energy": -10.49, "internal_energy": -1.95, "cluster_size": 50, "cluster_id": 1, "rank_in_cluster": 29}

>  <energy>  (11) 
-9.45

>  <cluster_rmsd>  (11) 
0.84

>  <cluster>  (11) 
1

$$$$

     RDKit          3D

 65 70  0  0  0  0  0  0  0  0999 V2000
  141.5260   80.7940  222.2910 C   0  0  0  0  0  0  0  0  0  0  0  0
  142.0870   80.0750  223.3260 C   0  0  0  0  0  0  0  0  0  0  0  0
  141.8470   78.7290  223.5210 C   0  0  0  0  0  0  0  0  0  0  0  0
  141.0030   78.1030  222.6270 C   0  0  0  0  0  0  0  0  0  0  0  0
  140.4400   78.8230  221.5910 C   0  0  0  0  0  0  0  0  0  0  0  0
  140.6780   80.1670  221.3920 C   0  0  0  0  0  0  0  0  0  0  0  0
  139.5360   78.0370  220.6760 C   0  0  0  0  0  0  0  0  0  0  0  0
  140.4350   76.8950  220.1820 C   0  0  0  0  0  0  0  0  0  0  0  0
  140.6970   76.0960  221.3660 N   0  0  0  0  0  0  0  0  0  0  0  0
  141.0080   74.7120  221.2490 C   0  0  0  0  0  0  0  0  0  0  0  0
  141.7330   74.2050  220.2350 N   0  0  0  0  0  0  0  0  0  0  0  0
  142.0010   72.8770  220.1700 C   0  0  0  0  0  0  0  0  0  0  0  0
  142.8190   72.3740  219.0100 C   0  0  0  0  0  0  0  0  0  0  0  0
  144.1740   72.0080  219.6270 C   0  0  2  0  0  0  0  0  0  0  0  0
  144.3990   72.8910  220.8100 C   0  0  0  0  0  0  0  0  0  0  0  0
  145.8550   73.0910  221.1690 C   0  0  0  0  0  0  0  0  0  0  0  0
  146.6890   73.4370  219.9560 C   0  0  0  0  0  0  0  0  0  0  0  0
  145.9100   73.3830  218.7350 N   0  0  0  0  0  0  0  0  0  0  0  0
  145.2330   72.1330  218.5820 C   0  0  0  0  0  0  0  0  0  0  0  0
  141.5570   72.0220  221.1090 N   0  0  0  0  0  0  0  0  0  0  0  0
  140.8300   72.5150  222.1280 C   0  0  0  0  0  0  0  0  0  0  0  0
  140.3430   71.6560  223.1360 N   0  0  0  0  0  0  0  0  0  0  0  0
  139.4750   70.5500  222.7690 C   0  0  0  0  0  0  0  0  0  0  0  0
  138.3420   70.5440  223.8040 C   0  0  0  0  0  0  0  0  0  0  0  0
  139.0270   70.1060  225.0740 C   0  0  0  0  0  0  0  0  0  0  0  0
  138.5180   69.0910  225.8580 C   0  0  0  0  0  0  0  0  0  0  0  0
  139.1970   68.7410  227.0060 C   0  0  0  0  0  0  0  0  0  0  0  0
  140.3720   69.4190  227.3440 C   0  0  0  0  0  0  0  0  0  0  0  0
  140.8570   70.4330  226.5400 C   0  0  0  0  0  0  0  0  0  0  0  0
  140.1860   70.7920  225.3860 C   0  0  0  0  0  0  0  0  0  0  0  0
  140.7090   71.8830  224.5200 C   0  0  0  0  0  0  0  0  0  0  0  0
  140.5730   73.8430  222.1760 N   0  0  0  0  0  0  0  0  0  0  0  0
  140.6530   76.6600  222.7140 C   0  0  0  0  0  0  0  0  0  0  0  0
  141.7517   81.8648  222.1793 H   0  0  0  0  0  0  0  0  0  0  0  0
  142.7551   80.5968  224.0270 H   0  0  0  0  0  0  0  0  0  0  0  0
  142.3093   78.1792  224.3540 H   0  0  0  0  0  0  0  0  0  0  0  0
  140.2160   80.7158  220.5581 H   0  0  0  0  0  0  0  0  0  0  0  0
  138.6665   77.6446  221.2238 H   0  0  0  0  0  0  0  0  0  0  0  0
  139.1227   78.6432  219.8564 H   0  0  0  0  0  0  0  0  0  0  0  0
  139.9181   76.2972  219.4168 H   0  0  0  0  0  0  0  0  0  0  0  0
  141.3600   77.2646  219.7154 H   0  0  0  0  0  0  0  0  0  0  0  0
  142.3472   71.4904  218.5555 H   0  0  0  0  0  0  0  0  0  0  0  0
  142.9123   73.1213  218.2082 H   0  0  0  0  0  0  0  0  0  0  0  0
  144.2011   70.9667  219.9804 H   0  0  0  0  0  0  0  0  0  0  0  0
  143.9590   73.8757  220.5937 H   0  0  0  0  0  0  0  0  0  0  0  0
  143.9280   72.3922  221.6698 H   0  0  0  0  0  0  0  0  0  0  0  0
  145.9325   73.9094  221.8999 H   0  0  0  0  0  0  0  0  0  0  0  0
  146.2365   72.1488  221.5894 H   0  0  0  0  0  0  0  0  0  0  0  0
  147.0902   74.4539  220.0779 H   0  0  0  0  0  0  0  0  0  0  0  0
  147.5008   72.6990  219.8770 H   0  0  0  0  0  0  0  0  0  0  0  0
  145.2680   74.1850  218.6240 H   0  0  0  0  0  0  0  0  0  0  0  0
  144.7711   72.0861  217.5848 H   0  0  0  0  0  0  0  0  0  0  0  0
  145.9545   71.3100  218.6917 H   0  0  0  0  0  0  0  0  0  0  0  0
  139.0690   70.7013  221.7579 H   0  0  0  0  0  0  0  0  0  0  0  0
  140.0197   69.5944  222.7606 H   0  0  0  0  0  0  0  0  0  0  0  0
  137.9081   71.5484  223.9177 H   0  0  0  0  0  0  0  0  0  0  0  0
  137.5061   69.8878  223.5201 H   0  0  0  0  0  0  0  0  0  0  0  0
  137.5907   68.5723  225.5734 H   0  0  0  0  0  0  0  0  0  0  0  0
  138.8172   67.9347  227.6507 H   0  0  0  0  0  0  0  0  0  0  0  0
  140.9160   69.1425  228.2592 H   0  0  0  0  0  0  0  0  0  0  0  0
  141.7825   70.9575  226.8200 H   0  0  0  0  0  0  0  0  0  0  0  0
  140.2867   72.8426  224.8529 H   0  0  0  0  0  0  0  0  0  0  0  0
  141.8061   71.9024  224.5980 H   0  0  0  0  0  0  0  0  0  0  0  0
  139.6418   76.5469  223.1319 H   0  0  0  0  0  0  0  0  0  0  0  0
  141.3651   76.1356  223.3682 H   0  0  0  0  0  0  0  0  0  0  0  0
  1  2  2  0
  2  3  1  0
  3  4  2  0
  4  5  1  0
  5  6  2  0
  5  7  1  0
  7  8  1  0
  8  9  1  0
  9 10  1  0
 10 11  2  0
 11 12  1  0
 12 13  1  0
 13 14  1  0
 14 15  1  0
 15 16  1  0
 16 17  1  0
 17 18  1  0
 18 19  1  0
 12 20  2  0
 20 21  1  0
 21 22  1  0
 22 23  1  0
 23 24  1  0
 24 25  1  0
 25 26  2  0
 26 27  1  0
 27 28  2  0
 28 29  1  0
 29 30  2  0
 30 31  1  0
 21 32  2  0
  9 33  1  0
  6  1  1  0
 32 10  1  0
 33  4  1  0
 19 14  1  0
 31 22  1  0
 30 25  1  0
  1 34  1  0
  2 35  1  0
  3 36  1  0
  6 37  1  0
  7 38  1  0
  7 39  1  0
  8 40  1  0
  8 41  1  0
 13 42  1  0
 13 43  1  0
 14 44  1  1
 15 45  1  0
 15 46  1  0
 16 47  1  0
 16 48  1  0
 17 49  1  0
 17 50  1  0
 18 51  1  0
 19 52  1  0
 19 53  1  0
 23 54  1  0
 23 55  1  0
 24 56  1  0
 24 57  1  0
 26 58  1  0
 27 59  1  0
 28 60  1  0
 29 61  1  0
 31 62  1  0
 31 63  1  0
 33 64  1  0
 33 65  1  0
M  END
>  <smiles>  (12) 
c1ccc2c(c1)CCN(c1nc(CC3CCCNC3)nc(N3CCc4ccccc4C3)n1)C2

>  <score_type>  (12) 
oracle

>  <origin>  (12) 
autodockgpu

>  <m_score__min__energy>  (12) 
-10.23

>  <m_primary>  (12) 
energy

>  <rmsd>  (12) 
4.742028348844287

>  <m_score__min__rmsd>  (12) 
4.742028348844287

>  <meeko>  (12) 
{"free_energy": -10.23, "intermolecular_energy": -11.43, "internal_energy": -1.11, "cluster_size": 50, "cluster_id": 1, "rank_in_cluster": 1}

>  <energy>  (12) 
-9.44

>  <cluster_rmsd>  (12) 
0.83

>  <cluster>  (12) 
1

$$$$

     RDKit          3D

 65 70  0  0  0  0  0  0  0  0999 V2000
  141.3190   81.2440  222.4430 C   0  0  0  0  0  0  0  0  0  0  0  0
  142.4370   80.5430  222.8450 C   0  0  0  0  0  0  0  0  0  0  0  0
  142.4340   79.1760  223.0440 C   0  0  0  0  0  0  0  0  0  0  0  0
  141.2470   78.5090  222.8250 C   0  0  0  0  0  0  0  0  0  0  0  0
  140.1270   79.2100  222.4230 C   0  0  0  0  0  0  0  0  0  0  0  0
  140.1250   80.5750  222.2210 C   0  0  0  0  0  0  0  0  0  0  0  0
  138.8860   78.3800  222.2130 C   0  0  0  0  0  0  0  0  0  0  0  0
  139.3290   77.3330  221.1810 C   0  0  0  0  0  0  0  0  0  0  0  0
  140.3110   76.5230  221.8800 N   0  0  0  0  0  0  0  0  0  0  0  0
  140.5440   75.1740  221.4890 C   0  0  0  0  0  0  0  0  0  0  0  0
  141.0460   74.8330  220.2880 N   0  0  0  0  0  0  0  0  0  0  0  0
  141.2480   73.5300  219.9650 C   0  0  0  0  0  0  0  0  0  0  0  0
  141.8130   73.2170  218.6050 C   0  0  0  0  0  0  0  0  0  0  0  0
  143.3320   73.3050  218.7920 C   0  0  2  0  0  0  0  0  0  0  0  0
  143.6910   72.5550  220.0330 C   0  0  0  0  0  0  0  0  0  0  0  0
  144.9810   73.0070  220.6810 C   0  0  0  0  0  0  0  0  0  0  0  0
  145.0450   74.5120  220.8120 C   0  0  0  0  0  0  0  0  0  0  0  0
  143.9080   75.1550  220.1860 N   0  0  0  0  0  0  0  0  0  0  0  0
  143.7340   74.7410  218.8280 C   0  0  0  0  0  0  0  0  0  0  0  0
  140.9570   72.5390  220.8270 N   0  0  0  0  0  0  0  0  0  0  0  0
  140.4550   72.8650  222.0310 C   0  0  0  0  0  0  0  0  0  0  0  0
  140.1360   71.8580  222.9660 N   0  0  0  0  0  0  0  0  0  0  0  0
  139.2400   70.7840  222.5760 C   0  0  0  0  0  0  0  0  0  0  0  0
  138.2730   70.5930  223.7520 C   0  0  0  0  0  0  0  0  0  0  0  0
  139.1450   70.0080  224.8340 C   0  0  0  0  0  0  0  0  0  0  0  0
  138.7740   68.8770  225.5310 C   0  0  0  0  0  0  0  0  0  0  0  0
  139.6220   68.3960  226.5070 C   0  0  0  0  0  0  0  0  0  0  0  0
  140.8230   69.0630  226.7640 C   0  0  0  0  0  0  0  0  0  0  0  0
  141.1690   70.1950  226.0510 C   0  0  0  0  0  0  0  0  0  0  0  0
  140.3280   70.6860  225.0690 C   0  0  0  0  0  0  0  0  0  0  0  0
  140.7000   71.9040  224.3010 C   0  0  0  0  0  0  0  0  0  0  0  0
  140.2600   74.1700  222.3350 N   0  0  0  0  0  0  0  0  0  0  0  0
  141.0950   77.0400  223.0000 C   0  0  0  0  0  0  0  0  0  0  0  0
  141.3747   82.3331  222.2986 H   0  0  0  0  0  0  0  0  0  0  0  0
  143.3721   81.0969  223.0146 H   0  0  0  0  0  0  0  0  0  0  0  0
  143.3408   78.6417  223.3639 H   0  0  0  0  0  0  0  0  0  0  0  0
  139.2182   81.1077  221.8988 H   0  0  0  0  0  0  0  0  0  0  0  0
  138.5705   77.8994  223.1508 H   0  0  0  0  0  0  0  0  0  0  0  0
  138.0231   78.9745  221.8785 H   0  0  0  0  0  0  0  0  0  0  0  0
  138.4752   76.7179  220.8607 H   0  0  0  0  0  0  0  0  0  0  0  0
  139.7395   77.7927  220.2699 H   0  0  0  0  0  0  0  0  0  0  0  0
  141.5184   72.2068  218.2845 H   0  0  0  0  0  0  0  0  0  0  0  0
  141.4459   73.9063  217.8303 H   0  0  0  0  0  0  0  0  0  0  0  0
  143.8804   72.8453  217.9565 H   0  0  0  0  0  0  0  0  0  0  0  0
  142.8763   72.6829  220.7609 H   0  0  0  0  0  0  0  0  0  0  0  0
  143.8376   71.5060  219.7364 H   0  0  0  0  0  0  0  0  0  0  0  0
  145.0525   72.5588  221.6830 H   0  0  0  0  0  0  0  0  0  0  0  0
  145.8165   72.6830  220.0431 H   0  0  0  0  0  0  0  0  0  0  0  0
  145.0602   74.7762  221.8797 H   0  0  0  0  0  0  0  0  0  0  0  0
  145.9569   74.8609  220.3055 H   0  0  0  0  0  0  0  0  0  0  0  0
  143.0350   75.0640  220.7320 H   0  0  0  0  0  0  0  0  0  0  0  0
  142.9510   75.3526  218.3560 H   0  0  0  0  0  0  0  0  0  0  0  0
  144.6801   74.8700  218.2819 H   0  0  0  0  0  0  0  0  0  0  0  0
  138.6861   71.0594  221.6664 H   0  0  0  0  0  0  0  0  0  0  0  0
  139.7921   69.8590  222.3536 H   0  0  0  0  0  0  0  0  0  0  0  0
  137.8451   71.5554  224.0694 H   0  0  0  0  0  0  0  0  0  0  0  0
  137.4146   69.9526  223.5009 H   0  0  0  0  0  0  0  0  0  0  0  0
  137.8226   68.3696  225.3133 H   0  0  0  0  0  0  0  0  0  0  0  0
  139.3551   67.4947  227.0784 H   0  0  0  0  0  0  0  0  0  0  0  0
  141.5005   68.6826  227.5427 H   0  0  0  0  0  0  0  0  0  0  0  0
  142.1181   70.7081  226.2655 H   0  0  0  0  0  0  0  0  0  0  0  0
  140.3173   72.7924  224.8247 H   0  0  0  0  0  0  0  0  0  0  0  0
  141.7961   71.9518  224.2213 H   0  0  0  0  0  0  0  0  0  0  0  0
  140.5750   76.8300  223.9463 H   0  0  0  0  0  0  0  0  0  0  0  0
  142.0830   76.5572  223.0258 H   0  0  0  0  0  0  0  0  0  0  0  0
  1  2  2  0
  2  3  1  0
  3  4  2  0
  4  5  1  0
  5  6  2  0
  5  7  1  0
  7  8  1  0
  8  9  1  0
  9 10  1  0
 10 11  2  0
 11 12  1  0
 12 13  1  0
 13 14  1  0
 14 15  1  0
 15 16  1  0
 16 17  1  0
 17 18  1  0
 18 19  1  0
 12 20  2  0
 20 21  1  0
 21 22  1  0
 22 23  1  0
 23 24  1  0
 24 25  1  0
 25 26  2  0
 26 27  1  0
 27 28  2  0
 28 29  1  0
 29 30  2  0
 30 31  1  0
 21 32  2  0
  9 33  1  0
  6  1  1  0
 32 10  1  0
 33  4  1  0
 19 14  1  0
 31 22  1  0
 30 25  1  0
  1 34  1  0
  2 35  1  0
  3 36  1  0
  6 37  1  0
  7 38  1  0
  7 39  1  0
  8 40  1  0
  8 41  1  0
 13 42  1  0
 13 43  1  0
 14 44  1  6
 15 45  1  0
 15 46  1  0
 16 47  1  0
 16 48  1  0
 17 49  1  0
 17 50  1  0
 18 51  1  0
 19 52  1  0
 19 53  1  0
 23 54  1  0
 23 55  1  0
 24 56  1  0
 24 57  1  0
 26 58  1  0
 27 59  1  0
 28 60  1  0
 29 61  1  0
 31 62  1  0
 31 63  1  0
 33 64  1  0
 33 65  1  0
M  END
>  <smiles>  (13) 
c1ccc2c(c1)CCN(c1nc(CC3CCCNC3)nc(N3CCc4ccccc4C3)n1)C2

>  <score_type>  (13) 
oracle

>  <origin>  (13) 
autodockgpu

>  <m_score__min__energy>  (13) 
-10.23

>  <m_primary>  (13) 
energy

>  <rmsd>  (13) 
4.982553043684817

>  <m_score__min__rmsd>  (13) 
4.982553043684817

>  <meeko>  (13) 
{"free_energy": -9.26, "intermolecular_energy": -10.46, "internal_energy": -2.0, "cluster_size": 50, "cluster_id": 1, "rank_in_cluster": 38}

>  <energy>  (13) 
-9.44

>  <cluster_rmsd>  (13) 
0.8

>  <cluster>  (13) 
1

$$$$

     RDKit          3D

 65 70  0  0  0  0  0  0  0  0999 V2000
  139.3460   69.7400  227.9570 C   0  0  0  0  0  0  0  0  0  0  0  0
  140.3060   70.7280  228.0220 C   0  0  0  0  0  0  0  0  0  0  0  0
  140.9070   71.2650  226.9000 C   0  0  0  0  0  0  0  0  0  0  0  0
  140.5100   70.7720  225.6740 C   0  0  0  0  0  0  0  0  0  0  0  0
  139.5490   69.7820  225.6090 C   0  0  0  0  0  0  0  0  0  0  0  0
  138.9450   69.2430  226.7260 C   0  0  0  0  0  0  0  0  0  0  0  0
  139.1920   69.3190  224.2190 C   0  0  0  0  0  0  0  0  0  0  0  0
  138.7570   70.6120  223.5140 C   0  0  0  0  0  0  0  0  0  0  0  0
  139.9680   71.4110  223.4360 N   0  0  0  0  0  0  0  0  0  0  0  0
  140.1220   72.3900  222.4140 C   0  0  0  0  0  0  0  0  0  0  0  0
  140.4200   72.0800  221.1390 N   0  0  0  0  0  0  0  0  0  0  0  0
  140.5560   73.0530  220.2030 C   0  0  0  0  0  0  0  0  0  0  0  0
  140.8890   72.6390  218.7940 C   0  0  0  0  0  0  0  0  0  0  0  0
  142.3710   72.9970  218.6300 C   0  0  2  0  0  0  0  0  0  0  0  0
  143.0830   72.6130  219.8850 C   0  0  0  0  0  0  0  0  0  0  0  0
  144.3550   73.3900  220.1420 C   0  0  0  0  0  0  0  0  0  0  0  0
  144.1480   74.8780  219.9640 C   0  0  0  0  0  0  0  0  0  0  0  0
  142.8140   75.1810  219.4840 N   0  0  0  0  0  0  0  0  0  0  0  0
  142.4870   74.4480  218.3010 C   0  0  0  0  0  0  0  0  0  0  0  0
  140.3990   74.3530  220.5100 N   0  0  0  0  0  0  0  0  0  0  0  0
  140.1010   74.6770  221.7810 C   0  0  0  0  0  0  0  0  0  0  0  0
  139.9280   76.0280  222.1500 N   0  0  0  0  0  0  0  0  0  0  0  0
  138.6350   76.4700  222.6410 C   0  0  0  0  0  0  0  0  0  0  0  0
  138.3560   77.8100  221.9450 C   0  0  0  0  0  0  0  0  0  0  0  0
  139.3590   78.7470  222.5690 C   0  0  0  0  0  0  0  0  0  0  0  0
  138.9850   79.9740  223.0770 C   0  0  0  0  0  0  0  0  0  0  0  0
  139.9550   80.7800  223.6350 C   0  0  0  0  0  0  0  0  0  0  0  0
  141.2810   80.3370  223.6700 C   0  0  0  0  0  0  0  0  0  0  0  0
  141.6260   79.1040  223.1520 C   0  0  0  0  0  0  0  0  0  0  0  0
  140.6630   78.2850  222.5910 C   0  0  0  0  0  0  0  0  0  0  0  0
  141.0350   76.9580  222.0350 C   0  0  0  0  0  0  0  0  0  0  0  0
  139.9690   73.6930  222.7010 N   0  0  0  0  0  0  0  0  0  0  0  0
  141.0700   71.2540  224.3830 C   0  0  0  0  0  0  0  0  0  0  0  0
  138.8984   69.3462  228.8815 H   0  0  0  0  0  0  0  0  0  0  0  0
  140.6064   71.1050  229.0107 H   0  0  0  0  0  0  0  0  0  0  0  0
  141.6703   72.0529  226.9807 H   0  0  0  0  0  0  0  0  0  0  0  0
  138.1811   68.4558  226.6441 H   0  0  0  0  0  0  0  0  0  0  0  0
  140.0626   68.8710  223.7176 H   0  0  0  0  0  0  0  0  0  0  0  0
  138.4126   68.5428  224.2118 H   0  0  0  0  0  0  0  0  0  0  0  0
  138.3696   70.3944  222.5077 H   0  0  0  0  0  0  0  0  0  0  0  0
  137.9492   71.1296  224.0522 H   0  0  0  0  0  0  0  0  0  0  0  0
  140.7325   71.5586  218.6587 H   0  0  0  0  0  0  0  0  0  0  0  0
  140.2525   73.1390  218.0491 H   0  0  0  0  0  0  0  0  0  0  0  0
  142.8408   72.4477  217.8008 H   0  0  0  0  0  0  0  0  0  0  0  0
  142.4012   72.7784  220.7322 H   0  0  0  0  0  0  0  0  0  0  0  0
  143.3756   71.5588  219.7710 H   0  0  0  0  0  0  0  0  0  0  0  0
  144.6883   73.1973  221.1724 H   0  0  0  0  0  0  0  0  0  0  0  0
  145.1112   73.0598  219.4146 H   0  0  0  0  0  0  0  0  0  0  0  0
  144.3002   75.3773  220.9323 H   0  0  0  0  0  0  0  0  0  0  0  0
  144.8708   75.2374  219.2167 H   0  0  0  0  0  0  0  0  0  0  0  0
  142.0870   75.0850  220.2110 H   0  0  0  0  0  0  0  0  0  0  0  0
  141.5296   74.8102  217.8983 H   0  0  0  0  0  0  0  0  0  0  0  0
  143.2785   74.5914  217.5507 H   0  0  0  0  0  0  0  0  0  0  0  0
  137.8569   75.7361  222.3841 H   0  0  0  0  0  0  0  0  0  0  0  0
  138.6334   76.5757  223.7359 H   0  0  0  0  0  0  0  0  0  0  0  0
  138.5153   77.7298  220.8596 H   0  0  0  0  0  0  0  0  0  0  0  0
  137.3172   78.1495  222.0703 H   0  0  0  0  0  0  0  0  0  0  0  0
  137.9359   80.3023  223.0378 H   0  0  0  0  0  0  0  0  0  0  0  0
  139.6879   81.7634  224.0492 H   0  0  0  0  0  0  0  0  0  0  0  0
  142.0572   80.9771  224.1147 H   0  0  0  0  0  0  0  0  0  0  0  0
  142.6739   78.7711  223.1859 H   0  0  0  0  0  0  0  0  0  0  0  0
  141.3023   77.0725  220.9741 H   0  0  0  0  0  0  0  0  0  0  0  0
  141.8906   76.5629  222.6024 H   0  0  0  0  0  0  0  0  0  0  0  0
  141.7931   70.5217  223.9945 H   0  0  0  0  0  0  0  0  0  0  0  0
  141.5854   72.2149  224.5281 H   0  0  0  0  0  0  0  0  0  0  0  0
  1  2  2  0
  2  3  1  0
  3  4  2  0
  4  5  1  0
  5  6  2  0
  5  7  1  0
  7  8  1  0
  8  9  1  0
  9 10  1  0
 10 11  2  0
 11 12  1  0
 12 13  1  0
 13 14  1  0
 14 15  1  0
 15 16  1  0
 16 17  1  0
 17 18  1  0
 18 19  1  0
 12 20  2  0
 20 21  1  0
 21 22  1  0
 22 23  1  0
 23 24  1  0
 24 25  1  0
 25 26  2  0
 26 27  1  0
 27 28  2  0
 28 29  1  0
 29 30  2  0
 30 31  1  0
 21 32  2  0
  9 33  1  0
  6  1  1  0
 32 10  1  0
 33  4  1  0
 19 14  1  0
 31 22  1  0
 30 25  1  0
  1 34  1  0
  2 35  1  0
  3 36  1  0
  6 37  1  0
  7 38  1  0
  7 39  1  0
  8 40  1  0
  8 41  1  0
 13 42  1  0
 13 43  1  0
 14 44  1  6
 15 45  1  0
 15 46  1  0
 16 47  1  0
 16 48  1  0
 17 49  1  0
 17 50  1  0
 18 51  1  0
 19 52  1  0
 19 53  1  0
 23 54  1  0
 23 55  1  0
 24 56  1  0
 24 57  1  0
 26 58  1  0
 27 59  1  0
 28 60  1  0
 29 61  1  0
 31 62  1  0
 31 63  1  0
 33 64  1  0
 33 65  1  0
M  END
>  <smiles>  (14) 
c1ccc2c(c1)CCN(c1nc(CC3CCCNC3)nc(N3CCc4ccccc4C3)n1)C2

>  <score_type>  (14) 
oracle

>  <origin>  (14) 
autodockgpu

>  <m_score__min__energy>  (14) 
-10.23

>  <m_primary>  (14) 
energy

>  <rmsd>  (14) 
10.764929589031118

>  <m_score__min__rmsd>  (14) 
10.764929589031118

>  <meeko>  (14) 
{"free_energy": -9.07, "intermolecular_energy": -10.27, "internal_energy": -2.03, "cluster_size": 50, "cluster_id": 1, "rank_in_cluster": 47}

>  <energy>  (14) 
-9.43

>  <cluster_rmsd>  (14) 
0.82

>  <cluster>  (14) 
1

$$$$

     RDKit          3D

 65 70  0  0  0  0  0  0  0  0999 V2000
  141.8720   80.5930  222.7280 C   0  0  0  0  0  0  0  0  0  0  0  0
  142.1630   79.7800  223.8030 C   0  0  0  0  0  0  0  0  0  0  0  0
  141.7880   78.4520  223.8620 C   0  0  0  0  0  0  0  0  0  0  0  0
  141.0910   77.9450  222.7850 C   0  0  0  0  0  0  0  0  0  0  0  0
  140.7980   78.7590  221.7080 C   0  0  0  0  0  0  0  0  0  0  0  0
  141.1720   80.0860  221.6440 C   0  0  0  0  0  0  0  0  0  0  0  0
  140.0340   78.0990  220.5890 C   0  0  0  0  0  0  0  0  0  0  0  0
  140.9240   76.9090  220.2040 C   0  0  0  0  0  0  0  0  0  0  0  0
  140.8870   76.0340  221.3630 N   0  0  0  0  0  0  0  0  0  0  0  0
  141.1100   74.6360  221.2190 C   0  0  0  0  0  0  0  0  0  0  0  0
  141.7560   74.0990  220.1680 N   0  0  0  0  0  0  0  0  0  0  0  0
  141.9410   72.7570  220.0800 C   0  0  0  0  0  0  0  0  0  0  0  0
  142.6730   72.2210  218.8780 C   0  0  0  0  0  0  0  0  0  0  0  0
  144.1460   72.5450  219.1510 C   0  0  2  0  0  0  0  0  0  0  0  0
  144.4320   72.2340  220.5830 C   0  0  0  0  0  0  0  0  0  0  0  0
  145.5930   73.0080  221.1690 C   0  0  0  0  0  0  0  0  0  0  0  0
  145.5000   74.4840  220.8490 C   0  0  0  0  0  0  0  0  0  0  0  0
  144.3850   74.7740  219.9710 N   0  0  0  0  0  0  0  0  0  0  0  0
  144.4050   73.9700  218.7890 C   0  0  0  0  0  0  0  0  0  0  0  0
  141.4900   71.9200  221.0310 N   0  0  0  0  0  0  0  0  0  0  0  0
  140.8420   72.4440  222.0870 C   0  0  0  0  0  0  0  0  0  0  0  0
  140.3520   71.6040  223.1090 N   0  0  0  0  0  0  0  0  0  0  0  0
  139.5160   70.4690  222.7580 C   0  0  0  0  0  0  0  0  0  0  0  0
  138.3610   70.4680  223.7690 C   0  0  0  0  0  0  0  0  0  0  0  0
  139.0270   70.0820  225.0650 C   0  0  0  0  0  0  0  0  0  0  0  0
  138.5240   69.0790  225.8670 C   0  0  0  0  0  0  0  0  0  0  0  0
  139.1850   68.7770  227.0390 C   0  0  0  0  0  0  0  0  0  0  0  0
  140.3380   69.4910  227.3810 C   0  0  0  0  0  0  0  0  0  0  0  0
  140.8190   70.4910  226.5580 C   0  0  0  0  0  0  0  0  0  0  0  0
  140.1650   70.8020  225.3800 C   0  0  0  0  0  0  0  0  0  0  0  0
  140.6830   71.8780  224.4940 C   0  0  0  0  0  0  0  0  0  0  0  0
  140.6670   73.7840  222.1590 N   0  0  0  0  0  0  0  0  0  0  0  0
  140.6230   76.5350  222.7100 C   0  0  0  0  0  0  0  0  0  0  0  0
  142.1954   81.6444  222.7305 H   0  0  0  0  0  0  0  0  0  0  0  0
  142.7182   80.2078  224.6508 H   0  0  0  0  0  0  0  0  0  0  0  0
  142.0348   77.8249  224.7314 H   0  0  0  0  0  0  0  0  0  0  0  0
  140.9262   80.7121  220.7736 H   0  0  0  0  0  0  0  0  0  0  0  0
  139.0472   77.7570  220.9344 H   0  0  0  0  0  0  0  0  0  0  0  0
  139.8356   78.7773  219.7460 H   0  0  0  0  0  0  0  0  0  0  0  0
  140.5240   76.3958  219.3170 H   0  0  0  0  0  0  0  0  0  0  0  0
  141.9478   77.2193  219.9479 H   0  0  0  0  0  0  0  0  0  0  0  0
  142.5245   71.1351  218.7844 H   0  0  0  0  0  0  0  0  0  0  0  0
  142.3142   72.6642  217.9373 H   0  0  0  0  0  0  0  0  0  0  0  0
  144.8253   71.9354  218.5371 H   0  0  0  0  0  0  0  0  0  0  0  0
  143.5320   72.4646  221.1719 H   0  0  0  0  0  0  0  0  0  0  0  0
  144.7096   71.1704  220.6248 H   0  0  0  0  0  0  0  0  0  0  0  0
  145.5921   72.8793  222.2615 H   0  0  0  0  0  0  0  0  0  0  0  0
  146.5223   72.6192  220.7271 H   0  0  0  0  0  0  0  0  0  0  0  0
  145.3701   75.0443  221.7867 H   0  0  0  0  0  0  0  0  0  0  0  0
  146.4262   74.7820  220.3359 H   0  0  0  0  0  0  0  0  0  0  0  0
  143.4690   74.7370  220.4470 H   0  0  0  0  0  0  0  0  0  0  0  0
  143.6263   74.3192  218.0950 H   0  0  0  0  0  0  0  0  0  0  0  0
  145.3902   74.0522  218.3067 H   0  0  0  0  0  0  0  0  0  0  0  0
  139.1285   70.5813  221.7346 H   0  0  0  0  0  0  0  0  0  0  0  0
  140.0814   69.5260  222.7901 H   0  0  0  0  0  0  0  0  0  0  0  0
  137.9035   71.4655  223.8441 H   0  0  0  0  0  0  0  0  0  0  0  0
  137.5457   69.7857  223.4868 H   0  0  0  0  0  0  0  0  0  0  0  0
  137.6148   68.5315  225.5779 H   0  0  0  0  0  0  0  0  0  0  0  0
  138.8087   67.9816  227.6991 H   0  0  0  0  0  0  0  0  0  0  0  0
  140.8676   69.2537  228.3155 H   0  0  0  0  0  0  0  0  0  0  0  0
  141.7273   71.0429  226.8414 H   0  0  0  0  0  0  0  0  0  0  0  0
  140.2334   72.8373  224.7899 H   0  0  0  0  0  0  0  0  0  0  0  0
  141.7775   71.9229  224.5943 H   0  0  0  0  0  0  0  0  0  0  0  0
  139.5439   76.4899  222.9186 H   0  0  0  0  0  0  0  0  0  0  0  0
  141.1523   75.9204  223.4530 H   0  0  0  0  0  0  0  0  0  0  0  0
  1  2  2  0
  2  3  1  0
  3  4  2  0
  4  5  1  0
  5  6  2  0
  5  7  1  0
  7  8  1  0
  8  9  1  0
  9 10  1  0
 10 11  2  0
 11 12  1  0
 12 13  1  0
 13 14  1  0
 14 15  1  0
 15 16  1  0
 16 17  1  0
 17 18  1  0
 18 19  1  0
 12 20  2  0
 20 21  1  0
 21 22  1  0
 22 23  1  0
 23 24  1  0
 24 25  1  0
 25 26  2  0
 26 27  1  0
 27 28  2  0
 28 29  1  0
 29 30  2  0
 30 31  1  0
 21 32  2  0
  9 33  1  0
  6  1  1  0
 32 10  1  0
 33  4  1  0
 19 14  1  0
 31 22  1  0
 30 25  1  0
  1 34  1  0
  2 35  1  0
  3 36  1  0
  6 37  1  0
  7 38  1  0
  7 39  1  0
  8 40  1  0
  8 41  1  0
 13 42  1  0
 13 43  1  0
 14 44  1  6
 15 45  1  0
 15 46  1  0
 16 47  1  0
 16 48  1  0
 17 49  1  0
 17 50  1  0
 18 51  1  0
 19 52  1  0
 19 53  1  0
 23 54  1  0
 23 55  1  0
 24 56  1  0
 24 57  1  0
 26 58  1  0
 27 59  1  0
 28 60  1  0
 29 61  1  0
 31 62  1  0
 31 63  1  0
 33 64  1  0
 33 65  1  0
M  END
>  <smiles>  (15) 
c1ccc2c(c1)CCN(c1nc(CC3CCCNC3)nc(N3CCc4ccccc4C3)n1)C2

>  <score_type>  (15) 
oracle

>  <origin>  (15) 
autodockgpu

>  <m_score__min__energy>  (15) 
-10.23

>  <m_primary>  (15) 
energy

>  <rmsd>  (15) 
4.951558127197213

>  <m_score__min__rmsd>  (15) 
4.951558127197213

>  <meeko>  (15) 
{"free_energy": -9.42, "intermolecular_energy": -10.62, "internal_energy": -2.0, "cluster_size": 50, "cluster_id": 1, "rank_in_cluster": 19}

>  <energy>  (15) 
-9.43

>  <cluster_rmsd>  (15) 
0.83

>  <cluster>  (15) 
1

$$$$

     RDKit          3D

 65 70  0  0  0  0  0  0  0  0999 V2000
  139.4690   69.9350  228.3050 C   0  0  0  0  0  0  0  0  0  0  0  0
  140.4200   70.9340  228.3200 C   0  0  0  0  0  0  0  0  0  0  0  0
  141.0640   71.3740  227.1810 C   0  0  0  0  0  0  0  0  0  0  0  0
  140.7220   70.7690  225.9890 C   0  0  0  0  0  0  0  0  0  0  0  0
  139.7700   69.7680  225.9730 C   0  0  0  0  0  0  0  0  0  0  0  0
  139.1230   69.3260  227.1090 C   0  0  0  0  0  0  0  0  0  0  0  0
  139.4750   69.1790  224.6170 C   0  0  0  0  0  0  0  0  0  0  0  0
  139.0630   70.3990  223.7810 C   0  0  0  0  0  0  0  0  0  0  0  0
  140.2710   71.1990  223.6810 N   0  0  0  0  0  0  0  0  0  0  0  0
  140.4620   72.0830  222.5820 C   0  0  0  0  0  0  0  0  0  0  0  0
  140.9240   71.6780  221.3850 N   0  0  0  0  0  0  0  0  0  0  0  0
  141.0890   72.5630  220.3700 C   0  0  0  0  0  0  0  0  0  0  0  0
  141.6080   72.0450  219.0550 C   0  0  0  0  0  0  0  0  0  0  0  0
  143.0780   72.4800  219.0260 C   0  0  2  0  0  0  0  0  0  0  0  0
  143.6710   72.1990  220.3680 C   0  0  0  0  0  0  0  0  0  0  0  0
  144.8660   73.0600  220.7120 C   0  0  0  0  0  0  0  0  0  0  0  0
  144.6020   74.5230  220.4330 C   0  0  0  0  0  0  0  0  0  0  0  0
  143.3130   74.7250  219.8020 N   0  0  0  0  0  0  0  0  0  0  0  0
  143.1520   73.9180  218.6330 C   0  0  0  0  0  0  0  0  0  0  0  0
  140.7980   73.8680  220.5200 N   0  0  0  0  0  0  0  0  0  0  0  0
  140.3360   74.2870  221.7110 C   0  0  0  0  0  0  0  0  0  0  0  0
  140.0190   75.6460  221.9140 N   0  0  0  0  0  0  0  0  0  0  0  0
  138.6250   76.0460  222.0070 C   0  0  0  0  0  0  0  0  0  0  0  0
  138.4950   77.3190  221.1600 C   0  0  0  0  0  0  0  0  0  0  0  0
  139.2560   78.3500  221.9540 C   0  0  0  0  0  0  0  0  0  0  0  0
  138.7120   79.5840  222.2470 C   0  0  0  0  0  0  0  0  0  0  0  0
  139.4650   80.4790  222.9790 C   0  0  0  0  0  0  0  0  0  0  0  0
  140.7470   80.1160  223.4000 C   0  0  0  0  0  0  0  0  0  0  0  0
  141.2660   78.8730  223.0910 C   0  0  0  0  0  0  0  0  0  0  0  0
  140.5220   77.9660  222.3590 C   0  0  0  0  0  0  0  0  0  0  0  0
  141.0790   76.6290  222.0270 C   0  0  0  0  0  0  0  0  0  0  0  0
  140.1780   73.3900  222.7120 N   0  0  0  0  0  0  0  0  0  0  0  0
  141.3320   71.1380  224.6840 C   0  0  0  0  0  0  0  0  0  0  0  0
  138.9853   69.6217  229.2420 H   0  0  0  0  0  0  0  0  0  0  0  0
  140.6767   71.4008  229.2824 H   0  0  0  0  0  0  0  0  0  0  0  0
  141.8183   72.1736  227.2220 H   0  0  0  0  0  0  0  0  0  0  0  0
  138.3677   68.5274  227.0672 H   0  0  0  0  0  0  0  0  0  0  0  0
  140.3686   68.6961  224.1948 H   0  0  0  0  0  0  0  0  0  0  0  0
  138.7010   68.3980  224.6473 H   0  0  0  0  0  0  0  0  0  0  0  0
  138.7194   70.0881  222.7834 H   0  0  0  0  0  0  0  0  0  0  0  0
  138.2306   70.9553  224.2367 H   0  0  0  0  0  0  0  0  0  0  0  0
  141.5256   70.9491  219.0087 H   0  0  0  0  0  0  0  0  0  0  0  0
  141.0391   72.4339  218.1976 H   0  0  0  0  0  0  0  0  0  0  0  0
  143.6617   71.9197  218.2807 H   0  0  0  0  0  0  0  0  0  0  0  0
  142.8951   72.3662  221.1296 H   0  0  0  0  0  0  0  0  0  0  0  0
  144.0282   71.1589  220.3435 H   0  0  0  0  0  0  0  0  0  0  0  0
  145.0978   72.9372  221.7803 H   0  0  0  0  0  0  0  0  0  0  0  0
  145.7110   72.7390  220.0852 H   0  0  0  0  0  0  0  0  0  0  0  0
  144.6243   75.0767  221.3832 H   0  0  0  0  0  0  0  0  0  0  0  0
  145.3804   74.8867  219.7461 H   0  0  0  0  0  0  0  0  0  0  0  0
  142.5180   74.6220  220.4540 H   0  0  0  0  0  0  0  0  0  0  0  0
  142.2249   74.2044  218.1148 H   0  0  0  0  0  0  0  0  0  0  0  0
  144.0100   74.0705  217.9618 H   0  0  0  0  0  0  0  0  0  0  0  0
  137.9725   75.2542  221.6103 H   0  0  0  0  0  0  0  0  0  0  0  0
  138.3244   76.2228  223.0503 H   0  0  0  0  0  0  0  0  0  0  0  0
  138.9449   77.1775  220.1662 H   0  0  0  0  0  0  0  0  0  0  0  0
  137.4491   77.6062  220.9765 H   0  0  0  0  0  0  0  0  0  0  0  0
  137.7006   79.8482  221.9046 H   0  0  0  0  0  0  0  0  0  0  0  0
  139.0593   81.4704  223.2292 H   0  0  0  0  0  0  0  0  0  0  0  0
  141.3497   80.8274  223.9837 H   0  0  0  0  0  0  0  0  0  0  0  0
  142.2773   78.6035  223.4295 H   0  0  0  0  0  0  0  0  0  0  0  0
  141.6185   76.6899  221.0703 H   0  0  0  0  0  0  0  0  0  0  0  0
  141.7628   76.3209  222.8317 H   0  0  0  0  0  0  0  0  0  0  0  0
  142.0750   70.3806  224.3936 H   0  0  0  0  0  0  0  0  0  0  0  0
  141.8343   72.1134  224.7634 H   0  0  0  0  0  0  0  0  0  0  0  0
  1  2  2  0
  2  3  1  0
  3  4  2  0
  4  5  1  0
  5  6  2  0
  5  7  1  0
  7  8  1  0
  8  9  1  0
  9 10  1  0
 10 11  2  0
 11 12  1  0
 12 13  1  0
 13 14  1  0
 14 15  1  0
 15 16  1  0
 16 17  1  0
 17 18  1  0
 18 19  1  0
 12 20  2  0
 20 21  1  0
 21 22  1  0
 22 23  1  0
 23 24  1  0
 24 25  1  0
 25 26  2  0
 26 27  1  0
 27 28  2  0
 28 29  1  0
 29 30  2  0
 30 31  1  0
 21 32  2  0
  9 33  1  0
  6  1  1  0
 32 10  1  0
 33  4  1  0
 19 14  1  0
 31 22  1  0
 30 25  1  0
  1 34  1  0
  2 35  1  0
  3 36  1  0
  6 37  1  0
  7 38  1  0
  7 39  1  0
  8 40  1  0
  8 41  1  0
 13 42  1  0
 13 43  1  0
 14 44  1  6
 15 45  1  0
 15 46  1  0
 16 47  1  0
 16 48  1  0
 17 49  1  0
 17 50  1  0
 18 51  1  0
 19 52  1  0
 19 53  1  0
 23 54  1  0
 23 55  1  0
 24 56  1  0
 24 57  1  0
 26 58  1  0
 27 59  1  0
 28 60  1  0
 29 61  1  0
 31 62  1  0
 31 63  1  0
 33 64  1  0
 33 65  1  0
M  END
>  <smiles>  (16) 
c1ccc2c(c1)CCN(c1nc(CC3CCCNC3)nc(N3CCc4ccccc4C3)n1)C2

>  <score_type>  (16) 
oracle

>  <origin>  (16) 
autodockgpu

>  <m_score__min__energy>  (16) 
-10.23

>  <m_primary>  (16) 
energy

>  <rmsd>  (16) 
10.926606188084438

>  <m_score__min__rmsd>  (16) 
10.926606188084438

>  <meeko>  (16) 
{"free_energy": -9.16, "intermolecular_energy": -10.36, "internal_energy": -2.02, "cluster_size": 50, "cluster_id": 1, "rank_in_cluster": 44}

>  <energy>  (16) 
-9.43

>  <cluster_rmsd>  (16) 
0.81

>  <cluster>  (16) 
1

$$$$

     RDKit          3D

 65 70  0  0  0  0  0  0  0  0999 V2000
  141.8540   80.7210  222.7340 C   0  0  0  0  0  0  0  0  0  0  0  0
  142.2090   79.8750  223.7640 C   0  0  0  0  0  0  0  0  0  0  0  0
  141.8280   78.5490  223.8120 C   0  0  0  0  0  0  0  0  0  0  0  0
  141.0560   78.0770  222.7700 C   0  0  0  0  0  0  0  0  0  0  0  0
  140.7000   78.9230  221.7390 C   0  0  0  0  0  0  0  0  0  0  0  0
  141.0800   80.2480  221.6860 C   0  0  0  0  0  0  0  0  0  0  0  0
  139.8570   78.3000  220.6550 C   0  0  0  0  0  0  0  0  0  0  0  0
  140.7090   77.1140  220.1790 C   0  0  0  0  0  0  0  0  0  0  0  0
  140.7410   76.2080  221.3130 N   0  0  0  0  0  0  0  0  0  0  0  0
  140.9420   74.8130  221.1170 C   0  0  0  0  0  0  0  0  0  0  0  0
  141.5350   74.3030  220.0220 N   0  0  0  0  0  0  0  0  0  0  0  0
  141.7010   72.9630  219.8840 C   0  0  0  0  0  0  0  0  0  0  0  0
  142.3720   72.4570  218.6340 C   0  0  0  0  0  0  0  0  0  0  0  0
  143.8710   72.6190  218.9130 C   0  0  2  0  0  0  0  0  0  0  0  0
  144.1490   72.0890  220.2810 C   0  0  0  0  0  0  0  0  0  0  0  0
  145.3780   72.6770  220.9380 C   0  0  0  0  0  0  0  0  0  0  0  0
  145.4050   74.1850  220.8270 C   0  0  0  0  0  0  0  0  0  0  0  0
  144.3070   74.6850  220.0250 N   0  0  0  0  0  0  0  0  0  0  0  0
  144.2440   74.0540  218.7440 C   0  0  0  0  0  0  0  0  0  0  0  0
  141.2840   72.1010  220.8280 N   0  0  0  0  0  0  0  0  0  0  0  0
  140.6900   72.5970  221.9280 C   0  0  0  0  0  0  0  0  0  0  0  0
  140.2370   71.7310  222.9450 N   0  0  0  0  0  0  0  0  0  0  0  0
  139.2700   70.6970  222.6200 C   0  0  0  0  0  0  0  0  0  0  0  0
  138.2330   70.7200  223.7520 C   0  0  0  0  0  0  0  0  0  0  0  0
  138.9960   70.1890  224.9390 C   0  0  0  0  0  0  0  0  0  0  0  0
  138.4920   69.1770  225.7300 C   0  0  0  0  0  0  0  0  0  0  0  0
  139.2440   68.7390  226.8000 C   0  0  0  0  0  0  0  0  0  0  0  0
  140.4860   69.3290  227.0540 C   0  0  0  0  0  0  0  0  0  0  0  0
  140.9650   70.3420  226.2460 C   0  0  0  0  0  0  0  0  0  0  0  0
  140.2210   70.7880  225.1690 C   0  0  0  0  0  0  0  0  0  0  0  0
  140.7370   71.8780  224.2990 C   0  0  0  0  0  0  0  0  0  0  0  0
  140.5330   73.9360  222.0490 N   0  0  0  0  0  0  0  0  0  0  0  0
  140.5720   76.6730  222.6890 C   0  0  0  0  0  0  0  0  0  0  0  0
  142.1849   81.7700  222.7443 H   0  0  0  0  0  0  0  0  0  0  0  0
  142.8234   80.2750  224.5841 H   0  0  0  0  0  0  0  0  0  0  0  0
  142.1271   77.8963  224.6454 H   0  0  0  0  0  0  0  0  0  0  0  0
  140.7825   80.8990  220.8507 H   0  0  0  0  0  0  0  0  0  0  0  0
  138.8921   77.9558  221.0556 H   0  0  0  0  0  0  0  0  0  0  0  0
  139.6095   79.0030  219.8460 H   0  0  0  0  0  0  0  0  0  0  0  0
  140.2463   76.6286  219.3070 H   0  0  0  0  0  0  0  0  0  0  0  0
  141.7163   77.4237  219.8638 H   0  0  0  0  0  0  0  0  0  0  0  0
  142.1209   71.4006  218.4579 H   0  0  0  0  0  0  0  0  0  0  0  0
  142.0514   73.0044  217.7353 H   0  0  0  0  0  0  0  0  0  0  0  0
  144.4887   72.0475  218.2046 H   0  0  0  0  0  0  0  0  0  0  0  0
  143.2796   72.3075  220.9185 H   0  0  0  0  0  0  0  0  0  0  0  0
  144.3366   71.0109  220.1692 H   0  0  0  0  0  0  0  0  0  0  0  0
  145.3814   72.3979  222.0020 H   0  0  0  0  0  0  0  0  0  0  0  0
  146.2651   72.2796  220.4231 H   0  0  0  0  0  0  0  0  0  0  0  0
  145.3349   74.6176  221.8359 H   0  0  0  0  0  0  0  0  0  0  0  0
  146.3462   74.4750  220.3370 H   0  0  0  0  0  0  0  0  0  0  0  0
  143.3980   74.6570  220.5150 H   0  0  0  0  0  0  0  0  0  0  0  0
  143.4885   74.5584  218.1238 H   0  0  0  0  0  0  0  0  0  0  0  0
  145.2263   74.1218  218.2537 H   0  0  0  0  0  0  0  0  0  0  0  0
  138.7881   70.9134  221.6552 H   0  0  0  0  0  0  0  0  0  0  0  0
  139.7483   69.7105  222.5304 H   0  0  0  0  0  0  0  0  0  0  0  0
  137.8778   71.7441  223.9391 H   0  0  0  0  0  0  0  0  0  0  0  0
  137.3340   70.1296  223.5215 H   0  0  0  0  0  0  0  0  0  0  0  0
  137.5113   68.7291  225.5119 H   0  0  0  0  0  0  0  0  0  0  0  0
  138.8700   67.9326  227.4479 H   0  0  0  0  0  0  0  0  0  0  0  0
  141.0884   68.9827  227.9067 H   0  0  0  0  0  0  0  0  0  0  0  0
  141.9436   70.7963  226.4605 H   0  0  0  0  0  0  0  0  0  0  0  0
  140.4096   72.8477  224.7019 H   0  0  0  0  0  0  0  0  0  0  0  0
  141.8356   71.8255  224.2789 H   0  0  0  0  0  0  0  0  0  0  0  0
  139.5090   76.6292  222.9685 H   0  0  0  0  0  0  0  0  0  0  0  0
  141.1443   76.0344  223.3779 H   0  0  0  0  0  0  0  0  0  0  0  0
  1  2  2  0
  2  3  1  0
  3  4  2  0
  4  5  1  0
  5  6  2  0
  5  7  1  0
  7  8  1  0
  8  9  1  0
  9 10  1  0
 10 11  2  0
 11 12  1  0
 12 13  1  0
 13 14  1  0
 14 15  1  0
 15 16  1  0
 16 17  1  0
 17 18  1  0
 18 19  1  0
 12 20  2  0
 20 21  1  0
 21 22  1  0
 22 23  1  0
 23 24  1  0
 24 25  1  0
 25 26  2  0
 26 27  1  0
 27 28  2  0
 28 29  1  0
 29 30  2  0
 30 31  1  0
 21 32  2  0
  9 33  1  0
  6  1  1  0
 32 10  1  0
 33  4  1  0
 19 14  1  0
 31 22  1  0
 30 25  1  0
  1 34  1  0
  2 35  1  0
  3 36  1  0
  6 37  1  0
  7 38  1  0
  7 39  1  0
  8 40  1  0
  8 41  1  0
 13 42  1  0
 13 43  1  0
 14 44  1  6
 15 45  1  0
 15 46  1  0
 16 47  1  0
 16 48  1  0
 17 49  1  0
 17 50  1  0
 18 51  1  0
 19 52  1  0
 19 53  1  0
 23 54  1  0
 23 55  1  0
 24 56  1  0
 24 57  1  0
 26 58  1  0
 27 59  1  0
 28 60  1  0
 29 61  1  0
 31 62  1  0
 31 63  1  0
 33 64  1  0
 33 65  1  0
M  END
>  <smiles>  (17) 
c1ccc2c(c1)CCN(c1nc(CC3CCCNC3)nc(N3CCc4ccccc4C3)n1)C2

>  <score_type>  (17) 
oracle

>  <origin>  (17) 
autodockgpu

>  <m_score__min__energy>  (17) 
-10.23

>  <m_primary>  (17) 
energy

>  <rmsd>  (17) 
4.979268788062008

>  <m_score__min__rmsd>  (17) 
4.979268788062008

>  <meeko>  (17) 
{"free_energy": -9.37, "intermolecular_energy": -10.56, "internal_energy": -2.0, "cluster_size": 50, "cluster_id": 1, "rank_in_cluster": 27}

>  <energy>  (17) 
-9.43

>  <cluster_rmsd>  (17) 
0.82

>  <cluster>  (17) 
1

$$$$

     RDKit          3D

 65 70  0  0  0  0  0  0  0  0999 V2000
  140.7470   80.8500  221.6160 C   0  0  0  0  0  0  0  0  0  0  0  0
  141.9210   80.3540  222.1440 C   0  0  0  0  0  0  0  0  0  0  0  0
  142.0730   79.0360  222.5260 C   0  0  0  0  0  0  0  0  0  0  0  0
  140.9860   78.2020  222.3610 C   0  0  0  0  0  0  0  0  0  0  0  0
  139.8100   78.6980  221.8320 C   0  0  0  0  0  0  0  0  0  0  0  0
  139.6540   80.0140  221.4480 C   0  0  0  0  0  0  0  0  0  0  0  0
  138.6900   77.6990  221.6970 C   0  0  0  0  0  0  0  0  0  0  0  0
  139.3060   76.5900  220.8310 C   0  0  0  0  0  0  0  0  0  0  0  0
  140.3430   76.0070  221.6640 N   0  0  0  0  0  0  0  0  0  0  0  0
  140.7550   74.6590  221.4670 C   0  0  0  0  0  0  0  0  0  0  0  0
  141.5200   74.2690  220.4320 N   0  0  0  0  0  0  0  0  0  0  0  0
  141.8840   72.9690  220.2900 C   0  0  0  0  0  0  0  0  0  0  0  0
  142.7430   72.5990  219.1100 C   0  0  0  0  0  0  0  0  0  0  0  0
  144.0780   72.1660  219.7280 C   0  0  2  0  0  0  0  0  0  0  0  0
  144.3880   73.0930  220.8560 C   0  0  0  0  0  0  0  0  0  0  0  0
  145.8610   73.2030  221.1840 C   0  0  0  0  0  0  0  0  0  0  0  0
  146.6960   73.4180  219.9420 C   0  0  0  0  0  0  0  0  0  0  0  0
  145.8940   73.3550  218.7370 N   0  0  0  0  0  0  0  0  0  0  0  0
  145.1240   72.1530  218.6630 C   0  0  0  0  0  0  0  0  0  0  0  0
  141.4980   72.0300  221.1720 N   0  0  0  0  0  0  0  0  0  0  0  0
  140.7320   72.4060  222.2110 C   0  0  0  0  0  0  0  0  0  0  0  0
  140.3030   71.4550  223.1610 N   0  0  0  0  0  0  0  0  0  0  0  0
  139.4650   70.3500  222.7310 C   0  0  0  0  0  0  0  0  0  0  0  0
  138.3620   70.2220  223.7910 C   0  0  0  0  0  0  0  0  0  0  0  0
  139.0970   69.7130  225.0050 C   0  0  0  0  0  0  0  0  0  0  0  0
  138.6460   68.6220  225.7200 C   0  0  0  0  0  0  0  0  0  0  0  0
  139.3680   68.2110  226.8200 C   0  0  0  0  0  0  0  0  0  0  0  0
  140.5280   68.9040  227.1800 C   0  0  0  0  0  0  0  0  0  0  0  0
  140.9550   69.9940  226.4460 C   0  0  0  0  0  0  0  0  0  0  0  0
  140.2400   70.4160  225.3400 C   0  0  0  0  0  0  0  0  0  0  0  0
  140.7000   71.5880  224.5490 C   0  0  0  0  0  0  0  0  0  0  0  0
  140.3790   73.7070  222.3360 N   0  0  0  0  0  0  0  0  0  0  0  0
  141.0030   76.7600  222.7290 C   0  0  0  0  0  0  0  0  0  0  0  0
  140.6781   81.9094  221.3281 H   0  0  0  0  0  0  0  0  0  0  0  0
  142.7733   81.0386  222.2660 H   0  0  0  0  0  0  0  0  0  0  0  0
  143.0208   78.6662  222.9443 H   0  0  0  0  0  0  0  0  0  0  0  0
  138.7065   80.3827  221.0281 H   0  0  0  0  0  0  0  0  0  0  0  0
  138.3893   77.3092  222.6807 H   0  0  0  0  0  0  0  0  0  0  0  0
  137.7790   78.1314  221.2576 H   0  0  0  0  0  0  0  0  0  0  0  0
  138.5489   75.8362  220.5692 H   0  0  0  0  0  0  0  0  0  0  0  0
  139.7027   76.9755  219.8802 H   0  0  0  0  0  0  0  0  0  0  0  0
  142.2902   71.7718  218.5436 H   0  0  0  0  0  0  0  0  0  0  0  0
  142.8607   73.4316  218.4008 H   0  0  0  0  0  0  0  0  0  0  0  0
  144.0349   71.1466  220.1390 H   0  0  0  0  0  0  0  0  0  0  0  0
  144.0183   74.0945  220.5906 H   0  0  0  0  0  0  0  0  0  0  0  0
  143.8964   72.6788  221.7486 H   0  0  0  0  0  0  0  0  0  0  0  0
  146.0118   74.0525  221.8664 H   0  0  0  0  0  0  0  0  0  0  0  0
  146.1794   72.2599  221.6522 H   0  0  0  0  0  0  0  0  0  0  0  0
  147.1733   74.4073  220.0007 H   0  0  0  0  0  0  0  0  0  0  0  0
  147.4493   72.6178  219.8936 H   0  0  0  0  0  0  0  0  0  0  0  0
  145.3120   74.1970  218.5890 H   0  0  0  0  0  0  0  0  0  0  0  0
  144.6420   72.0864  217.6764 H   0  0  0  0  0  0  0  0  0  0  0  0
  145.7841   71.2851  218.8078 H   0  0  0  0  0  0  0  0  0  0  0  0
  139.0257   70.5638  221.7454 H   0  0  0  0  0  0  0  0  0  0  0  0
  140.0424   69.4188  222.6342 H   0  0  0  0  0  0  0  0  0  0  0  0
  137.8966   71.1978  223.9938 H   0  0  0  0  0  0  0  0  0  0  0  0
  137.5420   69.5591  223.4778 H   0  0  0  0  0  0  0  0  0  0  0  0
  137.7304   68.0920  225.4187 H   0  0  0  0  0  0  0  0  0  0  0  0
  139.0343   67.3447  227.4100 H   0  0  0  0  0  0  0  0  0  0  0  0
  141.1067   68.5779  228.0568 H   0  0  0  0  0  0  0  0  0  0  0  0
  141.8689   70.5292  226.7431 H   0  0  0  0  0  0  0  0  0  0  0  0
  140.2544   72.5030  224.9663 H   0  0  0  0  0  0  0  0  0  0  0  0
  141.7975   71.6414  224.6002 H   0  0  0  0  0  0  0  0  0  0  0  0
  140.4658   76.6117  223.6774 H   0  0  0  0  0  0  0  0  0  0  0  0
  142.0393   76.4125  222.8528 H   0  0  0  0  0  0  0  0  0  0  0  0
  1  2  2  0
  2  3  1  0
  3  4  2  0
  4  5  1  0
  5  6  2  0
  5  7  1  0
  7  8  1  0
  8  9  1  0
  9 10  1  0
 10 11  2  0
 11 12  1  0
 12 13  1  0
 13 14  1  0
 14 15  1  0
 15 16  1  0
 16 17  1  0
 17 18  1  0
 18 19  1  0
 12 20  2  0
 20 21  1  0
 21 22  1  0
 22 23  1  0
 23 24  1  0
 24 25  1  0
 25 26  2  0
 26 27  1  0
 27 28  2  0
 28 29  1  0
 29 30  2  0
 30 31  1  0
 21 32  2  0
  9 33  1  0
  6  1  1  0
 32 10  1  0
 33  4  1  0
 19 14  1  0
 31 22  1  0
 30 25  1  0
  1 34  1  0
  2 35  1  0
  3 36  1  0
  6 37  1  0
  7 38  1  0
  7 39  1  0
  8 40  1  0
  8 41  1  0
 13 42  1  0
 13 43  1  0
 14 44  1  1
 15 45  1  0
 15 46  1  0
 16 47  1  0
 16 48  1  0
 17 49  1  0
 17 50  1  0
 18 51  1  0
 19 52  1  0
 19 53  1  0
 23 54  1  0
 23 55  1  0
 24 56  1  0
 24 57  1  0
 26 58  1  0
 27 59  1  0
 28 60  1  0
 29 61  1  0
 31 62  1  0
 31 63  1  0
 33 64  1  0
 33 65  1  0
M  END
>  <smiles>  (18) 
c1ccc2c(c1)CCN(c1nc(CC3CCCNC3)nc(N3CCc4ccccc4C3)n1)C2

>  <score_type>  (18) 
oracle

>  <origin>  (18) 
autodockgpu

>  <m_score__min__energy>  (18) 
-10.23

>  <m_primary>  (18) 
energy

>  <rmsd>  (18) 
4.452193496917911

>  <m_score__min__rmsd>  (18) 
4.452193496917911

>  <meeko>  (18) 
{"free_energy": -10.21, "intermolecular_energy": -11.4, "internal_energy": -1.12, "cluster_size": 50, "cluster_id": 1, "rank_in_cluster": 3}

>  <energy>  (18) 
-9.43

>  <cluster_rmsd>  (18) 
0.83

>  <cluster>  (18) 
1

$$$$

     RDKit          3D

 65 70  0  0  0  0  0  0  0  0999 V2000
  139.3410   69.7200  227.9810 C   0  0  0  0  0  0  0  0  0  0  0  0
  140.3380   70.6720  228.0340 C   0  0  0  0  0  0  0  0  0  0  0  0
  140.9470   71.1850  226.9060 C   0  0  0  0  0  0  0  0  0  0  0  0
  140.5190   70.7060  225.6850 C   0  0  0  0  0  0  0  0  0  0  0  0
  139.5220   69.7520  225.6310 C   0  0  0  0  0  0  0  0  0  0  0  0
  138.9100   69.2370  226.7550 C   0  0  0  0  0  0  0  0  0  0  0  0
  139.1340   69.3010  224.2450 C   0  0  0  0  0  0  0  0  0  0  0  0
  138.7400   70.6090  223.5430 C   0  0  0  0  0  0  0  0  0  0  0  0
  139.9790   71.3620  223.4510 N   0  0  0  0  0  0  0  0  0  0  0  0
  140.1590   72.3330  222.4260 C   0  0  0  0  0  0  0  0  0  0  0  0
  140.5110   72.0160  221.1670 N   0  0  0  0  0  0  0  0  0  0  0  0
  140.6700   72.9820  220.2270 C   0  0  0  0  0  0  0  0  0  0  0  0
  141.0640   72.5600  218.8370 C   0  0  0  0  0  0  0  0  0  0  0  0
  142.5910   72.6870  218.8160 C   0  0  2  0  0  0  0  0  0  0  0  0
  143.1250   72.0720  220.0680 C   0  0  0  0  0  0  0  0  0  0  0  0
  144.4740   72.6040  220.4970 C   0  0  0  0  0  0  0  0  0  0  0  0
  144.5150   74.1160  220.4690 C   0  0  0  0  0  0  0  0  0  0  0  0
  143.2910   74.6770  219.9330 N   0  0  0  0  0  0  0  0  0  0  0  0
  142.9570   74.1250  218.6570 C   0  0  0  0  0  0  0  0  0  0  0  0
  140.4820   74.2830  220.5160 N   0  0  0  0  0  0  0  0  0  0  0  0
  140.1300   74.6140  221.7710 C   0  0  0  0  0  0  0  0  0  0  0  0
  139.9230   75.9650  222.1190 N   0  0  0  0  0  0  0  0  0  0  0  0
  138.6150   76.3870  222.5880 C   0  0  0  0  0  0  0  0  0  0  0  0
  138.3170   77.7100  221.8710 C   0  0  0  0  0  0  0  0  0  0  0  0
  139.2910   78.6770  222.4950 C   0  0  0  0  0  0  0  0  0  0  0  0
  138.8840   79.9020  222.9810 C   0  0  0  0  0  0  0  0  0  0  0  0
  139.8300   80.7360  223.5400 C   0  0  0  0  0  0  0  0  0  0  0  0
  141.1640   80.3230  223.5980 C   0  0  0  0  0  0  0  0  0  0  0  0
  141.5430   79.0900  223.1010 C   0  0  0  0  0  0  0  0  0  0  0  0
  140.6040   78.2440  222.5390 C   0  0  0  0  0  0  0  0  0  0  0  0
  141.0110   76.9170  222.0060 C   0  0  0  0  0  0  0  0  0  0  0  0
  139.9770   73.6370  222.6950 N   0  0  0  0  0  0  0  0  0  0  0  0
  141.0830   71.1660  224.3880 C   0  0  0  0  0  0  0  0  0  0  0  0
  138.8884   69.3445  228.9106 H   0  0  0  0  0  0  0  0  0  0  0  0
  140.6623   71.0388  229.0190 H   0  0  0  0  0  0  0  0  0  0  0  0
  141.7402   71.9438  226.9778 H   0  0  0  0  0  0  0  0  0  0  0  0
  138.1169   68.4783  226.6819 H   0  0  0  0  0  0  0  0  0  0  0  0
  139.9823   68.8207  223.7354 H   0  0  0  0  0  0  0  0  0  0  0  0
  138.3265   68.5540  224.2465 H   0  0  0  0  0  0  0  0  0  0  0  0
  138.3339   70.4052  222.5412 H   0  0  0  0  0  0  0  0  0  0  0  0
  137.9580   71.1569  224.0892 H   0  0  0  0  0  0  0  0  0  0  0  0
  140.7575   71.5213  218.6445 H   0  0  0  0  0  0  0  0  0  0  0  0
  140.5825   73.1735  218.0613 H   0  0  0  0  0  0  0  0  0  0  0  0
  143.0399   72.1522  217.9660 H   0  0  0  0  0  0  0  0  0  0  0  0
  142.4062   72.2619  220.8787 H   0  0  0  0  0  0  0  0  0  0  0  0
  143.2611   71.0006  219.8592 H   0  0  0  0  0  0  0  0  0  0  0  0
  144.6831   72.2608  221.5210 H   0  0  0  0  0  0  0  0  0  0  0  0
  145.2303   72.2278  219.7924 H   0  0  0  0  0  0  0  0  0  0  0  0
  144.6580   74.4875  221.4944 H   0  0  0  0  0  0  0  0  0  0  0  0
  145.3464   74.4238  219.8179 H   0  0  0  0  0  0  0  0  0  0  0  0
  142.4970   74.6300  220.5940 H   0  0  0  0  0  0  0  0  0  0  0  0
  142.1048   74.6751  218.2315 H   0  0  0  0  0  0  0  0  0  0  0  0
  143.8224   74.2102  217.9834 H   0  0  0  0  0  0  0  0  0  0  0  0
  137.8555   75.6337  222.3319 H   0  0  0  0  0  0  0  0  0  0  0  0
  138.5980   76.5078  223.6812 H   0  0  0  0  0  0  0  0  0  0  0  0
  138.4925   77.6188  220.7889 H   0  0  0  0  0  0  0  0  0  0  0  0
  137.2696   78.0285  221.9783 H   0  0  0  0  0  0  0  0  0  0  0  0
  137.8287   80.2071  222.9241 H   0  0  0  0  0  0  0  0  0  0  0  0
  139.5366   81.7189  223.9372 H   0  0  0  0  0  0  0  0  0  0  0  0
  141.9201   80.9860  224.0438 H   0  0  0  0  0  0  0  0  0  0  0  0
  142.5971   78.7799  223.1527 H   0  0  0  0  0  0  0  0  0  0  0  0
  141.2899   77.0230  220.9472 H   0  0  0  0  0  0  0  0  0  0  0  0
  141.8668   76.5479  222.5903 H   0  0  0  0  0  0  0  0  0  0  0  0
  141.7753   70.4076  223.9936 H   0  0  0  0  0  0  0  0  0  0  0  0
  141.6336   72.1080  224.5271 H   0  0  0  0  0  0  0  0  0  0  0  0
  1  2  2  0
  2  3  1  0
  3  4  2  0
  4  5  1  0
  5  6  2  0
  5  7  1  0
  7  8  1  0
  8  9  1  0
  9 10  1  0
 10 11  2  0
 11 12  1  0
 12 13  1  0
 13 14  1  0
 14 15  1  0
 15 16  1  0
 16 17  1  0
 17 18  1  0
 18 19  1  0
 12 20  2  0
 20 21  1  0
 21 22  1  0
 22 23  1  0
 23 24  1  0
 24 25  1  0
 25 26  2  0
 26 27  1  0
 27 28  2  0
 28 29  1  0
 29 30  2  0
 30 31  1  0
 21 32  2  0
  9 33  1  0
  6  1  1  0
 32 10  1  0
 33  4  1  0
 19 14  1  0
 31 22  1  0
 30 25  1  0
  1 34  1  0
  2 35  1  0
  3 36  1  0
  6 37  1  0
  7 38  1  0
  7 39  1  0
  8 40  1  0
  8 41  1  0
 13 42  1  0
 13 43  1  0
 14 44  1  6
 15 45  1  0
 15 46  1  0
 16 47  1  0
 16 48  1  0
 17 49  1  0
 17 50  1  0
 18 51  1  0
 19 52  1  0
 19 53  1  0
 23 54  1  0
 23 55  1  0
 24 56  1  0
 24 57  1  0
 26 58  1  0
 27 59  1  0
 28 60  1  0
 29 61  1  0
 31 62  1  0
 31 63  1  0
 33 64  1  0
 33 65  1  0
M  END
>  <smiles>  (19) 
c1ccc2c(c1)CCN(c1nc(CC3CCCNC3)nc(N3CCc4ccccc4C3)n1)C2

>  <score_type>  (19) 
oracle

>  <origin>  (19) 
autodockgpu

>  <m_score__min__energy>  (19) 
-10.23

>  <m_primary>  (19) 
energy

>  <rmsd>  (19) 
10.816448329916822

>  <m_score__min__rmsd>  (19) 
10.816448329916822

>  <meeko>  (19) 
{"free_energy": -9.23, "intermolecular_energy": -10.42, "internal_energy": -2.0, "cluster_size": 50, "cluster_id": 1, "rank_in_cluster": 40}

>  <energy>  (19) 
-9.42

>  <cluster_rmsd>  (19) 
0.81

>  <cluster>  (19) 
1

$$$$

     RDKit          3D

 65 70  0  0  0  0  0  0  0  0999 V2000
  141.8870   80.6900  222.7760 C   0  0  0  0  0  0  0  0  0  0  0  0
  142.2130   79.8420  223.8140 C   0  0  0  0  0  0  0  0  0  0  0  0
  141.8250   78.5180  223.8510 C   0  0  0  0  0  0  0  0  0  0  0  0
  141.0790   78.0490  222.7900 C   0  0  0  0  0  0  0  0  0  0  0  0
  140.7520   78.8970  221.7500 C   0  0  0  0  0  0  0  0  0  0  0  0
  141.1380   80.2210  221.7080 C   0  0  0  0  0  0  0  0  0  0  0  0
  139.9350   78.2780  220.6440 C   0  0  0  0  0  0  0  0  0  0  0  0
  140.7940   77.0900  220.1890 C   0  0  0  0  0  0  0  0  0  0  0  0
  140.7940   76.1830  221.3230 N   0  0  0  0  0  0  0  0  0  0  0  0
  140.9950   74.7870  221.1310 C   0  0  0  0  0  0  0  0  0  0  0  0
  141.5990   74.2740  220.0430 N   0  0  0  0  0  0  0  0  0  0  0  0
  141.7640   72.9340  219.9080 C   0  0  0  0  0  0  0  0  0  0  0  0
  142.4490   72.4260  218.6680 C   0  0  0  0  0  0  0  0  0  0  0  0
  143.9450   72.5930  218.9600 C   0  0  2  0  0  0  0  0  0  0  0  0
  144.2040   72.1010  220.3460 C   0  0  0  0  0  0  0  0  0  0  0  0
  145.4270   72.7050  221.0020 C   0  0  0  0  0  0  0  0  0  0  0  0
  145.4590   74.2090  220.8490 C   0  0  0  0  0  0  0  0  0  0  0  0
  144.3720   74.6890  220.0190 N   0  0  0  0  0  0  0  0  0  0  0  0
  144.3230   74.0220  218.7560 C   0  0  0  0  0  0  0  0  0  0  0  0
  141.3350   72.0740  220.8490 N   0  0  0  0  0  0  0  0  0  0  0  0
  140.7290   72.5730  221.9420 C   0  0  0  0  0  0  0  0  0  0  0  0
  140.2630   71.7080  222.9540 N   0  0  0  0  0  0  0  0  0  0  0  0
  139.3420   70.6390  222.6090 C   0  0  0  0  0  0  0  0  0  0  0  0
  138.2610   70.6470  223.6980 C   0  0  0  0  0  0  0  0  0  0  0  0
  138.9910   70.1590  224.9230 C   0  0  0  0  0  0  0  0  0  0  0  0
  138.4870   69.1440  225.7100 C   0  0  0  0  0  0  0  0  0  0  0  0
  139.2090   68.7470  226.8160 C   0  0  0  0  0  0  0  0  0  0  0  0
  140.4210   69.3790  227.1100 C   0  0  0  0  0  0  0  0  0  0  0  0
  140.9000   70.3940  226.3040 C   0  0  0  0  0  0  0  0  0  0  0  0
  140.1870   70.8000  225.1910 C   0  0  0  0  0  0  0  0  0  0  0  0
  140.7030   71.8920  224.3240 C   0  0  0  0  0  0  0  0  0  0  0  0
  140.5730   73.9120  222.0590 N   0  0  0  0  0  0  0  0  0  0  0  0
  140.5910   76.6470  222.6940 C   0  0  0  0  0  0  0  0  0  0  0  0
  142.2212   81.7378  222.7958 H   0  0  0  0  0  0  0  0  0  0  0  0
  142.8087   80.2386  224.6494 H   0  0  0  0  0  0  0  0  0  0  0  0
  142.0994   77.8640  224.6918 H   0  0  0  0  0  0  0  0  0  0  0  0
  140.8641   80.8740  220.8662 H   0  0  0  0  0  0  0  0  0  0  0  0
  138.9589   77.9370  221.0193 H   0  0  0  0  0  0  0  0  0  0  0  0
  139.7110   78.9827  219.8296 H   0  0  0  0  0  0  0  0  0  0  0  0
  140.3518   76.6069  219.3052 H   0  0  0  0  0  0  0  0  0  0  0  0
  141.8101   77.3963  219.8996 H   0  0  0  0  0  0  0  0  0  0  0  0
  142.2027   71.3683  218.4934 H   0  0  0  0  0  0  0  0  0  0  0  0
  142.1359   72.9699  217.7646 H   0  0  0  0  0  0  0  0  0  0  0  0
  144.5704   72.0013  218.2753 H   0  0  0  0  0  0  0  0  0  0  0  0
  143.3271   72.3395  220.9659 H   0  0  0  0  0  0  0  0  0  0  0  0
  144.3899   71.0197  220.2672 H   0  0  0  0  0  0  0  0  0  0  0  0
  145.4164   72.4559  222.0734 H   0  0  0  0  0  0  0  0  0  0  0  0
  146.3195   72.2914  220.5097 H   0  0  0  0  0  0  0  0  0  0  0  0
  145.3772   74.6699  221.8444 H   0  0  0  0  0  0  0  0  0  0  0  0
  146.4070   74.4831  220.3630 H   0  0  0  0  0  0  0  0  0  0  0  0
  143.4560   74.6760  220.4980 H   0  0  0  0  0  0  0  0  0  0  0  0
  143.5761   74.5102  218.1127 H   0  0  0  0  0  0  0  0  0  0  0  0
  145.3116   74.0739  218.2764 H   0  0  0  0  0  0  0  0  0  0  0  0
  138.8925   70.8248  221.6224 H   0  0  0  0  0  0  0  0  0  0  0  0
  139.8538   69.6668  222.5553 H   0  0  0  0  0  0  0  0  0  0  0  0
  137.8672   71.6623  223.8535 H   0  0  0  0  0  0  0  0  0  0  0  0
  137.3907   70.0248  223.4420 H   0  0  0  0  0  0  0  0  0  0  0  0
  137.5302   68.6619  225.4608 H   0  0  0  0  0  0  0  0  0  0  0  0
  138.8342   67.9393  227.4619 H   0  0  0  0  0  0  0  0  0  0  0  0
  140.9990   69.0651  227.9917 H   0  0  0  0  0  0  0  0  0  0  0  0
  141.8547   70.8822  226.5494 H   0  0  0  0  0  0  0  0  0  0  0  0
  140.3292   72.8569  224.6971 H   0  0  0  0  0  0  0  0  0  0  0  0
  141.8026   71.8744  224.3485 H   0  0  0  0  0  0  0  0  0  0  0  0
  139.5208   76.6077  222.9453 H   0  0  0  0  0  0  0  0  0  0  0  0
  141.1423   76.0050  223.3968 H   0  0  0  0  0  0  0  0  0  0  0  0
  1  2  2  0
  2  3  1  0
  3  4  2  0
  4  5  1  0
  5  6  2  0
  5  7  1  0
  7  8  1  0
  8  9  1  0
  9 10  1  0
 10 11  2  0
 11 12  1  0
 12 13  1  0
 13 14  1  0
 14 15  1  0
 15 16  1  0
 16 17  1  0
 17 18  1  0
 18 19  1  0
 12 20  2  0
 20 21  1  0
 21 22  1  0
 22 23  1  0
 23 24  1  0
 24 25  1  0
 25 26  2  0
 26 27  1  0
 27 28  2  0
 28 29  1  0
 29 30  2  0
 30 31  1  0
 21 32  2  0
  9 33  1  0
  6  1  1  0
 32 10  1  0
 33  4  1  0
 19 14  1  0
 31 22  1  0
 30 25  1  0
  1 34  1  0
  2 35  1  0
  3 36  1  0
  6 37  1  0
  7 38  1  0
  7 39  1  0
  8 40  1  0
  8 41  1  0
 13 42  1  0
 13 43  1  0
 14 44  1  6
 15 45  1  0
 15 46  1  0
 16 47  1  0
 16 48  1  0
 17 49  1  0
 17 50  1  0
 18 51  1  0
 19 52  1  0
 19 53  1  0
 23 54  1  0
 23 55  1  0
 24 56  1  0
 24 57  1  0
 26 58  1  0
 27 59  1  0
 28 60  1  0
 29 61  1  0
 31 62  1  0
 31 63  1  0
 33 64  1  0
 33 65  1  0
M  END
>  <smiles>  (20) 
c1ccc2c(c1)CCN(c1nc(CC3CCCNC3)nc(N3CCc4ccccc4C3)n1)C2

>  <score_type>  (20) 
oracle

>  <origin>  (20) 
autodockgpu

>  <m_score__min__energy>  (20) 
-10.23

>  <m_primary>  (20) 
energy

>  <rmsd>  (20) 
4.995449494677105

>  <m_score__min__rmsd>  (20) 
4.995449494677105

>  <meeko>  (20) 
{"free_energy": -9.43, "intermolecular_energy": -10.62, "internal_energy": -2.0, "cluster_size": 50, "cluster_id": 1, "rank_in_cluster": 18}

>  <energy>  (20) 
-9.42

>  <cluster_rmsd>  (20) 
0.84

>  <cluster>  (20) 
1

$$$$

     RDKit          3D

 65 70  0  0  0  0  0  0  0  0999 V2000
  140.7690   81.1150  221.6430 C   0  0  0  0  0  0  0  0  0  0  0  0
  141.9650   80.6090  222.1090 C   0  0  0  0  0  0  0  0  0  0  0  0
  142.1280   79.2900  222.4800 C   0  0  0  0  0  0  0  0  0  0  0  0
  141.0290   78.4620  222.3690 C   0  0  0  0  0  0  0  0  0  0  0  0
  139.8310   78.9680  221.9030 C   0  0  0  0  0  0  0  0  0  0  0  0
  139.6640   80.2850  221.5300 C   0  0  0  0  0  0  0  0  0  0  0  0
  138.7000   77.9750  221.8230 C   0  0  0  0  0  0  0  0  0  0  0  0
  139.2630   76.8650  220.9230 C   0  0  0  0  0  0  0  0  0  0  0  0
  140.3380   76.2740  221.7010 N   0  0  0  0  0  0  0  0  0  0  0  0
  140.7310   74.9240  221.4800 C   0  0  0  0  0  0  0  0  0  0  0  0
  141.4830   74.5400  220.4330 N   0  0  0  0  0  0  0  0  0  0  0  0
  141.8290   73.2380  220.2680 C   0  0  0  0  0  0  0  0  0  0  0  0
  142.6730   72.8750  219.0750 C   0  0  0  0  0  0  0  0  0  0  0  0
  143.9870   72.3630  219.6770 C   0  0  2  0  0  0  0  0  0  0  0  0
  144.3930   73.2980  220.7680 C   0  0  0  0  0  0  0  0  0  0  0  0
  145.8770   73.3070  221.0600 C   0  0  0  0  0  0  0  0  0  0  0  0
  146.6960   73.4210  219.7930 C   0  0  0  0  0  0  0  0  0  0  0  0
  145.8620   73.3820  218.6090 N   0  0  0  0  0  0  0  0  0  0  0  0
  145.0030   72.2390  218.5920 C   0  0  0  0  0  0  0  0  0  0  0  0
  141.4380   72.2900  221.1380 N   0  0  0  0  0  0  0  0  0  0  0  0
  140.6860   72.6600  222.1900 C   0  0  0  0  0  0  0  0  0  0  0  0
  140.2520   71.7000  223.1280 N   0  0  0  0  0  0  0  0  0  0  0  0
  139.3820   70.6220  222.6920 C   0  0  0  0  0  0  0  0  0  0  0  0
  138.2940   70.4970  223.7680 C   0  0  0  0  0  0  0  0  0  0  0  0
  139.0380   69.9480  224.9590 C   0  0  0  0  0  0  0  0  0  0  0  0
  138.5760   68.8540  225.6600 C   0  0  0  0  0  0  0  0  0  0  0  0
  139.3080   68.4050  226.7400 C   0  0  0  0  0  0  0  0  0  0  0  0
  140.4880   69.0650  227.0930 C   0  0  0  0  0  0  0  0  0  0  0  0
  140.9270   70.1600  226.3720 C   0  0  0  0  0  0  0  0  0  0  0  0
  140.2030   70.6190  225.2870 C   0  0  0  0  0  0  0  0  0  0  0  0
  140.6750   71.7960  224.5120 C   0  0  0  0  0  0  0  0  0  0  0  0
  140.3500   73.9630  222.3380 N   0  0  0  0  0  0  0  0  0  0  0  0
  141.0570   77.0200  222.7320 C   0  0  0  0  0  0  0  0  0  0  0  0
  140.6922   82.1756  221.3615 H   0  0  0  0  0  0  0  0  0  0  0  0
  142.8272   81.2875  222.1883 H   0  0  0  0  0  0  0  0  0  0  0  0
  143.0936   78.9139  222.8489 H   0  0  0  0  0  0  0  0  0  0  0  0
  138.6984   80.6600  221.1598 H   0  0  0  0  0  0  0  0  0  0  0  0
  138.4486   77.5837  222.8199 H   0  0  0  0  0  0  0  0  0  0  0  0
  137.7702   78.4141  221.4323 H   0  0  0  0  0  0  0  0  0  0  0  0
  138.4888   76.1165  220.6988 H   0  0  0  0  0  0  0  0  0  0  0  0
  139.6120   77.2502  219.9536 H   0  0  0  0  0  0  0  0  0  0  0  0
  142.1861   72.0893  218.4787 H   0  0  0  0  0  0  0  0  0  0  0  0
  142.8273   73.7270  218.3965 H   0  0  0  0  0  0  0  0  0  0  0  0
  143.8774   71.3626  220.1211 H   0  0  0  0  0  0  0  0  0  0  0  0
  144.0926   74.3159  220.4788 H   0  0  0  0  0  0  0  0  0  0  0  0
  143.8939   72.9489  221.6840 H   0  0  0  0  0  0  0  0  0  0  0  0
  146.1070   74.1631  221.7113 H   0  0  0  0  0  0  0  0  0  0  0  0
  146.1356   72.3573  221.5511 H   0  0  0  0  0  0  0  0  0  0  0  0
  147.2470   74.3729  219.8094 H   0  0  0  0  0  0  0  0  0  0  0  0
  147.3865   72.5657  219.7536 H   0  0  0  0  0  0  0  0  0  0  0  0
  145.3410   74.2590  218.4470 H   0  0  0  0  0  0  0  0  0  0  0  0
  144.4941   72.1775  217.6187 H   0  0  0  0  0  0  0  0  0  0  0  0
  145.6006   71.3294  218.7521 H   0  0  0  0  0  0  0  0  0  0  0  0
  138.9310   70.8644  221.7184 H   0  0  0  0  0  0  0  0  0  0  0  0
  139.9371   69.6805  222.5681 H   0  0  0  0  0  0  0  0  0  0  0  0
  137.8537   71.4785  223.9978 H   0  0  0  0  0  0  0  0  0  0  0  0
  137.4543   69.8586  223.4560 H   0  0  0  0  0  0  0  0  0  0  0  0
  137.6439   68.3501  225.3645 H   0  0  0  0  0  0  0  0  0  0  0  0
  138.9654   67.5344  227.3185 H   0  0  0  0  0  0  0  0  0  0  0  0
  141.0738   68.7096  227.9536 H   0  0  0  0  0  0  0  0  0  0  0  0
  141.8577   70.6690  226.6632 H   0  0  0  0  0  0  0  0  0  0  0  0
  140.2566   72.7118  224.9550 H   0  0  0  0  0  0  0  0  0  0  0  0
  141.7741   71.8245  224.5453 H   0  0  0  0  0  0  0  0  0  0  0  0
  140.5692   76.8721  223.7067 H   0  0  0  0  0  0  0  0  0  0  0  0
  142.0963   76.6663  222.8009 H   0  0  0  0  0  0  0  0  0  0  0  0
  1  2  2  0
  2  3  1  0
  3  4  2  0
  4  5  1  0
  5  6  2  0
  5  7  1  0
  7  8  1  0
  8  9  1  0
  9 10  1  0
 10 11  2  0
 11 12  1  0
 12 13  1  0
 13 14  1  0
 14 15  1  0
 15 16  1  0
 16 17  1  0
 17 18  1  0
 18 19  1  0
 12 20  2  0
 20 21  1  0
 21 22  1  0
 22 23  1  0
 23 24  1  0
 24 25  1  0
 25 26  2  0
 26 27  1  0
 27 28  2  0
 28 29  1  0
 29 30  2  0
 30 31  1  0
 21 32  2  0
  9 33  1  0
  6  1  1  0
 32 10  1  0
 33  4  1  0
 19 14  1  0
 31 22  1  0
 30 25  1  0
  1 34  1  0
  2 35  1  0
  3 36  1  0
  6 37  1  0
  7 38  1  0
  7 39  1  0
  8 40  1  0
  8 41  1  0
 13 42  1  0
 13 43  1  0
 14 44  1  1
 15 45  1  0
 15 46  1  0
 16 47  1  0
 16 48  1  0
 17 49  1  0
 17 50  1  0
 18 51  1  0
 19 52  1  0
 19 53  1  0
 23 54  1  0
 23 55  1  0
 24 56  1  0
 24 57  1  0
 26 58  1  0
 27 59  1  0
 28 60  1  0
 29 61  1  0
 31 62  1  0
 31 63  1  0
 33 64  1  0
 33 65  1  0
M  END
>  <smiles>  (21) 
c1ccc2c(c1)CCN(c1nc(CC3CCCNC3)nc(N3CCc4ccccc4C3)n1)C2

>  <score_type>  (21) 
oracle

>  <origin>  (21) 
autodockgpu

>  <m_score__min__energy>  (21) 
-10.23

>  <m_primary>  (21) 
energy

>  <rmsd>  (21) 
4.511473200880398

>  <m_score__min__rmsd>  (21) 
4.511473200880398

>  <meeko>  (21) 
{"free_energy": -10.19, "intermolecular_energy": -11.38, "internal_energy": -1.11, "cluster_size": 50, "cluster_id": 1, "rank_in_cluster": 4}

>  <energy>  (21) 
-9.42

>  <cluster_rmsd>  (21) 
0.81

>  <cluster>  (21) 
1

$$$$

     RDKit          3D

 65 70  0  0  0  0  0  0  0  0999 V2000
  141.8270   80.6810  222.7340 C   0  0  0  0  0  0  0  0  0  0  0  0
  142.1350   79.8470  223.7890 C   0  0  0  0  0  0  0  0  0  0  0  0
  141.7560   78.5200  223.8300 C   0  0  0  0  0  0  0  0  0  0  0  0
  141.0380   78.0340  222.7570 C   0  0  0  0  0  0  0  0  0  0  0  0
  140.7280   78.8700  221.7010 C   0  0  0  0  0  0  0  0  0  0  0  0
  141.1060   80.1960  221.6550 C   0  0  0  0  0  0  0  0  0  0  0  0
  139.9410   78.2340  220.5840 C   0  0  0  0  0  0  0  0  0  0  0  0
  140.8190   77.0470  220.1610 C   0  0  0  0  0  0  0  0  0  0  0  0
  140.8000   76.1510  221.3040 N   0  0  0  0  0  0  0  0  0  0  0  0
  141.0150   74.7550  221.1310 C   0  0  0  0  0  0  0  0  0  0  0  0
  141.6370   74.2350  220.0570 N   0  0  0  0  0  0  0  0  0  0  0  0
  141.8150   72.8950  219.9400 C   0  0  0  0  0  0  0  0  0  0  0  0
  142.5190   72.3780  218.7140 C   0  0  0  0  0  0  0  0  0  0  0  0
  144.0050   72.6390  218.9870 C   0  0  2  0  0  0  0  0  0  0  0  0
  144.3020   72.2090  220.3860 C   0  0  0  0  0  0  0  0  0  0  0  0
  145.4930   72.9020  221.0110 C   0  0  0  0  0  0  0  0  0  0  0  0
  145.4380   74.4000  220.8090 C   0  0  0  0  0  0  0  0  0  0  0  0
  144.3190   74.7890  219.9750 N   0  0  0  0  0  0  0  0  0  0  0  0
  144.3000   74.0800  218.7330 C   0  0  0  0  0  0  0  0  0  0  0  0
  141.3810   72.0420  220.8860 N   0  0  0  0  0  0  0  0  0  0  0  0
  140.7580   72.5490  221.9640 C   0  0  0  0  0  0  0  0  0  0  0  0
  140.2860   71.6920  222.9810 N   0  0  0  0  0  0  0  0  0  0  0  0
  139.3990   70.5960  222.6330 C   0  0  0  0  0  0  0  0  0  0  0  0
  138.2910   70.5980  223.6950 C   0  0  0  0  0  0  0  0  0  0  0  0
  139.0010   70.1500  224.9470 C   0  0  0  0  0  0  0  0  0  0  0  0
  138.5010   69.1370  225.7400 C   0  0  0  0  0  0  0  0  0  0  0  0
  139.2040   68.7780  226.8710 C   0  0  0  0  0  0  0  0  0  0  0  0
  140.3940   69.4430  227.1820 C   0  0  0  0  0  0  0  0  0  0  0  0
  140.8700   70.4540  226.3690 C   0  0  0  0  0  0  0  0  0  0  0  0
  140.1750   70.8240  225.2320 C   0  0  0  0  0  0  0  0  0  0  0  0
  140.6880   71.9110  224.3570 C   0  0  0  0  0  0  0  0  0  0  0  0
  140.5890   73.8880  222.0630 N   0  0  0  0  0  0  0  0  0  0  0  0
  140.5620   76.6280  222.6650 C   0  0  0  0  0  0  0  0  0  0  0  0
  142.1539   81.7312  222.7496 H   0  0  0  0  0  0  0  0  0  0  0  0
  142.7073   80.2571  224.6341 H   0  0  0  0  0  0  0  0  0  0  0  0
  142.0160   77.8765  224.6834 H   0  0  0  0  0  0  0  0  0  0  0  0
  140.8468   80.8387  220.8008 H   0  0  0  0  0  0  0  0  0  0  0  0
  138.9590   77.8898  220.9407 H   0  0  0  0  0  0  0  0  0  0  0  0
  139.7305   78.9285  219.7574 H   0  0  0  0  0  0  0  0  0  0  0  0
  140.4005   76.5517  219.2724 H   0  0  0  0  0  0  0  0  0  0  0  0
  141.8392   77.3580  219.8919 H   0  0  0  0  0  0  0  0  0  0  0  0
  142.3309   71.3023  218.5820 H   0  0  0  0  0  0  0  0  0  0  0  0
  142.1702   72.8680  217.7930 H   0  0  0  0  0  0  0  0  0  0  0  0
  144.6577   72.0609  218.3163 H   0  0  0  0  0  0  0  0  0  0  0  0
  143.4176   72.4180  221.0057 H   0  0  0  0  0  0  0  0  0  0  0  0
  144.5489   71.1380  220.3406 H   0  0  0  0  0  0  0  0  0  0  0  0
  145.5043   72.6879  222.0899 H   0  0  0  0  0  0  0  0  0  0  0  0
  146.4041   72.5236  220.5245 H   0  0  0  0  0  0  0  0  0  0  0  0
  145.3380   74.8882  221.7896 H   0  0  0  0  0  0  0  0  0  0  0  0
  146.3649   74.7117  220.3053 H   0  0  0  0  0  0  0  0  0  0  0  0
  143.4090   74.7400  220.4620 H   0  0  0  0  0  0  0  0  0  0  0  0
  143.5224   74.5040  218.0806 H   0  0  0  0  0  0  0  0  0  0  0  0
  145.2804   74.1727  218.2429 H   0  0  0  0  0  0  0  0  0  0  0  0
  138.9702   70.7538  221.6324 H   0  0  0  0  0  0  0  0  0  0  0  0
  139.9342   69.6352  222.6095 H   0  0  0  0  0  0  0  0  0  0  0  0
  137.8698   71.6062  223.8215 H   0  0  0  0  0  0  0  0  0  0  0  0
  137.4424   69.9505  223.4293 H   0  0  0  0  0  0  0  0  0  0  0  0
  137.5627   68.6273  225.4758 H   0  0  0  0  0  0  0  0  0  0  0  0
  138.8313   67.9746  227.5234 H   0  0  0  0  0  0  0  0  0  0  0  0
  140.9571   69.1585  228.0831 H   0  0  0  0  0  0  0  0  0  0  0  0
  141.8076   70.9677  226.6278 H   0  0  0  0  0  0  0  0  0  0  0  0
  140.2842   72.8741  224.7026 H   0  0  0  0  0  0  0  0  0  0  0  0
  141.7868   71.9184  224.4083 H   0  0  0  0  0  0  0  0  0  0  0  0
  139.4866   76.5838  222.8919 H   0  0  0  0  0  0  0  0  0  0  0  0
  141.1010   75.9974  223.3873 H   0  0  0  0  0  0  0  0  0  0  0  0
  1  2  2  0
  2  3  1  0
  3  4  2  0
  4  5  1  0
  5  6  2  0
  5  7  1  0
  7  8  1  0
  8  9  1  0
  9 10  1  0
 10 11  2  0
 11 12  1  0
 12 13  1  0
 13 14  1  0
 14 15  1  0
 15 16  1  0
 16 17  1  0
 17 18  1  0
 18 19  1  0
 12 20  2  0
 20 21  1  0
 21 22  1  0
 22 23  1  0
 23 24  1  0
 24 25  1  0
 25 26  2  0
 26 27  1  0
 27 28  2  0
 28 29  1  0
 29 30  2  0
 30 31  1  0
 21 32  2  0
  9 33  1  0
  6  1  1  0
 32 10  1  0
 33  4  1  0
 19 14  1  0
 31 22  1  0
 30 25  1  0
  1 34  1  0
  2 35  1  0
  3 36  1  0
  6 37  1  0
  7 38  1  0
  7 39  1  0
  8 40  1  0
  8 41  1  0
 13 42  1  0
 13 43  1  0
 14 44  1  6
 15 45  1  0
 15 46  1  0
 16 47  1  0
 16 48  1  0
 17 49  1  0
 17 50  1  0
 18 51  1  0
 19 52  1  0
 19 53  1  0
 23 54  1  0
 23 55  1  0
 24 56  1  0
 24 57  1  0
 26 58  1  0
 27 59  1  0
 28 60  1  0
 29 61  1  0
 31 62  1  0
 31 63  1  0
 33 64  1  0
 33 65  1  0
M  END
>  <smiles>  (22) 
c1ccc2c(c1)CCN(c1nc(CC3CCCNC3)nc(N3CCc4ccccc4C3)n1)C2

>  <score_type>  (22) 
oracle

>  <origin>  (22) 
autodockgpu

>  <m_score__min__energy>  (22) 
-10.23

>  <m_primary>  (22) 
energy

>  <rmsd>  (22) 
4.961750600626416

>  <m_score__min__rmsd>  (22) 
4.961750600626416

>  <meeko>  (22) 
{"free_energy": -9.37, "intermolecular_energy": -10.56, "internal_energy": -2.0, "cluster_size": 50, "cluster_id": 1, "rank_in_cluster": 26}

>  <energy>  (22) 
-9.42

>  <cluster_rmsd>  (22) 
0.81

>  <cluster>  (22) 
1

$$$$

     RDKit          3D

 65 70  0  0  0  0  0  0  0  0999 V2000
  139.3350   69.8900  228.2700 C   0  0  0  0  0  0  0  0  0  0  0  0
  140.2710   70.9020  228.3230 C   0  0  0  0  0  0  0  0  0  0  0  0
  140.9490   71.3550  227.2090 C   0  0  0  0  0  0  0  0  0  0  0  0
  140.6580   70.7500  226.0040 C   0  0  0  0  0  0  0  0  0  0  0  0
  139.7210   69.7370  225.9500 C   0  0  0  0  0  0  0  0  0  0  0  0
  139.0400   69.2810  227.0600 C   0  0  0  0  0  0  0  0  0  0  0  0
  139.4830   69.1490  224.5820 C   0  0  0  0  0  0  0  0  0  0  0  0
  139.0850   70.3680  223.7360 C   0  0  0  0  0  0  0  0  0  0  0  0
  140.2850   71.1840  223.6830 N   0  0  0  0  0  0  0  0  0  0  0  0
  140.5030   72.0750  222.5950 C   0  0  0  0  0  0  0  0  0  0  0  0
  140.9800   71.6750  221.4020 N   0  0  0  0  0  0  0  0  0  0  0  0
  141.1710   72.5670  220.3970 C   0  0  0  0  0  0  0  0  0  0  0  0
  141.7050   72.0540  219.0860 C   0  0  0  0  0  0  0  0  0  0  0  0
  143.1850   72.4560  219.0930 C   0  0  2  0  0  0  0  0  0  0  0  0
  143.7260   72.2120  220.4630 C   0  0  0  0  0  0  0  0  0  0  0  0
  144.9280   73.0590  220.8180 C   0  0  0  0  0  0  0  0  0  0  0  0
  144.7060   74.5160  220.4770 C   0  0  0  0  0  0  0  0  0  0  0  0
  143.4440   74.7220  219.7950 N   0  0  0  0  0  0  0  0  0  0  0  0
  143.3050   73.8760  218.6510 C   0  0  0  0  0  0  0  0  0  0  0  0
  140.8920   73.8740  220.5530 N   0  0  0  0  0  0  0  0  0  0  0  0
  140.4160   74.2870  221.7410 C   0  0  0  0  0  0  0  0  0  0  0  0
  140.1100   75.6490  221.9510 N   0  0  0  0  0  0  0  0  0  0  0  0
  138.8010   76.0140  222.4620 C   0  0  0  0  0  0  0  0  0  0  0  0
  138.3420   77.2150  221.6250 C   0  0  0  0  0  0  0  0  0  0  0  0
  139.2620   78.3250  222.0670 C   0  0  0  0  0  0  0  0  0  0  0  0
  138.7780   79.5610  222.4420 C   0  0  0  0  0  0  0  0  0  0  0  0
  139.6780   80.5300  222.8360 C   0  0  0  0  0  0  0  0  0  0  0  0
  141.0450   80.2360  222.8430 C   0  0  0  0  0  0  0  0  0  0  0  0
  141.5010   78.9890  222.4610 C   0  0  0  0  0  0  0  0  0  0  0  0
  140.6090   78.0090  222.0650 C   0  0  0  0  0  0  0  0  0  0  0  0
  141.1000   76.6670  221.6550 C   0  0  0  0  0  0  0  0  0  0  0  0
  140.2320   73.3840  222.7320 N   0  0  0  0  0  0  0  0  0  0  0  0
  141.3110   71.1330  224.7230 C   0  0  0  0  0  0  0  0  0  0  0  0
  138.8227   69.5662  229.1880 H   0  0  0  0  0  0  0  0  0  0  0  0
  140.4866   71.3685  229.2956 H   0  0  0  0  0  0  0  0  0  0  0  0
  141.6903   72.1646  227.2794 H   0  0  0  0  0  0  0  0  0  0  0  0
  138.2979   68.4722  226.9882 H   0  0  0  0  0  0  0  0  0  0  0  0
  140.3976   68.6797  224.1906 H   0  0  0  0  0  0  0  0  0  0  0  0
  138.7192   68.3574  224.5813 H   0  0  0  0  0  0  0  0  0  0  0  0
  138.7818   70.0571  222.7254 H   0  0  0  0  0  0  0  0  0  0  0  0
  138.2294   70.9113  224.1635 H   0  0  0  0  0  0  0  0  0  0  0  0
  141.5989   70.9609  219.0236 H   0  0  0  0  0  0  0  0  0  0  0  0
  141.1627   72.4664  218.2224 H   0  0  0  0  0  0  0  0  0  0  0  0
  143.7807   71.8558  218.3895 H   0  0  0  0  0  0  0  0  0  0  0  0
  142.9287   72.4233  221.1908 H   0  0  0  0  0  0  0  0  0  0  0  0
  144.0608   71.1645  220.4873 H   0  0  0  0  0  0  0  0  0  0  0  0
  145.1200   72.9708  221.8975 H   0  0  0  0  0  0  0  0  0  0  0  0
  145.7871   72.6971  220.2340 H   0  0  0  0  0  0  0  0  0  0  0  0
  144.7086   75.1038  221.4068 H   0  0  0  0  0  0  0  0  0  0  0  0
  145.5150   74.8372  219.8044 H   0  0  0  0  0  0  0  0  0  0  0  0
  142.6260   74.6610  220.4220 H   0  0  0  0  0  0  0  0  0  0  0  0
  142.4030   74.1628  218.0905 H   0  0  0  0  0  0  0  0  0  0  0  0
  144.1888   73.9851  218.0052 H   0  0  0  0  0  0  0  0  0  0  0  0
  138.0979   75.1760  222.3462 H   0  0  0  0  0  0  0  0  0  0  0  0
  138.8403   76.2601  223.5334 H   0  0  0  0  0  0  0  0  0  0  0  0
  138.4584   77.0125  220.5501 H   0  0  0  0  0  0  0  0  0  0  0  0
  137.2787   77.4567  221.7701 H   0  0  0  0  0  0  0  0  0  0  0  0
  137.6981   79.7697  222.4273 H   0  0  0  0  0  0  0  0  0  0  0  0
  139.3231   81.5252  223.1419 H   0  0  0  0  0  0  0  0  0  0  0  0
  141.7653   81.0061  223.1561 H   0  0  0  0  0  0  0  0  0  0  0  0
  142.5798   78.7743  222.4719 H   0  0  0  0  0  0  0  0  0  0  0  0
  141.3025   76.6709  220.5738 H   0  0  0  0  0  0  0  0  0  0  0  0
  142.0201   76.4400  222.2135 H   0  0  0  0  0  0  0  0  0  0  0  0
  142.0741   70.3868  224.4567 H   0  0  0  0  0  0  0  0  0  0  0  0
  141.7979   72.1142  224.8240 H   0  0  0  0  0  0  0  0  0  0  0  0
  1  2  2  0
  2  3  1  0
  3  4  2  0
  4  5  1  0
  5  6  2  0
  5  7  1  0
  7  8  1  0
  8  9  1  0
  9 10  1  0
 10 11  2  0
 11 12  1  0
 12 13  1  0
 13 14  1  0
 14 15  1  0
 15 16  1  0
 16 17  1  0
 17 18  1  0
 18 19  1  0
 12 20  2  0
 20 21  1  0
 21 22  1  0
 22 23  1  0
 23 24  1  0
 24 25  1  0
 25 26  2  0
 26 27  1  0
 27 28  2  0
 28 29  1  0
 29 30  2  0
 30 31  1  0
 21 32  2  0
  9 33  1  0
  6  1  1  0
 32 10  1  0
 33  4  1  0
 19 14  1  0
 31 22  1  0
 30 25  1  0
  1 34  1  0
  2 35  1  0
  3 36  1  0
  6 37  1  0
  7 38  1  0
  7 39  1  0
  8 40  1  0
  8 41  1  0
 13 42  1  0
 13 43  1  0
 14 44  1  6
 15 45  1  0
 15 46  1  0
 16 47  1  0
 16 48  1  0
 17 49  1  0
 17 50  1  0
 18 51  1  0
 19 52  1  0
 19 53  1  0
 23 54  1  0
 23 55  1  0
 24 56  1  0
 24 57  1  0
 26 58  1  0
 27 59  1  0
 28 60  1  0
 29 61  1  0
 31 62  1  0
 31 63  1  0
 33 64  1  0
 33 65  1  0
M  END
>  <smiles>  (23) 
c1ccc2c(c1)CCN(c1nc(CC3CCCNC3)nc(N3CCc4ccccc4C3)n1)C2

>  <score_type>  (23) 
oracle

>  <origin>  (23) 
autodockgpu

>  <m_score__min__energy>  (23) 
-10.23

>  <m_primary>  (23) 
energy

>  <rmsd>  (23) 
10.936723022542738

>  <m_score__min__rmsd>  (23) 
10.936723022542738

>  <meeko>  (23) 
{"free_energy": -9.12, "intermolecular_energy": -10.31, "internal_energy": -2.04, "cluster_size": 50, "cluster_id": 1, "rank_in_cluster": 46}

>  <energy>  (23) 
-9.41

>  <cluster_rmsd>  (23) 
0.8

>  <cluster>  (23) 
1

$$$$

     RDKit          3D

 65 70  0  0  0  0  0  0  0  0999 V2000
  139.5830   69.7840  228.0300 C   0  0  0  0  0  0  0  0  0  0  0  0
  140.5730   70.7450  228.0170 C   0  0  0  0  0  0  0  0  0  0  0  0
  141.1040   71.2600  226.8500 C   0  0  0  0  0  0  0  0  0  0  0  0
  140.6030   70.7720  225.6610 C   0  0  0  0  0  0  0  0  0  0  0  0
  139.6130   69.8090  225.6730 C   0  0  0  0  0  0  0  0  0  0  0  0
  139.0790   69.2930  226.8360 C   0  0  0  0  0  0  0  0  0  0  0  0
  139.1420   69.3500  224.3160 C   0  0  0  0  0  0  0  0  0  0  0  0
  138.6920   70.6520  223.6360 C   0  0  0  0  0  0  0  0  0  0  0  0
  139.9160   71.4160  223.4640 N   0  0  0  0  0  0  0  0  0  0  0  0
  140.0210   72.3850  222.4260 C   0  0  0  0  0  0  0  0  0  0  0  0
  140.2120   72.0610  221.1350 N   0  0  0  0  0  0  0  0  0  0  0  0
  140.3060   73.0240  220.1840 C   0  0  0  0  0  0  0  0  0  0  0  0
  140.5190   72.5940  218.7570 C   0  0  0  0  0  0  0  0  0  0  0  0
  142.0240   72.3180  218.6610 C   0  0  2  0  0  0  0  0  0  0  0  0
  142.2850   70.9660  219.2380 C   0  0  0  0  0  0  0  0  0  0  0  0
  143.6930   70.7730  219.7590 C   0  0  0  0  0  0  0  0  0  0  0  0
  144.1290   71.9270  220.6330 C   0  0  0  0  0  0  0  0  0  0  0  0
  143.1370   72.9820  220.6650 N   0  0  0  0  0  0  0  0  0  0  0  0
  142.7640   73.4130  219.3540 C   0  0  0  0  0  0  0  0  0  0  0  0
  140.2120   74.3300  220.4940 N   0  0  0  0  0  0  0  0  0  0  0  0
  140.0210   74.6680  221.7820 C   0  0  0  0  0  0  0  0  0  0  0  0
  139.9170   76.0250  222.1530 N   0  0  0  0  0  0  0  0  0  0  0  0
  138.6470   76.5330  222.6430 C   0  0  0  0  0  0  0  0  0  0  0  0
  138.4390   77.8860  221.9500 C   0  0  0  0  0  0  0  0  0  0  0  0
  139.4870   78.7690  222.5780 C   0  0  0  0  0  0  0  0  0  0  0  0
  139.1760   80.0130  223.0890 C   0  0  0  0  0  0  0  0  0  0  0  0
  140.1850   80.7670  223.6500 C   0  0  0  0  0  0  0  0  0  0  0  0
  141.4860   80.2560  223.6860 C   0  0  0  0  0  0  0  0  0  0  0  0
  141.7690   79.0080  223.1660 C   0  0  0  0  0  0  0  0  0  0  0  0
  140.7660   78.2410  222.6020 C   0  0  0  0  0  0  0  0  0  0  0  0
  141.0700   76.8980  222.0430 C   0  0  0  0  0  0  0  0  0  0  0  0
  139.9300   73.6930  222.7160 N   0  0  0  0  0  0  0  0  0  0  0  0
  141.0790   71.2320  224.3290 C   0  0  0  0  0  0  0  0  0  0  0  0
  139.1939   69.4077  228.9876 H   0  0  0  0  0  0  0  0  0  0  0  0
  140.9565   71.1176  228.9783 H   0  0  0  0  0  0  0  0  0  0  0  0
  141.8927   72.0265  226.8683 H   0  0  0  0  0  0  0  0  0  0  0  0
  138.2896   68.5272  226.8163 H   0  0  0  0  0  0  0  0  0  0  0  0
  139.9606   68.8755  223.7550 H   0  0  0  0  0  0  0  0  0  0  0  0
  138.3430   68.5960  224.3712 H   0  0  0  0  0  0  0  0  0  0  0  0
  138.2257   70.4408  222.6624 H   0  0  0  0  0  0  0  0  0  0  0  0
  137.9406   71.1946  224.2284 H   0  0  0  0  0  0  0  0  0  0  0  0
  139.9417   71.6845  218.5345 H   0  0  0  0  0  0  0  0  0  0  0  0
  140.1861   73.3553  218.0362 H   0  0  0  0  0  0  0  0  0  0  0  0
  142.3785   72.3086  217.6197 H   0  0  0  0  0  0  0  0  0  0  0  0
  141.5844   70.8056  220.0707 H   0  0  0  0  0  0  0  0  0  0  0  0
  142.1495   70.2427  218.4204 H   0  0  0  0  0  0  0  0  0  0  0  0
  143.7308   69.8451  220.3486 H   0  0  0  0  0  0  0  0  0  0  0  0
  144.3735   70.7200  218.8964 H   0  0  0  0  0  0  0  0  0  0  0  0
  144.2892   71.5577  221.6567 H   0  0  0  0  0  0  0  0  0  0  0  0
  145.0568   72.3426  220.2130 H   0  0  0  0  0  0  0  0  0  0  0  0
  142.3130   72.7500  221.2440 H   0  0  0  0  0  0  0  0  0  0  0  0
  142.1187   74.3006  219.4298 H   0  0  0  0  0  0  0  0  0  0  0  0
  143.6681   73.6643  218.7801 H   0  0  0  0  0  0  0  0  0  0  0  0
  137.8324   75.8410  222.3833 H   0  0  0  0  0  0  0  0  0  0  0  0
  138.6492   76.6366  223.7381 H   0  0  0  0  0  0  0  0  0  0  0  0
  138.5965   77.8000  220.8647 H   0  0  0  0  0  0  0  0  0  0  0  0
  137.4187   78.2780  222.0740 H   0  0  0  0  0  0  0  0  0  0  0  0
  138.1451   80.3947  223.0495 H   0  0  0  0  0  0  0  0  0  0  0  0
  139.9682   81.7621  224.0657 H   0  0  0  0  0  0  0  0  0  0  0  0
  142.2932   80.8545  224.1335 H   0  0  0  0  0  0  0  0  0  0  0  0
  142.7984   78.6219  223.2007 H   0  0  0  0  0  0  0  0  0  0  0  0
  141.3448   77.0017  220.9829 H   0  0  0  0  0  0  0  0  0  0  0  0
  141.9027   76.4581  222.6114 H   0  0  0  0  0  0  0  0  0  0  0  0
  141.7508   70.4777  223.8934 H   0  0  0  0  0  0  0  0  0  0  0  0
  141.6296   72.1789  224.4298 H   0  0  0  0  0  0  0  0  0  0  0  0
  1  2  2  0
  2  3  1  0
  3  4  2  0
  4  5  1  0
  5  6  2  0
  5  7  1  0
  7  8  1  0
  8  9  1  0
  9 10  1  0
 10 11  2  0
 11 12  1  0
 12 13  1  0
 13 14  1  0
 14 15  1  0
 15 16  1  0
 16 17  1  0
 17 18  1  0
 18 19  1  0
 12 20  2  0
 20 21  1  0
 21 22  1  0
 22 23  1  0
 23 24  1  0
 24 25  1  0
 25 26  2  0
 26 27  1  0
 27 28  2  0
 28 29  1  0
 29 30  2  0
 30 31  1  0
 21 32  2  0
  9 33  1  0
  6  1  1  0
 32 10  1  0
 33  4  1  0
 19 14  1  0
 31 22  1  0
 30 25  1  0
  1 34  1  0
  2 35  1  0
  3 36  1  0
  6 37  1  0
  7 38  1  0
  7 39  1  0
  8 40  1  0
  8 41  1  0
 13 42  1  0
 13 43  1  0
 14 44  1  6
 15 45  1  0
 15 46  1  0
 16 47  1  0
 16 48  1  0
 17 49  1  0
 17 50  1  0
 18 51  1  0
 19 52  1  0
 19 53  1  0
 23 54  1  0
 23 55  1  0
 24 56  1  0
 24 57  1  0
 26 58  1  0
 27 59  1  0
 28 60  1  0
 29 61  1  0
 31 62  1  0
 31 63  1  0
 33 64  1  0
 33 65  1  0
M  END
>  <smiles>  (24) 
c1ccc2c(c1)CCN(c1nc(CC3CCCNC3)nc(N3CCc4ccccc4C3)n1)C2

>  <score_type>  (24) 
oracle

>  <origin>  (24) 
autodockgpu

>  <m_score__min__energy>  (24) 
-10.23

>  <m_primary>  (24) 
energy

>  <rmsd>  (24) 
10.780212884588826

>  <m_score__min__rmsd>  (24) 
10.780212884588826

>  <meeko>  (24) 
{"free_energy": -8.86, "intermolecular_energy": -10.05, "internal_energy": -2.05, "cluster_size": 50, "cluster_id": 1, "rank_in_cluster": 48}

>  <energy>  (24) 
-9.41

>  <cluster_rmsd>  (24) 
0.86

>  <cluster>  (24) 
1

$$$$

     RDKit          3D

 65 70  0  0  0  0  0  0  0  0999 V2000
  139.4220   69.8680  228.2630 C   0  0  0  0  0  0  0  0  0  0  0  0
  140.3550   70.8830  228.3000 C   0  0  0  0  0  0  0  0  0  0  0  0
  141.0070   71.3450  227.1740 C   0  0  0  0  0  0  0  0  0  0  0  0
  140.6930   70.7440  225.9720 C   0  0  0  0  0  0  0  0  0  0  0  0
  139.7590   69.7260  225.9340 C   0  0  0  0  0  0  0  0  0  0  0  0
  139.1040   69.2630  227.0570 C   0  0  0  0  0  0  0  0  0  0  0  0
  139.4940   69.1440  224.5690 C   0  0  0  0  0  0  0  0  0  0  0  0
  139.0720   70.3650  223.7380 C   0  0  0  0  0  0  0  0  0  0  0  0
  140.2670   71.1870  223.6620 N   0  0  0  0  0  0  0  0  0  0  0  0
  140.4580   72.0840  222.5740 C   0  0  0  0  0  0  0  0  0  0  0  0
  140.9120   71.6920  221.3690 N   0  0  0  0  0  0  0  0  0  0  0  0
  141.0770   72.5890  220.3650 C   0  0  0  0  0  0  0  0  0  0  0  0
  141.5890   72.0850  219.0410 C   0  0  0  0  0  0  0  0  0  0  0  0
  143.0720   72.4720  219.0310 C   0  0  2  0  0  0  0  0  0  0  0  0
  143.6280   72.2140  220.3930 C   0  0  0  0  0  0  0  0  0  0  0  0
  144.8420   73.0480  220.7380 C   0  0  0  0  0  0  0  0  0  0  0  0
  144.6300   74.5080  220.4080 C   0  0  0  0  0  0  0  0  0  0  0  0
  143.3620   74.7310  219.7430 N   0  0  0  0  0  0  0  0  0  0  0  0
  143.2000   73.8940  218.5960 C   0  0  0  0  0  0  0  0  0  0  0  0
  140.7940   73.8930  220.5320 N   0  0  0  0  0  0  0  0  0  0  0  0
  140.3390   74.2990  221.7310 C   0  0  0  0  0  0  0  0  0  0  0  0
  140.0290   75.6570  221.9530 N   0  0  0  0  0  0  0  0  0  0  0  0
  138.6420   76.0530  222.1150 C   0  0  0  0  0  0  0  0  0  0  0  0
  138.4660   77.3280  221.2790 C   0  0  0  0  0  0  0  0  0  0  0  0
  139.2640   78.3590  222.0370 C   0  0  0  0  0  0  0  0  0  0  0  0
  138.7330   79.5910  222.3590 C   0  0  0  0  0  0  0  0  0  0  0  0
  139.5190   80.4860  223.0540 C   0  0  0  0  0  0  0  0  0  0  0  0
  140.8220   80.1250  223.4110 C   0  0  0  0  0  0  0  0  0  0  0  0
  141.3270   78.8840  223.0730 C   0  0  0  0  0  0  0  0  0  0  0  0
  140.5490   77.9770  222.3770 C   0  0  0  0  0  0  0  0  0  0  0  0
  141.0920   76.6420  222.0150 C   0  0  0  0  0  0  0  0  0  0  0  0
  140.1810   73.3900  222.7210 N   0  0  0  0  0  0  0  0  0  0  0  0
  141.3150   71.1360  224.6790 C   0  0  0  0  0  0  0  0  0  0  0  0
  138.9303   69.5386  229.1902 H   0  0  0  0  0  0  0  0  0  0  0  0
  140.5902   71.3452  229.2701 H   0  0  0  0  0  0  0  0  0  0  0  0
  141.7457   72.1580  227.2325 H   0  0  0  0  0  0  0  0  0  0  0  0
  138.3638   68.4514  226.9979 H   0  0  0  0  0  0  0  0  0  0  0  0
  140.4020   68.6810  224.1553 H   0  0  0  0  0  0  0  0  0  0  0  0
  138.7340   68.3489  224.5810 H   0  0  0  0  0  0  0  0  0  0  0  0
  138.7477   70.0574  222.7329 H   0  0  0  0  0  0  0  0  0  0  0  0
  138.2238   70.9024  224.1872 H   0  0  0  0  0  0  0  0  0  0  0  0
  141.4714   70.9937  218.9685 H   0  0  0  0  0  0  0  0  0  0  0  0
  141.0392   72.5126  218.1896 H   0  0  0  0  0  0  0  0  0  0  0  0
  143.6529   71.8706  218.3162 H   0  0  0  0  0  0  0  0  0  0  0  0
  142.8419   72.4276  221.1322 H   0  0  0  0  0  0  0  0  0  0  0  0
  143.9534   71.1633  220.4066 H   0  0  0  0  0  0  0  0  0  0  0  0
  145.0461   72.9519  221.8146 H   0  0  0  0  0  0  0  0  0  0  0  0
  145.6904   72.6815  220.1415 H   0  0  0  0  0  0  0  0  0  0  0  0
  144.6500   75.0904  221.3410 H   0  0  0  0  0  0  0  0  0  0  0  0
  145.4336   74.8247  219.7268 H   0  0  0  0  0  0  0  0  0  0  0  0
  142.5510   74.6740  220.3810 H   0  0  0  0  0  0  0  0  0  0  0  0
  142.2936   74.1930  218.0491 H   0  0  0  0  0  0  0  0  0  0  0  0
  144.0762   73.9988  217.9393 H   0  0  0  0  0  0  0  0  0  0  0  0
  137.9729   75.2604  221.7488 H   0  0  0  0  0  0  0  0  0  0  0  0
  138.3934   76.2268  223.1723 H   0  0  0  0  0  0  0  0  0  0  0  0
  138.8654   77.1905  220.2634 H   0  0  0  0  0  0  0  0  0  0  0  0
  137.4115   77.6130  221.1491 H   0  0  0  0  0  0  0  0  0  0  0  0
  137.7053   79.8536  222.0678 H   0  0  0  0  0  0  0  0  0  0  0  0
  139.1241   81.4761  223.3254 H   0  0  0  0  0  0  0  0  0  0  0  0
  141.4512   80.8361  223.9664 H   0  0  0  0  0  0  0  0  0  0  0  0
  142.3546   78.6158  223.3594 H   0  0  0  0  0  0  0  0  0  0  0  0
  141.5831   76.7059  221.0328 H   0  0  0  0  0  0  0  0  0  0  0  0
  141.8160   76.3338  222.7837 H   0  0  0  0  0  0  0  0  0  0  0  0
  142.0756   70.3948  224.3924 H   0  0  0  0  0  0  0  0  0  0  0  0
  141.7987   72.1193  224.7741 H   0  0  0  0  0  0  0  0  0  0  0  0
  1  2  2  0
  2  3  1  0
  3  4  2  0
  4  5  1  0
  5  6  2  0
  5  7  1  0
  7  8  1  0
  8  9  1  0
  9 10  1  0
 10 11  2  0
 11 12  1  0
 12 13  1  0
 13 14  1  0
 14 15  1  0
 15 16  1  0
 16 17  1  0
 17 18  1  0
 18 19  1  0
 12 20  2  0
 20 21  1  0
 21 22  1  0
 22 23  1  0
 23 24  1  0
 24 25  1  0
 25 26  2  0
 26 27  1  0
 27 28  2  0
 28 29  1  0
 29 30  2  0
 30 31  1  0
 21 32  2  0
  9 33  1  0
  6  1  1  0
 32 10  1  0
 33  4  1  0
 19 14  1  0
 31 22  1  0
 30 25  1  0
  1 34  1  0
  2 35  1  0
  3 36  1  0
  6 37  1  0
  7 38  1  0
  7 39  1  0
  8 40  1  0
  8 41  1  0
 13 42  1  0
 13 43  1  0
 14 44  1  6
 15 45  1  0
 15 46  1  0
 16 47  1  0
 16 48  1  0
 17 49  1  0
 17 50  1  0
 18 51  1  0
 19 52  1  0
 19 53  1  0
 23 54  1  0
 23 55  1  0
 24 56  1  0
 24 57  1  0
 26 58  1  0
 27 59  1  0
 28 60  1  0
 29 61  1  0
 31 62  1  0
 31 63  1  0
 33 64  1  0
 33 65  1  0
M  END
>  <smiles>  (25) 
c1ccc2c(c1)CCN(c1nc(CC3CCCNC3)nc(N3CCc4ccccc4C3)n1)C2

>  <score_type>  (25) 
oracle

>  <origin>  (25) 
autodockgpu

>  <m_score__min__energy>  (25) 
-10.23

>  <m_primary>  (25) 
energy

>  <rmsd>  (25) 
10.932659884806588

>  <m_score__min__rmsd>  (25) 
10.932659884806588

>  <meeko>  (25) 
{"free_energy": -9.17, "intermolecular_energy": -10.36, "internal_energy": -2.03, "cluster_size": 50, "cluster_id": 1, "rank_in_cluster": 42}

>  <energy>  (25) 
-9.38

>  <cluster_rmsd>  (25) 
0.79

>  <cluster>  (25) 
1

$$$$

     RDKit          3D

 65 70  0  0  0  0  0  0  0  0999 V2000
  140.9660   81.1590  222.2960 C   0  0  0  0  0  0  0  0  0  0  0  0
  142.1670   80.5370  222.5670 C   0  0  0  0  0  0  0  0  0  0  0  0
  142.2770   79.1770  222.7760 C   0  0  0  0  0  0  0  0  0  0  0  0
  141.1170   78.4320  222.7060 C   0  0  0  0  0  0  0  0  0  0  0  0
  139.9140   79.0550  222.4360 C   0  0  0  0  0  0  0  0  0  0  0  0
  139.8000   80.4140  222.2250 C   0  0  0  0  0  0  0  0  0  0  0  0
  138.7130   78.1440  222.3840 C   0  0  0  0  0  0  0  0  0  0  0  0
  139.0970   77.1110  221.3140 C   0  0  0  0  0  0  0  0  0  0  0  0
  140.2060   76.3760  221.8970 N   0  0  0  0  0  0  0  0  0  0  0  0
  140.4770   75.0390  221.4920 C   0  0  0  0  0  0  0  0  0  0  0  0
  140.9570   74.7220  220.2760 N   0  0  0  0  0  0  0  0  0  0  0  0
  141.1980   73.4300  219.9400 C   0  0  0  0  0  0  0  0  0  0  0  0
  141.7360   73.1440  218.5630 C   0  0  0  0  0  0  0  0  0  0  0  0
  143.2570   73.2620  218.7140 C   0  0  2  0  0  0  0  0  0  0  0  0
  143.6870   72.3450  219.8110 C   0  0  0  0  0  0  0  0  0  0  0  0
  144.9840   72.7420  220.4810 C   0  0  0  0  0  0  0  0  0  0  0  0
  145.0010   74.2110  220.8430 C   0  0  0  0  0  0  0  0  0  0  0  0
  143.8200   74.8970  220.3590 N   0  0  0  0  0  0  0  0  0  0  0  0
  143.6110   74.6910  218.9600 C   0  0  0  0  0  0  0  0  0  0  0  0
  140.9680   72.4240  220.8030 N   0  0  0  0  0  0  0  0  0  0  0  0
  140.4890   72.7260  222.0220 C   0  0  0  0  0  0  0  0  0  0  0  0
  140.2330   71.7030  222.9600 N   0  0  0  0  0  0  0  0  0  0  0  0
  139.5700   70.4870  222.5230 C   0  0  0  0  0  0  0  0  0  0  0  0
  138.5220   70.1690  223.5970 C   0  0  0  0  0  0  0  0  0  0  0  0
  139.3500   69.7620  224.7890 C   0  0  0  0  0  0  0  0  0  0  0  0
  139.0900   68.6020  225.4900 C   0  0  0  0  0  0  0  0  0  0  0  0
  139.8890   68.2910  226.5700 C   0  0  0  0  0  0  0  0  0  0  0  0
  140.9320   69.1520  226.9250 C   0  0  0  0  0  0  0  0  0  0  0  0
  141.1680   70.3080  226.2050 C   0  0  0  0  0  0  0  0  0  0  0  0
  140.3750   70.6300  225.1190 C   0  0  0  0  0  0  0  0  0  0  0  0
  140.6300   71.8730  224.3440 C   0  0  0  0  0  0  0  0  0  0  0  0
  140.2540   74.0200  222.3400 N   0  0  0  0  0  0  0  0  0  0  0  0
  141.0830   76.9590  222.9110 C   0  0  0  0  0  0  0  0  0  0  0  0
  140.9340   82.2469  222.1362 H   0  0  0  0  0  0  0  0  0  0  0  0
  143.0775   81.1521  222.6189 H   0  0  0  0  0  0  0  0  0  0  0  0
  143.2482   78.7067  222.9894 H   0  0  0  0  0  0  0  0  0  0  0  0
  138.8288   80.8838  222.0105 H   0  0  0  0  0  0  0  0  0  0  0  0
  138.5442   77.6591  223.3568 H   0  0  0  0  0  0  0  0  0  0  0  0
  137.7791   78.6768  222.1515 H   0  0  0  0  0  0  0  0  0  0  0  0
  138.2529   76.4379  221.1031 H   0  0  0  0  0  0  0  0  0  0  0  0
  139.3652   77.5815  220.3566 H   0  0  0  0  0  0  0  0  0  0  0  0
  141.4548   72.1314  218.2381 H   0  0  0  0  0  0  0  0  0  0  0  0
  141.3357   73.8339  217.8055 H   0  0  0  0  0  0  0  0  0  0  0  0
  143.7895   72.9584  217.8006 H   0  0  0  0  0  0  0  0  0  0  0  0
  142.8959   72.3270  220.5751 H   0  0  0  0  0  0  0  0  0  0  0  0
  143.8585   71.3610  219.3503 H   0  0  0  0  0  0  0  0  0  0  0  0
  145.1078   72.1475  221.3982 H   0  0  0  0  0  0  0  0  0  0  0  0
  145.8060   72.5537  219.7748 H   0  0  0  0  0  0  0  0  0  0  0  0
  145.0456   74.3076  221.9378 H   0  0  0  0  0  0  0  0  0  0  0  0
  145.8817   74.6701  220.3700 H   0  0  0  0  0  0  0  0  0  0  0  0
  142.9720   74.6880  220.9110 H   0  0  0  0  0  0  0  0  0  0  0  0
  142.7909   75.3367  218.6130 H   0  0  0  0  0  0  0  0  0  0  0  0
  144.5315   74.9400  218.4116 H   0  0  0  0  0  0  0  0  0  0  0  0
  139.0837   70.6454  221.5491 H   0  0  0  0  0  0  0  0  0  0  0  0
  140.2847   69.6600  222.3993 H   0  0  0  0  0  0  0  0  0  0  0  0
  137.9126   71.0557  223.8261 H   0  0  0  0  0  0  0  0  0  0  0  0
  137.8111   69.3902  223.2838 H   0  0  0  0  0  0  0  0  0  0  0  0
  138.2632   67.9398  225.1936 H   0  0  0  0  0  0  0  0  0  0  0  0
  139.7073   67.3727  227.1478 H   0  0  0  0  0  0  0  0  0  0  0  0
  141.5712   68.9069  227.7860 H   0  0  0  0  0  0  0  0  0  0  0  0
  141.9916   70.9758  226.4977 H   0  0  0  0  0  0  0  0  0  0  0  0
  140.0539   72.6992  224.7863 H   0  0  0  0  0  0  0  0  0  0  0  0
  141.7063   72.0976  224.3787 H   0  0  0  0  0  0  0  0  0  0  0  0
  140.6942   76.7317  223.9146 H   0  0  0  0  0  0  0  0  0  0  0  0
  142.0962   76.5400  222.8229 H   0  0  0  0  0  0  0  0  0  0  0  0
  1  2  2  0
  2  3  1  0
  3  4  2  0
  4  5  1  0
  5  6  2  0
  5  7  1  0
  7  8  1  0
  8  9  1  0
  9 10  1  0
 10 11  2  0
 11 12  1  0
 12 13  1  0
 13 14  1  0
 14 15  1  0
 15 16  1  0
 16 17  1  0
 17 18  1  0
 18 19  1  0
 12 20  2  0
 20 21  1  0
 21 22  1  0
 22 23  1  0
 23 24  1  0
 24 25  1  0
 25 26  2  0
 26 27  1  0
 27 28  2  0
 28 29  1  0
 29 30  2  0
 30 31  1  0
 21 32  2  0
  9 33  1  0
  6  1  1  0
 32 10  1  0
 33  4  1  0
 19 14  1  0
 31 22  1  0
 30 25  1  0
  1 34  1  0
  2 35  1  0
  3 36  1  0
  6 37  1  0
  7 38  1  0
  7 39  1  0
  8 40  1  0
  8 41  1  0
 13 42  1  0
 13 43  1  0
 14 44  1  6
 15 45  1  0
 15 46  1  0
 16 47  1  0
 16 48  1  0
 17 49  1  0
 17 50  1  0
 18 51  1  0
 19 52  1  0
 19 53  1  0
 23 54  1  0
 23 55  1  0
 24 56  1  0
 24 57  1  0
 26 58  1  0
 27 59  1  0
 28 60  1  0
 29 61  1  0
 31 62  1  0
 31 63  1  0
 33 64  1  0
 33 65  1  0
M  END
>  <smiles>  (26) 
c1ccc2c(c1)CCN(c1nc(CC3CCCNC3)nc(N3CCc4ccccc4C3)n1)C2

>  <score_type>  (26) 
oracle

>  <origin>  (26) 
autodockgpu

>  <m_score__min__energy>  (26) 
-10.23

>  <m_primary>  (26) 
energy

>  <rmsd>  (26) 
4.870038547401698

>  <m_score__min__rmsd>  (26) 
4.870038547401698

>  <meeko>  (26) 
{"free_energy": -9.28, "intermolecular_energy": -10.47, "internal_energy": -2.01, "cluster_size": 50, "cluster_id": 1, "rank_in_cluster": 36}

>  <energy>  (26) 
-9.37

>  <cluster_rmsd>  (26) 
0.84

>  <cluster>  (26) 
1

$$$$

     RDKit          3D

 65 70  0  0  0  0  0  0  0  0999 V2000
  140.8830   81.2610  222.5190 C   0  0  0  0  0  0  0  0  0  0  0  0
  142.1010   80.6490  222.7290 C   0  0  0  0  0  0  0  0  0  0  0  0
  142.2370   79.2840  222.8900 C   0  0  0  0  0  0  0  0  0  0  0  0
  141.0870   78.5240  222.8340 C   0  0  0  0  0  0  0  0  0  0  0  0
  139.8670   79.1360  222.6250 C   0  0  0  0  0  0  0  0  0  0  0  0
  139.7260   80.4990  222.4620 C   0  0  0  0  0  0  0  0  0  0  0  0
  138.6780   78.2090  222.5820 C   0  0  0  0  0  0  0  0  0  0  0  0
  139.0410   77.2170  221.4670 C   0  0  0  0  0  0  0  0  0  0  0  0
  140.1790   76.4810  221.9880 N   0  0  0  0  0  0  0  0  0  0  0  0
  140.4560   75.1620  221.5310 C   0  0  0  0  0  0  0  0  0  0  0  0
  140.9250   74.8950  220.2980 N   0  0  0  0  0  0  0  0  0  0  0  0
  141.1720   73.6180  219.9120 C   0  0  0  0  0  0  0  0  0  0  0  0
  141.6960   73.3870  218.5190 C   0  0  0  0  0  0  0  0  0  0  0  0
  143.2210   73.4520  218.6690 C   0  0  2  0  0  0  0  0  0  0  0  0
  143.6290   72.4510  219.6980 C   0  0  0  0  0  0  0  0  0  0  0  0
  144.9400   72.7650  220.3860 C   0  0  0  0  0  0  0  0  0  0  0  0
  145.0000   74.2040  220.8470 C   0  0  0  0  0  0  0  0  0  0  0  0
  143.8370   74.9550  220.4180 N   0  0  0  0  0  0  0  0  0  0  0  0
  143.6160   74.8510  219.0100 C   0  0  0  0  0  0  0  0  0  0  0  0
  140.9600   72.5780  220.7390 N   0  0  0  0  0  0  0  0  0  0  0  0
  140.4910   72.8310  221.9740 C   0  0  0  0  0  0  0  0  0  0  0  0
  140.2540   71.7720  222.8760 N   0  0  0  0  0  0  0  0  0  0  0  0
  139.5950   70.5680  222.4020 C   0  0  0  0  0  0  0  0  0  0  0  0
  138.5610   70.2030  223.4760 C   0  0  0  0  0  0  0  0  0  0  0  0
  139.4070   69.7580  224.6420 C   0  0  0  0  0  0  0  0  0  0  0  0
  139.1630   68.5710  225.3010 C   0  0  0  0  0  0  0  0  0  0  0  0
  139.9780   68.2260  226.3600 C   0  0  0  0  0  0  0  0  0  0  0  0
  141.0190   69.0810  226.7340 C   0  0  0  0  0  0  0  0  0  0  0  0
  141.2380   70.2640  226.0550 C   0  0  0  0  0  0  0  0  0  0  0  0
  140.4300   70.6210  224.9920 C   0  0  0  0  0  0  0  0  0  0  0  0
  140.6660   71.8940  224.2610 C   0  0  0  0  0  0  0  0  0  0  0  0
  140.2510   74.1110  222.3420 N   0  0  0  0  0  0  0  0  0  0  0  0
  141.0810   77.0450  222.9910 C   0  0  0  0  0  0  0  0  0  0  0  0
  140.8295   82.3529  222.3968 H   0  0  0  0  0  0  0  0  0  0  0  0
  143.0041   81.2757  222.7701 H   0  0  0  0  0  0  0  0  0  0  0  0
  143.2214   78.8220  223.0560 H   0  0  0  0  0  0  0  0  0  0  0  0
  138.7412   80.9597  222.2946 H   0  0  0  0  0  0  0  0  0  0  0  0
  138.5481   77.6905  223.5434 H   0  0  0  0  0  0  0  0  0  0  0  0
  137.7296   78.7348  222.3973 H   0  0  0  0  0  0  0  0  0  0  0  0
  138.2001   76.5380  221.2623 H   0  0  0  0  0  0  0  0  0  0  0  0
  139.2704   77.7224  220.5173 H   0  0  0  0  0  0  0  0  0  0  0  0
  141.3835   72.4012  218.1441 H   0  0  0  0  0  0  0  0  0  0  0  0
  141.3137   74.1260  217.7995 H   0  0  0  0  0  0  0  0  0  0  0  0
  143.7413   73.1968  217.7341 H   0  0  0  0  0  0  0  0  0  0  0  0
  142.8408   72.4031  220.4638 H   0  0  0  0  0  0  0  0  0  0  0  0
  143.7706   71.4962  219.1704 H   0  0  0  0  0  0  0  0  0  0  0  0
  145.0507   72.1060  221.2598 H   0  0  0  0  0  0  0  0  0  0  0  0
  145.7535   72.6025  219.6636 H   0  0  0  0  0  0  0  0  0  0  0  0
  145.0516   74.2242  221.9456 H   0  0  0  0  0  0  0  0  0  0  0  0
  145.8914   74.6693  220.4010 H   0  0  0  0  0  0  0  0  0  0  0  0
  142.9850   74.7320  220.9600 H   0  0  0  0  0  0  0  0  0  0  0  0
  142.8126   75.5413  218.7132 H   0  0  0  0  0  0  0  0  0  0  0  0
  144.5406   75.1114  218.4740 H   0  0  0  0  0  0  0  0  0  0  0  0
  139.0965   70.7582  221.4401 H   0  0  0  0  0  0  0  0  0  0  0  0
  140.3140   69.7515  222.2399 H   0  0  0  0  0  0  0  0  0  0  0  0
  137.9486   71.0762  223.7451 H   0  0  0  0  0  0  0  0  0  0  0  0
  137.8510   69.4318  223.1427 H   0  0  0  0  0  0  0  0  0  0  0  0
  138.3374   67.9142  224.9895 H   0  0  0  0  0  0  0  0  0  0  0  0
  139.8098   67.2857  226.9055 H   0  0  0  0  0  0  0  0  0  0  0  0
  141.6704   68.8090  227.5776 H   0  0  0  0  0  0  0  0  0  0  0  0
  142.0609   70.9262  226.3624 H   0  0  0  0  0  0  0  0  0  0  0  0
  140.0886   72.6983  224.7403 H   0  0  0  0  0  0  0  0  0  0  0  0
  141.7408   72.1262  224.2918 H   0  0  0  0  0  0  0  0  0  0  0  0
  140.7295   76.7793  223.9989 H   0  0  0  0  0  0  0  0  0  0  0  0
  142.0967   76.6451  222.8552 H   0  0  0  0  0  0  0  0  0  0  0  0
  1  2  2  0
  2  3  1  0
  3  4  2  0
  4  5  1  0
  5  6  2  0
  5  7  1  0
  7  8  1  0
  8  9  1  0
  9 10  1  0
 10 11  2  0
 11 12  1  0
 12 13  1  0
 13 14  1  0
 14 15  1  0
 15 16  1  0
 16 17  1  0
 17 18  1  0
 18 19  1  0
 12 20  2  0
 20 21  1  0
 21 22  1  0
 22 23  1  0
 23 24  1  0
 24 25  1  0
 25 26  2  0
 26 27  1  0
 27 28  2  0
 28 29  1  0
 29 30  2  0
 30 31  1  0
 21 32  2  0
  9 33  1  0
  6  1  1  0
 32 10  1  0
 33  4  1  0
 19 14  1  0
 31 22  1  0
 30 25  1  0
  1 34  1  0
  2 35  1  0
  3 36  1  0
  6 37  1  0
  7 38  1  0
  7 39  1  0
  8 40  1  0
  8 41  1  0
 13 42  1  0
 13 43  1  0
 14 44  1  6
 15 45  1  0
 15 46  1  0
 16 47  1  0
 16 48  1  0
 17 49  1  0
 17 50  1  0
 18 51  1  0
 19 52  1  0
 19 53  1  0
 23 54  1  0
 23 55  1  0
 24 56  1  0
 24 57  1  0
 26 58  1  0
 27 59  1  0
 28 60  1  0
 29 61  1  0
 31 62  1  0
 31 63  1  0
 33 64  1  0
 33 65  1  0
M  END
>  <smiles>  (27) 
c1ccc2c(c1)CCN(c1nc(CC3CCCNC3)nc(N3CCc4ccccc4C3)n1)C2

>  <score_type>  (27) 
oracle

>  <origin>  (27) 
autodockgpu

>  <m_score__min__energy>  (27) 
-10.23

>  <m_primary>  (27) 
energy

>  <rmsd>  (27) 
4.983063097954966

>  <m_score__min__rmsd>  (27) 
4.983063097954966

>  <meeko>  (27) 
{"free_energy": -9.3, "intermolecular_energy": -10.49, "internal_energy": -2.01, "cluster_size": 50, "cluster_id": 1, "rank_in_cluster": 30}

>  <energy>  (27) 
-9.37

>  <cluster_rmsd>  (27) 
0.84

>  <cluster>  (27) 
1

$$$$

     RDKit          3D

 65 70  0  0  0  0  0  0  0  0999 V2000
  139.5990   69.8250  228.1370 C   0  0  0  0  0  0  0  0  0  0  0  0
  140.4470   70.9130  228.1300 C   0  0  0  0  0  0  0  0  0  0  0  0
  140.9600   71.4570  226.9690 C   0  0  0  0  0  0  0  0  0  0  0  0
  140.5910   70.8650  225.7780 C   0  0  0  0  0  0  0  0  0  0  0  0
  139.7420   69.7750  225.7850 C   0  0  0  0  0  0  0  0  0  0  0  0
  139.2270   69.2290  226.9420 C   0  0  0  0  0  0  0  0  0  0  0  0
  139.4070   69.2110  224.4280 C   0  0  0  0  0  0  0  0  0  0  0  0
  138.8170   70.4140  223.6770 C   0  0  0  0  0  0  0  0  0  0  0  0
  139.9310   71.3340  223.5290 N   0  0  0  0  0  0  0  0  0  0  0  0
  139.9540   72.2730  222.4600 C   0  0  0  0  0  0  0  0  0  0  0  0
  140.0270   71.9120  221.1660 N   0  0  0  0  0  0  0  0  0  0  0  0
  140.0460   72.8480  220.1840 C   0  0  0  0  0  0  0  0  0  0  0  0
  140.1280   72.3770  218.7570 C   0  0  0  0  0  0  0  0  0  0  0  0
  141.5790   71.9120  218.5890 C   0  0  2  0  0  0  0  0  0  0  0  0
  141.7230   70.5880  219.2640 C   0  0  0  0  0  0  0  0  0  0  0  0
  143.1330   70.2660  219.7090 C   0  0  0  0  0  0  0  0  0  0  0  0
  143.7640   71.4240  220.4490 C   0  0  0  0  0  0  0  0  0  0  0  0
  142.9070   72.5920  220.4520 N   0  0  0  0  0  0  0  0  0  0  0  0
  142.4910   72.9600  219.1350 C   0  0  0  0  0  0  0  0  0  0  0  0
  139.9930   74.1630  220.4650 N   0  0  0  0  0  0  0  0  0  0  0  0
  139.9210   74.5380  221.7540 C   0  0  0  0  0  0  0  0  0  0  0  0
  139.8630   75.9060  222.0950 N   0  0  0  0  0  0  0  0  0  0  0  0
  138.5940   76.4860  222.4980 C   0  0  0  0  0  0  0  0  0  0  0  0
  138.4970   77.8340  221.7710 C   0  0  0  0  0  0  0  0  0  0  0  0
  139.5500   78.6760  222.4460 C   0  0  0  0  0  0  0  0  0  0  0  0
  139.2720   79.9430  222.9150 C   0  0  0  0  0  0  0  0  0  0  0  0
  140.2830   80.6570  223.5230 C   0  0  0  0  0  0  0  0  0  0  0  0
  141.5520   80.0840  223.6470 C   0  0  0  0  0  0  0  0  0  0  0  0
  141.8010   78.8120  223.1670 C   0  0  0  0  0  0  0  0  0  0  0  0
  140.7960   78.0860  222.5560 C   0  0  0  0  0  0  0  0  0  0  0  0
  141.0640   76.7170  222.0400 C   0  0  0  0  0  0  0  0  0  0  0  0
  139.9030   73.5900  222.7190 N   0  0  0  0  0  0  0  0  0  0  0  0
  141.0650   71.3420  224.4520 C   0  0  0  0  0  0  0  0  0  0  0  0
  139.2181   69.4305  229.0905 H   0  0  0  0  0  0  0  0  0  0  0  0
  140.7270   71.3674  229.0918 H   0  0  0  0  0  0  0  0  0  0  0  0
  141.6344   72.3257  226.9924 H   0  0  0  0  0  0  0  0  0  0  0  0
  138.5522   68.3606  226.9177 H   0  0  0  0  0  0  0  0  0  0  0  0
  140.3101   68.8367  223.9236 H   0  0  0  0  0  0  0  0  0  0  0  0
  138.7171   68.3557  224.4773 H   0  0  0  0  0  0  0  0  0  0  0  0
  138.4329   70.1074  222.6929 H   0  0  0  0  0  0  0  0  0  0  0  0
  137.9699   70.8666  224.2132 H   0  0  0  0  0  0  0  0  0  0  0  0
  139.4303   71.5449  218.5815 H   0  0  0  0  0  0  0  0  0  0  0  0
  139.8558   73.1656  218.0400 H   0  0  0  0  0  0  0  0  0  0  0  0
  141.8515   71.7767  217.5319 H   0  0  0  0  0  0  0  0  0  0  0  0
  141.0718   70.5806  220.1505 H   0  0  0  0  0  0  0  0  0  0  0  0
  141.4446   69.8245  218.5227 H   0  0  0  0  0  0  0  0  0  0  0  0
  143.1057   69.3903  220.3741 H   0  0  0  0  0  0  0  0  0  0  0  0
  143.7372   70.0616  218.8128 H   0  0  0  0  0  0  0  0  0  0  0  0
  143.9554   71.1202  221.4888 H   0  0  0  0  0  0  0  0  0  0  0  0
  144.7002   71.6883  219.9355 H   0  0  0  0  0  0  0  0  0  0  0  0
  142.1060   72.5090  221.1010 H   0  0  0  0  0  0  0  0  0  0  0  0
  141.9609   73.9231  219.1738 H   0  0  0  0  0  0  0  0  0  0  0  0
  143.3734   73.0525  218.4847 H   0  0  0  0  0  0  0  0  0  0  0  0
  137.7622   75.8304  222.2008 H   0  0  0  0  0  0  0  0  0  0  0  0
  138.5358   76.6110  223.5893 H   0  0  0  0  0  0  0  0  0  0  0  0
  138.7139   77.7187  220.6988 H   0  0  0  0  0  0  0  0  0  0  0  0
  137.4926   78.2790  221.8269 H   0  0  0  0  0  0  0  0  0  0  0  0
  138.2660   80.3744  222.8064 H   0  0  0  0  0  0  0  0  0  0  0  0
  140.0923   81.6698  223.9075 H   0  0  0  0  0  0  0  0  0  0  0  0
  142.3605   80.6511  224.1314 H   0  0  0  0  0  0  0  0  0  0  0  0
  142.8049   78.3749  223.2719 H   0  0  0  0  0  0  0  0  0  0  0  0
  141.4070   76.7846  220.9970 H   0  0  0  0  0  0  0  0  0  0  0  0
  141.8375   76.2476  222.6656 H   0  0  0  0  0  0  0  0  0  0  0  0
  141.8546   70.6742  224.0770 H   0  0  0  0  0  0  0  0  0  0  0  0
  141.4753   72.3589  224.5395 H   0  0  0  0  0  0  0  0  0  0  0  0
  1  2  2  0
  2  3  1  0
  3  4  2  0
  4  5  1  0
  5  6  2  0
  5  7  1  0
  7  8  1  0
  8  9  1  0
  9 10  1  0
 10 11  2  0
 11 12  1  0
 12 13  1  0
 13 14  1  0
 14 15  1  0
 15 16  1  0
 16 17  1  0
 17 18  1  0
 18 19  1  0
 12 20  2  0
 20 21  1  0
 21 22  1  0
 22 23  1  0
 23 24  1  0
 24 25  1  0
 25 26  2  0
 26 27  1  0
 27 28  2  0
 28 29  1  0
 29 30  2  0
 30 31  1  0
 21 32  2  0
  9 33  1  0
  6  1  1  0
 32 10  1  0
 33  4  1  0
 19 14  1  0
 31 22  1  0
 30 25  1  0
  1 34  1  0
  2 35  1  0
  3 36  1  0
  6 37  1  0
  7 38  1  0
  7 39  1  0
  8 40  1  0
  8 41  1  0
 13 42  1  0
 13 43  1  0
 14 44  1  6
 15 45  1  0
 15 46  1  0
 16 47  1  0
 16 48  1  0
 17 49  1  0
 17 50  1  0
 18 51  1  0
 19 52  1  0
 19 53  1  0
 23 54  1  0
 23 55  1  0
 24 56  1  0
 24 57  1  0
 26 58  1  0
 27 59  1  0
 28 60  1  0
 29 61  1  0
 31 62  1  0
 31 63  1  0
 33 64  1  0
 33 65  1  0
M  END
>  <smiles>  (28) 
c1ccc2c(c1)CCN(c1nc(CC3CCCNC3)nc(N3CCc4ccccc4C3)n1)C2

>  <score_type>  (28) 
oracle

>  <origin>  (28) 
autodockgpu

>  <m_score__min__energy>  (28) 
-10.23

>  <m_primary>  (28) 
energy

>  <rmsd>  (28) 
10.788071805673994

>  <m_score__min__rmsd>  (28) 
10.788071805673994

>  <meeko>  (28) 
{"free_energy": -8.8, "intermolecular_energy": -9.99, "internal_energy": -2.06, "cluster_size": 50, "cluster_id": 1, "rank_in_cluster": 49}

>  <energy>  (28) 
-9.34

>  <cluster_rmsd>  (28) 
0.8

>  <cluster>  (28) 
1

$$$$

     RDKit          3D

 65 70  0  0  0  0  0  0  0  0999 V2000
  139.3870   69.7820  228.2140 C   0  0  0  0  0  0  0  0  0  0  0  0
  140.3370   70.7820  228.2570 C   0  0  0  0  0  0  0  0  0  0  0  0
  140.9840   71.2510  227.1310 C   0  0  0  0  0  0  0  0  0  0  0  0
  140.6460   70.6760  225.9230 C   0  0  0  0  0  0  0  0  0  0  0  0
  139.6960   69.6740  225.8790 C   0  0  0  0  0  0  0  0  0  0  0  0
  139.0460   69.2030  227.0010 C   0  0  0  0  0  0  0  0  0  0  0  0
  139.4060   69.1190  224.5080 C   0  0  0  0  0  0  0  0  0  0  0  0
  138.9950   70.3600  223.7010 C   0  0  0  0  0  0  0  0  0  0  0  0
  140.2020   71.1640  223.6260 N   0  0  0  0  0  0  0  0  0  0  0  0
  140.3960   72.0750  222.5500 C   0  0  0  0  0  0  0  0  0  0  0  0
  140.8420   71.6980  221.3380 N   0  0  0  0  0  0  0  0  0  0  0  0
  141.0100   72.6090  220.3460 C   0  0  0  0  0  0  0  0  0  0  0  0
  141.5120   72.1200  219.0130 C   0  0  0  0  0  0  0  0  0  0  0  0
  143.0150   72.4190  219.0370 C   0  0  2  0  0  0  0  0  0  0  0  0
  143.5110   72.1900  220.4270 C   0  0  0  0  0  0  0  0  0  0  0  0
  144.7620   72.9660  220.7770 C   0  0  0  0  0  0  0  0  0  0  0  0
  144.6490   74.4200  220.3780 C   0  0  0  0  0  0  0  0  0  0  0  0
  143.4190   74.6870  219.6610 N   0  0  0  0  0  0  0  0  0  0  0  0
  143.2420   73.8100  218.5460 C   0  0  0  0  0  0  0  0  0  0  0  0
  140.7380   73.9130  220.5350 N   0  0  0  0  0  0  0  0  0  0  0  0
  140.2910   74.3040  221.7410 C   0  0  0  0  0  0  0  0  0  0  0  0
  139.9940   75.6610  221.9840 N   0  0  0  0  0  0  0  0  0  0  0  0
  138.6210   76.0510  222.2570 C   0  0  0  0  0  0  0  0  0  0  0  0
  138.3730   77.3230  221.4350 C   0  0  0  0  0  0  0  0  0  0  0  0
  139.2230   78.3590  222.1250 C   0  0  0  0  0  0  0  0  0  0  0  0
  138.7140   79.5890  222.4860 C   0  0  0  0  0  0  0  0  0  0  0  0
  139.5490   80.4900  223.1150 C   0  0  0  0  0  0  0  0  0  0  0  0
  140.8770   80.1360  223.3670 C   0  0  0  0  0  0  0  0  0  0  0  0
  141.3600   78.8960  222.9930 C   0  0  0  0  0  0  0  0  0  0  0  0
  140.5340   77.9850  222.3620 C   0  0  0  0  0  0  0  0  0  0  0  0
  141.0530   76.6510  221.9600 C   0  0  0  0  0  0  0  0  0  0  0  0
  140.1300   73.3810  222.7180 N   0  0  0  0  0  0  0  0  0  0  0  0
  141.2610   71.0790  224.6300 C   0  0  0  0  0  0  0  0  0  0  0  0
  138.9007   69.4445  229.1411 H   0  0  0  0  0  0  0  0  0  0  0  0
  140.5900   71.2251  229.2315 H   0  0  0  0  0  0  0  0  0  0  0  0
  141.7376   72.0498  227.1943 H   0  0  0  0  0  0  0  0  0  0  0  0
  138.2919   68.4048  226.9364 H   0  0  0  0  0  0  0  0  0  0  0  0
  140.3015   68.6478  224.0766 H   0  0  0  0  0  0  0  0  0  0  0  0
  138.6328   68.3367  224.5162 H   0  0  0  0  0  0  0  0  0  0  0  0
  138.6557   70.0739  222.6945 H   0  0  0  0  0  0  0  0  0  0  0  0
  138.1600   70.9033  224.1674 H   0  0  0  0  0  0  0  0  0  0  0  0
  141.3318   71.0406  218.9017 H   0  0  0  0  0  0  0  0  0  0  0  0
  141.0016   72.6071  218.1691 H   0  0  0  0  0  0  0  0  0  0  0  0
  143.5811   71.7535  218.3687 H   0  0  0  0  0  0  0  0  0  0  0  0
  142.7163   72.4826  221.1290 H   0  0  0  0  0  0  0  0  0  0  0  0
  143.7716   71.1236  220.4970 H   0  0  0  0  0  0  0  0  0  0  0  0
  144.9263   72.9062  221.8630 H   0  0  0  0  0  0  0  0  0  0  0  0
  145.6049   72.5239  220.2255 H   0  0  0  0  0  0  0  0  0  0  0  0
  144.6742   75.0412  221.2854 H   0  0  0  0  0  0  0  0  0  0  0  0
  145.4916   74.6583  219.7122 H   0  0  0  0  0  0  0  0  0  0  0  0
  142.5860   74.7060  220.2730 H   0  0  0  0  0  0  0  0  0  0  0  0
  142.3726   74.1371  217.9568 H   0  0  0  0  0  0  0  0  0  0  0  0
  144.1428   73.8333  217.9151 H   0  0  0  0  0  0  0  0  0  0  0  0
  137.9284   75.2545  221.9475 H   0  0  0  0  0  0  0  0  0  0  0  0
  138.4570   76.2258  223.3306 H   0  0  0  0  0  0  0  0  0  0  0  0
  138.6914   77.1849  220.3912 H   0  0  0  0  0  0  0  0  0  0  0  0
  137.3102   77.6026  221.3884 H   0  0  0  0  0  0  0  0  0  0  0  0
  137.6651   79.8463  222.2771 H   0  0  0  0  0  0  0  0  0  0  0  0
  139.1721   81.4788  223.4155 H   0  0  0  0  0  0  0  0  0  0  0  0
  141.5452   80.8517  223.8683 H   0  0  0  0  0  0  0  0  0  0  0  0
  142.4080   78.6327  223.1988 H   0  0  0  0  0  0  0  0  0  0  0  0
  141.4643   76.7153  220.9418 H   0  0  0  0  0  0  0  0  0  0  0  0
  141.8369   76.3478  222.6696 H   0  0  0  0  0  0  0  0  0  0  0  0
  142.0058   70.3301  224.3228 H   0  0  0  0  0  0  0  0  0  0  0  0
  141.7628   72.0522  224.7355 H   0  0  0  0  0  0  0  0  0  0  0  0
  1  2  2  0
  2  3  1  0
  3  4  2  0
  4  5  1  0
  5  6  2  0
  5  7  1  0
  7  8  1  0
  8  9  1  0
  9 10  1  0
 10 11  2  0
 11 12  1  0
 12 13  1  0
 13 14  1  0
 14 15  1  0
 15 16  1  0
 16 17  1  0
 17 18  1  0
 18 19  1  0
 12 20  2  0
 20 21  1  0
 21 22  1  0
 22 23  1  0
 23 24  1  0
 24 25  1  0
 25 26  2  0
 26 27  1  0
 27 28  2  0
 28 29  1  0
 29 30  2  0
 30 31  1  0
 21 32  2  0
  9 33  1  0
  6  1  1  0
 32 10  1  0
 33  4  1  0
 19 14  1  0
 31 22  1  0
 30 25  1  0
  1 34  1  0
  2 35  1  0
  3 36  1  0
  6 37  1  0
  7 38  1  0
  7 39  1  0
  8 40  1  0
  8 41  1  0
 13 42  1  0
 13 43  1  0
 14 44  1  6
 15 45  1  0
 15 46  1  0
 16 47  1  0
 16 48  1  0
 17 49  1  0
 17 50  1  0
 18 51  1  0
 19 52  1  0
 19 53  1  0
 23 54  1  0
 23 55  1  0
 24 56  1  0
 24 57  1  0
 26 58  1  0
 27 59  1  0
 28 60  1  0
 29 61  1  0
 31 62  1  0
 31 63  1  0
 33 64  1  0
 33 65  1  0
M  END
>  <smiles>  (29) 
c1ccc2c(c1)CCN(c1nc(CC3CCCNC3)nc(N3CCc4ccccc4C3)n1)C2

>  <score_type>  (29) 
oracle

>  <origin>  (29) 
autodockgpu

>  <m_score__min__energy>  (29) 
-10.23

>  <m_primary>  (29) 
energy

>  <rmsd>  (29) 
10.956999848443349

>  <m_score__min__rmsd>  (29) 
10.956999848443349

>  <meeko>  (29) 
{"free_energy": -9.14, "intermolecular_energy": -10.33, "internal_energy": -2.01, "cluster_size": 50, "cluster_id": 1, "rank_in_cluster": 45}

>  <energy>  (29) 
-9.3

>  <cluster_rmsd>  (29) 
0.85

>  <cluster>  (29) 
1

$$$$

     RDKit          3D

 65 70  0  0  0  0  0  0  0  0999 V2000
  141.8950   80.6990  222.7570 C   0  0  0  0  0  0  0  0  0  0  0  0
  142.2380   79.8480  223.7870 C   0  0  0  0  0  0  0  0  0  0  0  0
  141.8430   78.5260  223.8310 C   0  0  0  0  0  0  0  0  0  0  0  0
  141.0720   78.0620  222.7850 C   0  0  0  0  0  0  0  0  0  0  0  0
  140.7270   78.9140  221.7530 C   0  0  0  0  0  0  0  0  0  0  0  0
  141.1200   80.2360  221.7040 C   0  0  0  0  0  0  0  0  0  0  0  0
  139.8830   78.3010  220.6650 C   0  0  0  0  0  0  0  0  0  0  0  0
  140.7260   77.1080  220.1900 C   0  0  0  0  0  0  0  0  0  0  0  0
  140.7450   76.2000  221.3230 N   0  0  0  0  0  0  0  0  0  0  0  0
  140.9330   74.8030  221.1250 C   0  0  0  0  0  0  0  0  0  0  0  0
  141.5180   74.2890  220.0280 N   0  0  0  0  0  0  0  0  0  0  0  0
  141.6730   72.9480  219.8880 C   0  0  0  0  0  0  0  0  0  0  0  0
  142.3360   72.4370  218.6360 C   0  0  0  0  0  0  0  0  0  0  0  0
  143.8370   72.6170  218.8980 C   0  0  2  0  0  0  0  0  0  0  0  0
  144.1400   72.0670  220.2530 C   0  0  0  0  0  0  0  0  0  0  0  0
  145.3690   72.6610  220.9050 C   0  0  0  0  0  0  0  0  0  0  0  0
  145.3730   74.1710  220.8210 C   0  0  0  0  0  0  0  0  0  0  0  0
  144.2570   74.6690  220.0420 N   0  0  0  0  0  0  0  0  0  0  0  0
  144.1860   74.0600  218.7500 C   0  0  0  0  0  0  0  0  0  0  0  0
  141.2500   72.0880  220.8330 N   0  0  0  0  0  0  0  0  0  0  0  0
  140.6640   72.5890  221.9340 C   0  0  0  0  0  0  0  0  0  0  0  0
  140.2050   71.7250  222.9510 N   0  0  0  0  0  0  0  0  0  0  0  0
  139.2470   70.6840  222.6220 C   0  0  0  0  0  0  0  0  0  0  0  0
  138.1990   70.7070  223.7430 C   0  0  0  0  0  0  0  0  0  0  0  0
  138.9530   70.1870  224.9410 C   0  0  0  0  0  0  0  0  0  0  0  0
  138.4470   69.1760  225.7320 C   0  0  0  0  0  0  0  0  0  0  0  0
  139.1910   68.7490  226.8130 C   0  0  0  0  0  0  0  0  0  0  0  0
  140.4270   69.3470  227.0760 C   0  0  0  0  0  0  0  0  0  0  0  0
  140.9080   70.3590  226.2670 C   0  0  0  0  0  0  0  0  0  0  0  0
  140.1720   70.7950  225.1800 C   0  0  0  0  0  0  0  0  0  0  0  0
  140.6900   71.8830  224.3090 C   0  0  0  0  0  0  0  0  0  0  0  0
  140.5180   73.9290  222.0560 N   0  0  0  0  0  0  0  0  0  0  0  0
  140.5740   76.6630  222.6980 C   0  0  0  0  0  0  0  0  0  0  0  0
  142.2361   81.7447  222.7707 H   0  0  0  0  0  0  0  0  0  0  0  0
  142.8536   80.2402  224.6099 H   0  0  0  0  0  0  0  0  0  0  0  0
  142.1310   77.8696  224.6654 H   0  0  0  0  0  0  0  0  0  0  0  0
  140.8321   80.8917  220.8690 H   0  0  0  0  0  0  0  0  0  0  0  0
  138.9134   77.9649  221.0612 H   0  0  0  0  0  0  0  0  0  0  0  0
  139.6451   79.0078  219.8564 H   0  0  0  0  0  0  0  0  0  0  0  0
  140.2623   76.6283  219.3154 H   0  0  0  0  0  0  0  0  0  0  0  0
  141.7373   77.4088  219.8790 H   0  0  0  0  0  0  0  0  0  0  0  0
  142.0939   71.3765  218.4725 H   0  0  0  0  0  0  0  0  0  0  0  0
  142.0005   72.9724  217.7356 H   0  0  0  0  0  0  0  0  0  0  0  0
  144.4542   72.0681  218.1715 H   0  0  0  0  0  0  0  0  0  0  0  0
  143.2758   72.2618  220.9051 H   0  0  0  0  0  0  0  0  0  0  0  0
  144.3414   70.9938  220.1197 H   0  0  0  0  0  0  0  0  0  0  0  0
  145.3901   72.3629  221.9636 H   0  0  0  0  0  0  0  0  0  0  0  0
  146.2550   72.2858  220.3718 H   0  0  0  0  0  0  0  0  0  0  0  0
  145.3099   74.5845  221.8384 H   0  0  0  0  0  0  0  0  0  0  0  0
  146.3035   74.4837  220.3245 H   0  0  0  0  0  0  0  0  0  0  0  0
  143.3540   74.6180  220.5430 H   0  0  0  0  0  0  0  0  0  0  0  0
  143.4146   74.5639  218.1492 H   0  0  0  0  0  0  0  0  0  0  0  0
  145.1604   74.1516  218.2478 H   0  0  0  0  0  0  0  0  0  0  0  0
  138.7735   70.8927  221.6513 H   0  0  0  0  0  0  0  0  0  0  0  0
  139.7316   69.6997  222.5424 H   0  0  0  0  0  0  0  0  0  0  0  0
  137.8359   71.7300  223.9207 H   0  0  0  0  0  0  0  0  0  0  0  0
  137.3059   70.1098  223.5067 H   0  0  0  0  0  0  0  0  0  0  0  0
  137.4717   68.7203  225.5058 H   0  0  0  0  0  0  0  0  0  0  0  0
  138.8146   67.9448  227.4623 H   0  0  0  0  0  0  0  0  0  0  0  0
  141.0231   69.0084  227.9362 H   0  0  0  0  0  0  0  0  0  0  0  0
  141.8816   70.8204  226.4888 H   0  0  0  0  0  0  0  0  0  0  0  0
  140.3523   72.8530  224.7028 H   0  0  0  0  0  0  0  0  0  0  0  0
  141.7890   71.8373  224.3005 H   0  0  0  0  0  0  0  0  0  0  0  0
  139.5092   76.6295  222.9721 H   0  0  0  0  0  0  0  0  0  0  0  0
  141.1363   76.0169  223.3882 H   0  0  0  0  0  0  0  0  0  0  0  0
  1  2  2  0
  2  3  1  0
  3  4  2  0
  4  5  1  0
  5  6  2  0
  5  7  1  0
  7  8  1  0
  8  9  1  0
  9 10  1  0
 10 11  2  0
 11 12  1  0
 12 13  1  0
 13 14  1  0
 14 15  1  0
 15 16  1  0
 16 17  1  0
 17 18  1  0
 18 19  1  0
 12 20  2  0
 20 21  1  0
 21 22  1  0
 22 23  1  0
 23 24  1  0
 24 25  1  0
 25 26  2  0
 26 27  1  0
 27 28  2  0
 28 29  1  0
 29 30  2  0
 30 31  1  0
 21 32  2  0
  9 33  1  0
  6  1  1  0
 32 10  1  0
 33  4  1  0
 19 14  1  0
 31 22  1  0
 30 25  1  0
  1 34  1  0
  2 35  1  0
  3 36  1  0
  6 37  1  0
  7 38  1  0
  7 39  1  0
  8 40  1  0
  8 41  1  0
 13 42  1  0
 13 43  1  0
 14 44  1  6
 15 45  1  0
 15 46  1  0
 16 47  1  0
 16 48  1  0
 17 49  1  0
 17 50  1  0
 18 51  1  0
 19 52  1  0
 19 53  1  0
 23 54  1  0
 23 55  1  0
 24 56  1  0
 24 57  1  0
 26 58  1  0
 27 59  1  0
 28 60  1  0
 29 61  1  0
 31 62  1  0
 31 63  1  0
 33 64  1  0
 33 65  1  0
M  END
>  <smiles>  (30) 
c1ccc2c(c1)CCN(c1nc(CC3CCCNC3)nc(N3CCc4ccccc4C3)n1)C2

>  <score_type>  (30) 
oracle

>  <origin>  (30) 
autodockgpu

>  <m_score__min__energy>  (30) 
-10.23

>  <m_primary>  (30) 
energy

>  <rmsd>  (30) 
4.993970772662996

>  <m_score__min__rmsd>  (30) 
4.993970772662996

>  <meeko>  (30) 
{"free_energy": -9.41, "intermolecular_energy": -10.6, "internal_energy": -1.99, "cluster_size": 50, "cluster_id": 1, "rank_in_cluster": 24}

>  <energy>  (30) 
-9.3

>  <cluster_rmsd>  (30) 
1.24

>  <cluster>  (30) 
1

$$$$

     RDKit          3D

 65 70  0  0  0  0  0  0  0  0999 V2000
  139.4320   69.7120  227.9550 C   0  0  0  0  0  0  0  0  0  0  0  0
  140.4410   70.6510  227.9890 C   0  0  0  0  0  0  0  0  0  0  0  0
  141.0190   71.1730  226.8490 C   0  0  0  0  0  0  0  0  0  0  0  0
  140.5470   70.7160  225.6360 C   0  0  0  0  0  0  0  0  0  0  0  0
  139.5370   69.7740  225.6010 C   0  0  0  0  0  0  0  0  0  0  0  0
  138.9550   69.2510  226.7370 C   0  0  0  0  0  0  0  0  0  0  0  0
  139.0990   69.3480  224.2230 C   0  0  0  0  0  0  0  0  0  0  0  0
  138.6990   70.6700  223.5510 C   0  0  0  0  0  0  0  0  0  0  0  0
  139.9430   71.4100  223.4300 N   0  0  0  0  0  0  0  0  0  0  0  0
  140.1010   72.3930  222.4130 C   0  0  0  0  0  0  0  0  0  0  0  0
  140.4110   72.0900  221.1390 N   0  0  0  0  0  0  0  0  0  0  0  0
  140.5510   73.0670  220.2080 C   0  0  0  0  0  0  0  0  0  0  0  0
  140.8980   72.6600  218.8010 C   0  0  0  0  0  0  0  0  0  0  0  0
  142.4310   72.6580  218.7700 C   0  0  2  0  0  0  0  0  0  0  0  0
  142.9170   71.7970  219.8890 C   0  0  0  0  0  0  0  0  0  0  0  0
  144.3110   72.1330  220.3720 C   0  0  0  0  0  0  0  0  0  0  0  0
  144.4830   73.6180  220.5970 C   0  0  0  0  0  0  0  0  0  0  0  0
  143.3090   74.3640  220.1900 N   0  0  0  0  0  0  0  0  0  0  0  0
  142.9200   74.0660  218.8470 C   0  0  0  0  0  0  0  0  0  0  0  0
  140.3860   74.3650  220.5200 N   0  0  0  0  0  0  0  0  0  0  0  0
  140.0760   74.6820  221.7890 C   0  0  0  0  0  0  0  0  0  0  0  0
  139.8930   76.0310  222.1610 N   0  0  0  0  0  0  0  0  0  0  0  0
  138.5900   76.4700  222.6290 C   0  0  0  0  0  0  0  0  0  0  0  0
  138.3240   77.8120  221.9350 C   0  0  0  0  0  0  0  0  0  0  0  0
  139.3120   78.7470  222.5840 C   0  0  0  0  0  0  0  0  0  0  0  0
  138.9270   79.9710  223.0910 C   0  0  0  0  0  0  0  0  0  0  0  0
  139.8850   80.7750  223.6730 C   0  0  0  0  0  0  0  0  0  0  0  0
  141.2100   80.3340  223.7320 C   0  0  0  0  0  0  0  0  0  0  0  0
  141.5670   79.1040  223.2140 C   0  0  0  0  0  0  0  0  0  0  0  0
  140.6160   78.2870  222.6300 C   0  0  0  0  0  0  0  0  0  0  0  0
  141.0010   76.9630  222.0740 C   0  0  0  0  0  0  0  0  0  0  0  0
  139.9400   73.6950  222.7040 N   0  0  0  0  0  0  0  0  0  0  0  0
  141.0740   71.1870  224.3280 C   0  0  0  0  0  0  0  0  0  0  0  0
  139.0054   69.3286  228.8936 H   0  0  0  0  0  0  0  0  0  0  0  0
  140.8015   70.9998  228.9680 H   0  0  0  0  0  0  0  0  0  0  0  0
  141.8225   71.9221  226.9056 H   0  0  0  0  0  0  0  0  0  0  0  0
  138.1502   68.5033  226.6796 H   0  0  0  0  0  0  0  0  0  0  0  0
  139.9243   68.8644  223.6798 H   0  0  0  0  0  0  0  0  0  0  0  0
  138.2822   68.6115  224.2410 H   0  0  0  0  0  0  0  0  0  0  0  0
  138.2594   70.4845  222.5599 H   0  0  0  0  0  0  0  0  0  0  0  0
  137.9411   71.2193  224.1288 H   0  0  0  0  0  0  0  0  0  0  0  0
  140.5031   71.6580  218.5773 H   0  0  0  0  0  0  0  0  0  0  0  0
  140.4649   73.3375  218.0503 H   0  0  0  0  0  0  0  0  0  0  0  0
  142.8264   72.2381  217.8333 H   0  0  0  0  0  0  0  0  0  0  0  0
  142.2231   71.9075  220.7353 H   0  0  0  0  0  0  0  0  0  0  0  0
  142.9571   70.7685  219.5010 H   0  0  0  0  0  0  0  0  0  0  0  0
  144.4968   71.6052  221.3191 H   0  0  0  0  0  0  0  0  0  0  0  0
  145.0267   71.8187  219.5980 H   0  0  0  0  0  0  0  0  0  0  0  0
  144.6654   73.7972  221.6669 H   0  0  0  0  0  0  0  0  0  0  0  0
  145.3330   73.9597  219.9881 H   0  0  0  0  0  0  0  0  0  0  0  0
  142.5190   74.2730  220.8500 H   0  0  0  0  0  0  0  0  0  0  0  0
  142.1163   74.7504  218.5379 H   0  0  0  0  0  0  0  0  0  0  0  0
  143.7852   74.1901  218.1792 H   0  0  0  0  0  0  0  0  0  0  0  0
  137.8175   75.7370  222.3533 H   0  0  0  0  0  0  0  0  0  0  0  0
  138.5670   76.5702  223.7242 H   0  0  0  0  0  0  0  0  0  0  0  0
  138.5059   77.7376  220.8527 H   0  0  0  0  0  0  0  0  0  0  0  0
  137.2824   78.1494  222.0407 H   0  0  0  0  0  0  0  0  0  0  0  0
  137.8786   80.2987  223.0324 H   0  0  0  0  0  0  0  0  0  0  0  0
  139.6083   81.7556  224.0875 H   0  0  0  0  0  0  0  0  0  0  0  0
  141.9763   80.9727  224.1955 H   0  0  0  0  0  0  0  0  0  0  0  0
  142.6145   78.7722  223.2664 H   0  0  0  0  0  0  0  0  0  0  0  0
  141.2898   77.0839  221.0195 H   0  0  0  0  0  0  0  0  0  0  0  0
  141.8452   76.5656  222.6566 H   0  0  0  0  0  0  0  0  0  0  0  0
  141.7433   70.4256  223.9009 H   0  0  0  0  0  0  0  0  0  0  0  0
  141.6407   72.1202  224.4621 H   0  0  0  0  0  0  0  0  0  0  0  0
  1  2  2  0
  2  3  1  0
  3  4  2  0
  4  5  1  0
  5  6  2  0
  5  7  1  0
  7  8  1  0
  8  9  1  0
  9 10  1  0
 10 11  2  0
 11 12  1  0
 12 13  1  0
 13 14  1  0
 14 15  1  0
 15 16  1  0
 16 17  1  0
 17 18  1  0
 18 19  1  0
 12 20  2  0
 20 21  1  0
 21 22  1  0
 22 23  1  0
 23 24  1  0
 24 25  1  0
 25 26  2  0
 26 27  1  0
 27 28  2  0
 28 29  1  0
 29 30  2  0
 30 31  1  0
 21 32  2  0
  9 33  1  0
  6  1  1  0
 32 10  1  0
 33  4  1  0
 19 14  1  0
 31 22  1  0
 30 25  1  0
  1 34  1  0
  2 35  1  0
  3 36  1  0
  6 37  1  0
  7 38  1  0
  7 39  1  0
  8 40  1  0
  8 41  1  0
 13 42  1  0
 13 43  1  0
 14 44  1  6
 15 45  1  0
 15 46  1  0
 16 47  1  0
 16 48  1  0
 17 49  1  0
 17 50  1  0
 18 51  1  0
 19 52  1  0
 19 53  1  0
 23 54  1  0
 23 55  1  0
 24 56  1  0
 24 57  1  0
 26 58  1  0
 27 59  1  0
 28 60  1  0
 29 61  1  0
 31 62  1  0
 31 63  1  0
 33 64  1  0
 33 65  1  0
M  END
>  <smiles>  (31) 
c1ccc2c(c1)CCN(c1nc(CC3CCCNC3)nc(N3CCc4ccccc4C3)n1)C2

>  <score_type>  (31) 
oracle

>  <origin>  (31) 
autodockgpu

>  <m_score__min__energy>  (31) 
-10.23

>  <m_primary>  (31) 
energy

>  <rmsd>  (31) 
10.79145092543878

>  <m_score__min__rmsd>  (31) 
10.79145092543878

>  <meeko>  (31) 
{"free_energy": -9.16, "intermolecular_energy": -10.36, "internal_energy": -1.99, "cluster_size": 50, "cluster_id": 1, "rank_in_cluster": 43}

>  <energy>  (31) 
-9.29

>  <cluster_rmsd>  (31) 
1.24

>  <cluster>  (31) 
1

$$$$

     RDKit          3D

 65 70  0  0  0  0  0  0  0  0999 V2000
  141.9230   80.6510  222.7730 C   0  0  0  0  0  0  0  0  0  0  0  0
  142.2190   79.8080  223.8240 C   0  0  0  0  0  0  0  0  0  0  0  0
  141.8210   78.4860  223.8610 C   0  0  0  0  0  0  0  0  0  0  0  0
  141.0970   78.0150  222.7850 C   0  0  0  0  0  0  0  0  0  0  0  0
  140.8000   78.8590  221.7320 C   0  0  0  0  0  0  0  0  0  0  0  0
  141.1960   80.1800  221.6910 C   0  0  0  0  0  0  0  0  0  0  0  0
  140.0050   78.2380  220.6120 C   0  0  0  0  0  0  0  0  0  0  0  0
  140.8670   77.0410  220.1840 C   0  0  0  0  0  0  0  0  0  0  0  0
  140.8350   76.1410  221.3240 N   0  0  0  0  0  0  0  0  0  0  0  0
  141.0300   74.7430  221.1460 C   0  0  0  0  0  0  0  0  0  0  0  0
  141.6370   74.2170  220.0650 N   0  0  0  0  0  0  0  0  0  0  0  0
  141.7970   72.8760  219.9440 C   0  0  0  0  0  0  0  0  0  0  0  0
  142.4840   72.3530  218.7100 C   0  0  0  0  0  0  0  0  0  0  0  0
  143.9800   72.5210  219.0050 C   0  0  2  0  0  0  0  0  0  0  0  0
  144.2290   72.0760  220.4080 C   0  0  0  0  0  0  0  0  0  0  0  0
  145.4520   72.6940  221.0490 C   0  0  0  0  0  0  0  0  0  0  0  0
  145.4940   74.1920  220.8450 C   0  0  0  0  0  0  0  0  0  0  0  0
  144.4140   74.6500  219.9930 N   0  0  0  0  0  0  0  0  0  0  0  0
  144.3670   73.9400  218.7530 C   0  0  0  0  0  0  0  0  0  0  0  0
  141.3610   72.0260  220.8910 N   0  0  0  0  0  0  0  0  0  0  0  0
  140.7530   72.5370  221.9760 C   0  0  0  0  0  0  0  0  0  0  0  0
  140.2800   71.6840  222.9950 N   0  0  0  0  0  0  0  0  0  0  0  0
  139.3820   70.5960  222.6510 C   0  0  0  0  0  0  0  0  0  0  0  0
  138.2790   70.6060  223.7190 C   0  0  0  0  0  0  0  0  0  0  0  0
  138.9920   70.1510  224.9670 C   0  0  0  0  0  0  0  0  0  0  0  0
  138.4880   69.1430  225.7620 C   0  0  0  0  0  0  0  0  0  0  0  0
  139.1940   68.7770  226.8890 C   0  0  0  0  0  0  0  0  0  0  0  0
  140.3910   69.4330  227.1950 C   0  0  0  0  0  0  0  0  0  0  0  0
  140.8710   70.4400  226.3800 C   0  0  0  0  0  0  0  0  0  0  0  0
  140.1730   70.8160  225.2460 C   0  0  0  0  0  0  0  0  0  0  0  0
  140.6900   71.8990  224.3690 C   0  0  0  0  0  0  0  0  0  0  0  0
  140.6020   73.8780  222.0800 N   0  0  0  0  0  0  0  0  0  0  0  0
  140.6030   76.6160  222.6870 C   0  0  0  0  0  0  0  0  0  0  0  0
  142.2638   81.6967  222.7936 H   0  0  0  0  0  0  0  0  0  0  0  0
  142.7978   80.2064  224.6703 H   0  0  0  0  0  0  0  0  0  0  0  0
  142.0707   77.8359  224.7125 H   0  0  0  0  0  0  0  0  0  0  0  0
  140.9463   80.8294  220.8390 H   0  0  0  0  0  0  0  0  0  0  0  0
  139.0184   77.9055  220.9671 H   0  0  0  0  0  0  0  0  0  0  0  0
  139.8043   78.9388  219.7882 H   0  0  0  0  0  0  0  0  0  0  0  0
  140.4421   76.5550  219.2934 H   0  0  0  0  0  0  0  0  0  0  0  0
  141.8914   77.3389  219.9160 H   0  0  0  0  0  0  0  0  0  0  0  0
  142.2363   71.2939  218.5461 H   0  0  0  0  0  0  0  0  0  0  0  0
  142.1739   72.8870  217.7997 H   0  0  0  0  0  0  0  0  0  0  0  0
  144.6058   71.9018  218.3455 H   0  0  0  0  0  0  0  0  0  0  0  0
  143.3507   72.3414  221.0147 H   0  0  0  0  0  0  0  0  0  0  0  0
  144.4084   70.9915  220.3675 H   0  0  0  0  0  0  0  0  0  0  0  0
  145.4347   72.4816  222.1281 H   0  0  0  0  0  0  0  0  0  0  0  0
  146.3443   72.2584  220.5757 H   0  0  0  0  0  0  0  0  0  0  0  0
  145.4098   74.6871  221.8237 H   0  0  0  0  0  0  0  0  0  0  0  0
  146.4462   74.4437  220.3551 H   0  0  0  0  0  0  0  0  0  0  0  0
  143.4960   74.6580  220.4670 H   0  0  0  0  0  0  0  0  0  0  0  0
  143.6258   74.4097  218.0897 H   0  0  0  0  0  0  0  0  0  0  0  0
  145.3579   73.9700  218.2762 H   0  0  0  0  0  0  0  0  0  0  0  0
  138.9493   70.7583  221.6528 H   0  0  0  0  0  0  0  0  0  0  0  0
  139.9091   69.6309  222.6243 H   0  0  0  0  0  0  0  0  0  0  0  0
  137.8666   71.6175  223.8486 H   0  0  0  0  0  0  0  0  0  0  0  0
  137.4238   69.9657  223.4571 H   0  0  0  0  0  0  0  0  0  0  0  0
  137.5437   68.6419  225.5030 H   0  0  0  0  0  0  0  0  0  0  0  0
  138.8186   67.9754  227.5421 H   0  0  0  0  0  0  0  0  0  0  0  0
  140.9558   69.1441  228.0936 H   0  0  0  0  0  0  0  0  0  0  0  0
  141.8140   70.9461  226.6342 H   0  0  0  0  0  0  0  0  0  0  0  0
  140.2953   72.8650  224.7169 H   0  0  0  0  0  0  0  0  0  0  0  0
  141.7890   71.8976  224.4150 H   0  0  0  0  0  0  0  0  0  0  0  0
  139.5270   76.5849  222.9135 H   0  0  0  0  0  0  0  0  0  0  0  0
  141.1339   75.9756  223.4067 H   0  0  0  0  0  0  0  0  0  0  0  0
  1  2  2  0
  2  3  1  0
  3  4  2  0
  4  5  1  0
  5  6  2  0
  5  7  1  0
  7  8  1  0
  8  9  1  0
  9 10  1  0
 10 11  2  0
 11 12  1  0
 12 13  1  0
 13 14  1  0
 14 15  1  0
 15 16  1  0
 16 17  1  0
 17 18  1  0
 18 19  1  0
 12 20  2  0
 20 21  1  0
 21 22  1  0
 22 23  1  0
 23 24  1  0
 24 25  1  0
 25 26  2  0
 26 27  1  0
 27 28  2  0
 28 29  1  0
 29 30  2  0
 30 31  1  0
 21 32  2  0
  9 33  1  0
  6  1  1  0
 32 10  1  0
 33  4  1  0
 19 14  1  0
 31 22  1  0
 30 25  1  0
  1 34  1  0
  2 35  1  0
  3 36  1  0
  6 37  1  0
  7 38  1  0
  7 39  1  0
  8 40  1  0
  8 41  1  0
 13 42  1  0
 13 43  1  0
 14 44  1  6
 15 45  1  0
 15 46  1  0
 16 47  1  0
 16 48  1  0
 17 49  1  0
 17 50  1  0
 18 51  1  0
 19 52  1  0
 19 53  1  0
 23 54  1  0
 23 55  1  0
 24 56  1  0
 24 57  1  0
 26 58  1  0
 27 59  1  0
 28 60  1  0
 29 61  1  0
 31 62  1  0
 31 63  1  0
 33 64  1  0
 33 65  1  0
M  END
>  <smiles>  (32) 
c1ccc2c(c1)CCN(c1nc(CC3CCCNC3)nc(N3CCc4ccccc4C3)n1)C2

>  <score_type>  (32) 
oracle

>  <origin>  (32) 
autodockgpu

>  <m_score__min__energy>  (32) 
-10.23

>  <m_primary>  (32) 
energy

>  <rmsd>  (32) 
4.990749024611337

>  <m_score__min__rmsd>  (32) 
4.990749024611337

>  <meeko>  (32) 
{"free_energy": -9.41, "intermolecular_energy": -10.6, "internal_energy": -2.01, "cluster_size": 50, "cluster_id": 1, "rank_in_cluster": 23}

>  <energy>  (32) 
-9.29

>  <cluster_rmsd>  (32) 
1.24

>  <cluster>  (32) 
1

$$$$

     RDKit          3D

 65 70  0  0  0  0  0  0  0  0999 V2000
  141.6020   80.7260  222.4500 C   0  0  0  0  0  0  0  0  0  0  0  0
  142.0860   79.9740  223.5000 C   0  0  0  0  0  0  0  0  0  0  0  0
  141.8140   78.6280  223.6460 C   0  0  0  0  0  0  0  0  0  0  0  0
  141.0190   78.0370  222.6860 C   0  0  0  0  0  0  0  0  0  0  0  0
  140.5330   78.7900  221.6350 C   0  0  0  0  0  0  0  0  0  0  0  0
  140.8030   80.1350  221.4840 C   0  0  0  0  0  0  0  0  0  0  0  0
  139.6760   78.0410  220.6460 C   0  0  0  0  0  0  0  0  0  0  0  0
  140.5880   76.8960  220.1810 C   0  0  0  0  0  0  0  0  0  0  0  0
  140.7630   76.0650  221.3590 N   0  0  0  0  0  0  0  0  0  0  0  0
  141.0610   74.6800  221.2270 C   0  0  0  0  0  0  0  0  0  0  0  0
  141.7760   74.1760  220.2050 N   0  0  0  0  0  0  0  0  0  0  0  0
  142.0310   72.8450  220.1270 C   0  0  0  0  0  0  0  0  0  0  0  0
  142.8380   72.3460  218.9580 C   0  0  0  0  0  0  0  0  0  0  0  0
  144.1990   71.9790  219.5610 C   0  0  2  0  0  0  0  0  0  0  0  0
  144.4220   72.8410  220.7600 C   0  0  0  0  0  0  0  0  0  0  0  0
  145.8780   73.0460  221.1160 C   0  0  0  0  0  0  0  0  0  0  0  0
  146.7030   73.4230  219.9050 C   0  0  0  0  0  0  0  0  0  0  0  0
  145.9190   73.3860  218.6870 N   0  0  0  0  0  0  0  0  0  0  0  0
  145.2510   72.1330  218.5140 C   0  0  0  0  0  0  0  0  0  0  0  0
  141.5830   71.9860  221.0600 N   0  0  0  0  0  0  0  0  0  0  0  0
  140.8670   72.4770  222.0870 C   0  0  0  0  0  0  0  0  0  0  0  0
  140.3760   71.6130  223.0890 N   0  0  0  0  0  0  0  0  0  0  0  0
  139.5040   70.5130  222.7160 C   0  0  0  0  0  0  0  0  0  0  0  0
  138.3710   70.5040  223.7520 C   0  0  0  0  0  0  0  0  0  0  0  0
  139.0550   70.0550  225.0180 C   0  0  0  0  0  0  0  0  0  0  0  0
  138.5430   69.0370  225.7950 C   0  0  0  0  0  0  0  0  0  0  0  0
  139.2210   68.6770  226.9410 C   0  0  0  0  0  0  0  0  0  0  0  0
  140.3990   69.3480  227.2830 C   0  0  0  0  0  0  0  0  0  0  0  0
  140.8880   70.3660  226.4860 C   0  0  0  0  0  0  0  0  0  0  0  0
  140.2180   70.7350  225.3340 C   0  0  0  0  0  0  0  0  0  0  0  0
  140.7440   71.8290  224.4750 C   0  0  0  0  0  0  0  0  0  0  0  0
  140.6220   73.8060  222.1490 N   0  0  0  0  0  0  0  0  0  0  0  0
  140.6430   76.5980  222.7150 C   0  0  0  0  0  0  0  0  0  0  0  0
  141.8503   81.7953  222.3792 H   0  0  0  0  0  0  0  0  0  0  0  0
  142.7163   80.4680  224.2541 H   0  0  0  0  0  0  0  0  0  0  0  0
  142.2146   78.0511  224.4926 H   0  0  0  0  0  0  0  0  0  0  0  0
  140.4028   80.7110  220.6366 H   0  0  0  0  0  0  0  0  0  0  0  0
  138.7681   77.6500  221.1286 H   0  0  0  0  0  0  0  0  0  0  0  0
  139.3236   78.6731  219.8176 H   0  0  0  0  0  0  0  0  0  0  0  0
  140.1117   76.3250  219.3704 H   0  0  0  0  0  0  0  0  0  0  0  0
  141.5459   77.2615  219.7825 H   0  0  0  0  0  0  0  0  0  0  0  0
  142.3624   71.4634  218.5054 H   0  0  0  0  0  0  0  0  0  0  0  0
  142.9232   73.0957  218.1576 H   0  0  0  0  0  0  0  0  0  0  0  0
  144.2370   70.9312  219.8938 H   0  0  0  0  0  0  0  0  0  0  0  0
  143.9729   73.8260  220.5647 H   0  0  0  0  0  0  0  0  0  0  0  0
  143.9589   72.3220  221.6122 H   0  0  0  0  0  0  0  0  0  0  0  0
  145.9525   73.8505  221.8625 H   0  0  0  0  0  0  0  0  0  0  0  0
  146.2696   72.0991  221.5161 H   0  0  0  0  0  0  0  0  0  0  0  0
  147.0959   74.4409  220.0447 H   0  0  0  0  0  0  0  0  0  0  0  0
  147.5205   72.6935  219.8077 H   0  0  0  0  0  0  0  0  0  0  0  0
  145.2700   74.1850  218.5950 H   0  0  0  0  0  0  0  0  0  0  0  0
  144.7843   72.1011  217.5184 H   0  0  0  0  0  0  0  0  0  0  0  0
  145.9800   71.3143  218.6048 H   0  0  0  0  0  0  0  0  0  0  0  0
  139.0978   70.6722  221.7062 H   0  0  0  0  0  0  0  0  0  0  0  0
  140.0454   69.5556  222.7014 H   0  0  0  0  0  0  0  0  0  0  0  0
  137.9408   71.5091  223.8728 H   0  0  0  0  0  0  0  0  0  0  0  0
  137.5325   69.8528  223.4641 H   0  0  0  0  0  0  0  0  0  0  0  0
  137.6140   68.5232  225.5070 H   0  0  0  0  0  0  0  0  0  0  0  0
  138.8379   67.8684  227.5808 H   0  0  0  0  0  0  0  0  0  0  0  0
  140.9424   69.0628  228.1959 H   0  0  0  0  0  0  0  0  0  0  0  0
  141.8152   70.8854  226.7697 H   0  0  0  0  0  0  0  0  0  0  0  0
  140.3256   72.7880  224.8147 H   0  0  0  0  0  0  0  0  0  0  0  0
  141.8412   71.8433  224.5520 H   0  0  0  0  0  0  0  0  0  0  0  0
  139.6060   76.4915  223.0661 H   0  0  0  0  0  0  0  0  0  0  0  0
  141.3052   76.0469  223.3989 H   0  0  0  0  0  0  0  0  0  0  0  0
  1  2  2  0
  2  3  1  0
  3  4  2  0
  4  5  1  0
  5  6  2  0
  5  7  1  0
  7  8  1  0
  8  9  1  0
  9 10  1  0
 10 11  2  0
 11 12  1  0
 12 13  1  0
 13 14  1  0
 14 15  1  0
 15 16  1  0
 16 17  1  0
 17 18  1  0
 18 19  1  0
 12 20  2  0
 20 21  1  0
 21 22  1  0
 22 23  1  0
 23 24  1  0
 24 25  1  0
 25 26  2  0
 26 27  1  0
 27 28  2  0
 28 29  1  0
 29 30  2  0
 30 31  1  0
 21 32  2  0
  9 33  1  0
  6  1  1  0
 32 10  1  0
 33  4  1  0
 19 14  1  0
 31 22  1  0
 30 25  1  0
  1 34  1  0
  2 35  1  0
  3 36  1  0
  6 37  1  0
  7 38  1  0
  7 39  1  0
  8 40  1  0
  8 41  1  0
 13 42  1  0
 13 43  1  0
 14 44  1  1
 15 45  1  0
 15 46  1  0
 16 47  1  0
 16 48  1  0
 17 49  1  0
 17 50  1  0
 18 51  1  0
 19 52  1  0
 19 53  1  0
 23 54  1  0
 23 55  1  0
 24 56  1  0
 24 57  1  0
 26 58  1  0
 27 59  1  0
 28 60  1  0
 29 61  1  0
 31 62  1  0
 31 63  1  0
 33 64  1  0
 33 65  1  0
M  END
>  <smiles>  (33) 
c1ccc2c(c1)CCN(c1nc(CC3CCCNC3)nc(N3CCc4ccccc4C3)n1)C2

>  <score_type>  (33) 
oracle

>  <origin>  (33) 
autodockgpu

>  <m_score__min__energy>  (33) 
-10.23

>  <m_primary>  (33) 
energy

>  <rmsd>  (33) 
4.811043138382786

>  <m_score__min__rmsd>  (33) 
4.811043138382786

>  <meeko>  (33) 
{"free_energy": -10.21, "intermolecular_energy": -11.41, "internal_energy": -1.12, "cluster_size": 50, "cluster_id": 1, "rank_in_cluster": 2}

>  <energy>  (33) 
-9.29

>  <cluster_rmsd>  (33) 
1.25

>  <cluster>  (33) 
1

$$$$

     RDKit          3D

 65 70  0  0  0  0  0  0  0  0999 V2000
  141.8850   80.6700  222.7960 C   0  0  0  0  0  0  0  0  0  0  0  0
  142.2040   79.8210  223.8350 C   0  0  0  0  0  0  0  0  0  0  0  0
  141.8130   78.4970  223.8700 C   0  0  0  0  0  0  0  0  0  0  0  0
  141.0700   78.0310  222.8050 C   0  0  0  0  0  0  0  0  0  0  0  0
  140.7490   78.8810  221.7640 C   0  0  0  0  0  0  0  0  0  0  0  0
  141.1390   80.2040  221.7240 C   0  0  0  0  0  0  0  0  0  0  0  0
  139.9350   78.2640  220.6550 C   0  0  0  0  0  0  0  0  0  0  0  0
  140.7940   77.0740  220.2030 C   0  0  0  0  0  0  0  0  0  0  0  0
  140.7870   76.1660  221.3370 N   0  0  0  0  0  0  0  0  0  0  0  0
  140.9850   74.7700  221.1440 C   0  0  0  0  0  0  0  0  0  0  0  0
  141.5860   74.2560  220.0560 N   0  0  0  0  0  0  0  0  0  0  0  0
  141.7490   72.9150  219.9210 C   0  0  0  0  0  0  0  0  0  0  0  0
  142.4310   72.4050  218.6800 C   0  0  0  0  0  0  0  0  0  0  0  0
  143.9260   72.6030  218.9550 C   0  0  2  0  0  0  0  0  0  0  0  0
  144.2170   72.0920  220.3270 C   0  0  0  0  0  0  0  0  0  0  0  0
  145.4330   72.7130  220.9780 C   0  0  0  0  0  0  0  0  0  0  0  0
  145.4270   74.2210  220.8540 C   0  0  0  0  0  0  0  0  0  0  0  0
  144.3170   74.6890  220.0480 N   0  0  0  0  0  0  0  0  0  0  0  0
  144.2670   74.0450  218.7730 C   0  0  0  0  0  0  0  0  0  0  0  0
  141.3200   72.0560  220.8630 N   0  0  0  0  0  0  0  0  0  0  0  0
  140.7170   72.5560  221.9570 C   0  0  0  0  0  0  0  0  0  0  0  0
  140.2510   71.6930  222.9700 N   0  0  0  0  0  0  0  0  0  0  0  0
  139.3330   70.6210  222.6260 C   0  0  0  0  0  0  0  0  0  0  0  0
  138.2500   70.6280  223.7130 C   0  0  0  0  0  0  0  0  0  0  0  0
  138.9800   70.1450  224.9410 C   0  0  0  0  0  0  0  0  0  0  0  0
  138.4780   69.1300  225.7290 C   0  0  0  0  0  0  0  0  0  0  0  0
  139.1990   68.7380  226.8370 C   0  0  0  0  0  0  0  0  0  0  0  0
  140.4090   69.3740  227.1310 C   0  0  0  0  0  0  0  0  0  0  0  0
  140.8870   70.3880  226.3240 C   0  0  0  0  0  0  0  0  0  0  0  0
  140.1740   70.7900  225.2090 C   0  0  0  0  0  0  0  0  0  0  0  0
  140.6890   71.8810  224.3400 C   0  0  0  0  0  0  0  0  0  0  0  0
  140.5630   73.8960  222.0730 N   0  0  0  0  0  0  0  0  0  0  0  0
  140.5790   76.6300  222.7070 C   0  0  0  0  0  0  0  0  0  0  0  0
  142.2223   81.7168  222.8177 H   0  0  0  0  0  0  0  0  0  0  0  0
  142.7964   80.2162  224.6734 H   0  0  0  0  0  0  0  0  0  0  0  0
  142.0825   77.8417  224.7114 H   0  0  0  0  0  0  0  0  0  0  0  0
  140.8708   80.8582  220.8814 H   0  0  0  0  0  0  0  0  0  0  0  0
  138.9568   77.9248  221.0265 H   0  0  0  0  0  0  0  0  0  0  0  0
  139.7153   78.9693  219.8399 H   0  0  0  0  0  0  0  0  0  0  0  0
  140.3548   76.5923  219.3170 H   0  0  0  0  0  0  0  0  0  0  0  0
  141.8120   77.3784  219.9183 H   0  0  0  0  0  0  0  0  0  0  0  0
  142.2026   71.3409  218.5202 H   0  0  0  0  0  0  0  0  0  0  0  0
  142.0990   72.9322  217.7735 H   0  0  0  0  0  0  0  0  0  0  0  0
  144.5553   72.0393  218.2506 H   0  0  0  0  0  0  0  0  0  0  0  0
  143.3434   72.2967  220.9633 H   0  0  0  0  0  0  0  0  0  0  0  0
  144.4290   71.0175  220.2244 H   0  0  0  0  0  0  0  0  0  0  0  0
  145.4430   72.4433  222.0444 H   0  0  0  0  0  0  0  0  0  0  0  0
  146.3283   72.3309  220.4657 H   0  0  0  0  0  0  0  0  0  0  0  0
  145.3479   74.6609  221.8591 H   0  0  0  0  0  0  0  0  0  0  0  0
  146.3614   74.5279  220.3614 H   0  0  0  0  0  0  0  0  0  0  0  0
  143.4090   74.6440  220.5390 H   0  0  0  0  0  0  0  0  0  0  0  0
  143.5000   74.5269  218.1490 H   0  0  0  0  0  0  0  0  0  0  0  0
  145.2474   74.1300  218.2814 H   0  0  0  0  0  0  0  0  0  0  0  0
  138.8846   70.8037  221.6383 H   0  0  0  0  0  0  0  0  0  0  0  0
  139.8475   69.6501  222.5755 H   0  0  0  0  0  0  0  0  0  0  0  0
  137.8526   71.6423  223.8654 H   0  0  0  0  0  0  0  0  0  0  0  0
  137.3822   70.0025  223.4569 H   0  0  0  0  0  0  0  0  0  0  0  0
  137.5234   68.6440  225.4789 H   0  0  0  0  0  0  0  0  0  0  0  0
  138.8252   67.9312  227.4846 H   0  0  0  0  0  0  0  0  0  0  0  0
  140.9864   69.0635  228.0143 H   0  0  0  0  0  0  0  0  0  0  0  0
  141.8404   70.8787  226.5695 H   0  0  0  0  0  0  0  0  0  0  0  0
  140.3130   72.8461  224.7104 H   0  0  0  0  0  0  0  0  0  0  0  0
  141.7886   71.8655  224.3658 H   0  0  0  0  0  0  0  0  0  0  0  0
  139.5076   76.5932  222.9536 H   0  0  0  0  0  0  0  0  0  0  0  0
  141.1254   75.9866  223.4123 H   0  0  0  0  0  0  0  0  0  0  0  0
  1  2  2  0
  2  3  1  0
  3  4  2  0
  4  5  1  0
  5  6  2  0
  5  7  1  0
  7  8  1  0
  8  9  1  0
  9 10  1  0
 10 11  2  0
 11 12  1  0
 12 13  1  0
 13 14  1  0
 14 15  1  0
 15 16  1  0
 16 17  1  0
 17 18  1  0
 18 19  1  0
 12 20  2  0
 20 21  1  0
 21 22  1  0
 22 23  1  0
 23 24  1  0
 24 25  1  0
 25 26  2  0
 26 27  1  0
 27 28  2  0
 28 29  1  0
 29 30  2  0
 30 31  1  0
 21 32  2  0
  9 33  1  0
  6  1  1  0
 32 10  1  0
 33  4  1  0
 19 14  1  0
 31 22  1  0
 30 25  1  0
  1 34  1  0
  2 35  1  0
  3 36  1  0
  6 37  1  0
  7 38  1  0
  7 39  1  0
  8 40  1  0
  8 41  1  0
 13 42  1  0
 13 43  1  0
 14 44  1  6
 15 45  1  0
 15 46  1  0
 16 47  1  0
 16 48  1  0
 17 49  1  0
 17 50  1  0
 18 51  1  0
 19 52  1  0
 19 53  1  0
 23 54  1  0
 23 55  1  0
 24 56  1  0
 24 57  1  0
 26 58  1  0
 27 59  1  0
 28 60  1  0
 29 61  1  0
 31 62  1  0
 31 63  1  0
 33 64  1  0
 33 65  1  0
M  END
>  <smiles>  (34) 
c1ccc2c(c1)CCN(c1nc(CC3CCCNC3)nc(N3CCc4ccccc4C3)n1)C2

>  <score_type>  (34) 
oracle

>  <origin>  (34) 
autodockgpu

>  <m_score__min__energy>  (34) 
-10.23

>  <m_primary>  (34) 
energy

>  <rmsd>  (34) 
5.003252360902602

>  <m_score__min__rmsd>  (34) 
5.003252360902602

>  <meeko>  (34) 
{"free_energy": -9.42, "intermolecular_energy": -10.62, "internal_energy": -2.0, "cluster_size": 50, "cluster_id": 1, "rank_in_cluster": 20}

>  <energy>  (34) 
-9.28

>  <cluster_rmsd>  (34) 
1.15

>  <cluster>  (34) 
1

$$$$

     RDKit          3D

 65 70  0  0  0  0  0  0  0  0999 V2000
  141.8980   80.5890  222.6900 C   0  0  0  0  0  0  0  0  0  0  0  0
  142.1850   79.7730  223.7640 C   0  0  0  0  0  0  0  0  0  0  0  0
  141.8060   78.4470  223.8210 C   0  0  0  0  0  0  0  0  0  0  0  0
  141.1080   77.9430  222.7430 C   0  0  0  0  0  0  0  0  0  0  0  0
  140.8190   78.7600  221.6670 C   0  0  0  0  0  0  0  0  0  0  0  0
  141.1980   80.0850  221.6050 C   0  0  0  0  0  0  0  0  0  0  0  0
  140.0540   78.1040  220.5460 C   0  0  0  0  0  0  0  0  0  0  0  0
  140.9400   76.9110  220.1600 C   0  0  0  0  0  0  0  0  0  0  0  0
  140.8990   76.0350  221.3180 N   0  0  0  0  0  0  0  0  0  0  0  0
  141.1170   74.6360  221.1720 C   0  0  0  0  0  0  0  0  0  0  0  0
  141.7550   74.0980  220.1170 N   0  0  0  0  0  0  0  0  0  0  0  0
  141.9360   72.7560  220.0270 C   0  0  0  0  0  0  0  0  0  0  0  0
  142.6590   72.2180  218.8210 C   0  0  0  0  0  0  0  0  0  0  0  0
  144.1300   72.5720  219.0660 C   0  0  2  0  0  0  0  0  0  0  0  0
  144.4710   72.1910  220.4690 C   0  0  0  0  0  0  0  0  0  0  0  0
  145.6270   72.9660  221.0610 C   0  0  0  0  0  0  0  0  0  0  0  0
  145.4800   74.4540  220.8300 C   0  0  0  0  0  0  0  0  0  0  0  0
  144.3290   74.7580  220.0040 N   0  0  0  0  0  0  0  0  0  0  0  0
  144.3340   74.0220  218.7780 C   0  0  0  0  0  0  0  0  0  0  0  0
  141.4890   71.9200  220.9810 N   0  0  0  0  0  0  0  0  0  0  0  0
  140.8490   72.4450  222.0410 C   0  0  0  0  0  0  0  0  0  0  0  0
  140.3630   71.6060  223.0660 N   0  0  0  0  0  0  0  0  0  0  0  0
  139.5190   70.4750  222.7200 C   0  0  0  0  0  0  0  0  0  0  0  0
  138.3720   70.4780  223.7400 C   0  0  0  0  0  0  0  0  0  0  0  0
  139.0470   70.0870  225.0310 C   0  0  0  0  0  0  0  0  0  0  0  0
  138.5460   69.0860  225.8360 C   0  0  0  0  0  0  0  0  0  0  0  0
  139.2150   68.7800  227.0030 C   0  0  0  0  0  0  0  0  0  0  0  0
  140.3730   69.4880  227.3360 C   0  0  0  0  0  0  0  0  0  0  0  0
  140.8520   70.4880  226.5110 C   0  0  0  0  0  0  0  0  0  0  0  0
  140.1910   70.8030  225.3380 C   0  0  0  0  0  0  0  0  0  0  0  0
  140.7060   71.8770  224.4490 C   0  0  0  0  0  0  0  0  0  0  0  0
  140.6780   73.7850  222.1140 N   0  0  0  0  0  0  0  0  0  0  0  0
  140.6350   76.5350  222.6660 C   0  0  0  0  0  0  0  0  0  0  0  0
  142.2244   81.6394  222.6944 H   0  0  0  0  0  0  0  0  0  0  0  0
  142.7407   80.1977  224.6130 H   0  0  0  0  0  0  0  0  0  0  0  0
  142.0504   77.8182  224.6899 H   0  0  0  0  0  0  0  0  0  0  0  0
  140.9559   80.7126  220.7346 H   0  0  0  0  0  0  0  0  0  0  0  0
  139.0656   77.7651  220.8897 H   0  0  0  0  0  0  0  0  0  0  0  0
  139.8593   78.7842  219.7037 H   0  0  0  0  0  0  0  0  0  0  0  0
  140.5387   76.4003  219.2722 H   0  0  0  0  0  0  0  0  0  0  0  0
  141.9651   77.2177  219.9048 H   0  0  0  0  0  0  0  0  0  0  0  0
  142.5289   71.1285  218.7437 H   0  0  0  0  0  0  0  0  0  0  0  0
  142.2776   72.6426  217.8807 H   0  0  0  0  0  0  0  0  0  0  0  0
  144.8070   72.0193  218.3981 H   0  0  0  0  0  0  0  0  0  0  0  0
  143.5843   72.3613  221.0974 H   0  0  0  0  0  0  0  0  0  0  0  0
  144.7800   71.1356  220.4425 H   0  0  0  0  0  0  0  0  0  0  0  0
  145.6666   72.7755  222.1437 H   0  0  0  0  0  0  0  0  0  0  0  0
  146.5519   72.6322  220.5679 H   0  0  0  0  0  0  0  0  0  0  0  0
  145.3635   74.9557  221.8020 H   0  0  0  0  0  0  0  0  0  0  0  0
  146.3801   74.8100  220.3075 H   0  0  0  0  0  0  0  0  0  0  0  0
  143.4300   74.6650  220.5060 H   0  0  0  0  0  0  0  0  0  0  0  0
  143.5227   74.3845  218.1297 H   0  0  0  0  0  0  0  0  0  0  0  0
  145.2999   74.1622  218.2707 H   0  0  0  0  0  0  0  0  0  0  0  0
  139.1240   70.5903  221.6999 H   0  0  0  0  0  0  0  0  0  0  0  0
  140.0803   69.5294  222.7465 H   0  0  0  0  0  0  0  0  0  0  0  0
  137.9197   71.4775  223.8200 H   0  0  0  0  0  0  0  0  0  0  0  0
  137.5513   69.7998  223.4634 H   0  0  0  0  0  0  0  0  0  0  0  0
  137.6321   68.5428  225.5536 H   0  0  0  0  0  0  0  0  0  0  0  0
  138.8403   67.9858  227.6655 H   0  0  0  0  0  0  0  0  0  0  0  0
  140.9094   69.2465  228.2655 H   0  0  0  0  0  0  0  0  0  0  0  0
  141.7641   71.0364  226.7890 H   0  0  0  0  0  0  0  0  0  0  0  0
  140.2628   72.8379  224.7494 H   0  0  0  0  0  0  0  0  0  0  0  0
  141.8015   71.9169  224.5405 H   0  0  0  0  0  0  0  0  0  0  0  0
  139.5555   76.4934  222.8733 H   0  0  0  0  0  0  0  0  0  0  0  0
  141.1609   75.9174  223.4090 H   0  0  0  0  0  0  0  0  0  0  0  0
  1  2  2  0
  2  3  1  0
  3  4  2  0
  4  5  1  0
  5  6  2  0
  5  7  1  0
  7  8  1  0
  8  9  1  0
  9 10  1  0
 10 11  2  0
 11 12  1  0
 12 13  1  0
 13 14  1  0
 14 15  1  0
 15 16  1  0
 16 17  1  0
 17 18  1  0
 18 19  1  0
 12 20  2  0
 20 21  1  0
 21 22  1  0
 22 23  1  0
 23 24  1  0
 24 25  1  0
 25 26  2  0
 26 27  1  0
 27 28  2  0
 28 29  1  0
 29 30  2  0
 30 31  1  0
 21 32  2  0
  9 33  1  0
  6  1  1  0
 32 10  1  0
 33  4  1  0
 19 14  1  0
 31 22  1  0
 30 25  1  0
  1 34  1  0
  2 35  1  0
  3 36  1  0
  6 37  1  0
  7 38  1  0
  7 39  1  0
  8 40  1  0
  8 41  1  0
 13 42  1  0
 13 43  1  0
 14 44  1  6
 15 45  1  0
 15 46  1  0
 16 47  1  0
 16 48  1  0
 17 49  1  0
 17 50  1  0
 18 51  1  0
 19 52  1  0
 19 53  1  0
 23 54  1  0
 23 55  1  0
 24 56  1  0
 24 57  1  0
 26 58  1  0
 27 59  1  0
 28 60  1  0
 29 61  1  0
 31 62  1  0
 31 63  1  0
 33 64  1  0
 33 65  1  0
M  END
>  <smiles>  (35) 
c1ccc2c(c1)CCN(c1nc(CC3CCCNC3)nc(N3CCc4ccccc4C3)n1)C2

>  <score_type>  (35) 
oracle

>  <origin>  (35) 
autodockgpu

>  <m_score__min__energy>  (35) 
-10.23

>  <m_primary>  (35) 
energy

>  <rmsd>  (35) 
4.935703292064762

>  <m_score__min__rmsd>  (35) 
4.935703292064762

>  <meeko>  (35) 
{"free_energy": -9.47, "intermolecular_energy": -10.66, "internal_energy": -1.96, "cluster_size": 50, "cluster_id": 1, "rank_in_cluster": 8}

>  <energy>  (35) 
-9.28

>  <cluster_rmsd>  (35) 
1.24

>  <cluster>  (35) 
1

$$$$

     RDKit          3D

 65 70  0  0  0  0  0  0  0  0999 V2000
  141.0490   81.2820  222.6330 C   0  0  0  0  0  0  0  0  0  0  0  0
  142.2460   80.6370  222.8620 C   0  0  0  0  0  0  0  0  0  0  0  0
  142.3450   79.2670  223.0030 C   0  0  0  0  0  0  0  0  0  0  0  0
  141.1780   78.5370  222.9070 C   0  0  0  0  0  0  0  0  0  0  0  0
  139.9790   79.1830  222.6790 C   0  0  0  0  0  0  0  0  0  0  0  0
  139.8750   80.5510  222.5360 C   0  0  0  0  0  0  0  0  0  0  0  0
  138.7700   78.2860  222.5920 C   0  0  0  0  0  0  0  0  0  0  0  0
  139.1350   77.3040  221.4700 C   0  0  0  0  0  0  0  0  0  0  0  0
  140.2420   76.5310  222.0060 N   0  0  0  0  0  0  0  0  0  0  0  0
  140.4970   75.2130  221.5330 C   0  0  0  0  0  0  0  0  0  0  0  0
  140.9630   74.9530  220.2980 N   0  0  0  0  0  0  0  0  0  0  0  0
  141.1890   73.6770  219.8960 C   0  0  0  0  0  0  0  0  0  0  0  0
  141.7120   73.4540  218.5020 C   0  0  0  0  0  0  0  0  0  0  0  0
  143.2370   73.4870  218.6550 C   0  0  2  0  0  0  0  0  0  0  0  0
  143.6250   72.4560  219.6620 C   0  0  0  0  0  0  0  0  0  0  0  0
  144.9400   72.7290  220.3580 C   0  0  0  0  0  0  0  0  0  0  0  0
  145.0260   74.1560  220.8510 C   0  0  0  0  0  0  0  0  0  0  0  0
  143.8780   74.9380  220.4380 N   0  0  0  0  0  0  0  0  0  0  0  0
  143.6570   74.8700  219.0270 C   0  0  0  0  0  0  0  0  0  0  0  0
  140.9590   72.6310  220.7110 N   0  0  0  0  0  0  0  0  0  0  0  0
  140.4930   72.8770  221.9480 C   0  0  0  0  0  0  0  0  0  0  0  0
  140.2370   71.8120  222.8370 N   0  0  0  0  0  0  0  0  0  0  0  0
  139.5560   70.6250  222.3480 C   0  0  0  0  0  0  0  0  0  0  0  0
  138.5160   70.2650  223.4180 C   0  0  0  0  0  0  0  0  0  0  0  0
  139.3540   69.7910  224.5780 C   0  0  0  0  0  0  0  0  0  0  0  0
  139.0890   68.6010  225.2240 C   0  0  0  0  0  0  0  0  0  0  0  0
  139.8980   68.2280  226.2770 C   0  0  0  0  0  0  0  0  0  0  0  0
  140.9540   69.0590  226.6620 C   0  0  0  0  0  0  0  0  0  0  0  0
  141.1950   70.2470  225.9970 C   0  0  0  0  0  0  0  0  0  0  0  0
  140.3920   70.6310  224.9380 C   0  0  0  0  0  0  0  0  0  0  0  0
  140.6520   71.9080  224.2230 C   0  0  0  0  0  0  0  0  0  0  0  0
  140.2730   74.1560  222.3310 N   0  0  0  0  0  0  0  0  0  0  0  0
  141.1320   77.0560  223.0390 C   0  0  0  0  0  0  0  0  0  0  0  0
  141.0256   82.3767  222.5273 H   0  0  0  0  0  0  0  0  0  0  0  0
  143.1627   81.2406  222.9356 H   0  0  0  0  0  0  0  0  0  0  0  0
  143.3135   78.7781  223.1843 H   0  0  0  0  0  0  0  0  0  0  0  0
  138.9062   81.0390  222.3536 H   0  0  0  0  0  0  0  0  0  0  0  0
  138.6047   77.7552  223.5412 H   0  0  0  0  0  0  0  0  0  0  0  0
  137.8394   78.8379  222.3935 H   0  0  0  0  0  0  0  0  0  0  0  0
  138.2828   76.6498  221.2339 H   0  0  0  0  0  0  0  0  0  0  0  0
  139.3997   77.8187  220.5346 H   0  0  0  0  0  0  0  0  0  0  0  0
  141.3811   72.4795  218.1137 H   0  0  0  0  0  0  0  0  0  0  0  0
  141.3462   74.2102  217.7918 H   0  0  0  0  0  0  0  0  0  0  0  0
  143.7540   73.2426  217.7153 H   0  0  0  0  0  0  0  0  0  0  0  0
  142.8349   72.4061  220.4258 H   0  0  0  0  0  0  0  0  0  0  0  0
  143.7496   71.5110  219.1130 H   0  0  0  0  0  0  0  0  0  0  0  0
  145.0367   72.0486  221.2169 H   0  0  0  0  0  0  0  0  0  0  0  0
  145.7517   72.5669  219.6335 H   0  0  0  0  0  0  0  0  0  0  0  0
  145.0766   74.1507  221.9498 H   0  0  0  0  0  0  0  0  0  0  0  0
  145.9264   74.6144  220.4161 H   0  0  0  0  0  0  0  0  0  0  0  0
  143.0210   74.7200  220.9740 H   0  0  0  0  0  0  0  0  0  0  0  0
  142.8669   75.5814  218.7450 H   0  0  0  0  0  0  0  0  0  0  0  0
  144.5868   75.1256  218.4976 H   0  0  0  0  0  0  0  0  0  0  0  0
  139.0606   70.8361  221.3888 H   0  0  0  0  0  0  0  0  0  0  0  0
  140.2604   69.7979  222.1754 H   0  0  0  0  0  0  0  0  0  0  0  0
  137.9191   71.1455  223.6981 H   0  0  0  0  0  0  0  0  0  0  0  0
  137.7926   69.5104  223.0755 H   0  0  0  0  0  0  0  0  0  0  0  0
  138.2508   67.9636  224.9061 H   0  0  0  0  0  0  0  0  0  0  0  0
  139.7135   67.2835  226.8099 H   0  0  0  0  0  0  0  0  0  0  0  0
  141.5998   68.7648  227.5025 H   0  0  0  0  0  0  0  0  0  0  0  0
  142.0299   70.8904  226.3117 H   0  0  0  0  0  0  0  0  0  0  0  0
  140.0906   72.7172  224.7130 H   0  0  0  0  0  0  0  0  0  0  0  0
  141.7311   72.1187  224.2557 H   0  0  0  0  0  0  0  0  0  0  0  0
  140.7495   76.7829  224.0335 H   0  0  0  0  0  0  0  0  0  0  0  0
  142.1407   76.6334  222.9209 H   0  0  0  0  0  0  0  0  0  0  0  0
  1  2  2  0
  2  3  1  0
  3  4  2  0
  4  5  1  0
  5  6  2  0
  5  7  1  0
  7  8  1  0
  8  9  1  0
  9 10  1  0
 10 11  2  0
 11 12  1  0
 12 13  1  0
 13 14  1  0
 14 15  1  0
 15 16  1  0
 16 17  1  0
 17 18  1  0
 18 19  1  0
 12 20  2  0
 20 21  1  0
 21 22  1  0
 22 23  1  0
 23 24  1  0
 24 25  1  0
 25 26  2  0
 26 27  1  0
 27 28  2  0
 28 29  1  0
 29 30  2  0
 30 31  1  0
 21 32  2  0
  9 33  1  0
  6  1  1  0
 32 10  1  0
 33  4  1  0
 19 14  1  0
 31 22  1  0
 30 25  1  0
  1 34  1  0
  2 35  1  0
  3 36  1  0
  6 37  1  0
  7 38  1  0
  7 39  1  0
  8 40  1  0
  8 41  1  0
 13 42  1  0
 13 43  1  0
 14 44  1  6
 15 45  1  0
 15 46  1  0
 16 47  1  0
 16 48  1  0
 17 49  1  0
 17 50  1  0
 18 51  1  0
 19 52  1  0
 19 53  1  0
 23 54  1  0
 23 55  1  0
 24 56  1  0
 24 57  1  0
 26 58  1  0
 27 59  1  0
 28 60  1  0
 29 61  1  0
 31 62  1  0
 31 63  1  0
 33 64  1  0
 33 65  1  0
M  END
>  <smiles>  (36) 
c1ccc2c(c1)CCN(c1nc(CC3CCCNC3)nc(N3CCc4ccccc4C3)n1)C2

>  <score_type>  (36) 
oracle

>  <origin>  (36) 
autodockgpu

>  <m_score__min__energy>  (36) 
-10.23

>  <m_primary>  (36) 
energy

>  <rmsd>  (36) 
5.054426676568303

>  <m_score__min__rmsd>  (36) 
5.054426676568303

>  <meeko>  (36) 
{"free_energy": -9.29, "intermolecular_energy": -10.48, "internal_energy": -2.01, "cluster_size": 50, "cluster_id": 1, "rank_in_cluster": 32}

>  <energy>  (36) 
-9.28

>  <cluster_rmsd>  (36) 
1.15

>  <cluster>  (36) 
1

$$$$

     RDKit          3D

 65 70  0  0  0  0  0  0  0  0999 V2000
  141.8110   80.6300  222.6590 C   0  0  0  0  0  0  0  0  0  0  0  0
  142.1540   79.8270  223.7280 C   0  0  0  0  0  0  0  0  0  0  0  0
  141.8020   78.4940  223.8080 C   0  0  0  0  0  0  0  0  0  0  0  0
  141.0750   77.9690  222.7590 C   0  0  0  0  0  0  0  0  0  0  0  0
  140.7310   78.7730  221.6900 C   0  0  0  0  0  0  0  0  0  0  0  0
  141.0810   80.1040  221.6040 C   0  0  0  0  0  0  0  0  0  0  0  0
  139.9380   78.0940  220.6020 C   0  0  0  0  0  0  0  0  0  0  0  0
  140.8320   76.9150  220.1920 C   0  0  0  0  0  0  0  0  0  0  0  0
  140.8500   76.0470  221.3570 N   0  0  0  0  0  0  0  0  0  0  0  0
  141.0890   74.6510  221.2130 C   0  0  0  0  0  0  0  0  0  0  0  0
  141.7290   74.1200  220.1550 N   0  0  0  0  0  0  0  0  0  0  0  0
  141.9300   72.7810  220.0670 C   0  0  0  0  0  0  0  0  0  0  0  0
  142.6530   72.2520  218.8570 C   0  0  0  0  0  0  0  0  0  0  0  0
  144.1270   72.5850  219.1160 C   0  0  2  0  0  0  0  0  0  0  0  0
  144.4390   72.2380  220.5340 C   0  0  0  0  0  0  0  0  0  0  0  0
  145.6010   73.0090  221.1230 C   0  0  0  0  0  0  0  0  0  0  0  0
  145.4870   74.4910  220.8450 C   0  0  0  0  0  0  0  0  0  0  0  0
  144.3550   74.7940  219.9920 N   0  0  0  0  0  0  0  0  0  0  0  0
  144.3650   74.0220  218.7890 C   0  0  0  0  0  0  0  0  0  0  0  0
  141.5030   71.9410  221.0260 N   0  0  0  0  0  0  0  0  0  0  0  0
  140.8620   72.4580  222.0890 C   0  0  0  0  0  0  0  0  0  0  0  0
  140.3960   71.6140  223.1190 N   0  0  0  0  0  0  0  0  0  0  0  0
  139.5680   70.4690  222.7810 C   0  0  0  0  0  0  0  0  0  0  0  0
  138.4280   70.4560  223.8090 C   0  0  0  0  0  0  0  0  0  0  0  0
  139.1180   70.0800  225.0960 C   0  0  0  0  0  0  0  0  0  0  0  0
  138.6370   69.0720  225.9070 C   0  0  0  0  0  0  0  0  0  0  0  0
  139.3190   68.7800  227.0700 C   0  0  0  0  0  0  0  0  0  0  0  0
  140.4690   69.5070  227.3940 C   0  0  0  0  0  0  0  0  0  0  0  0
  140.9260   70.5120  226.5630 C   0  0  0  0  0  0  0  0  0  0  0  0
  140.2520   70.8140  225.3930 C   0  0  0  0  0  0  0  0  0  0  0  0
  140.7440   71.8940  224.4990 C   0  0  0  0  0  0  0  0  0  0  0  0
  140.6700   73.7960  222.1600 N   0  0  0  0  0  0  0  0  0  0  0  0
  140.6260   76.5520  222.7100 C   0  0  0  0  0  0  0  0  0  0  0  0
  142.1166   81.6866  222.6440 H   0  0  0  0  0  0  0  0  0  0  0  0
  142.7332   80.2683  224.5525 H   0  0  0  0  0  0  0  0  0  0  0  0
  142.0891   77.8765  224.6718 H   0  0  0  0  0  0  0  0  0  0  0  0
  140.7944   80.7198  220.7388 H   0  0  0  0  0  0  0  0  0  0  0  0
  138.9695   77.7391  220.9841 H   0  0  0  0  0  0  0  0  0  0  0  0
  139.6997   78.7640  219.7628 H   0  0  0  0  0  0  0  0  0  0  0  0
  140.4084   76.3901  219.3231 H   0  0  0  0  0  0  0  0  0  0  0  0
  141.8410   77.2390  219.8973 H   0  0  0  0  0  0  0  0  0  0  0  0
  142.5104   71.1654  218.7628 H   0  0  0  0  0  0  0  0  0  0  0  0
  142.2820   72.6945  217.9208 H   0  0  0  0  0  0  0  0  0  0  0  0
  144.8032   72.0000  218.4752 H   0  0  0  0  0  0  0  0  0  0  0  0
  143.5460   72.4422  221.1431 H   0  0  0  0  0  0  0  0  0  0  0  0
  144.7287   71.1769  220.5421 H   0  0  0  0  0  0  0  0  0  0  0  0
  145.6187   72.8508  222.2114 H   0  0  0  0  0  0  0  0  0  0  0  0
  146.5273   72.6428  220.6564 H   0  0  0  0  0  0  0  0  0  0  0  0
  145.3660   75.0239  221.7997 H   0  0  0  0  0  0  0  0  0  0  0  0
  146.4018   74.8124  220.3255 H   0  0  0  0  0  0  0  0  0  0  0  0
  143.4470   74.7330  220.4820 H   0  0  0  0  0  0  0  0  0  0  0  0
  143.5718   74.3810  218.1167 H   0  0  0  0  0  0  0  0  0  0  0  0
  145.3418   74.1279  218.2943 H   0  0  0  0  0  0  0  0  0  0  0  0
  139.1643   70.5758  221.7633 H   0  0  0  0  0  0  0  0  0  0  0  0
  140.1445   69.5325  222.8054 H   0  0  0  0  0  0  0  0  0  0  0  0
  137.9598   71.4481  223.8893 H   0  0  0  0  0  0  0  0  0  0  0  0
  137.6167   69.7636  223.5400 H   0  0  0  0  0  0  0  0  0  0  0  0
  137.7299   68.5139  225.6320 H   0  0  0  0  0  0  0  0  0  0  0  0
  138.9613   67.9819  227.7371 H   0  0  0  0  0  0  0  0  0  0  0  0
  141.0156   69.2763  228.3203 H   0  0  0  0  0  0  0  0  0  0  0  0
  141.8312   71.0754  226.8333 H   0  0  0  0  0  0  0  0  0  0  0  0
  140.2875   72.8484  224.8002 H   0  0  0  0  0  0  0  0  0  0  0  0
  141.8392   71.9520  224.5833 H   0  0  0  0  0  0  0  0  0  0  0  0
  139.5558   76.4920  222.9571 H   0  0  0  0  0  0  0  0  0  0  0  0
  141.1899   75.9500  223.4378 H   0  0  0  0  0  0  0  0  0  0  0  0
  1  2  2  0
  2  3  1  0
  3  4  2  0
  4  5  1  0
  5  6  2  0
  5  7  1  0
  7  8  1  0
  8  9  1  0
  9 10  1  0
 10 11  2  0
 11 12  1  0
 12 13  1  0
 13 14  1  0
 14 15  1  0
 15 16  1  0
 16 17  1  0
 17 18  1  0
 18 19  1  0
 12 20  2  0
 20 21  1  0
 21 22  1  0
 22 23  1  0
 23 24  1  0
 24 25  1  0
 25 26  2  0
 26 27  1  0
 27 28  2  0
 28 29  1  0
 29 30  2  0
 30 31  1  0
 21 32  2  0
  9 33  1  0
  6  1  1  0
 32 10  1  0
 33  4  1  0
 19 14  1  0
 31 22  1  0
 30 25  1  0
  1 34  1  0
  2 35  1  0
  3 36  1  0
  6 37  1  0
  7 38  1  0
  7 39  1  0
  8 40  1  0
  8 41  1  0
 13 42  1  0
 13 43  1  0
 14 44  1  6
 15 45  1  0
 15 46  1  0
 16 47  1  0
 16 48  1  0
 17 49  1  0
 17 50  1  0
 18 51  1  0
 19 52  1  0
 19 53  1  0
 23 54  1  0
 23 55  1  0
 24 56  1  0
 24 57  1  0
 26 58  1  0
 27 59  1  0
 28 60  1  0
 29 61  1  0
 31 62  1  0
 31 63  1  0
 33 64  1  0
 33 65  1  0
M  END
>  <smiles>  (37) 
c1ccc2c(c1)CCN(c1nc(CC3CCCNC3)nc(N3CCc4ccccc4C3)n1)C2

>  <score_type>  (37) 
oracle

>  <origin>  (37) 
autodockgpu

>  <m_score__min__energy>  (37) 
-10.23

>  <m_primary>  (37) 
energy

>  <rmsd>  (37) 
4.918374277365646

>  <m_score__min__rmsd>  (37) 
4.918374277365646

>  <meeko>  (37) 
{"free_energy": -9.43, "intermolecular_energy": -10.62, "internal_energy": -2.0, "cluster_size": 50, "cluster_id": 1, "rank_in_cluster": 16}

>  <energy>  (37) 
-9.27

>  <cluster_rmsd>  (37) 
1.17

>  <cluster>  (37) 
1

$$$$

     RDKit          3D

 65 70  0  0  0  0  0  0  0  0999 V2000
  140.9270   81.1760  222.2770 C   0  0  0  0  0  0  0  0  0  0  0  0
  142.1360   80.5640  222.5340 C   0  0  0  0  0  0  0  0  0  0  0  0
  142.2590   79.2050  222.7440 C   0  0  0  0  0  0  0  0  0  0  0  0
  141.1050   78.4510  222.6900 C   0  0  0  0  0  0  0  0  0  0  0  0
  139.8940   79.0630  222.4330 C   0  0  0  0  0  0  0  0  0  0  0  0
  139.7660   80.4210  222.2210 C   0  0  0  0  0  0  0  0  0  0  0  0
  138.7000   78.1430  222.3960 C   0  0  0  0  0  0  0  0  0  0  0  0
  139.0790   77.1110  221.3240 C   0  0  0  0  0  0  0  0  0  0  0  0
  140.2010   76.3860  221.8950 N   0  0  0  0  0  0  0  0  0  0  0  0
  140.4790   75.0500  221.4890 C   0  0  0  0  0  0  0  0  0  0  0  0
  140.9560   74.7360  220.2710 N   0  0  0  0  0  0  0  0  0  0  0  0
  141.2030   73.4450  219.9340 C   0  0  0  0  0  0  0  0  0  0  0  0
  141.7370   73.1620  218.5550 C   0  0  0  0  0  0  0  0  0  0  0  0
  143.2600   73.2700  218.7050 C   0  0  2  0  0  0  0  0  0  0  0  0
  143.6840   72.3490  219.8000 C   0  0  0  0  0  0  0  0  0  0  0  0
  144.9840   72.7360  220.4700 C   0  0  0  0  0  0  0  0  0  0  0  0
  145.0120   74.2040  220.8330 C   0  0  0  0  0  0  0  0  0  0  0  0
  143.8350   74.8990  220.3520 N   0  0  0  0  0  0  0  0  0  0  0  0
  143.6230   74.6960  218.9530 C   0  0  0  0  0  0  0  0  0  0  0  0
  140.9820   72.4380  220.7980 N   0  0  0  0  0  0  0  0  0  0  0  0
  140.5050   72.7370  222.0190 C   0  0  0  0  0  0  0  0  0  0  0  0
  140.2580   71.7130  222.9580 N   0  0  0  0  0  0  0  0  0  0  0  0
  139.5880   70.4990  222.5260 C   0  0  0  0  0  0  0  0  0  0  0  0
  138.5520   70.1820  223.6130 C   0  0  0  0  0  0  0  0  0  0  0  0
  139.3940   69.7700  224.7940 C   0  0  0  0  0  0  0  0  0  0  0  0
  139.1400   68.6100  225.4950 C   0  0  0  0  0  0  0  0  0  0  0  0
  139.9520   68.2950  226.5650 C   0  0  0  0  0  0  0  0  0  0  0  0
  141.0010   69.1520  226.9080 C   0  0  0  0  0  0  0  0  0  0  0  0
  141.2310   70.3090  226.1880 C   0  0  0  0  0  0  0  0  0  0  0  0
  140.4250   70.6360  225.1120 C   0  0  0  0  0  0  0  0  0  0  0  0
  140.6730   71.8800  224.3370 C   0  0  0  0  0  0  0  0  0  0  0  0
  140.2640   74.0300  222.3370 N   0  0  0  0  0  0  0  0  0  0  0  0
  141.0850   76.9780  222.8970 C   0  0  0  0  0  0  0  0  0  0  0  0
  140.8842   82.2634  222.1165 H   0  0  0  0  0  0  0  0  0  0  0  0
  143.0423   81.1862  222.5734 H   0  0  0  0  0  0  0  0  0  0  0  0
  143.2365   78.7427  222.9460 H   0  0  0  0  0  0  0  0  0  0  0  0
  138.7884   80.8823  222.0172 H   0  0  0  0  0  0  0  0  0  0  0  0
  138.5459   77.6587  223.3715 H   0  0  0  0  0  0  0  0  0  0  0  0
  137.7597   78.6685  222.1728 H   0  0  0  0  0  0  0  0  0  0  0  0
  138.2378   76.4308  221.1250 H   0  0  0  0  0  0  0  0  0  0  0  0
  139.3318   77.5815  220.3624 H   0  0  0  0  0  0  0  0  0  0  0  0
  141.4490   72.1527  218.2258 H   0  0  0  0  0  0  0  0  0  0  0  0
  141.3399   73.8577  217.8011 H   0  0  0  0  0  0  0  0  0  0  0  0
  143.7902   72.9645  217.7909 H   0  0  0  0  0  0  0  0  0  0  0  0
  142.8931   72.3354  220.5644 H   0  0  0  0  0  0  0  0  0  0  0  0
  143.8485   71.3645  219.3378 H   0  0  0  0  0  0  0  0  0  0  0  0
  145.1036   72.1399  221.3867 H   0  0  0  0  0  0  0  0  0  0  0  0
  145.8044   72.5422  219.7634 H   0  0  0  0  0  0  0  0  0  0  0  0
  145.0594   74.2994  221.9278 H   0  0  0  0  0  0  0  0  0  0  0  0
  145.8949   74.6571  220.3584 H   0  0  0  0  0  0  0  0  0  0  0  0
  142.9860   74.6950  220.9040 H   0  0  0  0  0  0  0  0  0  0  0  0
  142.8064   75.3473  218.6079 H   0  0  0  0  0  0  0  0  0  0  0  0
  144.5445   74.9398  218.4041 H   0  0  0  0  0  0  0  0  0  0  0  0
  139.0904   70.6600  221.5583 H   0  0  0  0  0  0  0  0  0  0  0  0
  140.2992   69.6707  222.3915 H   0  0  0  0  0  0  0  0  0  0  0  0
  137.9483   71.0701  223.8515 H   0  0  0  0  0  0  0  0  0  0  0  0
  137.8347   69.4061  223.3073 H   0  0  0  0  0  0  0  0  0  0  0  0
  138.3082   67.9502  225.2074 H   0  0  0  0  0  0  0  0  0  0  0  0
  139.7750   67.3764  227.1436 H   0  0  0  0  0  0  0  0  0  0  0  0
  141.6506   68.9031  227.7601 H   0  0  0  0  0  0  0  0  0  0  0  0
  142.0599   70.9740  226.4721 H   0  0  0  0  0  0  0  0  0  0  0  0
  140.1043   72.7065  224.7882 H   0  0  0  0  0  0  0  0  0  0  0  0
  141.7500   72.1028  224.3589 H   0  0  0  0  0  0  0  0  0  0  0  0
  140.7102   76.7491  223.9055 H   0  0  0  0  0  0  0  0  0  0  0  0
  142.1005   76.5673  222.7967 H   0  0  0  0  0  0  0  0  0  0  0  0
  1  2  2  0
  2  3  1  0
  3  4  2  0
  4  5  1  0
  5  6  2  0
  5  7  1  0
  7  8  1  0
  8  9  1  0
  9 10  1  0
 10 11  2  0
 11 12  1  0
 12 13  1  0
 13 14  1  0
 14 15  1  0
 15 16  1  0
 16 17  1  0
 17 18  1  0
 18 19  1  0
 12 20  2  0
 20 21  1  0
 21 22  1  0
 22 23  1  0
 23 24  1  0
 24 25  1  0
 25 26  2  0
 26 27  1  0
 27 28  2  0
 28 29  1  0
 29 30  2  0
 30 31  1  0
 21 32  2  0
  9 33  1  0
  6  1  1  0
 32 10  1  0
 33  4  1  0
 19 14  1  0
 31 22  1  0
 30 25  1  0
  1 34  1  0
  2 35  1  0
  3 36  1  0
  6 37  1  0
  7 38  1  0
  7 39  1  0
  8 40  1  0
  8 41  1  0
 13 42  1  0
 13 43  1  0
 14 44  1  6
 15 45  1  0
 15 46  1  0
 16 47  1  0
 16 48  1  0
 17 49  1  0
 17 50  1  0
 18 51  1  0
 19 52  1  0
 19 53  1  0
 23 54  1  0
 23 55  1  0
 24 56  1  0
 24 57  1  0
 26 58  1  0
 27 59  1  0
 28 60  1  0
 29 61  1  0
 31 62  1  0
 31 63  1  0
 33 64  1  0
 33 65  1  0
M  END
>  <smiles>  (38) 
c1ccc2c(c1)CCN(c1nc(CC3CCCNC3)nc(N3CCc4ccccc4C3)n1)C2

>  <score_type>  (38) 
oracle

>  <origin>  (38) 
autodockgpu

>  <m_score__min__energy>  (38) 
-10.23

>  <m_primary>  (38) 
energy

>  <rmsd>  (38) 
4.859357208683949

>  <m_score__min__rmsd>  (38) 
4.859357208683949

>  <meeko>  (38) 
{"free_energy": -9.28, "intermolecular_energy": -10.47, "internal_energy": -2.01, "cluster_size": 50, "cluster_id": 1, "rank_in_cluster": 34}

>  <energy>  (38) 
-9.26

>  <cluster_rmsd>  (38) 
1.14

>  <cluster>  (38) 
1

$$$$

     RDKit          3D

 65 70  0  0  0  0  0  0  0  0999 V2000
  140.9810   80.9040  221.6690 C   0  0  0  0  0  0  0  0  0  0  0  0
  142.0860   80.3620  222.2920 C   0  0  0  0  0  0  0  0  0  0  0  0
  142.1620   79.0340  222.6630 C   0  0  0  0  0  0  0  0  0  0  0  0
  141.0700   78.2380  222.3870 C   0  0  0  0  0  0  0  0  0  0  0  0
  139.9630   78.7800  221.7630 C   0  0  0  0  0  0  0  0  0  0  0  0
  139.8820   80.1050  221.3890 C   0  0  0  0  0  0  0  0  0  0  0  0
  138.8290   77.8180  221.5110 C   0  0  0  0  0  0  0  0  0  0  0  0
  139.4860   76.7030  220.6840 C   0  0  0  0  0  0  0  0  0  0  0  0
  140.4250   76.0760  221.5970 N   0  0  0  0  0  0  0  0  0  0  0  0
  140.8120   74.7180  221.4150 C   0  0  0  0  0  0  0  0  0  0  0  0
  141.5730   74.3030  220.3860 N   0  0  0  0  0  0  0  0  0  0  0  0
  141.9130   72.9950  220.2580 C   0  0  0  0  0  0  0  0  0  0  0  0
  142.7670   72.5970  219.0840 C   0  0  0  0  0  0  0  0  0  0  0  0
  144.1000   72.1690  219.7090 C   0  0  2  0  0  0  0  0  0  0  0  0
  144.3930   73.0850  220.8510 C   0  0  0  0  0  0  0  0  0  0  0  0
  145.8620   73.2040  221.1930 C   0  0  0  0  0  0  0  0  0  0  0  0
  146.7060   73.4410  219.9610 C   0  0  0  0  0  0  0  0  0  0  0  0
  145.9150   73.3850  218.7480 N   0  0  0  0  0  0  0  0  0  0  0  0
  145.1560   72.1770  218.6540 C   0  0  0  0  0  0  0  0  0  0  0  0
  141.5060   72.0720  221.1480 N   0  0  0  0  0  0  0  0  0  0  0  0
  140.7440   72.4740  222.1810 C   0  0  0  0  0  0  0  0  0  0  0  0
  140.2940   71.5400  223.1380 N   0  0  0  0  0  0  0  0  0  0  0  0
  139.4590   70.4310  222.7130 C   0  0  0  0  0  0  0  0  0  0  0  0
  138.3360   70.3250  223.7540 C   0  0  0  0  0  0  0  0  0  0  0  0
  139.0470   69.8340  224.9900 C   0  0  0  0  0  0  0  0  0  0  0  0
  138.5790   68.7570  225.7140 C   0  0  0  0  0  0  0  0  0  0  0  0
  139.2790   68.3620  226.8340 C   0  0  0  0  0  0  0  0  0  0  0  0
  140.4350   69.0560  227.2040 C   0  0  0  0  0  0  0  0  0  0  0  0
  140.8800   70.1320  226.4590 C   0  0  0  0  0  0  0  0  0  0  0  0
  140.1870   70.5380  225.3330 C   0  0  0  0  0  0  0  0  0  0  0  0
  140.6660   71.6950  224.5320 C   0  0  0  0  0  0  0  0  0  0  0  0
  140.4150   73.7820  222.2920 N   0  0  0  0  0  0  0  0  0  0  0  0
  141.0100   76.7920  222.7300 C   0  0  0  0  0  0  0  0  0  0  0  0
  140.9713   81.9691  221.3944 H   0  0  0  0  0  0  0  0  0  0  0  0
  142.9446   81.0166  222.5026 H   0  0  0  0  0  0  0  0  0  0  0  0
  143.0564   78.6279  223.1581 H   0  0  0  0  0  0  0  0  0  0  0  0
  138.9879   80.5093  220.8920 H   0  0  0  0  0  0  0  0  0  0  0  0
  138.4298   77.4234  222.4570 H   0  0  0  0  0  0  0  0  0  0  0  0
  137.9745   78.2855  220.9998 H   0  0  0  0  0  0  0  0  0  0  0  0
  138.7330   75.9776  220.3424 H   0  0  0  0  0  0  0  0  0  0  0  0
  139.9779   77.0889  219.7790 H   0  0  0  0  0  0  0  0  0  0  0  0
  142.3086   71.7614  218.5349 H   0  0  0  0  0  0  0  0  0  0  0  0
  142.8880   73.4142  218.3577 H   0  0  0  0  0  0  0  0  0  0  0  0
  144.0609   71.1445  220.1077 H   0  0  0  0  0  0  0  0  0  0  0  0
  144.0168   74.0864  220.5946 H   0  0  0  0  0  0  0  0  0  0  0  0
  143.8979   72.6554  221.7343 H   0  0  0  0  0  0  0  0  0  0  0  0
  145.9993   74.0466  221.8866 H   0  0  0  0  0  0  0  0  0  0  0  0
  146.1846   72.2582  221.6527 H   0  0  0  0  0  0  0  0  0  0  0  0
  147.1739   74.4337  220.0355 H   0  0  0  0  0  0  0  0  0  0  0  0
  147.4669   72.6482  219.9100 H   0  0  0  0  0  0  0  0  0  0  0  0
  145.3270   74.2220  218.6050 H   0  0  0  0  0  0  0  0  0  0  0  0
  144.6839   72.1169  217.6623 H   0  0  0  0  0  0  0  0  0  0  0  0
  145.8224   71.3135  218.7960 H   0  0  0  0  0  0  0  0  0  0  0  0
  139.0387   70.6290  221.7159 H   0  0  0  0  0  0  0  0  0  0  0  0
  140.0345   69.4961  222.6440 H   0  0  0  0  0  0  0  0  0  0  0  0
  137.8706   71.3058  223.9316 H   0  0  0  0  0  0  0  0  0  0  0  0
  137.5192   69.6600  223.4369 H   0  0  0  0  0  0  0  0  0  0  0  0
  137.6673   68.2251  225.4044 H   0  0  0  0  0  0  0  0  0  0  0  0
  138.9307   67.5071  227.4322 H   0  0  0  0  0  0  0  0  0  0  0  0
  140.9959   68.7426  228.0968 H   0  0  0  0  0  0  0  0  0  0  0  0
  141.7907   70.6686  226.7635 H   0  0  0  0  0  0  0  0  0  0  0  0
  140.2161   72.6183  224.9257 H   0  0  0  0  0  0  0  0  0  0  0  0
  141.7625   71.7458  224.6029 H   0  0  0  0  0  0  0  0  0  0  0  0
  140.3857   76.6473  223.6241 H   0  0  0  0  0  0  0  0  0  0  0  0
  142.0199   76.4097  222.9398 H   0  0  0  0  0  0  0  0  0  0  0  0
  1  2  2  0
  2  3  1  0
  3  4  2  0
  4  5  1  0
  5  6  2  0
  5  7  1  0
  7  8  1  0
  8  9  1  0
  9 10  1  0
 10 11  2  0
 11 12  1  0
 12 13  1  0
 13 14  1  0
 14 15  1  0
 15 16  1  0
 16 17  1  0
 17 18  1  0
 18 19  1  0
 12 20  2  0
 20 21  1  0
 21 22  1  0
 22 23  1  0
 23 24  1  0
 24 25  1  0
 25 26  2  0
 26 27  1  0
 27 28  2  0
 28 29  1  0
 29 30  2  0
 30 31  1  0
 21 32  2  0
  9 33  1  0
  6  1  1  0
 32 10  1  0
 33  4  1  0
 19 14  1  0
 31 22  1  0
 30 25  1  0
  1 34  1  0
  2 35  1  0
  3 36  1  0
  6 37  1  0
  7 38  1  0
  7 39  1  0
  8 40  1  0
  8 41  1  0
 13 42  1  0
 13 43  1  0
 14 44  1  1
 15 45  1  0
 15 46  1  0
 16 47  1  0
 16 48  1  0
 17 49  1  0
 17 50  1  0
 18 51  1  0
 19 52  1  0
 19 53  1  0
 23 54  1  0
 23 55  1  0
 24 56  1  0
 24 57  1  0
 26 58  1  0
 27 59  1  0
 28 60  1  0
 29 61  1  0
 31 62  1  0
 31 63  1  0
 33 64  1  0
 33 65  1  0
M  END
>  <smiles>  (39) 
c1ccc2c(c1)CCN(c1nc(CC3CCCNC3)nc(N3CCc4ccccc4C3)n1)C2

>  <score_type>  (39) 
oracle

>  <origin>  (39) 
autodockgpu

>  <m_score__min__energy>  (39) 
-10.23

>  <m_primary>  (39) 
energy

>  <rmsd>  (39) 
4.488981148830189

>  <m_score__min__rmsd>  (39) 
4.488981148830189

>  <meeko>  (39) 
{"free_energy": -10.18, "intermolecular_energy": -11.37, "internal_energy": -1.11, "cluster_size": 50, "cluster_id": 1, "rank_in_cluster": 7}

>  <energy>  (39) 
-9.24

>  <cluster_rmsd>  (39) 
1.36

>  <cluster>  (39) 
1

$$$$

     RDKit          3D

 65 70  0  0  0  0  0  0  0  0999 V2000
  141.9010   80.5830  222.6870 C   0  0  0  0  0  0  0  0  0  0  0  0
  142.1860   79.7730  223.7670 C   0  0  0  0  0  0  0  0  0  0  0  0
  141.8060   78.4470  223.8310 C   0  0  0  0  0  0  0  0  0  0  0  0
  141.1100   77.9370  222.7540 C   0  0  0  0  0  0  0  0  0  0  0  0
  140.8240   78.7470  221.6730 C   0  0  0  0  0  0  0  0  0  0  0  0
  141.2030   80.0720  221.6040 C   0  0  0  0  0  0  0  0  0  0  0  0
  140.0610   78.0850  220.5540 C   0  0  0  0  0  0  0  0  0  0  0  0
  140.9480   76.8890  220.1770 C   0  0  0  0  0  0  0  0  0  0  0  0
  140.9030   76.0200  221.3400 N   0  0  0  0  0  0  0  0  0  0  0  0
  141.1220   74.6210  221.2040 C   0  0  0  0  0  0  0  0  0  0  0  0
  141.7610   74.0750  220.1530 N   0  0  0  0  0  0  0  0  0  0  0  0
  141.9420   72.7330  220.0710 C   0  0  0  0  0  0  0  0  0  0  0  0
  142.6660   72.1870  218.8700 C   0  0  0  0  0  0  0  0  0  0  0  0
  144.1420   72.5090  219.1330 C   0  0  2  0  0  0  0  0  0  0  0  0
  144.4380   72.1900  220.5620 C   0  0  0  0  0  0  0  0  0  0  0  0
  145.6040   72.9600  221.1420 C   0  0  0  0  0  0  0  0  0  0  0  0
  145.5100   74.4370  220.8310 C   0  0  0  0  0  0  0  0  0  0  0  0
  144.3890   74.7340  219.9620 N   0  0  0  0  0  0  0  0  0  0  0  0
  144.3990   73.9350  218.7770 C   0  0  0  0  0  0  0  0  0  0  0  0
  141.4930   71.9030  221.0300 N   0  0  0  0  0  0  0  0  0  0  0  0
  140.8520   72.4340  222.0860 C   0  0  0  0  0  0  0  0  0  0  0  0
  140.3650   71.6020  223.1160 N   0  0  0  0  0  0  0  0  0  0  0  0
  139.5230   70.4690  222.7750 C   0  0  0  0  0  0  0  0  0  0  0  0
  138.3740   70.4770  223.7930 C   0  0  0  0  0  0  0  0  0  0  0  0
  139.0460   70.0960  225.0870 C   0  0  0  0  0  0  0  0  0  0  0  0
  138.5440   69.0990  225.8980 C   0  0  0  0  0  0  0  0  0  0  0  0
  139.2110   68.8020  227.0680 C   0  0  0  0  0  0  0  0  0  0  0  0
  140.3680   69.5130  227.3990 C   0  0  0  0  0  0  0  0  0  0  0  0
  140.8480   70.5070  226.5680 C   0  0  0  0  0  0  0  0  0  0  0  0
  140.1890   70.8140  225.3920 C   0  0  0  0  0  0  0  0  0  0  0  0
  140.7050   71.8830  224.4970 C   0  0  0  0  0  0  0  0  0  0  0  0
  140.6810   73.7750  222.1500 N   0  0  0  0  0  0  0  0  0  0  0  0
  140.6370   76.5280  222.6850 C   0  0  0  0  0  0  0  0  0  0  0  0
  142.2275   81.6334  222.6854 H   0  0  0  0  0  0  0  0  0  0  0  0
  142.7404   80.2025  224.6145 H   0  0  0  0  0  0  0  0  0  0  0  0
  142.0480   77.8232  224.7041 H   0  0  0  0  0  0  0  0  0  0  0  0
  140.9622   80.6943  220.7295 H   0  0  0  0  0  0  0  0  0  0  0  0
  139.0717   77.7485  220.8974 H   0  0  0  0  0  0  0  0  0  0  0  0
  139.8683   78.7604  219.7074 H   0  0  0  0  0  0  0  0  0  0  0  0
  140.5490   76.3734  219.2910 H   0  0  0  0  0  0  0  0  0  0  0  0
  141.9739   77.1936  219.9227 H   0  0  0  0  0  0  0  0  0  0  0  0
  142.5141   71.1009  218.7849 H   0  0  0  0  0  0  0  0  0  0  0  0
  142.3036   72.6247  217.9281 H   0  0  0  0  0  0  0  0  0  0  0  0
  144.8165   71.9028  218.5105 H   0  0  0  0  0  0  0  0  0  0  0  0
  143.5428   72.4188  221.1588 H   0  0  0  0  0  0  0  0  0  0  0  0
  144.7140   71.1258  220.5971 H   0  0  0  0  0  0  0  0  0  0  0  0
  145.6121   72.8255  222.2337 H   0  0  0  0  0  0  0  0  0  0  0  0
  146.5291   72.5729  220.6899 H   0  0  0  0  0  0  0  0  0  0  0  0
  145.3872   74.9920  221.7727 H   0  0  0  0  0  0  0  0  0  0  0  0
  146.4329   74.7366  220.3128 H   0  0  0  0  0  0  0  0  0  0  0  0
  143.4760   74.6950  220.4460 H   0  0  0  0  0  0  0  0  0  0  0  0
  143.6152   74.2880  218.0907 H   0  0  0  0  0  0  0  0  0  0  0  0
  145.3810   74.0184  218.2883 H   0  0  0  0  0  0  0  0  0  0  0  0
  139.1299   70.5782  221.7535 H   0  0  0  0  0  0  0  0  0  0  0  0
  140.0850   69.5239  222.8078 H   0  0  0  0  0  0  0  0  0  0  0  0
  137.9200   71.4763  223.8653 H   0  0  0  0  0  0  0  0  0  0  0  0
  137.5550   69.7955  223.5193 H   0  0  0  0  0  0  0  0  0  0  0  0
  137.6314   68.5528  225.6174 H   0  0  0  0  0  0  0  0  0  0  0  0
  138.8356   68.0121  227.7352 H   0  0  0  0  0  0  0  0  0  0  0  0
  140.9023   69.2786  228.3315 H   0  0  0  0  0  0  0  0  0  0  0  0
  141.7597   71.0573  226.8436 H   0  0  0  0  0  0  0  0  0  0  0  0
  140.2602   72.8454  224.7900 H   0  0  0  0  0  0  0  0  0  0  0  0
  141.8002   71.9252  224.5905 H   0  0  0  0  0  0  0  0  0  0  0  0
  139.5572   76.4876  222.8911 H   0  0  0  0  0  0  0  0  0  0  0  0
  141.1618   75.9149  223.4325 H   0  0  0  0  0  0  0  0  0  0  0  0
  1  2  2  0
  2  3  1  0
  3  4  2  0
  4  5  1  0
  5  6  2  0
  5  7  1  0
  7  8  1  0
  8  9  1  0
  9 10  1  0
 10 11  2  0
 11 12  1  0
 12 13  1  0
 13 14  1  0
 14 15  1  0
 15 16  1  0
 16 17  1  0
 17 18  1  0
 18 19  1  0
 12 20  2  0
 20 21  1  0
 21 22  1  0
 22 23  1  0
 23 24  1  0
 24 25  1  0
 25 26  2  0
 26 27  1  0
 27 28  2  0
 28 29  1  0
 29 30  2  0
 30 31  1  0
 21 32  2  0
  9 33  1  0
  6  1  1  0
 32 10  1  0
 33  4  1  0
 19 14  1  0
 31 22  1  0
 30 25  1  0
  1 34  1  0
  2 35  1  0
  3 36  1  0
  6 37  1  0
  7 38  1  0
  7 39  1  0
  8 40  1  0
  8 41  1  0
 13 42  1  0
 13 43  1  0
 14 44  1  6
 15 45  1  0
 15 46  1  0
 16 47  1  0
 16 48  1  0
 17 49  1  0
 17 50  1  0
 18 51  1  0
 19 52  1  0
 19 53  1  0
 23 54  1  0
 23 55  1  0
 24 56  1  0
 24 57  1  0
 26 58  1  0
 27 59  1  0
 28 60  1  0
 29 61  1  0
 31 62  1  0
 31 63  1  0
 33 64  1  0
 33 65  1  0
M  END
>  <smiles>  (40) 
c1ccc2c(c1)CCN(c1nc(CC3CCCNC3)nc(N3CCc4ccccc4C3)n1)C2

>  <score_type>  (40) 
oracle

>  <origin>  (40) 
autodockgpu

>  <m_score__min__energy>  (40) 
-10.23

>  <m_primary>  (40) 
energy

>  <rmsd>  (40) 
4.933927310810348

>  <m_score__min__rmsd>  (40) 
4.933927310810348

>  <meeko>  (40) 
{"free_energy": -9.44, "intermolecular_energy": -10.63, "internal_energy": -2.0, "cluster_size": 50, "cluster_id": 1, "rank_in_cluster": 13}

>  <energy>  (40) 
-9.23

>  <cluster_rmsd>  (40) 
1.36

>  <cluster>  (40) 
1

$$$$

     RDKit          3D

 65 70  0  0  0  0  0  0  0  0999 V2000
  140.7400   81.0290  221.6810 C   0  0  0  0  0  0  0  0  0  0  0  0
  141.9310   80.5230  222.1610 C   0  0  0  0  0  0  0  0  0  0  0  0
  142.0910   79.2010  222.5260 C   0  0  0  0  0  0  0  0  0  0  0  0
  140.9950   78.3730  222.3970 C   0  0  0  0  0  0  0  0  0  0  0  0
  139.8030   78.8790  221.9170 C   0  0  0  0  0  0  0  0  0  0  0  0
  139.6380   80.1990  221.5500 C   0  0  0  0  0  0  0  0  0  0  0  0
  138.6730   77.8850  221.8170 C   0  0  0  0  0  0  0  0  0  0  0  0
  139.2500   76.7810  220.9190 C   0  0  0  0  0  0  0  0  0  0  0  0
  140.3160   76.1870  221.7080 N   0  0  0  0  0  0  0  0  0  0  0  0
  140.7130   74.8390  221.4840 C   0  0  0  0  0  0  0  0  0  0  0  0
  141.4720   74.4600  220.4390 N   0  0  0  0  0  0  0  0  0  0  0  0
  141.8220   73.1600  220.2720 C   0  0  0  0  0  0  0  0  0  0  0  0
  142.6730   72.8030  219.0830 C   0  0  0  0  0  0  0  0  0  0  0  0
  143.9820   72.2840  219.6900 C   0  0  2  0  0  0  0  0  0  0  0  0
  144.3430   73.1680  220.8370 C   0  0  0  0  0  0  0  0  0  0  0  0
  145.8200   73.1900  221.1650 C   0  0  0  0  0  0  0  0  0  0  0  0
  146.6660   73.3850  219.9270 C   0  0  0  0  0  0  0  0  0  0  0  0
  145.8620   73.3920  218.7220 N   0  0  0  0  0  0  0  0  0  0  0  0
  145.0260   72.2360  218.6240 C   0  0  0  0  0  0  0  0  0  0  0  0
  141.4290   72.2080  221.1380 N   0  0  0  0  0  0  0  0  0  0  0  0
  140.6710   72.5730  222.1870 C   0  0  0  0  0  0  0  0  0  0  0  0
  140.2350   71.6090  223.1200 N   0  0  0  0  0  0  0  0  0  0  0  0
  139.3190   70.5670  222.6910 C   0  0  0  0  0  0  0  0  0  0  0  0
  138.2610   70.4550  223.7980 C   0  0  0  0  0  0  0  0  0  0  0  0
  139.0230   69.8600  224.9550 C   0  0  0  0  0  0  0  0  0  0  0  0
  138.5470   68.7680  225.6490 C   0  0  0  0  0  0  0  0  0  0  0  0
  139.2970   68.2750  226.6970 C   0  0  0  0  0  0  0  0  0  0  0  0
  140.5080   68.8910  227.0260 C   0  0  0  0  0  0  0  0  0  0  0  0
  140.9590   69.9850  226.3130 C   0  0  0  0  0  0  0  0  0  0  0  0
  140.2170   70.4880  225.2590 C   0  0  0  0  0  0  0  0  0  0  0  0
  140.7030   71.6650  224.4920 C   0  0  0  0  0  0  0  0  0  0  0  0
  140.3310   73.8740  222.3370 N   0  0  0  0  0  0  0  0  0  0  0  0
  141.0200   76.9290  222.7520 C   0  0  0  0  0  0  0  0  0  0  0  0
  140.6655   82.0906  221.4026 H   0  0  0  0  0  0  0  0  0  0  0  0
  142.7905   81.2028  222.2570 H   0  0  0  0  0  0  0  0  0  0  0  0
  143.0526   78.8236  222.9040 H   0  0  0  0  0  0  0  0  0  0  0  0
  138.6762   80.5750  221.1710 H   0  0  0  0  0  0  0  0  0  0  0  0
  138.4087   77.4883  222.8083 H   0  0  0  0  0  0  0  0  0  0  0  0
  137.7477   78.3249  221.4167 H   0  0  0  0  0  0  0  0  0  0  0  0
  138.4801   76.0325  220.6804 H   0  0  0  0  0  0  0  0  0  0  0  0
  139.6115   77.1723  219.9566 H   0  0  0  0  0  0  0  0  0  0  0  0
  142.1884   72.0223  218.4783 H   0  0  0  0  0  0  0  0  0  0  0  0
  142.8338   73.6592  218.4114 H   0  0  0  0  0  0  0  0  0  0  0  0
  143.8822   71.2599  220.0790 H   0  0  0  0  0  0  0  0  0  0  0  0
  144.0288   74.1937  220.5937 H   0  0  0  0  0  0  0  0  0  0  0  0
  143.8298   72.7622  221.7213 H   0  0  0  0  0  0  0  0  0  0  0  0
  146.0173   74.0153  221.8650 H   0  0  0  0  0  0  0  0  0  0  0  0
  146.0859   72.2209  221.6123 H   0  0  0  0  0  0  0  0  0  0  0  0
  147.1972   74.3450  220.0063 H   0  0  0  0  0  0  0  0  0  0  0  0
  147.3741   72.5458  219.8609 H   0  0  0  0  0  0  0  0  0  0  0  0
  145.3270   74.2670  218.5930 H   0  0  0  0  0  0  0  0  0  0  0  0
  144.5412   72.2169  217.6368 H   0  0  0  0  0  0  0  0  0  0  0  0
  145.6372   71.3302  218.7504 H   0  0  0  0  0  0  0  0  0  0  0  0
  138.8465   70.8421  221.7365 H   0  0  0  0  0  0  0  0  0  0  0  0
  139.8401   69.6114  222.5322 H   0  0  0  0  0  0  0  0  0  0  0  0
  137.8593   71.4451  224.0595 H   0  0  0  0  0  0  0  0  0  0  0  0
  137.3924   69.8492  223.5005 H   0  0  0  0  0  0  0  0  0  0  0  0
  137.5904   68.3001  225.3733 H   0  0  0  0  0  0  0  0  0  0  0  0
  138.9447   67.4040  227.2692 H   0  0  0  0  0  0  0  0  0  0  0  0
  141.1080   68.5006  227.8612 H   0  0  0  0  0  0  0  0  0  0  0  0
  141.9137   70.4590  226.5848 H   0  0  0  0  0  0  0  0  0  0  0  0
  140.3277   72.5846  224.9647 H   0  0  0  0  0  0  0  0  0  0  0  0
  141.8030   71.6587  224.4920 H   0  0  0  0  0  0  0  0  0  0  0  0
  140.5195   76.7752  223.7194 H   0  0  0  0  0  0  0  0  0  0  0  0
  142.0589   76.5766  222.8321 H   0  0  0  0  0  0  0  0  0  0  0  0
  1  2  2  0
  2  3  1  0
  3  4  2  0
  4  5  1  0
  5  6  2  0
  5  7  1  0
  7  8  1  0
  8  9  1  0
  9 10  1  0
 10 11  2  0
 11 12  1  0
 12 13  1  0
 13 14  1  0
 14 15  1  0
 15 16  1  0
 16 17  1  0
 17 18  1  0
 18 19  1  0
 12 20  2  0
 20 21  1  0
 21 22  1  0
 22 23  1  0
 23 24  1  0
 24 25  1  0
 25 26  2  0
 26 27  1  0
 27 28  2  0
 28 29  1  0
 29 30  2  0
 30 31  1  0
 21 32  2  0
  9 33  1  0
  6  1  1  0
 32 10  1  0
 33  4  1  0
 19 14  1  0
 31 22  1  0
 30 25  1  0
  1 34  1  0
  2 35  1  0
  3 36  1  0
  6 37  1  0
  7 38  1  0
  7 39  1  0
  8 40  1  0
  8 41  1  0
 13 42  1  0
 13 43  1  0
 14 44  1  1
 15 45  1  0
 15 46  1  0
 16 47  1  0
 16 48  1  0
 17 49  1  0
 17 50  1  0
 18 51  1  0
 19 52  1  0
 19 53  1  0
 23 54  1  0
 23 55  1  0
 24 56  1  0
 24 57  1  0
 26 58  1  0
 27 59  1  0
 28 60  1  0
 29 61  1  0
 31 62  1  0
 31 63  1  0
 33 64  1  0
 33 65  1  0
M  END
>  <smiles>  (41) 
c1ccc2c(c1)CCN(c1nc(CC3CCCNC3)nc(N3CCc4ccccc4C3)n1)C2

>  <score_type>  (41) 
oracle

>  <origin>  (41) 
autodockgpu

>  <m_score__min__energy>  (41) 
-10.23

>  <m_primary>  (41) 
energy

>  <rmsd>  (41) 
4.512435945671

>  <m_score__min__rmsd>  (41) 
4.512435945671

>  <meeko>  (41) 
{"free_energy": -10.18, "intermolecular_energy": -11.38, "internal_energy": -1.11, "cluster_size": 50, "cluster_id": 1, "rank_in_cluster": 6}

>  <energy>  (41) 
-9.19

>  <cluster_rmsd>  (41) 
1.37

>  <cluster>  (41) 
1

$$$$

     RDKit          3D

 65 70  0  0  0  0  0  0  0  0999 V2000
  141.8550   80.6470  222.7410 C   0  0  0  0  0  0  0  0  0  0  0  0
  142.1880   79.8230  223.7960 C   0  0  0  0  0  0  0  0  0  0  0  0
  141.8250   78.4920  223.8520 C   0  0  0  0  0  0  0  0  0  0  0  0
  141.0970   77.9920  222.7920 C   0  0  0  0  0  0  0  0  0  0  0  0
  140.7630   78.8170  221.7350 C   0  0  0  0  0  0  0  0  0  0  0  0
  141.1240   80.1470  221.6750 C   0  0  0  0  0  0  0  0  0  0  0  0
  139.9670   78.1640  220.6340 C   0  0  0  0  0  0  0  0  0  0  0  0
  140.8530   76.9850  220.2060 C   0  0  0  0  0  0  0  0  0  0  0  0
  140.8600   76.0960  221.3550 N   0  0  0  0  0  0  0  0  0  0  0  0
  141.0890   74.7020  221.1870 C   0  0  0  0  0  0  0  0  0  0  0  0
  141.7280   74.1840  220.1230 N   0  0  0  0  0  0  0  0  0  0  0  0
  141.9190   72.8450  220.0110 C   0  0  0  0  0  0  0  0  0  0  0  0
  142.6430   72.3320  218.7950 C   0  0  0  0  0  0  0  0  0  0  0  0
  144.1230   72.6050  219.0870 C   0  0  2  0  0  0  0  0  0  0  0  0
  144.3910   72.2390  220.5100 C   0  0  0  0  0  0  0  0  0  0  0  0
  145.5690   72.9600  221.1270 C   0  0  0  0  0  0  0  0  0  0  0  0
  145.5200   74.4470  220.8550 C   0  0  0  0  0  0  0  0  0  0  0  0
  144.4200   74.7980  219.9800 N   0  0  0  0  0  0  0  0  0  0  0  0
  144.4250   74.0320  218.7730 C   0  0  0  0  0  0  0  0  0  0  0  0
  141.4810   71.9910  220.9530 N   0  0  0  0  0  0  0  0  0  0  0  0
  140.8400   72.4950  222.0230 C   0  0  0  0  0  0  0  0  0  0  0  0
  140.3620   71.6360  223.0360 N   0  0  0  0  0  0  0  0  0  0  0  0
  139.5300   70.5030  222.6740 C   0  0  0  0  0  0  0  0  0  0  0  0
  138.3830   70.4790  223.6940 C   0  0  0  0  0  0  0  0  0  0  0  0
  139.0630   70.0770  224.9780 C   0  0  0  0  0  0  0  0  0  0  0  0
  138.5710   69.0590  225.7690 C   0  0  0  0  0  0  0  0  0  0  0  0
  139.2440   68.7440  226.9310 C   0  0  0  0  0  0  0  0  0  0  0  0
  140.3960   69.4580  227.2750 C   0  0  0  0  0  0  0  0  0  0  0  0
  140.8640   70.4740  226.4640 C   0  0  0  0  0  0  0  0  0  0  0  0
  140.1990   70.7990  225.2950 C   0  0  0  0  0  0  0  0  0  0  0  0
  140.7030   71.8920  224.4220 C   0  0  0  0  0  0  0  0  0  0  0  0
  140.6580   73.8330  222.1170 N   0  0  0  0  0  0  0  0  0  0  0  0
  140.6360   76.5790  222.7160 C   0  0  0  0  0  0  0  0  0  0  0  0
  142.1697   81.7010  222.7458 H   0  0  0  0  0  0  0  0  0  0  0  0
  142.7685   80.2450  224.6296 H   0  0  0  0  0  0  0  0  0  0  0  0
  142.1044   77.8571  224.7057 H   0  0  0  0  0  0  0  0  0  0  0  0
  140.8446   80.7812  220.8208 H   0  0  0  0  0  0  0  0  0  0  0  0
  138.9947   77.8104  221.0077 H   0  0  0  0  0  0  0  0  0  0  0  0
  139.7357   78.8503  219.8061 H   0  0  0  0  0  0  0  0  0  0  0  0
  140.4282   76.4793  219.3263 H   0  0  0  0  0  0  0  0  0  0  0  0
  141.8657   77.3061  219.9208 H   0  0  0  0  0  0  0  0  0  0  0  0
  142.4651   71.2547  218.6620 H   0  0  0  0  0  0  0  0  0  0  0  0
  142.3024   72.8181  217.8689 H   0  0  0  0  0  0  0  0  0  0  0  0
  144.7888   71.9965  218.4574 H   0  0  0  0  0  0  0  0  0  0  0  0
  143.4941   72.4756  221.1013 H   0  0  0  0  0  0  0  0  0  0  0  0
  144.6382   71.1672  220.5183 H   0  0  0  0  0  0  0  0  0  0  0  0
  145.5574   72.7960  222.2146 H   0  0  0  0  0  0  0  0  0  0  0  0
  146.4897   72.5595  220.6776 H   0  0  0  0  0  0  0  0  0  0  0  0
  145.3995   74.9798  221.8098 H   0  0  0  0  0  0  0  0  0  0  0  0
  146.4579   74.7346  220.3573 H   0  0  0  0  0  0  0  0  0  0  0  0
  143.5000   74.7720  220.4500 H   0  0  0  0  0  0  0  0  0  0  0  0
  143.6614   74.4256  218.0860 H   0  0  0  0  0  0  0  0  0  0  0  0
  145.4155   74.1011  218.2996 H   0  0  0  0  0  0  0  0  0  0  0  0
  139.1336   70.6294  221.6557 H   0  0  0  0  0  0  0  0  0  0  0  0
  140.1009   69.5628  222.6867 H   0  0  0  0  0  0  0  0  0  0  0  0
  137.9199   71.4723  223.7885 H   0  0  0  0  0  0  0  0  0  0  0  0
  137.5692   69.7964  223.4080 H   0  0  0  0  0  0  0  0  0  0  0  0
  137.6623   68.5109  225.4793 H   0  0  0  0  0  0  0  0  0  0  0  0
  138.8772   67.9370  227.5823 H   0  0  0  0  0  0  0  0  0  0  0  0
  140.9351   69.2083  228.2007 H   0  0  0  0  0  0  0  0  0  0  0  0
  141.7706   71.0277  226.7494 H   0  0  0  0  0  0  0  0  0  0  0  0
  140.2497   72.8438  224.7360 H   0  0  0  0  0  0  0  0  0  0  0  0
  141.7979   71.9435  224.5143 H   0  0  0  0  0  0  0  0  0  0  0  0
  139.5645   76.5237  222.9587 H   0  0  0  0  0  0  0  0  0  0  0  0
  141.1927   75.9595  223.4345 H   0  0  0  0  0  0  0  0  0  0  0  0
  1  2  2  0
  2  3  1  0
  3  4  2  0
  4  5  1  0
  5  6  2  0
  5  7  1  0
  7  8  1  0
  8  9  1  0
  9 10  1  0
 10 11  2  0
 11 12  1  0
 12 13  1  0
 13 14  1  0
 14 15  1  0
 15 16  1  0
 16 17  1  0
 17 18  1  0
 18 19  1  0
 12 20  2  0
 20 21  1  0
 21 22  1  0
 22 23  1  0
 23 24  1  0
 24 25  1  0
 25 26  2  0
 26 27  1  0
 27 28  2  0
 28 29  1  0
 29 30  2  0
 30 31  1  0
 21 32  2  0
  9 33  1  0
  6  1  1  0
 32 10  1  0
 33  4  1  0
 19 14  1  0
 31 22  1  0
 30 25  1  0
  1 34  1  0
  2 35  1  0
  3 36  1  0
  6 37  1  0
  7 38  1  0
  7 39  1  0
  8 40  1  0
  8 41  1  0
 13 42  1  0
 13 43  1  0
 14 44  1  6
 15 45  1  0
 15 46  1  0
 16 47  1  0
 16 48  1  0
 17 49  1  0
 17 50  1  0
 18 51  1  0
 19 52  1  0
 19 53  1  0
 23 54  1  0
 23 55  1  0
 24 56  1  0
 24 57  1  0
 26 58  1  0
 27 59  1  0
 28 60  1  0
 29 61  1  0
 31 62  1  0
 31 63  1  0
 33 64  1  0
 33 65  1  0
M  END
>  <smiles>  (42) 
c1ccc2c(c1)CCN(c1nc(CC3CCCNC3)nc(N3CCc4ccccc4C3)n1)C2

>  <score_type>  (42) 
oracle

>  <origin>  (42) 
autodockgpu

>  <m_score__min__energy>  (42) 
-10.23

>  <m_primary>  (42) 
energy

>  <rmsd>  (42) 
4.9657216137867755

>  <m_score__min__rmsd>  (42) 
4.9657216137867755

>  <meeko>  (42) 
{"free_energy": -9.46, "intermolecular_energy": -10.65, "internal_energy": -2.01, "cluster_size": 50, "cluster_id": 1, "rank_in_cluster": 9}

>  <energy>  (42) 
-9.17

>  <cluster_rmsd>  (42) 
1.35

>  <cluster>  (42) 
1

$$$$

     RDKit          3D

 65 70  0  0  0  0  0  0  0  0999 V2000
  141.8900   80.6240  222.7370 C   0  0  0  0  0  0  0  0  0  0  0  0
  142.2330   79.7860  223.7770 C   0  0  0  0  0  0  0  0  0  0  0  0
  141.8590   78.4570  223.8240 C   0  0  0  0  0  0  0  0  0  0  0  0
  141.1080   77.9750  222.7720 C   0  0  0  0  0  0  0  0  0  0  0  0
  140.7630   78.8150  221.7300 C   0  0  0  0  0  0  0  0  0  0  0  0
  141.1360   80.1420  221.6780 C   0  0  0  0  0  0  0  0  0  0  0  0
  139.9430   78.1810  220.6350 C   0  0  0  0  0  0  0  0  0  0  0  0
  140.8100   76.9990  220.1790 C   0  0  0  0  0  0  0  0  0  0  0  0
  140.8290   76.0980  221.3180 N   0  0  0  0  0  0  0  0  0  0  0  0
  141.0420   74.7030  221.1320 C   0  0  0  0  0  0  0  0  0  0  0  0
  141.6490   74.1910  220.0450 N   0  0  0  0  0  0  0  0  0  0  0  0
  141.8260   72.8520  219.9160 C   0  0  0  0  0  0  0  0  0  0  0  0
  142.5130   72.3440  218.6770 C   0  0  0  0  0  0  0  0  0  0  0  0
  144.0070   72.5490  218.9560 C   0  0  2  0  0  0  0  0  0  0  0  0
  144.2930   72.0530  220.3340 C   0  0  0  0  0  0  0  0  0  0  0  0
  145.5060   72.6830  220.9830 C   0  0  0  0  0  0  0  0  0  0  0  0
  145.4950   74.1890  220.8440 C   0  0  0  0  0  0  0  0  0  0  0  0
  144.3870   74.6470  220.0300 N   0  0  0  0  0  0  0  0  0  0  0  0
  144.3440   73.9900  218.7600 C   0  0  0  0  0  0  0  0  0  0  0  0
  141.4060   71.9920  220.8620 N   0  0  0  0  0  0  0  0  0  0  0  0
  140.7980   72.4910  221.9530 C   0  0  0  0  0  0  0  0  0  0  0  0
  140.3400   71.6260  222.9700 N   0  0  0  0  0  0  0  0  0  0  0  0
  139.5260   70.4770  222.6140 C   0  0  0  0  0  0  0  0  0  0  0  0
  138.3860   70.4360  223.6400 C   0  0  0  0  0  0  0  0  0  0  0  0
  139.0780   70.0490  224.9220 C   0  0  0  0  0  0  0  0  0  0  0  0
  138.6090   69.0240  225.7180 C   0  0  0  0  0  0  0  0  0  0  0  0
  139.2930   68.7230  226.8770 C   0  0  0  0  0  0  0  0  0  0  0  0
  140.4340   69.4590  227.2140 C   0  0  0  0  0  0  0  0  0  0  0  0
  140.8800   70.4810  226.3980 C   0  0  0  0  0  0  0  0  0  0  0  0
  140.2040   70.7910  225.2320 C   0  0  0  0  0  0  0  0  0  0  0  0
  140.6840   71.8910  224.3540 C   0  0  0  0  0  0  0  0  0  0  0  0
  140.6290   73.8290  222.0640 N   0  0  0  0  0  0  0  0  0  0  0  0
  140.6330   76.5680  222.6880 C   0  0  0  0  0  0  0  0  0  0  0  0
  142.2146   81.6750  222.7476 H   0  0  0  0  0  0  0  0  0  0  0  0
  142.8307   80.1937  224.6056 H   0  0  0  0  0  0  0  0  0  0  0  0
  142.1480   77.8100  224.6653 H   0  0  0  0  0  0  0  0  0  0  0  0
  140.8485   80.7879  220.8353 H   0  0  0  0  0  0  0  0  0  0  0  0
  138.9738   77.8322  221.0210 H   0  0  0  0  0  0  0  0  0  0  0  0
  139.7049   78.8786  219.8185 H   0  0  0  0  0  0  0  0  0  0  0  0
  140.3650   76.5067  219.3017 H   0  0  0  0  0  0  0  0  0  0  0  0
  141.8204   77.3139  219.8792 H   0  0  0  0  0  0  0  0  0  0  0  0
  142.2897   71.2788  218.5174 H   0  0  0  0  0  0  0  0  0  0  0  0
  142.1808   72.8688  217.7691 H   0  0  0  0  0  0  0  0  0  0  0  0
  144.6415   71.9801  218.2605 H   0  0  0  0  0  0  0  0  0  0  0  0
  143.4166   72.2632  220.9647 H   0  0  0  0  0  0  0  0  0  0  0  0
  144.5066   70.9777  220.2439 H   0  0  0  0  0  0  0  0  0  0  0  0
  145.5137   72.4236  222.0519 H   0  0  0  0  0  0  0  0  0  0  0  0
  146.4042   72.2982  220.4779 H   0  0  0  0  0  0  0  0  0  0  0  0
  145.4111   74.6382  221.8446 H   0  0  0  0  0  0  0  0  0  0  0  0
  146.4299   74.4933  220.3507 H   0  0  0  0  0  0  0  0  0  0  0  0
  143.4770   74.6040  220.5180 H   0  0  0  0  0  0  0  0  0  0  0  0
  143.5777   74.4631  218.1283 H   0  0  0  0  0  0  0  0  0  0  0  0
  145.3256   74.0736  218.2707 H   0  0  0  0  0  0  0  0  0  0  0  0
  139.1221   70.5943  221.5976 H   0  0  0  0  0  0  0  0  0  0  0  0
  140.1131   69.5469  222.6249 H   0  0  0  0  0  0  0  0  0  0  0  0
  137.9066   71.4215  223.7343 H   0  0  0  0  0  0  0  0  0  0  0  0
  137.5831   69.7383  223.3598 H   0  0  0  0  0  0  0  0  0  0  0  0
  137.7088   68.4591  225.4341 H   0  0  0  0  0  0  0  0  0  0  0  0
  138.9442   67.9105  227.5314 H   0  0  0  0  0  0  0  0  0  0  0  0
  140.9817   69.2217  228.1380 H   0  0  0  0  0  0  0  0  0  0  0  0
  141.7781   71.0514  226.6775 H   0  0  0  0  0  0  0  0  0  0  0  0
  140.2157   72.8353  224.6686 H   0  0  0  0  0  0  0  0  0  0  0  0
  141.7783   71.9620  224.4403 H   0  0  0  0  0  0  0  0  0  0  0  0
  139.5654   76.5198  222.9485 H   0  0  0  0  0  0  0  0  0  0  0  0
  141.1964   75.9355  223.3897 H   0  0  0  0  0  0  0  0  0  0  0  0
  1  2  2  0
  2  3  1  0
  3  4  2  0
  4  5  1  0
  5  6  2  0
  5  7  1  0
  7  8  1  0
  8  9  1  0
  9 10  1  0
 10 11  2  0
 11 12  1  0
 12 13  1  0
 13 14  1  0
 14 15  1  0
 15 16  1  0
 16 17  1  0
 17 18  1  0
 18 19  1  0
 12 20  2  0
 20 21  1  0
 21 22  1  0
 22 23  1  0
 23 24  1  0
 24 25  1  0
 25 26  2  0
 26 27  1  0
 27 28  2  0
 28 29  1  0
 29 30  2  0
 30 31  1  0
 21 32  2  0
  9 33  1  0
  6  1  1  0
 32 10  1  0
 33  4  1  0
 19 14  1  0
 31 22  1  0
 30 25  1  0
  1 34  1  0
  2 35  1  0
  3 36  1  0
  6 37  1  0
  7 38  1  0
  7 39  1  0
  8 40  1  0
  8 41  1  0
 13 42  1  0
 13 43  1  0
 14 44  1  6
 15 45  1  0
 15 46  1  0
 16 47  1  0
 16 48  1  0
 17 49  1  0
 17 50  1  0
 18 51  1  0
 19 52  1  0
 19 53  1  0
 23 54  1  0
 23 55  1  0
 24 56  1  0
 24 57  1  0
 26 58  1  0
 27 59  1  0
 28 60  1  0
 29 61  1  0
 31 62  1  0
 31 63  1  0
 33 64  1  0
 33 65  1  0
M  END
>  <smiles>  (43) 
c1ccc2c(c1)CCN(c1nc(CC3CCCNC3)nc(N3CCc4ccccc4C3)n1)C2

>  <score_type>  (43) 
oracle

>  <origin>  (43) 
autodockgpu

>  <m_score__min__energy>  (43) 
-10.23

>  <m_primary>  (43) 
energy

>  <rmsd>  (43) 
4.970979959510064

>  <m_score__min__rmsd>  (43) 
4.970979959510064

>  <meeko>  (43) 
{"free_energy": -9.42, "intermolecular_energy": -10.61, "internal_energy": -2.0, "cluster_size": 50, "cluster_id": 1, "rank_in_cluster": 22}

>  <energy>  (43) 
-9.16

>  <cluster_rmsd>  (43) 
1.37

>  <cluster>  (43) 
1

$$$$

     RDKit          3D

 65 70  0  0  0  0  0  0  0  0999 V2000
  140.5180   80.9620  221.6170 C   0  0  0  0  0  0  0  0  0  0  0  0
  141.7540   80.5040  222.0230 C   0  0  0  0  0  0  0  0  0  0  0  0
  141.9850   79.1930  222.3920 C   0  0  0  0  0  0  0  0  0  0  0  0
  140.9130   78.3260  222.3430 C   0  0  0  0  0  0  0  0  0  0  0  0
  139.6740   78.7840  221.9370 C   0  0  0  0  0  0  0  0  0  0  0  0
  139.4390   80.0920  221.5660 C   0  0  0  0  0  0  0  0  0  0  0  0
  138.5770   77.7510  221.9220 C   0  0  0  0  0  0  0  0  0  0  0  0
  139.1330   76.6550  221.0010 C   0  0  0  0  0  0  0  0  0  0  0  0
  140.2680   76.1090  221.7240 N   0  0  0  0  0  0  0  0  0  0  0  0
  140.6980   74.7730  221.4910 C   0  0  0  0  0  0  0  0  0  0  0  0
  141.4630   74.4200  220.4420 N   0  0  0  0  0  0  0  0  0  0  0  0
  141.8450   73.1300  220.2650 C   0  0  0  0  0  0  0  0  0  0  0  0
  142.7020   72.8020  219.0710 C   0  0  0  0  0  0  0  0  0  0  0  0
  144.0150   72.2880  219.6730 C   0  0  2  0  0  0  0  0  0  0  0  0
  144.3790   73.1730  220.8190 C   0  0  0  0  0  0  0  0  0  0  0  0
  145.8570   73.1990  221.1410 C   0  0  0  0  0  0  0  0  0  0  0  0
  146.6970   73.3980  219.8990 C   0  0  0  0  0  0  0  0  0  0  0  0
  145.8870   73.4020  218.6970 N   0  0  0  0  0  0  0  0  0  0  0  0
  145.0550   72.2430  218.6030 C   0  0  0  0  0  0  0  0  0  0  0  0
  141.4770   72.1630  221.1240 N   0  0  0  0  0  0  0  0  0  0  0  0
  140.7110   72.5010  222.1770 C   0  0  0  0  0  0  0  0  0  0  0  0
  140.3010   71.5200  223.1030 N   0  0  0  0  0  0  0  0  0  0  0  0
  139.4700   70.4180  222.6510 C   0  0  0  0  0  0  0  0  0  0  0  0
  138.3780   70.2500  223.7170 C   0  0  0  0  0  0  0  0  0  0  0  0
  139.1290   69.7150  224.9100 C   0  0  0  0  0  0  0  0  0  0  0  0
  138.6960   68.6010  225.5980 C   0  0  0  0  0  0  0  0  0  0  0  0
  139.4330   68.1670  226.6810 C   0  0  0  0  0  0  0  0  0  0  0  0
  140.5890   68.8620  227.0490 C   0  0  0  0  0  0  0  0  0  0  0  0
  140.9980   69.9760  226.3410 C   0  0  0  0  0  0  0  0  0  0  0  0
  140.2680   70.4200  225.2540 C   0  0  0  0  0  0  0  0  0  0  0  0
  140.7090   71.6190  224.4920 C   0  0  0  0  0  0  0  0  0  0  0  0
  140.3400   73.7930  222.3370 N   0  0  0  0  0  0  0  0  0  0  0  0
  141.0120   76.8890  222.7120 C   0  0  0  0  0  0  0  0  0  0  0  0
  140.3880   82.0169  221.3338 H   0  0  0  0  0  0  0  0  0  0  0  0
  142.5933   81.2144  222.0544 H   0  0  0  0  0  0  0  0  0  0  0  0
  142.9817   78.8546  222.7114 H   0  0  0  0  0  0  0  0  0  0  0  0
  138.4424   80.4291  221.2448 H   0  0  0  0  0  0  0  0  0  0  0  0
  138.3916   77.3590  222.9329 H   0  0  0  0  0  0  0  0  0  0  0  0
  137.6129   78.1533  221.5775 H   0  0  0  0  0  0  0  0  0  0  0  0
  138.3760   75.8772  220.8223 H   0  0  0  0  0  0  0  0  0  0  0  0
  139.4170   77.0455  220.0126 H   0  0  0  0  0  0  0  0  0  0  0  0
  142.2273   72.0259  218.4527 H   0  0  0  0  0  0  0  0  0  0  0  0
  142.8542   73.6704  218.4132 H   0  0  0  0  0  0  0  0  0  0  0  0
  143.9191   71.2639  220.0629 H   0  0  0  0  0  0  0  0  0  0  0  0
  144.0611   74.1979  220.5772 H   0  0  0  0  0  0  0  0  0  0  0  0
  143.8708   72.7654  221.7053 H   0  0  0  0  0  0  0  0  0  0  0  0
  146.0548   74.0241  221.8411 H   0  0  0  0  0  0  0  0  0  0  0  0
  146.1279   72.2304  221.5865 H   0  0  0  0  0  0  0  0  0  0  0  0
  147.2245   74.3602  219.9762 H   0  0  0  0  0  0  0  0  0  0  0  0
  147.4084   72.5619  219.8295 H   0  0  0  0  0  0  0  0  0  0  0  0
  145.3490   74.2750  218.5700 H   0  0  0  0  0  0  0  0  0  0  0  0
  144.5664   72.2215  217.6177 H   0  0  0  0  0  0  0  0  0  0  0  0
  145.6699   71.3395  218.7276 H   0  0  0  0  0  0  0  0  0  0  0  0
  139.0195   70.6535  221.6755 H   0  0  0  0  0  0  0  0  0  0  0  0
  140.0560   69.4958  222.5242 H   0  0  0  0  0  0  0  0  0  0  0  0
  137.9051   71.2153  223.9508 H   0  0  0  0  0  0  0  0  0  0  0  0
  137.5616   69.5879  223.3929 H   0  0  0  0  0  0  0  0  0  0  0  0
  137.7831   68.0700  225.2903 H   0  0  0  0  0  0  0  0  0  0  0  0
  139.1136   67.2815  227.2501 H   0  0  0  0  0  0  0  0  0  0  0  0
  141.1792   68.5184  227.9113 H   0  0  0  0  0  0  0  0  0  0  0  0
  141.9093   70.5124  226.6439 H   0  0  0  0  0  0  0  0  0  0  0  0
  140.2573   72.5172  224.9383 H   0  0  0  0  0  0  0  0  0  0  0  0
  141.8063   71.6831  224.5356 H   0  0  0  0  0  0  0  0  0  0  0  0
  140.5810   76.7311  223.7117 H   0  0  0  0  0  0  0  0  0  0  0  0
  142.0657   76.5736  222.7284 H   0  0  0  0  0  0  0  0  0  0  0  0
  1  2  2  0
  2  3  1  0
  3  4  2  0
  4  5  1  0
  5  6  2  0
  5  7  1  0
  7  8  1  0
  8  9  1  0
  9 10  1  0
 10 11  2  0
 11 12  1  0
 12 13  1  0
 13 14  1  0
 14 15  1  0
 15 16  1  0
 16 17  1  0
 17 18  1  0
 18 19  1  0
 12 20  2  0
 20 21  1  0
 21 22  1  0
 22 23  1  0
 23 24  1  0
 24 25  1  0
 25 26  2  0
 26 27  1  0
 27 28  2  0
 28 29  1  0
 29 30  2  0
 30 31  1  0
 21 32  2  0
  9 33  1  0
  6  1  1  0
 32 10  1  0
 33  4  1  0
 19 14  1  0
 31 22  1  0
 30 25  1  0
  1 34  1  0
  2 35  1  0
  3 36  1  0
  6 37  1  0
  7 38  1  0
  7 39  1  0
  8 40  1  0
  8 41  1  0
 13 42  1  0
 13 43  1  0
 14 44  1  1
 15 45  1  0
 15 46  1  0
 16 47  1  0
 16 48  1  0
 17 49  1  0
 17 50  1  0
 18 51  1  0
 19 52  1  0
 19 53  1  0
 23 54  1  0
 23 55  1  0
 24 56  1  0
 24 57  1  0
 26 58  1  0
 27 59  1  0
 28 60  1  0
 29 61  1  0
 31 62  1  0
 31 63  1  0
 33 64  1  0
 33 65  1  0
M  END
>  <smiles>  (44) 
c1ccc2c(c1)CCN(c1nc(CC3CCCNC3)nc(N3CCc4ccccc4C3)n1)C2

>  <score_type>  (44) 
oracle

>  <origin>  (44) 
autodockgpu

>  <m_score__min__energy>  (44) 
-10.23

>  <m_primary>  (44) 
energy

>  <rmsd>  (44) 
4.461675773432002

>  <m_score__min__rmsd>  (44) 
4.461675773432002

>  <meeko>  (44) 
{"free_energy": -10.18, "intermolecular_energy": -11.38, "internal_energy": -1.11, "cluster_size": 50, "cluster_id": 1, "rank_in_cluster": 5}

>  <energy>  (44) 
-9.16

>  <cluster_rmsd>  (44) 
1.36

>  <cluster>  (44) 
1

$$$$

     RDKit          3D

 65 70  0  0  0  0  0  0  0  0999 V2000
  141.8860   80.6270  222.7270 C   0  0  0  0  0  0  0  0  0  0  0  0
  142.2100   79.7990  223.7820 C   0  0  0  0  0  0  0  0  0  0  0  0
  141.8340   78.4720  223.8370 C   0  0  0  0  0  0  0  0  0  0  0  0
  141.1010   77.9790  222.7760 C   0  0  0  0  0  0  0  0  0  0  0  0
  140.7750   78.8080  221.7200 C   0  0  0  0  0  0  0  0  0  0  0  0
  141.1500   80.1350  221.6610 C   0  0  0  0  0  0  0  0  0  0  0  0
  139.9730   78.1650  220.6180 C   0  0  0  0  0  0  0  0  0  0  0  0
  140.8470   76.9770  220.1890 C   0  0  0  0  0  0  0  0  0  0  0  0
  140.8450   76.0880  221.3380 N   0  0  0  0  0  0  0  0  0  0  0  0
  141.0590   74.6910  221.1690 C   0  0  0  0  0  0  0  0  0  0  0  0
  141.6900   74.1670  220.1020 N   0  0  0  0  0  0  0  0  0  0  0  0
  141.8670   72.8270  219.9890 C   0  0  0  0  0  0  0  0  0  0  0  0
  142.5810   72.3060  218.7700 C   0  0  0  0  0  0  0  0  0  0  0  0
  144.0570   72.6350  219.0210 C   0  0  2  0  0  0  0  0  0  0  0  0
  144.4000   72.2010  220.4080 C   0  0  0  0  0  0  0  0  0  0  0  0
  145.5670   72.9430  221.0220 C   0  0  0  0  0  0  0  0  0  0  0  0
  145.4360   74.4390  220.8430 C   0  0  0  0  0  0  0  0  0  0  0  0
  144.2860   74.7850  220.0330 N   0  0  0  0  0  0  0  0  0  0  0  0
  144.2780   74.0920  218.7830 C   0  0  0  0  0  0  0  0  0  0  0  0
  141.4240   71.9770  220.9330 N   0  0  0  0  0  0  0  0  0  0  0  0
  140.7930   72.4860  222.0060 C   0  0  0  0  0  0  0  0  0  0  0  0
  140.3110   71.6330  223.0200 N   0  0  0  0  0  0  0  0  0  0  0  0
  139.4510   70.5180  222.6640 C   0  0  0  0  0  0  0  0  0  0  0  0
  138.3180   70.5120  223.6990 C   0  0  0  0  0  0  0  0  0  0  0  0
  139.0060   70.0900  224.9720 C   0  0  0  0  0  0  0  0  0  0  0  0
  138.5050   69.0780  225.7640 C   0  0  0  0  0  0  0  0  0  0  0  0
  139.1870   68.7420  226.9160 C   0  0  0  0  0  0  0  0  0  0  0  0
  140.3570   69.4310  227.2470 C   0  0  0  0  0  0  0  0  0  0  0  0
  140.8350   70.4410  226.4350 C   0  0  0  0  0  0  0  0  0  0  0  0
  140.1610   70.7860  225.2780 C   0  0  0  0  0  0  0  0  0  0  0  0
  140.6760   71.8730  224.4030 C   0  0  0  0  0  0  0  0  0  0  0  0
  140.6240   73.8260  222.1000 N   0  0  0  0  0  0  0  0  0  0  0  0
  140.6260   76.5720  222.6990 C   0  0  0  0  0  0  0  0  0  0  0  0
  142.2119   81.6776  222.7321 H   0  0  0  0  0  0  0  0  0  0  0  0
  142.7939   80.2148  224.6164 H   0  0  0  0  0  0  0  0  0  0  0  0
  142.1070   77.8340  224.6905 H   0  0  0  0  0  0  0  0  0  0  0  0
  140.8772   80.7726  220.8071 H   0  0  0  0  0  0  0  0  0  0  0  0
  138.9968   77.8213  220.9906 H   0  0  0  0  0  0  0  0  0  0  0  0
  139.7494   78.8547  219.7908 H   0  0  0  0  0  0  0  0  0  0  0  0
  140.4168   76.4759  219.3093 H   0  0  0  0  0  0  0  0  0  0  0  0
  141.8628   77.2877  219.9032 H   0  0  0  0  0  0  0  0  0  0  0  0
  142.4362   71.2203  218.6688 H   0  0  0  0  0  0  0  0  0  0  0  0
  142.2041   72.7561  217.8398 H   0  0  0  0  0  0  0  0  0  0  0  0
  144.7241   72.0983  218.3304 H   0  0  0  0  0  0  0  0  0  0  0  0
  143.5178   72.3579  221.0461 H   0  0  0  0  0  0  0  0  0  0  0  0
  144.6979   71.1441  220.3427 H   0  0  0  0  0  0  0  0  0  0  0  0
  145.6083   72.7150  222.0973 H   0  0  0  0  0  0  0  0  0  0  0  0
  146.4863   72.6163  220.5139 H   0  0  0  0  0  0  0  0  0  0  0  0
  145.3289   74.9080  221.8322 H   0  0  0  0  0  0  0  0  0  0  0  0
  146.3381   74.8022  220.3290 H   0  0  0  0  0  0  0  0  0  0  0  0
  143.3880   74.6850  220.5350 H   0  0  0  0  0  0  0  0  0  0  0  0
  143.4692   74.4867  218.1505 H   0  0  0  0  0  0  0  0  0  0  0  0
  145.2442   74.2377  218.2777 H   0  0  0  0  0  0  0  0  0  0  0  0
  139.0436   70.6573  221.6518 H   0  0  0  0  0  0  0  0  0  0  0  0
  140.0030   69.5665  222.6647 H   0  0  0  0  0  0  0  0  0  0  0  0
  137.8765   71.5140  223.8043 H   0  0  0  0  0  0  0  0  0  0  0  0
  137.4871   69.8471  223.4206 H   0  0  0  0  0  0  0  0  0  0  0  0
  137.5817   68.5500  225.4836 H   0  0  0  0  0  0  0  0  0  0  0  0
  138.8129   67.9389  227.5679 H   0  0  0  0  0  0  0  0  0  0  0  0
  140.9032   69.1661  228.1643 H   0  0  0  0  0  0  0  0  0  0  0  0
  141.7571   70.9739  226.7103 H   0  0  0  0  0  0  0  0  0  0  0  0
  140.2474   72.8324  224.7285 H   0  0  0  0  0  0  0  0  0  0  0  0
  141.7730   71.8998  224.4801 H   0  0  0  0  0  0  0  0  0  0  0  0
  139.5540   76.5275  222.9417 H   0  0  0  0  0  0  0  0  0  0  0  0
  141.1763   75.9463  223.4170 H   0  0  0  0  0  0  0  0  0  0  0  0
  1  2  2  0
  2  3  1  0
  3  4  2  0
  4  5  1  0
  5  6  2  0
  5  7  1  0
  7  8  1  0
  8  9  1  0
  9 10  1  0
 10 11  2  0
 11 12  1  0
 12 13  1  0
 13 14  1  0
 14 15  1  0
 15 16  1  0
 16 17  1  0
 17 18  1  0
 18 19  1  0
 12 20  2  0
 20 21  1  0
 21 22  1  0
 22 23  1  0
 23 24  1  0
 24 25  1  0
 25 26  2  0
 26 27  1  0
 27 28  2  0
 28 29  1  0
 29 30  2  0
 30 31  1  0
 21 32  2  0
  9 33  1  0
  6  1  1  0
 32 10  1  0
 33  4  1  0
 19 14  1  0
 31 22  1  0
 30 25  1  0
  1 34  1  0
  2 35  1  0
  3 36  1  0
  6 37  1  0
  7 38  1  0
  7 39  1  0
  8 40  1  0
  8 41  1  0
 13 42  1  0
 13 43  1  0
 14 44  1  6
 15 45  1  0
 15 46  1  0
 16 47  1  0
 16 48  1  0
 17 49  1  0
 17 50  1  0
 18 51  1  0
 19 52  1  0
 19 53  1  0
 23 54  1  0
 23 55  1  0
 24 56  1  0
 24 57  1  0
 26 58  1  0
 27 59  1  0
 28 60  1  0
 29 61  1  0
 31 62  1  0
 31 63  1  0
 33 64  1  0
 33 65  1  0
M  END
>  <smiles>  (45) 
c1ccc2c(c1)CCN(c1nc(CC3CCCNC3)nc(N3CCc4ccccc4C3)n1)C2

>  <score_type>  (45) 
oracle

>  <origin>  (45) 
autodockgpu

>  <m_score__min__energy>  (45) 
-10.23

>  <m_primary>  (45) 
energy

>  <rmsd>  (45) 
4.962600681792171

>  <m_score__min__rmsd>  (45) 
4.962600681792171

>  <meeko>  (45) 
{"free_energy": -9.45, "intermolecular_energy": -10.64, "internal_energy": -1.96, "cluster_size": 50, "cluster_id": 1, "rank_in_cluster": 11}

>  <energy>  (45) 
-9.14

>  <cluster_rmsd>  (45) 
1.35

>  <cluster>  (45) 
1

$$$$

     RDKit          3D

 65 70  0  0  0  0  0  0  0  0999 V2000
  140.8570   81.2520  222.5070 C   0  0  0  0  0  0  0  0  0  0  0  0
  142.0790   80.6440  222.7060 C   0  0  0  0  0  0  0  0  0  0  0  0
  142.2210   79.2800  222.8670 C   0  0  0  0  0  0  0  0  0  0  0  0
  141.0720   78.5170  222.8230 C   0  0  0  0  0  0  0  0  0  0  0  0
  139.8480   79.1250  222.6250 C   0  0  0  0  0  0  0  0  0  0  0  0
  139.7020   80.4880  222.4620 C   0  0  0  0  0  0  0  0  0  0  0  0
  138.6620   78.1950  222.5940 C   0  0  0  0  0  0  0  0  0  0  0  0
  139.0170   77.2030  221.4770 C   0  0  0  0  0  0  0  0  0  0  0  0
  140.1620   76.4700  221.9880 N   0  0  0  0  0  0  0  0  0  0  0  0
  140.4380   75.1520  221.5290 C   0  0  0  0  0  0  0  0  0  0  0  0
  140.9080   74.8850  220.2970 N   0  0  0  0  0  0  0  0  0  0  0  0
  141.1540   73.6080  219.9090 C   0  0  0  0  0  0  0  0  0  0  0  0
  141.6790   73.3790  218.5170 C   0  0  0  0  0  0  0  0  0  0  0  0
  143.2030   73.4600  218.6640 C   0  0  2  0  0  0  0  0  0  0  0  0
  143.6250   72.4450  219.6750 C   0  0  0  0  0  0  0  0  0  0  0  0
  144.9340   72.7620  220.3650 C   0  0  0  0  0  0  0  0  0  0  0  0
  144.9780   74.1940  220.8510 C   0  0  0  0  0  0  0  0  0  0  0  0
  143.8050   74.9380  220.4390 N   0  0  0  0  0  0  0  0  0  0  0  0
  143.5820   74.8560  219.0290 C   0  0  0  0  0  0  0  0  0  0  0  0
  140.9410   72.5680  220.7360 N   0  0  0  0  0  0  0  0  0  0  0  0
  140.4720   72.8200  221.9710 C   0  0  0  0  0  0  0  0  0  0  0  0
  140.2330   71.7610  222.8710 N   0  0  0  0  0  0  0  0  0  0  0  0
  139.5990   70.5460  222.3890 C   0  0  0  0  0  0  0  0  0  0  0  0
  138.5520   70.1690  223.4450 C   0  0  0  0  0  0  0  0  0  0  0  0
  139.3830   69.7390  224.6280 C   0  0  0  0  0  0  0  0  0  0  0  0
  139.1450   68.5510  225.2860 C   0  0  0  0  0  0  0  0  0  0  0  0
  139.9450   68.2200  226.3600 C   0  0  0  0  0  0  0  0  0  0  0  0
  140.9670   69.0910  226.7500 C   0  0  0  0  0  0  0  0  0  0  0  0
  141.1820   70.2750  226.0720 C   0  0  0  0  0  0  0  0  0  0  0  0
  140.3870   70.6180  224.9930 C   0  0  0  0  0  0  0  0  0  0  0  0
  140.6190   71.8920  224.2630 C   0  0  0  0  0  0  0  0  0  0  0  0
  140.2320   74.1000  222.3400 N   0  0  0  0  0  0  0  0  0  0  0  0
  141.0720   77.0380  222.9810 C   0  0  0  0  0  0  0  0  0  0  0  0
  140.7994   82.3436  222.3840 H   0  0  0  0  0  0  0  0  0  0  0  0
  142.9804   81.2737  222.7378 H   0  0  0  0  0  0  0  0  0  0  0  0
  143.2083   78.8210  223.0237 H   0  0  0  0  0  0  0  0  0  0  0  0
  138.7146   80.9462  222.3038 H   0  0  0  0  0  0  0  0  0  0  0  0
  138.5426   77.6771  223.5571 H   0  0  0  0  0  0  0  0  0  0  0  0
  137.7105   78.7180  222.4175 H   0  0  0  0  0  0  0  0  0  0  0  0
  138.1759   76.5218  221.2809 H   0  0  0  0  0  0  0  0  0  0  0  0
  139.2363   77.7081  220.5248 H   0  0  0  0  0  0  0  0  0  0  0  0
  141.3762   72.3890  218.1451 H   0  0  0  0  0  0  0  0  0  0  0  0
  141.2885   74.1127  217.7964 H   0  0  0  0  0  0  0  0  0  0  0  0
  143.7241   73.2284  217.7233 H   0  0  0  0  0  0  0  0  0  0  0  0
  142.8393   72.3748  220.4417 H   0  0  0  0  0  0  0  0  0  0  0  0
  143.7757   71.5011  219.1306 H   0  0  0  0  0  0  0  0  0  0  0  0
  145.0547   72.0892  221.2268 H   0  0  0  0  0  0  0  0  0  0  0  0
  145.7476   72.6215  219.6381 H   0  0  0  0  0  0  0  0  0  0  0  0
  145.0330   74.1957  221.9496 H   0  0  0  0  0  0  0  0  0  0  0  0
  145.8621   74.6778  220.4102 H   0  0  0  0  0  0  0  0  0  0  0  0
  142.9570   74.6960  220.9780 H   0  0  0  0  0  0  0  0  0  0  0  0
  142.7700   75.5419  218.7460 H   0  0  0  0  0  0  0  0  0  0  0  0
  144.5025   75.1365  218.4961 H   0  0  0  0  0  0  0  0  0  0  0  0
  139.1148   70.7267  221.4180 H   0  0  0  0  0  0  0  0  0  0  0  0
  140.3323   69.7394  222.2422 H   0  0  0  0  0  0  0  0  0  0  0  0
  137.9224   71.0340  223.7006 H   0  0  0  0  0  0  0  0  0  0  0  0
  137.8596   69.3865  223.1011 H   0  0  0  0  0  0  0  0  0  0  0  0
  138.3347   67.8816  224.9616 H   0  0  0  0  0  0  0  0  0  0  0  0
  139.7803   67.2788  226.9050 H   0  0  0  0  0  0  0  0  0  0  0  0
  141.6067   68.8304  227.6061 H   0  0  0  0  0  0  0  0  0  0  0  0
  141.9902   70.9492  226.3919 H   0  0  0  0  0  0  0  0  0  0  0  0
  140.0227   72.6898  224.7299 H   0  0  0  0  0  0  0  0  0  0  0  0
  141.6899   72.1386  224.3121 H   0  0  0  0  0  0  0  0  0  0  0  0
  140.7315   76.7721  223.9926 H   0  0  0  0  0  0  0  0  0  0  0  0
  142.0876   76.6414  222.8349 H   0  0  0  0  0  0  0  0  0  0  0  0
  1  2  2  0
  2  3  1  0
  3  4  2  0
  4  5  1  0
  5  6  2  0
  5  7  1  0
  7  8  1  0
  8  9  1  0
  9 10  1  0
 10 11  2  0
 11 12  1  0
 12 13  1  0
 13 14  1  0
 14 15  1  0
 15 16  1  0
 16 17  1  0
 17 18  1  0
 18 19  1  0
 12 20  2  0
 20 21  1  0
 21 22  1  0
 22 23  1  0
 23 24  1  0
 24 25  1  0
 25 26  2  0
 26 27  1  0
 27 28  2  0
 28 29  1  0
 29 30  2  0
 30 31  1  0
 21 32  2  0
  9 33  1  0
  6  1  1  0
 32 10  1  0
 33  4  1  0
 19 14  1  0
 31 22  1  0
 30 25  1  0
  1 34  1  0
  2 35  1  0
  3 36  1  0
  6 37  1  0
  7 38  1  0
  7 39  1  0
  8 40  1  0
  8 41  1  0
 13 42  1  0
 13 43  1  0
 14 44  1  6
 15 45  1  0
 15 46  1  0
 16 47  1  0
 16 48  1  0
 17 49  1  0
 17 50  1  0
 18 51  1  0
 19 52  1  0
 19 53  1  0
 23 54  1  0
 23 55  1  0
 24 56  1  0
 24 57  1  0
 26 58  1  0
 27 59  1  0
 28 60  1  0
 29 61  1  0
 31 62  1  0
 31 63  1  0
 33 64  1  0
 33 65  1  0
M  END
>  <smiles>  (46) 
c1ccc2c(c1)CCN(c1nc(CC3CCCNC3)nc(N3CCc4ccccc4C3)n1)C2

>  <score_type>  (46) 
oracle

>  <origin>  (46) 
autodockgpu

>  <m_score__min__energy>  (46) 
-10.23

>  <m_primary>  (46) 
energy

>  <rmsd>  (46) 
4.975539573503955

>  <m_score__min__rmsd>  (46) 
4.975539573503955

>  <meeko>  (46) 
{"free_energy": -9.28, "intermolecular_energy": -10.47, "internal_energy": -2.02, "cluster_size": 50, "cluster_id": 1, "rank_in_cluster": 35}

>  <energy>  (46) 
-9.12

>  <cluster_rmsd>  (46) 
1.35

>  <cluster>  (46) 
1

$$$$

     RDKit          3D

 65 70  0  0  0  0  0  0  0  0999 V2000
  141.8050   80.6230  222.6850 C   0  0  0  0  0  0  0  0  0  0  0  0
  142.1170   79.8080  223.7530 C   0  0  0  0  0  0  0  0  0  0  0  0
  141.7540   78.4770  223.8120 C   0  0  0  0  0  0  0  0  0  0  0  0
  141.0470   77.9680  222.7420 C   0  0  0  0  0  0  0  0  0  0  0  0
  140.7330   78.7840  221.6730 C   0  0  0  0  0  0  0  0  0  0  0  0
  141.0960   80.1140  221.6090 C   0  0  0  0  0  0  0  0  0  0  0  0
  139.9600   78.1230  220.5610 C   0  0  0  0  0  0  0  0  0  0  0  0
  140.8550   76.9410  220.1590 C   0  0  0  0  0  0  0  0  0  0  0  0
  140.8400   76.0620  221.3150 N   0  0  0  0  0  0  0  0  0  0  0  0
  141.0720   74.6660  221.1630 C   0  0  0  0  0  0  0  0  0  0  0  0
  141.7110   74.1380  220.1020 N   0  0  0  0  0  0  0  0  0  0  0  0
  141.9050   72.7990  220.0060 C   0  0  0  0  0  0  0  0  0  0  0  0
  142.6280   72.2730  218.7940 C   0  0  0  0  0  0  0  0  0  0  0  0
  144.0990   72.6250  219.0430 C   0  0  2  0  0  0  0  0  0  0  0  0
  144.4380   72.2400  220.4450 C   0  0  0  0  0  0  0  0  0  0  0  0
  145.5940   73.0130  221.0410 C   0  0  0  0  0  0  0  0  0  0  0  0
  145.4490   74.5010  220.8130 C   0  0  0  0  0  0  0  0  0  0  0  0
  144.3000   74.8090  219.9850 N   0  0  0  0  0  0  0  0  0  0  0  0
  144.3060   74.0760  218.7580 C   0  0  0  0  0  0  0  0  0  0  0  0
  141.4720   71.9540  220.9590 N   0  0  0  0  0  0  0  0  0  0  0  0
  140.8320   72.4680  222.0240 C   0  0  0  0  0  0  0  0  0  0  0  0
  140.3600   71.6190  223.0480 N   0  0  0  0  0  0  0  0  0  0  0  0
  139.5330   70.4770  222.7010 C   0  0  0  0  0  0  0  0  0  0  0  0
  138.3880   70.4600  223.7220 C   0  0  0  0  0  0  0  0  0  0  0  0
  139.0700   70.0770  225.0110 C   0  0  0  0  0  0  0  0  0  0  0  0
  138.5850   69.0670  225.8150 C   0  0  0  0  0  0  0  0  0  0  0  0
  139.2610   68.7690  226.9800 C   0  0  0  0  0  0  0  0  0  0  0  0
  140.4090   69.4930  227.3130 C   0  0  0  0  0  0  0  0  0  0  0  0
  140.8710   70.5020  226.4890 C   0  0  0  0  0  0  0  0  0  0  0  0
  140.2040   70.8090  225.3180 C   0  0  0  0  0  0  0  0  0  0  0  0
  140.7010   71.8930  224.4310 C   0  0  0  0  0  0  0  0  0  0  0  0
  140.6470   73.8060  222.1030 N   0  0  0  0  0  0  0  0  0  0  0  0
  140.5890   76.5550  222.6680 C   0  0  0  0  0  0  0  0  0  0  0  0
  142.1191   81.6772  222.6875 H   0  0  0  0  0  0  0  0  0  0  0  0
  142.6799   80.2372  224.5950 H   0  0  0  0  0  0  0  0  0  0  0  0
  142.0174   77.8489  224.6758 H   0  0  0  0  0  0  0  0  0  0  0  0
  140.8345   80.7409  220.7438 H   0  0  0  0  0  0  0  0  0  0  0  0
  138.9804   77.7716  220.9174 H   0  0  0  0  0  0  0  0  0  0  0  0
  139.7454   78.8034  219.7237 H   0  0  0  0  0  0  0  0  0  0  0  0
  140.4474   76.4279  219.2754 H   0  0  0  0  0  0  0  0  0  0  0  0
  141.8728   77.2602  219.8902 H   0  0  0  0  0  0  0  0  0  0  0  0
  142.4981   71.1843  218.7057 H   0  0  0  0  0  0  0  0  0  0  0  0
  142.2464   72.7067  217.8579 H   0  0  0  0  0  0  0  0  0  0  0  0
  144.7763   72.0728  218.3750 H   0  0  0  0  0  0  0  0  0  0  0  0
  143.5506   72.4089  221.0727 H   0  0  0  0  0  0  0  0  0  0  0  0
  144.7466   71.1846  220.4159 H   0  0  0  0  0  0  0  0  0  0  0  0
  145.6314   72.8202  222.1233 H   0  0  0  0  0  0  0  0  0  0  0  0
  146.5194   72.6794  220.5488 H   0  0  0  0  0  0  0  0  0  0  0  0
  145.3310   75.0005  221.7859 H   0  0  0  0  0  0  0  0  0  0  0  0
  146.3506   74.8568  220.2929 H   0  0  0  0  0  0  0  0  0  0  0  0
  143.4000   74.7160  220.4850 H   0  0  0  0  0  0  0  0  0  0  0  0
  143.4964   74.4412  218.1090 H   0  0  0  0  0  0  0  0  0  0  0  0
  145.2730   74.2157  218.2526 H   0  0  0  0  0  0  0  0  0  0  0  0
  139.1349   70.5888  221.6817 H   0  0  0  0  0  0  0  0  0  0  0  0
  140.1086   69.5399  222.7247 H   0  0  0  0  0  0  0  0  0  0  0  0
  137.9203   71.4522  223.8046 H   0  0  0  0  0  0  0  0  0  0  0  0
  137.5777   69.7696  223.4449 H   0  0  0  0  0  0  0  0  0  0  0  0
  137.6786   68.5110  225.5334 H   0  0  0  0  0  0  0  0  0  0  0  0
  138.8993   67.9680  227.6415 H   0  0  0  0  0  0  0  0  0  0  0  0
  140.9508   69.2574  228.2409 H   0  0  0  0  0  0  0  0  0  0  0  0
  141.7749   71.0640  226.7668 H   0  0  0  0  0  0  0  0  0  0  0  0
  140.2432   72.8462  224.7340 H   0  0  0  0  0  0  0  0  0  0  0  0
  141.7958   71.9504  224.5212 H   0  0  0  0  0  0  0  0  0  0  0  0
  139.5131   76.5005  222.8902 H   0  0  0  0  0  0  0  0  0  0  0  0
  141.1320   75.9414  223.4020 H   0  0  0  0  0  0  0  0  0  0  0  0
  1  2  2  0
  2  3  1  0
  3  4  2  0
  4  5  1  0
  5  6  2  0
  5  7  1  0
  7  8  1  0
  8  9  1  0
  9 10  1  0
 10 11  2  0
 11 12  1  0
 12 13  1  0
 13 14  1  0
 14 15  1  0
 15 16  1  0
 16 17  1  0
 17 18  1  0
 18 19  1  0
 12 20  2  0
 20 21  1  0
 21 22  1  0
 22 23  1  0
 23 24  1  0
 24 25  1  0
 25 26  2  0
 26 27  1  0
 27 28  2  0
 28 29  1  0
 29 30  2  0
 30 31  1  0
 21 32  2  0
  9 33  1  0
  6  1  1  0
 32 10  1  0
 33  4  1  0
 19 14  1  0
 31 22  1  0
 30 25  1  0
  1 34  1  0
  2 35  1  0
  3 36  1  0
  6 37  1  0
  7 38  1  0
  7 39  1  0
  8 40  1  0
  8 41  1  0
 13 42  1  0
 13 43  1  0
 14 44  1  6
 15 45  1  0
 15 46  1  0
 16 47  1  0
 16 48  1  0
 17 49  1  0
 17 50  1  0
 18 51  1  0
 19 52  1  0
 19 53  1  0
 23 54  1  0
 23 55  1  0
 24 56  1  0
 24 57  1  0
 26 58  1  0
 27 59  1  0
 28 60  1  0
 29 61  1  0
 31 62  1  0
 31 63  1  0
 33 64  1  0
 33 65  1  0
M  END
>  <smiles>  (47) 
c1ccc2c(c1)CCN(c1nc(CC3CCCNC3)nc(N3CCc4ccccc4C3)n1)C2

>  <score_type>  (47) 
oracle

>  <origin>  (47) 
autodockgpu

>  <m_score__min__energy>  (47) 
-10.23

>  <m_primary>  (47) 
energy

>  <rmsd>  (47) 
4.927095172372119

>  <m_score__min__rmsd>  (47) 
4.927095172372119

>  <meeko>  (47) 
{"free_energy": -9.44, "intermolecular_energy": -10.63, "internal_energy": -1.97, "cluster_size": 50, "cluster_id": 1, "rank_in_cluster": 12}

>  <energy>  (47) 
-9.07

>  <cluster_rmsd>  (47) 
1.45

>  <cluster>  (47) 
1

$$$$

     RDKit          3D

 65 70  0  0  0  0  0  0  0  0999 V2000
  140.8440   81.2770  222.5200 C   0  0  0  0  0  0  0  0  0  0  0  0
  142.0720   80.6730  222.6980 C   0  0  0  0  0  0  0  0  0  0  0  0
  142.2210   79.3090  222.8530 C   0  0  0  0  0  0  0  0  0  0  0  0
  141.0750   78.5410  222.8260 C   0  0  0  0  0  0  0  0  0  0  0  0
  139.8460   79.1460  222.6490 C   0  0  0  0  0  0  0  0  0  0  0  0
  139.6910   80.5080  222.4920 C   0  0  0  0  0  0  0  0  0  0  0  0
  138.6630   78.2110  222.6360 C   0  0  0  0  0  0  0  0  0  0  0  0
  139.0030   77.2230  221.5100 C   0  0  0  0  0  0  0  0  0  0  0  0
  140.1590   76.4930  222.0010 N   0  0  0  0  0  0  0  0  0  0  0  0
  140.4330   75.1770  221.5340 C   0  0  0  0  0  0  0  0  0  0  0  0
  140.9000   74.9170  220.2990 N   0  0  0  0  0  0  0  0  0  0  0  0
  141.1440   73.6420  219.9040 C   0  0  0  0  0  0  0  0  0  0  0  0
  141.6660   73.4200  218.5100 C   0  0  0  0  0  0  0  0  0  0  0  0
  143.1910   73.4800  218.6580 C   0  0  2  0  0  0  0  0  0  0  0  0
  143.5990   72.4620  219.6720 C   0  0  0  0  0  0  0  0  0  0  0  0
  144.9110   72.7630  220.3620 C   0  0  0  0  0  0  0  0  0  0  0  0
  144.9750   74.1950  220.8440 C   0  0  0  0  0  0  0  0  0  0  0  0
  143.8120   74.9550  220.4290 N   0  0  0  0  0  0  0  0  0  0  0  0
  143.5890   74.8720  219.0190 C   0  0  0  0  0  0  0  0  0  0  0  0
  140.9310   72.5980  220.7250 N   0  0  0  0  0  0  0  0  0  0  0  0
  140.4650   72.8430  221.9630 C   0  0  0  0  0  0  0  0  0  0  0  0
  140.2260   71.7790  222.8580 N   0  0  0  0  0  0  0  0  0  0  0  0
  139.5830   70.5710  222.3710 C   0  0  0  0  0  0  0  0  0  0  0  0
  138.5410   70.1920  223.4320 C   0  0  0  0  0  0  0  0  0  0  0  0
  139.3770   69.7500  224.6060 C   0  0  0  0  0  0  0  0  0  0  0  0
  139.1370   68.5590  225.2590 C   0  0  0  0  0  0  0  0  0  0  0  0
  139.9420   68.2170  226.3250 C   0  0  0  0  0  0  0  0  0  0  0  0
  140.9710   69.0800  226.7140 C   0  0  0  0  0  0  0  0  0  0  0  0
  141.1880   70.2670  226.0430 C   0  0  0  0  0  0  0  0  0  0  0  0
  140.3880   70.6210  224.9710 C   0  0  0  0  0  0  0  0  0  0  0  0
  140.6220   71.8990  224.2480 C   0  0  0  0  0  0  0  0  0  0  0  0
  140.2270   74.1210  222.3390 N   0  0  0  0  0  0  0  0  0  0  0  0
  141.0830   77.0620  222.9810 C   0  0  0  0  0  0  0  0  0  0  0  0
  140.7801   82.3686  222.4004 H   0  0  0  0  0  0  0  0  0  0  0  0
  142.9715   81.3058  222.7172 H   0  0  0  0  0  0  0  0  0  0  0  0
  143.2125   78.8534  222.9923 H   0  0  0  0  0  0  0  0  0  0  0  0
  138.6991   80.9623  222.3512 H   0  0  0  0  0  0  0  0  0  0  0  0
  138.5622   77.6902  223.5996 H   0  0  0  0  0  0  0  0  0  0  0  0
  137.7065   78.7306  222.4774 H   0  0  0  0  0  0  0  0  0  0  0  0
  138.1613   76.5392  221.3258 H   0  0  0  0  0  0  0  0  0  0  0  0
  139.2046   77.7311  220.5554 H   0  0  0  0  0  0  0  0  0  0  0  0
  141.3506   72.4377  218.1284 H   0  0  0  0  0  0  0  0  0  0  0  0
  141.2850   74.1656  217.7966 H   0  0  0  0  0  0  0  0  0  0  0  0
  143.7093   73.2381  217.7184 H   0  0  0  0  0  0  0  0  0  0  0  0
  142.8119   72.4041  220.4383 H   0  0  0  0  0  0  0  0  0  0  0  0
  143.7378   71.5150  219.1299 H   0  0  0  0  0  0  0  0  0  0  0  0
  145.0216   72.0910  221.2258 H   0  0  0  0  0  0  0  0  0  0  0  0
  145.7229   72.6094  219.6359 H   0  0  0  0  0  0  0  0  0  0  0  0
  145.0295   74.1989  221.9426 H   0  0  0  0  0  0  0  0  0  0  0  0
  145.8662   74.6650  220.4025 H   0  0  0  0  0  0  0  0  0  0  0  0
  142.9610   74.7260  220.9680 H   0  0  0  0  0  0  0  0  0  0  0  0
  142.7867   75.5682  218.7333 H   0  0  0  0  0  0  0  0  0  0  0  0
  144.5136   75.1383  218.4859 H   0  0  0  0  0  0  0  0  0  0  0  0
  139.0932   70.7612  221.4046 H   0  0  0  0  0  0  0  0  0  0  0  0
  140.3110   69.7617  222.2128 H   0  0  0  0  0  0  0  0  0  0  0  0
  137.9175   71.0585  223.6976 H   0  0  0  0  0  0  0  0  0  0  0  0
  137.8425   69.4152  223.0875 H   0  0  0  0  0  0  0  0  0  0  0  0
  138.3207   67.8961  224.9362 H   0  0  0  0  0  0  0  0  0  0  0  0
  139.7760   67.2731  226.8649 H   0  0  0  0  0  0  0  0  0  0  0  0
  141.6148   68.8103  227.5641 H   0  0  0  0  0  0  0  0  0  0  0  0
  142.0015   70.9350  226.3624 H   0  0  0  0  0  0  0  0  0  0  0  0
  140.0330   72.6968  224.7241 H   0  0  0  0  0  0  0  0  0  0  0  0
  141.6944   72.1400  224.2917 H   0  0  0  0  0  0  0  0  0  0  0  0
  140.7596   76.7927  223.9973 H   0  0  0  0  0  0  0  0  0  0  0  0
  142.0975   76.6692  222.8182 H   0  0  0  0  0  0  0  0  0  0  0  0
  1  2  2  0
  2  3  1  0
  3  4  2  0
  4  5  1  0
  5  6  2  0
  5  7  1  0
  7  8  1  0
  8  9  1  0
  9 10  1  0
 10 11  2  0
 11 12  1  0
 12 13  1  0
 13 14  1  0
 14 15  1  0
 15 16  1  0
 16 17  1  0
 17 18  1  0
 18 19  1  0
 12 20  2  0
 20 21  1  0
 21 22  1  0
 22 23  1  0
 23 24  1  0
 24 25  1  0
 25 26  2  0
 26 27  1  0
 27 28  2  0
 28 29  1  0
 29 30  2  0
 30 31  1  0
 21 32  2  0
  9 33  1  0
  6  1  1  0
 32 10  1  0
 33  4  1  0
 19 14  1  0
 31 22  1  0
 30 25  1  0
  1 34  1  0
  2 35  1  0
  3 36  1  0
  6 37  1  0
  7 38  1  0
  7 39  1  0
  8 40  1  0
  8 41  1  0
 13 42  1  0
 13 43  1  0
 14 44  1  6
 15 45  1  0
 15 46  1  0
 16 47  1  0
 16 48  1  0
 17 49  1  0
 17 50  1  0
 18 51  1  0
 19 52  1  0
 19 53  1  0
 23 54  1  0
 23 55  1  0
 24 56  1  0
 24 57  1  0
 26 58  1  0
 27 59  1  0
 28 60  1  0
 29 61  1  0
 31 62  1  0
 31 63  1  0
 33 64  1  0
 33 65  1  0
M  END
>  <smiles>  (48) 
c1ccc2c(c1)CCN(c1nc(CC3CCCNC3)nc(N3CCc4ccccc4C3)n1)C2

>  <score_type>  (48) 
oracle

>  <origin>  (48) 
autodockgpu

>  <m_score__min__energy>  (48) 
-10.23

>  <m_primary>  (48) 
energy

>  <rmsd>  (48) 
4.9859786995752335

>  <m_score__min__rmsd>  (48) 
4.9859786995752335

>  <meeko>  (48) 
{"free_energy": -9.29, "intermolecular_energy": -10.48, "internal_energy": -2.01, "cluster_size": 50, "cluster_id": 1, "rank_in_cluster": 33}

>  <energy>  (48) 
-8.86

>  <cluster_rmsd>  (48) 
1.47

>  <cluster>  (48) 
1

$$$$

     RDKit          3D

 65 70  0  0  0  0  0  0  0  0999 V2000
  141.8250   80.6010  222.6840 C   0  0  0  0  0  0  0  0  0  0  0  0
  142.1450   79.7890  223.7520 C   0  0  0  0  0  0  0  0  0  0  0  0
  141.7810   78.4590  223.8180 C   0  0  0  0  0  0  0  0  0  0  0  0
  141.0650   77.9460  222.7550 C   0  0  0  0  0  0  0  0  0  0  0  0
  140.7440   78.7600  221.6860 C   0  0  0  0  0  0  0  0  0  0  0  0
  141.1060   80.0890  221.6150 C   0  0  0  0  0  0  0  0  0  0  0  0
  139.9610   78.0950  220.5820 C   0  0  0  0  0  0  0  0  0  0  0  0
  140.8510   76.9110  220.1770 C   0  0  0  0  0  0  0  0  0  0  0  0
  140.8450   76.0360  221.3360 N   0  0  0  0  0  0  0  0  0  0  0  0
  141.0750   74.6390  221.1870 C   0  0  0  0  0  0  0  0  0  0  0  0
  141.7160   74.1090  220.1290 N   0  0  0  0  0  0  0  0  0  0  0  0
  141.9080   72.7690  220.0350 C   0  0  0  0  0  0  0  0  0  0  0  0
  142.6330   72.2400  218.8260 C   0  0  0  0  0  0  0  0  0  0  0  0
  144.1050   72.5920  219.0770 C   0  0  2  0  0  0  0  0  0  0  0  0
  144.4380   72.2120  220.4820 C   0  0  0  0  0  0  0  0  0  0  0  0
  145.5930   72.9860  221.0780 C   0  0  0  0  0  0  0  0  0  0  0  0
  145.4510   74.4730  220.8430 C   0  0  0  0  0  0  0  0  0  0  0  0
  144.3050   74.7790  220.0110 N   0  0  0  0  0  0  0  0  0  0  0  0
  144.3140   74.0400  218.7870 C   0  0  0  0  0  0  0  0  0  0  0  0
  141.4710   71.9260  220.9880 N   0  0  0  0  0  0  0  0  0  0  0  0
  140.8290   72.4430  222.0510 C   0  0  0  0  0  0  0  0  0  0  0  0
  140.3520   71.5970  223.0740 N   0  0  0  0  0  0  0  0  0  0  0  0
  139.5290   70.4530  222.7260 C   0  0  0  0  0  0  0  0  0  0  0  0
  138.3780   70.4370  223.7410 C   0  0  0  0  0  0  0  0  0  0  0  0
  139.0540   70.0590  225.0350 C   0  0  0  0  0  0  0  0  0  0  0  0
  138.5660   69.0500  225.8390 C   0  0  0  0  0  0  0  0  0  0  0  0
  139.2360   68.7560  227.0080 C   0  0  0  0  0  0  0  0  0  0  0  0
  140.3810   69.4830  227.3460 C   0  0  0  0  0  0  0  0  0  0  0  0
  140.8460   70.4900  226.5210 C   0  0  0  0  0  0  0  0  0  0  0  0
  140.1850   70.7930  225.3460 C   0  0  0  0  0  0  0  0  0  0  0  0
  140.6860   71.8750  224.4580 C   0  0  0  0  0  0  0  0  0  0  0  0
  140.6460   73.7810  222.1270 N   0  0  0  0  0  0  0  0  0  0  0  0
  140.6060   76.5330  222.6900 C   0  0  0  0  0  0  0  0  0  0  0  0
  142.1403   81.6548  222.6805 H   0  0  0  0  0  0  0  0  0  0  0  0
  142.7154   80.2201  224.5879 H   0  0  0  0  0  0  0  0  0  0  0  0
  142.0504   77.8338  224.6820 H   0  0  0  0  0  0  0  0  0  0  0  0
  140.8368   80.7136  220.7505 H   0  0  0  0  0  0  0  0  0  0  0  0
  138.9840   77.7459  220.9477 H   0  0  0  0  0  0  0  0  0  0  0  0
  139.7405   78.7726  219.7440 H   0  0  0  0  0  0  0  0  0  0  0  0
  140.4355   76.3953  219.2987 H   0  0  0  0  0  0  0  0  0  0  0  0
  141.8668   77.2283  219.8987 H   0  0  0  0  0  0  0  0  0  0  0  0
  142.5027   71.1511  218.7400 H   0  0  0  0  0  0  0  0  0  0  0  0
  142.2534   72.6719  217.8882 H   0  0  0  0  0  0  0  0  0  0  0  0
  144.7843   72.0374  218.4129 H   0  0  0  0  0  0  0  0  0  0  0  0
  143.5487   72.3850  221.1059 H   0  0  0  0  0  0  0  0  0  0  0  0
  144.7445   71.1558  220.4589 H   0  0  0  0  0  0  0  0  0  0  0  0
  145.6267   72.7980  222.1613 H   0  0  0  0  0  0  0  0  0  0  0  0
  146.5195   72.6489  220.5901 H   0  0  0  0  0  0  0  0  0  0  0  0
  145.3313   74.9770  221.8134 H   0  0  0  0  0  0  0  0  0  0  0  0
  146.3545   74.8250  220.3236 H   0  0  0  0  0  0  0  0  0  0  0  0
  143.4040   74.6900  220.5090 H   0  0  0  0  0  0  0  0  0  0  0  0
  143.5068   74.4031  218.1339 H   0  0  0  0  0  0  0  0  0  0  0  0
  145.2828   74.1764  218.2843 H   0  0  0  0  0  0  0  0  0  0  0  0
  139.1363   70.5611  221.7042 H   0  0  0  0  0  0  0  0  0  0  0  0
  140.1061   69.5170  222.7557 H   0  0  0  0  0  0  0  0  0  0  0  0
  137.9081   71.4286  223.8181 H   0  0  0  0  0  0  0  0  0  0  0  0
  137.5704   69.7444  223.4616 H   0  0  0  0  0  0  0  0  0  0  0  0
  137.6620   68.4919  225.5539 H   0  0  0  0  0  0  0  0  0  0  0  0
  138.8722   67.9557  227.6692 H   0  0  0  0  0  0  0  0  0  0  0  0
  140.9175   69.2515  228.2780 H   0  0  0  0  0  0  0  0  0  0  0  0
  141.7479   71.0537  226.8017 H   0  0  0  0  0  0  0  0  0  0  0  0
  140.2263   72.8289  224.7560 H   0  0  0  0  0  0  0  0  0  0  0  0
  141.7803   71.9331  224.5534 H   0  0  0  0  0  0  0  0  0  0  0  0
  139.5321   76.4794  222.9220 H   0  0  0  0  0  0  0  0  0  0  0  0
  141.1550   75.9215  223.4212 H   0  0  0  0  0  0  0  0  0  0  0  0
  1  2  2  0
  2  3  1  0
  3  4  2  0
  4  5  1  0
  5  6  2  0
  5  7  1  0
  7  8  1  0
  8  9  1  0
  9 10  1  0
 10 11  2  0
 11 12  1  0
 12 13  1  0
 13 14  1  0
 14 15  1  0
 15 16  1  0
 16 17  1  0
 17 18  1  0
 18 19  1  0
 12 20  2  0
 20 21  1  0
 21 22  1  0
 22 23  1  0
 23 24  1  0
 24 25  1  0
 25 26  2  0
 26 27  1  0
 27 28  2  0
 28 29  1  0
 29 30  2  0
 30 31  1  0
 21 32  2  0
  9 33  1  0
  6  1  1  0
 32 10  1  0
 33  4  1  0
 19 14  1  0
 31 22  1  0
 30 25  1  0
  1 34  1  0
  2 35  1  0
  3 36  1  0
  6 37  1  0
  7 38  1  0
  7 39  1  0
  8 40  1  0
  8 41  1  0
 13 42  1  0
 13 43  1  0
 14 44  1  6
 15 45  1  0
 15 46  1  0
 16 47  1  0
 16 48  1  0
 17 49  1  0
 17 50  1  0
 18 51  1  0
 19 52  1  0
 19 53  1  0
 23 54  1  0
 23 55  1  0
 24 56  1  0
 24 57  1  0
 26 58  1  0
 27 59  1  0
 28 60  1  0
 29 61  1  0
 31 62  1  0
 31 63  1  0
 33 64  1  0
 33 65  1  0
M  END
>  <smiles>  (49) 
c1ccc2c(c1)CCN(c1nc(CC3CCCNC3)nc(N3CCc4ccccc4C3)n1)C2

>  <score_type>  (49) 
oracle

>  <origin>  (49) 
autodockgpu

>  <m_score__min__energy>  (49) 
-10.23

>  <m_primary>  (49) 
energy

>  <rmsd>  (49) 
4.92877690689173

>  <m_score__min__rmsd>  (49) 
4.92877690689173

>  <meeko>  (49) 
{"free_energy": -9.45, "intermolecular_energy": -10.64, "internal_energy": -1.97, "cluster_size": 50, "cluster_id": 1, "rank_in_cluster": 10}

>  <energy>  (49) 
-8.8

>  <cluster_rmsd>  (49) 
1.56

>  <cluster>  (49) 
1

$$$$

     RDKit          3D

 65 70  0  0  0  0  0  0  0  0999 V2000
  141.9070   80.5810  222.7390 C   0  0  0  0  0  0  0  0  0  0  0  0
  142.2230   79.7430  223.7880 C   0  0  0  0  0  0  0  0  0  0  0  0
  141.8380   78.4180  223.8330 C   0  0  0  0  0  0  0  0  0  0  0  0
  141.1050   77.9380  222.7670 C   0  0  0  0  0  0  0  0  0  0  0  0
  140.7880   78.7770  221.7160 C   0  0  0  0  0  0  0  0  0  0  0  0
  141.1710   80.1010  221.6670 C   0  0  0  0  0  0  0  0  0  0  0  0
  139.9840   78.1460  220.6070 C   0  0  0  0  0  0  0  0  0  0  0  0
  140.8520   76.9560  220.1720 C   0  0  0  0  0  0  0  0  0  0  0  0
  140.8420   76.0590  221.3140 N   0  0  0  0  0  0  0  0  0  0  0  0
  141.0480   74.6620  221.1350 C   0  0  0  0  0  0  0  0  0  0  0  0
  141.6580   74.1410  220.0550 N   0  0  0  0  0  0  0  0  0  0  0  0
  141.8280   72.8000  219.9340 C   0  0  0  0  0  0  0  0  0  0  0  0
  142.5200   72.2820  218.7010 C   0  0  0  0  0  0  0  0  0  0  0  0
  144.0140   72.4600  218.9970 C   0  0  2  0  0  0  0  0  0  0  0  0
  144.2620   72.0280  220.4040 C   0  0  0  0  0  0  0  0  0  0  0  0
  145.4810   72.6580  221.0420 C   0  0  0  0  0  0  0  0  0  0  0  0
  145.5170   74.1550  220.8240 C   0  0  0  0  0  0  0  0  0  0  0  0
  144.4360   74.5990  219.9670 N   0  0  0  0  0  0  0  0  0  0  0  0
  144.3950   73.8780  218.7330 C   0  0  0  0  0  0  0  0  0  0  0  0
  141.3980   71.9470  220.8820 N   0  0  0  0  0  0  0  0  0  0  0  0
  140.7860   72.4550  221.9670 C   0  0  0  0  0  0  0  0  0  0  0  0
  140.3190   71.5980  222.9860 N   0  0  0  0  0  0  0  0  0  0  0  0
  139.5160   70.4410  222.6300 C   0  0  0  0  0  0  0  0  0  0  0  0
  138.3610   70.4040  223.6390 C   0  0  0  0  0  0  0  0  0  0  0  0
  139.0360   70.0330  224.9350 C   0  0  0  0  0  0  0  0  0  0  0  0
  138.5610   69.0140  225.7340 C   0  0  0  0  0  0  0  0  0  0  0  0
  139.2290   68.7290  226.9070 C   0  0  0  0  0  0  0  0  0  0  0  0
  140.3600   69.4740  227.2520 C   0  0  0  0  0  0  0  0  0  0  0  0
  140.8130   70.4900  226.4330 C   0  0  0  0  0  0  0  0  0  0  0  0
  140.1530   70.7850  225.2540 C   0  0  0  0  0  0  0  0  0  0  0  0
  140.6400   71.8780  224.3720 C   0  0  0  0  0  0  0  0  0  0  0  0
  140.6250   73.7940  222.0700 N   0  0  0  0  0  0  0  0  0  0  0  0
  140.6220   76.5340  222.6780 C   0  0  0  0  0  0  0  0  0  0  0  0
  142.2389   81.6296  222.7531 H   0  0  0  0  0  0  0  0  0  0  0  0
  142.8081   80.1487  224.6265 H   0  0  0  0  0  0  0  0  0  0  0  0
  142.1043   77.7722  224.6827 H   0  0  0  0  0  0  0  0  0  0  0  0
  140.9048   80.7461  220.8167 H   0  0  0  0  0  0  0  0  0  0  0  0
  139.0049   77.8055  220.9751 H   0  0  0  0  0  0  0  0  0  0  0  0
  139.7662   78.8427  219.7840 H   0  0  0  0  0  0  0  0  0  0  0  0
  140.4212   76.4637  219.2877 H   0  0  0  0  0  0  0  0  0  0  0  0
  141.8704   77.2628  219.8913 H   0  0  0  0  0  0  0  0  0  0  0  0
  142.2797   71.2212  218.5368 H   0  0  0  0  0  0  0  0  0  0  0  0
  142.2073   72.8143  217.7906 H   0  0  0  0  0  0  0  0  0  0  0  0
  144.6443   71.8385  218.3440 H   0  0  0  0  0  0  0  0  0  0  0  0
  143.3811   72.2942  221.0067 H   0  0  0  0  0  0  0  0  0  0  0  0
  144.4466   70.9440  220.3733 H   0  0  0  0  0  0  0  0  0  0  0  0
  145.4621   72.4557  222.1231 H   0  0  0  0  0  0  0  0  0  0  0  0
  146.3763   72.2221  220.5746 H   0  0  0  0  0  0  0  0  0  0  0  0
  145.4296   74.6591  221.7978 H   0  0  0  0  0  0  0  0  0  0  0  0
  146.4687   74.4068  220.3332 H   0  0  0  0  0  0  0  0  0  0  0  0
  143.5170   74.6080  220.4390 H   0  0  0  0  0  0  0  0  0  0  0  0
  143.6531   74.3384  218.0640 H   0  0  0  0  0  0  0  0  0  0  0  0
  145.3866   73.9085  218.2578 H   0  0  0  0  0  0  0  0  0  0  0  0
  139.1267   70.5457  221.6065 H   0  0  0  0  0  0  0  0  0  0  0  0
  140.1078   69.5142  222.6595 H   0  0  0  0  0  0  0  0  0  0  0  0
  137.8752   71.3879  223.7165 H   0  0  0  0  0  0  0  0  0  0  0  0
  137.5658   69.6995  223.3536 H   0  0  0  0  0  0  0  0  0  0  0  0
  137.6686   68.4408  225.4422 H   0  0  0  0  0  0  0  0  0  0  0  0
  138.8744   67.9221  227.5652 H   0  0  0  0  0  0  0  0  0  0  0  0
  140.8954   69.2488  228.1861 H   0  0  0  0  0  0  0  0  0  0  0  0
  141.7039   71.0678  226.7203 H   0  0  0  0  0  0  0  0  0  0  0  0
  140.1619   72.8228  224.6699 H   0  0  0  0  0  0  0  0  0  0  0  0
  141.7325   71.9551  224.4739 H   0  0  0  0  0  0  0  0  0  0  0  0
  139.5491   76.4938  222.9174 H   0  0  0  0  0  0  0  0  0  0  0  0
  141.1667   75.8997  223.3928 H   0  0  0  0  0  0  0  0  0  0  0  0
  1  2  2  0
  2  3  1  0
  3  4  2  0
  4  5  1  0
  5  6  2  0
  5  7  1  0
  7  8  1  0
  8  9  1  0
  9 10  1  0
 10 11  2  0
 11 12  1  0
 12 13  1  0
 13 14  1  0
 14 15  1  0
 15 16  1  0
 16 17  1  0
 17 18  1  0
 18 19  1  0
 12 20  2  0
 20 21  1  0
 21 22  1  0
 22 23  1  0
 23 24  1  0
 24 25  1  0
 25 26  2  0
 26 27  1  0
 27 28  2  0
 28 29  1  0
 29 30  2  0
 30 31  1  0
 21 32  2  0
  9 33  1  0
  6  1  1  0
 32 10  1  0
 33  4  1  0
 19 14  1  0
 31 22  1  0
 30 25  1  0
  1 34  1  0
  2 35  1  0
  3 36  1  0
  6 37  1  0
  7 38  1  0
  7 39  1  0
  8 40  1  0
  8 41  1  0
 13 42  1  0
 13 43  1  0
 14 44  1  6
 15 45  1  0
 15 46  1  0
 16 47  1  0
 16 48  1  0
 17 49  1  0
 17 50  1  0
 18 51  1  0
 19 52  1  0
 19 53  1  0
 23 54  1  0
 23 55  1  0
 24 56  1  0
 24 57  1  0
 26 58  1  0
 27 59  1  0
 28 60  1  0
 29 61  1  0
 31 62  1  0
 31 63  1  0
 33 64  1  0
 33 65  1  0
M  END
>  <smiles>  (50) 
c1ccc2c(c1)CCN(c1nc(CC3CCCNC3)nc(N3CCc4ccccc4C3)n1)C2

>  <score_type>  (50) 
oracle

>  <origin>  (50) 
autodockgpu

>  <m_score__min__energy>  (50) 
-10.23

>  <m_primary>  (50) 
energy

>  <rmsd>  (50) 
4.9681957539209085

>  <m_score__min__rmsd>  (50) 
4.9681957539209085

>  <meeko>  (50) 
{"free_energy": -9.38, "intermolecular_energy": -10.58, "internal_energy": -2.01, "cluster_size": 50, "cluster_id": 1, "rank_in_cluster": 25}

>  <energy>  (50) 
-8.76

>  <cluster_rmsd>  (50) 
1.6

>  <cluster>  (50) 
1

$$$$

     RDKit          3D

 65 70  0  0  0  0  0  0  0  0999 V2000
  139.2260   68.0590  225.4680 C   0  0  0  0  0  0  0  0  0  0  0  0
  139.7750   69.0200  226.3140 C   0  0  0  0  0  0  0  0  0  0  0  0
  140.1440   70.2450  225.8040 C   0  0  0  0  0  0  0  0  0  0  0  0
  139.9830   70.5540  224.4560 C   0  0  0  0  0  0  0  0  0  0  0  0
  139.4380   69.5890  223.6360 C   0  0  0  0  0  0  0  0  0  0  0  0
  139.0600   68.3530  224.1250 C   0  0  0  0  0  0  0  0  0  0  0  0
  139.2480   69.8740  222.1900 C   0  0  0  0  0  0  0  0  0  0  0  0
  138.8810   71.3390  222.0710 C   0  0  0  0  0  0  0  0  0  0  0  0
  139.8870   72.1850  222.6780 N   0  0  0  0  0  0  0  0  0  0  0  0
  140.3560   73.3150  221.9520 C   0  0  0  0  0  0  0  0  0  0  0  0
  141.0880   73.1300  220.8440 N   0  0  0  0  0  0  0  0  0  0  0  0
  141.5610   74.1780  220.1120 C   0  0  0  0  0  0  0  0  0  0  0  0
  142.3560   73.8790  218.9090 C   0  0  0  0  0  0  0  0  0  0  0  0
  143.8310   74.0160  219.0940 C   0  0  1  0  0  0  0  0  0  0  0  0
  144.1930   74.0830  220.5370 C   0  0  0  0  0  0  0  0  0  0  0  0
  145.5880   73.6160  220.8630 C   0  0  0  0  0  0  0  0  0  0  0  0
  145.8440   72.3260  220.1480 C   0  0  0  0  0  0  0  0  0  0  0  0
  145.8360   72.6430  218.7190 N   0  0  0  0  0  0  0  0  0  0  0  0
  144.4520   72.8230  218.3700 C   0  0  0  0  0  0  0  0  0  0  0  0
  141.2690   75.4190  220.5400 N   0  0  0  0  0  0  0  0  0  0  0  0
  140.5370   75.6500  221.6490 C   0  0  0  0  0  0  0  0  0  0  0  0
  140.2230   76.9590  222.1080 N   0  0  0  0  0  0  0  0  0  0  0  0
  139.0350   77.6380  221.6230 C   0  0  0  0  0  0  0  0  0  0  0  0
  138.7390   78.8000  222.5450 C   0  0  0  0  0  0  0  0  0  0  0  0
  139.9310   79.6810  222.5700 C   0  0  0  0  0  0  0  0  0  0  0  0
  139.8730   81.0410  222.3420 C   0  0  0  0  0  0  0  0  0  0  0  0
  141.0290   81.7900  222.3830 C   0  0  0  0  0  0  0  0  0  0  0  0
  142.2350   81.1880  222.6490 C   0  0  0  0  0  0  0  0  0  0  0  0
  142.2930   79.8220  222.8770 C   0  0  0  0  0  0  0  0  0  0  0  0
  141.1470   79.0850  222.8360 C   0  0  0  0  0  0  0  0  0  0  0  0
  141.1100   77.6030  223.0700 C   0  0  0  0  0  0  0  0  0  0  0  0
  140.0960   74.5750  222.3300 N   0  0  0  0  0  0  0  0  0  0  0  0
  140.4060   71.8910  223.9960 C   0  0  0  0  0  0  0  0  0  0  0  0
  138.9274   67.0767  225.8628 H   0  0  0  0  0  0  0  0  0  0  0  0
  139.9130   68.8017  227.3832 H   0  0  0  0  0  0  0  0  0  0  0  0
  140.5768   70.9983  226.4787 H   0  0  0  0  0  0  0  0  0  0  0  0
  138.6271   67.6025  223.4472 H   0  0  0  0  0  0  0  0  0  0  0  0
  140.1788   69.6720  221.6398 H   0  0  0  0  0  0  0  0  0  0  0  0
  138.4590   69.2362  221.7649 H   0  0  0  0  0  0  0  0  0  0  0  0
  138.7886   71.5998  221.0064 H   0  0  0  0  0  0  0  0  0  0  0  0
  137.9282   71.5017  222.5960 H   0  0  0  0  0  0  0  0  0  0  0  0
  142.1423   72.8439  218.6041 H   0  0  0  0  0  0  0  0  0  0  0  0
  142.0652   74.6191  218.1489 H   0  0  0  0  0  0  0  0  0  0  0  0
  144.2154   74.9565  218.6725 H   0  0  0  0  0  0  0  0  0  0  0  0
  144.0971   75.1285  220.8652 H   0  0  0  0  0  0  0  0  0  0  0  0
  143.5084   73.3984  221.0591 H   0  0  0  0  0  0  0  0  0  0  0  0
  146.3170   74.3716  220.5349 H   0  0  0  0  0  0  0  0  0  0  0  0
  145.6887   73.4682  221.9484 H   0  0  0  0  0  0  0  0  0  0  0  0
  146.8208   71.9144  220.4419 H   0  0  0  0  0  0  0  0  0  0  0  0
  145.0822   71.5722  220.3958 H   0  0  0  0  0  0  0  0  0  0  0  0
  146.1610   71.7920  218.2320 H   0  0  0  0  0  0  0  0  0  0  0  0
  144.3777   72.9878  217.2850 H   0  0  0  0  0  0  0  0  0  0  0  0
  143.9043   71.9184  218.6729 H   0  0  0  0  0  0  0  0  0  0  0  0
  139.2098   78.0089  220.6023 H   0  0  0  0  0  0  0  0  0  0  0  0
  138.1828   76.9427  221.6059 H   0  0  0  0  0  0  0  0  0  0  0  0
  137.8688   79.3600  222.1720 H   0  0  0  0  0  0  0  0  0  0  0  0
  138.5122   78.4356  223.5578 H   0  0  0  0  0  0  0  0  0  0  0  0
  138.9084   81.5248  222.1285 H   0  0  0  0  0  0  0  0  0  0  0  0
  140.9860   82.8742  222.2020 H   0  0  0  0  0  0  0  0  0  0  0  0
  143.1549   81.7903  222.6811 H   0  0  0  0  0  0  0  0  0  0  0  0
  143.2568   79.3362  223.0895 H   0  0  0  0  0  0  0  0  0  0  0  0
  142.1246   77.1929  222.9587 H   0  0  0  0  0  0  0  0  0  0  0  0
  140.7345   77.4112  224.0860 H   0  0  0  0  0  0  0  0  0  0  0  0
  141.5049   71.9273  223.9641 H   0  0  0  0  0  0  0  0  0  0  0  0
  140.0107   72.6396  224.6984 H   0  0  0  0  0  0  0  0  0  0  0  0
  1  2  2  0
  2  3  1  0
  3  4  2  0
  4  5  1  0
  5  6  2  0
  5  7  1  0
  7  8  1  0
  8  9  1  0
  9 10  1  0
 10 11  2  0
 11 12  1  0
 12 13  1  0
 13 14  1  0
 14 15  1  0
 15 16  1  0
 16 17  1  0
 17 18  1  0
 18 19  1  0
 12 20  2  0
 20 21  1  0
 21 22  1  0
 22 23  1  0
 23 24  1  0
 24 25  1  0
 25 26  2  0
 26 27  1  0
 27 28  2  0
 28 29  1  0
 29 30  2  0
 30 31  1  0
 21 32  2  0
  9 33  1  0
  6  1  1  0
 32 10  1  0
 33  4  1  0
 19 14  1  0
 31 22  1  0
 30 25  1  0
  1 34  1  0
  2 35  1  0
  3 36  1  0
  6 37  1  0
  7 38  1  0
  7 39  1  0
  8 40  1  0
  8 41  1  0
 13 42  1  0
 13 43  1  0
 14 44  1  6
 15 45  1  0
 15 46  1  0
 16 47  1  0
 16 48  1  0
 17 49  1  0
 17 50  1  0
 18 51  1  0
 19 52  1  0
 19 53  1  0
 23 54  1  0
 23 55  1  0
 24 56  1  0
 24 57  1  0
 26 58  1  0
 27 59  1  0
 28 60  1  0
 29 61  1  0
 31 62  1  0
 31 63  1  0
 33 64  1  0
 33 65  1  0
M  END
>  <smiles>  (51) 
c1ccc2c(c1)CCN(c1nc(CC3CCCNC3)nc(N3CCc4ccccc4C3)n1)C2

>  <score_type>  (51) 
oracle

>  <origin>  (51) 
autodockgpu

>  <m_score__min__energy>  (51) 
-10.710000000000001

>  <m_primary>  (51) 
energy

>  <rmsd>  (51) 
10.240882677663937

>  <m_score__min__rmsd>  (51) 
10.240882677663937

>  <meeko>  (51) 
{"free_energy": -9.79, "intermolecular_energy": -10.99, "internal_energy": -1.13, "cluster_size": 49, "cluster_id": 1, "rank_in_cluster": 41}

>  <energy>  (51) 
-10.71

>  <cluster_rmsd>  (51) 
0.0

>  <cluster>  (51) 
1

$$$$

     RDKit          3D

 65 70  0  0  0  0  0  0  0  0999 V2000
  139.2610   68.5560  226.9410 C   0  0  0  0  0  0  0  0  0  0  0  0
  139.9900   69.5960  227.5130 C   0  0  0  0  0  0  0  0  0  0  0  0
  140.4350   70.6310  226.7200 C   0  0  0  0  0  0  0  0  0  0  0  0
  140.1760   70.6680  225.3520 C   0  0  0  0  0  0  0  0  0  0  0  0
  139.4530   69.6280  224.8070 C   0  0  0  0  0  0  0  0  0  0  0  0
  138.9950   68.5790  225.5830 C   0  0  0  0  0  0  0  0  0  0  0  0
  139.1520   69.6240  223.3510 C   0  0  0  0  0  0  0  0  0  0  0  0
  138.9330   71.0660  222.9400 C   0  0  0  0  0  0  0  0  0  0  0  0
  140.0790   71.8870  223.2710 N   0  0  0  0  0  0  0  0  0  0  0  0
  140.5910   72.7720  222.2810 C   0  0  0  0  0  0  0  0  0  0  0  0
  141.3550   72.2850  221.2930 N   0  0  0  0  0  0  0  0  0  0  0  0
  141.8700   73.0890  220.3200 C   0  0  0  0  0  0  0  0  0  0  0  0
  142.6980   72.4660  219.2740 C   0  0  0  0  0  0  0  0  0  0  0  0
  144.1230   72.9140  219.2650 C   0  0  1  0  0  0  0  0  0  0  0  0
  144.3130   74.1350  220.0980 C   0  0  0  0  0  0  0  0  0  0  0  0
  145.7020   74.3140  220.6520 C   0  0  0  0  0  0  0  0  0  0  0  0
  146.1640   73.0110  221.2250 C   0  0  0  0  0  0  0  0  0  0  0  0
  146.2850   72.0880  220.0960 N   0  0  0  0  0  0  0  0  0  0  0  0
  144.9360   71.7180  219.7530 C   0  0  0  0  0  0  0  0  0  0  0  0
  141.5870   74.4020  220.3820 N   0  0  0  0  0  0  0  0  0  0  0  0
  140.8230   74.9340  221.3580 C   0  0  0  0  0  0  0  0  0  0  0  0
  140.5180   76.3210  221.4320 N   0  0  0  0  0  0  0  0  0  0  0  0
  140.1220   77.0460  220.2380 C   0  0  0  0  0  0  0  0  0  0  0  0
  139.4890   78.3530  220.6610 C   0  0  0  0  0  0  0  0  0  0  0  0
  140.4760   79.0970  221.4800 C   0  0  0  0  0  0  0  0  0  0  0  0
  140.8290   80.4080  221.2350 C   0  0  0  0  0  0  0  0  0  0  0  0
  141.7560   81.0280  222.0450 C   0  0  0  0  0  0  0  0  0  0  0  0
  142.3270   80.3450  223.0920 C   0  0  0  0  0  0  0  0  0  0  0  0
  141.9730   79.0280  223.3370 C   0  0  0  0  0  0  0  0  0  0  0  0
  141.0560   78.4190  222.5330 C   0  0  0  0  0  0  0  0  0  0  0  0
  140.6090   76.9980  222.7200 C   0  0  0  0  0  0  0  0  0  0  0  0
  140.3410   74.0900  222.2910 N   0  0  0  0  0  0  0  0  0  0  0  0
  140.6900   71.8140  224.5790 C   0  0  0  0  0  0  0  0  0  0  0  0
  138.8999   67.7238  227.5631 H   0  0  0  0  0  0  0  0  0  0  0  0
  140.2090   69.5910  228.5910 H   0  0  0  0  0  0  0  0  0  0  0  0
  141.0095   71.4491  227.1790 H   0  0  0  0  0  0  0  0  0  0  0  0
  138.4195   67.7632  225.1211 H   0  0  0  0  0  0  0  0  0  0  0  0
  139.9970   69.1959  222.7917 H   0  0  0  0  0  0  0  0  0  0  0  0
  138.2617   69.0149  223.1358 H   0  0  0  0  0  0  0  0  0  0  0  0
  138.7642   71.1074  221.8538 H   0  0  0  0  0  0  0  0  0  0  0  0
  138.0593   71.4535  223.4845 H   0  0  0  0  0  0  0  0  0  0  0  0
  142.6810   71.3766  219.4255 H   0  0  0  0  0  0  0  0  0  0  0  0
  142.2671   72.7722  218.3094 H   0  0  0  0  0  0  0  0  0  0  0  0
  144.4565   73.2139  218.2606 H   0  0  0  0  0  0  0  0  0  0  0  0
  144.0767   75.0122  219.4777 H   0  0  0  0  0  0  0  0  0  0  0  0
  143.6464   74.0236  220.9659 H   0  0  0  0  0  0  0  0  0  0  0  0
  146.3836   74.6264  219.8472 H   0  0  0  0  0  0  0  0  0  0  0  0
  145.6953   75.0857  221.4358 H   0  0  0  0  0  0  0  0  0  0  0  0
  147.1378   73.1365  221.7209 H   0  0  0  0  0  0  0  0  0  0  0  0
  145.4580   72.6319  221.9785 H   0  0  0  0  0  0  0  0  0  0  0  0
  146.7450   71.2400  220.4640 H   0  0  0  0  0  0  0  0  0  0  0  0
  144.9670   70.9604  218.9561 H   0  0  0  0  0  0  0  0  0  0  0  0
  144.4509   71.3231  220.6579 H   0  0  0  0  0  0  0  0  0  0  0  0
  141.0059   77.2459  219.6145 H   0  0  0  0  0  0  0  0  0  0  0  0
  139.4048   76.4501  219.6545 H   0  0  0  0  0  0  0  0  0  0  0  0
  139.2214   78.9430  219.7720 H   0  0  0  0  0  0  0  0  0  0  0  0
  138.5750   78.1638  221.2431 H   0  0  0  0  0  0  0  0  0  0  0  0
  140.3728   80.9558  220.3973 H   0  0  0  0  0  0  0  0  0  0  0  0
  142.0398   82.0732  221.8527 H   0  0  0  0  0  0  0  0  0  0  0  0
  143.0658   80.8444  223.7361 H   0  0  0  0  0  0  0  0  0  0  0  0
  142.4284   78.4781  224.1738 H   0  0  0  0  0  0  0  0  0  0  0  0
  141.3346   76.4704  223.3565 H   0  0  0  0  0  0  0  0  0  0  0  0
  139.6172   76.9952  223.1958 H   0  0  0  0  0  0  0  0  0  0  0  0
  141.7781   71.7056  224.4597 H   0  0  0  0  0  0  0  0  0  0  0  0
  140.4462   72.7367  225.1260 H   0  0  0  0  0  0  0  0  0  0  0  0
  1  2  2  0
  2  3  1  0
  3  4  2  0
  4  5  1  0
  5  6  2  0
  5  7  1  0
  7  8  1  0
  8  9  1  0
  9 10  1  0
 10 11  2  0
 11 12  1  0
 12 13  1  0
 13 14  1  0
 14 15  1  0
 15 16  1  0
 16 17  1  0
 17 18  1  0
 18 19  1  0
 12 20  2  0
 20 21  1  0
 21 22  1  0
 22 23  1  0
 23 24  1  0
 24 25  1  0
 25 26  2  0
 26 27  1  0
 27 28  2  0
 28 29  1  0
 29 30  2  0
 30 31  1  0
 21 32  2  0
  9 33  1  0
  6  1  1  0
 32 10  1  0
 33  4  1  0
 19 14  1  0
 31 22  1  0
 30 25  1  0
  1 34  1  0
  2 35  1  0
  3 36  1  0
  6 37  1  0
  7 38  1  0
  7 39  1  0
  8 40  1  0
  8 41  1  0
 13 42  1  0
 13 43  1  0
 14 44  1  6
 15 45  1  0
 15 46  1  0
 16 47  1  0
 16 48  1  0
 17 49  1  0
 17 50  1  0
 18 51  1  0
 19 52  1  0
 19 53  1  0
 23 54  1  0
 23 55  1  0
 24 56  1  0
 24 57  1  0
 26 58  1  0
 27 59  1  0
 28 60  1  0
 29 61  1  0
 31 62  1  0
 31 63  1  0
 33 64  1  0
 33 65  1  0
M  END
>  <smiles>  (52) 
c1ccc2c(c1)CCN(c1nc(CC3CCCNC3)nc(N3CCc4ccccc4C3)n1)C2

>  <score_type>  (52) 
oracle

>  <origin>  (52) 
autodockgpu

>  <m_score__min__energy>  (52) 
-10.710000000000001

>  <m_primary>  (52) 
energy

>  <rmsd>  (52) 
10.652826590591133

>  <m_score__min__rmsd>  (52) 
10.652826590591133

>  <meeko>  (52) 
{"free_energy": -10.65, "intermolecular_energy": -11.84, "internal_energy": -1.01, "cluster_size": 49, "cluster_id": 1, "rank_in_cluster": 9}

>  <energy>  (52) 
-10.71

>  <cluster_rmsd>  (52) 
0.05

>  <cluster>  (52) 
1

$$$$

     RDKit          3D

 65 70  0  0  0  0  0  0  0  0999 V2000
  139.2390   68.5980  227.1050 C   0  0  0  0  0  0  0  0  0  0  0  0
  139.9680   69.6500  227.6540 C   0  0  0  0  0  0  0  0  0  0  0  0
  140.4230   70.6620  226.8370 C   0  0  0  0  0  0  0  0  0  0  0  0
  140.1730   70.6640  225.4670 C   0  0  0  0  0  0  0  0  0  0  0  0
  139.4500   69.6130  224.9440 C   0  0  0  0  0  0  0  0  0  0  0  0
  138.9830   68.5870  225.7450 C   0  0  0  0  0  0  0  0  0  0  0  0
  139.1580   69.5720  223.4880 C   0  0  0  0  0  0  0  0  0  0  0  0
  138.9480   71.0030  223.0370 C   0  0  0  0  0  0  0  0  0  0  0  0
  140.0940   71.8280  223.3540 N   0  0  0  0  0  0  0  0  0  0  0  0
  140.6170   72.6850  222.3450 C   0  0  0  0  0  0  0  0  0  0  0  0
  141.3700   72.1660  221.3640 N   0  0  0  0  0  0  0  0  0  0  0  0
  141.8940   72.9420  220.3740 C   0  0  0  0  0  0  0  0  0  0  0  0
  142.7080   72.2850  219.3380 C   0  0  0  0  0  0  0  0  0  0  0  0
  144.1220   72.7580  219.2700 C   0  0  1  0  0  0  0  0  0  0  0  0
  144.3080   74.0210  220.0390 C   0  0  0  0  0  0  0  0  0  0  0  0
  145.7080   74.2530  220.5470 C   0  0  0  0  0  0  0  0  0  0  0  0
  146.2090   72.9880  221.1690 C   0  0  0  0  0  0  0  0  0  0  0  0
  146.3200   72.0140  220.0820 N   0  0  0  0  0  0  0  0  0  0  0  0
  144.9720   71.6020  219.7920 C   0  0  0  0  0  0  0  0  0  0  0  0
  141.6310   74.2600  220.4100 N   0  0  0  0  0  0  0  0  0  0  0  0
  140.8800   74.8240  221.3780 C   0  0  0  0  0  0  0  0  0  0  0  0
  140.5970   76.2170  221.4250 N   0  0  0  0  0  0  0  0  0  0  0  0
  140.3890   76.9610  220.1960 C   0  0  0  0  0  0  0  0  0  0  0  0
  139.7300   78.2780  220.5410 C   0  0  0  0  0  0  0  0  0  0  0  0
  140.6080   78.9920  221.5000 C   0  0  0  0  0  0  0  0  0  0  0  0
  141.0200   80.2970  221.3230 C   0  0  0  0  0  0  0  0  0  0  0  0
  141.8370   80.8880  222.2620 C   0  0  0  0  0  0  0  0  0  0  0  0
  142.2400   80.1830  223.3710 C   0  0  0  0  0  0  0  0  0  0  0  0
  141.8270   78.8720  223.5480 C   0  0  0  0  0  0  0  0  0  0  0  0
  141.0190   78.2920  222.6160 C   0  0  0  0  0  0  0  0  0  0  0  0
  140.5200   76.8800  222.7210 C   0  0  0  0  0  0  0  0  0  0  0  0
  140.3890   74.0060  222.3290 N   0  0  0  0  0  0  0  0  0  0  0  0
  140.6970   71.7870  224.6680 C   0  0  0  0  0  0  0  0  0  0  0  0
  138.8703   67.7837  227.7461 H   0  0  0  0  0  0  0  0  0  0  0  0
  140.1793   69.6729  228.7333 H   0  0  0  0  0  0  0  0  0  0  0  0
  140.9983   71.4893  227.2781 H   0  0  0  0  0  0  0  0  0  0  0  0
  138.4076   67.7614  225.3008 H   0  0  0  0  0  0  0  0  0  0  0  0
  140.0044   69.1255  222.9456 H   0  0  0  0  0  0  0  0  0  0  0  0
  138.2660   68.9616  223.2839 H   0  0  0  0  0  0  0  0  0  0  0  0
  138.7873   71.0158  221.9489 H   0  0  0  0  0  0  0  0  0  0  0  0
  138.0720   71.4082  223.5646 H   0  0  0  0  0  0  0  0  0  0  0  0
  142.7166   71.2041  219.5419 H   0  0  0  0  0  0  0  0  0  0  0  0
  142.2470   72.5365  218.3714 H   0  0  0  0  0  0  0  0  0  0  0  0
  144.4239   73.0153  218.2440 H   0  0  0  0  0  0  0  0  0  0  0  0
  144.0379   74.8628  219.3845 H   0  0  0  0  0  0  0  0  0  0  0  0
  143.6662   73.9386  220.9285 H   0  0  0  0  0  0  0  0  0  0  0  0
  146.3626   74.5385  219.7104 H   0  0  0  0  0  0  0  0  0  0  0  0
  145.7067   75.0619  221.2924 H   0  0  0  0  0  0  0  0  0  0  0  0
  147.1922   73.1548  221.6333 H   0  0  0  0  0  0  0  0  0  0  0  0
  145.5293   72.6327  221.9575 H   0  0  0  0  0  0  0  0  0  0  0  0
  146.8070   71.1930  220.4780 H   0  0  0  0  0  0  0  0  0  0  0  0
  144.9989   70.8085  219.0307 H   0  0  0  0  0  0  0  0  0  0  0  0
  144.5180   71.2405  220.7265 H   0  0  0  0  0  0  0  0  0  0  0  0
  141.3561   77.1466  219.7059 H   0  0  0  0  0  0  0  0  0  0  0  0
  139.7492   76.3865  219.5100 H   0  0  0  0  0  0  0  0  0  0  0  0
  139.6029   78.8818  219.6303 H   0  0  0  0  0  0  0  0  0  0  0  0
  138.7390   78.1047  220.9859 H   0  0  0  0  0  0  0  0  0  0  0  0
  140.6977   80.8628  220.4364 H   0  0  0  0  0  0  0  0  0  0  0  0
  142.1680   81.9279  222.1236 H   0  0  0  0  0  0  0  0  0  0  0  0
  142.8909   80.6598  224.1187 H   0  0  0  0  0  0  0  0  0  0  0  0
  142.1486   78.3041  224.4335 H   0  0  0  0  0  0  0  0  0  0  0  0
  141.1373   76.3303  223.4468 H   0  0  0  0  0  0  0  0  0  0  0  0
  139.4713   76.8955  223.0525 H   0  0  0  0  0  0  0  0  0  0  0  0
  141.7854   71.6709  224.5586 H   0  0  0  0  0  0  0  0  0  0  0  0
  140.4543   72.7248  225.1891 H   0  0  0  0  0  0  0  0  0  0  0  0
  1  2  2  0
  2  3  1  0
  3  4  2  0
  4  5  1  0
  5  6  2  0
  5  7  1  0
  7  8  1  0
  8  9  1  0
  9 10  1  0
 10 11  2  0
 11 12  1  0
 12 13  1  0
 13 14  1  0
 14 15  1  0
 15 16  1  0
 16 17  1  0
 17 18  1  0
 18 19  1  0
 12 20  2  0
 20 21  1  0
 21 22  1  0
 22 23  1  0
 23 24  1  0
 24 25  1  0
 25 26  2  0
 26 27  1  0
 27 28  2  0
 28 29  1  0
 29 30  2  0
 30 31  1  0
 21 32  2  0
  9 33  1  0
  6  1  1  0
 32 10  1  0
 33  4  1  0
 19 14  1  0
 31 22  1  0
 30 25  1  0
  1 34  1  0
  2 35  1  0
  3 36  1  0
  6 37  1  0
  7 38  1  0
  7 39  1  0
  8 40  1  0
  8 41  1  0
 13 42  1  0
 13 43  1  0
 14 44  1  6
 15 45  1  0
 15 46  1  0
 16 47  1  0
 16 48  1  0
 17 49  1  0
 17 50  1  0
 18 51  1  0
 19 52  1  0
 19 53  1  0
 23 54  1  0
 23 55  1  0
 24 56  1  0
 24 57  1  0
 26 58  1  0
 27 59  1  0
 28 60  1  0
 29 61  1  0
 31 62  1  0
 31 63  1  0
 33 64  1  0
 33 65  1  0
M  END
>  <smiles>  (53) 
c1ccc2c(c1)CCN(c1nc(CC3CCCNC3)nc(N3CCc4ccccc4C3)n1)C2

>  <score_type>  (53) 
oracle

>  <origin>  (53) 
autodockgpu

>  <m_score__min__energy>  (53) 
-10.710000000000001

>  <m_primary>  (53) 
energy

>  <rmsd>  (53) 
10.722181072190633

>  <m_score__min__rmsd>  (53) 
10.722181072190633

>  <meeko>  (53) 
{"free_energy": -10.71, "intermolecular_energy": -11.9, "internal_energy": -0.96, "cluster_size": 49, "cluster_id": 1, "rank_in_cluster": 3}

>  <energy>  (53) 
-10.71

>  <cluster_rmsd>  (53) 
0.07

>  <cluster>  (53) 
1

$$$$

     RDKit          3D

 65 70  0  0  0  0  0  0  0  0999 V2000
  139.2630   68.7030  227.1020 C   0  0  0  0  0  0  0  0  0  0  0  0
  139.9720   69.7700  227.6480 C   0  0  0  0  0  0  0  0  0  0  0  0
  140.4200   70.7810  226.8260 C   0  0  0  0  0  0  0  0  0  0  0  0
  140.1830   70.7670  225.4530 C   0  0  0  0  0  0  0  0  0  0  0  0
  139.4800   69.7010  224.9340 C   0  0  0  0  0  0  0  0  0  0  0  0
  139.0200   68.6750  225.7390 C   0  0  0  0  0  0  0  0  0  0  0  0
  139.2030   69.6420  223.4750 C   0  0  0  0  0  0  0  0  0  0  0  0
  138.9770   71.0660  223.0080 C   0  0  0  0  0  0  0  0  0  0  0  0
  140.1090   71.9100  223.3290 N   0  0  0  0  0  0  0  0  0  0  0  0
  140.6290   72.7650  222.3160 C   0  0  0  0  0  0  0  0  0  0  0  0
  141.3690   72.2420  221.3280 N   0  0  0  0  0  0  0  0  0  0  0  0
  141.8910   73.0160  220.3350 C   0  0  0  0  0  0  0  0  0  0  0  0
  142.6910   72.3550  219.2910 C   0  0  0  0  0  0  0  0  0  0  0  0
  144.1160   72.7940  219.2330 C   0  0  1  0  0  0  0  0  0  0  0  0
  144.3250   74.0590  219.9920 C   0  0  0  0  0  0  0  0  0  0  0  0
  145.7240   74.2620  220.5130 C   0  0  0  0  0  0  0  0  0  0  0  0
  146.1900   72.9920  221.1510 C   0  0  0  0  0  0  0  0  0  0  0  0
  146.2880   72.0060  220.0730 N   0  0  0  0  0  0  0  0  0  0  0  0
  144.9330   71.6240  219.7730 C   0  0  0  0  0  0  0  0  0  0  0  0
  141.6380   74.3370  220.3760 N   0  0  0  0  0  0  0  0  0  0  0  0
  140.9000   74.9030  221.3520 C   0  0  0  0  0  0  0  0  0  0  0  0
  140.6280   76.2990  221.4030 N   0  0  0  0  0  0  0  0  0  0  0  0
  140.4840   77.0600  220.1760 C   0  0  0  0  0  0  0  0  0  0  0  0
  139.8220   78.3800  220.5080 C   0  0  0  0  0  0  0  0  0  0  0  0
  140.6610   79.0720  221.5150 C   0  0  0  0  0  0  0  0  0  0  0  0
  141.0930   80.3750  221.3750 C   0  0  0  0  0  0  0  0  0  0  0  0
  141.8700   80.9470  222.3590 C   0  0  0  0  0  0  0  0  0  0  0  0
  142.2150   80.2240  223.4760 C   0  0  0  0  0  0  0  0  0  0  0  0
  141.7810   78.9150  223.6160 C   0  0  0  0  0  0  0  0  0  0  0  0
  141.0130   78.3540  222.6400 C   0  0  0  0  0  0  0  0  0  0  0  0
  140.4960   76.9460  222.7030 C   0  0  0  0  0  0  0  0  0  0  0  0
  140.4110   74.0880  222.3050 N   0  0  0  0  0  0  0  0  0  0  0  0
  140.7000   71.8900  224.6490 C   0  0  0  0  0  0  0  0  0  0  0  0
  138.8993   67.8899  227.7475 H   0  0  0  0  0  0  0  0  0  0  0  0
  140.1732   69.8055  228.7289 H   0  0  0  0  0  0  0  0  0  0  0  0
  140.9790   71.6206  227.2649 H   0  0  0  0  0  0  0  0  0  0  0  0
  138.4613   67.8370  225.2968 H   0  0  0  0  0  0  0  0  0  0  0  0
  140.0610   69.2025  222.9452 H   0  0  0  0  0  0  0  0  0  0  0  0
  138.3218   69.0169  223.2681 H   0  0  0  0  0  0  0  0  0  0  0  0
  138.8272   71.0664  221.9182 H   0  0  0  0  0  0  0  0  0  0  0  0
  138.0899   71.4639  223.5225 H   0  0  0  0  0  0  0  0  0  0  0  0
  142.6726   71.2713  219.4786 H   0  0  0  0  0  0  0  0  0  0  0  0
  142.2386   72.6323  218.3274 H   0  0  0  0  0  0  0  0  0  0  0  0
  144.4333   73.0349  218.2077 H   0  0  0  0  0  0  0  0  0  0  0  0
  144.0826   74.9008  219.3267 H   0  0  0  0  0  0  0  0  0  0  0  0
  143.6721   74.0004  220.8754 H   0  0  0  0  0  0  0  0  0  0  0  0
  146.3937   74.5251  219.6810 H   0  0  0  0  0  0  0  0  0  0  0  0
  145.7329   75.0766  221.2521 H   0  0  0  0  0  0  0  0  0  0  0  0
  147.1726   73.1403  221.6227 H   0  0  0  0  0  0  0  0  0  0  0  0
  145.4956   72.6596  221.9367 H   0  0  0  0  0  0  0  0  0  0  0  0
  146.7510   71.1770  220.4800 H   0  0  0  0  0  0  0  0  0  0  0  0
  144.9483   70.8234  219.0188 H   0  0  0  0  0  0  0  0  0  0  0  0
  144.4616   71.2822  220.7062 H   0  0  0  0  0  0  0  0  0  0  0  0
  141.4744   77.2420  219.7332 H   0  0  0  0  0  0  0  0  0  0  0  0
  139.8711   76.5007  219.4538 H   0  0  0  0  0  0  0  0  0  0  0  0
  139.7429   78.9967  219.6006 H   0  0  0  0  0  0  0  0  0  0  0  0
  138.8099   78.2112  220.9044 H   0  0  0  0  0  0  0  0  0  0  0  0
  140.8183   80.9548  220.4815 H   0  0  0  0  0  0  0  0  0  0  0  0
  142.2153   81.9857  222.2502 H   0  0  0  0  0  0  0  0  0  0  0  0
  142.8356   80.6843  224.2589 H   0  0  0  0  0  0  0  0  0  0  0  0
  142.0546   78.3332  224.5086 H   0  0  0  0  0  0  0  0  0  0  0  0
  141.0730   76.3808  223.4497 H   0  0  0  0  0  0  0  0  0  0  0  0
  139.4330   76.9678  222.9852 H   0  0  0  0  0  0  0  0  0  0  0  0
  141.7909   71.7878  224.5512 H   0  0  0  0  0  0  0  0  0  0  0  0
  140.4401   72.8294  225.1590 H   0  0  0  0  0  0  0  0  0  0  0  0
  1  2  2  0
  2  3  1  0
  3  4  2  0
  4  5  1  0
  5  6  2  0
  5  7  1  0
  7  8  1  0
  8  9  1  0
  9 10  1  0
 10 11  2  0
 11 12  1  0
 12 13  1  0
 13 14  1  0
 14 15  1  0
 15 16  1  0
 16 17  1  0
 17 18  1  0
 18 19  1  0
 12 20  2  0
 20 21  1  0
 21 22  1  0
 22 23  1  0
 23 24  1  0
 24 25  1  0
 25 26  2  0
 26 27  1  0
 27 28  2  0
 28 29  1  0
 29 30  2  0
 30 31  1  0
 21 32  2  0
  9 33  1  0
  6  1  1  0
 32 10  1  0
 33  4  1  0
 19 14  1  0
 31 22  1  0
 30 25  1  0
  1 34  1  0
  2 35  1  0
  3 36  1  0
  6 37  1  0
  7 38  1  0
  7 39  1  0
  8 40  1  0
  8 41  1  0
 13 42  1  0
 13 43  1  0
 14 44  1  6
 15 45  1  0
 15 46  1  0
 16 47  1  0
 16 48  1  0
 17 49  1  0
 17 50  1  0
 18 51  1  0
 19 52  1  0
 19 53  1  0
 23 54  1  0
 23 55  1  0
 24 56  1  0
 24 57  1  0
 26 58  1  0
 27 59  1  0
 28 60  1  0
 29 61  1  0
 31 62  1  0
 31 63  1  0
 33 64  1  0
 33 65  1  0
M  END
>  <smiles>  (54) 
c1ccc2c(c1)CCN(c1nc(CC3CCCNC3)nc(N3CCc4ccccc4C3)n1)C2

>  <score_type>  (54) 
oracle

>  <origin>  (54) 
autodockgpu

>  <m_score__min__energy>  (54) 
-10.710000000000001

>  <m_primary>  (54) 
energy

>  <rmsd>  (54) 
10.636516959954385

>  <m_score__min__rmsd>  (54) 
10.636516959954385

>  <meeko>  (54) 
{"free_energy": -10.71, "intermolecular_energy": -11.9, "internal_energy": -0.99, "cluster_size": 49, "cluster_id": 1, "rank_in_cluster": 2}

>  <energy>  (54) 
-10.71

>  <cluster_rmsd>  (54) 
0.05

>  <cluster>  (54) 
1

$$$$

     RDKit          3D

 65 70  0  0  0  0  0  0  0  0999 V2000
  139.5110   69.1330  227.8870 C   0  0  0  0  0  0  0  0  0  0  0  0
  140.2480   70.2680  228.2170 C   0  0  0  0  0  0  0  0  0  0  0  0
  140.6490   71.1320  227.2220 C   0  0  0  0  0  0  0  0  0  0  0  0
  140.3360   70.9030  225.8840 C   0  0  0  0  0  0  0  0  0  0  0  0
  139.6050   69.7740  225.5800 C   0  0  0  0  0  0  0  0  0  0  0  0
  139.1920   68.8930  226.5620 C   0  0  0  0  0  0  0  0  0  0  0  0
  139.2470   69.4880  224.1660 C   0  0  0  0  0  0  0  0  0  0  0  0
  138.9950   70.8210  223.4940 C   0  0  0  0  0  0  0  0  0  0  0  0
  140.1420   71.6970  223.6130 N   0  0  0  0  0  0  0  0  0  0  0  0
  140.6030   72.3760  222.4510 C   0  0  0  0  0  0  0  0  0  0  0  0
  141.0650   71.6660  221.4120 N   0  0  0  0  0  0  0  0  0  0  0  0
  141.5190   72.2670  220.2760 C   0  0  0  0  0  0  0  0  0  0  0  0
  142.0080   71.4070  219.1850 C   0  0  0  0  0  0  0  0  0  0  0  0
  143.4440   71.6110  218.8330 C   0  0  1  0  0  0  0  0  0  0  0  0
  143.6540   72.9180  218.1500 C   0  0  0  0  0  0  0  0  0  0  0  0
  145.0390   73.4940  218.2970 C   0  0  0  0  0  0  0  0  0  0  0  0
  145.4530   73.3920  219.7310 C   0  0  0  0  0  0  0  0  0  0  0  0
  145.5670   71.9630  220.0230 N   0  0  0  0  0  0  0  0  0  0  0  0
  144.2150   71.4830  220.1450 C   0  0  0  0  0  0  0  0  0  0  0  0
  141.4900   73.6110  220.2270 N   0  0  0  0  0  0  0  0  0  0  0  0
  141.0350   74.3630  221.2500 C   0  0  0  0  0  0  0  0  0  0  0  0
  141.0000   75.7850  221.2080 N   0  0  0  0  0  0  0  0  0  0  0  0
  141.5390   76.4950  220.0620 C   0  0  0  0  0  0  0  0  0  0  0  0
  141.0250   77.9170  220.0970 C   0  0  0  0  0  0  0  0  0  0  0  0
  141.4330   78.5210  221.3880 C   0  0  0  0  0  0  0  0  0  0  0  0
  142.0890   79.7310  221.4840 C   0  0  0  0  0  0  0  0  0  0  0  0
  142.4340   80.2230  222.7240 C   0  0  0  0  0  0  0  0  0  0  0  0
  142.1280   79.5140  223.8610 C   0  0  0  0  0  0  0  0  0  0  0  0
  141.4690   78.2990  223.7640 C   0  0  0  0  0  0  0  0  0  0  0  0
  141.1300   77.8160  222.5350 C   0  0  0  0  0  0  0  0  0  0  0  0
  140.4160   76.5110  222.3300 C   0  0  0  0  0  0  0  0  0  0  0  0
  140.5980   73.7130  222.3460 N   0  0  0  0  0  0  0  0  0  0  0  0
  140.8050   71.8810  224.8850 C   0  0  0  0  0  0  0  0  0  0  0  0
  139.1858   68.4343  228.6719 H   0  0  0  0  0  0  0  0  0  0  0  0
  140.5082   70.4731  229.2659 H   0  0  0  0  0  0  0  0  0  0  0  0
  141.2313   72.0257  227.4908 H   0  0  0  0  0  0  0  0  0  0  0  0
  138.6094   68.0005  226.2899 H   0  0  0  0  0  0  0  0  0  0  0  0
  140.0743   68.9633  223.6657 H   0  0  0  0  0  0  0  0  0  0  0  0
  138.3559   68.8455  224.1093 H   0  0  0  0  0  0  0  0  0  0  0  0
  138.7839   70.6504  222.4280 H   0  0  0  0  0  0  0  0  0  0  0  0
  138.1386   71.3022  223.9890 H   0  0  0  0  0  0  0  0  0  0  0  0
  141.8741   70.3580  219.4879 H   0  0  0  0  0  0  0  0  0  0  0  0
  141.4255   71.6739  218.2909 H   0  0  0  0  0  0  0  0  0  0  0  0
  143.8035   70.8643  218.1096 H   0  0  0  0  0  0  0  0  0  0  0  0
  143.4534   72.7794  217.0774 H   0  0  0  0  0  0  0  0  0  0  0  0
  142.9696   73.6319  218.6316 H   0  0  0  0  0  0  0  0  0  0  0  0
  145.7430   72.9296  217.6678 H   0  0  0  0  0  0  0  0  0  0  0  0
  145.0414   74.5476  217.9810 H   0  0  0  0  0  0  0  0  0  0  0  0
  146.4213   73.8909  219.8846 H   0  0  0  0  0  0  0  0  0  0  0  0
  144.7232   73.8794  220.3942 H   0  0  0  0  0  0  0  0  0  0  0  0
  145.9960   71.8920  220.9590 H   0  0  0  0  0  0  0  0  0  0  0  0
  144.2391   70.4239  220.4413 H   0  0  0  0  0  0  0  0  0  0  0  0
  143.7032   72.0953  220.9020 H   0  0  0  0  0  0  0  0  0  0  0  0
  142.6380   76.4959  220.1087 H   0  0  0  0  0  0  0  0  0  0  0  0
  141.2250   76.0023  219.1300 H   0  0  0  0  0  0  0  0  0  0  0  0
  141.4570   78.4905  219.2637 H   0  0  0  0  0  0  0  0  0  0  0  0
  139.9294   77.9294  219.9991 H   0  0  0  0  0  0  0  0  0  0  0  0
  142.3353   80.3000  220.5754 H   0  0  0  0  0  0  0  0  0  0  0  0
  142.9567   81.1876  222.8043 H   0  0  0  0  0  0  0  0  0  0  0  0
  142.4064   79.9112  224.8483 H   0  0  0  0  0  0  0  0  0  0  0  0
  141.2213   77.7287  224.6714 H   0  0  0  0  0  0  0  0  0  0  0  0
  140.5044   75.9019  223.2417 H   0  0  0  0  0  0  0  0  0  0  0  0
  139.3567   76.7131  222.1129 H   0  0  0  0  0  0  0  0  0  0  0  0
  141.8889   71.7570  224.7446 H   0  0  0  0  0  0  0  0  0  0  0  0
  140.5714   72.8907  225.2536 H   0  0  0  0  0  0  0  0  0  0  0  0
  1  2  2  0
  2  3  1  0
  3  4  2  0
  4  5  1  0
  5  6  2  0
  5  7  1  0
  7  8  1  0
  8  9  1  0
  9 10  1  0
 10 11  2  0
 11 12  1  0
 12 13  1  0
 13 14  1  0
 14 15  1  0
 15 16  1  0
 16 17  1  0
 17 18  1  0
 18 19  1  0
 12 20  2  0
 20 21  1  0
 21 22  1  0
 22 23  1  0
 23 24  1  0
 24 25  1  0
 25 26  2  0
 26 27  1  0
 27 28  2  0
 28 29  1  0
 29 30  2  0
 30 31  1  0
 21 32  2  0
  9 33  1  0
  6  1  1  0
 32 10  1  0
 33  4  1  0
 19 14  1  0
 31 22  1  0
 30 25  1  0
  1 34  1  0
  2 35  1  0
  3 36  1  0
  6 37  1  0
  7 38  1  0
  7 39  1  0
  8 40  1  0
  8 41  1  0
 13 42  1  0
 13 43  1  0
 14 44  1  6
 15 45  1  0
 15 46  1  0
 16 47  1  0
 16 48  1  0
 17 49  1  0
 17 50  1  0
 18 51  1  0
 19 52  1  0
 19 53  1  0
 23 54  1  0
 23 55  1  0
 24 56  1  0
 24 57  1  0
 26 58  1  0
 27 59  1  0
 28 60  1  0
 29 61  1  0
 31 62  1  0
 31 63  1  0
 33 64  1  0
 33 65  1  0
M  END
>  <smiles>  (55) 
c1ccc2c(c1)CCN(c1nc(CC3CCCNC3)nc(N3CCc4ccccc4C3)n1)C2

>  <score_type>  (55) 
oracle

>  <origin>  (55) 
autodockgpu

>  <m_score__min__energy>  (55) 
-10.710000000000001

>  <m_primary>  (55) 
energy

>  <rmsd>  (55) 
10.826460698423235

>  <m_score__min__rmsd>  (55) 
10.826460698423235

>  <meeko>  (55) 
{"free_energy": -10.25, "intermolecular_energy": -11.45, "internal_energy": -1.28, "cluster_size": 49, "cluster_id": 1, "rank_in_cluster": 24}

>  <energy>  (55) 
-10.7

>  <cluster_rmsd>  (55) 
0.04

>  <cluster>  (55) 
1

$$$$

     RDKit          3D

 65 70  0  0  0  0  0  0  0  0999 V2000
  139.3160   68.6010  226.9100 C   0  0  0  0  0  0  0  0  0  0  0  0
  140.0360   69.6500  227.4770 C   0  0  0  0  0  0  0  0  0  0  0  0
  140.4780   70.6820  226.6790 C   0  0  0  0  0  0  0  0  0  0  0  0
  140.2240   70.7080  225.3090 C   0  0  0  0  0  0  0  0  0  0  0  0
  139.5100   69.6590  224.7680 C   0  0  0  0  0  0  0  0  0  0  0  0
  139.0560   68.6130  225.5500 C   0  0  0  0  0  0  0  0  0  0  0  0
  139.2150   69.6440  223.3120 C   0  0  0  0  0  0  0  0  0  0  0  0
  138.9890   71.0810  222.8890 C   0  0  0  0  0  0  0  0  0  0  0  0
  140.1280   71.9120  223.2200 N   0  0  0  0  0  0  0  0  0  0  0  0
  140.6390   72.7930  222.2250 C   0  0  0  0  0  0  0  0  0  0  0  0
  141.3790   72.2980  221.2230 N   0  0  0  0  0  0  0  0  0  0  0  0
  141.8920   73.0980  220.2460 C   0  0  0  0  0  0  0  0  0  0  0  0
  142.6920   72.4670  219.1840 C   0  0  0  0  0  0  0  0  0  0  0  0
  144.1310   72.8630  219.1750 C   0  0  1  0  0  0  0  0  0  0  0  0
  144.3560   74.1060  219.9650 C   0  0  0  0  0  0  0  0  0  0  0  0
  145.7450   74.2560  220.5290 C   0  0  0  0  0  0  0  0  0  0  0  0
  146.1530   72.9600  221.1540 C   0  0  0  0  0  0  0  0  0  0  0  0
  146.2530   71.9930  220.0610 N   0  0  0  0  0  0  0  0  0  0  0  0
  144.8970   71.6580  219.7150 C   0  0  0  0  0  0  0  0  0  0  0  0
  141.6310   74.4160  220.3180 N   0  0  0  0  0  0  0  0  0  0  0  0
  140.8930   74.9550  221.3100 C   0  0  0  0  0  0  0  0  0  0  0  0
  140.6120   76.3470  221.3950 N   0  0  0  0  0  0  0  0  0  0  0  0
  140.4390   77.1320  220.1860 C   0  0  0  0  0  0  0  0  0  0  0  0
  139.7750   78.4400  220.5570 C   0  0  0  0  0  0  0  0  0  0  0  0
  140.6280   79.1180  221.5620 C   0  0  0  0  0  0  0  0  0  0  0  0
  141.0480   80.4260  221.4400 C   0  0  0  0  0  0  0  0  0  0  0  0
  141.8400   80.9830  222.4210 C   0  0  0  0  0  0  0  0  0  0  0  0
  142.2120   80.2410  223.5160 C   0  0  0  0  0  0  0  0  0  0  0  0
  141.7900   78.9260  223.6380 C   0  0  0  0  0  0  0  0  0  0  0  0
  141.0070   78.3800  222.6660 C   0  0  0  0  0  0  0  0  0  0  0  0
  140.5020   76.9670  222.7100 C   0  0  0  0  0  0  0  0  0  0  0  0
  140.4120   74.1140  222.2460 N   0  0  0  0  0  0  0  0  0  0  0  0
  140.7350   71.8520  224.5310 C   0  0  0  0  0  0  0  0  0  0  0  0
  138.9574   67.7711  227.5366 H   0  0  0  0  0  0  0  0  0  0  0  0
  140.2504   69.6542  228.5559 H   0  0  0  0  0  0  0  0  0  0  0  0
  141.0459   71.5066  227.1346 H   0  0  0  0  0  0  0  0  0  0  0  0
  138.4880   67.7900  225.0916 H   0  0  0  0  0  0  0  0  0  0  0  0
  140.0647   69.2170  222.7591 H   0  0  0  0  0  0  0  0  0  0  0  0
  138.3286   69.0287  223.0982 H   0  0  0  0  0  0  0  0  0  0  0  0
  138.8259   71.1131  221.8016 H   0  0  0  0  0  0  0  0  0  0  0  0
  138.1098   71.4669  223.4258 H   0  0  0  0  0  0  0  0  0  0  0  0
  142.6367   71.3762  219.3143 H   0  0  0  0  0  0  0  0  0  0  0  0
  142.2677   72.8081  218.2282 H   0  0  0  0  0  0  0  0  0  0  0  0
  144.4847   73.1134  218.1639 H   0  0  0  0  0  0  0  0  0  0  0  0
  144.1581   74.9675  219.3104 H   0  0  0  0  0  0  0  0  0  0  0  0
  143.6766   74.0503  220.8283 H   0  0  0  0  0  0  0  0  0  0  0  0
  146.4461   74.5142  219.7217 H   0  0  0  0  0  0  0  0  0  0  0  0
  145.7578   75.0559  221.2840 H   0  0  0  0  0  0  0  0  0  0  0  0
  147.1252   73.0687  221.6570 H   0  0  0  0  0  0  0  0  0  0  0  0
  145.4255   72.6341  221.9120 H   0  0  0  0  0  0  0  0  0  0  0  0
  146.6790   71.1430  220.4640 H   0  0  0  0  0  0  0  0  0  0  0  0
  144.9105   70.8718  218.9458 H   0  0  0  0  0  0  0  0  0  0  0  0
  144.3886   71.3128  220.6273 H   0  0  0  0  0  0  0  0  0  0  0  0
  141.4194   77.3298  219.7280 H   0  0  0  0  0  0  0  0  0  0  0  0
  139.8158   76.5830  219.4647 H   0  0  0  0  0  0  0  0  0  0  0  0
  139.6746   79.0742  219.6638 H   0  0  0  0  0  0  0  0  0  0  0  0
  138.7719   78.2559  220.9691 H   0  0  0  0  0  0  0  0  0  0  0  0
  140.7523   81.0219  220.5639 H   0  0  0  0  0  0  0  0  0  0  0  0
  142.1758   82.0263  222.3269 H   0  0  0  0  0  0  0  0  0  0  0  0
  142.8446   80.6903  224.2958 H   0  0  0  0  0  0  0  0  0  0  0  0
  142.0851   78.3281  224.5129 H   0  0  0  0  0  0  0  0  0  0  0  0
  141.0983   76.3913  223.4332 H   0  0  0  0  0  0  0  0  0  0  0  0
  139.4447   76.9751  223.0135 H   0  0  0  0  0  0  0  0  0  0  0  0
  141.8242   71.7491  224.4167 H   0  0  0  0  0  0  0  0  0  0  0  0
  140.4848   72.7771  225.0709 H   0  0  0  0  0  0  0  0  0  0  0  0
  1  2  2  0
  2  3  1  0
  3  4  2  0
  4  5  1  0
  5  6  2  0
  5  7  1  0
  7  8  1  0
  8  9  1  0
  9 10  1  0
 10 11  2  0
 11 12  1  0
 12 13  1  0
 13 14  1  0
 14 15  1  0
 15 16  1  0
 16 17  1  0
 17 18  1  0
 18 19  1  0
 12 20  2  0
 20 21  1  0
 21 22  1  0
 22 23  1  0
 23 24  1  0
 24 25  1  0
 25 26  2  0
 26 27  1  0
 27 28  2  0
 28 29  1  0
 29 30  2  0
 30 31  1  0
 21 32  2  0
  9 33  1  0
  6  1  1  0
 32 10  1  0
 33  4  1  0
 19 14  1  0
 31 22  1  0
 30 25  1  0
  1 34  1  0
  2 35  1  0
  3 36  1  0
  6 37  1  0
  7 38  1  0
  7 39  1  0
  8 40  1  0
  8 41  1  0
 13 42  1  0
 13 43  1  0
 14 44  1  6
 15 45  1  0
 15 46  1  0
 16 47  1  0
 16 48  1  0
 17 49  1  0
 17 50  1  0
 18 51  1  0
 19 52  1  0
 19 53  1  0
 23 54  1  0
 23 55  1  0
 24 56  1  0
 24 57  1  0
 26 58  1  0
 27 59  1  0
 28 60  1  0
 29 61  1  0
 31 62  1  0
 31 63  1  0
 33 64  1  0
 33 65  1  0
M  END
>  <smiles>  (56) 
c1ccc2c(c1)CCN(c1nc(CC3CCCNC3)nc(N3CCc4ccccc4C3)n1)C2

>  <score_type>  (56) 
oracle

>  <origin>  (56) 
autodockgpu

>  <m_score__min__energy>  (56) 
-10.710000000000001

>  <m_primary>  (56) 
energy

>  <rmsd>  (56) 
10.598250960138913

>  <m_score__min__rmsd>  (56) 
10.598250960138913

>  <meeko>  (56) 
{"free_energy": -10.63, "intermolecular_energy": -11.82, "internal_energy": -1.03, "cluster_size": 49, "cluster_id": 1, "rank_in_cluster": 11}

>  <energy>  (56) 
-10.69

>  <cluster_rmsd>  (56) 
0.04

>  <cluster>  (56) 
1

$$$$

     RDKit          3D

 65 70  0  0  0  0  0  0  0  0999 V2000
  139.5130   69.0700  227.8340 C   0  0  0  0  0  0  0  0  0  0  0  0
  140.2470   70.2000  228.1880 C   0  0  0  0  0  0  0  0  0  0  0  0
  140.6620   71.0760  227.2090 C   0  0  0  0  0  0  0  0  0  0  0  0
  140.3660   70.8630  225.8650 C   0  0  0  0  0  0  0  0  0  0  0  0
  139.6390   69.7390  225.5360 C   0  0  0  0  0  0  0  0  0  0  0  0
  139.2110   68.8460  226.5020 C   0  0  0  0  0  0  0  0  0  0  0  0
  139.2990   69.4710  224.1150 C   0  0  0  0  0  0  0  0  0  0  0  0
  139.0570   70.8130  223.4550 C   0  0  0  0  0  0  0  0  0  0  0  0
  140.2030   71.6860  223.6010 N   0  0  0  0  0  0  0  0  0  0  0  0
  140.6810   72.3790  222.4540 C   0  0  0  0  0  0  0  0  0  0  0  0
  141.2020   71.6840  221.4320 N   0  0  0  0  0  0  0  0  0  0  0  0
  141.6740   72.2990  220.3110 C   0  0  0  0  0  0  0  0  0  0  0  0
  142.2280   71.4540  219.2400 C   0  0  0  0  0  0  0  0  0  0  0  0
  143.7190   71.4610  219.1560 C   0  0  1  0  0  0  0  0  0  0  0  0
  144.2060   70.5380  218.0930 C   0  0  0  0  0  0  0  0  0  0  0  0
  145.5490   70.8940  217.5120 C   0  0  0  0  0  0  0  0  0  0  0  0
  145.5720   72.3600  217.2140 C   0  0  0  0  0  0  0  0  0  0  0  0
  145.4870   73.0410  218.5070 N   0  0  0  0  0  0  0  0  0  0  0  0
  144.1130   72.9170  218.9200 C   0  0  0  0  0  0  0  0  0  0  0  0
  141.6010   73.6410  220.2590 N   0  0  0  0  0  0  0  0  0  0  0  0
  141.0850   74.3780  221.2630 C   0  0  0  0  0  0  0  0  0  0  0  0
  141.0040   75.7980  221.2170 N   0  0  0  0  0  0  0  0  0  0  0  0
  141.4920   76.5200  220.0560 C   0  0  0  0  0  0  0  0  0  0  0  0
  140.9330   77.9250  220.0980 C   0  0  0  0  0  0  0  0  0  0  0  0
  141.3530   78.5470  221.3760 C   0  0  0  0  0  0  0  0  0  0  0  0
  141.9720   79.7780  221.4520 C   0  0  0  0  0  0  0  0  0  0  0  0
  142.3310   80.2870  222.6820 C   0  0  0  0  0  0  0  0  0  0  0  0
  142.0760   79.5740  223.8280 C   0  0  0  0  0  0  0  0  0  0  0  0
  141.4540   78.3370  223.7510 C   0  0  0  0  0  0  0  0  0  0  0  0
  141.1010   77.8380  222.5330 C   0  0  0  0  0  0  0  0  0  0  0  0
  140.4250   76.5100  222.3500 C   0  0  0  0  0  0  0  0  0  0  0  0
  140.6340   73.7150  222.3450 N   0  0  0  0  0  0  0  0  0  0  0  0
  140.8500   71.8530  224.8840 C   0  0  0  0  0  0  0  0  0  0  0  0
  139.1766   68.3623  228.6060 H   0  0  0  0  0  0  0  0  0  0  0  0
  140.4937   70.3916  229.2427 H   0  0  0  0  0  0  0  0  0  0  0  0
  141.2416   71.9658  227.4961 H   0  0  0  0  0  0  0  0  0  0  0  0
  138.6306   67.9579  226.2115 H   0  0  0  0  0  0  0  0  0  0  0  0
  140.1320   68.9512  223.6191 H   0  0  0  0  0  0  0  0  0  0  0  0
  138.4077   68.8307  224.0394 H   0  0  0  0  0  0  0  0  0  0  0  0
  138.8609   70.6554  222.3842 H   0  0  0  0  0  0  0  0  0  0  0  0
  138.1938   71.2891  223.9431 H   0  0  0  0  0  0  0  0  0  0  0  0
  141.8983   70.4190  219.4134 H   0  0  0  0  0  0  0  0  0  0  0  0
  141.8587   71.8691  218.2906 H   0  0  0  0  0  0  0  0  0  0  0  0
  144.1884   71.0870  220.0779 H   0  0  0  0  0  0  0  0  0  0  0  0
  144.2764   69.5280  218.5231 H   0  0  0  0  0  0  0  0  0  0  0  0
  143.4832   70.6095  217.2669 H   0  0  0  0  0  0  0  0  0  0  0  0
  146.3410   70.6514  218.2358 H   0  0  0  0  0  0  0  0  0  0  0  0
  145.7201   70.3220  216.5881 H   0  0  0  0  0  0  0  0  0  0  0  0
  146.5070   72.6303  216.7014 H   0  0  0  0  0  0  0  0  0  0  0  0
  144.7405   72.6479  216.5539 H   0  0  0  0  0  0  0  0  0  0  0  0
  145.6540   74.0430  218.3170 H   0  0  0  0  0  0  0  0  0  0  0  0
  143.9702   73.4800  219.8541 H   0  0  0  0  0  0  0  0  0  0  0  0
  143.4777   73.3161  218.1155 H   0  0  0  0  0  0  0  0  0  0  0  0
  142.5912   76.5567  220.0763 H   0  0  0  0  0  0  0  0  0  0  0  0
  141.1719   76.0132  219.1336 H   0  0  0  0  0  0  0  0  0  0  0  0
  141.3256   78.5084  219.2521 H   0  0  0  0  0  0  0  0  0  0  0  0
  139.8356   77.9019  220.0268 H   0  0  0  0  0  0  0  0  0  0  0  0
  142.1780   80.3504  220.5356 H   0  0  0  0  0  0  0  0  0  0  0  0
  142.8238   81.2684  222.7459 H   0  0  0  0  0  0  0  0  0  0  0  0
  142.3652   79.9842  224.8068 H   0  0  0  0  0  0  0  0  0  0  0  0
  141.2471   77.7629  224.6662 H   0  0  0  0  0  0  0  0  0  0  0  0
  140.5552   75.9081  223.2615 H   0  0  0  0  0  0  0  0  0  0  0  0
  139.3549   76.6773  222.1578 H   0  0  0  0  0  0  0  0  0  0  0  0
  141.9355   71.7287  224.7561 H   0  0  0  0  0  0  0  0  0  0  0  0
  140.6136   72.8585  225.2622 H   0  0  0  0  0  0  0  0  0  0  0  0
  1  2  2  0
  2  3  1  0
  3  4  2  0
  4  5  1  0
  5  6  2  0
  5  7  1  0
  7  8  1  0
  8  9  1  0
  9 10  1  0
 10 11  2  0
 11 12  1  0
 12 13  1  0
 13 14  1  0
 14 15  1  0
 15 16  1  0
 16 17  1  0
 17 18  1  0
 18 19  1  0
 12 20  2  0
 20 21  1  0
 21 22  1  0
 22 23  1  0
 23 24  1  0
 24 25  1  0
 25 26  2  0
 26 27  1  0
 27 28  2  0
 28 29  1  0
 29 30  2  0
 30 31  1  0
 21 32  2  0
  9 33  1  0
  6  1  1  0
 32 10  1  0
 33  4  1  0
 19 14  1  0
 31 22  1  0
 30 25  1  0
  1 34  1  0
  2 35  1  0
  3 36  1  0
  6 37  1  0
  7 38  1  0
  7 39  1  0
  8 40  1  0
  8 41  1  0
 13 42  1  0
 13 43  1  0
 14 44  1  1
 15 45  1  0
 15 46  1  0
 16 47  1  0
 16 48  1  0
 17 49  1  0
 17 50  1  0
 18 51  1  0
 19 52  1  0
 19 53  1  0
 23 54  1  0
 23 55  1  0
 24 56  1  0
 24 57  1  0
 26 58  1  0
 27 59  1  0
 28 60  1  0
 29 61  1  0
 31 62  1  0
 31 63  1  0
 33 64  1  0
 33 65  1  0
M  END
>  <smiles>  (57) 
c1ccc2c(c1)CCN(c1nc(CC3CCCNC3)nc(N3CCc4ccccc4C3)n1)C2

>  <score_type>  (57) 
oracle

>  <origin>  (57) 
autodockgpu

>  <m_score__min__energy>  (57) 
-10.710000000000001

>  <m_primary>  (57) 
energy

>  <rmsd>  (57) 
10.835278301987435

>  <m_score__min__rmsd>  (57) 
10.835278301987435

>  <meeko>  (57) 
{"free_energy": -10.17, "intermolecular_energy": -11.36, "internal_energy": -0.96, "cluster_size": 49, "cluster_id": 1, "rank_in_cluster": 29}

>  <energy>  (57) 
-10.69

>  <cluster_rmsd>  (57) 
0.11

>  <cluster>  (57) 
1

$$$$

     RDKit          3D

 65 70  0  0  0  0  0  0  0  0999 V2000
  139.5170   69.0990  227.8060 C   0  0  0  0  0  0  0  0  0  0  0  0
  140.2800   70.2130  228.1440 C   0  0  0  0  0  0  0  0  0  0  0  0
  140.6770   71.0910  227.1590 C   0  0  0  0  0  0  0  0  0  0  0  0
  140.3350   70.8950  225.8240 C   0  0  0  0  0  0  0  0  0  0  0  0
  139.5790   69.7850  225.5100 C   0  0  0  0  0  0  0  0  0  0  0  0
  139.1690   68.8910  226.4820 C   0  0  0  0  0  0  0  0  0  0  0  0
  139.1900   69.5340  224.0980 C   0  0  0  0  0  0  0  0  0  0  0  0
  138.9480   70.8860  223.4580 C   0  0  0  0  0  0  0  0  0  0  0  0
  140.1130   71.7380  223.5730 N   0  0  0  0  0  0  0  0  0  0  0  0
  140.5650   72.4340  222.4160 C   0  0  0  0  0  0  0  0  0  0  0  0
  141.0110   71.7370  221.3610 N   0  0  0  0  0  0  0  0  0  0  0  0
  141.4550   72.3540  220.2290 C   0  0  0  0  0  0  0  0  0  0  0  0
  141.9260   71.5090  219.1200 C   0  0  0  0  0  0  0  0  0  0  0  0
  143.3890   71.6130  218.8410 C   0  0  1  0  0  0  0  0  0  0  0  0
  143.7110   72.8630  218.0970 C   0  0  0  0  0  0  0  0  0  0  0  0
  145.1150   73.3720  218.2910 C   0  0  0  0  0  0  0  0  0  0  0  0
  145.4430   73.3360  219.7500 C   0  0  0  0  0  0  0  0  0  0  0  0
  145.4590   71.9230  220.1310 N   0  0  0  0  0  0  0  0  0  0  0  0
  144.0780   71.5260  220.2010 C   0  0  0  0  0  0  0  0  0  0  0  0
  141.4320   73.6990  220.2020 N   0  0  0  0  0  0  0  0  0  0  0  0
  140.9930   74.4370  221.2420 C   0  0  0  0  0  0  0  0  0  0  0  0
  140.9650   75.8590  221.2220 N   0  0  0  0  0  0  0  0  0  0  0  0
  141.4800   76.5840  220.0750 C   0  0  0  0  0  0  0  0  0  0  0  0
  140.9750   78.0080  220.1440 C   0  0  0  0  0  0  0  0  0  0  0  0
  141.4180   78.5900  221.4340 C   0  0  0  0  0  0  0  0  0  0  0  0
  142.0830   79.7950  221.5330 C   0  0  0  0  0  0  0  0  0  0  0  0
  142.4610   80.2660  222.7720 C   0  0  0  0  0  0  0  0  0  0  0  0
  142.1770   79.5420  223.9040 C   0  0  0  0  0  0  0  0  0  0  0  0
  141.5100   78.3310  223.8040 C   0  0  0  0  0  0  0  0  0  0  0  0
  141.1380   77.8690  222.5770 C   0  0  0  0  0  0  0  0  0  0  0  0
  140.4130   76.5710  222.3690 C   0  0  0  0  0  0  0  0  0  0  0  0
  140.5660   73.7720  222.3320 N   0  0  0  0  0  0  0  0  0  0  0  0
  140.8030   71.8850  224.8360 C   0  0  0  0  0  0  0  0  0  0  0  0
  139.1936   68.3908  228.5831 H   0  0  0  0  0  0  0  0  0  0  0  0
  140.5644   70.3915  229.1915 H   0  0  0  0  0  0  0  0  0  0  0  0
  141.2795   71.9691  227.4346 H   0  0  0  0  0  0  0  0  0  0  0  0
  138.5661   68.0142  226.2033 H   0  0  0  0  0  0  0  0  0  0  0  0
  139.9988   69.0062  223.5715 H   0  0  0  0  0  0  0  0  0  0  0  0
  138.2875   68.9074  224.0450 H   0  0  0  0  0  0  0  0  0  0  0  0
  138.7133   70.7416  222.3931 H   0  0  0  0  0  0  0  0  0  0  0  0
  138.1096   71.3718  223.9786 H   0  0  0  0  0  0  0  0  0  0  0  0
  141.6964   70.4614  219.3647 H   0  0  0  0  0  0  0  0  0  0  0  0
  141.4090   71.8625  218.2157 H   0  0  0  0  0  0  0  0  0  0  0  0
  143.7438   70.8045  218.1849 H   0  0  0  0  0  0  0  0  0  0  0  0
  143.5625   72.6701  217.0243 H   0  0  0  0  0  0  0  0  0  0  0  0
  143.0429   73.6405  218.4959 H   0  0  0  0  0  0  0  0  0  0  0  0
  145.8195   72.7336  217.7377 H   0  0  0  0  0  0  0  0  0  0  0  0
  145.1944   74.4028  217.9152 H   0  0  0  0  0  0  0  0  0  0  0  0
  146.4282   73.7906  219.9305 H   0  0  0  0  0  0  0  0  0  0  0  0
  144.7068   73.9016  220.3401 H   0  0  0  0  0  0  0  0  0  0  0  0
  145.8320   71.8870  221.0930 H   0  0  0  0  0  0  0  0  0  0  0  0
  144.0246   70.4878  220.5606 H   0  0  0  0  0  0  0  0  0  0  0  0
  143.5614   72.2119  220.8885 H   0  0  0  0  0  0  0  0  0  0  0  0
  142.5798   76.5785  220.0953 H   0  0  0  0  0  0  0  0  0  0  0  0
  141.1408   76.1075  219.1434 H   0  0  0  0  0  0  0  0  0  0  0  0
  141.3898   78.5919  219.3091 H   0  0  0  0  0  0  0  0  0  0  0  0
  139.8775   78.0278  220.0730 H   0  0  0  0  0  0  0  0  0  0  0  0
  142.3103   80.3768  220.6276 H   0  0  0  0  0  0  0  0  0  0  0  0
  142.9923   81.2257  222.8545 H   0  0  0  0  0  0  0  0  0  0  0  0
  142.4790   79.9234  224.8906 H   0  0  0  0  0  0  0  0  0  0  0  0
  141.2826   77.7473  224.7082 H   0  0  0  0  0  0  0  0  0  0  0  0
  140.5205   75.9475  223.2688 H   0  0  0  0  0  0  0  0  0  0  0  0
  139.3500   76.7820  222.1805 H   0  0  0  0  0  0  0  0  0  0  0  0
  141.8818   71.7451  224.6727 H   0  0  0  0  0  0  0  0  0  0  0  0
  140.5946   72.8910  225.2290 H   0  0  0  0  0  0  0  0  0  0  0  0
  1  2  2  0
  2  3  1  0
  3  4  2  0
  4  5  1  0
  5  6  2  0
  5  7  1  0
  7  8  1  0
  8  9  1  0
  9 10  1  0
 10 11  2  0
 11 12  1  0
 12 13  1  0
 13 14  1  0
 14 15  1  0
 15 16  1  0
 16 17  1  0
 17 18  1  0
 18 19  1  0
 12 20  2  0
 20 21  1  0
 21 22  1  0
 22 23  1  0
 23 24  1  0
 24 25  1  0
 25 26  2  0
 26 27  1  0
 27 28  2  0
 28 29  1  0
 29 30  2  0
 30 31  1  0
 21 32  2  0
  9 33  1  0
  6  1  1  0
 32 10  1  0
 33  4  1  0
 19 14  1  0
 31 22  1  0
 30 25  1  0
  1 34  1  0
  2 35  1  0
  3 36  1  0
  6 37  1  0
  7 38  1  0
  7 39  1  0
  8 40  1  0
  8 41  1  0
 13 42  1  0
 13 43  1  0
 14 44  1  6
 15 45  1  0
 15 46  1  0
 16 47  1  0
 16 48  1  0
 17 49  1  0
 17 50  1  0
 18 51  1  0
 19 52  1  0
 19 53  1  0
 23 54  1  0
 23 55  1  0
 24 56  1  0
 24 57  1  0
 26 58  1  0
 27 59  1  0
 28 60  1  0
 29 61  1  0
 31 62  1  0
 31 63  1  0
 33 64  1  0
 33 65  1  0
M  END
>  <smiles>  (58) 
c1ccc2c(c1)CCN(c1nc(CC3CCCNC3)nc(N3CCc4ccccc4C3)n1)C2

>  <score_type>  (58) 
oracle

>  <origin>  (58) 
autodockgpu

>  <m_score__min__energy>  (58) 
-10.710000000000001

>  <m_primary>  (58) 
energy

>  <rmsd>  (58) 
10.79673178778012

>  <m_score__min__rmsd>  (58) 
10.79673178778012

>  <meeko>  (58) 
{"free_energy": -10.24, "intermolecular_energy": -11.43, "internal_energy": -1.28, "cluster_size": 49, "cluster_id": 1, "rank_in_cluster": 27}

>  <energy>  (58) 
-10.68

>  <cluster_rmsd>  (58) 
0.06

>  <cluster>  (58) 
1

$$$$

     RDKit          3D

 65 70  0  0  0  0  0  0  0  0999 V2000
  139.5730   69.0570  227.7510 C   0  0  0  0  0  0  0  0  0  0  0  0
  140.3170   70.1790  228.1090 C   0  0  0  0  0  0  0  0  0  0  0  0
  140.7140   71.0710  227.1370 C   0  0  0  0  0  0  0  0  0  0  0  0
  140.3910   70.8830  225.7960 C   0  0  0  0  0  0  0  0  0  0  0  0
  139.6540   69.7650  225.4630 C   0  0  0  0  0  0  0  0  0  0  0  0
  139.2440   68.8570  226.4220 C   0  0  0  0  0  0  0  0  0  0  0  0
  139.2850   69.5220  224.0440 C   0  0  0  0  0  0  0  0  0  0  0  0
  139.0330   70.8760  223.4130 C   0  0  0  0  0  0  0  0  0  0  0  0
  140.1840   71.7440  223.5500 N   0  0  0  0  0  0  0  0  0  0  0  0
  140.6400   72.4560  222.4050 C   0  0  0  0  0  0  0  0  0  0  0  0
  141.1450   71.7780  221.3650 N   0  0  0  0  0  0  0  0  0  0  0  0
  141.5960   72.4110  220.2450 C   0  0  0  0  0  0  0  0  0  0  0  0
  142.1330   71.5840  219.1520 C   0  0  0  0  0  0  0  0  0  0  0  0
  143.6190   71.4320  219.1650 C   0  0  1  0  0  0  0  0  0  0  0  0
  144.0700   70.4360  218.1530 C   0  0  0  0  0  0  0  0  0  0  0  0
  145.4780   70.6350  217.6530 C   0  0  0  0  0  0  0  0  0  0  0  0
  145.6750   72.0820  217.3310 C   0  0  0  0  0  0  0  0  0  0  0  0
  145.5820   72.8010  218.6020 N   0  0  0  0  0  0  0  0  0  0  0  0
  144.1800   72.8320  218.9280 C   0  0  0  0  0  0  0  0  0  0  0  0
  141.5190   73.7530  220.2150 N   0  0  0  0  0  0  0  0  0  0  0  0
  141.0190   74.4740  221.2390 C   0  0  0  0  0  0  0  0  0  0  0  0
  140.9330   75.8940  221.2160 N   0  0  0  0  0  0  0  0  0  0  0  0
  141.3370   76.6300  220.0320 C   0  0  0  0  0  0  0  0  0  0  0  0
  140.7810   78.0340  220.1300 C   0  0  0  0  0  0  0  0  0  0  0  0
  141.2910   78.6420  221.3830 C   0  0  0  0  0  0  0  0  0  0  0  0
  141.9120   79.8720  221.4300 C   0  0  0  0  0  0  0  0  0  0  0  0
  142.3570   80.3670  222.6360 C   0  0  0  0  0  0  0  0  0  0  0  0
  142.1840   79.6400  223.7890 C   0  0  0  0  0  0  0  0  0  0  0  0
  141.5600   78.4030  223.7420 C   0  0  0  0  0  0  0  0  0  0  0  0
  141.1210   77.9180  222.5460 C   0  0  0  0  0  0  0  0  0  0  0  0
  140.4350   76.5920  222.3950 C   0  0  0  0  0  0  0  0  0  0  0  0
  140.5880   73.7930  222.3180 N   0  0  0  0  0  0  0  0  0  0  0  0
  140.8570   71.8880  224.8220 C   0  0  0  0  0  0  0  0  0  0  0  0
  139.2502   68.3370  228.5174 H   0  0  0  0  0  0  0  0  0  0  0  0
  140.5859   70.3518  229.1615 H   0  0  0  0  0  0  0  0  0  0  0  0
  141.3013   71.9544  227.4280 H   0  0  0  0  0  0  0  0  0  0  0  0
  138.6559   67.9751  226.1281 H   0  0  0  0  0  0  0  0  0  0  0  0
  140.1068   69.0094  223.5226 H   0  0  0  0  0  0  0  0  0  0  0  0
  138.3912   68.8845  223.9748 H   0  0  0  0  0  0  0  0  0  0  0  0
  138.8140   70.7377  222.3439 H   0  0  0  0  0  0  0  0  0  0  0  0
  138.1816   71.3453  223.9277 H   0  0  0  0  0  0  0  0  0  0  0  0
  141.6842   70.5825  219.2261 H   0  0  0  0  0  0  0  0  0  0  0  0
  141.8787   72.0999  218.2144 H   0  0  0  0  0  0  0  0  0  0  0  0
  143.9875   71.0345  220.1222 H   0  0  0  0  0  0  0  0  0  0  0  0
  144.0060   69.4355  218.6056 H   0  0  0  0  0  0  0  0  0  0  0  0
  143.4114   70.5612  217.2809 H   0  0  0  0  0  0  0  0  0  0  0  0
  146.1932   70.3286  218.4305 H   0  0  0  0  0  0  0  0  0  0  0  0
  145.6444   70.0257  216.7524 H   0  0  0  0  0  0  0  0  0  0  0  0
  146.6637   72.2398  216.8754 H   0  0  0  0  0  0  0  0  0  0  0  0
  144.9213   72.4385  216.6135 H   0  0  0  0  0  0  0  0  0  0  0  0
  145.8670   73.7740  218.4060 H   0  0  0  0  0  0  0  0  0  0  0  0
  144.0403   73.4302  219.8405 H   0  0  0  0  0  0  0  0  0  0  0  0
  143.6420   73.2750  218.0769 H   0  0  0  0  0  0  0  0  0  0  0  0
  142.4349   76.6683  219.9749 H   0  0  0  0  0  0  0  0  0  0  0  0
  140.9530   76.1334  219.1287 H   0  0  0  0  0  0  0  0  0  0  0  0
  141.1119   78.6278  219.2652 H   0  0  0  0  0  0  0  0  0  0  0  0
  139.6813   78.0101  220.1367 H   0  0  0  0  0  0  0  0  0  0  0  0
  142.0516   80.4557  220.5082 H   0  0  0  0  0  0  0  0  0  0  0  0
  142.8528   81.3481  222.6761 H   0  0  0  0  0  0  0  0  0  0  0  0
  142.5408   80.0397  224.7497 H   0  0  0  0  0  0  0  0  0  0  0  0
  141.4202   77.8174  224.6626 H   0  0  0  0  0  0  0  0  0  0  0  0
  140.6292   75.9796  223.2879 H   0  0  0  0  0  0  0  0  0  0  0  0
  139.3540   76.7603  222.2802 H   0  0  0  0  0  0  0  0  0  0  0  0
  141.9393   71.7637  224.6700 H   0  0  0  0  0  0  0  0  0  0  0  0
  140.6303   72.8875  225.2216 H   0  0  0  0  0  0  0  0  0  0  0  0
  1  2  2  0
  2  3  1  0
  3  4  2  0
  4  5  1  0
  5  6  2  0
  5  7  1  0
  7  8  1  0
  8  9  1  0
  9 10  1  0
 10 11  2  0
 11 12  1  0
 12 13  1  0
 13 14  1  0
 14 15  1  0
 15 16  1  0
 16 17  1  0
 17 18  1  0
 18 19  1  0
 12 20  2  0
 20 21  1  0
 21 22  1  0
 22 23  1  0
 23 24  1  0
 24 25  1  0
 25 26  2  0
 26 27  1  0
 27 28  2  0
 28 29  1  0
 29 30  2  0
 30 31  1  0
 21 32  2  0
  9 33  1  0
  6  1  1  0
 32 10  1  0
 33  4  1  0
 19 14  1  0
 31 22  1  0
 30 25  1  0
  1 34  1  0
  2 35  1  0
  3 36  1  0
  6 37  1  0
  7 38  1  0
  7 39  1  0
  8 40  1  0
  8 41  1  0
 13 42  1  0
 13 43  1  0
 14 44  1  1
 15 45  1  0
 15 46  1  0
 16 47  1  0
 16 48  1  0
 17 49  1  0
 17 50  1  0
 18 51  1  0
 19 52  1  0
 19 53  1  0
 23 54  1  0
 23 55  1  0
 24 56  1  0
 24 57  1  0
 26 58  1  0
 27 59  1  0
 28 60  1  0
 29 61  1  0
 31 62  1  0
 31 63  1  0
 33 64  1  0
 33 65  1  0
M  END
>  <smiles>  (59) 
c1ccc2c(c1)CCN(c1nc(CC3CCCNC3)nc(N3CCc4ccccc4C3)n1)C2

>  <score_type>  (59) 
oracle

>  <origin>  (59) 
autodockgpu

>  <m_score__min__energy>  (59) 
-10.710000000000001

>  <m_primary>  (59) 
energy

>  <rmsd>  (59) 
10.782296803355665

>  <m_score__min__rmsd>  (59) 
10.782296803355665

>  <meeko>  (59) 
{"free_energy": -10.11, "intermolecular_energy": -11.3, "internal_energy": -0.98, "cluster_size": 49, "cluster_id": 1, "rank_in_cluster": 34}

>  <energy>  (59) 
-10.65

>  <cluster_rmsd>  (59) 
0.2

>  <cluster>  (59) 
1

$$$$

     RDKit          3D

 65 70  0  0  0  0  0  0  0  0999 V2000
  139.6590   69.0060  227.7060 C   0  0  0  0  0  0  0  0  0  0  0  0
  140.4390   70.1070  228.0520 C   0  0  0  0  0  0  0  0  0  0  0  0
  140.8090   71.0120  227.0810 C   0  0  0  0  0  0  0  0  0  0  0  0
  140.4210   70.8580  225.7530 C   0  0  0  0  0  0  0  0  0  0  0  0
  139.6480   69.7620  225.4310 C   0  0  0  0  0  0  0  0  0  0  0  0
  139.2660   68.8410  226.3890 C   0  0  0  0  0  0  0  0  0  0  0  0
  139.2100   69.5560  224.0260 C   0  0  0  0  0  0  0  0  0  0  0  0
  138.9550   70.9280  223.4360 C   0  0  0  0  0  0  0  0  0  0  0  0
  140.1270   71.7710  223.5380 N   0  0  0  0  0  0  0  0  0  0  0  0
  140.5440   72.5000  222.3880 C   0  0  0  0  0  0  0  0  0  0  0  0
  140.9980   71.8350  221.3150 N   0  0  0  0  0  0  0  0  0  0  0  0
  141.4100   72.4840  220.1900 C   0  0  0  0  0  0  0  0  0  0  0  0
  141.8920   71.6720  219.0600 C   0  0  0  0  0  0  0  0  0  0  0  0
  143.3790   71.6100  218.9340 C   0  0  1  0  0  0  0  0  0  0  0  0
  143.8840   72.6300  217.9720 C   0  0  0  0  0  0  0  0  0  0  0  0
  145.3040   73.0740  218.2070 C   0  0  0  0  0  0  0  0  0  0  0  0
  145.4860   73.3540  219.6650 C   0  0  0  0  0  0  0  0  0  0  0  0
  145.3360   72.0690  220.3500 N   0  0  0  0  0  0  0  0  0  0  0  0
  143.9230   71.7930  220.3490 C   0  0  0  0  0  0  0  0  0  0  0  0
  141.3470   73.8280  220.1860 N   0  0  0  0  0  0  0  0  0  0  0  0
  140.8980   74.5350  221.2430 C   0  0  0  0  0  0  0  0  0  0  0  0
  140.8270   75.9560  221.2490 N   0  0  0  0  0  0  0  0  0  0  0  0
  141.1940   76.7100  220.0640 C   0  0  0  0  0  0  0  0  0  0  0  0
  140.6580   78.1170  220.2090 C   0  0  0  0  0  0  0  0  0  0  0  0
  141.2220   78.6960  221.4520 C   0  0  0  0  0  0  0  0  0  0  0  0
  141.8600   79.9190  221.4970 C   0  0  0  0  0  0  0  0  0  0  0  0
  142.3560   80.3860  222.6950 C   0  0  0  0  0  0  0  0  0  0  0  0
  142.2190   79.6400  223.8400 C   0  0  0  0  0  0  0  0  0  0  0  0
  141.5800   78.4110  223.7950 C   0  0  0  0  0  0  0  0  0  0  0  0
  141.0900   77.9530  222.6080 C   0  0  0  0  0  0  0  0  0  0  0  0
  140.3830   76.6360  222.4600 C   0  0  0  0  0  0  0  0  0  0  0  0
  140.5040   73.8390  222.3270 N   0  0  0  0  0  0  0  0  0  0  0  0
  140.8610   71.8760  224.7800 C   0  0  0  0  0  0  0  0  0  0  0  0
  139.3585   68.2753  228.4713 H   0  0  0  0  0  0  0  0  0  0  0  0
  140.7578   70.2532  229.0946 H   0  0  0  0  0  0  0  0  0  0  0  0
  141.4264   71.8778  227.3623 H   0  0  0  0  0  0  0  0  0  0  0  0
  138.6490   67.9760  226.1042 H   0  0  0  0  0  0  0  0  0  0  0  0
  139.9973   69.0403  223.4566 H   0  0  0  0  0  0  0  0  0  0  0  0
  138.3024   68.9359  223.9846 H   0  0  0  0  0  0  0  0  0  0  0  0
  138.6846   70.8173  222.3755 H   0  0  0  0  0  0  0  0  0  0  0  0
  138.1371   71.4013  223.9991 H   0  0  0  0  0  0  0  0  0  0  0  0
  141.5146   70.6467  219.1876 H   0  0  0  0  0  0  0  0  0  0  0  0
  141.5196   72.1556  218.1449 H   0  0  0  0  0  0  0  0  0  0  0  0
  143.7200   70.6500  218.5192 H   0  0  0  0  0  0  0  0  0  0  0  0
  143.8218   72.2051  216.9593 H   0  0  0  0  0  0  0  0  0  0  0  0
  143.2549   73.5219  218.1089 H   0  0  0  0  0  0  0  0  0  0  0  0
  145.9967   72.2789  217.8939 H   0  0  0  0  0  0  0  0  0  0  0  0
  145.5133   73.9823  217.6228 H   0  0  0  0  0  0  0  0  0  0  0  0
  146.4868   73.7707  219.8511 H   0  0  0  0  0  0  0  0  0  0  0  0
  144.7516   74.0888  220.0265 H   0  0  0  0  0  0  0  0  0  0  0  0
  145.6090   72.2310  221.3330 H   0  0  0  0  0  0  0  0  0  0  0  0
  143.7403   70.8720  220.9220 H   0  0  0  0  0  0  0  0  0  0  0  0
  143.4078   72.6520  220.8036 H   0  0  0  0  0  0  0  0  0  0  0  0
  142.2892   76.7379  219.9657 H   0  0  0  0  0  0  0  0  0  0  0  0
  140.7705   76.2345  219.1670 H   0  0  0  0  0  0  0  0  0  0  0  0
  140.9622   78.7235  219.3432 H   0  0  0  0  0  0  0  0  0  0  0  0
  139.5591   78.1043  220.2575 H   0  0  0  0  0  0  0  0  0  0  0  0
  141.9720   80.5180  220.5812 H   0  0  0  0  0  0  0  0  0  0  0  0
  142.8640   81.3609  222.7344 H   0  0  0  0  0  0  0  0  0  0  0  0
  142.6167   80.0182  224.7933 H   0  0  0  0  0  0  0  0  0  0  0  0
  141.4691   77.8099  224.7096 H   0  0  0  0  0  0  0  0  0  0  0  0
  140.6055   76.0047  223.3329 H   0  0  0  0  0  0  0  0  0  0  0  0
  139.3002   76.8171  222.3919 H   0  0  0  0  0  0  0  0  0  0  0  0
  141.9327   71.7359  224.5753 H   0  0  0  0  0  0  0  0  0  0  0  0
  140.6726   72.8706  225.2105 H   0  0  0  0  0  0  0  0  0  0  0  0
  1  2  2  0
  2  3  1  0
  3  4  2  0
  4  5  1  0
  5  6  2  0
  5  7  1  0
  7  8  1  0
  8  9  1  0
  9 10  1  0
 10 11  2  0
 11 12  1  0
 12 13  1  0
 13 14  1  0
 14 15  1  0
 15 16  1  0
 16 17  1  0
 17 18  1  0
 18 19  1  0
 12 20  2  0
 20 21  1  0
 21 22  1  0
 22 23  1  0
 23 24  1  0
 24 25  1  0
 25 26  2  0
 26 27  1  0
 27 28  2  0
 28 29  1  0
 29 30  2  0
 30 31  1  0
 21 32  2  0
  9 33  1  0
  6  1  1  0
 32 10  1  0
 33  4  1  0
 19 14  1  0
 31 22  1  0
 30 25  1  0
  1 34  1  0
  2 35  1  0
  3 36  1  0
  6 37  1  0
  7 38  1  0
  7 39  1  0
  8 40  1  0
  8 41  1  0
 13 42  1  0
 13 43  1  0
 14 44  1  6
 15 45  1  0
 15 46  1  0
 16 47  1  0
 16 48  1  0
 17 49  1  0
 17 50  1  0
 18 51  1  0
 19 52  1  0
 19 53  1  0
 23 54  1  0
 23 55  1  0
 24 56  1  0
 24 57  1  0
 26 58  1  0
 27 59  1  0
 28 60  1  0
 29 61  1  0
 31 62  1  0
 31 63  1  0
 33 64  1  0
 33 65  1  0
M  END
>  <smiles>  (60) 
c1ccc2c(c1)CCN(c1nc(CC3CCCNC3)nc(N3CCc4ccccc4C3)n1)C2

>  <score_type>  (60) 
oracle

>  <origin>  (60) 
autodockgpu

>  <m_score__min__energy>  (60) 
-10.710000000000001

>  <m_primary>  (60) 
energy

>  <rmsd>  (60) 
10.781540348779

>  <m_score__min__rmsd>  (60) 
10.781540348779

>  <meeko>  (60) 
{"free_energy": -10.06, "intermolecular_energy": -11.25, "internal_energy": -1.21, "cluster_size": 49, "cluster_id": 1, "rank_in_cluster": 36}

>  <energy>  (60) 
-10.64

>  <cluster_rmsd>  (60) 
0.26

>  <cluster>  (60) 
1

$$$$

     RDKit          3D

 65 70  0  0  0  0  0  0  0  0999 V2000
  138.8150   68.3060  226.0960 C   0  0  0  0  0  0  0  0  0  0  0  0
  139.4850   69.2700  226.8460 C   0  0  0  0  0  0  0  0  0  0  0  0
  140.1170   70.3130  226.2050 C   0  0  0  0  0  0  0  0  0  0  0  0
  140.1050   70.4340  224.8170 C   0  0  0  0  0  0  0  0  0  0  0  0
  139.4360   69.4690  224.0940 C   0  0  0  0  0  0  0  0  0  0  0  0
  138.7940   68.4130  224.7160 C   0  0  0  0  0  0  0  0  0  0  0  0
  139.3960   69.5560  222.6110 C   0  0  0  0  0  0  0  0  0  0  0  0
  139.3290   71.0270  222.2550 C   0  0  0  0  0  0  0  0  0  0  0  0
  140.4390   71.7580  222.8270 N   0  0  0  0  0  0  0  0  0  0  0  0
  141.1640   72.6580  221.9950 C   0  0  0  0  0  0  0  0  0  0  0  0
  142.1300   72.1830  221.1960 N   0  0  0  0  0  0  0  0  0  0  0  0
  142.8530   73.0020  220.3800 C   0  0  0  0  0  0  0  0  0  0  0  0
  143.8940   72.3920  219.5360 C   0  0  0  0  0  0  0  0  0  0  0  0
  144.2350   70.9840  219.8950 C   0  0  1  0  0  0  0  0  0  0  0  0
  143.2180   70.0290  219.3690 C   0  0  0  0  0  0  0  0  0  0  0  0
  143.7270   68.6320  219.1260 C   0  0  0  0  0  0  0  0  0  0  0  0
  145.0330   68.7150  218.4020 C   0  0  0  0  0  0  0  0  0  0  0  0
  145.9760   69.3430  219.3290 N   0  0  0  0  0  0  0  0  0  0  0  0
  145.6360   70.7410  219.3390 C   0  0  0  0  0  0  0  0  0  0  0  0
  142.5660   74.3150  220.4010 N   0  0  0  0  0  0  0  0  0  0  0  0
  141.6030   74.8340  221.1900 C   0  0  0  0  0  0  0  0  0  0  0  0
  141.2910   76.2220  221.2190 N   0  0  0  0  0  0  0  0  0  0  0  0
  141.5040   77.0420  220.0410 C   0  0  0  0  0  0  0  0  0  0  0  0
  140.7390   78.3360  220.2150 C   0  0  0  0  0  0  0  0  0  0  0  0
  141.2170   78.9860  221.4590 C   0  0  0  0  0  0  0  0  0  0  0  0
  141.6370   80.2990  221.5140 C   0  0  0  0  0  0  0  0  0  0  0  0
  142.0660   80.8290  222.7120 C   0  0  0  0  0  0  0  0  0  0  0  0
  142.0770   80.0550  223.8470 C   0  0  0  0  0  0  0  0  0  0  0  0
  141.6560   78.7360  223.7910 C   0  0  0  0  0  0  0  0  0  0  0  0
  141.2320   78.2160  222.6050 C   0  0  0  0  0  0  0  0  0  0  0  0
  140.7580   76.8010  222.4460 C   0  0  0  0  0  0  0  0  0  0  0  0
  140.9210   73.9760  221.9740 N   0  0  0  0  0  0  0  0  0  0  0  0
  140.8070   71.5830  224.2150 C   0  0  0  0  0  0  0  0  0  0  0  0
  138.3074   67.4677  226.5956 H   0  0  0  0  0  0  0  0  0  0  0  0
  139.5093   69.1989  227.9434 H   0  0  0  0  0  0  0  0  0  0  0  0
  140.6446   71.0696  226.8044 H   0  0  0  0  0  0  0  0  0  0  0  0
  138.2668   67.6583  224.1139 H   0  0  0  0  0  0  0  0  0  0  0  0
  140.3024   69.1043  222.1815 H   0  0  0  0  0  0  0  0  0  0  0  0
  138.5264   69.0150  222.2094 H   0  0  0  0  0  0  0  0  0  0  0  0
  139.3568   71.1323  221.1604 H   0  0  0  0  0  0  0  0  0  0  0  0
  138.3946   71.4403  222.6624 H   0  0  0  0  0  0  0  0  0  0  0  0
  143.5428   72.4054  218.4936 H   0  0  0  0  0  0  0  0  0  0  0  0
  144.8081   72.9843  219.6894 H   0  0  0  0  0  0  0  0  0  0  0  0
  144.2270   70.8208  220.9828 H   0  0  0  0  0  0  0  0  0  0  0  0
  142.3948   69.9713  220.0963 H   0  0  0  0  0  0  0  0  0  0  0  0
  142.9058   70.4189  218.3889 H   0  0  0  0  0  0  0  0  0  0  0  0
  143.8694   68.1177  220.0879 H   0  0  0  0  0  0  0  0  0  0  0  0
  142.9999   68.0686  218.5227 H   0  0  0  0  0  0  0  0  0  0  0  0
  145.3814   67.7083  218.1278 H   0  0  0  0  0  0  0  0  0  0  0  0
  144.9391   69.2952  217.4722 H   0  0  0  0  0  0  0  0  0  0  0  0
  146.9080   69.2630  218.8910 H   0  0  0  0  0  0  0  0  0  0  0  0
  146.3643   71.2793  219.9633 H   0  0  0  0  0  0  0  0  0  0  0  0
  145.6576   71.1038  218.3008 H   0  0  0  0  0  0  0  0  0  0  0  0
  142.5767   77.2571  219.9271 H   0  0  0  0  0  0  0  0  0  0  0  0
  141.1519   76.5126  219.1433 H   0  0  0  0  0  0  0  0  0  0  0  0
  140.9217   78.9965  219.3545 H   0  0  0  0  0  0  0  0  0  0  0  0
  139.6591   78.1364  220.2783 H   0  0  0  0  0  0  0  0  0  0  0  0
  141.6296   80.9200  220.6061 H   0  0  0  0  0  0  0  0  0  0  0  0
  142.4008   81.8757  222.7594 H   0  0  0  0  0  0  0  0  0  0  0  0
  142.4202   80.4825  224.8007 H   0  0  0  0  0  0  0  0  0  0  0  0
  141.6640   78.1131  224.6976 H   0  0  0  0  0  0  0  0  0  0  0  0
  141.0990   76.2056  223.3058 H   0  0  0  0  0  0  0  0  0  0  0  0
  139.6592   76.7961  222.3952 H   0  0  0  0  0  0  0  0  0  0  0  0
  141.8919   71.4131  224.2789 H   0  0  0  0  0  0  0  0  0  0  0  0
  140.5210   72.4910  224.7662 H   0  0  0  0  0  0  0  0  0  0  0  0
  1  2  2  0
  2  3  1  0
  3  4  2  0
  4  5  1  0
  5  6  2  0
  5  7  1  0
  7  8  1  0
  8  9  1  0
  9 10  1  0
 10 11  2  0
 11 12  1  0
 12 13  1  0
 13 14  1  0
 14 15  1  0
 15 16  1  0
 16 17  1  0
 17 18  1  0
 18 19  1  0
 12 20  2  0
 20 21  1  0
 21 22  1  0
 22 23  1  0
 23 24  1  0
 24 25  1  0
 25 26  2  0
 26 27  1  0
 27 28  2  0
 28 29  1  0
 29 30  2  0
 30 31  1  0
 21 32  2  0
  9 33  1  0
  6  1  1  0
 32 10  1  0
 33  4  1  0
 19 14  1  0
 31 22  1  0
 30 25  1  0
  1 34  1  0
  2 35  1  0
  3 36  1  0
  6 37  1  0
  7 38  1  0
  7 39  1  0
  8 40  1  0
  8 41  1  0
 13 42  1  0
 13 43  1  0
 14 44  1  1
 15 45  1  0
 15 46  1  0
 16 47  1  0
 16 48  1  0
 17 49  1  0
 17 50  1  0
 18 51  1  0
 19 52  1  0
 19 53  1  0
 23 54  1  0
 23 55  1  0
 24 56  1  0
 24 57  1  0
 26 58  1  0
 27 59  1  0
 28 60  1  0
 29 61  1  0
 31 62  1  0
 31 63  1  0
 33 64  1  0
 33 65  1  0
M  END
>  <smiles>  (61) 
c1ccc2c(c1)CCN(c1nc(CC3CCCNC3)nc(N3CCc4ccccc4C3)n1)C2

>  <score_type>  (61) 
oracle

>  <origin>  (61) 
autodockgpu

>  <m_score__min__energy>  (61) 
-10.710000000000001

>  <m_primary>  (61) 
energy

>  <rmsd>  (61) 
10.497432621125464

>  <m_score__min__rmsd>  (61) 
10.497432621125464

>  <meeko>  (61) 
{"free_energy": -9.36, "intermolecular_energy": -10.56, "internal_energy": -1.03, "cluster_size": 49, "cluster_id": 1, "rank_in_cluster": 47}

>  <energy>  (61) 
-10.63

>  <cluster_rmsd>  (61) 
0.13

>  <cluster>  (61) 
1

$$$$

     RDKit          3D

 65 70  0  0  0  0  0  0  0  0999 V2000
  139.2560   68.6650  227.0630 C   0  0  0  0  0  0  0  0  0  0  0  0
  139.9780   69.7210  227.6160 C   0  0  0  0  0  0  0  0  0  0  0  0
  140.4320   70.7350  226.8010 C   0  0  0  0  0  0  0  0  0  0  0  0
  140.1890   70.7350  225.4290 C   0  0  0  0  0  0  0  0  0  0  0  0
  139.4730   69.6800  224.9030 C   0  0  0  0  0  0  0  0  0  0  0  0
  139.0070   68.6520  225.7020 C   0  0  0  0  0  0  0  0  0  0  0  0
  139.1890   69.6380  223.4450 C   0  0  0  0  0  0  0  0  0  0  0  0
  138.9750   71.0680  222.9930 C   0  0  0  0  0  0  0  0  0  0  0  0
  140.1160   71.8990  223.3160 N   0  0  0  0  0  0  0  0  0  0  0  0
  140.6390   72.7570  222.3090 C   0  0  0  0  0  0  0  0  0  0  0  0
  141.3750   72.2370  221.3160 N   0  0  0  0  0  0  0  0  0  0  0  0
  141.9000   73.0160  220.3270 C   0  0  0  0  0  0  0  0  0  0  0  0
  142.6950   72.3570  219.2780 C   0  0  0  0  0  0  0  0  0  0  0  0
  144.1260   72.7820  219.2280 C   0  0  1  0  0  0  0  0  0  0  0  0
  144.3440   74.0430  219.9910 C   0  0  0  0  0  0  0  0  0  0  0  0
  145.7430   74.2290  220.5200 C   0  0  0  0  0  0  0  0  0  0  0  0
  146.1910   72.9520  221.1570 C   0  0  0  0  0  0  0  0  0  0  0  0
  146.2850   71.9680  220.0780 N   0  0  0  0  0  0  0  0  0  0  0  0
  144.9270   71.6010  219.7700 C   0  0  0  0  0  0  0  0  0  0  0  0
  141.6550   74.3370  220.3780 N   0  0  0  0  0  0  0  0  0  0  0  0
  140.9210   74.9010  221.3580 C   0  0  0  0  0  0  0  0  0  0  0  0
  140.6560   76.2970  221.4200 N   0  0  0  0  0  0  0  0  0  0  0  0
  140.5310   77.0710  220.1990 C   0  0  0  0  0  0  0  0  0  0  0  0
  139.8730   78.3910  220.5350 C   0  0  0  0  0  0  0  0  0  0  0  0
  140.7040   79.0700  221.5590 C   0  0  0  0  0  0  0  0  0  0  0  0
  141.1460   80.3710  221.4360 C   0  0  0  0  0  0  0  0  0  0  0  0
  141.9150   80.9280  222.4340 C   0  0  0  0  0  0  0  0  0  0  0  0
  142.2420   80.1930  223.5480 C   0  0  0  0  0  0  0  0  0  0  0  0
  141.8000   78.8860  223.6710 C   0  0  0  0  0  0  0  0  0  0  0  0
  141.0390   78.3390  222.6810 C   0  0  0  0  0  0  0  0  0  0  0  0
  140.5140   76.9330  222.7250 C   0  0  0  0  0  0  0  0  0  0  0  0
  140.4280   74.0820  222.3070 N   0  0  0  0  0  0  0  0  0  0  0  0
  140.7120   71.8610  224.6330 C   0  0  0  0  0  0  0  0  0  0  0  0
  138.8875   67.8494  227.7026 H   0  0  0  0  0  0  0  0  0  0  0  0
  140.1841   69.7448  228.6963 H   0  0  0  0  0  0  0  0  0  0  0  0
  141.0007   71.5655  227.2447 H   0  0  0  0  0  0  0  0  0  0  0  0
  138.4380   67.8234  225.2552 H   0  0  0  0  0  0  0  0  0  0  0  0
  140.0403   69.1954  222.9071 H   0  0  0  0  0  0  0  0  0  0  0  0
  138.3008   69.0236  223.2361 H   0  0  0  0  0  0  0  0  0  0  0  0
  138.8200   71.0800  221.9040 H   0  0  0  0  0  0  0  0  0  0  0  0
  138.0945   71.4691  223.5163 H   0  0  0  0  0  0  0  0  0  0  0  0
  142.6647   71.2717  219.4544 H   0  0  0  0  0  0  0  0  0  0  0  0
  142.2478   72.6485  218.3162 H   0  0  0  0  0  0  0  0  0  0  0  0
  144.4519   73.0226  218.2053 H   0  0  0  0  0  0  0  0  0  0  0  0
  144.1144   74.8889  219.3264 H   0  0  0  0  0  0  0  0  0  0  0  0
  143.6854   73.9901  220.8704 H   0  0  0  0  0  0  0  0  0  0  0  0
  146.4201   74.4867  219.6923 H   0  0  0  0  0  0  0  0  0  0  0  0
  145.7574   75.0416  221.2612 H   0  0  0  0  0  0  0  0  0  0  0  0
  147.1722   73.0883  221.6352 H   0  0  0  0  0  0  0  0  0  0  0  0
  145.4877   72.6252  221.9371 H   0  0  0  0  0  0  0  0  0  0  0  0
  146.7370   71.1340  220.4850 H   0  0  0  0  0  0  0  0  0  0  0  0
  144.9375   70.8019  219.0142 H   0  0  0  0  0  0  0  0  0  0  0  0
  144.4468   71.2620  220.6997 H   0  0  0  0  0  0  0  0  0  0  0  0
  141.5277   77.2514  219.7700 H   0  0  0  0  0  0  0  0  0  0  0  0
  139.9233   76.5222  219.4645 H   0  0  0  0  0  0  0  0  0  0  0  0
  139.8082   79.0162  219.6323 H   0  0  0  0  0  0  0  0  0  0  0  0
  138.8554   78.2241  220.9180 H   0  0  0  0  0  0  0  0  0  0  0  0
  140.8855   80.9610  220.5449 H   0  0  0  0  0  0  0  0  0  0  0  0
  142.2687   81.9652  222.3388 H   0  0  0  0  0  0  0  0  0  0  0  0
  142.8552   80.6429  224.3427 H   0  0  0  0  0  0  0  0  0  0  0  0
  142.0610   78.2940  224.5606 H   0  0  0  0  0  0  0  0  0  0  0  0
  141.0803   76.3577  223.4723 H   0  0  0  0  0  0  0  0  0  0  0  0
  139.4482   76.9580  222.9961 H   0  0  0  0  0  0  0  0  0  0  0  0
  141.8015   71.7503  224.5295 H   0  0  0  0  0  0  0  0  0  0  0  0
  140.4620   72.7976  225.1529 H   0  0  0  0  0  0  0  0  0  0  0  0
  1  2  2  0
  2  3  1  0
  3  4  2  0
  4  5  1  0
  5  6  2  0
  5  7  1  0
  7  8  1  0
  8  9  1  0
  9 10  1  0
 10 11  2  0
 11 12  1  0
 12 13  1  0
 13 14  1  0
 14 15  1  0
 15 16  1  0
 16 17  1  0
 17 18  1  0
 18 19  1  0
 12 20  2  0
 20 21  1  0
 21 22  1  0
 22 23  1  0
 23 24  1  0
 24 25  1  0
 25 26  2  0
 26 27  1  0
 27 28  2  0
 28 29  1  0
 29 30  2  0
 30 31  1  0
 21 32  2  0
  9 33  1  0
  6  1  1  0
 32 10  1  0
 33  4  1  0
 19 14  1  0
 31 22  1  0
 30 25  1  0
  1 34  1  0
  2 35  1  0
  3 36  1  0
  6 37  1  0
  7 38  1  0
  7 39  1  0
  8 40  1  0
  8 41  1  0
 13 42  1  0
 13 43  1  0
 14 44  1  6
 15 45  1  0
 15 46  1  0
 16 47  1  0
 16 48  1  0
 17 49  1  0
 17 50  1  0
 18 51  1  0
 19 52  1  0
 19 53  1  0
 23 54  1  0
 23 55  1  0
 24 56  1  0
 24 57  1  0
 26 58  1  0
 27 59  1  0
 28 60  1  0
 29 61  1  0
 31 62  1  0
 31 63  1  0
 33 64  1  0
 33 65  1  0
M  END
>  <smiles>  (62) 
c1ccc2c(c1)CCN(c1nc(CC3CCCNC3)nc(N3CCc4ccccc4C3)n1)C2

>  <score_type>  (62) 
oracle

>  <origin>  (62) 
autodockgpu

>  <m_score__min__energy>  (62) 
-10.710000000000001

>  <m_primary>  (62) 
energy

>  <rmsd>  (62) 
10.645054219629591

>  <m_score__min__rmsd>  (62) 
10.645054219629591

>  <meeko>  (62) 
{"free_energy": -10.71, "intermolecular_energy": -11.9, "internal_energy": -0.99, "cluster_size": 49, "cluster_id": 1, "rank_in_cluster": 4}

>  <energy>  (62) 
-10.62

>  <cluster_rmsd>  (62) 
0.25

>  <cluster>  (62) 
1

$$$$

     RDKit          3D

 65 70  0  0  0  0  0  0  0  0999 V2000
  139.2520   68.6210  226.9320 C   0  0  0  0  0  0  0  0  0  0  0  0
  139.9700   69.6700  227.5020 C   0  0  0  0  0  0  0  0  0  0  0  0
  140.4230   70.6970  226.7040 C   0  0  0  0  0  0  0  0  0  0  0  0
  140.1830   70.7180  225.3320 C   0  0  0  0  0  0  0  0  0  0  0  0
  139.4700   69.6700  224.7880 C   0  0  0  0  0  0  0  0  0  0  0  0
  139.0050   68.6290  225.5700 C   0  0  0  0  0  0  0  0  0  0  0  0
  139.1890   69.6500  223.3290 C   0  0  0  0  0  0  0  0  0  0  0  0
  138.9720   71.0860  222.8990 C   0  0  0  0  0  0  0  0  0  0  0  0
  140.1100   71.9140  223.2370 N   0  0  0  0  0  0  0  0  0  0  0  0
  140.6340   72.7900  222.2440 C   0  0  0  0  0  0  0  0  0  0  0  0
  141.3780   72.2880  221.2480 N   0  0  0  0  0  0  0  0  0  0  0  0
  141.9020   73.0830  220.2730 C   0  0  0  0  0  0  0  0  0  0  0  0
  142.7060   72.4430  219.2180 C   0  0  0  0  0  0  0  0  0  0  0  0
  144.1430   72.8500  219.2030 C   0  0  1  0  0  0  0  0  0  0  0  0
  144.3620   74.0940  219.9930 C   0  0  0  0  0  0  0  0  0  0  0  0
  145.7530   74.2530  220.5510 C   0  0  0  0  0  0  0  0  0  0  0  0
  146.1730   72.9590  221.1730 C   0  0  0  0  0  0  0  0  0  0  0  0
  146.2750   71.9930  220.0780 N   0  0  0  0  0  0  0  0  0  0  0  0
  144.9190   71.6490  219.7380 C   0  0  0  0  0  0  0  0  0  0  0  0
  141.6500   74.4020  220.3400 N   0  0  0  0  0  0  0  0  0  0  0  0
  140.9080   74.9480  221.3250 C   0  0  0  0  0  0  0  0  0  0  0  0
  140.6350   76.3420  221.4040 N   0  0  0  0  0  0  0  0  0  0  0  0
  140.4900   77.1280  220.1930 C   0  0  0  0  0  0  0  0  0  0  0  0
  139.8280   78.4400  220.5510 C   0  0  0  0  0  0  0  0  0  0  0  0
  140.6660   79.1130  221.5720 C   0  0  0  0  0  0  0  0  0  0  0  0
  141.0980   80.4180  221.4580 C   0  0  0  0  0  0  0  0  0  0  0  0
  141.8750   80.9700  222.4530 C   0  0  0  0  0  0  0  0  0  0  0  0
  142.2210   80.2260  223.5550 C   0  0  0  0  0  0  0  0  0  0  0  0
  141.7880   78.9140  223.6690 C   0  0  0  0  0  0  0  0  0  0  0  0
  141.0190   78.3720  222.6820 C   0  0  0  0  0  0  0  0  0  0  0  0
  140.5040   76.9630  222.7180 C   0  0  0  0  0  0  0  0  0  0  0  0
  140.4150   74.1130  222.2600 N   0  0  0  0  0  0  0  0  0  0  0  0
  140.7050   71.8570  224.5540 C   0  0  0  0  0  0  0  0  0  0  0  0
  138.8849   67.7944  227.5582 H   0  0  0  0  0  0  0  0  0  0  0  0
  140.1739   69.6780  228.5829 H   0  0  0  0  0  0  0  0  0  0  0  0
  140.9888   71.5218  227.1618 H   0  0  0  0  0  0  0  0  0  0  0  0
  138.4383   67.8064  225.1095 H   0  0  0  0  0  0  0  0  0  0  0  0
  140.0426   69.2181  222.7860 H   0  0  0  0  0  0  0  0  0  0  0  0
  138.3029   69.0366  223.1087 H   0  0  0  0  0  0  0  0  0  0  0  0
  138.8188   71.1147  221.8101 H   0  0  0  0  0  0  0  0  0  0  0  0
  138.0895   71.4768  223.4267 H   0  0  0  0  0  0  0  0  0  0  0  0
  142.6587   71.3536  219.3630 H   0  0  0  0  0  0  0  0  0  0  0  0
  142.2784   72.7676  218.2579 H   0  0  0  0  0  0  0  0  0  0  0  0
  144.4915   73.1046  218.1912 H   0  0  0  0  0  0  0  0  0  0  0  0
  144.1550   74.9547  219.3400 H   0  0  0  0  0  0  0  0  0  0  0  0
  143.6866   74.0332  220.8591 H   0  0  0  0  0  0  0  0  0  0  0  0
  146.4486   74.5168  219.7407 H   0  0  0  0  0  0  0  0  0  0  0  0
  145.7637   75.0522  221.3068 H   0  0  0  0  0  0  0  0  0  0  0  0
  147.1467   73.0741  221.6718 H   0  0  0  0  0  0  0  0  0  0  0  0
  145.4511   72.6273  221.9339 H   0  0  0  0  0  0  0  0  0  0  0  0
  146.7080   71.1460  220.4790 H   0  0  0  0  0  0  0  0  0  0  0  0
  144.9339   70.8637  218.9678 H   0  0  0  0  0  0  0  0  0  0  0  0
  144.4171   71.2991  220.6521 H   0  0  0  0  0  0  0  0  0  0  0  0
  141.4801   77.3193  219.7537 H   0  0  0  0  0  0  0  0  0  0  0  0
  139.8767   76.5831  219.4602 H   0  0  0  0  0  0  0  0  0  0  0  0
  139.7488   79.0745  219.6559 H   0  0  0  0  0  0  0  0  0  0  0  0
  138.8161   78.2624  220.9441 H   0  0  0  0  0  0  0  0  0  0  0  0
  140.8233   81.0156  220.5763 H   0  0  0  0  0  0  0  0  0  0  0  0
  142.2198   82.0108  222.3647 H   0  0  0  0  0  0  0  0  0  0  0  0
  142.8415   80.6713  224.3467 H   0  0  0  0  0  0  0  0  0  0  0  0
  142.0628   78.3145  224.5494 H   0  0  0  0  0  0  0  0  0  0  0  0
  141.0829   76.3837  223.4524 H   0  0  0  0  0  0  0  0  0  0  0  0
  139.4415   76.9776  223.0025 H   0  0  0  0  0  0  0  0  0  0  0  0
  141.7948   71.7498  224.4499 H   0  0  0  0  0  0  0  0  0  0  0  0
  140.4531   72.7851  225.0879 H   0  0  0  0  0  0  0  0  0  0  0  0
  1  2  2  0
  2  3  1  0
  3  4  2  0
  4  5  1  0
  5  6  2  0
  5  7  1  0
  7  8  1  0
  8  9  1  0
  9 10  1  0
 10 11  2  0
 11 12  1  0
 12 13  1  0
 13 14  1  0
 14 15  1  0
 15 16  1  0
 16 17  1  0
 17 18  1  0
 18 19  1  0
 12 20  2  0
 20 21  1  0
 21 22  1  0
 22 23  1  0
 23 24  1  0
 24 25  1  0
 25 26  2  0
 26 27  1  0
 27 28  2  0
 28 29  1  0
 29 30  2  0
 30 31  1  0
 21 32  2  0
  9 33  1  0
  6  1  1  0
 32 10  1  0
 33  4  1  0
 19 14  1  0
 31 22  1  0
 30 25  1  0
  1 34  1  0
  2 35  1  0
  3 36  1  0
  6 37  1  0
  7 38  1  0
  7 39  1  0
  8 40  1  0
  8 41  1  0
 13 42  1  0
 13 43  1  0
 14 44  1  6
 15 45  1  0
 15 46  1  0
 16 47  1  0
 16 48  1  0
 17 49  1  0
 17 50  1  0
 18 51  1  0
 19 52  1  0
 19 53  1  0
 23 54  1  0
 23 55  1  0
 24 56  1  0
 24 57  1  0
 26 58  1  0
 27 59  1  0
 28 60  1  0
 29 61  1  0
 31 62  1  0
 31 63  1  0
 33 64  1  0
 33 65  1  0
M  END
>  <smiles>  (63) 
c1ccc2c(c1)CCN(c1nc(CC3CCCNC3)nc(N3CCc4ccccc4C3)n1)C2

>  <score_type>  (63) 
oracle

>  <origin>  (63) 
autodockgpu

>  <m_score__min__energy>  (63) 
-10.710000000000001

>  <m_primary>  (63) 
energy

>  <rmsd>  (63) 
10.602453876110086

>  <m_score__min__rmsd>  (63) 
10.602453876110086

>  <meeko>  (63) 
{"free_energy": -10.69, "intermolecular_energy": -11.88, "internal_energy": -1.01, "cluster_size": 49, "cluster_id": 1, "rank_in_cluster": 7}

>  <energy>  (63) 
-10.48

>  <cluster_rmsd>  (63) 
0.6

>  <cluster>  (63) 
1

$$$$

     RDKit          3D

 65 70  0  0  0  0  0  0  0  0999 V2000
  139.5740   69.0960  227.8380 C   0  0  0  0  0  0  0  0  0  0  0  0
  140.2770   70.2450  228.1920 C   0  0  0  0  0  0  0  0  0  0  0  0
  140.6800   71.1260  227.2120 C   0  0  0  0  0  0  0  0  0  0  0  0
  140.4010   70.9000  225.8660 C   0  0  0  0  0  0  0  0  0  0  0  0
  139.7030   69.7560  225.5380 C   0  0  0  0  0  0  0  0  0  0  0  0
  139.2900   68.8580  226.5050 C   0  0  0  0  0  0  0  0  0  0  0  0
  139.3830   69.4730  224.1150 C   0  0  0  0  0  0  0  0  0  0  0  0
  139.1130   70.8050  223.4470 C   0  0  0  0  0  0  0  0  0  0  0  0
  140.2370   71.7060  223.5970 N   0  0  0  0  0  0  0  0  0  0  0  0
  140.7070   72.4050  222.4500 C   0  0  0  0  0  0  0  0  0  0  0  0
  141.2290   71.7150  221.4260 N   0  0  0  0  0  0  0  0  0  0  0  0
  141.6940   72.3360  220.3050 C   0  0  0  0  0  0  0  0  0  0  0  0
  142.2490   71.4970  219.2300 C   0  0  0  0  0  0  0  0  0  0  0  0
  143.7410   71.4810  219.1660 C   0  0  1  0  0  0  0  0  0  0  0  0
  144.2280   70.5590  218.1010 C   0  0  0  0  0  0  0  0  0  0  0  0
  145.5840   70.8990  217.5410 C   0  0  0  0  0  0  0  0  0  0  0  0
  145.6340   72.3660  217.2570 C   0  0  0  0  0  0  0  0  0  0  0  0
  145.5430   73.0380  218.5540 N   0  0  0  0  0  0  0  0  0  0  0  0
  144.1620   72.9320  218.9480 C   0  0  0  0  0  0  0  0  0  0  0  0
  141.6140   73.6780  220.2560 N   0  0  0  0  0  0  0  0  0  0  0  0
  141.0980   74.4100  221.2640 C   0  0  0  0  0  0  0  0  0  0  0  0
  141.0090   75.8290  221.2220 N   0  0  0  0  0  0  0  0  0  0  0  0
  141.4680   76.5550  220.0520 C   0  0  0  0  0  0  0  0  0  0  0  0
  140.9040   77.9570  220.1080 C   0  0  0  0  0  0  0  0  0  0  0  0
  141.3490   78.5800  221.3780 C   0  0  0  0  0  0  0  0  0  0  0  0
  141.9640   79.8130  221.4420 C   0  0  0  0  0  0  0  0  0  0  0  0
  142.3470   80.3220  222.6640 C   0  0  0  0  0  0  0  0  0  0  0  0
  142.1200   79.6060  223.8150 C   0  0  0  0  0  0  0  0  0  0  0  0
  141.5030   78.3660  223.7500 C   0  0  0  0  0  0  0  0  0  0  0  0
  141.1250   77.8670  222.5390 C   0  0  0  0  0  0  0  0  0  0  0  0
  140.4510   76.5370  222.3690 C   0  0  0  0  0  0  0  0  0  0  0  0
  140.6530   73.7410  222.3460 N   0  0  0  0  0  0  0  0  0  0  0  0
  140.8680   71.8960  224.8840 C   0  0  0  0  0  0  0  0  0  0  0  0
  139.2477   68.3845  228.6109 H   0  0  0  0  0  0  0  0  0  0  0  0
  140.5092   70.4481  229.2479 H   0  0  0  0  0  0  0  0  0  0  0  0
  141.2360   72.0305  227.4998 H   0  0  0  0  0  0  0  0  0  0  0  0
  138.7352   67.9537  226.2142 H   0  0  0  0  0  0  0  0  0  0  0  0
  140.2335   68.9725  223.6291 H   0  0  0  0  0  0  0  0  0  0  0  0
  138.5092   68.8097  224.0342 H   0  0  0  0  0  0  0  0  0  0  0  0
  138.9283   70.6377  222.3756 H   0  0  0  0  0  0  0  0  0  0  0  0
  138.2349   71.2623  223.9264 H   0  0  0  0  0  0  0  0  0  0  0  0
  141.9004   70.4652  219.3845 H   0  0  0  0  0  0  0  0  0  0  0  0
  141.8993   71.9310  218.2816 H   0  0  0  0  0  0  0  0  0  0  0  0
  144.1913   71.0918  220.0911 H   0  0  0  0  0  0  0  0  0  0  0  0
  144.2770   69.5444  218.5232 H   0  0  0  0  0  0  0  0  0  0  0  0
  143.5175   70.6486  217.2660 H   0  0  0  0  0  0  0  0  0  0  0  0
  146.3624   70.6374  218.2729 H   0  0  0  0  0  0  0  0  0  0  0  0
  145.7583   70.3328  216.6142 H   0  0  0  0  0  0  0  0  0  0  0  0
  146.5798   72.6256  216.7589 H   0  0  0  0  0  0  0  0  0  0  0  0
  144.8153   72.6724  216.5893 H   0  0  0  0  0  0  0  0  0  0  0  0
  145.7290   74.0380  218.3760 H   0  0  0  0  0  0  0  0  0  0  0  0
  144.0160   73.4891  219.8852 H   0  0  0  0  0  0  0  0  0  0  0  0
  143.5441   73.3478  218.1385 H   0  0  0  0  0  0  0  0  0  0  0  0
  142.5672   76.5967  220.0483 H   0  0  0  0  0  0  0  0  0  0  0  0
  141.1299   76.0481  219.1362 H   0  0  0  0  0  0  0  0  0  0  0  0
  141.2755   78.5431  219.2545 H   0  0  0  0  0  0  0  0  0  0  0  0
  139.8054   77.9289  220.0607 H   0  0  0  0  0  0  0  0  0  0  0  0
  142.1479   80.3873  220.5220 H   0  0  0  0  0  0  0  0  0  0  0  0
  142.8365   81.3056  222.7185 H   0  0  0  0  0  0  0  0  0  0  0  0
  142.4278   80.0168  224.7879 H   0  0  0  0  0  0  0  0  0  0  0  0
  141.3199   77.7893  224.6686 H   0  0  0  0  0  0  0  0  0  0  0  0
  140.6035   75.9344  223.2765 H   0  0  0  0  0  0  0  0  0  0  0  0
  139.3762   76.6997  222.2005 H   0  0  0  0  0  0  0  0  0  0  0  0
  141.9573   71.7985  224.7661 H   0  0  0  0  0  0  0  0  0  0  0  0
  140.6028   72.8972  225.2545 H   0  0  0  0  0  0  0  0  0  0  0  0
  1  2  2  0
  2  3  1  0
  3  4  2  0
  4  5  1  0
  5  6  2  0
  5  7  1  0
  7  8  1  0
  8  9  1  0
  9 10  1  0
 10 11  2  0
 11 12  1  0
 12 13  1  0
 13 14  1  0
 14 15  1  0
 15 16  1  0
 16 17  1  0
 17 18  1  0
 18 19  1  0
 12 20  2  0
 20 21  1  0
 21 22  1  0
 22 23  1  0
 23 24  1  0
 24 25  1  0
 25 26  2  0
 26 27  1  0
 27 28  2  0
 28 29  1  0
 29 30  2  0
 30 31  1  0
 21 32  2  0
  9 33  1  0
  6  1  1  0
 32 10  1  0
 33  4  1  0
 19 14  1  0
 31 22  1  0
 30 25  1  0
  1 34  1  0
  2 35  1  0
  3 36  1  0
  6 37  1  0
  7 38  1  0
  7 39  1  0
  8 40  1  0
  8 41  1  0
 13 42  1  0
 13 43  1  0
 14 44  1  1
 15 45  1  0
 15 46  1  0
 16 47  1  0
 16 48  1  0
 17 49  1  0
 17 50  1  0
 18 51  1  0
 19 52  1  0
 19 53  1  0
 23 54  1  0
 23 55  1  0
 24 56  1  0
 24 57  1  0
 26 58  1  0
 27 59  1  0
 28 60  1  0
 29 61  1  0
 31 62  1  0
 31 63  1  0
 33 64  1  0
 33 65  1  0
M  END
>  <smiles>  (64) 
c1ccc2c(c1)CCN(c1nc(CC3CCCNC3)nc(N3CCc4ccccc4C3)n1)C2

>  <score_type>  (64) 
oracle

>  <origin>  (64) 
autodockgpu

>  <m_score__min__energy>  (64) 
-10.710000000000001

>  <m_primary>  (64) 
energy

>  <rmsd>  (64) 
10.80898366222307

>  <m_score__min__rmsd>  (64) 
10.80898366222307

>  <meeko>  (64) 
{"free_energy": -10.16, "intermolecular_energy": -11.36, "internal_energy": -0.96, "cluster_size": 49, "cluster_id": 1, "rank_in_cluster": 30}

>  <energy>  (64) 
-10.44

>  <cluster_rmsd>  (64) 
0.63

>  <cluster>  (64) 
1

$$$$

     RDKit          3D

 65 70  0  0  0  0  0  0  0  0999 V2000
  139.2360   68.0320  225.6230 C   0  0  0  0  0  0  0  0  0  0  0  0
  139.8130   69.0000  226.4410 C   0  0  0  0  0  0  0  0  0  0  0  0
  140.1950   70.2090  225.9000 C   0  0  0  0  0  0  0  0  0  0  0  0
  140.0180   70.4930  224.5480 C   0  0  0  0  0  0  0  0  0  0  0  0
  139.4450   69.5200  223.7570 C   0  0  0  0  0  0  0  0  0  0  0  0
  139.0540   68.3010  224.2780 C   0  0  0  0  0  0  0  0  0  0  0  0
  139.2360   69.7790  222.3080 C   0  0  0  0  0  0  0  0  0  0  0  0
  138.8920   71.2470  222.1640 C   0  0  0  0  0  0  0  0  0  0  0  0
  139.9210   72.0880  222.7390 N   0  0  0  0  0  0  0  0  0  0  0  0
  140.3970   73.1950  221.9820 C   0  0  0  0  0  0  0  0  0  0  0  0
  141.1230   72.9750  220.8760 N   0  0  0  0  0  0  0  0  0  0  0  0
  141.6030   74.0000  220.1160 C   0  0  0  0  0  0  0  0  0  0  0  0
  142.3900   73.6630  218.9190 C   0  0  0  0  0  0  0  0  0  0  0  0
  143.8600   73.8810  219.0640 C   0  0  1  0  0  0  0  0  0  0  0  0
  144.2160   74.2640  220.4590 C   0  0  0  0  0  0  0  0  0  0  0  0
  145.6240   73.9190  220.8710 C   0  0  0  0  0  0  0  0  0  0  0  0
  145.9210   72.5160  220.4450 C   0  0  0  0  0  0  0  0  0  0  0  0
  145.9070   72.5220  218.9810 N   0  0  0  0  0  0  0  0  0  0  0  0
  144.5190   72.5810  218.6070 C   0  0  0  0  0  0  0  0  0  0  0  0
  141.3230   75.2540  220.5130 N   0  0  0  0  0  0  0  0  0  0  0  0
  140.5980   75.5200  221.6180 C   0  0  0  0  0  0  0  0  0  0  0  0
  140.2970   76.8430  222.0460 N   0  0  0  0  0  0  0  0  0  0  0  0
  139.2070   77.5780  221.4310 C   0  0  0  0  0  0  0  0  0  0  0  0
  138.8640   78.7540  222.3190 C   0  0  0  0  0  0  0  0  0  0  0  0
  140.0870   79.5760  222.4840 C   0  0  0  0  0  0  0  0  0  0  0  0
  140.1220   80.9370  222.2570 C   0  0  0  0  0  0  0  0  0  0  0  0
  141.3000   81.6290  222.4340 C   0  0  0  0  0  0  0  0  0  0  0  0
  142.4370   80.9690  222.8330 C   0  0  0  0  0  0  0  0  0  0  0  0
  142.4030   79.6020  223.0600 C   0  0  0  0  0  0  0  0  0  0  0  0
  141.2350   78.9220  222.8840 C   0  0  0  0  0  0  0  0  0  0  0  0
  141.0990   77.4430  223.1060 C   0  0  0  0  0  0  0  0  0  0  0  0
  140.1500   74.4670  222.3290 N   0  0  0  0  0  0  0  0  0  0  0  0
  140.4550   71.8120  224.0540 C   0  0  0  0  0  0  0  0  0  0  0  0
  138.9278   67.0628  226.0421 H   0  0  0  0  0  0  0  0  0  0  0  0
  139.9631   68.8011  227.5124 H   0  0  0  0  0  0  0  0  0  0  0  0
  140.6510   70.9683  226.5523 H   0  0  0  0  0  0  0  0  0  0  0  0
  138.5978   67.5442  223.6229 H   0  0  0  0  0  0  0  0  0  0  0  0
  140.1541   69.5497  221.7473 H   0  0  0  0  0  0  0  0  0  0  0  0
  138.4292   69.1465  221.9092 H   0  0  0  0  0  0  0  0  0  0  0  0
  138.7884   71.4875  221.0956 H   0  0  0  0  0  0  0  0  0  0  0  0
  137.9498   71.4366  222.6991 H   0  0  0  0  0  0  0  0  0  0  0  0
  142.2214   72.6016  218.6843 H   0  0  0  0  0  0  0  0  0  0  0  0
  142.0504   74.3388  218.1203 H   0  0  0  0  0  0  0  0  0  0  0  0
  144.2168   74.7215  218.4506 H   0  0  0  0  0  0  0  0  0  0  0  0
  144.0876   75.3520  220.5582 H   0  0  0  0  0  0  0  0  0  0  0  0
  143.5510   73.6858  221.1174 H   0  0  0  0  0  0  0  0  0  0  0  0
  146.3304   74.6096  220.3873 H   0  0  0  0  0  0  0  0  0  0  0  0
  145.7263   74.0077  221.9626 H   0  0  0  0  0  0  0  0  0  0  0  0
  146.9092   72.2061  220.8156 H   0  0  0  0  0  0  0  0  0  0  0  0
  145.1819   71.8091  220.8500 H   0  0  0  0  0  0  0  0  0  0  0  0
  146.2590   71.5970  218.6850 H   0  0  0  0  0  0  0  0  0  0  0  0
  144.4425   72.5095  217.5120 H   0  0  0  0  0  0  0  0  0  0  0  0
  143.9985   71.7448  219.0967 H   0  0  0  0  0  0  0  0  0  0  0  0
  139.5155   77.9391  220.4388 H   0  0  0  0  0  0  0  0  0  0  0  0
  138.3298   76.9249  221.3126 H   0  0  0  0  0  0  0  0  0  0  0  0
  138.0703   79.3554  221.8518 H   0  0  0  0  0  0  0  0  0  0  0  0
  138.5054   78.4020  223.2975 H   0  0  0  0  0  0  0  0  0  0  0  0
  139.2130   81.4669  221.9361 H   0  0  0  0  0  0  0  0  0  0  0  0
  141.3304   82.7139  222.2552 H   0  0  0  0  0  0  0  0  0  0  0  0
  143.3753   81.5260  222.9724 H   0  0  0  0  0  0  0  0  0  0  0  0
  143.3114   79.0703  223.3796 H   0  0  0  0  0  0  0  0  0  0  0  0
  142.0983   76.9833  223.1092 H   0  0  0  0  0  0  0  0  0  0  0  0
  140.6015   77.2707  224.0718 H   0  0  0  0  0  0  0  0  0  0  0  0
  141.5538   71.8293  224.0046 H   0  0  0  0  0  0  0  0  0  0  0  0
  140.0824   72.5811  224.7466 H   0  0  0  0  0  0  0  0  0  0  0  0
  1  2  2  0
  2  3  1  0
  3  4  2  0
  4  5  1  0
  5  6  2  0
  5  7  1  0
  7  8  1  0
  8  9  1  0
  9 10  1  0
 10 11  2  0
 11 12  1  0
 12 13  1  0
 13 14  1  0
 14 15  1  0
 15 16  1  0
 16 17  1  0
 17 18  1  0
 18 19  1  0
 12 20  2  0
 20 21  1  0
 21 22  1  0
 22 23  1  0
 23 24  1  0
 24 25  1  0
 25 26  2  0
 26 27  1  0
 27 28  2  0
 28 29  1  0
 29 30  2  0
 30 31  1  0
 21 32  2  0
  9 33  1  0
  6  1  1  0
 32 10  1  0
 33  4  1  0
 19 14  1  0
 31 22  1  0
 30 25  1  0
  1 34  1  0
  2 35  1  0
  3 36  1  0
  6 37  1  0
  7 38  1  0
  7 39  1  0
  8 40  1  0
  8 41  1  0
 13 42  1  0
 13 43  1  0
 14 44  1  6
 15 45  1  0
 15 46  1  0
 16 47  1  0
 16 48  1  0
 17 49  1  0
 17 50  1  0
 18 51  1  0
 19 52  1  0
 19 53  1  0
 23 54  1  0
 23 55  1  0
 24 56  1  0
 24 57  1  0
 26 58  1  0
 27 59  1  0
 28 60  1  0
 29 61  1  0
 31 62  1  0
 31 63  1  0
 33 64  1  0
 33 65  1  0
M  END
>  <smiles>  (65) 
c1ccc2c(c1)CCN(c1nc(CC3CCCNC3)nc(N3CCc4ccccc4C3)n1)C2

>  <score_type>  (65) 
oracle

>  <origin>  (65) 
autodockgpu

>  <m_score__min__energy>  (65) 
-10.710000000000001

>  <m_primary>  (65) 
energy

>  <rmsd>  (65) 
10.339533462543304

>  <m_score__min__rmsd>  (65) 
10.339533462543304

>  <meeko>  (65) 
{"free_energy": -9.92, "intermolecular_energy": -11.11, "internal_energy": -1.13, "cluster_size": 49, "cluster_id": 1, "rank_in_cluster": 40}

>  <energy>  (65) 
-10.4

>  <cluster_rmsd>  (65) 
0.65

>  <cluster>  (65) 
1

$$$$

     RDKit          3D

 65 70  0  0  0  0  0  0  0  0999 V2000
  139.3050   68.3430  226.4040 C   0  0  0  0  0  0  0  0  0  0  0  0
  139.9710   69.3560  227.0890 C   0  0  0  0  0  0  0  0  0  0  0  0
  140.3990   70.4740  226.4060 C   0  0  0  0  0  0  0  0  0  0  0  0
  140.1820   70.6210  225.0380 C   0  0  0  0  0  0  0  0  0  0  0  0
  139.5200   69.6070  224.3790 C   0  0  0  0  0  0  0  0  0  0  0  0
  139.0820   68.4770  225.0440 C   0  0  0  0  0  0  0  0  0  0  0  0
  139.2660   69.7200  222.9190 C   0  0  0  0  0  0  0  0  0  0  0  0
  139.0020   71.1830  222.6270 C   0  0  0  0  0  0  0  0  0  0  0  0
  140.1010   72.0150  223.0690 N   0  0  0  0  0  0  0  0  0  0  0  0
  140.6080   73.0030  222.1780 C   0  0  0  0  0  0  0  0  0  0  0  0
  141.3570   72.6260  221.1320 N   0  0  0  0  0  0  0  0  0  0  0  0
  141.8670   73.5320  220.2510 C   0  0  0  0  0  0  0  0  0  0  0  0
  142.6780   73.0260  219.1310 C   0  0  0  0  0  0  0  0  0  0  0  0
  144.1400   73.3060  219.2510 C   0  0  1  0  0  0  0  0  0  0  0  0
  144.4000   74.4380  220.1830 C   0  0  0  0  0  0  0  0  0  0  0  0
  145.7550   74.4180  220.8420 C   0  0  0  0  0  0  0  0  0  0  0  0
  146.0250   73.0350  221.3460 C   0  0  0  0  0  0  0  0  0  0  0  0
  146.1280   72.1810  220.1620 N   0  0  0  0  0  0  0  0  0  0  0  0
  144.7770   71.9930  219.7020 C   0  0  0  0  0  0  0  0  0  0  0  0
  141.5930   74.8310  220.4630 N   0  0  0  0  0  0  0  0  0  0  0  0
  140.8450   75.2540  221.5030 C   0  0  0  0  0  0  0  0  0  0  0  0
  140.5490   76.6260  221.7360 N   0  0  0  0  0  0  0  0  0  0  0  0
  139.7410   77.3700  220.7870 C   0  0  0  0  0  0  0  0  0  0  0  0
  139.2640   78.6390  221.4580 C   0  0  0  0  0  0  0  0  0  0  0  0
  140.4570   79.3950  221.9100 C   0  0  0  0  0  0  0  0  0  0  0  0
  140.6690   80.7250  221.6110 C   0  0  0  0  0  0  0  0  0  0  0  0
  141.8050   81.3550  222.0700 C   0  0  0  0  0  0  0  0  0  0  0  0
  142.7250   80.6640  222.8210 C   0  0  0  0  0  0  0  0  0  0  0  0
  142.5130   79.3280  223.1200 C   0  0  0  0  0  0  0  0  0  0  0  0
  141.3870   78.7090  222.6650 C   0  0  0  0  0  0  0  0  0  0  0  0
  141.0700   77.2670  222.9380 C   0  0  0  0  0  0  0  0  0  0  0  0
  140.3680   74.3130  222.3400 N   0  0  0  0  0  0  0  0  0  0  0  0
  140.6730   71.8500  224.3870 C   0  0  0  0  0  0  0  0  0  0  0  0
  138.9595   67.4454  226.9379 H   0  0  0  0  0  0  0  0  0  0  0  0
  140.1546   69.2644  228.1697 H   0  0  0  0  0  0  0  0  0  0  0  0
  140.9247   71.2695  226.9545 H   0  0  0  0  0  0  0  0  0  0  0  0
  138.5560   67.6838  224.4924 H   0  0  0  0  0  0  0  0  0  0  0  0
  140.1450   69.3749  222.3549 H   0  0  0  0  0  0  0  0  0  0  0  0
  138.4083   69.0993  222.6207 H   0  0  0  0  0  0  0  0  0  0  0  0
  138.8675   71.3133  221.5431 H   0  0  0  0  0  0  0  0  0  0  0  0
  138.0959   71.4873  223.1713 H   0  0  0  0  0  0  0  0  0  0  0  0
  142.5403   71.9363  219.0715 H   0  0  0  0  0  0  0  0  0  0  0  0
  142.3309   73.5524  218.2296 H   0  0  0  0  0  0  0  0  0  0  0  0
  144.5797   73.6317  218.2967 H   0  0  0  0  0  0  0  0  0  0  0  0
  144.3098   75.3758  219.6152 H   0  0  0  0  0  0  0  0  0  0  0  0
  143.6613   74.3470  220.9930 H   0  0  0  0  0  0  0  0  0  0  0  0
  146.5261   74.7023  220.1108 H   0  0  0  0  0  0  0  0  0  0  0  0
  145.7745   75.1316  221.6789 H   0  0  0  0  0  0  0  0  0  0  0  0
  146.9664   73.0135  221.9146 H   0  0  0  0  0  0  0  0  0  0  0  0
  145.2262   72.6911  222.0196 H   0  0  0  0  0  0  0  0  0  0  0  0
  146.4630   71.2630  220.4950 H   0  0  0  0  0  0  0  0  0  0  0  0
  144.7844   71.2919  218.8544 H   0  0  0  0  0  0  0  0  0  0  0  0
  144.1841   71.5969  220.5396 H   0  0  0  0  0  0  0  0  0  0  0  0
  140.3443   77.6217  219.9023 H   0  0  0  0  0  0  0  0  0  0  0  0
  138.8799   76.7647  220.4674 H   0  0  0  0  0  0  0  0  0  0  0  0
  138.6869   79.2446  220.7438 H   0  0  0  0  0  0  0  0  0  0  0  0
  138.6172   78.3983  222.3145 H   0  0  0  0  0  0  0  0  0  0  0  0
  139.9344   81.2799  221.0089 H   0  0  0  0  0  0  0  0  0  0  0  0
  141.9762   82.4157  221.8343 H   0  0  0  0  0  0  0  0  0  0  0  0
  143.6303   81.1718  223.1850 H   0  0  0  0  0  0  0  0  0  0  0  0
  143.2477   78.7710  223.7200 H   0  0  0  0  0  0  0  0  0  0  0  0
  141.9860   76.7485  223.2576 H   0  0  0  0  0  0  0  0  0  0  0  0
  140.3093   77.2121  223.7307 H   0  0  0  0  0  0  0  0  0  0  0  0
  141.7679   71.7943  224.2973 H   0  0  0  0  0  0  0  0  0  0  0  0
  140.3745   72.7107  225.0036 H   0  0  0  0  0  0  0  0  0  0  0  0
  1  2  2  0
  2  3  1  0
  3  4  2  0
  4  5  1  0
  5  6  2  0
  5  7  1  0
  7  8  1  0
  8  9  1  0
  9 10  1  0
 10 11  2  0
 11 12  1  0
 12 13  1  0
 13 14  1  0
 14 15  1  0
 15 16  1  0
 16 17  1  0
 17 18  1  0
 18 19  1  0
 12 20  2  0
 20 21  1  0
 21 22  1  0
 22 23  1  0
 23 24  1  0
 24 25  1  0
 25 26  2  0
 26 27  1  0
 27 28  2  0
 28 29  1  0
 29 30  2  0
 30 31  1  0
 21 32  2  0
  9 33  1  0
  6  1  1  0
 32 10  1  0
 33  4  1  0
 19 14  1  0
 31 22  1  0
 30 25  1  0
  1 34  1  0
  2 35  1  0
  3 36  1  0
  6 37  1  0
  7 38  1  0
  7 39  1  0
  8 40  1  0
  8 41  1  0
 13 42  1  0
 13 43  1  0
 14 44  1  6
 15 45  1  0
 15 46  1  0
 16 47  1  0
 16 48  1  0
 17 49  1  0
 17 50  1  0
 18 51  1  0
 19 52  1  0
 19 53  1  0
 23 54  1  0
 23 55  1  0
 24 56  1  0
 24 57  1  0
 26 58  1  0
 27 59  1  0
 28 60  1  0
 29 61  1  0
 31 62  1  0
 31 63  1  0
 33 64  1  0
 33 65  1  0
M  END
>  <smiles>  (66) 
c1ccc2c(c1)CCN(c1nc(CC3CCCNC3)nc(N3CCc4ccccc4C3)n1)C2

>  <score_type>  (66) 
oracle

>  <origin>  (66) 
autodockgpu

>  <m_score__min__energy>  (66) 
-10.710000000000001

>  <m_primary>  (66) 
energy

>  <rmsd>  (66) 
10.495290789082436

>  <m_score__min__rmsd>  (66) 
10.495290789082436

>  <meeko>  (66) 
{"free_energy": -10.48, "intermolecular_energy": -11.67, "internal_energy": -1.12, "cluster_size": 49, "cluster_id": 1, "rank_in_cluster": 13}

>  <energy>  (66) 
-10.29

>  <cluster_rmsd>  (66) 
0.83

>  <cluster>  (66) 
1

$$$$

     RDKit          3D

 65 70  0  0  0  0  0  0  0  0999 V2000
  139.6080   68.8580  227.5220 C   0  0  0  0  0  0  0  0  0  0  0  0
  140.3480   69.9690  227.9200 C   0  0  0  0  0  0  0  0  0  0  0  0
  140.7010   70.9210  226.9890 C   0  0  0  0  0  0  0  0  0  0  0  0
  140.3370   70.8040  225.6500 C   0  0  0  0  0  0  0  0  0  0  0  0
  139.6050   69.6960  225.2770 C   0  0  0  0  0  0  0  0  0  0  0  0
  139.2390   68.7280  226.1950 C   0  0  0  0  0  0  0  0  0  0  0  0
  139.1930   69.5290  223.8590 C   0  0  0  0  0  0  0  0  0  0  0  0
  138.9020   70.9120  223.3150 C   0  0  0  0  0  0  0  0  0  0  0  0
  140.0450   71.7880  223.4650 N   0  0  0  0  0  0  0  0  0  0  0  0
  140.4540   72.5710  222.3490 C   0  0  0  0  0  0  0  0  0  0  0  0
  140.9360   71.9610  221.2570 N   0  0  0  0  0  0  0  0  0  0  0  0
  141.3420   72.6640  220.1620 C   0  0  0  0  0  0  0  0  0  0  0  0
  141.8580   71.9100  219.0080 C   0  0  0  0  0  0  0  0  0  0  0  0
  143.3480   71.8470  218.9260 C   0  0  1  0  0  0  0  0  0  0  0  0
  143.8950   72.9810  218.1290 C   0  0  0  0  0  0  0  0  0  0  0  0
  145.3090   73.3720  218.4720 C   0  0  0  0  0  0  0  0  0  0  0  0
  145.4400   73.4500  219.9600 C   0  0  0  0  0  0  0  0  0  0  0  0
  145.2550   72.0870  220.4590 N   0  0  0  0  0  0  0  0  0  0  0  0
  143.8410   71.8300  220.3710 C   0  0  0  0  0  0  0  0  0  0  0  0
  141.2420   74.0040  220.2100 N   0  0  0  0  0  0  0  0  0  0  0  0
  140.7630   74.6580  221.2880 C   0  0  0  0  0  0  0  0  0  0  0  0
  140.6540   76.0750  221.3470 N   0  0  0  0  0  0  0  0  0  0  0  0
  140.8130   76.8710  220.1440 C   0  0  0  0  0  0  0  0  0  0  0  0
  140.2670   78.2560  220.4110 C   0  0  0  0  0  0  0  0  0  0  0  0
  140.9980   78.8210  221.5710 C   0  0  0  0  0  0  0  0  0  0  0  0
  141.5990   80.0620  221.5560 C   0  0  0  0  0  0  0  0  0  0  0  0
  142.2600   80.5150  222.6770 C   0  0  0  0  0  0  0  0  0  0  0  0
  142.3210   79.7350  223.8070 C   0  0  0  0  0  0  0  0  0  0  0  0
  141.7170   78.4870  223.8220 C   0  0  0  0  0  0  0  0  0  0  0  0
  141.0650   78.0440  222.7100 C   0  0  0  0  0  0  0  0  0  0  0  0
  140.3820   76.7100  222.6320 C   0  0  0  0  0  0  0  0  0  0  0  0
  140.3780   73.9100  222.3390 N   0  0  0  0  0  0  0  0  0  0  0  0
  140.7570   71.8700  224.7210 C   0  0  0  0  0  0  0  0  0  0  0  0
  139.3197   68.0911  228.2560 H   0  0  0  0  0  0  0  0  0  0  0  0
  140.6488   70.0855  228.9716 H   0  0  0  0  0  0  0  0  0  0  0  0
  141.2851   71.7956  227.3114 H   0  0  0  0  0  0  0  0  0  0  0  0
  138.6545   67.8547  225.8698 H   0  0  0  0  0  0  0  0  0  0  0  0
  140.0042   69.0598  223.2830 H   0  0  0  0  0  0  0  0  0  0  0  0
  138.3060   68.8830  223.7821 H   0  0  0  0  0  0  0  0  0  0  0  0
  138.6502   70.8313  222.2473 H   0  0  0  0  0  0  0  0  0  0  0  0
  138.0614   71.3382  223.8822 H   0  0  0  0  0  0  0  0  0  0  0  0
  141.4734   70.8813  219.0698 H   0  0  0  0  0  0  0  0  0  0  0  0
  141.5172   72.4430  218.1081 H   0  0  0  0  0  0  0  0  0  0  0  0
  143.6971   70.9481  218.3967 H   0  0  0  0  0  0  0  0  0  0  0  0
  143.8669   72.6972  217.0666 H   0  0  0  0  0  0  0  0  0  0  0  0
  143.2677   73.8539  218.3626 H   0  0  0  0  0  0  0  0  0  0  0  0
  146.0068   72.6183  218.0784 H   0  0  0  0  0  0  0  0  0  0  0  0
  145.5459   74.3484  218.0242 H   0  0  0  0  0  0  0  0  0  0  0  0
  146.4367   73.8248  220.2358 H   0  0  0  0  0  0  0  0  0  0  0  0
  144.6987   74.1386  220.3917 H   0  0  0  0  0  0  0  0  0  0  0  0
  145.4940   72.1110  221.4630 H   0  0  0  0  0  0  0  0  0  0  0  0
  143.6314   70.8420  220.8067 H   0  0  0  0  0  0  0  0  0  0  0  0
  143.3152   72.6251  220.9199 H   0  0  0  0  0  0  0  0  0  0  0  0
  141.8789   76.9366  219.8803 H   0  0  0  0  0  0  0  0  0  0  0  0
  140.2693   76.4055  219.3087 H   0  0  0  0  0  0  0  0  0  0  0  0
  140.4186   78.8937  219.5276 H   0  0  0  0  0  0  0  0  0  0  0  0
  139.1892   78.2071  220.6255 H   0  0  0  0  0  0  0  0  0  0  0  0
  141.5509   80.6879  220.6527 H   0  0  0  0  0  0  0  0  0  0  0  0
  142.7406   81.5044  222.6675 H   0  0  0  0  0  0  0  0  0  0  0  0
  142.8492   80.1009  224.6998 H   0  0  0  0  0  0  0  0  0  0  0  0
  141.7636   77.8594  224.7242 H   0  0  0  0  0  0  0  0  0  0  0  0
  140.7536   76.0644  223.4414 H   0  0  0  0  0  0  0  0  0  0  0  0
  139.2968   76.8576  222.7350 H   0  0  0  0  0  0  0  0  0  0  0  0
  141.8354   71.7716  224.5278 H   0  0  0  0  0  0  0  0  0  0  0  0
  140.5297   72.8414  225.1843 H   0  0  0  0  0  0  0  0  0  0  0  0
  1  2  2  0
  2  3  1  0
  3  4  2  0
  4  5  1  0
  5  6  2  0
  5  7  1  0
  7  8  1  0
  8  9  1  0
  9 10  1  0
 10 11  2  0
 11 12  1  0
 12 13  1  0
 13 14  1  0
 14 15  1  0
 15 16  1  0
 16 17  1  0
 17 18  1  0
 18 19  1  0
 12 20  2  0
 20 21  1  0
 21 22  1  0
 22 23  1  0
 23 24  1  0
 24 25  1  0
 25 26  2  0
 26 27  1  0
 27 28  2  0
 28 29  1  0
 29 30  2  0
 30 31  1  0
 21 32  2  0
  9 33  1  0
  6  1  1  0
 32 10  1  0
 33  4  1  0
 19 14  1  0
 31 22  1  0
 30 25  1  0
  1 34  1  0
  2 35  1  0
  3 36  1  0
  6 37  1  0
  7 38  1  0
  7 39  1  0
  8 40  1  0
  8 41  1  0
 13 42  1  0
 13 43  1  0
 14 44  1  6
 15 45  1  0
 15 46  1  0
 16 47  1  0
 16 48  1  0
 17 49  1  0
 17 50  1  0
 18 51  1  0
 19 52  1  0
 19 53  1  0
 23 54  1  0
 23 55  1  0
 24 56  1  0
 24 57  1  0
 26 58  1  0
 27 59  1  0
 28 60  1  0
 29 61  1  0
 31 62  1  0
 31 63  1  0
 33 64  1  0
 33 65  1  0
M  END
>  <smiles>  (67) 
c1ccc2c(c1)CCN(c1nc(CC3CCCNC3)nc(N3CCc4ccccc4C3)n1)C2

>  <score_type>  (67) 
oracle

>  <origin>  (67) 
autodockgpu

>  <m_score__min__energy>  (67) 
-10.710000000000001

>  <m_primary>  (67) 
energy

>  <rmsd>  (67) 
10.758184443106193

>  <m_score__min__rmsd>  (67) 
10.758184443106193

>  <meeko>  (67) 
{"free_energy": -10.09, "intermolecular_energy": -11.29, "internal_energy": -1.2, "cluster_size": 49, "cluster_id": 1, "rank_in_cluster": 35}

>  <energy>  (67) 
-10.28

>  <cluster_rmsd>  (67) 
0.83

>  <cluster>  (67) 
1

$$$$

     RDKit          3D

 65 70  0  0  0  0  0  0  0  0999 V2000
  139.4510   68.0610  226.4100 C   0  0  0  0  0  0  0  0  0  0  0  0
  140.1360   69.0740  227.0760 C   0  0  0  0  0  0  0  0  0  0  0  0
  140.5160   70.2060  226.3880 C   0  0  0  0  0  0  0  0  0  0  0  0
  140.2330   70.3670  225.0340 C   0  0  0  0  0  0  0  0  0  0  0  0
  139.5540   69.3520  224.3930 C   0  0  0  0  0  0  0  0  0  0  0  0
  139.1620   68.2080  225.0640 C   0  0  0  0  0  0  0  0  0  0  0  0
  139.2300   69.4800  222.9490 C   0  0  0  0  0  0  0  0  0  0  0  0
  138.9330   70.9430  222.6890 C   0  0  0  0  0  0  0  0  0  0  0  0
  140.0410   71.7840  223.0890 N   0  0  0  0  0  0  0  0  0  0  0  0
  140.4920   72.7900  222.1890 C   0  0  0  0  0  0  0  0  0  0  0  0
  141.2580   72.4440  221.1440 N   0  0  0  0  0  0  0  0  0  0  0  0
  141.7160   73.3680  220.2530 C   0  0  0  0  0  0  0  0  0  0  0  0
  142.5500   72.8970  219.1350 C   0  0  0  0  0  0  0  0  0  0  0  0
  143.9950   73.2570  219.2470 C   0  0  1  0  0  0  0  0  0  0  0  0
  144.1980   74.3940  220.1890 C   0  0  0  0  0  0  0  0  0  0  0  0
  145.5580   74.4440  220.8370 C   0  0  0  0  0  0  0  0  0  0  0  0
  145.9090   73.0740  221.3250 C   0  0  0  0  0  0  0  0  0  0  0  0
  146.0510   72.2390  220.1310 N   0  0  0  0  0  0  0  0  0  0  0  0
  144.7090   71.9790  219.6800 C   0  0  0  0  0  0  0  0  0  0  0  0
  141.3730   74.6530  220.4550 N   0  0  0  0  0  0  0  0  0  0  0  0
  140.6060   75.0440  221.4930 C   0  0  0  0  0  0  0  0  0  0  0  0
  140.2390   76.4000  221.7150 N   0  0  0  0  0  0  0  0  0  0  0  0
  141.1030   77.2740  222.4880 C   0  0  0  0  0  0  0  0  0  0  0  0
  140.6860   78.7050  222.2330 C   0  0  0  0  0  0  0  0  0  0  0  0
  139.2570   78.8390  222.6050 C   0  0  0  0  0  0  0  0  0  0  0  0
  138.7830   79.8210  223.4510 C   0  0  0  0  0  0  0  0  0  0  0  0
  137.4380   79.8770  223.7470 C   0  0  0  0  0  0  0  0  0  0  0  0
  136.5710   78.9610  223.2030 C   0  0  0  0  0  0  0  0  0  0  0  0
  137.0470   77.9740  222.3530 C   0  0  0  0  0  0  0  0  0  0  0  0
  138.3780   77.9230  222.0640 C   0  0  0  0  0  0  0  0  0  0  0  0
  138.9860   76.8940  221.1550 C   0  0  0  0  0  0  0  0  0  0  0  0
  140.1830   74.0860  222.3400 N   0  0  0  0  0  0  0  0  0  0  0  0
  140.6770   71.6110  224.3760 C   0  0  0  0  0  0  0  0  0  0  0  0
  139.1424   67.1526  226.9482 H   0  0  0  0  0  0  0  0  0  0  0  0
  140.3725   68.9712  228.1454 H   0  0  0  0  0  0  0  0  0  0  0  0
  141.0562   71.0020  226.9215 H   0  0  0  0  0  0  0  0  0  0  0  0
  138.6204   67.4146  224.5281 H   0  0  0  0  0  0  0  0  0  0  0  0
  140.0859   69.1543  222.3396 H   0  0  0  0  0  0  0  0  0  0  0  0
  138.3674   68.8513  222.6833 H   0  0  0  0  0  0  0  0  0  0  0  0
  138.7451   71.0850  221.6145 H   0  0  0  0  0  0  0  0  0  0  0  0
  138.0499   71.2282  223.2796 H   0  0  0  0  0  0  0  0  0  0  0  0
  142.4716   71.8009  219.0857 H   0  0  0  0  0  0  0  0  0  0  0  0
  142.1721   73.3959  218.2304 H   0  0  0  0  0  0  0  0  0  0  0  0
  144.4080   73.6151  218.2924 H   0  0  0  0  0  0  0  0  0  0  0  0
  144.0501   75.3306  219.6315 H   0  0  0  0  0  0  0  0  0  0  0  0
  143.4722   74.2540  221.0036 H   0  0  0  0  0  0  0  0  0  0  0  0
  146.3057   74.7779  220.1025 H   0  0  0  0  0  0  0  0  0  0  0  0
  145.5448   75.1498  221.6806 H   0  0  0  0  0  0  0  0  0  0  0  0
  146.8544   73.0999  221.8868 H   0  0  0  0  0  0  0  0  0  0  0  0
  145.1361   72.6790  222.0007 H   0  0  0  0  0  0  0  0  0  0  0  0
  146.4390   71.3380  220.4540 H   0  0  0  0  0  0  0  0  0  0  0  0
  144.7489   71.2873  218.8256 H   0  0  0  0  0  0  0  0  0  0  0  0
  144.1467   71.5424  220.5185 H   0  0  0  0  0  0  0  0  0  0  0  0
  141.0028   77.0431  223.5588 H   0  0  0  0  0  0  0  0  0  0  0  0
  142.1519   77.1274  222.1910 H   0  0  0  0  0  0  0  0  0  0  0  0
  141.2963   79.3862  222.8441 H   0  0  0  0  0  0  0  0  0  0  0  0
  140.8308   78.9622  221.1733 H   0  0  0  0  0  0  0  0  0  0  0  0
  139.4756   80.5558  223.8872 H   0  0  0  0  0  0  0  0  0  0  0  0
  137.0575   80.6582  224.4214 H   0  0  0  0  0  0  0  0  0  0  0  0
  135.4984   79.0103  223.4417 H   0  0  0  0  0  0  0  0  0  0  0  0
  136.3560   77.2383  221.9156 H   0  0  0  0  0  0  0  0  0  0  0  0
  138.2852   76.0543  221.0375 H   0  0  0  0  0  0  0  0  0  0  0  0
  139.1887   77.3557  220.1774 H   0  0  0  0  0  0  0  0  0  0  0  0
  141.7671   71.5712  224.2339 H   0  0  0  0  0  0  0  0  0  0  0  0
  140.3973   72.4601  225.0169 H   0  0  0  0  0  0  0  0  0  0  0  0
  1  2  2  0
  2  3  1  0
  3  4  2  0
  4  5  1  0
  5  6  2  0
  5  7  1  0
  7  8  1  0
  8  9  1  0
  9 10  1  0
 10 11  2  0
 11 12  1  0
 12 13  1  0
 13 14  1  0
 14 15  1  0
 15 16  1  0
 16 17  1  0
 17 18  1  0
 18 19  1  0
 12 20  2  0
 20 21  1  0
 21 22  1  0
 22 23  1  0
 23 24  1  0
 24 25  1  0
 25 26  2  0
 26 27  1  0
 27 28  2  0
 28 29  1  0
 29 30  2  0
 30 31  1  0
 21 32  2  0
  9 33  1  0
  6  1  1  0
 32 10  1  0
 33  4  1  0
 19 14  1  0
 31 22  1  0
 30 25  1  0
  1 34  1  0
  2 35  1  0
  3 36  1  0
  6 37  1  0
  7 38  1  0
  7 39  1  0
  8 40  1  0
  8 41  1  0
 13 42  1  0
 13 43  1  0
 14 44  1  6
 15 45  1  0
 15 46  1  0
 16 47  1  0
 16 48  1  0
 17 49  1  0
 17 50  1  0
 18 51  1  0
 19 52  1  0
 19 53  1  0
 23 54  1  0
 23 55  1  0
 24 56  1  0
 24 57  1  0
 26 58  1  0
 27 59  1  0
 28 60  1  0
 29 61  1  0
 31 62  1  0
 31 63  1  0
 33 64  1  0
 33 65  1  0
M  END
>  <smiles>  (68) 
c1ccc2c(c1)CCN(c1nc(CC3CCCNC3)nc(N3CCc4ccccc4C3)n1)C2

>  <score_type>  (68) 
oracle

>  <origin>  (68) 
autodockgpu

>  <m_score__min__energy>  (68) 
-10.710000000000001

>  <m_primary>  (68) 
energy

>  <rmsd>  (68) 
10.70455252447968

>  <m_score__min__rmsd>  (68) 
10.70455252447968

>  <meeko>  (68) 
{"free_energy": -9.76, "intermolecular_energy": -10.95, "internal_energy": -1.09, "cluster_size": 49, "cluster_id": 1, "rank_in_cluster": 42}

>  <energy>  (68) 
-10.26

>  <cluster_rmsd>  (68) 
0.83

>  <cluster>  (68) 
1

$$$$

     RDKit          3D

 65 70  0  0  0  0  0  0  0  0999 V2000
  139.0410   80.4000  223.2260 C   0  0  0  0  0  0  0  0  0  0  0  0
  140.4240   80.3440  223.0740 C   0  0  0  0  0  0  0  0  0  0  0  0
  141.0290   79.1380  222.7920 C   0  0  0  0  0  0  0  0  0  0  0  0
  140.2910   77.9650  222.6530 C   0  0  0  0  0  0  0  0  0  0  0  0
  138.9230   78.0430  222.8080 C   0  0  0  0  0  0  0  0  0  0  0  0
  138.2940   79.2420  223.0910 C   0  0  0  0  0  0  0  0  0  0  0  0
  138.0950   76.8170  222.6690 C   0  0  0  0  0  0  0  0  0  0  0  0
  138.7410   75.9650  221.5960 C   0  0  0  0  0  0  0  0  0  0  0  0
  140.1220   75.6720  221.9170 N   0  0  0  0  0  0  0  0  0  0  0  0
  140.5800   74.3300  221.7940 C   0  0  0  0  0  0  0  0  0  0  0  0
  141.3000   73.9750  220.7210 N   0  0  0  0  0  0  0  0  0  0  0  0
  141.7620   72.7030  220.5550 C   0  0  0  0  0  0  0  0  0  0  0  0
  142.5450   72.4040  219.3450 C   0  0  0  0  0  0  0  0  0  0  0  0
  143.9340   72.9520  219.3560 C   0  0  1  0  0  0  0  0  0  0  0  0
  144.0360   74.1530  220.2320 C   0  0  0  0  0  0  0  0  0  0  0  0
  145.4090   74.4100  220.7970 C   0  0  0  0  0  0  0  0  0  0  0  0
  145.9610   73.1230  221.3250 C   0  0  0  0  0  0  0  0  0  0  0  0
  146.1490   72.2520  220.1640 N   0  0  0  0  0  0  0  0  0  0  0  0
  144.8300   71.8000  219.8030 C   0  0  0  0  0  0  0  0  0  0  0  0
  141.4700   71.8040  221.5120 N   0  0  0  0  0  0  0  0  0  0  0  0
  140.7480   72.1190  222.6070 C   0  0  0  0  0  0  0  0  0  0  0  0
  140.4350   71.1760  223.6240 N   0  0  0  0  0  0  0  0  0  0  0  0
  139.1780   70.4500  223.5850 C   0  0  0  0  0  0  0  0  0  0  0  0
  139.2800   69.2680  224.5230 C   0  0  0  0  0  0  0  0  0  0  0  0
  139.6010   69.7830  225.8760 C   0  0  0  0  0  0  0  0  0  0  0  0
  138.8850   69.4450  227.0050 C   0  0  0  0  0  0  0  0  0  0  0  0
  139.2490   69.9670  228.2280 C   0  0  0  0  0  0  0  0  0  0  0  0
  140.3210   70.8210  228.3230 C   0  0  0  0  0  0  0  0  0  0  0  0
  141.0400   71.1620  227.1890 C   0  0  0  0  0  0  0  0  0  0  0  0
  140.6760   70.6430  225.9820 C   0  0  0  0  0  0  0  0  0  0  0  0
  141.3940   70.9520  224.7000 C   0  0  0  0  0  0  0  0  0  0  0  0
  140.3200   73.3910  222.7160 N   0  0  0  0  0  0  0  0  0  0  0  0
  141.0210   76.7190  222.3500 C   0  0  0  0  0  0  0  0  0  0  0  0
  138.5461   81.3562  223.4514 H   0  0  0  0  0  0  0  0  0  0  0  0
  141.0298   81.2562  223.1783 H   0  0  0  0  0  0  0  0  0  0  0  0
  142.1220   79.1011  222.6738 H   0  0  0  0  0  0  0  0  0  0  0  0
  137.2008   79.2755  223.2088 H   0  0  0  0  0  0  0  0  0  0  0  0
  138.0693   76.2686  223.6222 H   0  0  0  0  0  0  0  0  0  0  0  0
  137.0598   77.0714  222.3977 H   0  0  0  0  0  0  0  0  0  0  0  0
  138.1857   75.0197  221.5065 H   0  0  0  0  0  0  0  0  0  0  0  0
  138.7158   76.5226  220.6481 H   0  0  0  0  0  0  0  0  0  0  0  0
  142.6075   71.3111  219.2374 H   0  0  0  0  0  0  0  0  0  0  0  0
  142.0236   72.8892  218.5067 H   0  0  0  0  0  0  0  0  0  0  0  0
  144.2460   73.3106  218.3640 H   0  0  0  0  0  0  0  0  0  0  0  0
  143.7388   75.0327  219.6422 H   0  0  0  0  0  0  0  0  0  0  0  0
  143.3779   73.9643  221.0930 H   0  0  0  0  0  0  0  0  0  0  0  0
  146.0677   74.7982  220.0061 H   0  0  0  0  0  0  0  0  0  0  0  0
  145.3473   75.1511  221.6075 H   0  0  0  0  0  0  0  0  0  0  0  0
  146.9226   73.2990  221.8293 H   0  0  0  0  0  0  0  0  0  0  0  0
  145.2822   72.6681  222.0614 H   0  0  0  0  0  0  0  0  0  0  0  0
  146.6680   71.4260  220.5020 H   0  0  0  0  0  0  0  0  0  0  0  0
  144.9156   71.0762  218.9791 H   0  0  0  0  0  0  0  0  0  0  0  0
  144.3735   71.3390  220.6913 H   0  0  0  0  0  0  0  0  0  0  0  0
  138.3581   71.1093  223.9060 H   0  0  0  0  0  0  0  0  0  0  0  0
  138.9733   70.1035  222.5613 H   0  0  0  0  0  0  0  0  0  0  0  0
  138.3226   68.7268  224.5470 H   0  0  0  0  0  0  0  0  0  0  0  0
  140.0639   68.5759  224.1817 H   0  0  0  0  0  0  0  0  0  0  0  0
  138.0265   68.7613  226.9301 H   0  0  0  0  0  0  0  0  0  0  0  0
  138.6796   69.6990  229.1302 H   0  0  0  0  0  0  0  0  0  0  0  0
  140.6088   71.2346  229.3008 H   0  0  0  0  0  0  0  0  0  0  0  0
  141.8981   71.8464  227.2619 H   0  0  0  0  0  0  0  0  0  0  0  0
  142.0053   71.8564  224.8354 H   0  0  0  0  0  0  0  0  0  0  0  0
  142.0363   70.0992  224.4351 H   0  0  0  0  0  0  0  0  0  0  0  0
  141.5497   76.3850  223.2549 H   0  0  0  0  0  0  0  0  0  0  0  0
  141.7315   76.9236  221.5356 H   0  0  0  0  0  0  0  0  0  0  0  0
  1  2  2  0
  2  3  1  0
  3  4  2  0
  4  5  1  0
  5  6  2  0
  5  7  1  0
  7  8  1  0
  8  9  1  0
  9 10  1  0
 10 11  2  0
 11 12  1  0
 12 13  1  0
 13 14  1  0
 14 15  1  0
 15 16  1  0
 16 17  1  0
 17 18  1  0
 18 19  1  0
 12 20  2  0
 20 21  1  0
 21 22  1  0
 22 23  1  0
 23 24  1  0
 24 25  1  0
 25 26  2  0
 26 27  1  0
 27 28  2  0
 28 29  1  0
 29 30  2  0
 30 31  1  0
 21 32  2  0
  9 33  1  0
  6  1  1  0
 32 10  1  0
 33  4  1  0
 19 14  1  0
 31 22  1  0
 30 25  1  0
  1 34  1  0
  2 35  1  0
  3 36  1  0
  6 37  1  0
  7 38  1  0
  7 39  1  0
  8 40  1  0
  8 41  1  0
 13 42  1  0
 13 43  1  0
 14 44  1  6
 15 45  1  0
 15 46  1  0
 16 47  1  0
 16 48  1  0
 17 49  1  0
 17 50  1  0
 18 51  1  0
 19 52  1  0
 19 53  1  0
 23 54  1  0
 23 55  1  0
 24 56  1  0
 24 57  1  0
 26 58  1  0
 27 59  1  0
 28 60  1  0
 29 61  1  0
 31 62  1  0
 31 63  1  0
 33 64  1  0
 33 65  1  0
M  END
>  <smiles>  (69) 
c1ccc2c(c1)CCN(c1nc(CC3CCCNC3)nc(N3CCc4ccccc4C3)n1)C2

>  <score_type>  (69) 
oracle

>  <origin>  (69) 
autodockgpu

>  <m_score__min__energy>  (69) 
-10.710000000000001

>  <m_primary>  (69) 
energy

>  <rmsd>  (69) 
4.958611637373079

>  <m_score__min__rmsd>  (69) 
4.958611637373079

>  <meeko>  (69) 
{"free_energy": -10.25, "intermolecular_energy": -11.45, "internal_energy": -1.08, "cluster_size": 49, "cluster_id": 1, "rank_in_cluster": 23}

>  <energy>  (69) 
-10.26

>  <cluster_rmsd>  (69) 
0.84

>  <cluster>  (69) 
1

$$$$

     RDKit          3D

 65 70  0  0  0  0  0  0  0  0999 V2000
  139.5440   69.1970  228.0420 C   0  0  0  0  0  0  0  0  0  0  0  0
  140.2040   70.3870  228.3410 C   0  0  0  0  0  0  0  0  0  0  0  0
  140.5830   71.2310  227.3190 C   0  0  0  0  0  0  0  0  0  0  0  0
  140.3220   70.9260  225.9850 C   0  0  0  0  0  0  0  0  0  0  0  0
  139.6680   69.7440  225.7120 C   0  0  0  0  0  0  0  0  0  0  0  0
  139.2780   68.8820  226.7200 C   0  0  0  0  0  0  0  0  0  0  0  0
  139.3690   69.3770  224.3030 C   0  0  0  0  0  0  0  0  0  0  0  0
  139.0590   70.6630  223.5660 C   0  0  0  0  0  0  0  0  0  0  0  0
  140.1480   71.6100  223.6770 N   0  0  0  0  0  0  0  0  0  0  0  0
  140.6030   72.2660  222.4980 C   0  0  0  0  0  0  0  0  0  0  0  0
  141.1170   71.5390  221.4960 N   0  0  0  0  0  0  0  0  0  0  0  0
  141.5670   72.1170  220.3470 C   0  0  0  0  0  0  0  0  0  0  0  0
  142.1150   71.2400  219.2990 C   0  0  0  0  0  0  0  0  0  0  0  0
  143.5060   71.5760  218.8750 C   0  0  1  0  0  0  0  0  0  0  0  0
  143.5860   72.9580  218.3230 C   0  0  0  0  0  0  0  0  0  0  0  0
  144.9390   73.6100  218.4390 C   0  0  0  0  0  0  0  0  0  0  0  0
  145.4630   73.3900  219.8230 C   0  0  0  0  0  0  0  0  0  0  0  0
  145.6850   71.9490  219.9520 N   0  0  0  0  0  0  0  0  0  0  0  0
  144.3780   71.3680  220.1110 C   0  0  0  0  0  0  0  0  0  0  0  0
  141.4800   73.4560  220.2470 N   0  0  0  0  0  0  0  0  0  0  0  0
  140.9710   74.2240  221.2310 C   0  0  0  0  0  0  0  0  0  0  0  0
  140.8750   75.6400  221.1350 N   0  0  0  0  0  0  0  0  0  0  0  0
  141.2880   76.3190  219.9200 C   0  0  0  0  0  0  0  0  0  0  0  0
  140.7210   77.7210  219.9400 C   0  0  0  0  0  0  0  0  0  0  0  0
  141.2100   78.3960  221.1670 C   0  0  0  0  0  0  0  0  0  0  0  0
  141.8210   79.6330  221.1580 C   0  0  0  0  0  0  0  0  0  0  0  0
  142.2470   80.1920  222.3440 C   0  0  0  0  0  0  0  0  0  0  0  0
  142.0640   79.5220  223.5300 C   0  0  0  0  0  0  0  0  0  0  0  0
  141.4510   78.2800  223.5380 C   0  0  0  0  0  0  0  0  0  0  0  0
  141.0310   77.7310  222.3630 C   0  0  0  0  0  0  0  0  0  0  0  0
  140.3570   76.3930  222.2710 C   0  0  0  0  0  0  0  0  0  0  0  0
  140.5420   73.5960  222.3420 N   0  0  0  0  0  0  0  0  0  0  0  0
  140.7630   71.8870  224.9560 C   0  0  0  0  0  0  0  0  0  0  0  0
  139.2372   68.5144  228.8482 H   0  0  0  0  0  0  0  0  0  0  0  0
  140.4214   70.6515  229.3864 H   0  0  0  0  0  0  0  0  0  0  0  0
  141.1043   72.1684  227.5629 H   0  0  0  0  0  0  0  0  0  0  0  0
  138.7564   67.9459  226.4719 H   0  0  0  0  0  0  0  0  0  0  0  0
  140.2400   68.8819  223.8487 H   0  0  0  0  0  0  0  0  0  0  0  0
  138.5192   68.6804  224.2509 H   0  0  0  0  0  0  0  0  0  0  0  0
  138.8899   70.4348  222.5033 H   0  0  0  0  0  0  0  0  0  0  0  0
  138.1615   71.1126  224.0159 H   0  0  0  0  0  0  0  0  0  0  0  0
  142.1116   70.2076  219.6786 H   0  0  0  0  0  0  0  0  0  0  0  0
  141.4770   71.3750  218.4132 H   0  0  0  0  0  0  0  0  0  0  0  0
  143.8550   70.9331  218.0535 H   0  0  0  0  0  0  0  0  0  0  0  0
  143.3170   72.9163  217.2572 H   0  0  0  0  0  0  0  0  0  0  0  0
  142.8962   73.5701  218.9226 H   0  0  0  0  0  0  0  0  0  0  0  0
  145.6285   73.1636  217.7073 H   0  0  0  0  0  0  0  0  0  0  0  0
  144.8527   74.6882  218.2390 H   0  0  0  0  0  0  0  0  0  0  0  0
  146.4078   73.9354  219.9641 H   0  0  0  0  0  0  0  0  0  0  0  0
  144.7558   73.7559  220.5819 H   0  0  0  0  0  0  0  0  0  0  0  0
  146.1860   71.8120  220.8450 H   0  0  0  0  0  0  0  0  0  0  0  0
  144.4886   70.2883  220.2901 H   0  0  0  0  0  0  0  0  0  0  0  0
  143.8866   71.8638  220.9611 H   0  0  0  0  0  0  0  0  0  0  0  0
  142.3862   76.3631  219.8740 H   0  0  0  0  0  0  0  0  0  0  0  0
  140.9184   75.7745  219.0386 H   0  0  0  0  0  0  0  0  0  0  0  0
  141.0588   78.2730  219.0505 H   0  0  0  0  0  0  0  0  0  0  0  0
  139.6215   77.6885  219.9342 H   0  0  0  0  0  0  0  0  0  0  0  0
  141.9675   80.1704  220.2095 H   0  0  0  0  0  0  0  0  0  0  0  0
  142.7351   81.1778  222.3411 H   0  0  0  0  0  0  0  0  0  0  0  0
  142.4047   79.9726  224.4738 H   0  0  0  0  0  0  0  0  0  0  0  0
  141.3042   77.7406  224.4854 H   0  0  0  0  0  0  0  0  0  0  0  0
  140.5447   75.8282  223.1961 H   0  0  0  0  0  0  0  0  0  0  0  0
  139.2763   76.5465  222.1345 H   0  0  0  0  0  0  0  0  0  0  0  0
  141.8558   71.8208  224.8494 H   0  0  0  0  0  0  0  0  0  0  0  0
  140.4621   72.8963  225.2734 H   0  0  0  0  0  0  0  0  0  0  0  0
  1  2  2  0
  2  3  1  0
  3  4  2  0
  4  5  1  0
  5  6  2  0
  5  7  1  0
  7  8  1  0
  8  9  1  0
  9 10  1  0
 10 11  2  0
 11 12  1  0
 12 13  1  0
 13 14  1  0
 14 15  1  0
 15 16  1  0
 16 17  1  0
 17 18  1  0
 18 19  1  0
 12 20  2  0
 20 21  1  0
 21 22  1  0
 22 23  1  0
 23 24  1  0
 24 25  1  0
 25 26  2  0
 26 27  1  0
 27 28  2  0
 28 29  1  0
 29 30  2  0
 30 31  1  0
 21 32  2  0
  9 33  1  0
  6  1  1  0
 32 10  1  0
 33  4  1  0
 19 14  1  0
 31 22  1  0
 30 25  1  0
  1 34  1  0
  2 35  1  0
  3 36  1  0
  6 37  1  0
  7 38  1  0
  7 39  1  0
  8 40  1  0
  8 41  1  0
 13 42  1  0
 13 43  1  0
 14 44  1  6
 15 45  1  0
 15 46  1  0
 16 47  1  0
 16 48  1  0
 17 49  1  0
 17 50  1  0
 18 51  1  0
 19 52  1  0
 19 53  1  0
 23 54  1  0
 23 55  1  0
 24 56  1  0
 24 57  1  0
 26 58  1  0
 27 59  1  0
 28 60  1  0
 29 61  1  0
 31 62  1  0
 31 63  1  0
 33 64  1  0
 33 65  1  0
M  END
>  <smiles>  (70) 
c1ccc2c(c1)CCN(c1nc(CC3CCCNC3)nc(N3CCc4ccccc4C3)n1)C2

>  <score_type>  (70) 
oracle

>  <origin>  (70) 
autodockgpu

>  <m_score__min__energy>  (70) 
-10.710000000000001

>  <m_primary>  (70) 
energy

>  <rmsd>  (70) 
10.877478223361646

>  <m_score__min__rmsd>  (70) 
10.877478223361646

>  <meeko>  (70) 
{"free_energy": -10.29, "intermolecular_energy": -11.49, "internal_energy": -1.22, "cluster_size": 49, "cluster_id": 1, "rank_in_cluster": 16}

>  <energy>  (70) 
-10.26

>  <cluster_rmsd>  (70) 
1.2

>  <cluster>  (70) 
1

$$$$

     RDKit          3D

 65 70  0  0  0  0  0  0  0  0999 V2000
  139.5480   68.8210  227.4010 C   0  0  0  0  0  0  0  0  0  0  0  0
  140.2740   69.9270  227.8370 C   0  0  0  0  0  0  0  0  0  0  0  0
  140.6420   70.8990  226.9330 C   0  0  0  0  0  0  0  0  0  0  0  0
  140.3070   70.8080  225.5850 C   0  0  0  0  0  0  0  0  0  0  0  0
  139.5880   69.7060  225.1740 C   0  0  0  0  0  0  0  0  0  0  0  0
  139.2070   68.7180  226.0630 C   0  0  0  0  0  0  0  0  0  0  0  0
  139.2080   69.5660  223.7440 C   0  0  0  0  0  0  0  0  0  0  0  0
  138.9220   70.9590  223.2220 C   0  0  0  0  0  0  0  0  0  0  0  0
  140.0570   71.8370  223.4150 N   0  0  0  0  0  0  0  0  0  0  0  0
  140.4870   72.6440  222.3240 C   0  0  0  0  0  0  0  0  0  0  0  0
  141.0060   72.0590  221.2350 N   0  0  0  0  0  0  0  0  0  0  0  0
  141.4320   72.7870  220.1640 C   0  0  0  0  0  0  0  0  0  0  0  0
  141.9880   72.0590  219.0110 C   0  0  0  0  0  0  0  0  0  0  0  0
  143.4480   71.7610  219.1140 C   0  0  1  0  0  0  0  0  0  0  0  0
  143.8460   70.6720  218.1770 C   0  0  0  0  0  0  0  0  0  0  0  0
  145.2900   70.7030  217.7480 C   0  0  0  0  0  0  0  0  0  0  0  0
  145.6490   72.1040  217.3670 C   0  0  0  0  0  0  0  0  0  0  0  0
  145.5660   72.8960  218.5950 N   0  0  0  0  0  0  0  0  0  0  0  0
  144.1600   73.0830  218.8410 C   0  0  0  0  0  0  0  0  0  0  0  0
  141.3150   74.1240  220.2320 N   0  0  0  0  0  0  0  0  0  0  0  0
  140.8000   74.7530  221.3080 C   0  0  0  0  0  0  0  0  0  0  0  0
  140.6720   76.1670  221.3900 N   0  0  0  0  0  0  0  0  0  0  0  0
  140.7670   76.9790  220.1900 C   0  0  0  0  0  0  0  0  0  0  0  0
  140.2110   78.3520  220.4980 C   0  0  0  0  0  0  0  0  0  0  0  0
  140.9830   78.9150  221.6320 C   0  0  0  0  0  0  0  0  0  0  0  0
  141.5640   80.1660  221.6060 C   0  0  0  0  0  0  0  0  0  0  0  0
  142.2650   80.6160  222.7040 C   0  0  0  0  0  0  0  0  0  0  0  0
  142.3870   79.8240  223.8200 C   0  0  0  0  0  0  0  0  0  0  0  0
  141.8030   78.5670  223.8460 C   0  0  0  0  0  0  0  0  0  0  0  0
  141.1110   78.1270  222.7580 C   0  0  0  0  0  0  0  0  0  0  0  0
  140.4450   76.7830  222.6920 C   0  0  0  0  0  0  0  0  0  0  0  0
  140.3950   73.9820  222.3360 N   0  0  0  0  0  0  0  0  0  0  0  0
  140.7420   71.8950  224.6870 C   0  0  0  0  0  0  0  0  0  0  0  0
  139.2486   68.0373  228.1125 H   0  0  0  0  0  0  0  0  0  0  0  0
  140.5518   70.0236  228.8970 H   0  0  0  0  0  0  0  0  0  0  0  0
  141.2152   71.7693  227.2853 H   0  0  0  0  0  0  0  0  0  0  0  0
  138.6328   67.8499  225.7072 H   0  0  0  0  0  0  0  0  0  0  0  0
  140.0339   69.1124  223.1765 H   0  0  0  0  0  0  0  0  0  0  0  0
  138.3262   68.9176  223.6344 H   0  0  0  0  0  0  0  0  0  0  0  0
  138.6940   70.8991  222.1475 H   0  0  0  0  0  0  0  0  0  0  0  0
  138.0670   71.3696  223.7792 H   0  0  0  0  0  0  0  0  0  0  0  0
  141.4484   71.1054  218.9138 H   0  0  0  0  0  0  0  0  0  0  0  0
  141.8627   72.7143  218.1364 H   0  0  0  0  0  0  0  0  0  0  0  0
  143.7248   71.3807  220.1083 H   0  0  0  0  0  0  0  0  0  0  0  0
  143.6570   69.7083  218.6725 H   0  0  0  0  0  0  0  0  0  0  0  0
  143.2490   70.8156  217.2643 H   0  0  0  0  0  0  0  0  0  0  0  0
  145.9298   70.3702  218.5786 H   0  0  0  0  0  0  0  0  0  0  0  0
  145.4395   70.0319  216.8893 H   0  0  0  0  0  0  0  0  0  0  0  0
  146.6702   72.1384  216.9595 H   0  0  0  0  0  0  0  0  0  0  0  0
  144.9726   72.4942  216.5923 H   0  0  0  0  0  0  0  0  0  0  0  0
  145.9580   73.8240  218.3680 H   0  0  0  0  0  0  0  0  0  0  0  0
  144.0364   73.7402  219.7144 H   0  0  0  0  0  0  0  0  0  0  0  0
  143.7135   73.5305  217.9408 H   0  0  0  0  0  0  0  0  0  0  0  0
  141.8194   77.0648  219.8817 H   0  0  0  0  0  0  0  0  0  0  0  0
  140.1960   76.5143  219.3727 H   0  0  0  0  0  0  0  0  0  0  0  0
  140.3136   79.0026  219.6170 H   0  0  0  0  0  0  0  0  0  0  0  0
  139.1445   78.2829  220.7586 H   0  0  0  0  0  0  0  0  0  0  0  0
  141.4682   80.8013  220.7131 H   0  0  0  0  0  0  0  0  0  0  0  0
  142.7287   81.6133  222.6867 H   0  0  0  0  0  0  0  0  0  0  0  0
  142.9484   80.1875  224.6934 H   0  0  0  0  0  0  0  0  0  0  0  0
  141.8975   77.9300  224.7378 H   0  0  0  0  0  0  0  0  0  0  0  0
  140.8597   76.1340  223.4774 H   0  0  0  0  0  0  0  0  0  0  0  0
  139.3630   76.9130  222.8416 H   0  0  0  0  0  0  0  0  0  0  0  0
  141.8246   71.8046  224.5145 H   0  0  0  0  0  0  0  0  0  0  0  0
  140.5009   72.8556  225.1656 H   0  0  0  0  0  0  0  0  0  0  0  0
  1  2  2  0
  2  3  1  0
  3  4  2  0
  4  5  1  0
  5  6  2  0
  5  7  1  0
  7  8  1  0
  8  9  1  0
  9 10  1  0
 10 11  2  0
 11 12  1  0
 12 13  1  0
 13 14  1  0
 14 15  1  0
 15 16  1  0
 16 17  1  0
 17 18  1  0
 18 19  1  0
 12 20  2  0
 20 21  1  0
 21 22  1  0
 22 23  1  0
 23 24  1  0
 24 25  1  0
 25 26  2  0
 26 27  1  0
 27 28  2  0
 28 29  1  0
 29 30  2  0
 30 31  1  0
 21 32  2  0
  9 33  1  0
  6  1  1  0
 32 10  1  0
 33  4  1  0
 19 14  1  0
 31 22  1  0
 30 25  1  0
  1 34  1  0
  2 35  1  0
  3 36  1  0
  6 37  1  0
  7 38  1  0
  7 39  1  0
  8 40  1  0
  8 41  1  0
 13 42  1  0
 13 43  1  0
 14 44  1  1
 15 45  1  0
 15 46  1  0
 16 47  1  0
 16 48  1  0
 17 49  1  0
 17 50  1  0
 18 51  1  0
 19 52  1  0
 19 53  1  0
 23 54  1  0
 23 55  1  0
 24 56  1  0
 24 57  1  0
 26 58  1  0
 27 59  1  0
 28 60  1  0
 29 61  1  0
 31 62  1  0
 31 63  1  0
 33 64  1  0
 33 65  1  0
M  END
>  <smiles>  (71) 
c1ccc2c(c1)CCN(c1nc(CC3CCCNC3)nc(N3CCc4ccccc4C3)n1)C2

>  <score_type>  (71) 
oracle

>  <origin>  (71) 
autodockgpu

>  <m_score__min__energy>  (71) 
-10.710000000000001

>  <m_primary>  (71) 
energy

>  <rmsd>  (71) 
10.708292638002613

>  <m_score__min__rmsd>  (71) 
10.708292638002613

>  <meeko>  (71) 
{"free_energy": -9.99, "intermolecular_energy": -11.18, "internal_energy": -0.97, "cluster_size": 49, "cluster_id": 1, "rank_in_cluster": 39}

>  <energy>  (71) 
-10.26

>  <cluster_rmsd>  (71) 
0.83

>  <cluster>  (71) 
1

$$$$

     RDKit          3D

 65 70  0  0  0  0  0  0  0  0999 V2000
  139.5720   69.0810  227.8590 C   0  0  0  0  0  0  0  0  0  0  0  0
  140.2780   70.2370  228.1860 C   0  0  0  0  0  0  0  0  0  0  0  0
  140.6500   71.1110  227.1890 C   0  0  0  0  0  0  0  0  0  0  0  0
  140.3390   70.8730  225.8520 C   0  0  0  0  0  0  0  0  0  0  0  0
  139.6390   69.7230  225.5510 C   0  0  0  0  0  0  0  0  0  0  0  0
  139.2540   68.8310  226.5350 C   0  0  0  0  0  0  0  0  0  0  0  0
  139.2840   69.4270  224.1390 C   0  0  0  0  0  0  0  0  0  0  0  0
  138.9910   70.7520  223.4670 C   0  0  0  0  0  0  0  0  0  0  0  0
  140.1130   71.6600  223.5820 N   0  0  0  0  0  0  0  0  0  0  0  0
  140.5520   72.3520  222.4170 C   0  0  0  0  0  0  0  0  0  0  0  0
  141.0140   71.6530  221.3700 N   0  0  0  0  0  0  0  0  0  0  0  0
  141.4450   72.2670  220.2320 C   0  0  0  0  0  0  0  0  0  0  0  0
  141.9360   71.4190  219.1330 C   0  0  0  0  0  0  0  0  0  0  0  0
  143.3930   71.5670  218.8410 C   0  0  1  0  0  0  0  0  0  0  0  0
  143.6720   72.8330  218.1060 C   0  0  0  0  0  0  0  0  0  0  0  0
  145.0640   73.3790  218.2920 C   0  0  0  0  0  0  0  0  0  0  0  0
  145.4080   73.3370  219.7480 C   0  0  0  0  0  0  0  0  0  0  0  0
  145.4670   71.9210  220.1130 N   0  0  0  0  0  0  0  0  0  0  0  0
  144.0970   71.4850  220.1930 C   0  0  0  0  0  0  0  0  0  0  0  0
  141.3940   73.6100  220.1900 N   0  0  0  0  0  0  0  0  0  0  0  0
  140.9380   74.3510  221.2200 C   0  0  0  0  0  0  0  0  0  0  0  0
  140.8790   75.7720  221.1850 N   0  0  0  0  0  0  0  0  0  0  0  0
  141.3090   76.4910  220.0000 C   0  0  0  0  0  0  0  0  0  0  0  0
  140.7790   77.9050  220.0820 C   0  0  0  0  0  0  0  0  0  0  0  0
  141.2870   78.5130  221.3350 C   0  0  0  0  0  0  0  0  0  0  0  0
  141.9320   79.7320  221.3780 C   0  0  0  0  0  0  0  0  0  0  0  0
  142.3740   80.2280  222.5860 C   0  0  0  0  0  0  0  0  0  0  0  0
  142.1750   79.5140  223.7420 C   0  0  0  0  0  0  0  0  0  0  0  0
  141.5280   78.2890  223.6980 C   0  0  0  0  0  0  0  0  0  0  0  0
  141.0930   77.8020  222.5020 C   0  0  0  0  0  0  0  0  0  0  0  0
  140.3830   76.4880  222.3540 C   0  0  0  0  0  0  0  0  0  0  0  0
  140.5240   73.6890  222.3180 N   0  0  0  0  0  0  0  0  0  0  0  0
  140.7760   71.8630  224.8510 C   0  0  0  0  0  0  0  0  0  0  0  0
  139.2702   68.3737  228.6455 H   0  0  0  0  0  0  0  0  0  0  0  0
  140.5365   70.4500  229.2338 H   0  0  0  0  0  0  0  0  0  0  0  0
  141.2074   72.0211  227.4553 H   0  0  0  0  0  0  0  0  0  0  0  0
  138.6950   67.9227  226.2657 H   0  0  0  0  0  0  0  0  0  0  0  0
  140.1241   68.9261  223.6357 H   0  0  0  0  0  0  0  0  0  0  0  0
  138.4113   68.7595  224.0862 H   0  0  0  0  0  0  0  0  0  0  0  0
  138.7812   70.5748  222.4018 H   0  0  0  0  0  0  0  0  0  0  0  0
  138.1225   71.2087  223.9641 H   0  0  0  0  0  0  0  0  0  0  0  0
  141.7433   70.3686  219.3969 H   0  0  0  0  0  0  0  0  0  0  0  0
  141.4009   71.7396  218.2270 H   0  0  0  0  0  0  0  0  0  0  0  0
  143.7647   70.7758  218.1733 H   0  0  0  0  0  0  0  0  0  0  0  0
  143.5183   72.6465  217.0329 H   0  0  0  0  0  0  0  0  0  0  0  0
  142.9861   73.5876  218.5184 H   0  0  0  0  0  0  0  0  0  0  0  0
  145.7803   72.7662  217.7251 H   0  0  0  0  0  0  0  0  0  0  0  0
  145.1108   74.4155  217.9267 H   0  0  0  0  0  0  0  0  0  0  0  0
  146.3821   73.8169  219.9237 H   0  0  0  0  0  0  0  0  0  0  0  0
  144.6628   73.8758  220.3516 H   0  0  0  0  0  0  0  0  0  0  0  0
  145.8490   71.8850  221.0720 H   0  0  0  0  0  0  0  0  0  0  0  0
  144.0756   70.4421  220.5423 H   0  0  0  0  0  0  0  0  0  0  0  0
  143.5686   72.1489  220.8930 H   0  0  0  0  0  0  0  0  0  0  0  0
  142.4079   76.5081  219.9540 H   0  0  0  0  0  0  0  0  0  0  0  0
  140.9250   75.9949  219.0964 H   0  0  0  0  0  0  0  0  0  0  0  0
  141.1299   78.4859  219.2163 H   0  0  0  0  0  0  0  0  0  0  0  0
  139.6790   77.9015  220.0777 H   0  0  0  0  0  0  0  0  0  0  0  0
  142.0928   80.3052  220.4530 H   0  0  0  0  0  0  0  0  0  0  0  0
  142.8882   81.1997  222.6240 H   0  0  0  0  0  0  0  0  0  0  0  0
  142.5292   79.9144  224.7034 H   0  0  0  0  0  0  0  0  0  0  0  0
  141.3668   77.7141  224.6219 H   0  0  0  0  0  0  0  0  0  0  0  0
  140.5568   75.8786  223.2531 H   0  0  0  0  0  0  0  0  0  0  0  0
  139.3066   76.6760  222.2275 H   0  0  0  0  0  0  0  0  0  0  0  0
  141.8624   71.7694  224.7060 H   0  0  0  0  0  0  0  0  0  0  0  0
  140.5159   72.8659  225.2203 H   0  0  0  0  0  0  0  0  0  0  0  0
  1  2  2  0
  2  3  1  0
  3  4  2  0
  4  5  1  0
  5  6  2  0
  5  7  1  0
  7  8  1  0
  8  9  1  0
  9 10  1  0
 10 11  2  0
 11 12  1  0
 12 13  1  0
 13 14  1  0
 14 15  1  0
 15 16  1  0
 16 17  1  0
 17 18  1  0
 18 19  1  0
 12 20  2  0
 20 21  1  0
 21 22  1  0
 22 23  1  0
 23 24  1  0
 24 25  1  0
 25 26  2  0
 26 27  1  0
 27 28  2  0
 28 29  1  0
 29 30  2  0
 30 31  1  0
 21 32  2  0
  9 33  1  0
  6  1  1  0
 32 10  1  0
 33  4  1  0
 19 14  1  0
 31 22  1  0
 30 25  1  0
  1 34  1  0
  2 35  1  0
  3 36  1  0
  6 37  1  0
  7 38  1  0
  7 39  1  0
  8 40  1  0
  8 41  1  0
 13 42  1  0
 13 43  1  0
 14 44  1  6
 15 45  1  0
 15 46  1  0
 16 47  1  0
 16 48  1  0
 17 49  1  0
 17 50  1  0
 18 51  1  0
 19 52  1  0
 19 53  1  0
 23 54  1  0
 23 55  1  0
 24 56  1  0
 24 57  1  0
 26 58  1  0
 27 59  1  0
 28 60  1  0
 29 61  1  0
 31 62  1  0
 31 63  1  0
 33 64  1  0
 33 65  1  0
M  END
>  <smiles>  (72) 
c1ccc2c(c1)CCN(c1nc(CC3CCCNC3)nc(N3CCc4ccccc4C3)n1)C2

>  <score_type>  (72) 
oracle

>  <origin>  (72) 
autodockgpu

>  <m_score__min__energy>  (72) 
-10.710000000000001

>  <m_primary>  (72) 
energy

>  <rmsd>  (72) 
10.83512436822747

>  <m_score__min__rmsd>  (72) 
10.83512436822747

>  <meeko>  (72) 
{"free_energy": -10.25, "intermolecular_energy": -11.44, "internal_energy": -1.28, "cluster_size": 49, "cluster_id": 1, "rank_in_cluster": 25}

>  <energy>  (72) 
-10.26

>  <cluster_rmsd>  (72) 
1.22

>  <cluster>  (72) 
1

$$$$

     RDKit          3D

 65 70  0  0  0  0  0  0  0  0999 V2000
  139.3790   68.1960  226.2990 C   0  0  0  0  0  0  0  0  0  0  0  0
  140.0360   69.2060  226.9980 C   0  0  0  0  0  0  0  0  0  0  0  0
  140.4480   70.3390  226.3300 C   0  0  0  0  0  0  0  0  0  0  0  0
  140.2240   70.5050  224.9650 C   0  0  0  0  0  0  0  0  0  0  0  0
  139.5720   69.4920  224.2930 C   0  0  0  0  0  0  0  0  0  0  0  0
  139.1500   68.3470  224.9430 C   0  0  0  0  0  0  0  0  0  0  0  0
  139.3120   69.6250  222.8360 C   0  0  0  0  0  0  0  0  0  0  0  0
  139.0290   71.0890  222.5670 C   0  0  0  0  0  0  0  0  0  0  0  0
  140.1200   71.9270  223.0180 N   0  0  0  0  0  0  0  0  0  0  0  0
  140.6110   72.9350  222.1410 C   0  0  0  0  0  0  0  0  0  0  0  0
  141.3640   72.5830  221.0880 N   0  0  0  0  0  0  0  0  0  0  0  0
  141.8590   73.5080  220.2190 C   0  0  0  0  0  0  0  0  0  0  0  0
  142.6760   73.0290  219.0910 C   0  0  0  0  0  0  0  0  0  0  0  0
  144.1360   73.3130  219.2200 C   0  0  1  0  0  0  0  0  0  0  0  0
  144.3880   74.4370  220.1650 C   0  0  0  0  0  0  0  0  0  0  0  0
  145.7400   74.4150  220.8290 C   0  0  0  0  0  0  0  0  0  0  0  0
  146.0140   73.0290  221.3190 C   0  0  0  0  0  0  0  0  0  0  0  0
  146.1250   72.1880  220.1250 N   0  0  0  0  0  0  0  0  0  0  0  0
  144.7770   71.9990  219.6580 C   0  0  0  0  0  0  0  0  0  0  0  0
  141.5680   74.8000  220.4500 N   0  0  0  0  0  0  0  0  0  0  0  0
  140.8160   75.1970  221.4970 C   0  0  0  0  0  0  0  0  0  0  0  0
  140.5030   76.5620  221.7500 N   0  0  0  0  0  0  0  0  0  0  0  0
  139.6270   77.2890  220.8490 C   0  0  0  0  0  0  0  0  0  0  0  0
  139.1580   78.5450  221.5500 C   0  0  0  0  0  0  0  0  0  0  0  0
  140.3570   79.3280  221.9360 C   0  0  0  0  0  0  0  0  0  0  0  0
  140.5210   80.6630  221.6300 C   0  0  0  0  0  0  0  0  0  0  0  0
  141.6660   81.3190  222.0270 C   0  0  0  0  0  0  0  0  0  0  0  0
  142.6420   80.6480  222.7240 C   0  0  0  0  0  0  0  0  0  0  0  0
  142.4770   79.3060  223.0310 C   0  0  0  0  0  0  0  0  0  0  0  0
  141.3430   78.6620  222.6370 C   0  0  0  0  0  0  0  0  0  0  0  0
  141.0750   77.2130  222.9230 C   0  0  0  0  0  0  0  0  0  0  0  0
  140.3540   74.2380  222.3210 N   0  0  0  0  0  0  0  0  0  0  0  0
  140.6990   71.7490  224.3310 C   0  0  0  0  0  0  0  0  0  0  0  0
  139.0453   67.2867  226.8204 H   0  0  0  0  0  0  0  0  0  0  0  0
  140.2248   69.1000  228.0765 H   0  0  0  0  0  0  0  0  0  0  0  0
  140.9667   71.1320  226.8886 H   0  0  0  0  0  0  0  0  0  0  0  0
  138.6318   67.5556  224.3816 H   0  0  0  0  0  0  0  0  0  0  0  0
  140.1934   69.2995  222.2640 H   0  0  0  0  0  0  0  0  0  0  0  0
  138.4607   68.9987  222.5309 H   0  0  0  0  0  0  0  0  0  0  0  0
  138.8890   71.2341  221.4856 H   0  0  0  0  0  0  0  0  0  0  0  0
  138.1211   71.3742  223.1186 H   0  0  0  0  0  0  0  0  0  0  0  0
  142.5437   71.9401  219.0089 H   0  0  0  0  0  0  0  0  0  0  0  0
  142.3289   73.5727  218.2000 H   0  0  0  0  0  0  0  0  0  0  0  0
  144.5780   73.6504  218.2709 H   0  0  0  0  0  0  0  0  0  0  0  0
  144.2967   75.3802  219.6065 H   0  0  0  0  0  0  0  0  0  0  0  0
  143.6463   74.3353  220.9709 H   0  0  0  0  0  0  0  0  0  0  0  0
  146.5128   74.7103  220.1040 H   0  0  0  0  0  0  0  0  0  0  0  0
  145.7529   75.1194  221.6738 H   0  0  0  0  0  0  0  0  0  0  0  0
  146.9535   73.0054  221.8907 H   0  0  0  0  0  0  0  0  0  0  0  0
  145.2146   72.6744  221.9862 H   0  0  0  0  0  0  0  0  0  0  0  0
  146.4630   71.2680  220.4510 H   0  0  0  0  0  0  0  0  0  0  0  0
  144.7908   71.3077  218.8025 H   0  0  0  0  0  0  0  0  0  0  0  0
  144.1829   71.5906  220.4888 H   0  0  0  0  0  0  0  0  0  0  0  0
  140.1750   77.5569  219.9336 H   0  0  0  0  0  0  0  0  0  0  0  0
  138.7641   76.6644  220.5745 H   0  0  0  0  0  0  0  0  0  0  0  0
  138.5272   79.1380  220.8715 H   0  0  0  0  0  0  0  0  0  0  0  0
  138.5660   78.2877  222.4407 H   0  0  0  0  0  0  0  0  0  0  0  0
  139.7412   81.2016  221.0715 H   0  0  0  0  0  0  0  0  0  0  0  0
  141.7993   82.3838  221.7851 H   0  0  0  0  0  0  0  0  0  0  0  0
  143.5544   81.1758  223.0385 H   0  0  0  0  0  0  0  0  0  0  0  0
  143.2560   78.7653  223.5886 H   0  0  0  0  0  0  0  0  0  0  0  0
  142.0190   76.7153  223.1898 H   0  0  0  0  0  0  0  0  0  0  0  0
  140.3609   77.1393  223.7565 H   0  0  0  0  0  0  0  0  0  0  0  0
  141.7941   71.7068  224.2364 H   0  0  0  0  0  0  0  0  0  0  0  0
  140.3938   72.5971  224.9616 H   0  0  0  0  0  0  0  0  0  0  0  0
  1  2  2  0
  2  3  1  0
  3  4  2  0
  4  5  1  0
  5  6  2  0
  5  7  1  0
  7  8  1  0
  8  9  1  0
  9 10  1  0
 10 11  2  0
 11 12  1  0
 12 13  1  0
 13 14  1  0
 14 15  1  0
 15 16  1  0
 16 17  1  0
 17 18  1  0
 18 19  1  0
 12 20  2  0
 20 21  1  0
 21 22  1  0
 22 23  1  0
 23 24  1  0
 24 25  1  0
 25 26  2  0
 26 27  1  0
 27 28  2  0
 28 29  1  0
 29 30  2  0
 30 31  1  0
 21 32  2  0
  9 33  1  0
  6  1  1  0
 32 10  1  0
 33  4  1  0
 19 14  1  0
 31 22  1  0
 30 25  1  0
  1 34  1  0
  2 35  1  0
  3 36  1  0
  6 37  1  0
  7 38  1  0
  7 39  1  0
  8 40  1  0
  8 41  1  0
 13 42  1  0
 13 43  1  0
 14 44  1  6
 15 45  1  0
 15 46  1  0
 16 47  1  0
 16 48  1  0
 17 49  1  0
 17 50  1  0
 18 51  1  0
 19 52  1  0
 19 53  1  0
 23 54  1  0
 23 55  1  0
 24 56  1  0
 24 57  1  0
 26 58  1  0
 27 59  1  0
 28 60  1  0
 29 61  1  0
 31 62  1  0
 31 63  1  0
 33 64  1  0
 33 65  1  0
M  END
>  <smiles>  (73) 
c1ccc2c(c1)CCN(c1nc(CC3CCCNC3)nc(N3CCc4ccccc4C3)n1)C2

>  <score_type>  (73) 
oracle

>  <origin>  (73) 
autodockgpu

>  <m_score__min__energy>  (73) 
-10.710000000000001

>  <m_primary>  (73) 
energy

>  <rmsd>  (73) 
10.548119830755137

>  <m_score__min__rmsd>  (73) 
10.548119830755137

>  <meeko>  (73) 
{"free_energy": -10.44, "intermolecular_energy": -11.64, "internal_energy": -1.12, "cluster_size": 49, "cluster_id": 1, "rank_in_cluster": 14}

>  <energy>  (73) 
-10.25

>  <cluster_rmsd>  (73) 
1.19

>  <cluster>  (73) 
1

$$$$

     RDKit          3D

 65 70  0  0  0  0  0  0  0  0999 V2000
  139.5150   69.1500  227.9450 C   0  0  0  0  0  0  0  0  0  0  0  0
  140.2180   70.3110  228.2560 C   0  0  0  0  0  0  0  0  0  0  0  0
  140.5930   71.1710  227.2470 C   0  0  0  0  0  0  0  0  0  0  0  0
  140.2870   70.9120  225.9140 C   0  0  0  0  0  0  0  0  0  0  0  0
  139.5900   69.7570  225.6270 C   0  0  0  0  0  0  0  0  0  0  0  0
  139.2030   68.8790  226.6230 C   0  0  0  0  0  0  0  0  0  0  0  0
  139.2400   69.4380  224.2190 C   0  0  0  0  0  0  0  0  0  0  0  0
  138.9480   70.7530  223.5250 C   0  0  0  0  0  0  0  0  0  0  0  0
  140.0680   71.6640  223.6300 N   0  0  0  0  0  0  0  0  0  0  0  0
  140.5090   72.3380  222.4570 C   0  0  0  0  0  0  0  0  0  0  0  0
  140.9830   71.6250  221.4250 N   0  0  0  0  0  0  0  0  0  0  0  0
  141.4180   72.2220  220.2800 C   0  0  0  0  0  0  0  0  0  0  0  0
  141.9200   71.3590  219.1980 C   0  0  0  0  0  0  0  0  0  0  0  0
  143.3650   71.5510  218.8740 C   0  0  1  0  0  0  0  0  0  0  0  0
  143.5940   72.8400  218.1620 C   0  0  0  0  0  0  0  0  0  0  0  0
  144.9760   73.4170  218.3260 C   0  0  0  0  0  0  0  0  0  0  0  0
  145.3560   73.3530  219.7720 C   0  0  0  0  0  0  0  0  0  0  0  0
  145.4600   71.9320  220.1050 N   0  0  0  0  0  0  0  0  0  0  0  0
  144.1040   71.4580  220.2070 C   0  0  0  0  0  0  0  0  0  0  0  0
  141.3580   73.5640  220.2140 N   0  0  0  0  0  0  0  0  0  0  0  0
  140.8910   74.3190  221.2290 C   0  0  0  0  0  0  0  0  0  0  0  0
  140.8240   75.7390  221.1690 N   0  0  0  0  0  0  0  0  0  0  0  0
  141.2350   76.4390  219.9660 C   0  0  0  0  0  0  0  0  0  0  0  0
  140.6980   77.8520  220.0290 C   0  0  0  0  0  0  0  0  0  0  0  0
  141.2180   78.4850  221.2650 C   0  0  0  0  0  0  0  0  0  0  0  0
  141.8560   79.7080  221.2780 C   0  0  0  0  0  0  0  0  0  0  0  0
  142.3100   80.2280  222.4710 C   0  0  0  0  0  0  0  0  0  0  0  0
  142.1300   79.5330  223.6430 C   0  0  0  0  0  0  0  0  0  0  0  0
  141.4890   78.3040  223.6290 C   0  0  0  0  0  0  0  0  0  0  0  0
  141.0420   77.7940  222.4470 C   0  0  0  0  0  0  0  0  0  0  0  0
  140.3370   76.4730  222.3310 C   0  0  0  0  0  0  0  0  0  0  0  0
  140.4740   73.6730  222.3350 N   0  0  0  0  0  0  0  0  0  0  0  0
  140.7260   71.8870  224.8990 C   0  0  0  0  0  0  0  0  0  0  0  0
  139.2104   68.4549  228.7413 H   0  0  0  0  0  0  0  0  0  0  0  0
  140.4725   70.5403  229.3013 H   0  0  0  0  0  0  0  0  0  0  0  0
  141.1485   72.0857  227.5013 H   0  0  0  0  0  0  0  0  0  0  0  0
  138.6473   67.9653  226.3653 H   0  0  0  0  0  0  0  0  0  0  0  0
  140.0822   68.9300  223.7264 H   0  0  0  0  0  0  0  0  0  0  0  0
  138.3682   68.7687  224.1737 H   0  0  0  0  0  0  0  0  0  0  0  0
  138.7425   70.5591  222.4619 H   0  0  0  0  0  0  0  0  0  0  0  0
  138.0772   71.2163  224.0119 H   0  0  0  0  0  0  0  0  0  0  0  0
  141.7711   70.3110  219.4971 H   0  0  0  0  0  0  0  0  0  0  0  0
  141.3571   71.6317  218.2931 H   0  0  0  0  0  0  0  0  0  0  0  0
  143.7395   70.7846  218.1794 H   0  0  0  0  0  0  0  0  0  0  0  0
  143.4179   72.6739  217.0890 H   0  0  0  0  0  0  0  0  0  0  0  0
  142.9003   73.5674  218.6089 H   0  0  0  0  0  0  0  0  0  0  0  0
  145.6932   72.8346  217.7290 H   0  0  0  0  0  0  0  0  0  0  0  0
  144.9885   74.4617  217.9818 H   0  0  0  0  0  0  0  0  0  0  0  0
  146.3214   73.8544  219.9350 H   0  0  0  0  0  0  0  0  0  0  0  0
  144.6118   73.8592  220.4045 H   0  0  0  0  0  0  0  0  0  0  0  0
  145.8670   71.8850  221.0530 H   0  0  0  0  0  0  0  0  0  0  0  0
  144.1183   70.4075  220.5328 H   0  0  0  0  0  0  0  0  0  0  0  0
  143.5756   72.0922  220.9340 H   0  0  0  0  0  0  0  0  0  0  0  0
  142.3331   76.4612  219.9059 H   0  0  0  0  0  0  0  0  0  0  0  0
  140.8424   75.9246  219.0765 H   0  0  0  0  0  0  0  0  0  0  0  0
  141.0352   78.4191  219.1488 H   0  0  0  0  0  0  0  0  0  0  0  0
  139.5981   77.8428  220.0380 H   0  0  0  0  0  0  0  0  0  0  0  0
  142.0017   80.2654  220.3410 H   0  0  0  0  0  0  0  0  0  0  0  0
  142.8185   81.2033  222.4851 H   0  0  0  0  0  0  0  0  0  0  0  0
  142.4947   79.9521  224.5924 H   0  0  0  0  0  0  0  0  0  0  0  0
  141.3423   77.7447  224.5648 H   0  0  0  0  0  0  0  0  0  0  0  0
  140.5245   75.8808  223.2388 H   0  0  0  0  0  0  0  0  0  0  0  0
  139.2581   76.6526  222.2140 H   0  0  0  0  0  0  0  0  0  0  0  0
  141.8130   71.7927  224.7594 H   0  0  0  0  0  0  0  0  0  0  0  0
  140.4625   72.8950  225.2520 H   0  0  0  0  0  0  0  0  0  0  0  0
  1  2  2  0
  2  3  1  0
  3  4  2  0
  4  5  1  0
  5  6  2  0
  5  7  1  0
  7  8  1  0
  8  9  1  0
  9 10  1  0
 10 11  2  0
 11 12  1  0
 12 13  1  0
 13 14  1  0
 14 15  1  0
 15 16  1  0
 16 17  1  0
 17 18  1  0
 18 19  1  0
 12 20  2  0
 20 21  1  0
 21 22  1  0
 22 23  1  0
 23 24  1  0
 24 25  1  0
 25 26  2  0
 26 27  1  0
 27 28  2  0
 28 29  1  0
 29 30  2  0
 30 31  1  0
 21 32  2  0
  9 33  1  0
  6  1  1  0
 32 10  1  0
 33  4  1  0
 19 14  1  0
 31 22  1  0
 30 25  1  0
  1 34  1  0
  2 35  1  0
  3 36  1  0
  6 37  1  0
  7 38  1  0
  7 39  1  0
  8 40  1  0
  8 41  1  0
 13 42  1  0
 13 43  1  0
 14 44  1  6
 15 45  1  0
 15 46  1  0
 16 47  1  0
 16 48  1  0
 17 49  1  0
 17 50  1  0
 18 51  1  0
 19 52  1  0
 19 53  1  0
 23 54  1  0
 23 55  1  0
 24 56  1  0
 24 57  1  0
 26 58  1  0
 27 59  1  0
 28 60  1  0
 29 61  1  0
 31 62  1  0
 31 63  1  0
 33 64  1  0
 33 65  1  0
M  END
>  <smiles>  (74) 
c1ccc2c(c1)CCN(c1nc(CC3CCCNC3)nc(N3CCc4ccccc4C3)n1)C2

>  <score_type>  (74) 
oracle

>  <origin>  (74) 
autodockgpu

>  <m_score__min__energy>  (74) 
-10.710000000000001

>  <m_primary>  (74) 
energy

>  <rmsd>  (74) 
10.847132912468705

>  <m_score__min__rmsd>  (74) 
10.847132912468705

>  <meeko>  (74) 
{"free_energy": -10.26, "intermolecular_energy": -11.45, "internal_energy": -1.28, "cluster_size": 49, "cluster_id": 1, "rank_in_cluster": 21}

>  <energy>  (74) 
-10.25

>  <cluster_rmsd>  (74) 
0.83

>  <cluster>  (74) 
1

$$$$

     RDKit          3D

 65 70  0  0  0  0  0  0  0  0999 V2000
  139.2670   68.5870  227.0650 C   0  0  0  0  0  0  0  0  0  0  0  0
  139.9810   69.6470  227.6190 C   0  0  0  0  0  0  0  0  0  0  0  0
  140.4290   70.6640  226.8060 C   0  0  0  0  0  0  0  0  0  0  0  0
  140.1860   70.6650  225.4340 C   0  0  0  0  0  0  0  0  0  0  0  0
  139.4770   69.6060  224.9070 C   0  0  0  0  0  0  0  0  0  0  0  0
  139.0170   68.5740  225.7040 C   0  0  0  0  0  0  0  0  0  0  0  0
  139.1940   69.5640  223.4480 C   0  0  0  0  0  0  0  0  0  0  0  0
  138.9710   70.9930  222.9980 C   0  0  0  0  0  0  0  0  0  0  0  0
  140.1060   71.8300  223.3220 N   0  0  0  0  0  0  0  0  0  0  0  0
  140.6250   72.6940  222.3160 C   0  0  0  0  0  0  0  0  0  0  0  0
  141.3680   72.1800  221.3250 N   0  0  0  0  0  0  0  0  0  0  0  0
  141.8880   72.9630  220.3380 C   0  0  0  0  0  0  0  0  0  0  0  0
  142.6920   72.3120  219.2900 C   0  0  0  0  0  0  0  0  0  0  0  0
  144.1150   72.7610  219.2330 C   0  0  1  0  0  0  0  0  0  0  0  0
  144.3170   74.0180  220.0080 C   0  0  0  0  0  0  0  0  0  0  0  0
  145.7170   74.2240  220.5260 C   0  0  0  0  0  0  0  0  0  0  0  0
  146.1930   72.9480  221.1460 C   0  0  0  0  0  0  0  0  0  0  0  0
  146.2940   71.9770  220.0560 N   0  0  0  0  0  0  0  0  0  0  0  0
  144.9410   71.5890  219.7560 C   0  0  0  0  0  0  0  0  0  0  0  0
  141.6310   74.2820  220.3880 N   0  0  0  0  0  0  0  0  0  0  0  0
  140.8890   74.8400  221.3660 C   0  0  0  0  0  0  0  0  0  0  0  0
  140.6120   76.2340  221.4270 N   0  0  0  0  0  0  0  0  0  0  0  0
  140.4660   77.0030  220.2050 C   0  0  0  0  0  0  0  0  0  0  0  0
  139.8000   78.3180  220.5450 C   0  0  0  0  0  0  0  0  0  0  0  0
  140.6350   79.0070  221.5580 C   0  0  0  0  0  0  0  0  0  0  0  0
  141.0620   80.3120  221.4270 C   0  0  0  0  0  0  0  0  0  0  0  0
  141.8370   80.8790  222.4150 C   0  0  0  0  0  0  0  0  0  0  0  0
  142.1830   80.1510  223.5270 C   0  0  0  0  0  0  0  0  0  0  0  0
  141.7550   78.8390  223.6580 C   0  0  0  0  0  0  0  0  0  0  0  0
  140.9890   78.2820  222.6780 C   0  0  0  0  0  0  0  0  0  0  0  0
  140.4770   76.8710  222.7320 C   0  0  0  0  0  0  0  0  0  0  0  0
  140.4020   74.0160  222.3140 N   0  0  0  0  0  0  0  0  0  0  0  0
  140.7030   71.7950  224.6390 C   0  0  0  0  0  0  0  0  0  0  0  0
  138.9052   67.7677  227.7036 H   0  0  0  0  0  0  0  0  0  0  0  0
  140.1857   69.6715  228.6995 H   0  0  0  0  0  0  0  0  0  0  0  0
  140.9931   71.4969  227.2510 H   0  0  0  0  0  0  0  0  0  0  0  0
  138.4524   67.7428  225.2563 H   0  0  0  0  0  0  0  0  0  0  0  0
  140.0485   69.1277  222.9100 H   0  0  0  0  0  0  0  0  0  0  0  0
  138.3100   68.9441  223.2376 H   0  0  0  0  0  0  0  0  0  0  0  0
  138.8159   71.0056  221.9091 H   0  0  0  0  0  0  0  0  0  0  0  0
  138.0880   71.3879  223.5218 H   0  0  0  0  0  0  0  0  0  0  0  0
  142.6810   71.2273  219.4725 H   0  0  0  0  0  0  0  0  0  0  0  0
  142.2371   72.5908  218.3281 H   0  0  0  0  0  0  0  0  0  0  0  0
  144.4287   73.0167  218.2102 H   0  0  0  0  0  0  0  0  0  0  0  0
  144.0657   74.8666  219.3548 H   0  0  0  0  0  0  0  0  0  0  0  0
  143.6677   73.9435  220.8928 H   0  0  0  0  0  0  0  0  0  0  0  0
  146.3818   74.5020  219.6949 H   0  0  0  0  0  0  0  0  0  0  0  0
  145.7242   75.0296  221.2750 H   0  0  0  0  0  0  0  0  0  0  0  0
  147.1760   73.0963  221.6168 H   0  0  0  0  0  0  0  0  0  0  0  0
  145.5027   72.6011  221.9290 H   0  0  0  0  0  0  0  0  0  0  0  0
  146.7640   71.1460  220.4520 H   0  0  0  0  0  0  0  0  0  0  0  0
  144.9591   70.7978  218.9920 H   0  0  0  0  0  0  0  0  0  0  0  0
  144.4748   71.2318  220.6861 H   0  0  0  0  0  0  0  0  0  0  0  0
  141.4560   77.1911  219.7639 H   0  0  0  0  0  0  0  0  0  0  0  0
  139.8550   76.4465  219.4790 H   0  0  0  0  0  0  0  0  0  0  0  0
  139.7200   78.9403  219.6415 H   0  0  0  0  0  0  0  0  0  0  0  0
  138.7882   78.1428  220.9394 H   0  0  0  0  0  0  0  0  0  0  0  0
  140.7850   80.8974  220.5378 H   0  0  0  0  0  0  0  0  0  0  0  0
  142.1801   81.9191  222.3127 H   0  0  0  0  0  0  0  0  0  0  0  0
  142.8000   80.6092  224.3140 H   0  0  0  0  0  0  0  0  0  0  0  0
  142.0315   78.2519  224.5462 H   0  0  0  0  0  0  0  0  0  0  0  0
  141.0561   76.3029  223.4749 H   0  0  0  0  0  0  0  0  0  0  0  0
  139.4141   76.8863  223.0148 H   0  0  0  0  0  0  0  0  0  0  0  0
  141.7931   71.6906  224.5352 H   0  0  0  0  0  0  0  0  0  0  0  0
  140.4485   72.7299  225.1597 H   0  0  0  0  0  0  0  0  0  0  0  0
  1  2  2  0
  2  3  1  0
  3  4  2  0
  4  5  1  0
  5  6  2  0
  5  7  1  0
  7  8  1  0
  8  9  1  0
  9 10  1  0
 10 11  2  0
 11 12  1  0
 12 13  1  0
 13 14  1  0
 14 15  1  0
 15 16  1  0
 16 17  1  0
 17 18  1  0
 18 19  1  0
 12 20  2  0
 20 21  1  0
 21 22  1  0
 22 23  1  0
 23 24  1  0
 24 25  1  0
 25 26  2  0
 26 27  1  0
 27 28  2  0
 28 29  1  0
 29 30  2  0
 30 31  1  0
 21 32  2  0
  9 33  1  0
  6  1  1  0
 32 10  1  0
 33  4  1  0
 19 14  1  0
 31 22  1  0
 30 25  1  0
  1 34  1  0
  2 35  1  0
  3 36  1  0
  6 37  1  0
  7 38  1  0
  7 39  1  0
  8 40  1  0
  8 41  1  0
 13 42  1  0
 13 43  1  0
 14 44  1  6
 15 45  1  0
 15 46  1  0
 16 47  1  0
 16 48  1  0
 17 49  1  0
 17 50  1  0
 18 51  1  0
 19 52  1  0
 19 53  1  0
 23 54  1  0
 23 55  1  0
 24 56  1  0
 24 57  1  0
 26 58  1  0
 27 59  1  0
 28 60  1  0
 29 61  1  0
 31 62  1  0
 31 63  1  0
 33 64  1  0
 33 65  1  0
M  END
>  <smiles>  (75) 
c1ccc2c(c1)CCN(c1nc(CC3CCCNC3)nc(N3CCc4ccccc4C3)n1)C2

>  <score_type>  (75) 
oracle

>  <origin>  (75) 
autodockgpu

>  <m_score__min__energy>  (75) 
-10.710000000000001

>  <m_primary>  (75) 
energy

>  <rmsd>  (75) 
10.702763506993401

>  <m_score__min__rmsd>  (75) 
10.702763506993401

>  <meeko>  (75) 
{"free_energy": -10.69, "intermolecular_energy": -11.89, "internal_energy": -0.99, "cluster_size": 49, "cluster_id": 1, "rank_in_cluster": 6}

>  <energy>  (75) 
-10.25

>  <cluster_rmsd>  (75) 
0.83

>  <cluster>  (75) 
1

$$$$

     RDKit          3D

 65 70  0  0  0  0  0  0  0  0999 V2000
  139.0240   80.3920  223.2210 C   0  0  0  0  0  0  0  0  0  0  0  0
  140.4070   80.3390  223.0640 C   0  0  0  0  0  0  0  0  0  0  0  0
  141.0140   79.1340  222.7820 C   0  0  0  0  0  0  0  0  0  0  0  0
  140.2790   77.9590  222.6480 C   0  0  0  0  0  0  0  0  0  0  0  0
  138.9120   78.0340  222.8070 C   0  0  0  0  0  0  0  0  0  0  0  0
  138.2810   79.2320  223.0900 C   0  0  0  0  0  0  0  0  0  0  0  0
  138.0860   76.8060  222.6730 C   0  0  0  0  0  0  0  0  0  0  0  0
  138.7310   75.9530  221.6000 C   0  0  0  0  0  0  0  0  0  0  0  0
  140.1140   75.6640  221.9160 N   0  0  0  0  0  0  0  0  0  0  0  0
  140.5740   74.3230  221.7950 C   0  0  0  0  0  0  0  0  0  0  0  0
  141.2870   73.9660  220.7160 N   0  0  0  0  0  0  0  0  0  0  0  0
  141.7510   72.6950  220.5520 C   0  0  0  0  0  0  0  0  0  0  0  0
  142.5250   72.3930  219.3360 C   0  0  0  0  0  0  0  0  0  0  0  0
  143.9210   72.9240  219.3440 C   0  0  1  0  0  0  0  0  0  0  0  0
  144.0450   74.1100  220.2370 C   0  0  0  0  0  0  0  0  0  0  0  0
  145.4250   74.3420  220.7950 C   0  0  0  0  0  0  0  0  0  0  0  0
  145.9650   73.0410  221.2990 C   0  0  0  0  0  0  0  0  0  0  0  0
  146.1320   72.1850  220.1240 N   0  0  0  0  0  0  0  0  0  0  0  0
  144.8060   71.7540  219.7670 C   0  0  0  0  0  0  0  0  0  0  0  0
  141.4700   71.7990  221.5140 N   0  0  0  0  0  0  0  0  0  0  0  0
  140.7570   72.1160  222.6140 C   0  0  0  0  0  0  0  0  0  0  0  0
  140.4550   71.1750  223.6370 N   0  0  0  0  0  0  0  0  0  0  0  0
  139.2080   70.4320  223.6020 C   0  0  0  0  0  0  0  0  0  0  0  0
  139.3250   69.2580  224.5480 C   0  0  0  0  0  0  0  0  0  0  0  0
  139.6370   69.7860  225.8980 C   0  0  0  0  0  0  0  0  0  0  0  0
  138.9230   69.4460  227.0280 C   0  0  0  0  0  0  0  0  0  0  0  0
  139.2780   69.9820  228.2470 C   0  0  0  0  0  0  0  0  0  0  0  0
  140.3380   70.8520  228.3390 C   0  0  0  0  0  0  0  0  0  0  0  0
  141.0550   71.1940  227.2030 C   0  0  0  0  0  0  0  0  0  0  0  0
  140.7000   70.6620  226.0000 C   0  0  0  0  0  0  0  0  0  0  0  0
  141.4150   70.9720  224.7160 C   0  0  0  0  0  0  0  0  0  0  0  0
  140.3250   73.3870  222.7220 N   0  0  0  0  0  0  0  0  0  0  0  0
  141.0110   76.7140  222.3450 C   0  0  0  0  0  0  0  0  0  0  0  0
  138.5271   81.3470  223.4470 H   0  0  0  0  0  0  0  0  0  0  0  0
  141.0109   81.2529  223.1644 H   0  0  0  0  0  0  0  0  0  0  0  0
  142.1067   79.0998  222.6597 H   0  0  0  0  0  0  0  0  0  0  0  0
  137.1881   79.2626  223.2110 H   0  0  0  0  0  0  0  0  0  0  0  0
  138.0640   76.2596  223.6274 H   0  0  0  0  0  0  0  0  0  0  0  0
  137.0495   77.0576  222.4040 H   0  0  0  0  0  0  0  0  0  0  0  0
  138.1778   75.0060  221.5149 H   0  0  0  0  0  0  0  0  0  0  0  0
  138.7013   76.5088  220.6512 H   0  0  0  0  0  0  0  0  0  0  0  0
  142.5736   71.3000  219.2220 H   0  0  0  0  0  0  0  0  0  0  0  0
  142.0058   72.8891  218.5028 H   0  0  0  0  0  0  0  0  0  0  0  0
  144.2295   73.2938  218.3550 H   0  0  0  0  0  0  0  0  0  0  0  0
  143.7541   75.0020  219.6628 H   0  0  0  0  0  0  0  0  0  0  0  0
  143.3916   73.9159  221.1004 H   0  0  0  0  0  0  0  0  0  0  0  0
  146.0823   74.7342  220.0050 H   0  0  0  0  0  0  0  0  0  0  0  0
  145.3785   75.0715  221.6170 H   0  0  0  0  0  0  0  0  0  0  0  0
  146.9331   73.1975  221.7973 H   0  0  0  0  0  0  0  0  0  0  0  0
  145.2868   72.5838  222.0346 H   0  0  0  0  0  0  0  0  0  0  0  0
  146.6440   71.3470  220.4470 H   0  0  0  0  0  0  0  0  0  0  0  0
  144.8765   71.0415  218.9319 H   0  0  0  0  0  0  0  0  0  0  0  0
  144.3506   71.2848  220.6516 H   0  0  0  0  0  0  0  0  0  0  0  0
  138.3790   71.0824  223.9179 H   0  0  0  0  0  0  0  0  0  0  0  0
  139.0089   70.0758  222.5805 H   0  0  0  0  0  0  0  0  0  0  0  0
  138.3751   68.7039  224.5744 H   0  0  0  0  0  0  0  0  0  0  0  0
  140.1190   68.5747  224.2123 H   0  0  0  0  0  0  0  0  0  0  0  0
  138.0741   68.7502  226.9566 H   0  0  0  0  0  0  0  0  0  0  0  0
  138.7107   69.7124  229.1500 H   0  0  0  0  0  0  0  0  0  0  0  0
  140.6175   71.2770  229.3143 H   0  0  0  0  0  0  0  0  0  0  0  0
  141.9042   71.8897  227.2723 H   0  0  0  0  0  0  0  0  0  0  0  0
  142.0135   71.8858  224.8457 H   0  0  0  0  0  0  0  0  0  0  0  0
  142.0690   70.1260  224.4580 H   0  0  0  0  0  0  0  0  0  0  0  0
  141.5428   76.3828  223.2491 H   0  0  0  0  0  0  0  0  0  0  0  0
  141.7186   76.9192  221.5282 H   0  0  0  0  0  0  0  0  0  0  0  0
  1  2  2  0
  2  3  1  0
  3  4  2  0
  4  5  1  0
  5  6  2  0
  5  7  1  0
  7  8  1  0
  8  9  1  0
  9 10  1  0
 10 11  2  0
 11 12  1  0
 12 13  1  0
 13 14  1  0
 14 15  1  0
 15 16  1  0
 16 17  1  0
 17 18  1  0
 18 19  1  0
 12 20  2  0
 20 21  1  0
 21 22  1  0
 22 23  1  0
 23 24  1  0
 24 25  1  0
 25 26  2  0
 26 27  1  0
 27 28  2  0
 28 29  1  0
 29 30  2  0
 30 31  1  0
 21 32  2  0
  9 33  1  0
  6  1  1  0
 32 10  1  0
 33  4  1  0
 19 14  1  0
 31 22  1  0
 30 25  1  0
  1 34  1  0
  2 35  1  0
  3 36  1  0
  6 37  1  0
  7 38  1  0
  7 39  1  0
  8 40  1  0
  8 41  1  0
 13 42  1  0
 13 43  1  0
 14 44  1  6
 15 45  1  0
 15 46  1  0
 16 47  1  0
 16 48  1  0
 17 49  1  0
 17 50  1  0
 18 51  1  0
 19 52  1  0
 19 53  1  0
 23 54  1  0
 23 55  1  0
 24 56  1  0
 24 57  1  0
 26 58  1  0
 27 59  1  0
 28 60  1  0
 29 61  1  0
 31 62  1  0
 31 63  1  0
 33 64  1  0
 33 65  1  0
M  END
>  <smiles>  (76) 
c1ccc2c(c1)CCN(c1nc(CC3CCCNC3)nc(N3CCc4ccccc4C3)n1)C2

>  <score_type>  (76) 
oracle

>  <origin>  (76) 
autodockgpu

>  <m_score__min__energy>  (76) 
-10.710000000000001

>  <m_primary>  (76) 
energy

>  <rmsd>  (76) 
4.95728340848643

>  <m_score__min__rmsd>  (76) 
4.95728340848643

>  <meeko>  (76) 
{"free_energy": -10.26, "intermolecular_energy": -11.45, "internal_energy": -1.09, "cluster_size": 49, "cluster_id": 1, "rank_in_cluster": 20}

>  <energy>  (76) 
-10.24

>  <cluster_rmsd>  (76) 
0.86

>  <cluster>  (76) 
1

$$$$

     RDKit          3D

 65 70  0  0  0  0  0  0  0  0999 V2000
  139.5460   69.1440  227.9350 C   0  0  0  0  0  0  0  0  0  0  0  0
  140.2510   70.3020  228.2510 C   0  0  0  0  0  0  0  0  0  0  0  0
  140.6290   71.1650  227.2450 C   0  0  0  0  0  0  0  0  0  0  0  0
  140.3220   70.9100  225.9100 C   0  0  0  0  0  0  0  0  0  0  0  0
  139.6230   69.7570  225.6200 C   0  0  0  0  0  0  0  0  0  0  0  0
  139.2340   68.8770  226.6130 C   0  0  0  0  0  0  0  0  0  0  0  0
  139.2740   69.4440  224.2100 C   0  0  0  0  0  0  0  0  0  0  0  0
  138.9850   70.7620  223.5210 C   0  0  0  0  0  0  0  0  0  0  0  0
  140.1070   71.6700  223.6290 N   0  0  0  0  0  0  0  0  0  0  0  0
  140.5510   72.3470  222.4580 C   0  0  0  0  0  0  0  0  0  0  0  0
  141.0180   71.6360  221.4220 N   0  0  0  0  0  0  0  0  0  0  0  0
  141.4550   72.2360  220.2790 C   0  0  0  0  0  0  0  0  0  0  0  0
  141.9510   71.3740  219.1920 C   0  0  0  0  0  0  0  0  0  0  0  0
  143.3990   71.5510  218.8760 C   0  0  1  0  0  0  0  0  0  0  0  0
  143.6430   72.8300  218.1510 C   0  0  0  0  0  0  0  0  0  0  0  0
  145.0290   73.3970  218.3180 C   0  0  0  0  0  0  0  0  0  0  0  0
  145.4000   73.3450  219.7660 C   0  0  0  0  0  0  0  0  0  0  0  0
  145.4900   71.9260  220.1140 N   0  0  0  0  0  0  0  0  0  0  0  0
  144.1290   71.4650  220.2130 C   0  0  0  0  0  0  0  0  0  0  0  0
  141.4030   73.5780  220.2200 N   0  0  0  0  0  0  0  0  0  0  0  0
  140.9420   74.3310  221.2390 C   0  0  0  0  0  0  0  0  0  0  0  0
  140.8830   75.7520  221.1860 N   0  0  0  0  0  0  0  0  0  0  0  0
  141.3090   76.4550  219.9890 C   0  0  0  0  0  0  0  0  0  0  0  0
  140.7790   77.8710  220.0550 C   0  0  0  0  0  0  0  0  0  0  0  0
  141.2920   78.4950  221.2980 C   0  0  0  0  0  0  0  0  0  0  0  0
  141.9370   79.7140  221.3240 C   0  0  0  0  0  0  0  0  0  0  0  0
  142.3840   80.2260  222.5230 C   0  0  0  0  0  0  0  0  0  0  0  0
  142.1900   79.5260  223.6890 C   0  0  0  0  0  0  0  0  0  0  0  0
  141.5430   78.3000  223.6640 C   0  0  0  0  0  0  0  0  0  0  0  0
  141.1020   77.7990  222.4750 C   0  0  0  0  0  0  0  0  0  0  0  0
  140.3920   76.4830  222.3480 C   0  0  0  0  0  0  0  0  0  0  0  0
  140.5230   73.6830  222.3430 N   0  0  0  0  0  0  0  0  0  0  0  0
  140.7650   71.8880  224.8990 C   0  0  0  0  0  0  0  0  0  0  0  0
  139.2395   68.4471  228.7290 H   0  0  0  0  0  0  0  0  0  0  0  0
  140.5049   70.5270  229.2974 H   0  0  0  0  0  0  0  0  0  0  0  0
  141.1867   72.0775  227.5024 H   0  0  0  0  0  0  0  0  0  0  0  0
  138.6768   67.9650  226.3526 H   0  0  0  0  0  0  0  0  0  0  0  0
  140.1159   68.9365  223.7164 H   0  0  0  0  0  0  0  0  0  0  0  0
  138.4012   68.7763  224.1611 H   0  0  0  0  0  0  0  0  0  0  0  0
  138.7788   70.5724  222.4573 H   0  0  0  0  0  0  0  0  0  0  0  0
  138.1154   71.2255  224.0098 H   0  0  0  0  0  0  0  0  0  0  0  0
  141.7881   70.3257  219.4828 H   0  0  0  0  0  0  0  0  0  0  0  0
  141.3952   71.6595  218.2867 H   0  0  0  0  0  0  0  0  0  0  0  0
  143.7718   70.7742  218.1922 H   0  0  0  0  0  0  0  0  0  0  0  0
  143.4725   72.6533  217.0787 H   0  0  0  0  0  0  0  0  0  0  0  0
  142.9523   73.5682  218.5847 H   0  0  0  0  0  0  0  0  0  0  0  0
  145.7448   72.8024  217.7314 H   0  0  0  0  0  0  0  0  0  0  0  0
  145.0521   74.4381  217.9635 H   0  0  0  0  0  0  0  0  0  0  0  0
  146.3687   73.8399  219.9294 H   0  0  0  0  0  0  0  0  0  0  0  0
  144.6567   73.8641  220.3890 H   0  0  0  0  0  0  0  0  0  0  0  0
  145.8910   71.8870  221.0650 H   0  0  0  0  0  0  0  0  0  0  0  0
  144.1321   70.4177  220.5494 H   0  0  0  0  0  0  0  0  0  0  0  0
  143.6022   72.1112  220.9305 H   0  0  0  0  0  0  0  0  0  0  0  0
  142.4077   76.4712  219.9384 H   0  0  0  0  0  0  0  0  0  0  0  0
  140.9219   75.9470  219.0934 H   0  0  0  0  0  0  0  0  0  0  0  0
  141.1264   78.4407  219.1805 H   0  0  0  0  0  0  0  0  0  0  0  0
  139.6790   77.8675  220.0551 H   0  0  0  0  0  0  0  0  0  0  0  0
  142.0940   80.2754  220.3912 H   0  0  0  0  0  0  0  0  0  0  0  0
  142.8978   81.1983  222.5464 H   0  0  0  0  0  0  0  0  0  0  0  0
  142.5484   79.9387  224.6436 H   0  0  0  0  0  0  0  0  0  0  0  0
  141.3868   77.7362  224.5955 H   0  0  0  0  0  0  0  0  0  0  0  0
  140.5705   75.8857  223.2543 H   0  0  0  0  0  0  0  0  0  0  0  0
  139.3148   76.6686  222.2245 H   0  0  0  0  0  0  0  0  0  0  0  0
  141.8519   71.7915  224.7600 H   0  0  0  0  0  0  0  0  0  0  0  0
  140.5046   72.8957  225.2551 H   0  0  0  0  0  0  0  0  0  0  0  0
  1  2  2  0
  2  3  1  0
  3  4  2  0
  4  5  1  0
  5  6  2  0
  5  7  1  0
  7  8  1  0
  8  9  1  0
  9 10  1  0
 10 11  2  0
 11 12  1  0
 12 13  1  0
 13 14  1  0
 14 15  1  0
 15 16  1  0
 16 17  1  0
 17 18  1  0
 18 19  1  0
 12 20  2  0
 20 21  1  0
 21 22  1  0
 22 23  1  0
 23 24  1  0
 24 25  1  0
 25 26  2  0
 26 27  1  0
 27 28  2  0
 28 29  1  0
 29 30  2  0
 30 31  1  0
 21 32  2  0
  9 33  1  0
  6  1  1  0
 32 10  1  0
 33  4  1  0
 19 14  1  0
 31 22  1  0
 30 25  1  0
  1 34  1  0
  2 35  1  0
  3 36  1  0
  6 37  1  0
  7 38  1  0
  7 39  1  0
  8 40  1  0
  8 41  1  0
 13 42  1  0
 13 43  1  0
 14 44  1  6
 15 45  1  0
 15 46  1  0
 16 47  1  0
 16 48  1  0
 17 49  1  0
 17 50  1  0
 18 51  1  0
 19 52  1  0
 19 53  1  0
 23 54  1  0
 23 55  1  0
 24 56  1  0
 24 57  1  0
 26 58  1  0
 27 59  1  0
 28 60  1  0
 29 61  1  0
 31 62  1  0
 31 63  1  0
 33 64  1  0
 33 65  1  0
M  END
>  <smiles>  (77) 
c1ccc2c(c1)CCN(c1nc(CC3CCCNC3)nc(N3CCc4ccccc4C3)n1)C2

>  <score_type>  (77) 
oracle

>  <origin>  (77) 
autodockgpu

>  <m_score__min__energy>  (77) 
-10.710000000000001

>  <m_primary>  (77) 
energy

>  <rmsd>  (77) 
10.843244222490867

>  <m_score__min__rmsd>  (77) 
10.843244222490867

>  <meeko>  (77) 
{"free_energy": -10.26, "intermolecular_energy": -11.46, "internal_energy": -1.28, "cluster_size": 49, "cluster_id": 1, "rank_in_cluster": 18}

>  <energy>  (77) 
-10.24

>  <cluster_rmsd>  (77) 
0.82

>  <cluster>  (77) 
1

$$$$

     RDKit          3D

 65 70  0  0  0  0  0  0  0  0999 V2000
  138.9910   80.4200  223.3150 C   0  0  0  0  0  0  0  0  0  0  0  0
  140.3660   80.2910  223.1340 C   0  0  0  0  0  0  0  0  0  0  0  0
  140.8990   79.0610  222.8170 C   0  0  0  0  0  0  0  0  0  0  0  0
  140.0960   77.9330  222.6690 C   0  0  0  0  0  0  0  0  0  0  0  0
  138.7370   78.0820  222.8520 C   0  0  0  0  0  0  0  0  0  0  0  0
  138.1800   79.3070  223.1710 C   0  0  0  0  0  0  0  0  0  0  0  0
  137.8410   76.9060  222.7050 C   0  0  0  0  0  0  0  0  0  0  0  0
  138.4190   76.0430  221.6020 C   0  0  0  0  0  0  0  0  0  0  0  0
  139.7880   75.6690  221.8900 N   0  0  0  0  0  0  0  0  0  0  0  0
  140.1690   74.3070  221.7320 C   0  0  0  0  0  0  0  0  0  0  0  0
  140.7030   73.9020  220.5710 N   0  0  0  0  0  0  0  0  0  0  0  0
  141.0840   72.6090  220.3680 C   0  0  0  0  0  0  0  0  0  0  0  0
  141.6620   72.2560  219.0600 C   0  0  0  0  0  0  0  0  0  0  0  0
  143.1270   72.5160  218.9410 C   0  0  1  0  0  0  0  0  0  0  0  0
  143.4530   73.9350  219.2580 C   0  0  0  0  0  0  0  0  0  0  0  0
  144.8550   74.1660  219.7600 C   0  0  0  0  0  0  0  0  0  0  0  0
  145.1690   73.1380  220.8010 C   0  0  0  0  0  0  0  0  0  0  0  0
  145.1850   71.8480  220.1090 N   0  0  0  0  0  0  0  0  0  0  0  0
  143.8030   71.5170  219.8770 C   0  0  0  0  0  0  0  0  0  0  0  0
  140.9070   71.7400  221.3790 N   0  0  0  0  0  0  0  0  0  0  0  0
  140.3730   72.1050  222.5630 C   0  0  0  0  0  0  0  0  0  0  0  0
  140.1820   71.1940  223.6380 N   0  0  0  0  0  0  0  0  0  0  0  0
  138.9490   70.4350  223.7420 C   0  0  0  0  0  0  0  0  0  0  0  0
  139.1710   69.2930  224.7090 C   0  0  0  0  0  0  0  0  0  0  0  0
  139.5990   69.8690  226.0060 C   0  0  0  0  0  0  0  0  0  0  0  0
  138.9980   69.5560  227.2090 C   0  0  0  0  0  0  0  0  0  0  0  0
  139.4570   70.1350  228.3720 C   0  0  0  0  0  0  0  0  0  0  0  0
  140.5070   71.0200  228.3380 C   0  0  0  0  0  0  0  0  0  0  0  0
  141.1100   71.3350  227.1300 C   0  0  0  0  0  0  0  0  0  0  0  0
  140.6530   70.7600  225.9820 C   0  0  0  0  0  0  0  0  0  0  0  0
  141.2410   71.0370  224.6290 C   0  0  0  0  0  0  0  0  0  0  0  0
  140.0160   73.3960  222.7050 N   0  0  0  0  0  0  0  0  0  0  0  0
  140.7500   76.6560  222.3270 C   0  0  0  0  0  0  0  0  0  0  0  0
  138.5536   81.3966  223.5699 H   0  0  0  0  0  0  0  0  0  0  0  0
  141.0227   81.1666  223.2436 H   0  0  0  0  0  0  0  0  0  0  0  0
  141.9861   78.9675  222.6773 H   0  0  0  0  0  0  0  0  0  0  0  0
  137.0926   79.3971  223.3103 H   0  0  0  0  0  0  0  0  0  0  0  0
  137.8036   76.3396  223.6472 H   0  0  0  0  0  0  0  0  0  0  0  0
  136.8163   77.2218  222.4597 H   0  0  0  0  0  0  0  0  0  0  0  0
  137.8113   75.1313  221.5046 H   0  0  0  0  0  0  0  0  0  0  0  0
  138.4063   76.6208  220.6660 H   0  0  0  0  0  0  0  0  0  0  0  0
  141.4879   71.1840  218.8853 H   0  0  0  0  0  0  0  0  0  0  0  0
  141.1685   72.8984  218.3159 H   0  0  0  0  0  0  0  0  0  0  0  0
  143.4904   72.3754  217.9123 H   0  0  0  0  0  0  0  0  0  0  0  0
  143.3150   74.5301  218.3432 H   0  0  0  0  0  0  0  0  0  0  0  0
  142.7794   74.2316  220.0755 H   0  0  0  0  0  0  0  0  0  0  0  0
  145.5661   74.0765  218.9255 H   0  0  0  0  0  0  0  0  0  0  0  0
  144.9360   75.1739  220.1931 H   0  0  0  0  0  0  0  0  0  0  0  0
  146.1512   73.3405  221.2529 H   0  0  0  0  0  0  0  0  0  0  0  0
  144.4260   73.1487  221.6120 H   0  0  0  0  0  0  0  0  0  0  0  0
  145.5490   71.1600  220.7890 H   0  0  0  0  0  0  0  0  0  0  0  0
  143.7482   70.5148  219.4268 H   0  0  0  0  0  0  0  0  0  0  0  0
  143.2786   71.5472  220.8435 H   0  0  0  0  0  0  0  0  0  0  0  0
  138.1430   71.0849  224.1135 H   0  0  0  0  0  0  0  0  0  0  0  0
  138.6618   70.0438  222.7549 H   0  0  0  0  0  0  0  0  0  0  0  0
  138.2362   68.7286  224.8413 H   0  0  0  0  0  0  0  0  0  0  0  0
  139.9400   68.6082  224.3222 H   0  0  0  0  0  0  0  0  0  0  0  0
  138.1568   68.8478  227.2388 H   0  0  0  0  0  0  0  0  0  0  0  0
  138.9805   69.8874  229.3320 H   0  0  0  0  0  0  0  0  0  0  0  0
  140.8696   71.4790  229.2696 H   0  0  0  0  0  0  0  0  0  0  0  0
  141.9508   72.0436  227.0984 H   0  0  0  0  0  0  0  0  0  0  0  0
  141.8353   71.9615  224.6742 H   0  0  0  0  0  0  0  0  0  0  0  0
  141.8807   70.1910  224.3374 H   0  0  0  0  0  0  0  0  0  0  0  0
  141.2756   76.2744  223.2148 H   0  0  0  0  0  0  0  0  0  0  0  0
  141.4555   76.8391  221.5032 H   0  0  0  0  0  0  0  0  0  0  0  0
  1  2  2  0
  2  3  1  0
  3  4  2  0
  4  5  1  0
  5  6  2  0
  5  7  1  0
  7  8  1  0
  8  9  1  0
  9 10  1  0
 10 11  2  0
 11 12  1  0
 12 13  1  0
 13 14  1  0
 14 15  1  0
 15 16  1  0
 16 17  1  0
 17 18  1  0
 18 19  1  0
 12 20  2  0
 20 21  1  0
 21 22  1  0
 22 23  1  0
 23 24  1  0
 24 25  1  0
 25 26  2  0
 26 27  1  0
 27 28  2  0
 28 29  1  0
 29 30  2  0
 30 31  1  0
 21 32  2  0
  9 33  1  0
  6  1  1  0
 32 10  1  0
 33  4  1  0
 19 14  1  0
 31 22  1  0
 30 25  1  0
  1 34  1  0
  2 35  1  0
  3 36  1  0
  6 37  1  0
  7 38  1  0
  7 39  1  0
  8 40  1  0
  8 41  1  0
 13 42  1  0
 13 43  1  0
 14 44  1  6
 15 45  1  0
 15 46  1  0
 16 47  1  0
 16 48  1  0
 17 49  1  0
 17 50  1  0
 18 51  1  0
 19 52  1  0
 19 53  1  0
 23 54  1  0
 23 55  1  0
 24 56  1  0
 24 57  1  0
 26 58  1  0
 27 59  1  0
 28 60  1  0
 29 61  1  0
 31 62  1  0
 31 63  1  0
 33 64  1  0
 33 65  1  0
M  END
>  <smiles>  (78) 
c1ccc2c(c1)CCN(c1nc(CC3CCCNC3)nc(N3CCc4ccccc4C3)n1)C2

>  <score_type>  (78) 
oracle

>  <origin>  (78) 
autodockgpu

>  <m_score__min__energy>  (78) 
-10.710000000000001

>  <m_primary>  (78) 
energy

>  <rmsd>  (78) 
5.067528623561644

>  <m_score__min__rmsd>  (78) 
5.067528623561644

>  <meeko>  (78) 
{"free_energy": -9.58, "intermolecular_energy": -10.78, "internal_energy": -1.23, "cluster_size": 49, "cluster_id": 1, "rank_in_cluster": 44}

>  <energy>  (78) 
-10.23

>  <cluster_rmsd>  (78) 
1.21

>  <cluster>  (78) 
1

$$$$

     RDKit          3D

 65 70  0  0  0  0  0  0  0  0999 V2000
  139.5030   69.1610  227.9710 C   0  0  0  0  0  0  0  0  0  0  0  0
  140.1460   70.3540  228.2890 C   0  0  0  0  0  0  0  0  0  0  0  0
  140.5380   71.2060  227.2800 C   0  0  0  0  0  0  0  0  0  0  0  0
  140.3060   70.9070  225.9390 C   0  0  0  0  0  0  0  0  0  0  0  0
  139.6670   69.7200  225.6470 C   0  0  0  0  0  0  0  0  0  0  0  0
  139.2650   68.8500  226.6440 C   0  0  0  0  0  0  0  0  0  0  0  0
  139.3990   69.3580  224.2310 C   0  0  0  0  0  0  0  0  0  0  0  0
  139.0920   70.6460  223.4940 C   0  0  0  0  0  0  0  0  0  0  0  0
  140.1710   71.6010  223.6310 N   0  0  0  0  0  0  0  0  0  0  0  0
  140.6440   72.2670  222.4650 C   0  0  0  0  0  0  0  0  0  0  0  0
  141.1370   71.5450  221.4480 N   0  0  0  0  0  0  0  0  0  0  0  0
  141.6020   72.1340  220.3100 C   0  0  0  0  0  0  0  0  0  0  0  0
  142.1250   71.2620  219.2450 C   0  0  0  0  0  0  0  0  0  0  0  0
  143.5230   71.5720  218.8230 C   0  0  1  0  0  0  0  0  0  0  0  0
  143.6200   72.9350  218.2270 C   0  0  0  0  0  0  0  0  0  0  0  0
  144.9780   73.5780  218.3330 C   0  0  0  0  0  0  0  0  0  0  0  0
  145.4880   73.3980  219.7280 C   0  0  0  0  0  0  0  0  0  0  0  0
  145.6970   71.9610  219.9050 N   0  0  0  0  0  0  0  0  0  0  0  0
  144.3830   71.3970  220.0730 C   0  0  0  0  0  0  0  0  0  0  0  0
  141.5520   73.4750  220.2360 N   0  0  0  0  0  0  0  0  0  0  0  0
  141.0640   74.2380  221.2360 C   0  0  0  0  0  0  0  0  0  0  0  0
  141.0060   75.6580  221.1670 N   0  0  0  0  0  0  0  0  0  0  0  0
  141.5290   76.3540  220.0050 C   0  0  0  0  0  0  0  0  0  0  0  0
  140.9920   77.7690  220.0150 C   0  0  0  0  0  0  0  0  0  0  0  0
  141.3970   78.4040  221.2920 C   0  0  0  0  0  0  0  0  0  0  0  0
  142.0340   79.6250  221.3620 C   0  0  0  0  0  0  0  0  0  0  0  0
  142.3770   80.1470  222.5900 C   0  0  0  0  0  0  0  0  0  0  0  0
  142.0880   79.4560  223.7410 C   0  0  0  0  0  0  0  0  0  0  0  0
  141.4480   78.2280  223.6710 C   0  0  0  0  0  0  0  0  0  0  0  0
  141.1110   77.7160  222.4540 C   0  0  0  0  0  0  0  0  0  0  0  0
  140.4170   76.3970  222.2770 C   0  0  0  0  0  0  0  0  0  0  0  0
  140.6180   73.6010  222.3350 N   0  0  0  0  0  0  0  0  0  0  0  0
  140.7580   71.8770  224.9240 C   0  0  0  0  0  0  0  0  0  0  0  0
  139.1869   68.4716  228.7677 H   0  0  0  0  0  0  0  0  0  0  0  0
  140.3399   70.6148  229.3399 H   0  0  0  0  0  0  0  0  0  0  0  0
  141.0470   72.1460  227.5395 H   0  0  0  0  0  0  0  0  0  0  0  0
  138.7560   67.9107  226.3820 H   0  0  0  0  0  0  0  0  0  0  0  0
  140.2830   68.8729  223.7914 H   0  0  0  0  0  0  0  0  0  0  0  0
  138.5565   68.6544  224.1588 H   0  0  0  0  0  0  0  0  0  0  0  0
  138.9452   70.4220  222.4271 H   0  0  0  0  0  0  0  0  0  0  0  0
  138.1821   71.0859  223.9284 H   0  0  0  0  0  0  0  0  0  0  0  0
  142.0974   70.2235  219.6065 H   0  0  0  0  0  0  0  0  0  0  0  0
  141.4878   71.4273  218.3637 H   0  0  0  0  0  0  0  0  0  0  0  0
  143.8733   70.8994  218.0262 H   0  0  0  0  0  0  0  0  0  0  0  0
  143.3591   72.8612  217.1610 H   0  0  0  0  0  0  0  0  0  0  0  0
  142.9311   73.5724  218.8006 H   0  0  0  0  0  0  0  0  0  0  0  0
  145.6693   73.1018  217.6221 H   0  0  0  0  0  0  0  0  0  0  0  0
  144.9039   74.6498  218.0971 H   0  0  0  0  0  0  0  0  0  0  0  0
  146.4360   73.9401  219.8602 H   0  0  0  0  0  0  0  0  0  0  0  0
  144.7770   73.7934  220.4684 H   0  0  0  0  0  0  0  0  0  0  0  0
  146.1890   71.8490  220.8070 H   0  0  0  0  0  0  0  0  0  0  0  0
  144.4821   70.3229  220.2887 H   0  0  0  0  0  0  0  0  0  0  0  0
  143.8895   71.9247  220.9024 H   0  0  0  0  0  0  0  0  0  0  0  0
  142.6280   76.3733  220.0468 H   0  0  0  0  0  0  0  0  0  0  0  0
  141.2193   75.8383  219.0840 H   0  0  0  0  0  0  0  0  0  0  0  0
  141.4106   78.3331  219.1684 H   0  0  0  0  0  0  0  0  0  0  0  0
  139.8959   77.7623  219.9224 H   0  0  0  0  0  0  0  0  0  0  0  0
  142.2673   80.1799  220.4413 H   0  0  0  0  0  0  0  0  0  0  0  0
  142.8844   81.1212  222.6487 H   0  0  0  0  0  0  0  0  0  0  0  0
  142.3644   79.8769  224.7190 H   0  0  0  0  0  0  0  0  0  0  0  0
  141.2142   77.6715  224.5906 H   0  0  0  0  0  0  0  0  0  0  0  0
  140.5189   75.8071  223.1998 H   0  0  0  0  0  0  0  0  0  0  0  0
  139.3541   76.5792  222.0604 H   0  0  0  0  0  0  0  0  0  0  0  0
  141.8533   71.8216  224.8389 H   0  0  0  0  0  0  0  0  0  0  0  0
  140.4411   72.8817  225.2404 H   0  0  0  0  0  0  0  0  0  0  0  0
  1  2  2  0
  2  3  1  0
  3  4  2  0
  4  5  1  0
  5  6  2  0
  5  7  1  0
  7  8  1  0
  8  9  1  0
  9 10  1  0
 10 11  2  0
 11 12  1  0
 12 13  1  0
 13 14  1  0
 14 15  1  0
 15 16  1  0
 16 17  1  0
 17 18  1  0
 18 19  1  0
 12 20  2  0
 20 21  1  0
 21 22  1  0
 22 23  1  0
 23 24  1  0
 24 25  1  0
 25 26  2  0
 26 27  1  0
 27 28  2  0
 28 29  1  0
 29 30  2  0
 30 31  1  0
 21 32  2  0
  9 33  1  0
  6  1  1  0
 32 10  1  0
 33  4  1  0
 19 14  1  0
 31 22  1  0
 30 25  1  0
  1 34  1  0
  2 35  1  0
  3 36  1  0
  6 37  1  0
  7 38  1  0
  7 39  1  0
  8 40  1  0
  8 41  1  0
 13 42  1  0
 13 43  1  0
 14 44  1  6
 15 45  1  0
 15 46  1  0
 16 47  1  0
 16 48  1  0
 17 49  1  0
 17 50  1  0
 18 51  1  0
 19 52  1  0
 19 53  1  0
 23 54  1  0
 23 55  1  0
 24 56  1  0
 24 57  1  0
 26 58  1  0
 27 59  1  0
 28 60  1  0
 29 61  1  0
 31 62  1  0
 31 63  1  0
 33 64  1  0
 33 65  1  0
M  END
>  <smiles>  (79) 
c1ccc2c(c1)CCN(c1nc(CC3CCCNC3)nc(N3CCc4ccccc4C3)n1)C2

>  <score_type>  (79) 
oracle

>  <origin>  (79) 
autodockgpu

>  <m_score__min__energy>  (79) 
-10.710000000000001

>  <m_primary>  (79) 
energy

>  <rmsd>  (79) 
10.85995290683212

>  <m_score__min__rmsd>  (79) 
10.85995290683212

>  <meeko>  (79) 
{"free_energy": -10.24, "intermolecular_energy": -11.44, "internal_energy": -1.25, "cluster_size": 49, "cluster_id": 1, "rank_in_cluster": 26}

>  <energy>  (79) 
-10.17

>  <cluster_rmsd>  (79) 
1.21

>  <cluster>  (79) 
1

$$$$

     RDKit          3D

 65 70  0  0  0  0  0  0  0  0999 V2000
  139.2340   68.5830  226.7320 C   0  0  0  0  0  0  0  0  0  0  0  0
  139.9050   69.6400  227.3410 C   0  0  0  0  0  0  0  0  0  0  0  0
  140.3690   70.6850  226.5720 C   0  0  0  0  0  0  0  0  0  0  0  0
  140.1830   70.7150  225.1920 C   0  0  0  0  0  0  0  0  0  0  0  0
  139.5160   69.6590  224.6100 C   0  0  0  0  0  0  0  0  0  0  0  0
  139.0420   68.5990  225.3610 C   0  0  0  0  0  0  0  0  0  0  0  0
  139.2940   69.6480  223.1400 C   0  0  0  0  0  0  0  0  0  0  0  0
  139.0650   71.0840  222.7150 C   0  0  0  0  0  0  0  0  0  0  0  0
  140.1700   71.9320  223.1070 N   0  0  0  0  0  0  0  0  0  0  0  0
  140.7150   72.8290  222.1450 C   0  0  0  0  0  0  0  0  0  0  0  0
  141.4620   72.3460  221.1420 N   0  0  0  0  0  0  0  0  0  0  0  0
  142.0060   73.1620  220.1950 C   0  0  0  0  0  0  0  0  0  0  0  0
  142.8130   72.5420  219.1300 C   0  0  0  0  0  0  0  0  0  0  0  0
  144.2610   72.9030  219.1620 C   0  0  1  0  0  0  0  0  0  0  0  0
  144.4950   74.1380  219.9640 C   0  0  0  0  0  0  0  0  0  0  0  0
  145.8710   74.2510  220.5650 C   0  0  0  0  0  0  0  0  0  0  0  0
  146.2310   72.9430  221.1960 C   0  0  0  0  0  0  0  0  0  0  0  0
  146.3360   71.9770  220.1010 N   0  0  0  0  0  0  0  0  0  0  0  0
  144.9820   71.6770  219.7180 C   0  0  0  0  0  0  0  0  0  0  0  0
  141.7700   74.4810  220.2980 N   0  0  0  0  0  0  0  0  0  0  0  0
  141.0250   75.0090  221.2910 C   0  0  0  0  0  0  0  0  0  0  0  0
  140.7680   76.4030  221.4080 N   0  0  0  0  0  0  0  0  0  0  0  0
  140.7090   77.2370  220.2210 C   0  0  0  0  0  0  0  0  0  0  0  0
  140.0470   78.5460  220.5900 C   0  0  0  0  0  0  0  0  0  0  0  0
  140.8320   79.1650  221.6840 C   0  0  0  0  0  0  0  0  0  0  0  0
  141.2890   80.4660  221.6470 C   0  0  0  0  0  0  0  0  0  0  0  0
  142.0130   80.9660  222.7070 C   0  0  0  0  0  0  0  0  0  0  0  0
  142.2800   80.1750  223.7980 C   0  0  0  0  0  0  0  0  0  0  0  0
  141.8220   78.8670  223.8350 C   0  0  0  0  0  0  0  0  0  0  0  0
  141.1060   78.3770  222.7840 C   0  0  0  0  0  0  0  0  0  0  0  0
  140.5680   76.9760  222.7340 C   0  0  0  0  0  0  0  0  0  0  0  0
  140.5120   74.1530  222.1970 N   0  0  0  0  0  0  0  0  0  0  0  0
  140.7120   71.8740  224.4470 C   0  0  0  0  0  0  0  0  0  0  0  0
  138.8597   67.7425  227.3349 H   0  0  0  0  0  0  0  0  0  0  0  0
  140.0638   69.6409  228.4295 H   0  0  0  0  0  0  0  0  0  0  0  0
  140.8994   71.5160  227.0600 H   0  0  0  0  0  0  0  0  0  0  0  0
  138.5129   67.7693  224.8695 H   0  0  0  0  0  0  0  0  0  0  0  0
  140.1773   69.2389  222.6278 H   0  0  0  0  0  0  0  0  0  0  0  0
  138.4302   69.0191  222.8785 H   0  0  0  0  0  0  0  0  0  0  0  0
  138.9560   71.1207  221.6210 H   0  0  0  0  0  0  0  0  0  0  0  0
  138.1538   71.4510  223.2100 H   0  0  0  0  0  0  0  0  0  0  0  0
  142.7289   71.4495  219.2269 H   0  0  0  0  0  0  0  0  0  0  0  0
  142.4168   72.9206  218.1762 H   0  0  0  0  0  0  0  0  0  0  0  0
  144.6482   73.1487  218.1622 H   0  0  0  0  0  0  0  0  0  0  0  0
  144.3359   75.0068  219.3083 H   0  0  0  0  0  0  0  0  0  0  0  0
  143.7914   74.0960  220.8085 H   0  0  0  0  0  0  0  0  0  0  0  0
  146.5994   74.4944  219.7775 H   0  0  0  0  0  0  0  0  0  0  0  0
  145.8830   75.0475  221.3236 H   0  0  0  0  0  0  0  0  0  0  0  0
  147.1921   73.0262  221.7246 H   0  0  0  0  0  0  0  0  0  0  0  0
  145.4765   72.6325  221.9337 H   0  0  0  0  0  0  0  0  0  0  0  0
  146.7300   71.1160  220.5120 H   0  0  0  0  0  0  0  0  0  0  0  0
  144.9963   70.8930  218.9466 H   0  0  0  0  0  0  0  0  0  0  0  0
  144.4409   71.3418  220.6152 H   0  0  0  0  0  0  0  0  0  0  0  0
  141.7268   77.4271  219.8495 H   0  0  0  0  0  0  0  0  0  0  0  0
  140.1331   76.7313  219.4319 H   0  0  0  0  0  0  0  0  0  0  0  0
  140.0313   79.2153  219.7172 H   0  0  0  0  0  0  0  0  0  0  0  0
  139.0108   78.3713  220.9153 H   0  0  0  0  0  0  0  0  0  0  0  0
  141.0762   81.1015  220.7748 H   0  0  0  0  0  0  0  0  0  0  0  0
  142.3789   82.0030  222.6797 H   0  0  0  0  0  0  0  0  0  0  0  0
  142.8573   80.5796  224.6424 H   0  0  0  0  0  0  0  0  0  0  0  0
  142.0349   78.2296  224.7059 H   0  0  0  0  0  0  0  0  0  0  0  0
  141.0926   76.3592  223.4785 H   0  0  0  0  0  0  0  0  0  0  0  0
  139.4906   76.9988  222.9546 H   0  0  0  0  0  0  0  0  0  0  0  0
  141.8072   71.7912  224.3868 H   0  0  0  0  0  0  0  0  0  0  0  0
  140.4186   72.7909  224.9792 H   0  0  0  0  0  0  0  0  0  0  0  0
  1  2  2  0
  2  3  1  0
  3  4  2  0
  4  5  1  0
  5  6  2  0
  5  7  1  0
  7  8  1  0
  8  9  1  0
  9 10  1  0
 10 11  2  0
 11 12  1  0
 12 13  1  0
 13 14  1  0
 14 15  1  0
 15 16  1  0
 16 17  1  0
 17 18  1  0
 18 19  1  0
 12 20  2  0
 20 21  1  0
 21 22  1  0
 22 23  1  0
 23 24  1  0
 24 25  1  0
 25 26  2  0
 26 27  1  0
 27 28  2  0
 28 29  1  0
 29 30  2  0
 30 31  1  0
 21 32  2  0
  9 33  1  0
  6  1  1  0
 32 10  1  0
 33  4  1  0
 19 14  1  0
 31 22  1  0
 30 25  1  0
  1 34  1  0
  2 35  1  0
  3 36  1  0
  6 37  1  0
  7 38  1  0
  7 39  1  0
  8 40  1  0
  8 41  1  0
 13 42  1  0
 13 43  1  0
 14 44  1  6
 15 45  1  0
 15 46  1  0
 16 47  1  0
 16 48  1  0
 17 49  1  0
 17 50  1  0
 18 51  1  0
 19 52  1  0
 19 53  1  0
 23 54  1  0
 23 55  1  0
 24 56  1  0
 24 57  1  0
 26 58  1  0
 27 59  1  0
 28 60  1  0
 29 61  1  0
 31 62  1  0
 31 63  1  0
 33 64  1  0
 33 65  1  0
M  END
>  <smiles>  (80) 
c1ccc2c(c1)CCN(c1nc(CC3CCCNC3)nc(N3CCc4ccccc4C3)n1)C2

>  <score_type>  (80) 
oracle

>  <origin>  (80) 
autodockgpu

>  <m_score__min__energy>  (80) 
-10.710000000000001

>  <m_primary>  (80) 
energy

>  <rmsd>  (80) 
10.519367887236347

>  <m_score__min__rmsd>  (80) 
10.519367887236347

>  <meeko>  (80) 
{"free_energy": -10.64, "intermolecular_energy": -11.83, "internal_energy": -1.04, "cluster_size": 49, "cluster_id": 1, "rank_in_cluster": 10}

>  <energy>  (80) 
-10.16

>  <cluster_rmsd>  (80) 
1.19

>  <cluster>  (80) 
1

$$$$

     RDKit          3D

 65 70  0  0  0  0  0  0  0  0999 V2000
  139.6960   68.2110  227.6060 C   0  0  0  0  0  0  0  0  0  0  0  0
  140.4030   69.3100  228.0870 C   0  0  0  0  0  0  0  0  0  0  0  0
  140.7150   70.3460  227.2330 C   0  0  0  0  0  0  0  0  0  0  0  0
  140.3390   70.3260  225.8920 C   0  0  0  0  0  0  0  0  0  0  0  0
  139.6390   69.2280  225.4370 C   0  0  0  0  0  0  0  0  0  0  0  0
  139.3150   68.1770  226.2760 C   0  0  0  0  0  0  0  0  0  0  0  0
  139.2170   69.1620  224.0140 C   0  0  0  0  0  0  0  0  0  0  0  0
  138.8740   70.5750  223.5870 C   0  0  0  0  0  0  0  0  0  0  0  0
  139.9900   71.4740  223.7970 N   0  0  0  0  0  0  0  0  0  0  0  0
  140.3600   72.3570  222.7450 C   0  0  0  0  0  0  0  0  0  0  0  0
  141.1450   71.9110  221.7540 N   0  0  0  0  0  0  0  0  0  0  0  0
  141.5280   72.7160  220.7230 C   0  0  0  0  0  0  0  0  0  0  0  0
  142.3900   72.1390  219.6780 C   0  0  0  0  0  0  0  0  0  0  0  0
  143.7300   72.7860  219.5550 C   0  0  1  0  0  0  0  0  0  0  0  0
  143.8260   74.0020  220.4110 C   0  0  0  0  0  0  0  0  0  0  0  0
  145.2230   74.3650  220.8420 C   0  0  0  0  0  0  0  0  0  0  0  0
  145.9160   73.1280  221.3220 C   0  0  0  0  0  0  0  0  0  0  0  0
  146.0560   72.2590  220.1530 N   0  0  0  0  0  0  0  0  0  0  0  0
  144.7470   71.7070  219.9220 C   0  0  0  0  0  0  0  0  0  0  0  0
  141.0920   73.9880  220.7300 N   0  0  0  0  0  0  0  0  0  0  0  0
  140.3030   74.4780  221.7070 C   0  0  0  0  0  0  0  0  0  0  0  0
  139.8360   75.8220  221.7230 N   0  0  0  0  0  0  0  0  0  0  0  0
  140.6870   76.8840  222.2270 C   0  0  0  0  0  0  0  0  0  0  0  0
  140.1180   78.2090  221.7680 C   0  0  0  0  0  0  0  0  0  0  0  0
  138.7250   78.3070  222.2670 C   0  0  0  0  0  0  0  0  0  0  0  0
  138.2470   79.3930  222.9710 C   0  0  0  0  0  0  0  0  0  0  0  0
  136.9370   79.4060  223.3990 C   0  0  0  0  0  0  0  0  0  0  0  0
  136.1090   78.3440  223.1270 C   0  0  0  0  0  0  0  0  0  0  0  0
  136.5900   77.2530  222.4200 C   0  0  0  0  0  0  0  0  0  0  0  0
  137.8860   77.2450  221.9980 C   0  0  0  0  0  0  0  0  0  0  0  0
  138.4950   76.1100  221.2270 C   0  0  0  0  0  0  0  0  0  0  0  0
  139.9560   73.6350  222.6990 N   0  0  0  0  0  0  0  0  0  0  0  0
  140.7130   71.4770  225.0500 C   0  0  0  0  0  0  0  0  0  0  0  0
  139.4426   67.3772  228.2773 H   0  0  0  0  0  0  0  0  0  0  0  0
  140.7107   69.3512  229.1423 H   0  0  0  0  0  0  0  0  0  0  0  0
  141.2749   71.2101  227.6202 H   0  0  0  0  0  0  0  0  0  0  0  0
  138.7547   67.3144  225.8861 H   0  0  0  0  0  0  0  0  0  0  0  0
  140.0368   68.7688  223.3948 H   0  0  0  0  0  0  0  0  0  0  0  0
  138.3514   68.4943  223.8921 H   0  0  0  0  0  0  0  0  0  0  0  0
  138.6118   70.5728  222.5187 H   0  0  0  0  0  0  0  0  0  0  0  0
  138.0269   70.9254  224.1950 H   0  0  0  0  0  0  0  0  0  0  0  0
  142.5422   71.0740  219.9073 H   0  0  0  0  0  0  0  0  0  0  0  0
  141.8739   72.3028  218.7205 H   0  0  0  0  0  0  0  0  0  0  0  0
  143.9200   73.1538  218.5358 H   0  0  0  0  0  0  0  0  0  0  0  0
  143.4109   74.8505  219.8473 H   0  0  0  0  0  0  0  0  0  0  0  0
  143.2678   73.7763  221.3316 H   0  0  0  0  0  0  0  0  0  0  0  0
  145.7739   74.7906  219.9903 H   0  0  0  0  0  0  0  0  0  0  0  0
  145.1832   75.1092  221.6511 H   0  0  0  0  0  0  0  0  0  0  0  0
  146.9057   73.3796  221.7309 H   0  0  0  0  0  0  0  0  0  0  0  0
  145.3459   72.6342  222.1227 H   0  0  0  0  0  0  0  0  0  0  0  0
  146.6640   71.4770  220.4460 H   0  0  0  0  0  0  0  0  0  0  0  0
  144.8077   70.9807  219.0981 H   0  0  0  0  0  0  0  0  0  0  0  0
  144.4116   71.2248  220.8521 H   0  0  0  0  0  0  0  0  0  0  0  0
  140.7114   76.8507  223.3262 H   0  0  0  0  0  0  0  0  0  0  0  0
  141.7118   76.7603  221.8469 H   0  0  0  0  0  0  0  0  0  0  0  0
  140.7195   79.0349  222.1756 H   0  0  0  0  0  0  0  0  0  0  0  0
  140.1360   78.2728  220.6700 H   0  0  0  0  0  0  0  0  0  0  0  0
  138.9083   80.2444  223.1896 H   0  0  0  0  0  0  0  0  0  0  0  0
  136.5528   80.2702  223.9607 H   0  0  0  0  0  0  0  0  0  0  0  0
  135.0641   78.3594  223.4703 H   0  0  0  0  0  0  0  0  0  0  0  0
  135.9307   76.4001  222.2012 H   0  0  0  0  0  0  0  0  0  0  0  0
  137.8659   75.2149  221.3415 H   0  0  0  0  0  0  0  0  0  0  0  0
  138.5594   76.3926  220.1659 H   0  0  0  0  0  0  0  0  0  0  0  0
  141.7919   71.4310  224.8403 H   0  0  0  0  0  0  0  0  0  0  0  0
  140.4588   72.3992  225.5931 H   0  0  0  0  0  0  0  0  0  0  0  0
  1  2  2  0
  2  3  1  0
  3  4  2  0
  4  5  1  0
  5  6  2  0
  5  7  1  0
  7  8  1  0
  8  9  1  0
  9 10  1  0
 10 11  2  0
 11 12  1  0
 12 13  1  0
 13 14  1  0
 14 15  1  0
 15 16  1  0
 16 17  1  0
 17 18  1  0
 18 19  1  0
 12 20  2  0
 20 21  1  0
 21 22  1  0
 22 23  1  0
 23 24  1  0
 24 25  1  0
 25 26  2  0
 26 27  1  0
 27 28  2  0
 28 29  1  0
 29 30  2  0
 30 31  1  0
 21 32  2  0
  9 33  1  0
  6  1  1  0
 32 10  1  0
 33  4  1  0
 19 14  1  0
 31 22  1  0
 30 25  1  0
  1 34  1  0
  2 35  1  0
  3 36  1  0
  6 37  1  0
  7 38  1  0
  7 39  1  0
  8 40  1  0
  8 41  1  0
 13 42  1  0
 13 43  1  0
 14 44  1  6
 15 45  1  0
 15 46  1  0
 16 47  1  0
 16 48  1  0
 17 49  1  0
 17 50  1  0
 18 51  1  0
 19 52  1  0
 19 53  1  0
 23 54  1  0
 23 55  1  0
 24 56  1  0
 24 57  1  0
 26 58  1  0
 27 59  1  0
 28 60  1  0
 29 61  1  0
 31 62  1  0
 31 63  1  0
 33 64  1  0
 33 65  1  0
M  END
>  <smiles>  (81) 
c1ccc2c(c1)CCN(c1nc(CC3CCCNC3)nc(N3CCc4ccccc4C3)n1)C2

>  <score_type>  (81) 
oracle

>  <origin>  (81) 
autodockgpu

>  <m_score__min__energy>  (81) 
-10.710000000000001

>  <m_primary>  (81) 
energy

>  <rmsd>  (81) 
11.237049991075324

>  <m_score__min__rmsd>  (81) 
11.237049991075324

>  <meeko>  (81) 
{"free_energy": -10.01, "intermolecular_energy": -11.2, "internal_energy": -0.98, "cluster_size": 49, "cluster_id": 1, "rank_in_cluster": 38}

>  <energy>  (81) 
-10.14

>  <cluster_rmsd>  (81) 
0.85

>  <cluster>  (81) 
1

$$$$

     RDKit          3D

 65 70  0  0  0  0  0  0  0  0999 V2000
  139.3920   68.2670  226.2690 C   0  0  0  0  0  0  0  0  0  0  0  0
  140.0360   69.2810  226.9740 C   0  0  0  0  0  0  0  0  0  0  0  0
  140.4460   70.4170  226.3100 C   0  0  0  0  0  0  0  0  0  0  0  0
  140.2320   70.5820  224.9440 C   0  0  0  0  0  0  0  0  0  0  0  0
  139.5920   69.5660  224.2650 C   0  0  0  0  0  0  0  0  0  0  0  0
  139.1720   68.4180  224.9110 C   0  0  0  0  0  0  0  0  0  0  0  0
  139.3420   69.6990  222.8070 C   0  0  0  0  0  0  0  0  0  0  0  0
  139.0510   71.1610  222.5370 C   0  0  0  0  0  0  0  0  0  0  0  0
  140.1330   72.0060  222.9970 N   0  0  0  0  0  0  0  0  0  0  0  0
  140.6240   73.0180  222.1250 C   0  0  0  0  0  0  0  0  0  0  0  0
  141.3690   72.6700  221.0650 N   0  0  0  0  0  0  0  0  0  0  0  0
  141.8640   73.6000  220.2000 C   0  0  0  0  0  0  0  0  0  0  0  0
  142.6720   73.1260  219.0640 C   0  0  0  0  0  0  0  0  0  0  0  0
  144.1390   73.3590  219.2080 C   0  0  1  0  0  0  0  0  0  0  0  0
  144.4200   74.4740  220.1560 C   0  0  0  0  0  0  0  0  0  0  0  0
  145.7640   74.4060  220.8340 C   0  0  0  0  0  0  0  0  0  0  0  0
  145.9840   73.0110  221.3270 C   0  0  0  0  0  0  0  0  0  0  0  0
  146.0780   72.1660  220.1360 N   0  0  0  0  0  0  0  0  0  0  0  0
  144.7290   72.0240  219.6540 C   0  0  0  0  0  0  0  0  0  0  0  0
  141.5810   74.8920  220.4430 N   0  0  0  0  0  0  0  0  0  0  0  0
  140.8370   75.2850  221.4970 C   0  0  0  0  0  0  0  0  0  0  0  0
  140.5310   76.6490  221.7620 N   0  0  0  0  0  0  0  0  0  0  0  0
  139.6980   77.4020  220.8430 C   0  0  0  0  0  0  0  0  0  0  0  0
  139.2200   78.6530  221.5470 C   0  0  0  0  0  0  0  0  0  0  0  0
  140.4130   79.4120  221.9920 C   0  0  0  0  0  0  0  0  0  0  0  0
  140.6060   80.7500  221.7160 C   0  0  0  0  0  0  0  0  0  0  0  0
  141.7430   81.3840  222.1660 C   0  0  0  0  0  0  0  0  0  0  0  0
  142.6840   80.6890  222.8870 C   0  0  0  0  0  0  0  0  0  0  0  0
  142.4910   79.3440  223.1640 C   0  0  0  0  0  0  0  0  0  0  0  0
  141.3640   78.7220  222.7170 C   0  0  0  0  0  0  0  0  0  0  0  0
  141.0670   77.2720  222.9670 C   0  0  0  0  0  0  0  0  0  0  0  0
  140.3740   74.3210  222.3170 N   0  0  0  0  0  0  0  0  0  0  0  0
  140.7020   71.8310  224.3150 C   0  0  0  0  0  0  0  0  0  0  0  0
  139.0613   67.3546  226.7868 H   0  0  0  0  0  0  0  0  0  0  0  0
  140.2162   69.1758  228.0540 H   0  0  0  0  0  0  0  0  0  0  0  0
  140.9550   71.2131  226.8731 H   0  0  0  0  0  0  0  0  0  0  0  0
  138.6626   67.6241  224.3452 H   0  0  0  0  0  0  0  0  0  0  0  0
  140.2298   69.3802  222.2412 H   0  0  0  0  0  0  0  0  0  0  0  0
  138.4971   69.0673  222.4952 H   0  0  0  0  0  0  0  0  0  0  0  0
  138.9182   71.3061  221.4547 H   0  0  0  0  0  0  0  0  0  0  0  0
  138.1369   71.4396  223.0818 H   0  0  0  0  0  0  0  0  0  0  0  0
  142.5053   72.0445  218.9514 H   0  0  0  0  0  0  0  0  0  0  0  0
  142.3480   73.7049  218.1865 H   0  0  0  0  0  0  0  0  0  0  0  0
  144.6022   73.6800  218.2633 H   0  0  0  0  0  0  0  0  0  0  0  0
  144.3667   75.4198  219.5968 H   0  0  0  0  0  0  0  0  0  0  0  0
  143.6672   74.3976  220.9544 H   0  0  0  0  0  0  0  0  0  0  0  0
  146.5540   74.6738  220.1169 H   0  0  0  0  0  0  0  0  0  0  0  0
  145.7932   75.1103  221.6785 H   0  0  0  0  0  0  0  0  0  0  0  0
  146.9159   72.9549  221.9087 H   0  0  0  0  0  0  0  0  0  0  0  0
  145.1652   72.6853  221.9854 H   0  0  0  0  0  0  0  0  0  0  0  0
  146.3800   71.2350  220.4650 H   0  0  0  0  0  0  0  0  0  0  0  0
  144.7281   71.3318  218.7991 H   0  0  0  0  0  0  0  0  0  0  0  0
  144.1119   71.6378  220.4786 H   0  0  0  0  0  0  0  0  0  0  0  0
  140.2821   77.6771  219.9524 H   0  0  0  0  0  0  0  0  0  0  0  0
  138.8375   76.7936  220.5278 H   0  0  0  0  0  0  0  0  0  0  0  0
  138.6241   79.2662  220.8550 H   0  0  0  0  0  0  0  0  0  0  0  0
  138.5909   78.3893  222.4099 H   0  0  0  0  0  0  0  0  0  0  0  0
  139.8545   81.3084  221.1386 H   0  0  0  0  0  0  0  0  0  0  0  0
  141.8984   82.4508  221.9474 H   0  0  0  0  0  0  0  0  0  0  0  0
  143.5904   81.1996  223.2444 H   0  0  0  0  0  0  0  0  0  0  0  0
  143.2419   78.7835  223.7402 H   0  0  0  0  0  0  0  0  0  0  0  0
  141.9939   76.7572  223.2599 H   0  0  0  0  0  0  0  0  0  0  0  0
  140.3213   77.1935  223.7719 H   0  0  0  0  0  0  0  0  0  0  0  0
  141.7982   71.7981  224.2298 H   0  0  0  0  0  0  0  0  0  0  0  0
  140.3839   72.6757  224.9438 H   0  0  0  0  0  0  0  0  0  0  0  0
  1  2  2  0
  2  3  1  0
  3  4  2  0
  4  5  1  0
  5  6  2  0
  5  7  1  0
  7  8  1  0
  8  9  1  0
  9 10  1  0
 10 11  2  0
 11 12  1  0
 12 13  1  0
 13 14  1  0
 14 15  1  0
 15 16  1  0
 16 17  1  0
 17 18  1  0
 18 19  1  0
 12 20  2  0
 20 21  1  0
 21 22  1  0
 22 23  1  0
 23 24  1  0
 24 25  1  0
 25 26  2  0
 26 27  1  0
 27 28  2  0
 28 29  1  0
 29 30  2  0
 30 31  1  0
 21 32  2  0
  9 33  1  0
  6  1  1  0
 32 10  1  0
 33  4  1  0
 19 14  1  0
 31 22  1  0
 30 25  1  0
  1 34  1  0
  2 35  1  0
  3 36  1  0
  6 37  1  0
  7 38  1  0
  7 39  1  0
  8 40  1  0
  8 41  1  0
 13 42  1  0
 13 43  1  0
 14 44  1  6
 15 45  1  0
 15 46  1  0
 16 47  1  0
 16 48  1  0
 17 49  1  0
 17 50  1  0
 18 51  1  0
 19 52  1  0
 19 53  1  0
 23 54  1  0
 23 55  1  0
 24 56  1  0
 24 57  1  0
 26 58  1  0
 27 59  1  0
 28 60  1  0
 29 61  1  0
 31 62  1  0
 31 63  1  0
 33 64  1  0
 33 65  1  0
M  END
>  <smiles>  (82) 
c1ccc2c(c1)CCN(c1nc(CC3CCCNC3)nc(N3CCc4ccccc4C3)n1)C2

>  <score_type>  (82) 
oracle

>  <origin>  (82) 
autodockgpu

>  <m_score__min__energy>  (82) 
-10.710000000000001

>  <m_primary>  (82) 
energy

>  <rmsd>  (82) 
10.472753327918364

>  <m_score__min__rmsd>  (82) 
10.472753327918364

>  <meeko>  (82) 
{"free_energy": -10.4, "intermolecular_energy": -11.59, "internal_energy": -1.14, "cluster_size": 49, "cluster_id": 1, "rank_in_cluster": 15}

>  <energy>  (82) 
-10.13

>  <cluster_rmsd>  (82) 
1.16

>  <cluster>  (82) 
1

$$$$

     RDKit          3D

 65 70  0  0  0  0  0  0  0  0999 V2000
  139.2280   68.5830  226.8310 C   0  0  0  0  0  0  0  0  0  0  0  0
  139.9590   69.6100  227.4220 C   0  0  0  0  0  0  0  0  0  0  0  0
  140.4150   70.6550  226.6470 C   0  0  0  0  0  0  0  0  0  0  0  0
  140.1630   70.7140  225.2790 C   0  0  0  0  0  0  0  0  0  0  0  0
  139.4370   69.6860  224.7140 C   0  0  0  0  0  0  0  0  0  0  0  0
  138.9700   68.6280  225.4710 C   0  0  0  0  0  0  0  0  0  0  0  0
  139.1440   69.7060  223.2570 C   0  0  0  0  0  0  0  0  0  0  0  0
  138.9350   71.1550  222.8660 C   0  0  0  0  0  0  0  0  0  0  0  0
  140.0830   71.9650  223.2160 N   0  0  0  0  0  0  0  0  0  0  0  0
  140.6060   72.8620  222.2420 C   0  0  0  0  0  0  0  0  0  0  0  0
  141.3730   72.3860  221.2510 N   0  0  0  0  0  0  0  0  0  0  0  0
  141.8980   73.2020  220.2940 C   0  0  0  0  0  0  0  0  0  0  0  0
  142.7290   72.5910  219.2440 C   0  0  0  0  0  0  0  0  0  0  0  0
  144.1610   73.0120  219.2640 C   0  0  1  0  0  0  0  0  0  0  0  0
  144.3600   74.2150  220.1220 C   0  0  0  0  0  0  0  0  0  0  0  0
  145.7430   74.3580  220.7000 C   0  0  0  0  0  0  0  0  0  0  0  0
  146.1720   73.0370  221.2560 C   0  0  0  0  0  0  0  0  0  0  0  0
  146.2940   72.1320  220.1120 N   0  0  0  0  0  0  0  0  0  0  0  0
  144.9450   71.7930  219.7410 C   0  0  0  0  0  0  0  0  0  0  0  0
  141.6210   74.5160  220.3740 N   0  0  0  0  0  0  0  0  0  0  0  0
  140.8540   75.0360  221.3540 C   0  0  0  0  0  0  0  0  0  0  0  0
  140.5550   76.4240  221.4470 N   0  0  0  0  0  0  0  0  0  0  0  0
  140.1630   77.1670  220.2630 C   0  0  0  0  0  0  0  0  0  0  0  0
  139.5360   78.4710  220.7050 C   0  0  0  0  0  0  0  0  0  0  0  0
  140.5270   79.1990  221.5330 C   0  0  0  0  0  0  0  0  0  0  0  0
  140.8870   80.5110  221.3070 C   0  0  0  0  0  0  0  0  0  0  0  0
  141.8170   81.1150  222.1250 C   0  0  0  0  0  0  0  0  0  0  0  0
  142.3850   80.4160  223.1620 C   0  0  0  0  0  0  0  0  0  0  0  0
  142.0240   79.0970  223.3890 C   0  0  0  0  0  0  0  0  0  0  0  0
  141.1040   78.5040  222.5770 C   0  0  0  0  0  0  0  0  0  0  0  0
  140.6500   77.0820  222.7450 C   0  0  0  0  0  0  0  0  0  0  0  0
  140.3630   74.1810  222.2710 N   0  0  0  0  0  0  0  0  0  0  0  0
  140.6880   71.8690  224.5270 C   0  0  0  0  0  0  0  0  0  0  0  0
  138.8588   67.7436  227.4386 H   0  0  0  0  0  0  0  0  0  0  0  0
  140.1715   69.5877  228.5011 H   0  0  0  0  0  0  0  0  0  0  0  0
  140.9923   71.4623  227.1213 H   0  0  0  0  0  0  0  0  0  0  0  0
  138.3936   67.8220  224.9934 H   0  0  0  0  0  0  0  0  0  0  0  0
  139.9897   69.2817  222.6959 H   0  0  0  0  0  0  0  0  0  0  0  0
  138.2513   69.1054  223.0282 H   0  0  0  0  0  0  0  0  0  0  0  0
  138.7732   71.2132  221.7795 H   0  0  0  0  0  0  0  0  0  0  0  0
  138.0599   71.5390  223.4108 H   0  0  0  0  0  0  0  0  0  0  0  0
  142.6904   71.4987  219.3676 H   0  0  0  0  0  0  0  0  0  0  0  0
  142.3168   72.9302  218.2822 H   0  0  0  0  0  0  0  0  0  0  0  0
  144.5155   73.3234  218.2703 H   0  0  0  0  0  0  0  0  0  0  0  0
  144.1495   75.1072  219.5140 H   0  0  0  0  0  0  0  0  0  0  0  0
  143.6778   74.1010  220.9773 H   0  0  0  0  0  0  0  0  0  0  0  0
  146.4426   74.6720  219.9114 H   0  0  0  0  0  0  0  0  0  0  0  0
  145.7383   75.1155  221.4976 H   0  0  0  0  0  0  0  0  0  0  0  0
  147.1400   73.1356  221.7690 H   0  0  0  0  0  0  0  0  0  0  0  0
  145.4474   72.6575  221.9915 H   0  0  0  0  0  0  0  0  0  0  0  0
  146.7340   71.2690  220.4710 H   0  0  0  0  0  0  0  0  0  0  0  0
  144.9755   71.0505  218.9300 H   0  0  0  0  0  0  0  0  0  0  0  0
  144.4388   71.3895  220.6303 H   0  0  0  0  0  0  0  0  0  0  0  0
  141.0480   77.3715  219.6425 H   0  0  0  0  0  0  0  0  0  0  0  0
  139.4436   76.5828  219.6705 H   0  0  0  0  0  0  0  0  0  0  0  0
  139.2700   79.0745  219.8246 H   0  0  0  0  0  0  0  0  0  0  0  0
  138.6218   78.2778  221.2854 H   0  0  0  0  0  0  0  0  0  0  0  0
  140.4336   81.0730  220.4772 H   0  0  0  0  0  0  0  0  0  0  0  0
  142.1057   82.1614  221.9467 H   0  0  0  0  0  0  0  0  0  0  0  0
  143.1265   80.9029  223.8125 H   0  0  0  0  0  0  0  0  0  0  0  0
  142.4766   78.5333  224.2181 H   0  0  0  0  0  0  0  0  0  0  0  0
  141.3735   76.5420  223.3734 H   0  0  0  0  0  0  0  0  0  0  0  0
  139.6588   77.0770  223.2220 H   0  0  0  0  0  0  0  0  0  0  0  0
  141.7761   71.7562  224.4116 H   0  0  0  0  0  0  0  0  0  0  0  0
  140.4476   72.7848  225.0870 H   0  0  0  0  0  0  0  0  0  0  0  0
  1  2  2  0
  2  3  1  0
  3  4  2  0
  4  5  1  0
  5  6  2  0
  5  7  1  0
  7  8  1  0
  8  9  1  0
  9 10  1  0
 10 11  2  0
 11 12  1  0
 12 13  1  0
 13 14  1  0
 14 15  1  0
 15 16  1  0
 16 17  1  0
 17 18  1  0
 18 19  1  0
 12 20  2  0
 20 21  1  0
 21 22  1  0
 22 23  1  0
 23 24  1  0
 24 25  1  0
 25 26  2  0
 26 27  1  0
 27 28  2  0
 28 29  1  0
 29 30  2  0
 30 31  1  0
 21 32  2  0
  9 33  1  0
  6  1  1  0
 32 10  1  0
 33  4  1  0
 19 14  1  0
 31 22  1  0
 30 25  1  0
  1 34  1  0
  2 35  1  0
  3 36  1  0
  6 37  1  0
  7 38  1  0
  7 39  1  0
  8 40  1  0
  8 41  1  0
 13 42  1  0
 13 43  1  0
 14 44  1  6
 15 45  1  0
 15 46  1  0
 16 47  1  0
 16 48  1  0
 17 49  1  0
 17 50  1  0
 18 51  1  0
 19 52  1  0
 19 53  1  0
 23 54  1  0
 23 55  1  0
 24 56  1  0
 24 57  1  0
 26 58  1  0
 27 59  1  0
 28 60  1  0
 29 61  1  0
 31 62  1  0
 31 63  1  0
 33 64  1  0
 33 65  1  0
M  END
>  <smiles>  (83) 
c1ccc2c(c1)CCN(c1nc(CC3CCCNC3)nc(N3CCc4ccccc4C3)n1)C2

>  <score_type>  (83) 
oracle

>  <origin>  (83) 
autodockgpu

>  <m_score__min__energy>  (83) 
-10.710000000000001

>  <m_primary>  (83) 
energy

>  <rmsd>  (83) 
10.57258381261368

>  <m_score__min__rmsd>  (83) 
10.57258381261368

>  <meeko>  (83) 
{"free_energy": -10.62, "intermolecular_energy": -11.81, "internal_energy": -1.03, "cluster_size": 49, "cluster_id": 1, "rank_in_cluster": 12}

>  <energy>  (83) 
-10.11

>  <cluster_rmsd>  (83) 
1.31

>  <cluster>  (83) 
1

$$$$

     RDKit          3D

 65 70  0  0  0  0  0  0  0  0999 V2000
  139.2560   68.1880  225.9820 C   0  0  0  0  0  0  0  0  0  0  0  0
  139.8910   69.1720  226.7350 C   0  0  0  0  0  0  0  0  0  0  0  0
  140.2930   70.3410  226.1260 C   0  0  0  0  0  0  0  0  0  0  0  0
  140.0800   70.5690  224.7680 C   0  0  0  0  0  0  0  0  0  0  0  0
  139.4490   69.5810  224.0420 C   0  0  0  0  0  0  0  0  0  0  0  0
  139.0370   68.4000  224.6320 C   0  0  0  0  0  0  0  0  0  0  0  0
  139.2010   69.7790  222.5900 C   0  0  0  0  0  0  0  0  0  0  0  0
  138.9000   71.2500  222.3890 C   0  0  0  0  0  0  0  0  0  0  0  0
  139.9740   72.0810  222.8900 N   0  0  0  0  0  0  0  0  0  0  0  0
  140.4590   73.1360  222.0670 C   0  0  0  0  0  0  0  0  0  0  0  0
  141.1740   72.8430  220.9710 N   0  0  0  0  0  0  0  0  0  0  0  0
  141.6620   73.8150  220.1500 C   0  0  0  0  0  0  0  0  0  0  0  0
  142.4350   73.3980  218.9690 C   0  0  0  0  0  0  0  0  0  0  0  0
  143.9050   73.6380  219.0760 C   0  0  1  0  0  0  0  0  0  0  0  0
  144.2480   74.3430  220.3430 C   0  0  0  0  0  0  0  0  0  0  0  0
  145.6490   74.1010  220.8430 C   0  0  0  0  0  0  0  0  0  0  0  0
  145.9400   72.6350  220.7680 C   0  0  0  0  0  0  0  0  0  0  0  0
  145.9440   72.2910  219.3460 N   0  0  0  0  0  0  0  0  0  0  0  0
  144.5590   72.2650  218.9510 C   0  0  0  0  0  0  0  0  0  0  0  0
  141.4030   75.0940  220.4760 N   0  0  0  0  0  0  0  0  0  0  0  0
  140.6900   75.4330  221.5690 C   0  0  0  0  0  0  0  0  0  0  0  0
  140.4100   76.7830  221.9210 N   0  0  0  0  0  0  0  0  0  0  0  0
  139.4590   77.5580  221.1460 C   0  0  0  0  0  0  0  0  0  0  0  0
  139.0670   78.7770  221.9520 C   0  0  0  0  0  0  0  0  0  0  0  0
  140.3010   79.5350  222.2660 C   0  0  0  0  0  0  0  0  0  0  0  0
  140.4450   80.8850  222.0160 C   0  0  0  0  0  0  0  0  0  0  0  0
  141.6270   81.5160  222.3380 C   0  0  0  0  0  0  0  0  0  0  0  0
  142.6590   80.8080  222.9050 C   0  0  0  0  0  0  0  0  0  0  0  0
  142.5140   79.4520  223.1550 C   0  0  0  0  0  0  0  0  0  0  0  0
  141.3440   78.8320  222.8350 C   0  0  0  0  0  0  0  0  0  0  0  0
  141.0940   77.3700  223.0680 C   0  0  0  0  0  0  0  0  0  0  0  0
  140.2330   74.4290  222.3420 N   0  0  0  0  0  0  0  0  0  0  0  0
  140.5420   71.8490  224.2000 C   0  0  0  0  0  0  0  0  0  0  0  0
  138.9311   67.2501  226.4560 H   0  0  0  0  0  0  0  0  0  0  0  0
  140.0707   69.0173  227.8091 H   0  0  0  0  0  0  0  0  0  0  0  0
  140.7947   71.1136  226.7271 H   0  0  0  0  0  0  0  0  0  0  0  0
  138.5353   67.6293  224.0284 H   0  0  0  0  0  0  0  0  0  0  0  0
  140.0923   69.4933  222.0121 H   0  0  0  0  0  0  0  0  0  0  0  0
  138.3621   69.1560  222.2464 H   0  0  0  0  0  0  0  0  0  0  0  0
  138.7678   71.4449  221.3145 H   0  0  0  0  0  0  0  0  0  0  0  0
  137.9833   71.4955  222.9453 H   0  0  0  0  0  0  0  0  0  0  0  0
  142.2728   72.3210  218.8147 H   0  0  0  0  0  0  0  0  0  0  0  0
  142.0778   74.0109  218.1283 H   0  0  0  0  0  0  0  0  0  0  0  0
  144.2751   74.3056  218.2840 H   0  0  0  0  0  0  0  0  0  0  0  0
  144.1261   75.4235  220.1769 H   0  0  0  0  0  0  0  0  0  0  0  0
  143.5717   73.9424  221.1125 H   0  0  0  0  0  0  0  0  0  0  0  0
  146.3657   74.6529  220.2171 H   0  0  0  0  0  0  0  0  0  0  0  0
  145.7404   74.4480  221.8828 H   0  0  0  0  0  0  0  0  0  0  0  0
  146.9211   72.4178  221.2155 H   0  0  0  0  0  0  0  0  0  0  0  0
  145.1901   72.0491  221.3197 H   0  0  0  0  0  0  0  0  0  0  0  0
  146.2920   71.3210  219.2840 H   0  0  0  0  0  0  0  0  0  0  0  0
  144.4941   71.9343  217.9039 H   0  0  0  0  0  0  0  0  0  0  0  0
  144.0271   71.5722  219.6197 H   0  0  0  0  0  0  0  0  0  0  0  0
  139.9205   77.8720  220.1981 H   0  0  0  0  0  0  0  0  0  0  0  0
  138.5695   76.9507  220.9224 H   0  0  0  0  0  0  0  0  0  0  0  0
  138.3809   79.4067  221.3665 H   0  0  0  0  0  0  0  0  0  0  0  0
  138.5582   78.4745  222.8791 H   0  0  0  0  0  0  0  0  0  0  0  0
  139.6204   81.4542  221.5621 H   0  0  0  0  0  0  0  0  0  0  0  0
  141.7449   82.5916  222.1401 H   0  0  0  0  0  0  0  0  0  0  0  0
  143.6001   81.3169  223.1606 H   0  0  0  0  0  0  0  0  0  0  0  0
  143.3377   78.8810  223.6084 H   0  0  0  0  0  0  0  0  0  0  0  0
  142.0554   76.8571  223.2183 H   0  0  0  0  0  0  0  0  0  0  0  0
  140.4606   77.2535  223.9597 H   0  0  0  0  0  0  0  0  0  0  0  0
  141.6386   71.8282  224.1160 H   0  0  0  0  0  0  0  0  0  0  0  0
  140.2169   72.6610  224.8670 H   0  0  0  0  0  0  0  0  0  0  0  0
  1  2  2  0
  2  3  1  0
  3  4  2  0
  4  5  1  0
  5  6  2  0
  5  7  1  0
  7  8  1  0
  8  9  1  0
  9 10  1  0
 10 11  2  0
 11 12  1  0
 12 13  1  0
 13 14  1  0
 14 15  1  0
 15 16  1  0
 16 17  1  0
 17 18  1  0
 18 19  1  0
 12 20  2  0
 20 21  1  0
 21 22  1  0
 22 23  1  0
 23 24  1  0
 24 25  1  0
 25 26  2  0
 26 27  1  0
 27 28  2  0
 28 29  1  0
 29 30  2  0
 30 31  1  0
 21 32  2  0
  9 33  1  0
  6  1  1  0
 32 10  1  0
 33  4  1  0
 19 14  1  0
 31 22  1  0
 30 25  1  0
  1 34  1  0
  2 35  1  0
  3 36  1  0
  6 37  1  0
  7 38  1  0
  7 39  1  0
  8 40  1  0
  8 41  1  0
 13 42  1  0
 13 43  1  0
 14 44  1  6
 15 45  1  0
 15 46  1  0
 16 47  1  0
 16 48  1  0
 17 49  1  0
 17 50  1  0
 18 51  1  0
 19 52  1  0
 19 53  1  0
 23 54  1  0
 23 55  1  0
 24 56  1  0
 24 57  1  0
 26 58  1  0
 27 59  1  0
 28 60  1  0
 29 61  1  0
 31 62  1  0
 31 63  1  0
 33 64  1  0
 33 65  1  0
M  END
>  <smiles>  (84) 
c1ccc2c(c1)CCN(c1nc(CC3CCCNC3)nc(N3CCc4ccccc4C3)n1)C2

>  <score_type>  (84) 
oracle

>  <origin>  (84) 
autodockgpu

>  <m_score__min__energy>  (84) 
-10.710000000000001

>  <m_primary>  (84) 
energy

>  <rmsd>  (84) 
10.394660411222043

>  <m_score__min__rmsd>  (84) 
10.394660411222043

>  <meeko>  (84) 
{"free_energy": -10.14, "intermolecular_energy": -11.33, "internal_energy": -1.12, "cluster_size": 49, "cluster_id": 1, "rank_in_cluster": 31}

>  <energy>  (84) 
-10.11

>  <cluster_rmsd>  (84) 
1.14

>  <cluster>  (84) 
1

$$$$

     RDKit          3D

 65 70  0  0  0  0  0  0  0  0999 V2000
  138.6310   80.3580  223.2570 C   0  0  0  0  0  0  0  0  0  0  0  0
  140.0140   80.3560  223.0910 C   0  0  0  0  0  0  0  0  0  0  0  0
  140.6630   79.1770  222.7980 C   0  0  0  0  0  0  0  0  0  0  0  0
  139.9710   77.9760  222.6600 C   0  0  0  0  0  0  0  0  0  0  0  0
  138.6020   78.0000  222.8280 C   0  0  0  0  0  0  0  0  0  0  0  0
  137.9300   79.1720  223.1230 C   0  0  0  0  0  0  0  0  0  0  0  0
  137.8210   76.7430  222.6910 C   0  0  0  0  0  0  0  0  0  0  0  0
  138.4900   75.9220  221.6080 C   0  0  0  0  0  0  0  0  0  0  0  0
  139.8840   75.6820  221.9140 N   0  0  0  0  0  0  0  0  0  0  0  0
  140.3930   74.3590  221.7800 C   0  0  0  0  0  0  0  0  0  0  0  0
  141.0880   74.0280  220.6830 N   0  0  0  0  0  0  0  0  0  0  0  0
  141.5970   72.7750  220.5060 C   0  0  0  0  0  0  0  0  0  0  0  0
  142.3470   72.5020  219.2690 C   0  0  0  0  0  0  0  0  0  0  0  0
  143.7620   72.9770  219.2860 C   0  0  1  0  0  0  0  0  0  0  0  0
  143.9180   74.1870  220.1420 C   0  0  0  0  0  0  0  0  0  0  0  0
  145.2960   74.3820  220.7180 C   0  0  0  0  0  0  0  0  0  0  0  0
  145.7740   73.0790  221.2750 C   0  0  0  0  0  0  0  0  0  0  0  0
  145.9280   72.1780  220.1330 N   0  0  0  0  0  0  0  0  0  0  0  0
  144.5920   71.7880  219.7650 C   0  0  0  0  0  0  0  0  0  0  0  0
  141.3780   71.8710  221.4770 N   0  0  0  0  0  0  0  0  0  0  0  0
  140.6840   72.1620  222.5960 C   0  0  0  0  0  0  0  0  0  0  0  0
  140.4480   71.2120  223.6280 N   0  0  0  0  0  0  0  0  0  0  0  0
  139.2600   70.3800  223.5960 C   0  0  0  0  0  0  0  0  0  0  0  0
  139.4590   69.2270  224.5560 C   0  0  0  0  0  0  0  0  0  0  0  0
  139.7250   69.7910  225.9010 C   0  0  0  0  0  0  0  0  0  0  0  0
  139.0340   69.4110  227.0320 C   0  0  0  0  0  0  0  0  0  0  0  0
  139.3440   69.9840  228.2470 C   0  0  0  0  0  0  0  0  0  0  0  0
  140.3360   70.9300  228.3320 C   0  0  0  0  0  0  0  0  0  0  0  0
  141.0300   71.3130  227.1950 C   0  0  0  0  0  0  0  0  0  0  0  0
  140.7200   70.7430  225.9970 C   0  0  0  0  0  0  0  0  0  0  0  0
  141.4160   71.0920  224.7130 C   0  0  0  0  0  0  0  0  0  0  0  0
  140.2070   73.4160  222.7150 N   0  0  0  0  0  0  0  0  0  0  0  0
  140.7460   76.7610  222.3440 C   0  0  0  0  0  0  0  0  0  0  0  0
  138.1012   81.2928  223.4923 H   0  0  0  0  0  0  0  0  0  0  0  0
  140.5847   81.2908  223.1933 H   0  0  0  0  0  0  0  0  0  0  0  0
  141.7555   79.1840  222.6697 H   0  0  0  0  0  0  0  0  0  0  0  0
  136.8375   79.1618  223.2513 H   0  0  0  0  0  0  0  0  0  0  0  0
  137.8257   76.1898  223.6417 H   0  0  0  0  0  0  0  0  0  0  0  0
  136.7740   76.9576  222.4307 H   0  0  0  0  0  0  0  0  0  0  0  0
  137.9714   74.9560  221.5191 H   0  0  0  0  0  0  0  0  0  0  0  0
  138.4340   76.4828  220.6634 H   0  0  0  0  0  0  0  0  0  0  0  0
  142.3515   71.4147  219.1027 H   0  0  0  0  0  0  0  0  0  0  0  0
  141.8399   73.0575  218.4664 H   0  0  0  0  0  0  0  0  0  0  0  0
  144.1022   73.3003  218.2911 H   0  0  0  0  0  0  0  0  0  0  0  0
  143.6738   75.0701  219.5334 H   0  0  0  0  0  0  0  0  0  0  0  0
  143.2419   74.0486  220.9986 H   0  0  0  0  0  0  0  0  0  0  0  0
  145.9825   74.7205  219.9280 H   0  0  0  0  0  0  0  0  0  0  0  0
  145.2645   75.1400  221.5145 H   0  0  0  0  0  0  0  0  0  0  0  0
  146.7383   73.2140  221.7867 H   0  0  0  0  0  0  0  0  0  0  0  0
  145.0647   72.6741  222.0118 H   0  0  0  0  0  0  0  0  0  0  0  0
  146.4000   71.3320  220.4930 H   0  0  0  0  0  0  0  0  0  0  0  0
  144.6488   71.0451  218.9557 H   0  0  0  0  0  0  0  0  0  0  0  0
  144.1024   71.3680  220.6560 H   0  0  0  0  0  0  0  0  0  0  0  0
  138.3840   70.9710  223.9016 H   0  0  0  0  0  0  0  0  0  0  0  0
  139.0920   69.9996  222.5776 H   0  0  0  0  0  0  0  0  0  0  0  0
  138.5524   68.6046  224.5849 H   0  0  0  0  0  0  0  0  0  0  0  0
  140.3026   68.6004  224.2308 H   0  0  0  0  0  0  0  0  0  0  0  0
  138.2388   68.6539  226.9652 H   0  0  0  0  0  0  0  0  0  0  0  0
  138.7950   69.6825  229.1513 H   0  0  0  0  0  0  0  0  0  0  0  0
  140.5800   71.3843  229.3036 H   0  0  0  0  0  0  0  0  0  0  0  0
  141.8246   72.0710  227.2594 H   0  0  0  0  0  0  0  0  0  0  0  0
  141.9443   72.0490  224.8353 H   0  0  0  0  0  0  0  0  0  0  0  0
  142.1324   70.2945  224.4664 H   0  0  0  0  0  0  0  0  0  0  0  0
  141.2958   76.4435  223.2423 H   0  0  0  0  0  0  0  0  0  0  0  0
  141.4405   76.9969  221.5242 H   0  0  0  0  0  0  0  0  0  0  0  0
  1  2  2  0
  2  3  1  0
  3  4  2  0
  4  5  1  0
  5  6  2  0
  5  7  1  0
  7  8  1  0
  8  9  1  0
  9 10  1  0
 10 11  2  0
 11 12  1  0
 12 13  1  0
 13 14  1  0
 14 15  1  0
 15 16  1  0
 16 17  1  0
 17 18  1  0
 18 19  1  0
 12 20  2  0
 20 21  1  0
 21 22  1  0
 22 23  1  0
 23 24  1  0
 24 25  1  0
 25 26  2  0
 26 27  1  0
 27 28  2  0
 28 29  1  0
 29 30  2  0
 30 31  1  0
 21 32  2  0
  9 33  1  0
  6  1  1  0
 32 10  1  0
 33  4  1  0
 19 14  1  0
 31 22  1  0
 30 25  1  0
  1 34  1  0
  2 35  1  0
  3 36  1  0
  6 37  1  0
  7 38  1  0
  7 39  1  0
  8 40  1  0
  8 41  1  0
 13 42  1  0
 13 43  1  0
 14 44  1  6
 15 45  1  0
 15 46  1  0
 16 47  1  0
 16 48  1  0
 17 49  1  0
 17 50  1  0
 18 51  1  0
 19 52  1  0
 19 53  1  0
 23 54  1  0
 23 55  1  0
 24 56  1  0
 24 57  1  0
 26 58  1  0
 27 59  1  0
 28 60  1  0
 29 61  1  0
 31 62  1  0
 31 63  1  0
 33 64  1  0
 33 65  1  0
M  END
>  <smiles>  (85) 
c1ccc2c(c1)CCN(c1nc(CC3CCCNC3)nc(N3CCc4ccccc4C3)n1)C2

>  <score_type>  (85) 
oracle

>  <origin>  (85) 
autodockgpu

>  <m_score__min__energy>  (85) 
-10.710000000000001

>  <m_primary>  (85) 
energy

>  <rmsd>  (85) 
5.0180293070719415

>  <m_score__min__rmsd>  (85) 
5.0180293070719415

>  <meeko>  (85) 
{"free_energy": -10.11, "intermolecular_energy": -11.3, "internal_energy": -1.15, "cluster_size": 49, "cluster_id": 1, "rank_in_cluster": 33}

>  <energy>  (85) 
-10.09

>  <cluster_rmsd>  (85) 
0.71

>  <cluster>  (85) 
1

$$$$

     RDKit          3D

 65 70  0  0  0  0  0  0  0  0999 V2000
  138.6560   80.4810  223.3870 C   0  0  0  0  0  0  0  0  0  0  0  0
  140.0370   80.4100  223.2270 C   0  0  0  0  0  0  0  0  0  0  0  0
  140.6240   79.2050  222.9060 C   0  0  0  0  0  0  0  0  0  0  0  0
  139.8690   78.0470  222.7350 C   0  0  0  0  0  0  0  0  0  0  0  0
  138.5030   78.1400  222.8970 C   0  0  0  0  0  0  0  0  0  0  0  0
  137.8920   79.3380  223.2190 C   0  0  0  0  0  0  0  0  0  0  0  0
  137.6570   76.9310  222.7240 C   0  0  0  0  0  0  0  0  0  0  0  0
  138.2860   76.1030  221.6230 C   0  0  0  0  0  0  0  0  0  0  0  0
  139.6640   75.7810  221.9290 N   0  0  0  0  0  0  0  0  0  0  0  0
  140.1020   74.4360  221.7640 C   0  0  0  0  0  0  0  0  0  0  0  0
  140.6990   74.0730  220.6190 N   0  0  0  0  0  0  0  0  0  0  0  0
  141.1360   72.7990  220.4100 C   0  0  0  0  0  0  0  0  0  0  0  0
  141.7800   72.4920  219.1220 C   0  0  0  0  0  0  0  0  0  0  0  0
  143.2400   72.8030  219.0710 C   0  0  1  0  0  0  0  0  0  0  0  0
  143.5250   74.1560  219.6240 C   0  0  0  0  0  0  0  0  0  0  0  0
  144.9150   74.3330  220.1800 C   0  0  0  0  0  0  0  0  0  0  0  0
  145.2430   73.1550  221.0410 C   0  0  0  0  0  0  0  0  0  0  0  0
  145.3000   71.9980  220.1450 N   0  0  0  0  0  0  0  0  0  0  0  0
  143.9300   71.6780  219.8390 C   0  0  0  0  0  0  0  0  0  0  0  0
  140.9500   71.9060  221.3980 N   0  0  0  0  0  0  0  0  0  0  0  0
  140.3540   72.2290  222.5640 C   0  0  0  0  0  0  0  0  0  0  0  0
  140.1520   71.2910  223.6150 N   0  0  0  0  0  0  0  0  0  0  0  0
  138.9180   70.5320  223.6890 C   0  0  0  0  0  0  0  0  0  0  0  0
  139.1300   69.3660  224.6290 C   0  0  0  0  0  0  0  0  0  0  0  0
  139.5470   69.9080  225.9440 C   0  0  0  0  0  0  0  0  0  0  0  0
  138.9360   69.5660  227.1330 C   0  0  0  0  0  0  0  0  0  0  0  0
  139.3860   70.1150  228.3150 C   0  0  0  0  0  0  0  0  0  0  0  0
  140.4380   70.9990  228.3110 C   0  0  0  0  0  0  0  0  0  0  0  0
  141.0510   71.3430  227.1170 C   0  0  0  0  0  0  0  0  0  0  0  0
  140.6030   70.7980  225.9510 C   0  0  0  0  0  0  0  0  0  0  0  0
  141.2030   71.1080  224.6100 C   0  0  0  0  0  0  0  0  0  0  0  0
  139.9430   73.5030  222.7130 N   0  0  0  0  0  0  0  0  0  0  0  0
  140.5790   76.8010  222.3910 C   0  0  0  0  0  0  0  0  0  0  0  0
  138.1757   81.4365  223.6446 H   0  0  0  0  0  0  0  0  0  0  0  0
  140.6560   81.3101  223.3560 H   0  0  0  0  0  0  0  0  0  0  0  0
  141.7159   79.1566  222.7818 H   0  0  0  0  0  0  0  0  0  0  0  0
  136.7998   79.3832  223.3416 H   0  0  0  0  0  0  0  0  0  0  0  0
  137.6270   76.3541  223.6601 H   0  0  0  0  0  0  0  0  0  0  0  0
  136.6247   77.2086  222.4648 H   0  0  0  0  0  0  0  0  0  0  0  0
  137.7168   75.1688  221.5075 H   0  0  0  0  0  0  0  0  0  0  0  0
  138.2648   76.6891  220.6924 H   0  0  0  0  0  0  0  0  0  0  0  0
  141.6499   71.4186  218.9198 H   0  0  0  0  0  0  0  0  0  0  0  0
  141.2967   73.1325  218.3695 H   0  0  0  0  0  0  0  0  0  0  0  0
  143.6196   72.8444  218.0394 H   0  0  0  0  0  0  0  0  0  0  0  0
  143.3826   74.8916  218.8186 H   0  0  0  0  0  0  0  0  0  0  0  0
  142.8341   74.2967  220.4683 H   0  0  0  0  0  0  0  0  0  0  0  0
  145.6380   74.3998  219.3537 H   0  0  0  0  0  0  0  0  0  0  0  0
  144.9647   75.2566  220.7754 H   0  0  0  0  0  0  0  0  0  0  0  0
  146.2144   73.3027  221.5355 H   0  0  0  0  0  0  0  0  0  0  0  0
  144.4907   73.0138  221.8310 H   0  0  0  0  0  0  0  0  0  0  0  0
  145.6730   71.2160  220.7070 H   0  0  0  0  0  0  0  0  0  0  0  0
  143.9064   70.7637  219.2278 H   0  0  0  0  0  0  0  0  0  0  0  0
  143.3933   71.5345  220.7884 H   0  0  0  0  0  0  0  0  0  0  0  0
  138.1095   71.1736  224.0694 H   0  0  0  0  0  0  0  0  0  0  0  0
  138.6390   70.1660  222.6899 H   0  0  0  0  0  0  0  0  0  0  0  0
  138.1933   68.7997  224.7386 H   0  0  0  0  0  0  0  0  0  0  0  0
  139.9019   68.6904  224.2319 H   0  0  0  0  0  0  0  0  0  0  0  0
  138.0937   68.8585  227.1378 H   0  0  0  0  0  0  0  0  0  0  0  0
  138.9012   69.8444  229.2646 H   0  0  0  0  0  0  0  0  0  0  0  0
  140.7938   71.4340  229.2566 H   0  0  0  0  0  0  0  0  0  0  0  0
  141.8930   72.0508  227.1103 H   0  0  0  0  0  0  0  0  0  0  0  0
  141.7980   72.0303  224.6832 H   0  0  0  0  0  0  0  0  0  0  0  0
  141.8445   70.2690  224.3025 H   0  0  0  0  0  0  0  0  0  0  0  0
  141.1056   76.4315  223.2833 H   0  0  0  0  0  0  0  0  0  0  0  0
  141.2895   77.0206  221.5805 H   0  0  0  0  0  0  0  0  0  0  0  0
  1  2  2  0
  2  3  1  0
  3  4  2  0
  4  5  1  0
  5  6  2  0
  5  7  1  0
  7  8  1  0
  8  9  1  0
  9 10  1  0
 10 11  2  0
 11 12  1  0
 12 13  1  0
 13 14  1  0
 14 15  1  0
 15 16  1  0
 16 17  1  0
 17 18  1  0
 18 19  1  0
 12 20  2  0
 20 21  1  0
 21 22  1  0
 22 23  1  0
 23 24  1  0
 24 25  1  0
 25 26  2  0
 26 27  1  0
 27 28  2  0
 28 29  1  0
 29 30  2  0
 30 31  1  0
 21 32  2  0
  9 33  1  0
  6  1  1  0
 32 10  1  0
 33  4  1  0
 19 14  1  0
 31 22  1  0
 30 25  1  0
  1 34  1  0
  2 35  1  0
  3 36  1  0
  6 37  1  0
  7 38  1  0
  7 39  1  0
  8 40  1  0
  8 41  1  0
 13 42  1  0
 13 43  1  0
 14 44  1  6
 15 45  1  0
 15 46  1  0
 16 47  1  0
 16 48  1  0
 17 49  1  0
 17 50  1  0
 18 51  1  0
 19 52  1  0
 19 53  1  0
 23 54  1  0
 23 55  1  0
 24 56  1  0
 24 57  1  0
 26 58  1  0
 27 59  1  0
 28 60  1  0
 29 61  1  0
 31 62  1  0
 31 63  1  0
 33 64  1  0
 33 65  1  0
M  END
>  <smiles>  (86) 
c1ccc2c(c1)CCN(c1nc(CC3CCCNC3)nc(N3CCc4ccccc4C3)n1)C2

>  <score_type>  (86) 
oracle

>  <origin>  (86) 
autodockgpu

>  <m_score__min__energy>  (86) 
-10.710000000000001

>  <m_primary>  (86) 
energy

>  <rmsd>  (86) 
5.133840271974609

>  <m_score__min__rmsd>  (86) 
5.133840271974609

>  <meeko>  (86) 
{"free_energy": -9.66, "intermolecular_energy": -10.85, "internal_energy": -1.21, "cluster_size": 49, "cluster_id": 1, "rank_in_cluster": 43}

>  <energy>  (86) 
-10.06

>  <cluster_rmsd>  (86) 
0.81

>  <cluster>  (86) 
1

$$$$

     RDKit          3D

 65 70  0  0  0  0  0  0  0  0999 V2000
  139.2850   68.6430  227.1040 C   0  0  0  0  0  0  0  0  0  0  0  0
  140.0070   69.7020  227.6490 C   0  0  0  0  0  0  0  0  0  0  0  0
  140.4550   70.7140  226.8280 C   0  0  0  0  0  0  0  0  0  0  0  0
  140.2040   70.7100  225.4580 C   0  0  0  0  0  0  0  0  0  0  0  0
  139.4870   69.6520  224.9400 C   0  0  0  0  0  0  0  0  0  0  0  0
  139.0270   68.6250  225.7440 C   0  0  0  0  0  0  0  0  0  0  0  0
  139.1950   69.6040  223.4830 C   0  0  0  0  0  0  0  0  0  0  0  0
  138.9750   71.0330  223.0280 C   0  0  0  0  0  0  0  0  0  0  0  0
  140.1160   71.8670  223.3410 N   0  0  0  0  0  0  0  0  0  0  0  0
  140.6320   72.7230  222.3290 C   0  0  0  0  0  0  0  0  0  0  0  0
  141.3710   72.2030  221.3380 N   0  0  0  0  0  0  0  0  0  0  0  0
  141.8890   72.9790  220.3450 C   0  0  0  0  0  0  0  0  0  0  0  0
  142.6880   72.3210  219.2980 C   0  0  0  0  0  0  0  0  0  0  0  0
  144.1090   72.7730  219.2290 C   0  0  1  0  0  0  0  0  0  0  0  0
  144.3130   74.0390  219.9890 C   0  0  0  0  0  0  0  0  0  0  0  0
  145.7140   74.2540  220.4980 C   0  0  0  0  0  0  0  0  0  0  0  0
  146.1970   72.9860  221.1300 C   0  0  0  0  0  0  0  0  0  0  0  0
  146.2950   72.0030  220.0500 N   0  0  0  0  0  0  0  0  0  0  0  0
  144.9410   71.6090  219.7610 C   0  0  0  0  0  0  0  0  0  0  0  0
  141.6340   74.2990  220.3870 N   0  0  0  0  0  0  0  0  0  0  0  0
  140.8960   74.8630  221.3650 C   0  0  0  0  0  0  0  0  0  0  0  0
  140.6200   76.2580  221.4190 N   0  0  0  0  0  0  0  0  0  0  0  0
  140.4880   77.0230  220.1920 C   0  0  0  0  0  0  0  0  0  0  0  0
  139.8200   78.3400  220.5220 C   0  0  0  0  0  0  0  0  0  0  0  0
  140.6470   79.0310  221.5400 C   0  0  0  0  0  0  0  0  0  0  0  0
  141.0780   80.3350  221.4090 C   0  0  0  0  0  0  0  0  0  0  0  0
  141.8430   80.9050  222.4030 C   0  0  0  0  0  0  0  0  0  0  0  0
  142.1780   80.1790  223.5210 C   0  0  0  0  0  0  0  0  0  0  0  0
  141.7460   78.8690  223.6520 C   0  0  0  0  0  0  0  0  0  0  0  0
  140.9880   78.3100  222.6670 C   0  0  0  0  0  0  0  0  0  0  0  0
  140.4740   76.9000  222.7200 C   0  0  0  0  0  0  0  0  0  0  0  0
  140.4100   74.0460  222.3190 N   0  0  0  0  0  0  0  0  0  0  0  0
  140.7200   71.8340  224.6550 C   0  0  0  0  0  0  0  0  0  0  0  0
  138.9231   67.8283  227.7484 H   0  0  0  0  0  0  0  0  0  0  0  0
  140.2183   69.7304  228.7281 H   0  0  0  0  0  0  0  0  0  0  0  0
  141.0255   71.5464  227.2659 H   0  0  0  0  0  0  0  0  0  0  0  0
  138.4564   67.7943  225.3031 H   0  0  0  0  0  0  0  0  0  0  0  0
  140.0444   69.1617  222.9418 H   0  0  0  0  0  0  0  0  0  0  0  0
  138.3075   68.9864  223.2806 H   0  0  0  0  0  0  0  0  0  0  0  0
  138.8128   71.0415  221.9401 H   0  0  0  0  0  0  0  0  0  0  0  0
  138.0971   71.4338  223.5559 H   0  0  0  0  0  0  0  0  0  0  0  0
  142.6808   71.2379  219.4898 H   0  0  0  0  0  0  0  0  0  0  0  0
  142.2267   72.5902  218.3364 H   0  0  0  0  0  0  0  0  0  0  0  0
  144.4157   73.0184  218.2015 H   0  0  0  0  0  0  0  0  0  0  0  0
  144.0570   74.8797  219.3275 H   0  0  0  0  0  0  0  0  0  0  0  0
  143.6685   73.9726  220.8779 H   0  0  0  0  0  0  0  0  0  0  0  0
  146.3741   74.5247  219.6608 H   0  0  0  0  0  0  0  0  0  0  0  0
  145.7222   75.0675  221.2383 H   0  0  0  0  0  0  0  0  0  0  0  0
  147.1821   73.1423  221.5939 H   0  0  0  0  0  0  0  0  0  0  0  0
  145.5120   72.6459  221.9206 H   0  0  0  0  0  0  0  0  0  0  0  0
  146.7690   71.1780  220.4520 H   0  0  0  0  0  0  0  0  0  0  0  0
  144.9571   70.8094  219.0058 H   0  0  0  0  0  0  0  0  0  0  0  0
  144.4804   71.2617  220.6976 H   0  0  0  0  0  0  0  0  0  0  0  0
  141.4827   77.2084  219.7606 H   0  0  0  0  0  0  0  0  0  0  0  0
  139.8846   76.4650  219.4609 H   0  0  0  0  0  0  0  0  0  0  0  0
  139.7485   78.9596  219.6159 H   0  0  0  0  0  0  0  0  0  0  0  0
  138.8045   78.1672  220.9079 H   0  0  0  0  0  0  0  0  0  0  0  0
  140.8119   80.9173  220.5145 H   0  0  0  0  0  0  0  0  0  0  0  0
  142.1869   81.9449  222.3015 H   0  0  0  0  0  0  0  0  0  0  0  0
  142.7892   80.6381  224.3120 H   0  0  0  0  0  0  0  0  0  0  0  0
  142.0130   78.2844  224.5447 H   0  0  0  0  0  0  0  0  0  0  0  0
  141.0454   76.3336  223.4701 H   0  0  0  0  0  0  0  0  0  0  0  0
  139.4083   76.9180  222.9921 H   0  0  0  0  0  0  0  0  0  0  0  0
  141.8091   71.7248  224.5453 H   0  0  0  0  0  0  0  0  0  0  0  0
  140.4711   72.7718  225.1733 H   0  0  0  0  0  0  0  0  0  0  0  0
  1  2  2  0
  2  3  1  0
  3  4  2  0
  4  5  1  0
  5  6  2  0
  5  7  1  0
  7  8  1  0
  8  9  1  0
  9 10  1  0
 10 11  2  0
 11 12  1  0
 12 13  1  0
 13 14  1  0
 14 15  1  0
 15 16  1  0
 16 17  1  0
 17 18  1  0
 18 19  1  0
 12 20  2  0
 20 21  1  0
 21 22  1  0
 22 23  1  0
 23 24  1  0
 24 25  1  0
 25 26  2  0
 26 27  1  0
 27 28  2  0
 28 29  1  0
 29 30  2  0
 30 31  1  0
 21 32  2  0
  9 33  1  0
  6  1  1  0
 32 10  1  0
 33  4  1  0
 19 14  1  0
 31 22  1  0
 30 25  1  0
  1 34  1  0
  2 35  1  0
  3 36  1  0
  6 37  1  0
  7 38  1  0
  7 39  1  0
  8 40  1  0
  8 41  1  0
 13 42  1  0
 13 43  1  0
 14 44  1  6
 15 45  1  0
 15 46  1  0
 16 47  1  0
 16 48  1  0
 17 49  1  0
 17 50  1  0
 18 51  1  0
 19 52  1  0
 19 53  1  0
 23 54  1  0
 23 55  1  0
 24 56  1  0
 24 57  1  0
 26 58  1  0
 27 59  1  0
 28 60  1  0
 29 61  1  0
 31 62  1  0
 31 63  1  0
 33 64  1  0
 33 65  1  0
M  END
>  <smiles>  (87) 
c1ccc2c(c1)CCN(c1nc(CC3CCCNC3)nc(N3CCc4ccccc4C3)n1)C2

>  <score_type>  (87) 
oracle

>  <origin>  (87) 
autodockgpu

>  <m_score__min__energy>  (87) 
-10.710000000000001

>  <m_primary>  (87) 
energy

>  <rmsd>  (87) 
10.682053124426512

>  <m_score__min__rmsd>  (87) 
10.682053124426512

>  <meeko>  (87) 
{"free_energy": -10.71, "intermolecular_energy": -11.91, "internal_energy": -0.98, "cluster_size": 49, "cluster_id": 1, "rank_in_cluster": 1}

>  <energy>  (87) 
-10.05

>  <cluster_rmsd>  (87) 
0.96

>  <cluster>  (87) 
1

$$$$

     RDKit          3D

 65 70  0  0  0  0  0  0  0  0999 V2000
  138.9320   80.3810  223.2090 C   0  0  0  0  0  0  0  0  0  0  0  0
  140.3160   80.3420  223.0610 C   0  0  0  0  0  0  0  0  0  0  0  0
  140.9380   79.1450  222.7830 C   0  0  0  0  0  0  0  0  0  0  0  0
  140.2160   77.9620  222.6430 C   0  0  0  0  0  0  0  0  0  0  0  0
  138.8470   78.0220  222.7940 C   0  0  0  0  0  0  0  0  0  0  0  0
  138.2020   79.2130  223.0730 C   0  0  0  0  0  0  0  0  0  0  0  0
  138.0360   76.7850  222.6540 C   0  0  0  0  0  0  0  0  0  0  0  0
  138.6960   75.9400  221.5840 C   0  0  0  0  0  0  0  0  0  0  0  0
  140.0800   75.6660  221.9100 N   0  0  0  0  0  0  0  0  0  0  0  0
  140.5560   74.3300  221.7910 C   0  0  0  0  0  0  0  0  0  0  0  0
  141.2720   73.9780  220.7130 N   0  0  0  0  0  0  0  0  0  0  0  0
  141.7510   72.7120  220.5510 C   0  0  0  0  0  0  0  0  0  0  0  0
  142.5280   72.4170  219.3360 C   0  0  0  0  0  0  0  0  0  0  0  0
  143.9230   72.9490  219.3500 C   0  0  1  0  0  0  0  0  0  0  0  0
  144.0410   74.1370  220.2420 C   0  0  0  0  0  0  0  0  0  0  0  0
  145.4190   74.3710  220.8050 C   0  0  0  0  0  0  0  0  0  0  0  0
  145.9590   73.0710  221.3130 C   0  0  0  0  0  0  0  0  0  0  0  0
  146.1320   72.2140  220.1400 N   0  0  0  0  0  0  0  0  0  0  0  0
  144.8080   71.7810  219.7780 C   0  0  0  0  0  0  0  0  0  0  0  0
  141.4800   71.8150  221.5150 N   0  0  0  0  0  0  0  0  0  0  0  0
  140.7630   72.1260  222.6140 C   0  0  0  0  0  0  0  0  0  0  0  0
  140.4720   71.1840  223.6390 N   0  0  0  0  0  0  0  0  0  0  0  0
  139.2400   70.4170  223.5980 C   0  0  0  0  0  0  0  0  0  0  0  0
  139.3730   69.2490  224.5500 C   0  0  0  0  0  0  0  0  0  0  0  0
  139.6640   69.7890  225.9000 C   0  0  0  0  0  0  0  0  0  0  0  0
  138.9480   69.4400  227.0260 C   0  0  0  0  0  0  0  0  0  0  0  0
  139.2830   69.9880  228.2460 C   0  0  0  0  0  0  0  0  0  0  0  0
  140.3250   70.8790  228.3410 C   0  0  0  0  0  0  0  0  0  0  0  0
  141.0430   71.2300  227.2090 C   0  0  0  0  0  0  0  0  0  0  0  0
  140.7080   70.6860  226.0060 C   0  0  0  0  0  0  0  0  0  0  0  0
  141.4270   71.0040  224.7270 C   0  0  0  0  0  0  0  0  0  0  0  0
  140.3170   73.3930  222.7200 N   0  0  0  0  0  0  0  0  0  0  0  0
  140.9630   76.7250  222.3450 C   0  0  0  0  0  0  0  0  0  0  0  0
  138.4238   81.3308  223.4318 H   0  0  0  0  0  0  0  0  0  0  0  0
  140.9094   81.2623  223.1656 H   0  0  0  0  0  0  0  0  0  0  0  0
  142.0318   79.1226  222.6687 H   0  0  0  0  0  0  0  0  0  0  0  0
  137.1081   79.2321  223.1869 H   0  0  0  0  0  0  0  0  0  0  0  0
  138.0148   76.2375  223.6078 H   0  0  0  0  0  0  0  0  0  0  0  0
  136.9984   77.0255  222.3791 H   0  0  0  0  0  0  0  0  0  0  0  0
  138.1535   74.9873  221.4943 H   0  0  0  0  0  0  0  0  0  0  0  0
  138.6660   76.4954  220.6350 H   0  0  0  0  0  0  0  0  0  0  0  0
  142.5779   71.3246  219.2166 H   0  0  0  0  0  0  0  0  0  0  0  0
  142.0104   72.9169  218.5040 H   0  0  0  0  0  0  0  0  0  0  0  0
  144.2360   73.3174  218.3619 H   0  0  0  0  0  0  0  0  0  0  0  0
  143.7513   75.0278  219.6654 H   0  0  0  0  0  0  0  0  0  0  0  0
  143.3839   73.9440  221.1028 H   0  0  0  0  0  0  0  0  0  0  0  0
  146.0788   74.7628  220.0169 H   0  0  0  0  0  0  0  0  0  0  0  0
  145.3685   75.1014  221.6260 H   0  0  0  0  0  0  0  0  0  0  0  0
  146.9248   73.2295  221.8151 H   0  0  0  0  0  0  0  0  0  0  0  0
  145.2785   72.6137  222.0464 H   0  0  0  0  0  0  0  0  0  0  0  0
  146.6430   71.3780  220.4650 H   0  0  0  0  0  0  0  0  0  0  0  0
  144.8829   71.0676  218.9440 H   0  0  0  0  0  0  0  0  0  0  0  0
  144.3496   71.3124  220.6614 H   0  0  0  0  0  0  0  0  0  0  0  0
  138.3963   71.0525  223.9052 H   0  0  0  0  0  0  0  0  0  0  0  0
  139.0552   70.0530  222.5766 H   0  0  0  0  0  0  0  0  0  0  0  0
  138.4342   68.6762  224.5715 H   0  0  0  0  0  0  0  0  0  0  0  0
  140.1828   68.5800  224.2233 H   0  0  0  0  0  0  0  0  0  0  0  0
  138.1133   68.7275  226.9510 H   0  0  0  0  0  0  0  0  0  0  0  0
  138.7145   69.7112  229.1461 H   0  0  0  0  0  0  0  0  0  0  0  0
  140.5892   71.3138  229.3163 H   0  0  0  0  0  0  0  0  0  0  0  0
  141.8776   71.9429  227.2814 H   0  0  0  0  0  0  0  0  0  0  0  0
  142.0068   71.9297  224.8574 H   0  0  0  0  0  0  0  0  0  0  0  0
  142.0990   70.1695  224.4780 H   0  0  0  0  0  0  0  0  0  0  0  0
  141.4922   76.3993  223.2527 H   0  0  0  0  0  0  0  0  0  0  0  0
  141.6740   76.9376  221.5330 H   0  0  0  0  0  0  0  0  0  0  0  0
  1  2  2  0
  2  3  1  0
  3  4  2  0
  4  5  1  0
  5  6  2  0
  5  7  1  0
  7  8  1  0
  8  9  1  0
  9 10  1  0
 10 11  2  0
 11 12  1  0
 12 13  1  0
 13 14  1  0
 14 15  1  0
 15 16  1  0
 16 17  1  0
 17 18  1  0
 18 19  1  0
 12 20  2  0
 20 21  1  0
 21 22  1  0
 22 23  1  0
 23 24  1  0
 24 25  1  0
 25 26  2  0
 26 27  1  0
 27 28  2  0
 28 29  1  0
 29 30  2  0
 30 31  1  0
 21 32  2  0
  9 33  1  0
  6  1  1  0
 32 10  1  0
 33  4  1  0
 19 14  1  0
 31 22  1  0
 30 25  1  0
  1 34  1  0
  2 35  1  0
  3 36  1  0
  6 37  1  0
  7 38  1  0
  7 39  1  0
  8 40  1  0
  8 41  1  0
 13 42  1  0
 13 43  1  0
 14 44  1  6
 15 45  1  0
 15 46  1  0
 16 47  1  0
 16 48  1  0
 17 49  1  0
 17 50  1  0
 18 51  1  0
 19 52  1  0
 19 53  1  0
 23 54  1  0
 23 55  1  0
 24 56  1  0
 24 57  1  0
 26 58  1  0
 27 59  1  0
 28 60  1  0
 29 61  1  0
 31 62  1  0
 31 63  1  0
 33 64  1  0
 33 65  1  0
M  END
>  <smiles>  (88) 
c1ccc2c(c1)CCN(c1nc(CC3CCCNC3)nc(N3CCc4ccccc4C3)n1)C2

>  <score_type>  (88) 
oracle

>  <origin>  (88) 
autodockgpu

>  <m_score__min__energy>  (88) 
-10.710000000000001

>  <m_primary>  (88) 
energy

>  <rmsd>  (88) 
4.955899965486255

>  <m_score__min__rmsd>  (88) 
4.955899965486255

>  <meeko>  (88) 
{"free_energy": -10.26, "intermolecular_energy": -11.45, "internal_energy": -1.1, "cluster_size": 49, "cluster_id": 1, "rank_in_cluster": 22}

>  <energy>  (88) 
-10.01

>  <cluster_rmsd>  (88) 
1.74

>  <cluster>  (88) 
1

$$$$

     RDKit          3D

 65 70  0  0  0  0  0  0  0  0999 V2000
  137.2060   79.9290  221.9410 C   0  0  0  0  0  0  0  0  0  0  0  0
  136.4260   78.9930  222.6160 C   0  0  0  0  0  0  0  0  0  0  0  0
  136.8560   77.6870  222.7050 C   0  0  0  0  0  0  0  0  0  0  0  0
  138.0570   77.2720  222.1360 C   0  0  0  0  0  0  0  0  0  0  0  0
  138.8140   78.2150  221.4730 C   0  0  0  0  0  0  0  0  0  0  0  0
  138.4030   79.5310  221.3710 C   0  0  0  0  0  0  0  0  0  0  0  0
  140.1030   77.8190  220.8490 C   0  0  0  0  0  0  0  0  0  0  0  0
  140.7240   76.7670  221.7450 C   0  0  0  0  0  0  0  0  0  0  0  0
  139.8290   75.6450  221.9390 N   0  0  0  0  0  0  0  0  0  0  0  0
  140.3460   74.3280  221.7870 C   0  0  0  0  0  0  0  0  0  0  0  0
  141.0180   74.0070  220.6720 N   0  0  0  0  0  0  0  0  0  0  0  0
  141.5330   72.7600  220.4770 C   0  0  0  0  0  0  0  0  0  0  0  0
  142.2560   72.4990  219.2210 C   0  0  0  0  0  0  0  0  0  0  0  0
  143.6780   72.9530  219.2210 C   0  0  1  0  0  0  0  0  0  0  0  0
  143.8340   74.2490  219.9400 C   0  0  0  0  0  0  0  0  0  0  0  0
  145.2010   74.4880  220.5240 C   0  0  0  0  0  0  0  0  0  0  0  0
  145.6450   73.2490  221.2350 C   0  0  0  0  0  0  0  0  0  0  0  0
  145.8100   72.2230  220.2030 N   0  0  0  0  0  0  0  0  0  0  0  0
  144.4770   71.8130  219.8490 C   0  0  0  0  0  0  0  0  0  0  0  0
  141.3450   71.8490  221.4480 N   0  0  0  0  0  0  0  0  0  0  0  0
  140.6750   72.1290  222.5850 C   0  0  0  0  0  0  0  0  0  0  0  0
  140.4720   71.1730  223.6180 N   0  0  0  0  0  0  0  0  0  0  0  0
  139.3210   70.2900  223.5790 C   0  0  0  0  0  0  0  0  0  0  0  0
  139.5610   69.1490  224.5430 C   0  0  0  0  0  0  0  0  0  0  0  0
  139.7930   69.7270  225.8890 C   0  0  0  0  0  0  0  0  0  0  0  0
  139.1100   69.3210  227.0160 C   0  0  0  0  0  0  0  0  0  0  0  0
  139.3850   69.9100  228.2310 C   0  0  0  0  0  0  0  0  0  0  0  0
  140.3350   70.8980  228.3220 C   0  0  0  0  0  0  0  0  0  0  0  0
  141.0210   71.3070  227.1890 C   0  0  0  0  0  0  0  0  0  0  0  0
  140.7460   70.7210  225.9900 C   0  0  0  0  0  0  0  0  0  0  0  0
  141.4360   71.0960  224.7100 C   0  0  0  0  0  0  0  0  0  0  0  0
  140.1900   73.3780  222.7210 N   0  0  0  0  0  0  0  0  0  0  0  0
  138.4400   75.8550  222.2810 C   0  0  0  0  0  0  0  0  0  0  0  0
  136.8739   80.9747  221.8616 H   0  0  0  0  0  0  0  0  0  0  0  0
  135.4729   79.2945  223.0750 H   0  0  0  0  0  0  0  0  0  0  0  0
  136.2344   76.9534  223.2393 H   0  0  0  0  0  0  0  0  0  0  0  0
  139.0274   80.2621  220.8367 H   0  0  0  0  0  0  0  0  0  0  0  0
  139.9254   77.4039  219.8459 H   0  0  0  0  0  0  0  0  0  0  0  0
  140.7703   78.6869  220.7417 H   0  0  0  0  0  0  0  0  0  0  0  0
  141.6548   76.4069  221.2826 H   0  0  0  0  0  0  0  0  0  0  0  0
  140.9269   77.2224  222.7255 H   0  0  0  0  0  0  0  0  0  0  0  0
  142.2412   71.4150  219.0346 H   0  0  0  0  0  0  0  0  0  0  0  0
  141.7426   73.0764  218.4380 H   0  0  0  0  0  0  0  0  0  0  0  0
  144.0471   73.1587  218.2054 H   0  0  0  0  0  0  0  0  0  0  0  0
  143.6183   75.0617  219.2307 H   0  0  0  0  0  0  0  0  0  0  0  0
  143.1362   74.2170  220.7897 H   0  0  0  0  0  0  0  0  0  0  0  0
  145.9108   74.7262  219.7181 H   0  0  0  0  0  0  0  0  0  0  0  0
  145.1637   75.3308  221.2299 H   0  0  0  0  0  0  0  0  0  0  0  0
  146.5996   73.4271  221.7517 H   0  0  0  0  0  0  0  0  0  0  0  0
  144.9131   72.9389  221.9953 H   0  0  0  0  0  0  0  0  0  0  0  0
  146.2600   71.4170  220.6670 H   0  0  0  0  0  0  0  0  0  0  0  0
  144.5395   70.9838  219.1289 H   0  0  0  0  0  0  0  0  0  0  0  0
  143.9607   71.5015  220.7690 H   0  0  0  0  0  0  0  0  0  0  0  0
  138.4180   70.8435  223.8761 H   0  0  0  0  0  0  0  0  0  0  0  0
  139.1783   69.9002  222.5603 H   0  0  0  0  0  0  0  0  0  0  0  0
  138.6812   68.4891  224.5667 H   0  0  0  0  0  0  0  0  0  0  0  0
  140.4326   68.5578  224.2257 H   0  0  0  0  0  0  0  0  0  0  0  0
  138.3487   68.5301  226.9454 H   0  0  0  0  0  0  0  0  0  0  0  0
  138.8417   69.5878  229.1315 H   0  0  0  0  0  0  0  0  0  0  0  0
  140.5515   71.3648  229.2943 H   0  0  0  0  0  0  0  0  0  0  0  0
  141.7816   72.0987  227.2573 H   0  0  0  0  0  0  0  0  0  0  0  0
  141.9229   72.0746  224.8336 H   0  0  0  0  0  0  0  0  0  0  0  0
  142.1868   70.3286  224.4706 H   0  0  0  0  0  0  0  0  0  0  0  0
  137.8116   75.2448  221.6156 H   0  0  0  0  0  0  0  0  0  0  0  0
  138.2949   75.5635  223.3317 H   0  0  0  0  0  0  0  0  0  0  0  0
  1  2  2  0
  2  3  1  0
  3  4  2  0
  4  5  1  0
  5  6  2  0
  5  7  1  0
  7  8  1  0
  8  9  1  0
  9 10  1  0
 10 11  2  0
 11 12  1  0
 12 13  1  0
 13 14  1  0
 14 15  1  0
 15 16  1  0
 16 17  1  0
 17 18  1  0
 18 19  1  0
 12 20  2  0
 20 21  1  0
 21 22  1  0
 22 23  1  0
 23 24  1  0
 24 25  1  0
 25 26  2  0
 26 27  1  0
 27 28  2  0
 28 29  1  0
 29 30  2  0
 30 31  1  0
 21 32  2  0
  9 33  1  0
  6  1  1  0
 32 10  1  0
 33  4  1  0
 19 14  1  0
 31 22  1  0
 30 25  1  0
  1 34  1  0
  2 35  1  0
  3 36  1  0
  6 37  1  0
  7 38  1  0
  7 39  1  0
  8 40  1  0
  8 41  1  0
 13 42  1  0
 13 43  1  0
 14 44  1  6
 15 45  1  0
 15 46  1  0
 16 47  1  0
 16 48  1  0
 17 49  1  0
 17 50  1  0
 18 51  1  0
 19 52  1  0
 19 53  1  0
 23 54  1  0
 23 55  1  0
 24 56  1  0
 24 57  1  0
 26 58  1  0
 27 59  1  0
 28 60  1  0
 29 61  1  0
 31 62  1  0
 31 63  1  0
 33 64  1  0
 33 65  1  0
M  END
>  <smiles>  (89) 
c1ccc2c(c1)CCN(c1nc(CC3CCCNC3)nc(N3CCc4ccccc4C3)n1)C2

>  <score_type>  (89) 
oracle

>  <origin>  (89) 
autodockgpu

>  <m_score__min__energy>  (89) 
-10.710000000000001

>  <m_primary>  (89) 
energy

>  <rmsd>  (89) 
5.289012920798328

>  <m_score__min__rmsd>  (89) 
5.289012920798328

>  <meeko>  (89) 
{"free_energy": -8.97, "intermolecular_energy": -10.16, "internal_energy": -1.19, "cluster_size": 49, "cluster_id": 1, "rank_in_cluster": 48}

>  <energy>  (89) 
-9.99

>  <cluster_rmsd>  (89) 
1.03

>  <cluster>  (89) 
1

$$$$

     RDKit          3D

 65 70  0  0  0  0  0  0  0  0999 V2000
  139.0460   80.3970  223.2690 C   0  0  0  0  0  0  0  0  0  0  0  0
  140.4280   80.3260  223.1110 C   0  0  0  0  0  0  0  0  0  0  0  0
  141.0190   79.1160  222.8170 C   0  0  0  0  0  0  0  0  0  0  0  0
  140.2680   77.9530  222.6720 C   0  0  0  0  0  0  0  0  0  0  0  0
  138.9010   78.0450  222.8330 C   0  0  0  0  0  0  0  0  0  0  0  0
  138.2870   79.2480  223.1280 C   0  0  0  0  0  0  0  0  0  0  0  0
  138.0590   76.8290  222.6880 C   0  0  0  0  0  0  0  0  0  0  0  0
  138.6910   75.9780  221.6060 C   0  0  0  0  0  0  0  0  0  0  0  0
  140.0700   75.6680  221.9190 N   0  0  0  0  0  0  0  0  0  0  0  0
  140.5130   74.3220  221.7840 C   0  0  0  0  0  0  0  0  0  0  0  0
  141.1880   73.9560  220.6850 N   0  0  0  0  0  0  0  0  0  0  0  0
  141.6340   72.6810  220.5070 C   0  0  0  0  0  0  0  0  0  0  0  0
  142.3680   72.3710  219.2690 C   0  0  0  0  0  0  0  0  0  0  0  0
  143.7750   72.8680  219.2430 C   0  0  1  0  0  0  0  0  0  0  0  0
  143.9270   74.1070  220.0560 C   0  0  0  0  0  0  0  0  0  0  0  0
  145.3130   74.3430  220.5980 C   0  0  0  0  0  0  0  0  0  0  0  0
  145.8230   73.0660  221.1870 C   0  0  0  0  0  0  0  0  0  0  0  0
  145.9700   72.1310  220.0710 N   0  0  0  0  0  0  0  0  0  0  0  0
  144.6330   71.7080  219.7420 C   0  0  0  0  0  0  0  0  0  0  0  0
  141.3720   71.7880  221.4780 N   0  0  0  0  0  0  0  0  0  0  0  0
  140.6960   72.1130  222.5980 C   0  0  0  0  0  0  0  0  0  0  0  0
  140.4150   71.1750  223.6310 N   0  0  0  0  0  0  0  0  0  0  0  0
  139.2010   70.3810  223.5850 C   0  0  0  0  0  0  0  0  0  0  0  0
  139.3490   69.2270  224.5510 C   0  0  0  0  0  0  0  0  0  0  0  0
  139.6140   69.7870  225.8980 C   0  0  0  0  0  0  0  0  0  0  0  0
  138.8950   69.4340  227.0210 C   0  0  0  0  0  0  0  0  0  0  0  0
  139.2060   70.0030  228.2380 C   0  0  0  0  0  0  0  0  0  0  0  0
  140.2270   70.9170  228.3340 C   0  0  0  0  0  0  0  0  0  0  0  0
  140.9490   71.2720  227.2050 C   0  0  0  0  0  0  0  0  0  0  0  0
  140.6380   70.7080  226.0050 C   0  0  0  0  0  0  0  0  0  0  0  0
  141.3630   71.0280  224.7290 C   0  0  0  0  0  0  0  0  0  0  0  0
  140.2820   73.3880  222.7190 N   0  0  0  0  0  0  0  0  0  0  0  0
  140.9820   76.7010  222.3570 C   0  0  0  0  0  0  0  0  0  0  0  0
  138.5624   81.3568  223.5035 H   0  0  0  0  0  0  0  0  0  0  0  0
  141.0444   81.2305  223.2202 H   0  0  0  0  0  0  0  0  0  0  0  0
  142.1110   79.0682  222.6939 H   0  0  0  0  0  0  0  0  0  0  0  0
  137.1948   79.2922  223.2508 H   0  0  0  0  0  0  0  0  0  0  0  0
  138.0311   76.2737  223.6371 H   0  0  0  0  0  0  0  0  0  0  0  0
  137.0256   77.0969  222.4227 H   0  0  0  0  0  0  0  0  0  0  0  0
  138.1251   75.0394  221.5121 H   0  0  0  0  0  0  0  0  0  0  0  0
  138.6676   76.5426  220.6622 H   0  0  0  0  0  0  0  0  0  0  0  0
  142.3873   71.2781  219.1455 H   0  0  0  0  0  0  0  0  0  0  0  0
  141.8389   72.8866  218.4540 H   0  0  0  0  0  0  0  0  0  0  0  0
  144.0916   73.1646  218.2321 H   0  0  0  0  0  0  0  0  0  0  0  0
  143.6561   74.9658  219.4243 H   0  0  0  0  0  0  0  0  0  0  0  0
  143.2701   73.9856  220.9299 H   0  0  0  0  0  0  0  0  0  0  0  0
  145.9784   74.6666  219.7840 H   0  0  0  0  0  0  0  0  0  0  0  0
  145.2846   75.1261  221.3700 H   0  0  0  0  0  0  0  0  0  0  0  0
  146.7945   73.2326  221.6752 H   0  0  0  0  0  0  0  0  0  0  0  0
  145.1346   72.6738  221.9501 H   0  0  0  0  0  0  0  0  0  0  0  0
  146.4620   71.3050  220.4480 H   0  0  0  0  0  0  0  0  0  0  0  0
  144.6862   70.9410  218.9553 H   0  0  0  0  0  0  0  0  0  0  0  0
  144.1677   71.3082  220.6551 H   0  0  0  0  0  0  0  0  0  0  0  0
  138.3402   71.0010  223.8759 H   0  0  0  0  0  0  0  0  0  0  0  0
  139.0355   70.0020  222.5657 H   0  0  0  0  0  0  0  0  0  0  0  0
  138.4225   68.6343  224.5690 H   0  0  0  0  0  0  0  0  0  0  0  0
  140.1767   68.5726  224.2400 H   0  0  0  0  0  0  0  0  0  0  0  0
  138.0773   68.7020  226.9461 H   0  0  0  0  0  0  0  0  0  0  0  0
  138.6343   69.7239  229.1354 H   0  0  0  0  0  0  0  0  0  0  0  0
  140.4718   71.3675  229.3072 H   0  0  0  0  0  0  0  0  0  0  0  0
  141.7670   72.0038  227.2779 H   0  0  0  0  0  0  0  0  0  0  0  0
  141.9211   71.9675  224.8547 H   0  0  0  0  0  0  0  0  0  0  0  0
  142.0559   70.2061  224.4956 H   0  0  0  0  0  0  0  0  0  0  0  0
  141.5097   76.3539  223.2576 H   0  0  0  0  0  0  0  0  0  0  0  0
  141.6919   76.9037  221.5416 H   0  0  0  0  0  0  0  0  0  0  0  0
  1  2  2  0
  2  3  1  0
  3  4  2  0
  4  5  1  0
  5  6  2  0
  5  7  1  0
  7  8  1  0
  8  9  1  0
  9 10  1  0
 10 11  2  0
 11 12  1  0
 12 13  1  0
 13 14  1  0
 14 15  1  0
 15 16  1  0
 16 17  1  0
 17 18  1  0
 18 19  1  0
 12 20  2  0
 20 21  1  0
 21 22  1  0
 22 23  1  0
 23 24  1  0
 24 25  1  0
 25 26  2  0
 26 27  1  0
 27 28  2  0
 28 29  1  0
 29 30  2  0
 30 31  1  0
 21 32  2  0
  9 33  1  0
  6  1  1  0
 32 10  1  0
 33  4  1  0
 19 14  1  0
 31 22  1  0
 30 25  1  0
  1 34  1  0
  2 35  1  0
  3 36  1  0
  6 37  1  0
  7 38  1  0
  7 39  1  0
  8 40  1  0
  8 41  1  0
 13 42  1  0
 13 43  1  0
 14 44  1  6
 15 45  1  0
 15 46  1  0
 16 47  1  0
 16 48  1  0
 17 49  1  0
 17 50  1  0
 18 51  1  0
 19 52  1  0
 19 53  1  0
 23 54  1  0
 23 55  1  0
 24 56  1  0
 24 57  1  0
 26 58  1  0
 27 59  1  0
 28 60  1  0
 29 61  1  0
 31 62  1  0
 31 63  1  0
 33 64  1  0
 33 65  1  0
M  END
>  <smiles>  (90) 
c1ccc2c(c1)CCN(c1nc(CC3CCCNC3)nc(N3CCc4ccccc4C3)n1)C2

>  <score_type>  (90) 
oracle

>  <origin>  (90) 
autodockgpu

>  <m_score__min__energy>  (90) 
-10.710000000000001

>  <m_primary>  (90) 
energy

>  <rmsd>  (90) 
4.988729426668428

>  <m_score__min__rmsd>  (90) 
4.988729426668428

>  <meeko>  (90) 
{"free_energy": -10.23, "intermolecular_energy": -11.42, "internal_energy": -1.11, "cluster_size": 49, "cluster_id": 1, "rank_in_cluster": 28}

>  <energy>  (90) 
-9.92

>  <cluster_rmsd>  (90) 
1.05

>  <cluster>  (90) 
1

$$$$

     RDKit          3D

 65 70  0  0  0  0  0  0  0  0999 V2000
  139.5750   69.1070  227.9450 C   0  0  0  0  0  0  0  0  0  0  0  0
  140.2820   70.2690  228.2440 C   0  0  0  0  0  0  0  0  0  0  0  0
  140.6290   71.1350  227.2300 C   0  0  0  0  0  0  0  0  0  0  0  0
  140.2900   70.8800  225.9040 C   0  0  0  0  0  0  0  0  0  0  0  0
  139.5900   69.7240  225.6300 C   0  0  0  0  0  0  0  0  0  0  0  0
  139.2300   68.8410  226.6310 C   0  0  0  0  0  0  0  0  0  0  0  0
  139.2060   69.4110  224.2290 C   0  0  0  0  0  0  0  0  0  0  0  0
  138.8930   70.7280  223.5490 C   0  0  0  0  0  0  0  0  0  0  0  0
  140.0130   71.6410  223.6300 N   0  0  0  0  0  0  0  0  0  0  0  0
  140.4230   72.3220  222.4490 C   0  0  0  0  0  0  0  0  0  0  0  0
  140.8430   71.6140  221.3910 N   0  0  0  0  0  0  0  0  0  0  0  0
  141.2460   72.2170  220.2370 C   0  0  0  0  0  0  0  0  0  0  0  0
  141.6910   71.3580  219.1270 C   0  0  0  0  0  0  0  0  0  0  0  0
  140.8470   70.1460  218.9060 C   0  0  1  0  0  0  0  0  0  0  0  0
  141.2380   69.0390  219.8230 C   0  0  0  0  0  0  0  0  0  0  0  0
  140.1410   68.0520  220.1280 C   0  0  0  0  0  0  0  0  0  0  0  0
  138.8910   68.8070  220.4540 C   0  0  0  0  0  0  0  0  0  0  0  0
  138.4970   69.4950  219.2240 N   0  0  0  0  0  0  0  0  0  0  0  0
  139.4040   70.6070  219.0960 C   0  0  0  0  0  0  0  0  0  0  0  0
  141.2100   73.5600  220.1900 N   0  0  0  0  0  0  0  0  0  0  0  0
  140.7960   74.3110  221.2310 C   0  0  0  0  0  0  0  0  0  0  0  0
  140.7550   75.7330  221.1910 N   0  0  0  0  0  0  0  0  0  0  0  0
  141.1520   76.4410  219.9880 C   0  0  0  0  0  0  0  0  0  0  0  0
  140.6440   77.8630  220.0810 C   0  0  0  0  0  0  0  0  0  0  0  0
  141.2030   78.4690  221.3130 C   0  0  0  0  0  0  0  0  0  0  0  0
  141.8640   79.6800  221.3280 C   0  0  0  0  0  0  0  0  0  0  0  0
  142.3540   80.1760  222.5180 C   0  0  0  0  0  0  0  0  0  0  0  0
  142.1860   79.4690  223.6840 C   0  0  0  0  0  0  0  0  0  0  0  0
  141.5220   78.2520  223.6680 C   0  0  0  0  0  0  0  0  0  0  0  0
  141.0400   77.7660  222.4900 C   0  0  0  0  0  0  0  0  0  0  0  0
  140.3080   76.4600  222.3730 C   0  0  0  0  0  0  0  0  0  0  0  0
  140.4090   73.6590  222.3440 N   0  0  0  0  0  0  0  0  0  0  0  0
  140.7020   71.8610  224.8820 C   0  0  0  0  0  0  0  0  0  0  0  0
  139.2933   68.4071  228.7455 H   0  0  0  0  0  0  0  0  0  0  0  0
  140.5618   70.4942  229.2837 H   0  0  0  0  0  0  0  0  0  0  0  0
  141.1877   72.0505  227.4742 H   0  0  0  0  0  0  0  0  0  0  0  0
  138.6696   67.9274  226.3834 H   0  0  0  0  0  0  0  0  0  0  0  0
  140.0372   68.9080  223.7132 H   0  0  0  0  0  0  0  0  0  0  0  0
  138.3352   68.7394  224.2021 H   0  0  0  0  0  0  0  0  0  0  0  0
  138.6611   70.5385  222.4906 H   0  0  0  0  0  0  0  0  0  0  0  0
  138.0335   71.1867  224.0597 H   0  0  0  0  0  0  0  0  0  0  0  0
  141.6814   71.9565  218.2041 H   0  0  0  0  0  0  0  0  0  0  0  0
  142.6948   70.9961  219.3941 H   0  0  0  0  0  0  0  0  0  0  0  0
  140.9804   69.7256  217.8983 H   0  0  0  0  0  0  0  0  0  0  0  0
  142.0724   68.4909  219.3610 H   0  0  0  0  0  0  0  0  0  0  0  0
  141.5046   69.5104  220.7805 H   0  0  0  0  0  0  0  0  0  0  0  0
  139.9673   67.4097  219.2520 H   0  0  0  0  0  0  0  0  0  0  0  0
  140.4312   67.4224  220.9820 H   0  0  0  0  0  0  0  0  0  0  0  0
  138.0991   68.1136  220.7735 H   0  0  0  0  0  0  0  0  0  0  0  0
  139.0556   69.5188  221.2763 H   0  0  0  0  0  0  0  0  0  0  0  0
  137.5600   69.8910  219.4020 H   0  0  0  0  0  0  0  0  0  0  0  0
  139.1061   71.2106  218.2260 H   0  0  0  0  0  0  0  0  0  0  0  0
  139.3538   71.1963  220.0235 H   0  0  0  0  0  0  0  0  0  0  0  0
  142.2487   76.4431  219.9031 H   0  0  0  0  0  0  0  0  0  0  0  0
  140.7293   75.9460  219.1013 H   0  0  0  0  0  0  0  0  0  0  0  0
  140.9729   78.4353  219.2010 H   0  0  0  0  0  0  0  0  0  0  0  0
  139.5446   77.8748  220.1140 H   0  0  0  0  0  0  0  0  0  0  0  0
  141.9995   80.2472  220.3953 H   0  0  0  0  0  0  0  0  0  0  0  0
  142.8813   81.1413  222.5336 H   0  0  0  0  0  0  0  0  0  0  0  0
  142.5785   79.8687  224.6307 H   0  0  0  0  0  0  0  0  0  0  0  0
  141.3854   77.6831  224.5995 H   0  0  0  0  0  0  0  0  0  0  0  0
  140.5047   75.8524  223.2686 H   0  0  0  0  0  0  0  0  0  0  0  0
  139.2303   76.6609  222.2829 H   0  0  0  0  0  0  0  0  0  0  0  0
  141.7854   71.7698  224.7149 H   0  0  0  0  0  0  0  0  0  0  0  0
  140.4458   72.8671  225.2454 H   0  0  0  0  0  0  0  0  0  0  0  0
  1  2  2  0
  2  3  1  0
  3  4  2  0
  4  5  1  0
  5  6  2  0
  5  7  1  0
  7  8  1  0
  8  9  1  0
  9 10  1  0
 10 11  2  0
 11 12  1  0
 12 13  1  0
 13 14  1  0
 14 15  1  0
 15 16  1  0
 16 17  1  0
 17 18  1  0
 18 19  1  0
 12 20  2  0
 20 21  1  0
 21 22  1  0
 22 23  1  0
 23 24  1  0
 24 25  1  0
 25 26  2  0
 26 27  1  0
 27 28  2  0
 28 29  1  0
 29 30  2  0
 30 31  1  0
 21 32  2  0
  9 33  1  0
  6  1  1  0
 32 10  1  0
 33  4  1  0
 19 14  1  0
 31 22  1  0
 30 25  1  0
  1 34  1  0
  2 35  1  0
  3 36  1  0
  6 37  1  0
  7 38  1  0
  7 39  1  0
  8 40  1  0
  8 41  1  0
 13 42  1  0
 13 43  1  0
 14 44  1  6
 15 45  1  0
 15 46  1  0
 16 47  1  0
 16 48  1  0
 17 49  1  0
 17 50  1  0
 18 51  1  0
 19 52  1  0
 19 53  1  0
 23 54  1  0
 23 55  1  0
 24 56  1  0
 24 57  1  0
 26 58  1  0
 27 59  1  0
 28 60  1  0
 29 61  1  0
 31 62  1  0
 31 63  1  0
 33 64  1  0
 33 65  1  0
M  END
>  <smiles>  (91) 
c1ccc2c(c1)CCN(c1nc(CC3CCCNC3)nc(N3CCc4ccccc4C3)n1)C2

>  <score_type>  (91) 
oracle

>  <origin>  (91) 
autodockgpu

>  <m_score__min__energy>  (91) 
-10.710000000000001

>  <m_primary>  (91) 
energy

>  <rmsd>  (91) 
10.871319291570426

>  <m_score__min__rmsd>  (91) 
10.871319291570426

>  <meeko>  (91) 
{"free_energy": -8.78, "intermolecular_energy": -9.97, "internal_energy": -1.39, "cluster_size": 1, "cluster_id": 2, "rank_in_cluster": 1}

>  <energy>  (91) 
-9.79

>  <cluster_rmsd>  (91) 
1.21

>  <cluster>  (91) 
1

$$$$

     RDKit          3D

 65 70  0  0  0  0  0  0  0  0999 V2000
  139.5640   69.1530  227.9790 C   0  0  0  0  0  0  0  0  0  0  0  0
  140.2560   70.3220  228.2840 C   0  0  0  0  0  0  0  0  0  0  0  0
  140.6260   71.1790  227.2700 C   0  0  0  0  0  0  0  0  0  0  0  0
  140.3260   70.9070  225.9380 C   0  0  0  0  0  0  0  0  0  0  0  0
  139.6400   69.7430  225.6580 C   0  0  0  0  0  0  0  0  0  0  0  0
  139.2580   68.8690  226.6590 C   0  0  0  0  0  0  0  0  0  0  0  0
  139.2980   69.4110  224.2500 C   0  0  0  0  0  0  0  0  0  0  0  0
  138.9960   70.7190  223.5470 C   0  0  0  0  0  0  0  0  0  0  0  0
  140.1070   71.6400  223.6490 N   0  0  0  0  0  0  0  0  0  0  0  0
  140.5460   72.3100  222.4720 C   0  0  0  0  0  0  0  0  0  0  0  0
  141.0200   71.5940  221.4430 N   0  0  0  0  0  0  0  0  0  0  0  0
  141.4530   72.1860  220.2940 C   0  0  0  0  0  0  0  0  0  0  0  0
  141.9570   71.3190  219.2160 C   0  0  0  0  0  0  0  0  0  0  0  0
  143.3980   71.5240  218.8800 C   0  0  1  0  0  0  0  0  0  0  0  0
  143.6100   72.8180  218.1720 C   0  0  0  0  0  0  0  0  0  0  0  0
  144.9880   73.4060  218.3270 C   0  0  0  0  0  0  0  0  0  0  0  0
  145.3820   73.3370  219.7690 C   0  0  0  0  0  0  0  0  0  0  0  0
  145.5010   71.9150  220.0930 N   0  0  0  0  0  0  0  0  0  0  0  0
  144.1500   71.4300  220.2050 C   0  0  0  0  0  0  0  0  0  0  0  0
  141.3900   73.5270  220.2220 N   0  0  0  0  0  0  0  0  0  0  0  0
  140.9210   74.2860  221.2340 C   0  0  0  0  0  0  0  0  0  0  0  0
  140.8510   75.7050  221.1670 N   0  0  0  0  0  0  0  0  0  0  0  0
  141.2710   76.4020  219.9650 C   0  0  0  0  0  0  0  0  0  0  0  0
  140.7300   77.8130  220.0170 C   0  0  0  0  0  0  0  0  0  0  0  0
  141.2360   78.4530  221.2550 C   0  0  0  0  0  0  0  0  0  0  0  0
  141.8700   79.6780  221.2690 C   0  0  0  0  0  0  0  0  0  0  0  0
  142.3110   80.2050  222.4640 C   0  0  0  0  0  0  0  0  0  0  0  0
  142.1210   79.5140  223.6370 C   0  0  0  0  0  0  0  0  0  0  0  0
  141.4850   78.2830  223.6220 C   0  0  0  0  0  0  0  0  0  0  0  0
  141.0500   77.7670  222.4380 C   0  0  0  0  0  0  0  0  0  0  0  0
  140.3510   76.4430  222.3220 C   0  0  0  0  0  0  0  0  0  0  0  0
  140.5070   73.6450  222.3430 N   0  0  0  0  0  0  0  0  0  0  0  0
  140.7600   71.8790  224.9170 C   0  0  0  0  0  0  0  0  0  0  0  0
  139.2631   68.4613  228.7796 H   0  0  0  0  0  0  0  0  0  0  0  0
  140.5060   70.5603  229.3284 H   0  0  0  0  0  0  0  0  0  0  0  0
  141.1719   72.1008  227.5194 H   0  0  0  0  0  0  0  0  0  0  0  0
  138.7112   67.9485  226.4067 H   0  0  0  0  0  0  0  0  0  0  0  0
  140.1468   68.9080  223.7637 H   0  0  0  0  0  0  0  0  0  0  0  0
  138.4331   68.7328  224.2056 H   0  0  0  0  0  0  0  0  0  0  0  0
  138.7949   70.5166  222.4846 H   0  0  0  0  0  0  0  0  0  0  0  0
  138.1199   71.1776  224.0288 H   0  0  0  0  0  0  0  0  0  0  0  0
  141.8217   70.2721  219.5253 H   0  0  0  0  0  0  0  0  0  0  0  0
  141.3849   71.5775  218.3128 H   0  0  0  0  0  0  0  0  0  0  0  0
  143.7724   70.7639  218.1785 H   0  0  0  0  0  0  0  0  0  0  0  0
  143.4263   72.6552  217.0997 H   0  0  0  0  0  0  0  0  0  0  0  0
  142.9139   73.5374  218.6280 H   0  0  0  0  0  0  0  0  0  0  0  0
  145.7048   72.8334  217.7200 H   0  0  0  0  0  0  0  0  0  0  0  0
  144.9880   74.4528  217.9891 H   0  0  0  0  0  0  0  0  0  0  0  0
  146.3447   73.8455  219.9258 H   0  0  0  0  0  0  0  0  0  0  0  0
  144.6395   73.8333  220.4112 H   0  0  0  0  0  0  0  0  0  0  0  0
  145.9170   71.8670  221.0370 H   0  0  0  0  0  0  0  0  0  0  0  0
  144.1756   70.3779  220.5252 H   0  0  0  0  0  0  0  0  0  0  0  0
  143.6235   72.0565  220.9401 H   0  0  0  0  0  0  0  0  0  0  0  0
  142.3696   76.4271  219.9149 H   0  0  0  0  0  0  0  0  0  0  0  0
  140.8876   75.8831  219.0741 H   0  0  0  0  0  0  0  0  0  0  0  0
  141.0741   78.3773  219.1377 H   0  0  0  0  0  0  0  0  0  0  0  0
  139.6301   77.8005  220.0157 H   0  0  0  0  0  0  0  0  0  0  0  0
  142.0230   80.2318  220.3309 H   0  0  0  0  0  0  0  0  0  0  0  0
  142.8167   81.1818  222.4790 H   0  0  0  0  0  0  0  0  0  0  0  0
  142.4741   79.9386  224.5883 H   0  0  0  0  0  0  0  0  0  0  0  0
  141.3324   77.7266  224.5585 H   0  0  0  0  0  0  0  0  0  0  0  0
  140.5328   75.8557  223.2342 H   0  0  0  0  0  0  0  0  0  0  0  0
  139.2725   76.6181  222.1948 H   0  0  0  0  0  0  0  0  0  0  0  0
  141.8482   71.7931  224.7809 H   0  0  0  0  0  0  0  0  0  0  0  0
  140.4879   72.8875  225.2617 H   0  0  0  0  0  0  0  0  0  0  0  0
  1  2  2  0
  2  3  1  0
  3  4  2  0
  4  5  1  0
  5  6  2  0
  5  7  1  0
  7  8  1  0
  8  9  1  0
  9 10  1  0
 10 11  2  0
 11 12  1  0
 12 13  1  0
 13 14  1  0
 14 15  1  0
 15 16  1  0
 16 17  1  0
 17 18  1  0
 18 19  1  0
 12 20  2  0
 20 21  1  0
 21 22  1  0
 22 23  1  0
 23 24  1  0
 24 25  1  0
 25 26  2  0
 26 27  1  0
 27 28  2  0
 28 29  1  0
 29 30  2  0
 30 31  1  0
 21 32  2  0
  9 33  1  0
  6  1  1  0
 32 10  1  0
 33  4  1  0
 19 14  1  0
 31 22  1  0
 30 25  1  0
  1 34  1  0
  2 35  1  0
  3 36  1  0
  6 37  1  0
  7 38  1  0
  7 39  1  0
  8 40  1  0
  8 41  1  0
 13 42  1  0
 13 43  1  0
 14 44  1  6
 15 45  1  0
 15 46  1  0
 16 47  1  0
 16 48  1  0
 17 49  1  0
 17 50  1  0
 18 51  1  0
 19 52  1  0
 19 53  1  0
 23 54  1  0
 23 55  1  0
 24 56  1  0
 24 57  1  0
 26 58  1  0
 27 59  1  0
 28 60  1  0
 29 61  1  0
 31 62  1  0
 31 63  1  0
 33 64  1  0
 33 65  1  0
M  END
>  <smiles>  (92) 
c1ccc2c(c1)CCN(c1nc(CC3CCCNC3)nc(N3CCc4ccccc4C3)n1)C2

>  <score_type>  (92) 
oracle

>  <origin>  (92) 
autodockgpu

>  <m_score__min__energy>  (92) 
-10.710000000000001

>  <m_primary>  (92) 
energy

>  <rmsd>  (92) 
10.864580885023445

>  <m_score__min__rmsd>  (92) 
10.864580885023445

>  <meeko>  (92) 
{"free_energy": -10.26, "intermolecular_energy": -11.46, "internal_energy": -1.28, "cluster_size": 49, "cluster_id": 1, "rank_in_cluster": 19}

>  <energy>  (92) 
-9.76

>  <cluster_rmsd>  (92) 
1.55

>  <cluster>  (92) 
1

$$$$

     RDKit          3D

 65 70  0  0  0  0  0  0  0  0999 V2000
  139.4640   80.4690  223.3570 C   0  0  0  0  0  0  0  0  0  0  0  0
  140.8280   80.2510  223.1740 C   0  0  0  0  0  0  0  0  0  0  0  0
  141.2770   78.9910  222.8430 C   0  0  0  0  0  0  0  0  0  0  0  0
  140.4010   77.9210  222.6840 C   0  0  0  0  0  0  0  0  0  0  0  0
  139.0550   78.1580  222.8690 C   0  0  0  0  0  0  0  0  0  0  0  0
  138.5810   79.4140  223.2010 C   0  0  0  0  0  0  0  0  0  0  0  0
  138.0820   77.0460  222.7100 C   0  0  0  0  0  0  0  0  0  0  0  0
  138.6020   76.1580  221.5990 C   0  0  0  0  0  0  0  0  0  0  0  0
  139.9430   75.6900  221.8820 N   0  0  0  0  0  0  0  0  0  0  0  0
  140.2320   74.3080  221.7090 C   0  0  0  0  0  0  0  0  0  0  0  0
  140.6540   73.8660  220.5150 N   0  0  0  0  0  0  0  0  0  0  0  0
  140.9450   72.5520  220.2980 C   0  0  0  0  0  0  0  0  0  0  0  0
  141.4020   72.1590  218.9540 C   0  0  0  0  0  0  0  0  0  0  0  0
  142.8830   72.2030  218.7680 C   0  0  1  0  0  0  0  0  0  0  0  0
  143.3880   73.6050  218.7690 C   0  0  0  0  0  0  0  0  0  0  0  0
  144.8240   73.7600  219.1960 C   0  0  0  0  0  0  0  0  0  0  0  0
  145.0500   72.9450  220.4310 C   0  0  0  0  0  0  0  0  0  0  0  0
  144.8860   71.5460  220.0320 N   0  0  0  0  0  0  0  0  0  0  0  0
  143.4670   71.3480  219.8900 C   0  0  0  0  0  0  0  0  0  0  0  0
  140.7940   71.7010  221.3280 N   0  0  0  0  0  0  0  0  0  0  0  0
  140.3720   72.1030  222.5440 C   0  0  0  0  0  0  0  0  0  0  0  0
  140.2090   71.2100  223.6390 N   0  0  0  0  0  0  0  0  0  0  0  0
  139.0120   70.3970  223.7470 C   0  0  0  0  0  0  0  0  0  0  0  0
  139.2740   69.2910  224.7450 C   0  0  0  0  0  0  0  0  0  0  0  0
  139.6580   69.9170  226.0330 C   0  0  0  0  0  0  0  0  0  0  0  0
  139.0570   69.6060  227.2360 C   0  0  0  0  0  0  0  0  0  0  0  0
  139.4740   70.2340  228.3900 C   0  0  0  0  0  0  0  0  0  0  0  0
  140.4820   71.1660  228.3450 C   0  0  0  0  0  0  0  0  0  0  0  0
  141.0850   71.4790  227.1370 C   0  0  0  0  0  0  0  0  0  0  0  0
  140.6700   70.8550  225.9990 C   0  0  0  0  0  0  0  0  0  0  0  0
  141.2610   71.1270  224.6460 C   0  0  0  0  0  0  0  0  0  0  0  0
  140.1010   73.4130  222.6990 N   0  0  0  0  0  0  0  0  0  0  0  0
  140.9690   76.6070  222.3290 C   0  0  0  0  0  0  0  0  0  0  0  0
  139.0923   81.4696  223.6228 H   0  0  0  0  0  0  0  0  0  0  0  0
  141.5418   81.0794  223.2930 H   0  0  0  0  0  0  0  0  0  0  0  0
  142.3553   78.8265  222.7008 H   0  0  0  0  0  0  0  0  0  0  0  0
  137.5019   79.5750  223.3412 H   0  0  0  0  0  0  0  0  0  0  0  0
  138.0058   76.4739  223.6465 H   0  0  0  0  0  0  0  0  0  0  0  0
  137.0808   77.4321  222.4679 H   0  0  0  0  0  0  0  0  0  0  0  0
  137.9348   75.2900  221.4924 H   0  0  0  0  0  0  0  0  0  0  0  0
  138.6288   76.7455  220.6694 H   0  0  0  0  0  0  0  0  0  0  0  0
  141.0617   71.1307  218.7620 H   0  0  0  0  0  0  0  0  0  0  0  0
  140.9758   72.8903  218.2515 H   0  0  0  0  0  0  0  0  0  0  0  0
  143.1904   71.8036  217.7902 H   0  0  0  0  0  0  0  0  0  0  0  0
  143.2895   74.0047  217.7489 H   0  0  0  0  0  0  0  0  0  0  0  0
  142.7847   74.1504  219.5096 H   0  0  0  0  0  0  0  0  0  0  0  0
  145.4886   73.4074  218.3935 H   0  0  0  0  0  0  0  0  0  0  0  0
  145.0409   74.8186  219.4016 H   0  0  0  0  0  0  0  0  0  0  0  0
  146.0651   73.1144  220.8193 H   0  0  0  0  0  0  0  0  0  0  0  0
  144.3436   73.2202  221.2281 H   0  0  0  0  0  0  0  0  0  0  0  0
  145.1890   70.9780  220.8400 H   0  0  0  0  0  0  0  0  0  0  0  0
  143.2764   70.2881  219.6656 H   0  0  0  0  0  0  0  0  0  0  0  0
  142.9849   71.6464  220.8326 H   0  0  0  0  0  0  0  0  0  0  0  0
  138.1716   71.0172  224.0920 H   0  0  0  0  0  0  0  0  0  0  0  0
  138.7566   69.9685  222.7666 H   0  0  0  0  0  0  0  0  0  0  0  0
  138.3646   68.6870  224.8800 H   0  0  0  0  0  0  0  0  0  0  0  0
  140.0793   68.6341  224.3845 H   0  0  0  0  0  0  0  0  0  0  0  0
  138.2491   68.8605  227.2736 H   0  0  0  0  0  0  0  0  0  0  0  0
  138.9978   69.9879  229.3505 H   0  0  0  0  0  0  0  0  0  0  0  0
  140.8110   71.6645  229.2687 H   0  0  0  0  0  0  0  0  0  0  0  0
  141.8922   72.2252  227.0972 H   0  0  0  0  0  0  0  0  0  0  0  0
  141.8106   72.0794  224.6754 H   0  0  0  0  0  0  0  0  0  0  0  0
  141.9430   70.3050  224.3827 H   0  0  0  0  0  0  0  0  0  0  0  0
  141.4677   76.1824  223.2128 H   0  0  0  0  0  0  0  0  0  0  0  0
  141.6856   76.7511  221.5070 H   0  0  0  0  0  0  0  0  0  0  0  0
  1  2  2  0
  2  3  1  0
  3  4  2  0
  4  5  1  0
  5  6  2  0
  5  7  1  0
  7  8  1  0
  8  9  1  0
  9 10  1  0
 10 11  2  0
 11 12  1  0
 12 13  1  0
 13 14  1  0
 14 15  1  0
 15 16  1  0
 16 17  1  0
 17 18  1  0
 18 19  1  0
 12 20  2  0
 20 21  1  0
 21 22  1  0
 22 23  1  0
 23 24  1  0
 24 25  1  0
 25 26  2  0
 26 27  1  0
 27 28  2  0
 28 29  1  0
 29 30  2  0
 30 31  1  0
 21 32  2  0
  9 33  1  0
  6  1  1  0
 32 10  1  0
 33  4  1  0
 19 14  1  0
 31 22  1  0
 30 25  1  0
  1 34  1  0
  2 35  1  0
  3 36  1  0
  6 37  1  0
  7 38  1  0
  7 39  1  0
  8 40  1  0
  8 41  1  0
 13 42  1  0
 13 43  1  0
 14 44  1  6
 15 45  1  0
 15 46  1  0
 16 47  1  0
 16 48  1  0
 17 49  1  0
 17 50  1  0
 18 51  1  0
 19 52  1  0
 19 53  1  0
 23 54  1  0
 23 55  1  0
 24 56  1  0
 24 57  1  0
 26 58  1  0
 27 59  1  0
 28 60  1  0
 29 61  1  0
 31 62  1  0
 31 63  1  0
 33 64  1  0
 33 65  1  0
M  END
>  <smiles>  (93) 
c1ccc2c(c1)CCN(c1nc(CC3CCCNC3)nc(N3CCc4ccccc4C3)n1)C2

>  <score_type>  (93) 
oracle

>  <origin>  (93) 
autodockgpu

>  <m_score__min__energy>  (93) 
-10.710000000000001

>  <m_primary>  (93) 
energy

>  <rmsd>  (93) 
5.069195621047891

>  <m_score__min__rmsd>  (93) 
5.069195621047891

>  <meeko>  (93) 
{"free_energy": -9.46, "intermolecular_energy": -10.65, "internal_energy": -1.22, "cluster_size": 49, "cluster_id": 1, "rank_in_cluster": 45}

>  <energy>  (93) 
-9.66

>  <cluster_rmsd>  (93) 
1.43

>  <cluster>  (93) 
1

$$$$

     RDKit          3D

 65 70  0  0  0  0  0  0  0  0999 V2000
  139.5630   69.1500  228.0020 C   0  0  0  0  0  0  0  0  0  0  0  0
  140.2360   70.3300  228.3070 C   0  0  0  0  0  0  0  0  0  0  0  0
  140.6130   71.1810  227.2910 C   0  0  0  0  0  0  0  0  0  0  0  0
  140.3370   70.8930  225.9560 C   0  0  0  0  0  0  0  0  0  0  0  0
  139.6690   69.7190  225.6770 C   0  0  0  0  0  0  0  0  0  0  0  0
  139.2810   68.8510  226.6800 C   0  0  0  0  0  0  0  0  0  0  0  0
  139.3530   69.3700  224.2670 C   0  0  0  0  0  0  0  0  0  0  0  0
  139.0480   70.6670  223.5460 C   0  0  0  0  0  0  0  0  0  0  0  0
  140.1480   71.6020  223.6570 N   0  0  0  0  0  0  0  0  0  0  0  0
  140.5980   72.2660  222.4810 C   0  0  0  0  0  0  0  0  0  0  0  0
  141.1000   71.5450  221.4680 N   0  0  0  0  0  0  0  0  0  0  0  0
  141.5450   72.1310  220.3200 C   0  0  0  0  0  0  0  0  0  0  0  0
  142.0790   71.2600  219.2610 C   0  0  0  0  0  0  0  0  0  0  0  0
  143.4780   71.5770  218.8470 C   0  0  1  0  0  0  0  0  0  0  0  0
  143.5740   72.9460  218.2650 C   0  0  0  0  0  0  0  0  0  0  0  0
  144.9310   73.5900  218.3830 C   0  0  0  0  0  0  0  0  0  0  0  0
  145.4370   73.3970  219.7780 C   0  0  0  0  0  0  0  0  0  0  0  0
  145.6470   71.9580  219.9410 N   0  0  0  0  0  0  0  0  0  0  0  0
  144.3330   71.3910  220.0980 C   0  0  0  0  0  0  0  0  0  0  0  0
  141.4650   73.4710  220.2330 N   0  0  0  0  0  0  0  0  0  0  0  0
  140.9680   74.2330  221.2280 C   0  0  0  0  0  0  0  0  0  0  0  0
  140.8790   75.6510  221.1450 N   0  0  0  0  0  0  0  0  0  0  0  0
  141.2880   76.3380  219.9340 C   0  0  0  0  0  0  0  0  0  0  0  0
  140.7290   77.7430  219.9700 C   0  0  0  0  0  0  0  0  0  0  0  0
  141.2290   78.4040  221.1990 C   0  0  0  0  0  0  0  0  0  0  0  0
  141.8470   79.6370  221.1990 C   0  0  0  0  0  0  0  0  0  0  0  0
  142.2840   80.1830  222.3860 C   0  0  0  0  0  0  0  0  0  0  0  0
  142.1050   79.5040  223.5670 C   0  0  0  0  0  0  0  0  0  0  0  0
  141.4840   78.2650  223.5680 C   0  0  0  0  0  0  0  0  0  0  0  0
  141.0540   77.7290  222.3910 C   0  0  0  0  0  0  0  0  0  0  0  0
  140.3720   76.3960  222.2920 C   0  0  0  0  0  0  0  0  0  0  0  0
  140.5430   73.5980  222.3370 N   0  0  0  0  0  0  0  0  0  0  0  0
  140.7770   71.8600  224.9330 C   0  0  0  0  0  0  0  0  0  0  0  0
  139.2582   68.4616  228.8040 H   0  0  0  0  0  0  0  0  0  0  0  0
  140.4654   70.5815  229.3530 H   0  0  0  0  0  0  0  0  0  0  0  0
  141.1452   72.1109  227.5401 H   0  0  0  0  0  0  0  0  0  0  0  0
  138.7480   67.9224  226.4279 H   0  0  0  0  0  0  0  0  0  0  0  0
  140.2148   68.8716  223.7992 H   0  0  0  0  0  0  0  0  0  0  0  0
  138.4960   68.6822  224.2160 H   0  0  0  0  0  0  0  0  0  0  0  0
  138.8666   70.4517  222.4826 H   0  0  0  0  0  0  0  0  0  0  0  0
  138.1589   71.1205  224.0085 H   0  0  0  0  0  0  0  0  0  0  0  0
  142.0549   70.2222  219.6247 H   0  0  0  0  0  0  0  0  0  0  0  0
  141.4464   71.4195  218.3754 H   0  0  0  0  0  0  0  0  0  0  0  0
  143.8330   70.9134  218.0447 H   0  0  0  0  0  0  0  0  0  0  0  0
  143.3172   72.8825  217.1973 H   0  0  0  0  0  0  0  0  0  0  0  0
  142.8813   73.5765  218.8417 H   0  0  0  0  0  0  0  0  0  0  0  0
  145.6255   73.1220  217.6698 H   0  0  0  0  0  0  0  0  0  0  0  0
  144.8557   74.6641  218.1581 H   0  0  0  0  0  0  0  0  0  0  0  0
  146.3839   73.9388  219.9185 H   0  0  0  0  0  0  0  0  0  0  0  0
  144.7236   73.7845  220.5202 H   0  0  0  0  0  0  0  0  0  0  0  0
  146.1360   71.8380  220.8430 H   0  0  0  0  0  0  0  0  0  0  0  0
  144.4325   70.3150  220.3037 H   0  0  0  0  0  0  0  0  0  0  0  0
  143.8356   71.9102  220.9305 H   0  0  0  0  0  0  0  0  0  0  0  0
  142.3861   76.3763  219.8815 H   0  0  0  0  0  0  0  0  0  0  0  0
  140.9098   75.8034  219.0502 H   0  0  0  0  0  0  0  0  0  0  0  0
  141.0644   78.3009  219.0833 H   0  0  0  0  0  0  0  0  0  0  0  0
  139.6293   77.7167  219.9709 H   0  0  0  0  0  0  0  0  0  0  0  0
  141.9905   80.1825  220.2546 H   0  0  0  0  0  0  0  0  0  0  0  0
  142.7779   81.1659  222.3883 H   0  0  0  0  0  0  0  0  0  0  0  0
  142.4549   79.9441  224.5125 H   0  0  0  0  0  0  0  0  0  0  0  0
  141.3393   77.7184  224.5115 H   0  0  0  0  0  0  0  0  0  0  0  0
  140.5629   75.8218  223.2106 H   0  0  0  0  0  0  0  0  0  0  0  0
  139.2911   76.5560  222.1649 H   0  0  0  0  0  0  0  0  0  0  0  0
  141.8681   71.7850  224.8156 H   0  0  0  0  0  0  0  0  0  0  0  0
  140.4879   72.8686  225.2634 H   0  0  0  0  0  0  0  0  0  0  0  0
  1  2  2  0
  2  3  1  0
  3  4  2  0
  4  5  1  0
  5  6  2  0
  5  7  1  0
  7  8  1  0
  8  9  1  0
  9 10  1  0
 10 11  2  0
 11 12  1  0
 12 13  1  0
 13 14  1  0
 14 15  1  0
 15 16  1  0
 16 17  1  0
 17 18  1  0
 18 19  1  0
 12 20  2  0
 20 21  1  0
 21 22  1  0
 22 23  1  0
 23 24  1  0
 24 25  1  0
 25 26  2  0
 26 27  1  0
 27 28  2  0
 28 29  1  0
 29 30  2  0
 30 31  1  0
 21 32  2  0
  9 33  1  0
  6  1  1  0
 32 10  1  0
 33  4  1  0
 19 14  1  0
 31 22  1  0
 30 25  1  0
  1 34  1  0
  2 35  1  0
  3 36  1  0
  6 37  1  0
  7 38  1  0
  7 39  1  0
  8 40  1  0
  8 41  1  0
 13 42  1  0
 13 43  1  0
 14 44  1  6
 15 45  1  0
 15 46  1  0
 16 47  1  0
 16 48  1  0
 17 49  1  0
 17 50  1  0
 18 51  1  0
 19 52  1  0
 19 53  1  0
 23 54  1  0
 23 55  1  0
 24 56  1  0
 24 57  1  0
 26 58  1  0
 27 59  1  0
 28 60  1  0
 29 61  1  0
 31 62  1  0
 31 63  1  0
 33 64  1  0
 33 65  1  0
M  END
>  <smiles>  (94) 
c1ccc2c(c1)CCN(c1nc(CC3CCCNC3)nc(N3CCc4ccccc4C3)n1)C2

>  <score_type>  (94) 
oracle

>  <origin>  (94) 
autodockgpu

>  <m_score__min__energy>  (94) 
-10.710000000000001

>  <m_primary>  (94) 
energy

>  <rmsd>  (94) 
10.883864016112724

>  <m_score__min__rmsd>  (94) 
10.883864016112724

>  <meeko>  (94) 
{"free_energy": -10.28, "intermolecular_energy": -11.48, "internal_energy": -1.24, "cluster_size": 49, "cluster_id": 1, "rank_in_cluster": 17}

>  <energy>  (94) 
-9.58

>  <cluster_rmsd>  (94) 
1.38

>  <cluster>  (94) 
1

$$$$

     RDKit          3D

 65 70  0  0  0  0  0  0  0  0999 V2000
  139.5750   69.0640  227.7730 C   0  0  0  0  0  0  0  0  0  0  0  0
  140.2820   70.2090  228.1310 C   0  0  0  0  0  0  0  0  0  0  0  0
  140.6760   71.0990  227.1550 C   0  0  0  0  0  0  0  0  0  0  0  0
  140.3840   70.8850  225.8100 C   0  0  0  0  0  0  0  0  0  0  0  0
  139.6830   69.7450  225.4780 C   0  0  0  0  0  0  0  0  0  0  0  0
  139.2770   68.8390  226.4400 C   0  0  0  0  0  0  0  0  0  0  0  0
  139.3480   69.4750  224.0550 C   0  0  0  0  0  0  0  0  0  0  0  0
  139.0740   70.8140  223.4020 C   0  0  0  0  0  0  0  0  0  0  0  0
  140.1990   71.7120  223.5500 N   0  0  0  0  0  0  0  0  0  0  0  0
  140.6600   72.4210  222.4050 C   0  0  0  0  0  0  0  0  0  0  0  0
  141.1810   71.7410  221.3740 N   0  0  0  0  0  0  0  0  0  0  0  0
  141.6360   72.3720  220.2540 C   0  0  0  0  0  0  0  0  0  0  0  0
  142.1920   71.5430  219.1710 C   0  0  0  0  0  0  0  0  0  0  0  0
  143.6820   71.4530  219.1650 C   0  0  1  0  0  0  0  0  0  0  0  0
  144.1610   70.4580  218.1640 C   0  0  0  0  0  0  0  0  0  0  0  0
  145.5520   70.7050  217.6400 C   0  0  0  0  0  0  0  0  0  0  0  0
  145.6840   72.1540  217.2900 C   0  0  0  0  0  0  0  0  0  0  0  0
  145.5800   72.8900  218.5500 N   0  0  0  0  0  0  0  0  0  0  0  0
  144.1830   72.8690  218.8960 C   0  0  0  0  0  0  0  0  0  0  0  0
  141.5470   73.7130  220.2140 N   0  0  0  0  0  0  0  0  0  0  0  0
  141.0310   74.4360  221.2290 C   0  0  0  0  0  0  0  0  0  0  0  0
  140.9320   75.8550  221.1960 N   0  0  0  0  0  0  0  0  0  0  0  0
  141.3520   76.5880  220.0160 C   0  0  0  0  0  0  0  0  0  0  0  0
  140.7810   77.9870  220.0950 C   0  0  0  0  0  0  0  0  0  0  0  0
  141.2610   78.6070  221.3540 C   0  0  0  0  0  0  0  0  0  0  0  0
  141.8700   79.8430  221.4050 C   0  0  0  0  0  0  0  0  0  0  0  0
  142.2870   80.3490  222.6170 C   0  0  0  0  0  0  0  0  0  0  0  0
  142.0990   79.6270  223.7710 C   0  0  0  0  0  0  0  0  0  0  0  0
  141.4870   78.3840  223.7190 C   0  0  0  0  0  0  0  0  0  0  0  0
  141.0760   77.8880  222.5180 C   0  0  0  0  0  0  0  0  0  0  0  0
  140.4050   76.5540  222.3620 C   0  0  0  0  0  0  0  0  0  0  0  0
  140.5970   73.7580  222.3090 N   0  0  0  0  0  0  0  0  0  0  0  0
  140.8430   71.8900  224.8330 C   0  0  0  0  0  0  0  0  0  0  0  0
  139.2563   68.3451  228.5422 H   0  0  0  0  0  0  0  0  0  0  0  0
  140.5246   70.4021  229.1864 H   0  0  0  0  0  0  0  0  0  0  0  0
  141.2350   72.0007  227.4456 H   0  0  0  0  0  0  0  0  0  0  0  0
  138.7169   67.9390  226.1461 H   0  0  0  0  0  0  0  0  0  0  0  0
  140.1926   68.9773  223.5561 H   0  0  0  0  0  0  0  0  0  0  0  0
  138.4723   68.8139  223.9768 H   0  0  0  0  0  0  0  0  0  0  0  0
  138.8796   70.6570  222.3308 H   0  0  0  0  0  0  0  0  0  0  0  0
  138.2010   71.2677  223.8940 H   0  0  0  0  0  0  0  0  0  0  0  0
  141.7865   70.5257  219.2739 H   0  0  0  0  0  0  0  0  0  0  0  0
  141.9033   72.0267  218.2262 H   0  0  0  0  0  0  0  0  0  0  0  0
  144.0781   71.0885  220.1243 H   0  0  0  0  0  0  0  0  0  0  0  0
  144.1448   69.4642  218.6352 H   0  0  0  0  0  0  0  0  0  0  0  0
  143.4862   70.5407  217.2993 H   0  0  0  0  0  0  0  0  0  0  0  0
  146.2902   70.4422  218.4120 H   0  0  0  0  0  0  0  0  0  0  0  0
  145.7312   70.0867  216.7480 H   0  0  0  0  0  0  0  0  0  0  0  0
  146.6584   72.3446  216.8165 H   0  0  0  0  0  0  0  0  0  0  0  0
  144.9059   72.4666  216.5781 H   0  0  0  0  0  0  0  0  0  0  0  0
  145.8220   73.8700  218.3330 H   0  0  0  0  0  0  0  0  0  0  0  0
  144.0319   73.4770  219.8002 H   0  0  0  0  0  0  0  0  0  0  0  0
  143.6160   73.2741  218.0449 H   0  0  0  0  0  0  0  0  0  0  0  0
  142.4503   76.6364  219.9800 H   0  0  0  0  0  0  0  0  0  0  0  0
  140.9904   76.0827  219.1083 H   0  0  0  0  0  0  0  0  0  0  0  0
  141.1229   78.5790  219.2332 H   0  0  0  0  0  0  0  0  0  0  0  0
  139.6816   77.9526  220.0806 H   0  0  0  0  0  0  0  0  0  0  0  0
  142.0223   80.4225  220.4825 H   0  0  0  0  0  0  0  0  0  0  0  0
  142.7725   81.3351  222.6609 H   0  0  0  0  0  0  0  0  0  0  0  0
  142.4340   80.0352  224.7359 H   0  0  0  0  0  0  0  0  0  0  0  0
  141.3343   77.8025  224.6402 H   0  0  0  0  0  0  0  0  0  0  0  0
  140.5885   75.9482  223.2617 H   0  0  0  0  0  0  0  0  0  0  0  0
  139.3247   76.7108  222.2267 H   0  0  0  0  0  0  0  0  0  0  0  0
  141.9310   71.7926  224.7038 H   0  0  0  0  0  0  0  0  0  0  0  0
  140.5829   72.8881  225.2152 H   0  0  0  0  0  0  0  0  0  0  0  0
  1  2  2  0
  2  3  1  0
  3  4  2  0
  4  5  1  0
  5  6  2  0
  5  7  1  0
  7  8  1  0
  8  9  1  0
  9 10  1  0
 10 11  2  0
 11 12  1  0
 12 13  1  0
 13 14  1  0
 14 15  1  0
 15 16  1  0
 16 17  1  0
 17 18  1  0
 18 19  1  0
 12 20  2  0
 20 21  1  0
 21 22  1  0
 22 23  1  0
 23 24  1  0
 24 25  1  0
 25 26  2  0
 26 27  1  0
 27 28  2  0
 28 29  1  0
 29 30  2  0
 30 31  1  0
 21 32  2  0
  9 33  1  0
  6  1  1  0
 32 10  1  0
 33  4  1  0
 19 14  1  0
 31 22  1  0
 30 25  1  0
  1 34  1  0
  2 35  1  0
  3 36  1  0
  6 37  1  0
  7 38  1  0
  7 39  1  0
  8 40  1  0
  8 41  1  0
 13 42  1  0
 13 43  1  0
 14 44  1  1
 15 45  1  0
 15 46  1  0
 16 47  1  0
 16 48  1  0
 17 49  1  0
 17 50  1  0
 18 51  1  0
 19 52  1  0
 19 53  1  0
 23 54  1  0
 23 55  1  0
 24 56  1  0
 24 57  1  0
 26 58  1  0
 27 59  1  0
 28 60  1  0
 29 61  1  0
 31 62  1  0
 31 63  1  0
 33 64  1  0
 33 65  1  0
M  END
>  <smiles>  (95) 
c1ccc2c(c1)CCN(c1nc(CC3CCCNC3)nc(N3CCc4ccccc4C3)n1)C2

>  <score_type>  (95) 
oracle

>  <origin>  (95) 
autodockgpu

>  <m_score__min__energy>  (95) 
-10.710000000000001

>  <m_primary>  (95) 
energy

>  <rmsd>  (95) 
10.789103724911127

>  <m_score__min__rmsd>  (95) 
10.789103724911127

>  <meeko>  (95) 
{"free_energy": -10.13, "intermolecular_energy": -11.32, "internal_energy": -0.98, "cluster_size": 49, "cluster_id": 1, "rank_in_cluster": 32}

>  <energy>  (95) 
-9.46

>  <cluster_rmsd>  (95) 
1.35

>  <cluster>  (95) 
1

$$$$

     RDKit          3D

 65 70  0  0  0  0  0  0  0  0999 V2000
  139.5930   68.3610  226.5160 C   0  0  0  0  0  0  0  0  0  0  0  0
  140.3010   69.3960  227.1220 C   0  0  0  0  0  0  0  0  0  0  0  0
  140.6340   70.5130  226.3870 C   0  0  0  0  0  0  0  0  0  0  0  0
  140.2800   70.6390  225.0460 C   0  0  0  0  0  0  0  0  0  0  0  0
  139.5800   69.6020  224.4660 C   0  0  0  0  0  0  0  0  0  0  0  0
  139.2340   68.4720  225.1840 C   0  0  0  0  0  0  0  0  0  0  0  0
  139.1800   69.6920  223.0380 C   0  0  0  0  0  0  0  0  0  0  0  0
  138.8560   71.1450  222.7580 C   0  0  0  0  0  0  0  0  0  0  0  0
  139.9750   72.0050  223.0800 N   0  0  0  0  0  0  0  0  0  0  0  0
  140.3690   72.9920  222.1330 C   0  0  0  0  0  0  0  0  0  0  0  0
  140.9340   72.6100  220.9780 N   0  0  0  0  0  0  0  0  0  0  0  0
  141.3300   73.5140  220.0390 C   0  0  0  0  0  0  0  0  0  0  0  0
  141.9400   73.0030  218.8000 C   0  0  0  0  0  0  0  0  0  0  0  0
  143.2870   72.3850  218.9840 C   0  0  1  0  0  0  0  0  0  0  0  0
  143.4570   71.1870  218.1150 C   0  0  0  0  0  0  0  0  0  0  0  0
  144.8840   70.8650  217.7530 C   0  0  0  0  0  0  0  0  0  0  0  0
  145.5700   72.1250  217.3310 C   0  0  0  0  0  0  0  0  0  0  0  0
  145.6270   72.9780  218.5190 N   0  0  0  0  0  0  0  0  0  0  0  0
  144.2940   73.4940  218.6900 C   0  0  0  0  0  0  0  0  0  0  0  0
  141.1350   74.8180  220.3070 N   0  0  0  0  0  0  0  0  0  0  0  0
  140.5720   75.2450  221.4550 C   0  0  0  0  0  0  0  0  0  0  0  0
  140.3620   76.6220  221.7480 N   0  0  0  0  0  0  0  0  0  0  0  0
  139.5200   77.4310  220.8860 C   0  0  0  0  0  0  0  0  0  0  0  0
  139.1580   78.6990  221.6270 C   0  0  0  0  0  0  0  0  0  0  0  0
  140.4170   79.3850  222.0030 C   0  0  0  0  0  0  0  0  0  0  0  0
  140.6690   80.7130  221.7240 C   0  0  0  0  0  0  0  0  0  0  0  0
  141.8660   81.2760  222.1090 C   0  0  0  0  0  0  0  0  0  0  0  0
  142.8070   80.5210  222.7670 C   0  0  0  0  0  0  0  0  0  0  0  0
  142.5540   79.1870  223.0460 C   0  0  0  0  0  0  0  0  0  0  0  0
  141.3690   78.6340  222.6640 C   0  0  0  0  0  0  0  0  0  0  0  0
  141.0050   77.2010  222.9220 C   0  0  0  0  0  0  0  0  0  0  0  0
  140.2010   74.3050  222.3450 N   0  0  0  0  0  0  0  0  0  0  0  0
  140.6780   71.8690  224.3360 C   0  0  0  0  0  0  0  0  0  0  0  0
  139.3216   67.4633  227.0909 H   0  0  0  0  0  0  0  0  0  0  0  0
  140.5924   69.3223  228.1801 H   0  0  0  0  0  0  0  0  0  0  0  0
  141.1939   71.3262  226.8720 H   0  0  0  0  0  0  0  0  0  0  0  0
  138.6732   67.6610  224.6963 H   0  0  0  0  0  0  0  0  0  0  0  0
  140.0061   69.3583  222.3928 H   0  0  0  0  0  0  0  0  0  0  0  0
  138.3105   69.0501  222.8333 H   0  0  0  0  0  0  0  0  0  0  0  0
  138.6121   71.2586  221.6914 H   0  0  0  0  0  0  0  0  0  0  0  0
  138.0015   71.4374  223.3860 H   0  0  0  0  0  0  0  0  0  0  0  0
  141.2683   72.2432  218.3740 H   0  0  0  0  0  0  0  0  0  0  0  0
  142.0808   73.8707  218.1387 H   0  0  0  0  0  0  0  0  0  0  0  0
  143.4326   72.0032  220.0053 H   0  0  0  0  0  0  0  0  0  0  0  0
  143.0338   70.3193  218.6422 H   0  0  0  0  0  0  0  0  0  0  0  0
  142.9422   71.4149  217.1700 H   0  0  0  0  0  0  0  0  0  0  0  0
  145.3995   70.4379  218.6258 H   0  0  0  0  0  0  0  0  0  0  0  0
  144.9054   70.1344  216.9310 H   0  0  0  0  0  0  0  0  0  0  0  0
  146.5858   71.9038  216.9715 H   0  0  0  0  0  0  0  0  0  0  0  0
  145.0305   72.6186  216.5093 H   0  0  0  0  0  0  0  0  0  0  0  0
  146.2310   73.7780  218.2720 H   0  0  0  0  0  0  0  0  0  0  0  0
  144.2933   74.2062  219.5283 H   0  0  0  0  0  0  0  0  0  0  0  0
  143.9958   73.9850  217.7519 H   0  0  0  0  0  0  0  0  0  0  0  0
  140.0647   77.6821  219.9639 H   0  0  0  0  0  0  0  0  0  0  0  0
  138.6088   76.8760  220.6184 H   0  0  0  0  0  0  0  0  0  0  0  0
  138.5566   79.3521  220.9776 H   0  0  0  0  0  0  0  0  0  0  0  0
  138.5690   78.4618  222.5253 H   0  0  0  0  0  0  0  0  0  0  0  0
  139.9176   81.3191  221.1967 H   0  0  0  0  0  0  0  0  0  0  0  0
  142.0694   82.3344  221.8888 H   0  0  0  0  0  0  0  0  0  0  0  0
  143.7611   80.9753  223.0723 H   0  0  0  0  0  0  0  0  0  0  0  0
  143.3048   78.5791  223.5722 H   0  0  0  0  0  0  0  0  0  0  0  0
  141.9169   76.6313  223.1541 H   0  0  0  0  0  0  0  0  0  0  0  0
  140.3063   77.1568  223.7705 H   0  0  0  0  0  0  0  0  0  0  0  0
  141.7596   71.8341  224.1386 H   0  0  0  0  0  0  0  0  0  0  0  0
  140.4240   72.7316  224.9696 H   0  0  0  0  0  0  0  0  0  0  0  0
  1  2  2  0
  2  3  1  0
  3  4  2  0
  4  5  1  0
  5  6  2  0
  5  7  1  0
  7  8  1  0
  8  9  1  0
  9 10  1  0
 10 11  2  0
 11 12  1  0
 12 13  1  0
 13 14  1  0
 14 15  1  0
 15 16  1  0
 16 17  1  0
 17 18  1  0
 18 19  1  0
 12 20  2  0
 20 21  1  0
 21 22  1  0
 22 23  1  0
 23 24  1  0
 24 25  1  0
 25 26  2  0
 26 27  1  0
 27 28  2  0
 28 29  1  0
 29 30  2  0
 30 31  1  0
 21 32  2  0
  9 33  1  0
  6  1  1  0
 32 10  1  0
 33  4  1  0
 19 14  1  0
 31 22  1  0
 30 25  1  0
  1 34  1  0
  2 35  1  0
  3 36  1  0
  6 37  1  0
  7 38  1  0
  7 39  1  0
  8 40  1  0
  8 41  1  0
 13 42  1  0
 13 43  1  0
 14 44  1  1
 15 45  1  0
 15 46  1  0
 16 47  1  0
 16 48  1  0
 17 49  1  0
 17 50  1  0
 18 51  1  0
 19 52  1  0
 19 53  1  0
 23 54  1  0
 23 55  1  0
 24 56  1  0
 24 57  1  0
 26 58  1  0
 27 59  1  0
 28 60  1  0
 29 61  1  0
 31 62  1  0
 31 63  1  0
 33 64  1  0
 33 65  1  0
M  END
>  <smiles>  (96) 
c1ccc2c(c1)CCN(c1nc(CC3CCCNC3)nc(N3CCc4ccccc4C3)n1)C2

>  <score_type>  (96) 
oracle

>  <origin>  (96) 
autodockgpu

>  <m_score__min__energy>  (96) 
-10.710000000000001

>  <m_primary>  (96) 
energy

>  <rmsd>  (96) 
10.51374897676253

>  <m_score__min__rmsd>  (96) 
10.51374897676253

>  <meeko>  (96) 
{"free_energy": -9.42, "intermolecular_energy": -10.61, "internal_energy": -0.94, "cluster_size": 49, "cluster_id": 1, "rank_in_cluster": 46}

>  <energy>  (96) 
-9.42

>  <cluster_rmsd>  (96) 
1.14

>  <cluster>  (96) 
1

$$$$

     RDKit          3D

 65 70  0  0  0  0  0  0  0  0999 V2000
  139.8720   67.9910  227.1670 C   0  0  0  0  0  0  0  0  0  0  0  0
  140.5720   69.0840  227.6730 C   0  0  0  0  0  0  0  0  0  0  0  0
  140.8040   70.1770  226.8660 C   0  0  0  0  0  0  0  0  0  0  0  0
  140.3530   70.2220  225.5490 C   0  0  0  0  0  0  0  0  0  0  0  0
  139.6610   69.1300  225.0690 C   0  0  0  0  0  0  0  0  0  0  0  0
  139.4170   68.0230  225.8600 C   0  0  0  0  0  0  0  0  0  0  0  0
  139.1600   69.1340  223.6700 C   0  0  0  0  0  0  0  0  0  0  0  0
  138.7520   70.5570  223.3480 C   0  0  0  0  0  0  0  0  0  0  0  0
  139.8510   71.4780  223.5500 N   0  0  0  0  0  0  0  0  0  0  0  0
  140.1340   72.4340  222.5340 C   0  0  0  0  0  0  0  0  0  0  0  0
  140.6140   72.0180  221.3530 N   0  0  0  0  0  0  0  0  0  0  0  0
  140.9020   72.8920  220.3470 C   0  0  0  0  0  0  0  0  0  0  0  0
  141.4250   72.3440  219.0840 C   0  0  0  0  0  0  0  0  0  0  0  0
  142.4170   73.2210  218.3950 C   0  0  1  0  0  0  0  0  0  0  0  0
  141.7980   74.5060  217.9630 C   0  0  0  0  0  0  0  0  0  0  0  0
  142.7580   75.6590  217.8330 C   0  0  0  0  0  0  0  0  0  0  0  0
  143.6390   75.6920  219.0420 C   0  0  0  0  0  0  0  0  0  0  0  0
  144.4480   74.4730  218.9900 N   0  0  0  0  0  0  0  0  0  0  0  0
  143.5650   73.4060  219.3840 C   0  0  0  0  0  0  0  0  0  0  0  0
  140.6880   74.1990  220.5770 N   0  0  0  0  0  0  0  0  0  0  0  0
  140.2070   74.6600  221.7490 C   0  0  0  0  0  0  0  0  0  0  0  0
  139.9760   76.0410  222.0010 N   0  0  0  0  0  0  0  0  0  0  0  0
  138.7460   76.6690  221.5560 C   0  0  0  0  0  0  0  0  0  0  0  0
  138.5920   77.9870  222.2830 C   0  0  0  0  0  0  0  0  0  0  0  0
  139.7910   78.8110  221.9960 C   0  0  0  0  0  0  0  0  0  0  0  0
  139.7250   80.1100  221.5360 C   0  0  0  0  0  0  0  0  0  0  0  0
  140.8880   80.8080  221.2940 C   0  0  0  0  0  0  0  0  0  0  0  0
  142.1090   80.2160  221.5090 C   0  0  0  0  0  0  0  0  0  0  0  0
  142.1750   78.9110  221.9710 C   0  0  0  0  0  0  0  0  0  0  0  0
  141.0220   78.2240  222.2090 C   0  0  0  0  0  0  0  0  0  0  0  0
  140.9930   76.8090  222.7100 C   0  0  0  0  0  0  0  0  0  0  0  0
  139.9400   73.7490  222.7050 N   0  0  0  0  0  0  0  0  0  0  0  0
  140.6440   71.4330  224.7580 C   0  0  0  0  0  0  0  0  0  0  0  0
  139.6827   67.1113  227.7997 H   0  0  0  0  0  0  0  0  0  0  0  0
  140.9374   69.0748  228.7105 H   0  0  0  0  0  0  0  0  0  0  0  0
  141.3593   71.0353  227.2723 H   0  0  0  0  0  0  0  0  0  0  0  0
  138.8609   67.1668  225.4506 H   0  0  0  0  0  0  0  0  0  0  0  0
  139.9540   68.8045  222.9837 H   0  0  0  0  0  0  0  0  0  0  0  0
  138.3084   68.4470  223.5567 H   0  0  0  0  0  0  0  0  0  0  0  0
  138.4299   70.6084  222.2975 H   0  0  0  0  0  0  0  0  0  0  0  0
  137.9307   70.8435  224.0214 H   0  0  0  0  0  0  0  0  0  0  0  0
  141.9099   71.3809  219.3016 H   0  0  0  0  0  0  0  0  0  0  0  0
  140.5657   72.2477  218.4040 H   0  0  0  0  0  0  0  0  0  0  0  0
  142.7898   72.7709  217.4631 H   0  0  0  0  0  0  0  0  0  0  0  0
  141.3230   74.3446  216.9841 H   0  0  0  0  0  0  0  0  0  0  0  0
  141.0843   74.7857  218.7519 H   0  0  0  0  0  0  0  0  0  0  0  0
  143.3733   75.5277  216.9307 H   0  0  0  0  0  0  0  0  0  0  0  0
  142.1993   76.6031  217.7520 H   0  0  0  0  0  0  0  0  0  0  0  0
  144.2865   76.5809  219.0181 H   0  0  0  0  0  0  0  0  0  0  0  0
  143.0477   75.7419  219.9682 H   0  0  0  0  0  0  0  0  0  0  0  0
  145.1580   74.5660  219.7340 H   0  0  0  0  0  0  0  0  0  0  0  0
  144.1407   72.4703  219.4393 H   0  0  0  0  0  0  0  0  0  0  0  0
  143.1333   73.6651  220.3620 H   0  0  0  0  0  0  0  0  0  0  0  0
  138.7908   76.8462  220.4713 H   0  0  0  0  0  0  0  0  0  0  0  0
  137.8882   76.0154  221.7729 H   0  0  0  0  0  0  0  0  0  0  0  0
  137.6890   78.5056  221.9286 H   0  0  0  0  0  0  0  0  0  0  0  0
  138.4948   77.8174  223.3655 H   0  0  0  0  0  0  0  0  0  0  0  0
  138.7486   80.5862  221.3633 H   0  0  0  0  0  0  0  0  0  0  0  0
  140.8387   81.8438  220.9271 H   0  0  0  0  0  0  0  0  0  0  0  0
  143.0344   80.7779  221.3144 H   0  0  0  0  0  0  0  0  0  0  0  0
  143.1505   78.4332  222.1443 H   0  0  0  0  0  0  0  0  0  0  0  0
  141.9772   76.3459  222.5460 H   0  0  0  0  0  0  0  0  0  0  0  0
  140.7529   76.8147  223.7835 H   0  0  0  0  0  0  0  0  0  0  0  0
  141.7100   71.4354  224.4865 H   0  0  0  0  0  0  0  0  0  0  0  0
  140.3944   72.3132  225.3686 H   0  0  0  0  0  0  0  0  0  0  0  0
  1  2  2  0
  2  3  1  0
  3  4  2  0
  4  5  1  0
  5  6  2  0
  5  7  1  0
  7  8  1  0
  8  9  1  0
  9 10  1  0
 10 11  2  0
 11 12  1  0
 12 13  1  0
 13 14  1  0
 14 15  1  0
 15 16  1  0
 16 17  1  0
 17 18  1  0
 18 19  1  0
 12 20  2  0
 20 21  1  0
 21 22  1  0
 22 23  1  0
 23 24  1  0
 24 25  1  0
 25 26  2  0
 26 27  1  0
 27 28  2  0
 28 29  1  0
 29 30  2  0
 30 31  1  0
 21 32  2  0
  9 33  1  0
  6  1  1  0
 32 10  1  0
 33  4  1  0
 19 14  1  0
 31 22  1  0
 30 25  1  0
  1 34  1  0
  2 35  1  0
  3 36  1  0
  6 37  1  0
  7 38  1  0
  7 39  1  0
  8 40  1  0
  8 41  1  0
 13 42  1  0
 13 43  1  0
 14 44  1  6
 15 45  1  0
 15 46  1  0
 16 47  1  0
 16 48  1  0
 17 49  1  0
 17 50  1  0
 18 51  1  0
 19 52  1  0
 19 53  1  0
 23 54  1  0
 23 55  1  0
 24 56  1  0
 24 57  1  0
 26 58  1  0
 27 59  1  0
 28 60  1  0
 29 61  1  0
 31 62  1  0
 31 63  1  0
 33 64  1  0
 33 65  1  0
M  END
>  <smiles>  (97) 
c1ccc2c(c1)CCN(c1nc(CC3CCCNC3)nc(N3CCc4ccccc4C3)n1)C2

>  <score_type>  (97) 
oracle

>  <origin>  (97) 
autodockgpu

>  <m_score__min__energy>  (97) 
-10.710000000000001

>  <m_primary>  (97) 
energy

>  <rmsd>  (97) 
11.132991283911736

>  <m_score__min__rmsd>  (97) 
11.132991283911736

>  <meeko>  (97) 
{"free_energy": -8.56, "intermolecular_energy": -9.75, "internal_energy": -1.32, "cluster_size": 49, "cluster_id": 1, "rank_in_cluster": 49}

>  <energy>  (97) 
-9.36

>  <cluster_rmsd>  (97) 
1.29

>  <cluster>  (97) 
1

$$$$

     RDKit          3D

 65 70  0  0  0  0  0  0  0  0999 V2000
  139.2610   68.6250  227.1240 C   0  0  0  0  0  0  0  0  0  0  0  0
  139.9940   69.6770  227.6670 C   0  0  0  0  0  0  0  0  0  0  0  0
  140.4460   70.6870  226.8460 C   0  0  0  0  0  0  0  0  0  0  0  0
  140.1890   70.6860  225.4770 C   0  0  0  0  0  0  0  0  0  0  0  0
  139.4620   69.6350  224.9600 C   0  0  0  0  0  0  0  0  0  0  0  0
  138.9980   68.6110  225.7650 C   0  0  0  0  0  0  0  0  0  0  0  0
  139.1630   69.5920  223.5050 C   0  0  0  0  0  0  0  0  0  0  0  0
  138.9530   71.0220  223.0530 C   0  0  0  0  0  0  0  0  0  0  0  0
  140.1010   71.8470  223.3630 N   0  0  0  0  0  0  0  0  0  0  0  0
  140.6200   72.7010  222.3490 C   0  0  0  0  0  0  0  0  0  0  0  0
  141.3590   72.1780  221.3600 N   0  0  0  0  0  0  0  0  0  0  0  0
  141.8790   72.9520  220.3660 C   0  0  0  0  0  0  0  0  0  0  0  0
  142.6780   72.2900  219.3210 C   0  0  0  0  0  0  0  0  0  0  0  0
  144.0980   72.7440  219.2490 C   0  0  1  0  0  0  0  0  0  0  0  0
  144.3020   74.0110  220.0050 C   0  0  0  0  0  0  0  0  0  0  0  0
  145.7040   74.2290  220.5110 C   0  0  0  0  0  0  0  0  0  0  0  0
  146.1890   72.9630  221.1450 C   0  0  0  0  0  0  0  0  0  0  0  0
  146.2860   71.9780  220.0680 N   0  0  0  0  0  0  0  0  0  0  0  0
  144.9320   71.5810  219.7820 C   0  0  0  0  0  0  0  0  0  0  0  0
  141.6260   74.2720  220.4060 N   0  0  0  0  0  0  0  0  0  0  0  0
  140.8890   74.8390  221.3820 C   0  0  0  0  0  0  0  0  0  0  0  0
  140.6160   76.2340  221.4330 N   0  0  0  0  0  0  0  0  0  0  0  0
  140.4480   76.9910  220.2060 C   0  0  0  0  0  0  0  0  0  0  0  0
  139.7910   78.3110  220.5450 C   0  0  0  0  0  0  0  0  0  0  0  0
  140.6480   79.0080  221.5330 C   0  0  0  0  0  0  0  0  0  0  0  0
  141.0760   80.3110  221.3800 C   0  0  0  0  0  0  0  0  0  0  0  0
  141.8710   80.8870  222.3470 C   0  0  0  0  0  0  0  0  0  0  0  0
  142.2370   80.1700  223.4600 C   0  0  0  0  0  0  0  0  0  0  0  0
  141.8080   78.8610  223.6140 C   0  0  0  0  0  0  0  0  0  0  0  0
  141.0220   78.2950  222.6550 C   0  0  0  0  0  0  0  0  0  0  0  0
  140.5080   76.8860  222.7330 C   0  0  0  0  0  0  0  0  0  0  0  0
  140.4010   74.0240  222.3370 N   0  0  0  0  0  0  0  0  0  0  0  0
  140.7110   71.8080  224.6740 C   0  0  0  0  0  0  0  0  0  0  0  0
  138.8944   67.8127  227.7688 H   0  0  0  0  0  0  0  0  0  0  0  0
  140.2109   69.7016  228.7451 H   0  0  0  0  0  0  0  0  0  0  0  0
  141.0242   71.5147  227.2825 H   0  0  0  0  0  0  0  0  0  0  0  0
  138.4197   67.7850  225.3254 H   0  0  0  0  0  0  0  0  0  0  0  0
  140.0062   69.1434  222.9593 H   0  0  0  0  0  0  0  0  0  0  0  0
  138.2692   68.9825  223.3061 H   0  0  0  0  0  0  0  0  0  0  0  0
  138.7873   71.0331  221.9656 H   0  0  0  0  0  0  0  0  0  0  0  0
  138.0802   71.4289  223.5846 H   0  0  0  0  0  0  0  0  0  0  0  0
  142.6726   71.2078  219.5178 H   0  0  0  0  0  0  0  0  0  0  0  0
  142.2154   72.5536  218.3585 H   0  0  0  0  0  0  0  0  0  0  0  0
  144.4029   72.9884  218.2207 H   0  0  0  0  0  0  0  0  0  0  0  0
  144.0437   74.8499  219.3420 H   0  0  0  0  0  0  0  0  0  0  0  0
  143.6593   73.9458  220.8954 H   0  0  0  0  0  0  0  0  0  0  0  0
  146.3624   74.4983  219.6720 H   0  0  0  0  0  0  0  0  0  0  0  0
  145.7129   75.0445  221.2492 H   0  0  0  0  0  0  0  0  0  0  0  0
  147.1747   73.1212  221.6069 H   0  0  0  0  0  0  0  0  0  0  0  0
  145.5054   72.6243  221.9375 H   0  0  0  0  0  0  0  0  0  0  0  0
  146.7620   71.1540  220.4710 H   0  0  0  0  0  0  0  0  0  0  0  0
  144.9480   70.7800  219.0282 H   0  0  0  0  0  0  0  0  0  0  0  0
  144.4732   71.2341  220.7196 H   0  0  0  0  0  0  0  0  0  0  0  0
  141.4297   77.1725  219.7442 H   0  0  0  0  0  0  0  0  0  0  0  0
  139.8221   76.4284  219.4977 H   0  0  0  0  0  0  0  0  0  0  0  0
  139.6939   78.9239  219.6367 H   0  0  0  0  0  0  0  0  0  0  0  0
  138.7868   78.1426  220.9612 H   0  0  0  0  0  0  0  0  0  0  0  0
  140.7838   80.8874  220.4899 H   0  0  0  0  0  0  0  0  0  0  0  0
  142.2139   81.9253  222.2271 H   0  0  0  0  0  0  0  0  0  0  0  0
  142.8709   80.6349  224.2295 H   0  0  0  0  0  0  0  0  0  0  0  0
  142.0997   78.2833  224.5035 H   0  0  0  0  0  0  0  0  0  0  0  0
  141.0999   76.3243  223.4707 H   0  0  0  0  0  0  0  0  0  0  0  0
  139.4505   76.9076  223.0352 H   0  0  0  0  0  0  0  0  0  0  0  0
  141.7987   71.6905  224.5594 H   0  0  0  0  0  0  0  0  0  0  0  0
  140.4727   72.7471  225.1949 H   0  0  0  0  0  0  0  0  0  0  0  0
  1  2  2  0
  2  3  1  0
  3  4  2  0
  4  5  1  0
  5  6  2  0
  5  7  1  0
  7  8  1  0
  8  9  1  0
  9 10  1  0
 10 11  2  0
 11 12  1  0
 12 13  1  0
 13 14  1  0
 14 15  1  0
 15 16  1  0
 16 17  1  0
 17 18  1  0
 18 19  1  0
 12 20  2  0
 20 21  1  0
 21 22  1  0
 22 23  1  0
 23 24  1  0
 24 25  1  0
 25 26  2  0
 26 27  1  0
 27 28  2  0
 28 29  1  0
 29 30  2  0
 30 31  1  0
 21 32  2  0
  9 33  1  0
  6  1  1  0
 32 10  1  0
 33  4  1  0
 19 14  1  0
 31 22  1  0
 30 25  1  0
  1 34  1  0
  2 35  1  0
  3 36  1  0
  6 37  1  0
  7 38  1  0
  7 39  1  0
  8 40  1  0
  8 41  1  0
 13 42  1  0
 13 43  1  0
 14 44  1  6
 15 45  1  0
 15 46  1  0
 16 47  1  0
 16 48  1  0
 17 49  1  0
 17 50  1  0
 18 51  1  0
 19 52  1  0
 19 53  1  0
 23 54  1  0
 23 55  1  0
 24 56  1  0
 24 57  1  0
 26 58  1  0
 27 59  1  0
 28 60  1  0
 29 61  1  0
 31 62  1  0
 31 63  1  0
 33 64  1  0
 33 65  1  0
M  END
>  <smiles>  (98) 
c1ccc2c(c1)CCN(c1nc(CC3CCCNC3)nc(N3CCc4ccccc4C3)n1)C2

>  <score_type>  (98) 
oracle

>  <origin>  (98) 
autodockgpu

>  <m_score__min__energy>  (98) 
-10.710000000000001

>  <m_primary>  (98) 
energy

>  <rmsd>  (98) 
10.71099671113845

>  <m_score__min__rmsd>  (98) 
10.71099671113845

>  <meeko>  (98) 
{"free_energy": -10.7, "intermolecular_energy": -11.89, "internal_energy": -0.98, "cluster_size": 49, "cluster_id": 1, "rank_in_cluster": 5}

>  <energy>  (98) 
-8.97

>  <cluster_rmsd>  (98) 
1.64

>  <cluster>  (98) 
1

$$$$

     RDKit          3D

 65 70  0  0  0  0  0  0  0  0999 V2000
  139.2400   68.1200  225.7670 C   0  0  0  0  0  0  0  0  0  0  0  0
  139.8550   69.0880  226.5570 C   0  0  0  0  0  0  0  0  0  0  0  0
  140.2550   70.2780  225.9880 C   0  0  0  0  0  0  0  0  0  0  0  0
  140.0590   70.5420  224.6340 C   0  0  0  0  0  0  0  0  0  0  0  0
  139.4490   69.5700  223.8710 C   0  0  0  0  0  0  0  0  0  0  0  0
  139.0390   68.3690  224.4200 C   0  0  0  0  0  0  0  0  0  0  0  0
  139.2190   69.8080  222.4220 C   0  0  0  0  0  0  0  0  0  0  0  0
  138.9070   71.2810  222.2580 C   0  0  0  0  0  0  0  0  0  0  0  0
  139.9660   72.1070  222.7990 N   0  0  0  0  0  0  0  0  0  0  0  0
  140.4540   73.1890  222.0130 C   0  0  0  0  0  0  0  0  0  0  0  0
  141.1730   72.9330  220.9110 N   0  0  0  0  0  0  0  0  0  0  0  0
  141.6630   73.9330  220.1250 C   0  0  0  0  0  0  0  0  0  0  0  0
  142.4420   73.5570  218.9330 C   0  0  0  0  0  0  0  0  0  0  0  0
  143.9090   73.8080  219.0490 C   0  0  1  0  0  0  0  0  0  0  0  0
  144.2610   74.3540  220.3900 C   0  0  0  0  0  0  0  0  0  0  0  0
  145.6730   74.0770  220.8360 C   0  0  0  0  0  0  0  0  0  0  0  0
  145.9870   72.6380  220.5740 C   0  0  0  0  0  0  0  0  0  0  0  0
  145.9730   72.4740  219.1200 N   0  0  0  0  0  0  0  0  0  0  0  0
  144.5830   72.4730  218.7440 C   0  0  0  0  0  0  0  0  0  0  0  0
  141.4010   75.2000  220.4920 N   0  0  0  0  0  0  0  0  0  0  0  0
  140.6830   75.5020  221.5930 C   0  0  0  0  0  0  0  0  0  0  0  0
  140.4000   76.8390  221.9890 N   0  0  0  0  0  0  0  0  0  0  0  0
  139.3670   77.5990  221.3090 C   0  0  0  0  0  0  0  0  0  0  0  0
  139.0140   78.7950  222.1640 C   0  0  0  0  0  0  0  0  0  0  0  0
  140.2510   79.5820  222.3840 C   0  0  0  0  0  0  0  0  0  0  0  0
  140.3390   80.9380  222.1450 C   0  0  0  0  0  0  0  0  0  0  0  0
  141.5270   81.5970  222.3760 C   0  0  0  0  0  0  0  0  0  0  0  0
  142.6210   80.9080  222.8430 C   0  0  0  0  0  0  0  0  0  0  0  0
  142.5330   79.5460  223.0820 C   0  0  0  0  0  0  0  0  0  0  0  0
  141.3550   78.8990  222.8530 C   0  0  0  0  0  0  0  0  0  0  0  0
  141.1630   77.4280  223.0830 C   0  0  0  0  0  0  0  0  0  0  0  0
  140.2240   74.4720  222.3300 N   0  0  0  0  0  0  0  0  0  0  0  0
  140.5180   71.8420  224.1090 C   0  0  0  0  0  0  0  0  0  0  0  0
  138.9168   67.1661  226.2092 H   0  0  0  0  0  0  0  0  0  0  0  0
  140.0206   68.9040  227.6288 H   0  0  0  0  0  0  0  0  0  0  0  0
  140.7407   71.0376  226.6181 H   0  0  0  0  0  0  0  0  0  0  0  0
  138.5534   67.6118  223.7869 H   0  0  0  0  0  0  0  0  0  0  0  0
  140.1208   69.5470  221.8487 H   0  0  0  0  0  0  0  0  0  0  0  0
  138.3903   69.1879  222.0495 H   0  0  0  0  0  0  0  0  0  0  0  0
  138.7892   71.5052  221.1875 H   0  0  0  0  0  0  0  0  0  0  0  0
  137.9796   71.5024  222.8066 H   0  0  0  0  0  0  0  0  0  0  0  0
  142.2905   72.4833  218.7479 H   0  0  0  0  0  0  0  0  0  0  0  0
  142.0799   74.1901  218.1095 H   0  0  0  0  0  0  0  0  0  0  0  0
  144.2553   74.5763  218.3420 H   0  0  0  0  0  0  0  0  0  0  0  0
  144.1186   75.4444  220.3633 H   0  0  0  0  0  0  0  0  0  0  0  0
  143.6040   73.8471  221.1121 H   0  0  0  0  0  0  0  0  0  0  0  0
  146.3703   74.7159  220.2743 H   0  0  0  0  0  0  0  0  0  0  0  0
  145.7752   74.2927  221.9098 H   0  0  0  0  0  0  0  0  0  0  0  0
  146.9789   72.3850  220.9765 H   0  0  0  0  0  0  0  0  0  0  0  0
  145.2561   71.9741  221.0588 H   0  0  0  0  0  0  0  0  0  0  0  0
  146.3360   71.5260  218.9320 H   0  0  0  0  0  0  0  0  0  0  0  0
  144.5069   72.2748  217.6647 H   0  0  0  0  0  0  0  0  0  0  0  0
  144.0729   71.6928  219.3279 H   0  0  0  0  0  0  0  0  0  0  0  0
  139.7384   77.9382  220.3308 H   0  0  0  0  0  0  0  0  0  0  0  0
  138.4776   76.9712  221.1513 H   0  0  0  0  0  0  0  0  0  0  0  0
  138.2645   79.4139  221.6490 H   0  0  0  0  0  0  0  0  0  0  0  0
  138.5940   78.4663  223.1261 H   0  0  0  0  0  0  0  0  0  0  0  0
  139.4644   81.4908  221.7716 H   0  0  0  0  0  0  0  0  0  0  0  0
  141.6001   82.6780  222.1861 H   0  0  0  0  0  0  0  0  0  0  0  0
  143.5670   81.4383  223.0271 H   0  0  0  0  0  0  0  0  0  0  0  0
  143.4070   78.9910  223.4537 H   0  0  0  0  0  0  0  0  0  0  0  0
  142.1465   76.9390  223.1437 H   0  0  0  0  0  0  0  0  0  0  0  0
  140.6105   77.2824  224.0230 H   0  0  0  0  0  0  0  0  0  0  0  0
  141.6158   71.8324  224.0395 H   0  0  0  0  0  0  0  0  0  0  0  0
  140.1770   72.6319  224.7944 H   0  0  0  0  0  0  0  0  0  0  0  0
  1  2  2  0
  2  3  1  0
  3  4  2  0
  4  5  1  0
  5  6  2  0
  5  7  1  0
  7  8  1  0
  8  9  1  0
  9 10  1  0
 10 11  2  0
 11 12  1  0
 12 13  1  0
 13 14  1  0
 14 15  1  0
 15 16  1  0
 16 17  1  0
 17 18  1  0
 18 19  1  0
 12 20  2  0
 20 21  1  0
 21 22  1  0
 22 23  1  0
 23 24  1  0
 24 25  1  0
 25 26  2  0
 26 27  1  0
 27 28  2  0
 28 29  1  0
 29 30  2  0
 30 31  1  0
 21 32  2  0
  9 33  1  0
  6  1  1  0
 32 10  1  0
 33  4  1  0
 19 14  1  0
 31 22  1  0
 30 25  1  0
  1 34  1  0
  2 35  1  0
  3 36  1  0
  6 37  1  0
  7 38  1  0
  7 39  1  0
  8 40  1  0
  8 41  1  0
 13 42  1  0
 13 43  1  0
 14 44  1  6
 15 45  1  0
 15 46  1  0
 16 47  1  0
 16 48  1  0
 17 49  1  0
 17 50  1  0
 18 51  1  0
 19 52  1  0
 19 53  1  0
 23 54  1  0
 23 55  1  0
 24 56  1  0
 24 57  1  0
 26 58  1  0
 27 59  1  0
 28 60  1  0
 29 61  1  0
 31 62  1  0
 31 63  1  0
 33 64  1  0
 33 65  1  0
M  END
>  <smiles>  (99) 
c1ccc2c(c1)CCN(c1nc(CC3CCCNC3)nc(N3CCc4ccccc4C3)n1)C2

>  <score_type>  (99) 
oracle

>  <origin>  (99) 
autodockgpu

>  <m_score__min__energy>  (99) 
-10.710000000000001

>  <m_primary>  (99) 
energy

>  <rmsd>  (99) 
10.342795992545906

>  <m_score__min__rmsd>  (99) 
10.342795992545906

>  <meeko>  (99) 
{"free_energy": -10.05, "intermolecular_energy": -11.25, "internal_energy": -1.12, "cluster_size": 49, "cluster_id": 1, "rank_in_cluster": 37}

>  <energy>  (99) 
-8.56

>  <cluster_rmsd>  (99) 
1.48

>  <cluster>  (99) 
1

$$$$

     RDKit          3D

 65 70  0  0  0  0  0  0  0  0999 V2000
  139.2480   68.6440  227.0240 C   0  0  0  0  0  0  0  0  0  0  0  0
  139.9560   69.7050  227.5830 C   0  0  0  0  0  0  0  0  0  0  0  0
  140.4060   70.7250  226.7740 C   0  0  0  0  0  0  0  0  0  0  0  0
  140.1710   70.7260  225.4010 C   0  0  0  0  0  0  0  0  0  0  0  0
  139.4690   69.6660  224.8680 C   0  0  0  0  0  0  0  0  0  0  0  0
  139.0070   68.6320  225.6600 C   0  0  0  0  0  0  0  0  0  0  0  0
  139.1940   69.6250  223.4080 C   0  0  0  0  0  0  0  0  0  0  0  0
  138.9700   71.0540  222.9580 C   0  0  0  0  0  0  0  0  0  0  0  0
  140.1010   71.8950  223.2900 N   0  0  0  0  0  0  0  0  0  0  0  0
  140.6230   72.7610  222.2880 C   0  0  0  0  0  0  0  0  0  0  0  0
  141.3630   72.2490  221.2940 N   0  0  0  0  0  0  0  0  0  0  0  0
  141.8860   73.0350  220.3110 C   0  0  0  0  0  0  0  0  0  0  0  0
  142.6860   72.3860  219.2590 C   0  0  0  0  0  0  0  0  0  0  0  0
  144.1190   72.8050  219.2250 C   0  0  1  0  0  0  0  0  0  0  0  0
  144.3370   74.0540  220.0070 C   0  0  0  0  0  0  0  0  0  0  0  0
  145.7330   74.2280  220.5460 C   0  0  0  0  0  0  0  0  0  0  0  0
  146.1730   72.9400  221.1680 C   0  0  0  0  0  0  0  0  0  0  0  0
  146.2690   71.9710  220.0760 N   0  0  0  0  0  0  0  0  0  0  0  0
  144.9120   71.6130  219.7550 C   0  0  0  0  0  0  0  0  0  0  0  0
  141.6350   74.3550  220.3680 N   0  0  0  0  0  0  0  0  0  0  0  0
  140.8970   74.9110  221.3500 C   0  0  0  0  0  0  0  0  0  0  0  0
  140.6260   76.3060  221.4180 N   0  0  0  0  0  0  0  0  0  0  0  0
  140.4850   77.0830  220.2000 C   0  0  0  0  0  0  0  0  0  0  0  0
  139.8250   78.3990  220.5470 C   0  0  0  0  0  0  0  0  0  0  0  0
  140.6630   79.0780  221.5650 C   0  0  0  0  0  0  0  0  0  0  0  0
  141.0960   80.3820  221.4410 C   0  0  0  0  0  0  0  0  0  0  0  0
  141.8730   80.9400  222.4340 C   0  0  0  0  0  0  0  0  0  0  0  0
  142.2150   80.2030  223.5420 C   0  0  0  0  0  0  0  0  0  0  0  0
  141.7800   78.8930  223.6650 C   0  0  0  0  0  0  0  0  0  0  0  0
  141.0120   78.3450  222.6820 C   0  0  0  0  0  0  0  0  0  0  0  0
  140.4940   76.9370  222.7260 C   0  0  0  0  0  0  0  0  0  0  0  0
  140.4060   74.0840  222.2930 N   0  0  0  0  0  0  0  0  0  0  0  0
  140.6890   71.8590  224.6110 C   0  0  0  0  0  0  0  0  0  0  0  0
  138.8837   67.8234  227.6595 H   0  0  0  0  0  0  0  0  0  0  0  0
  140.1548   69.7284  228.6646 H   0  0  0  0  0  0  0  0  0  0  0  0
  140.9647   71.5593  227.2232 H   0  0  0  0  0  0  0  0  0  0  0  0
  138.4481   67.7997  225.2074 H   0  0  0  0  0  0  0  0  0  0  0  0
  140.0524   69.1912  222.8742 H   0  0  0  0  0  0  0  0  0  0  0  0
  138.3125   69.0033  223.1924 H   0  0  0  0  0  0  0  0  0  0  0  0
  138.8218   71.0671  221.8681 H   0  0  0  0  0  0  0  0  0  0  0  0
  138.0827   71.4457  223.4769 H   0  0  0  0  0  0  0  0  0  0  0  0
  142.6495   71.2986  219.4209 H   0  0  0  0  0  0  0  0  0  0  0  0
  142.2472   72.6921  218.2979 H   0  0  0  0  0  0  0  0  0  0  0  0
  144.4529   73.0583  218.2080 H   0  0  0  0  0  0  0  0  0  0  0  0
  144.1137   74.9101  219.3533 H   0  0  0  0  0  0  0  0  0  0  0  0
  143.6735   73.9905  220.8821 H   0  0  0  0  0  0  0  0  0  0  0  0
  146.4156   74.4947  219.7257 H   0  0  0  0  0  0  0  0  0  0  0  0
  145.7462   75.0304  221.2983 H   0  0  0  0  0  0  0  0  0  0  0  0
  147.1521   73.0658  221.6533 H   0  0  0  0  0  0  0  0  0  0  0  0
  145.4645   72.6051  221.9399 H   0  0  0  0  0  0  0  0  0  0  0  0
  146.7160   71.1290  220.4750 H   0  0  0  0  0  0  0  0  0  0  0  0
  144.9241   70.8246  218.9880 H   0  0  0  0  0  0  0  0  0  0  0  0
  144.4249   71.2621  220.6767 H   0  0  0  0  0  0  0  0  0  0  0  0
  141.4764   77.2689  219.7611 H   0  0  0  0  0  0  0  0  0  0  0  0
  139.8722   76.5337  219.4701 H   0  0  0  0  0  0  0  0  0  0  0  0
  139.7488   79.0270  219.6471 H   0  0  0  0  0  0  0  0  0  0  0  0
  138.8120   78.2265  220.9394 H   0  0  0  0  0  0  0  0  0  0  0  0
  140.8228   80.9734  220.5546 H   0  0  0  0  0  0  0  0  0  0  0  0
  142.2205   81.9793  222.3388 H   0  0  0  0  0  0  0  0  0  0  0  0
  142.8344   80.6530  224.3318 H   0  0  0  0  0  0  0  0  0  0  0  0
  142.0529   78.2997  224.5501 H   0  0  0  0  0  0  0  0  0  0  0  0
  141.0701   76.3618  223.4658 H   0  0  0  0  0  0  0  0  0  0  0  0
  139.4307   76.9564  223.0073 H   0  0  0  0  0  0  0  0  0  0  0  0
  141.7801   71.7585  224.5143 H   0  0  0  0  0  0  0  0  0  0  0  0
  140.4271   72.7919  225.1316 H   0  0  0  0  0  0  0  0  0  0  0  0
  1  2  2  0
  2  3  1  0
  3  4  2  0
  4  5  1  0
  5  6  2  0
  5  7  1  0
  7  8  1  0
  8  9  1  0
  9 10  1  0
 10 11  2  0
 11 12  1  0
 12 13  1  0
 13 14  1  0
 14 15  1  0
 15 16  1  0
 16 17  1  0
 17 18  1  0
 18 19  1  0
 12 20  2  0
 20 21  1  0
 21 22  1  0
 22 23  1  0
 23 24  1  0
 24 25  1  0
 25 26  2  0
 26 27  1  0
 27 28  2  0
 28 29  1  0
 29 30  2  0
 30 31  1  0
 21 32  2  0
  9 33  1  0
  6  1  1  0
 32 10  1  0
 33  4  1  0
 19 14  1  0
 31 22  1  0
 30 25  1  0
  1 34  1  0
  2 35  1  0
  3 36  1  0
  6 37  1  0
  7 38  1  0
  7 39  1  0
  8 40  1  0
  8 41  1  0
 13 42  1  0
 13 43  1  0
 14 44  1  6
 15 45  1  0
 15 46  1  0
 16 47  1  0
 16 48  1  0
 17 49  1  0
 17 50  1  0
 18 51  1  0
 19 52  1  0
 19 53  1  0
 23 54  1  0
 23 55  1  0
 24 56  1  0
 24 57  1  0
 26 58  1  0
 27 59  1  0
 28 60  1  0
 29 61  1  0
 31 62  1  0
 31 63  1  0
 33 64  1  0
 33 65  1  0
M  END
>  <smiles>  (100) 
c1ccc2c(c1)CCN(c1nc(CC3CCCNC3)nc(N3CCc4ccccc4C3)n1)C2

>  <score_type>  (100) 
oracle

>  <origin>  (100) 
autodockgpu

>  <m_score__min__energy>  (100) 
-10.710000000000001

>  <m_primary>  (100) 
energy

>  <rmsd>  (100) 
10.636414804077225

>  <m_score__min__rmsd>  (100) 
10.636414804077225

>  <meeko>  (100) 
{"free_energy": -10.68, "intermolecular_energy": -11.88, "internal_energy": -1.0, "cluster_size": 49, "cluster_id": 1, "rank_in_cluster": 8}

>  <energy>  (100) 
-8.78

>  <cluster_rmsd>  (100) 
0.0

>  <cluster>  (100) 
2

$$$$
