
     RDKit          3D

 58 61  0  0  0  0  0  0  0  0999 V2000
  140.2950   82.9030  220.6900 N   0  0  0  0  0  0  0  0  0  0  0  0
  140.7090   82.0070  221.3130 C   0  0  0  0  0  0  0  0  0  0  0  0
  141.2330   80.9160  222.0950 C   0  0  0  0  0  0  0  0  0  0  0  0
  142.1160   81.1990  223.1150 C   0  0  0  0  0  0  0  0  0  0  0  0
  142.6110   80.1500  223.8530 C   0  0  0  0  0  0  0  0  0  0  0  0
  142.2010   78.8830  223.5390 C   0  0  0  0  0  0  0  0  0  0  0  0
  141.3060   78.6060  222.5060 C   0  0  0  0  0  0  0  0  0  0  0  0
  140.8130   79.6510  221.7680 C   0  0  0  0  0  0  0  0  0  0  0  0
  139.8010   79.4420  220.6510 C   0  0  2  0  0  0  0  0  0  0  0  0
  138.9730   78.3020  221.0750 C   0  0  0  0  0  0  0  0  0  0  0  0
  139.3120   76.9890  220.5950 N   0  0  0  0  0  0  0  0  0  0  0  0
  139.6530   75.9350  221.4820 C   0  0  0  0  0  0  0  0  0  0  0  0
  139.6330   76.2200  222.7160 O   0  0  0  0  0  0  0  0  0  0  0  0
  140.0160   74.5740  221.1040 C   0  0  0  0  0  0  0  0  0  0  0  0
  139.9160   73.6820  222.2340 N   0  0  0  0  0  0  0  0  0  0  0  0
  140.2870   72.3020  222.1690 C   0  0  0  0  0  0  0  0  0  0  0  0
  140.7410   71.7800  221.0940 O   0  0  0  0  0  0  0  0  0  0  0  0
  140.1450   71.4500  223.3670 C   0  0  0  0  0  0  0  0  0  0  0  0
  139.5510   70.2160  223.2590 C   0  0  0  0  0  0  0  0  0  0  0  0
  139.4120   69.4040  224.3840 C   0  0  0  0  0  0  0  0  0  0  0  0
  139.8860   69.8790  225.5960 C   0  0  0  0  0  0  0  0  0  0  0  0
  139.7750   69.1130  226.7540 C   0  0  0  0  0  0  0  0  0  0  0  0
  140.2560   69.6070  227.9570 C   0  0  0  0  0  0  0  0  0  0  0  0
  140.1340   68.8380  229.0640 F   0  0  0  0  0  0  0  0  0  0  0  0
  140.8550   70.8590  228.0480 C   0  0  0  0  0  0  0  0  0  0  0  0
  140.9630   71.6140  226.8980 C   0  0  0  0  0  0  0  0  0  0  0  0
  140.4860   71.1310  225.6950 C   0  0  0  0  0  0  0  0  0  0  0  0
  140.5900   71.8650  224.5710 N   0  0  0  0  0  0  0  0  0  0  0  0
  140.5140   79.4550  219.3790 C   0  0  0  0  0  0  0  0  0  0  0  0
  140.0670   78.4950  218.3000 C   0  0  0  0  0  0  0  0  0  0  0  0
  141.0500   77.3500  218.3280 C   0  0  0  0  0  0  0  0  0  0  0  0
  142.2170   77.7810  219.2050 C   0  0  0  0  0  0  0  0  0  0  0  0
  142.0100   79.2860  219.3880 C   0  0  0  0  0  0  0  0  0  0  0  0
  142.4160   82.2347  223.3323 H   0  0  0  0  0  0  0  0  0  0  0  0
  143.3195   80.3251  224.6760 H   0  0  0  0  0  0  0  0  0  0  0  0
  142.5960   78.0431  224.1293 H   0  0  0  0  0  0  0  0  0  0  0  0
  141.0022   77.5715  222.2880 H   0  0  0  0  0  0  0  0  0  0  0  0
  139.0584   80.2314  220.4627 H   0  0  0  0  0  0  0  0  0  0  0  0
  139.0100   78.2652  222.1738 H   0  0  0  0  0  0  0  0  0  0  0  0
  137.9883   78.5049  220.6288 H   0  0  0  0  0  0  0  0  0  0  0  0
  139.2960   76.8190  219.5850 H   0  0  0  0  0  0  0  0  0  0  0  0
  139.3377   74.2275  220.3104 H   0  0  0  0  0  0  0  0  0  0  0  0
  141.0565   74.5739  220.7470 H   0  0  0  0  0  0  0  0  0  0  0  0
  139.5620   74.0050  223.1690 H   0  0  0  0  0  0  0  0  0  0  0  0
  139.1840   69.8675  222.2823 H   0  0  0  0  0  0  0  0  0  0  0  0
  138.9390   68.4136  224.3112 H   0  0  0  0  0  0  0  0  0  0  0  0
  139.3068   68.1184  226.7143 H   0  0  0  0  0  0  0  0  0  0  0  0
  141.2321   71.2368  229.0098 H   0  0  0  0  0  0  0  0  0  0  0  0
  141.4325   72.6079  226.9396 H   0  0  0  0  0  0  0  0  0  0  0  0
  140.2271   80.4927  219.1532 H   0  0  0  0  0  0  0  0  0  0  0  0
  139.0503   78.1310  218.5096 H   0  0  0  0  0  0  0  0  0  0  0  0
  140.0427   78.9809  217.3134 H   0  0  0  0  0  0  0  0  0  0  0  0
  140.5724   76.4533  218.7498 H   0  0  0  0  0  0  0  0  0  0  0  0
  141.3940   77.1054  217.3122 H   0  0  0  0  0  0  0  0  0  0  0  0
  142.1893   77.2622  220.1746 H   0  0  0  0  0  0  0  0  0  0  0  0
  143.1927   77.5402  218.7579 H   0  0  0  0  0  0  0  0  0  0  0  0
  142.4355   79.6252  220.3440 H   0  0  0  0  0  0  0  0  0  0  0  0
  142.5064   79.8785  218.6054 H   0  0  0  0  0  0  0  0  0  0  0  0
  1  2  3  0
  2  3  1  0
  3  4  2  0
  4  5  1  0
  5  6  2  0
  6  7  1  0
  7  8  2  0
  8  9  1  0
  9 10  1  0
 10 11  1  0
 11 12  1  0
 12 13  2  0
 12 14  1  0
 14 15  1  0
 15 16  1  0
 16 17  2  0
 16 18  1  0
 18 19  2  0
 19 20  1  0
 20 21  2  0
 21 22  1  0
 22 23  2  0
 23 24  1  0
 23 25  1  0
 25 26  2  0
 26 27  1  0
 27 28  2  0
  9 29  1  0
 29 30  1  0
 30 31  1  0
 31 32  1  0
 32 33  1  0
  8  3  1  0
 28 18  1  0
 33 29  1  0
 27 21  1  0
  4 34  1  0
  5 35  1  0
  6 36  1  0
  7 37  1  0
  9 38  1  6
 10 39  1  0
 10 40  1  0
 11 41  1  0
 14 42  1  0
 14 43  1  0
 15 44  1  0
 19 45  1  0
 20 46  1  0
 22 47  1  0
 25 48  1  0
 26 49  1  0
 29 50  1  0
 30 51  1  0
 30 52  1  0
 31 53  1  0
 31 54  1  0
 32 55  1  0
 32 56  1  0
 33 57  1  0
 33 58  1  0
M  END
>  <smiles>  (1) 
N#Cc1ccccc1[C@H](CNC(=O)CNC(=O)c1ccc2cc(F)ccc2n1)C1CCCC1

>  <score_type>  (1) 
oracle

>  <origin>  (1) 
autodockgpu

>  <m_score__min__energy>  (1) 
-9.6899999999999995

>  <m_primary>  (1) 
energy

>  <rmsd>  (1) 
2.632743526798355

>  <m_score__min__rmsd>  (1) 
2.632743526798355

>  <meeko>  (1) 
{"free_energy": -8.53, "intermolecular_energy": -10.92, "internal_energy": -2.37, "cluster_size": 14, "cluster_id": 2, "rank_in_cluster": 11}

>  <energy>  (1) 
-9.69

>  <cluster_rmsd>  (1) 
0.0

>  <cluster>  (1) 
1

$$$$

     RDKit          3D

 58 61  0  0  0  0  0  0  0  0999 V2000
  139.5480   67.3240  225.2890 N   0  0  0  0  0  0  0  0  0  0  0  0
  139.8740   68.3060  225.8290 C   0  0  0  0  0  0  0  0  0  0  0  0
  140.2890   69.5240  226.4770 C   0  0  0  0  0  0  0  0  0  0  0  0
  140.7930   69.4520  227.7580 C   0  0  0  0  0  0  0  0  0  0  0  0
  141.1860   70.6200  228.3670 C   0  0  0  0  0  0  0  0  0  0  0  0
  141.0560   71.7910  227.6720 C   0  0  0  0  0  0  0  0  0  0  0  0
  140.5450   71.8560  226.3760 C   0  0  0  0  0  0  0  0  0  0  0  0
  140.1520   70.6910  225.7680 C   0  0  0  0  0  0  0  0  0  0  0  0
  139.6240   70.6660  224.3420 C   0  0  2  0  0  0  0  0  0  0  0  0
  140.4820   71.5910  223.5850 C   0  0  0  0  0  0  0  0  0  0  0  0
  139.8570   72.5620  222.7250 N   0  0  0  0  0  0  0  0  0  0  0  0
  140.0120   72.5170  221.3140 C   0  0  0  0  0  0  0  0  0  0  0  0
  140.7240   71.5730  220.8640 O   0  0  0  0  0  0  0  0  0  0  0  0
  139.4310   73.4490  220.3550 C   0  0  0  0  0  0  0  0  0  0  0  0
  139.2540   74.7530  220.9480 N   0  0  0  0  0  0  0  0  0  0  0  0
  140.2830   75.4150  221.6890 C   0  0  0  0  0  0  0  0  0  0  0  0
  141.4330   74.8830  221.8610 O   0  0  0  0  0  0  0  0  0  0  0  0
  140.0220   76.7450  222.2740 C   0  0  0  0  0  0  0  0  0  0  0  0
  141.0730   77.5220  222.6960 C   0  0  0  0  0  0  0  0  0  0  0  0
  140.8380   78.7800  223.2500 C   0  0  0  0  0  0  0  0  0  0  0  0
  139.5250   79.2110  223.3600 C   0  0  0  0  0  0  0  0  0  0  0  0
  139.2280   80.4580  223.9050 C   0  0  0  0  0  0  0  0  0  0  0  0
  137.9080   80.8690  224.0070 C   0  0  0  0  0  0  0  0  0  0  0  0
  137.6530   82.0870  224.5410 F   0  0  0  0  0  0  0  0  0  0  0  0
  136.8550   80.0690  223.5750 C   0  0  0  0  0  0  0  0  0  0  0  0
  137.1550   78.8350  223.0350 C   0  0  0  0  0  0  0  0  0  0  0  0
  138.4660   78.4150  222.9310 C   0  0  0  0  0  0  0  0  0  0  0  0
  138.7630   77.2120  222.4040 N   0  0  0  0  0  0  0  0  0  0  0  0
  138.1740   70.8120  224.3880 C   0  0  0  0  0  0  0  0  0  0  0  0
  137.3580   69.6600  224.9300 C   0  0  0  0  0  0  0  0  0  0  0  0
  136.7980   68.9430  223.7270 C   0  0  0  0  0  0  0  0  0  0  0  0
  137.0410   69.8360  222.5180 C   0  0  0  0  0  0  0  0  0  0  0  0
  137.4440   71.1820  223.1240 C   0  0  0  0  0  0  0  0  0  0  0  0
  140.8783   68.4867  228.2784 H   0  0  0  0  0  0  0  0  0  0  0  0
  141.5950   70.6132  229.3881 H   0  0  0  0  0  0  0  0  0  0  0  0
  141.3696   72.7263  228.1587 H   0  0  0  0  0  0  0  0  0  0  0  0
  140.4591   72.8200  225.8531 H   0  0  0  0  0  0  0  0  0  0  0  0
  139.7046   69.7295  223.7706 H   0  0  0  0  0  0  0  0  0  0  0  0
  141.0852   72.1472  224.3177 H   0  0  0  0  0  0  0  0  0  0  0  0
  141.0369   70.9386  222.8947 H   0  0  0  0  0  0  0  0  0  0  0  0
  139.2820   73.2940  223.1510 H   0  0  0  0  0  0  0  0  0  0  0  0
  140.1002   73.5360  219.4863 H   0  0  0  0  0  0  0  0  0  0  0  0
  138.4472   73.0670  220.0447 H   0  0  0  0  0  0  0  0  0  0  0  0
  138.3530   75.2850  220.8640 H   0  0  0  0  0  0  0  0  0  0  0  0
  142.1037   77.1507  222.5966 H   0  0  0  0  0  0  0  0  0  0  0  0
  141.6711   79.4126  223.5902 H   0  0  0  0  0  0  0  0  0  0  0  0
  140.0386   81.1148  224.2535 H   0  0  0  0  0  0  0  0  0  0  0  0
  135.8129   80.4104  223.6614 H   0  0  0  0  0  0  0  0  0  0  0  0
  136.3431   78.1808  222.6846 H   0  0  0  0  0  0  0  0  0  0  0  0
  138.2150   71.6571  225.0909 H   0  0  0  0  0  0  0  0  0  0  0  0
  137.9963   68.9821  225.5158 H   0  0  0  0  0  0  0  0  0  0  0  0
  136.5574   70.0127  225.5968 H   0  0  0  0  0  0  0  0  0  0  0  0
  137.3086   67.9781  223.5917 H   0  0  0  0  0  0  0  0  0  0  0  0
  135.7239   68.7436  223.8559 H   0  0  0  0  0  0  0  0  0  0  0  0
  137.8493   69.4325  221.8905 H   0  0  0  0  0  0  0  0  0  0  0  0
  136.1585   69.9136  221.8659 H   0  0  0  0  0  0  0  0  0  0  0  0
  138.1036   71.7363  222.4401 H   0  0  0  0  0  0  0  0  0  0  0  0
  136.5798   71.8361  223.3117 H   0  0  0  0  0  0  0  0  0  0  0  0
  1  2  3  0
  2  3  1  0
  3  4  2  0
  4  5  1  0
  5  6  2  0
  6  7  1  0
  7  8  2  0
  8  9  1  0
  9 10  1  0
 10 11  1  0
 11 12  1  0
 12 13  2  0
 12 14  1  0
 14 15  1  0
 15 16  1  0
 16 17  2  0
 16 18  1  0
 18 19  2  0
 19 20  1  0
 20 21  2  0
 21 22  1  0
 22 23  2  0
 23 24  1  0
 23 25  1  0
 25 26  2  0
 26 27  1  0
 27 28  2  0
  9 29  1  0
 29 30  1  0
 30 31  1  0
 31 32  1  0
 32 33  1  0
  8  3  1  0
 28 18  1  0
 33 29  1  0
 27 21  1  0
  4 34  1  0
  5 35  1  0
  6 36  1  0
  7 37  1  0
  9 38  1  6
 10 39  1  0
 10 40  1  0
 11 41  1  0
 14 42  1  0
 14 43  1  0
 15 44  1  0
 19 45  1  0
 20 46  1  0
 22 47  1  0
 25 48  1  0
 26 49  1  0
 29 50  1  0
 30 51  1  0
 30 52  1  0
 31 53  1  0
 31 54  1  0
 32 55  1  0
 32 56  1  0
 33 57  1  0
 33 58  1  0
M  END
>  <smiles>  (2) 
N#Cc1ccccc1[C@H](CNC(=O)CNC(=O)c1ccc2cc(F)ccc2n1)C1CCCC1

>  <score_type>  (2) 
oracle

>  <origin>  (2) 
autodockgpu

>  <m_score__min__energy>  (2) 
-9.6899999999999995

>  <m_primary>  (2) 
energy

>  <rmsd>  (2) 
8.602809038182992

>  <m_score__min__rmsd>  (2) 
8.602809038182992

>  <meeko>  (2) 
{"free_energy": -9.05, "intermolecular_energy": -11.43, "internal_energy": -2.08, "cluster_size": 10, "cluster_id": 1, "rank_in_cluster": 7}

>  <energy>  (2) 
-9.57

>  <cluster_rmsd>  (2) 
0.18

>  <cluster>  (2) 
1

$$$$

     RDKit          3D

 58 61  0  0  0  0  0  0  0  0999 V2000
  139.2600   67.3680  225.6480 N   0  0  0  0  0  0  0  0  0  0  0  0
  139.6710   68.3850  226.0480 C   0  0  0  0  0  0  0  0  0  0  0  0
  140.1830   69.6290  226.5630 C   0  0  0  0  0  0  0  0  0  0  0  0
  140.6180   69.6750  227.8700 C   0  0  0  0  0  0  0  0  0  0  0  0
  141.1030   70.8680  228.3510 C   0  0  0  0  0  0  0  0  0  0  0  0
  141.1310   71.9460  227.5090 C   0  0  0  0  0  0  0  0  0  0  0  0
  140.6890   71.8910  226.1870 C   0  0  0  0  0  0  0  0  0  0  0  0
  140.2040   70.7020  225.7070 C   0  0  0  0  0  0  0  0  0  0  0  0
  139.7410   70.5440  224.2660 C   0  0  2  0  0  0  0  0  0  0  0  0
  140.7580   71.2230  223.4470 C   0  0  0  0  0  0  0  0  0  0  0  0
  140.3270   71.9590  222.2880 N   0  0  0  0  0  0  0  0  0  0  0  0
  141.1570   72.1010  221.1440 C   0  0  0  0  0  0  0  0  0  0  0  0
  142.2880   71.5370  221.2060 O   0  0  0  0  0  0  0  0  0  0  0  0
  140.8240   72.8260  219.9240 C   0  0  0  0  0  0  0  0  0  0  0  0
  141.1060   74.2350  220.0700 N   0  0  0  0  0  0  0  0  0  0  0  0
  140.6450   75.0070  221.1830 C   0  0  0  0  0  0  0  0  0  0  0  0
  139.9580   74.4810  222.1250 O   0  0  0  0  0  0  0  0  0  0  0  0
  140.9670   76.4460  221.2560 C   0  0  0  0  0  0  0  0  0  0  0  0
  141.2610   77.1380  220.1060 C   0  0  0  0  0  0  0  0  0  0  0  0
  141.5650   78.4970  220.1640 C   0  0  0  0  0  0  0  0  0  0  0  0
  141.5640   79.1160  221.4040 C   0  0  0  0  0  0  0  0  0  0  0  0
  141.8610   80.4720  221.5240 C   0  0  0  0  0  0  0  0  0  0  0  0
  141.8540   81.0700  222.7750 C   0  0  0  0  0  0  0  0  0  0  0  0
  142.1470   82.3900  222.8580 F   0  0  0  0  0  0  0  0  0  0  0  0
  141.5550   80.3550  223.9290 C   0  0  0  0  0  0  0  0  0  0  0  0
  141.2600   79.0130  223.8050 C   0  0  0  0  0  0  0  0  0  0  0  0
  141.2660   78.4060  222.5640 C   0  0  0  0  0  0  0  0  0  0  0  0
  140.9790   77.0960  222.4390 N   0  0  0  0  0  0  0  0  0  0  0  0
  138.3270   70.8920  224.1980 C   0  0  0  0  0  0  0  0  0  0  0  0
  137.3380   70.0030  224.9170 C   0  0  0  0  0  0  0  0  0  0  0  0
  136.7130   69.1310  223.8560 C   0  0  0  0  0  0  0  0  0  0  0  0
  137.1170   69.7060  222.5060 C   0  0  0  0  0  0  0  0  0  0  0  0
  137.6950   71.0820  222.8450 C   0  0  0  0  0  0  0  0  0  0  0  0
  140.5782   68.7817  228.5106 H   0  0  0  0  0  0  0  0  0  0  0  0
  141.4600   70.9538  229.3879 H   0  0  0  0  0  0  0  0  0  0  0  0
  141.5202   72.9007  227.8924 H   0  0  0  0  0  0  0  0  0  0  0  0
  140.7288   72.7824  225.5437 H   0  0  0  0  0  0  0  0  0  0  0  0
  139.7092   69.5330  223.8337 H   0  0  0  0  0  0  0  0  0  0  0  0
  141.2843   71.9310  224.1040 H   0  0  0  0  0  0  0  0  0  0  0  0
  141.3637   70.4024  223.0350 H   0  0  0  0  0  0  0  0  0  0  0  0
  139.3940   72.3810  222.2950 H   0  0  0  0  0  0  0  0  0  0  0  0
  141.4199   72.4236  219.0916 H   0  0  0  0  0  0  0  0  0  0  0  0
  139.7499   72.7010  219.7223 H   0  0  0  0  0  0  0  0  0  0  0  0
  141.6680   74.7670  219.3610 H   0  0  0  0  0  0  0  0  0  0  0  0
  141.2564   76.6180  219.1367 H   0  0  0  0  0  0  0  0  0  0  0  0
  141.7994   79.0629  219.2503 H   0  0  0  0  0  0  0  0  0  0  0  0
  142.1001   81.0660  220.6296 H   0  0  0  0  0  0  0  0  0  0  0  0
  141.5536   80.8455  224.9136 H   0  0  0  0  0  0  0  0  0  0  0  0
  141.0183   78.4220  224.7007 H   0  0  0  0  0  0  0  0  0  0  0  0
  138.4697   71.8527  224.7144 H   0  0  0  0  0  0  0  0  0  0  0  0
  137.8546   69.3836  225.6650 H   0  0  0  0  0  0  0  0  0  0  0  0
  136.5791   70.5943  225.4504 H   0  0  0  0  0  0  0  0  0  0  0  0
  137.0810   68.0988  223.9515 H   0  0  0  0  0  0  0  0  0  0  0  0
  135.6182   69.1123  223.9608 H   0  0  0  0  0  0  0  0  0  0  0  0
  137.8750   69.0722  222.0225 H   0  0  0  0  0  0  0  0  0  0  0  0
  136.2738   69.7638  221.8020 H   0  0  0  0  0  0  0  0  0  0  0  0
  138.4475   71.3833  222.1014 H   0  0  0  0  0  0  0  0  0  0  0  0
  136.9305   71.8729  222.8436 H   0  0  0  0  0  0  0  0  0  0  0  0
  1  2  3  0
  2  3  1  0
  3  4  2  0
  4  5  1  0
  5  6  2  0
  6  7  1  0
  7  8  2  0
  8  9  1  0
  9 10  1  0
 10 11  1  0
 11 12  1  0
 12 13  2  0
 12 14  1  0
 14 15  1  0
 15 16  1  0
 16 17  2  0
 16 18  1  0
 18 19  2  0
 19 20  1  0
 20 21  2  0
 21 22  1  0
 22 23  2  0
 23 24  1  0
 23 25  1  0
 25 26  2  0
 26 27  1  0
 27 28  2  0
  9 29  1  0
 29 30  1  0
 30 31  1  0
 31 32  1  0
 32 33  1  0
  8  3  1  0
 28 18  1  0
 33 29  1  0
 27 21  1  0
  4 34  1  0
  5 35  1  0
  6 36  1  0
  7 37  1  0
  9 38  1  6
 10 39  1  0
 10 40  1  0
 11 41  1  0
 14 42  1  0
 14 43  1  0
 15 44  1  0
 19 45  1  0
 20 46  1  0
 22 47  1  0
 25 48  1  0
 26 49  1  0
 29 50  1  0
 30 51  1  0
 30 52  1  0
 31 53  1  0
 31 54  1  0
 32 55  1  0
 32 56  1  0
 33 57  1  0
 33 58  1  0
M  END
>  <smiles>  (3) 
N#Cc1ccccc1[C@H](CNC(=O)CNC(=O)c1ccc2cc(F)ccc2n1)C1CCCC1

>  <score_type>  (3) 
oracle

>  <origin>  (3) 
autodockgpu

>  <m_score__min__energy>  (3) 
-9.6899999999999995

>  <m_primary>  (3) 
energy

>  <rmsd>  (3) 
8.72662664731395

>  <m_score__min__rmsd>  (3) 
8.72662664731395

>  <meeko>  (3) 
{"free_energy": -9.36, "intermolecular_energy": -11.75, "internal_energy": -2.17, "cluster_size": 10, "cluster_id": 1, "rank_in_cluster": 3}

>  <energy>  (3) 
-9.36

>  <cluster_rmsd>  (3) 
1.14

>  <cluster>  (3) 
1

$$$$

     RDKit          3D

 58 61  0  0  0  0  0  0  0  0999 V2000
  141.3960   80.5710  218.9340 N   0  0  0  0  0  0  0  0  0  0  0  0
  141.4960   80.1530  220.0190 C   0  0  0  0  0  0  0  0  0  0  0  0
  141.6110   79.6570  221.3670 C   0  0  0  0  0  0  0  0  0  0  0  0
  142.2920   80.4160  222.2950 C   0  0  0  0  0  0  0  0  0  0  0  0
  142.3960   79.9330  223.5780 C   0  0  0  0  0  0  0  0  0  0  0  0
  141.8190   78.7270  223.8670 C   0  0  0  0  0  0  0  0  0  0  0  0
  141.1310   77.9650  222.9220 C   0  0  0  0  0  0  0  0  0  0  0  0
  141.0280   78.4450  221.6420 C   0  0  0  0  0  0  0  0  0  0  0  0
  140.2600   77.7000  220.5610 C   0  0  2  0  0  0  0  0  0  0  0  0
  138.9650   77.3490  221.1660 C   0  0  0  0  0  0  0  0  0  0  0  0
  138.4170   76.0430  220.9100 N   0  0  0  0  0  0  0  0  0  0  0  0
  138.8940   74.8890  221.5850 C   0  0  0  0  0  0  0  0  0  0  0  0
  139.8210   75.0810  222.4260 O   0  0  0  0  0  0  0  0  0  0  0  0
  138.4170   73.5240  221.3990 C   0  0  0  0  0  0  0  0  0  0  0  0
  138.8330   72.6800  222.4940 N   0  0  0  0  0  0  0  0  0  0  0  0
  138.5300   71.2830  222.5560 C   0  0  0  0  0  0  0  0  0  0  0  0
  137.8740   70.6980  221.6270 O   0  0  0  0  0  0  0  0  0  0  0  0
  138.9820   70.4880  223.7150 C   0  0  0  0  0  0  0  0  0  0  0  0
  138.7750   69.1300  223.7320 C   0  0  0  0  0  0  0  0  0  0  0  0
  139.1980   68.3690  224.8210 C   0  0  0  0  0  0  0  0  0  0  0  0
  139.8220   69.0240  225.8720 C   0  0  0  0  0  0  0  0  0  0  0  0
  140.2660   68.3170  226.9880 C   0  0  0  0  0  0  0  0  0  0  0  0
  140.8880   68.9900  228.0270 C   0  0  0  0  0  0  0  0  0  0  0  0
  141.3080   68.2740  229.0980 F   0  0  0  0  0  0  0  0  0  0  0  0
  141.0890   70.3660  227.9940 C   0  0  0  0  0  0  0  0  0  0  0  0
  140.6490   71.0610  226.8870 C   0  0  0  0  0  0  0  0  0  0  0  0
  140.0260   70.4000  225.8460 C   0  0  0  0  0  0  0  0  0  0  0  0
  139.5950   71.0750  224.7630 N   0  0  0  0  0  0  0  0  0  0  0  0
  141.1440   76.6970  219.9800 C   0  0  0  0  0  0  0  0  0  0  0  0
  142.6290   76.9810  219.9580 C   0  0  0  0  0  0  0  0  0  0  0  0
  142.9470   77.4270  218.5520 C   0  0  0  0  0  0  0  0  0  0  0  0
  141.7250   77.1240  217.6970 C   0  0  0  0  0  0  0  0  0  0  0  0
  140.8680   76.2150  218.5800 C   0  0  0  0  0  0  0  0  0  0  0  0
  142.7398   81.3814  222.0165 H   0  0  0  0  0  0  0  0  0  0  0  0
  142.9300   80.5024  224.3530 H   0  0  0  0  0  0  0  0  0  0  0  0
  141.9013   78.3394  224.8932 H   0  0  0  0  0  0  0  0  0  0  0  0
  140.6810   77.0000  223.1981 H   0  0  0  0  0  0  0  0  0  0  0  0
  139.9693   78.2484  219.6528 H   0  0  0  0  0  0  0  0  0  0  0  0
  139.0795   77.4448  222.2558 H   0  0  0  0  0  0  0  0  0  0  0  0
  138.2511   78.0376  220.6905 H   0  0  0  0  0  0  0  0  0  0  0  0
  137.6590   75.9560  220.2270 H   0  0  0  0  0  0  0  0  0  0  0  0
  137.3183   73.5303  221.3462 H   0  0  0  0  0  0  0  0  0  0  0  0
  138.8438   73.1262  220.4665 H   0  0  0  0  0  0  0  0  0  0  0  0
  139.3830   73.0530  223.3070 H   0  0  0  0  0  0  0  0  0  0  0  0
  138.2738   68.6413  222.8835 H   0  0  0  0  0  0  0  0  0  0  0  0
  139.0413   67.2805  224.8458 H   0  0  0  0  0  0  0  0  0  0  0  0
  140.1230   67.2278  227.0437 H   0  0  0  0  0  0  0  0  0  0  0  0
  141.5849   70.8852  228.8274 H   0  0  0  0  0  0  0  0  0  0  0  0
  140.7952   72.1499  226.8325 H   0  0  0  0  0  0  0  0  0  0  0  0
  140.8801   75.9348  220.7280 H   0  0  0  0  0  0  0  0  0  0  0  0
  142.8766   77.7764  220.6764 H   0  0  0  0  0  0  0  0  0  0  0  0
  143.2131   76.0927  220.2404 H   0  0  0  0  0  0  0  0  0  0  0  0
  143.1588   78.5063  218.5377 H   0  0  0  0  0  0  0  0  0  0  0  0
  143.8334   76.9018  218.1666 H   0  0  0  0  0  0  0  0  0  0  0  0
  141.1841   78.0487  217.4474 H   0  0  0  0  0  0  0  0  0  0  0  0
  141.9871   76.6551  216.7371 H   0  0  0  0  0  0  0  0  0  0  0  0
  139.8016   76.3231  218.3329 H   0  0  0  0  0  0  0  0  0  0  0  0
  141.1059   75.1495  218.4456 H   0  0  0  0  0  0  0  0  0  0  0  0
  1  2  3  0
  2  3  1  0
  3  4  2  0
  4  5  1  0
  5  6  2  0
  6  7  1  0
  7  8  2  0
  8  9  1  0
  9 10  1  0
 10 11  1  0
 11 12  1  0
 12 13  2  0
 12 14  1  0
 14 15  1  0
 15 16  1  0
 16 17  2  0
 16 18  1  0
 18 19  2  0
 19 20  1  0
 20 21  2  0
 21 22  1  0
 22 23  2  0
 23 24  1  0
 23 25  1  0
 25 26  2  0
 26 27  1  0
 27 28  2  0
  9 29  1  0
 29 30  1  0
 30 31  1  0
 31 32  1  0
 32 33  1  0
  8  3  1  0
 28 18  1  0
 33 29  1  0
 27 21  1  0
  4 34  1  0
  5 35  1  0
  6 36  1  0
  7 37  1  0
  9 38  1  6
 10 39  1  0
 10 40  1  0
 11 41  1  0
 14 42  1  0
 14 43  1  0
 15 44  1  0
 19 45  1  0
 20 46  1  0
 22 47  1  0
 25 48  1  0
 26 49  1  0
 29 50  1  0
 30 51  1  0
 30 52  1  0
 31 53  1  0
 31 54  1  0
 32 55  1  0
 32 56  1  0
 33 57  1  0
 33 58  1  0
M  END
>  <smiles>  (4) 
N#Cc1ccccc1[C@H](CNC(=O)CNC(=O)c1ccc2cc(F)ccc2n1)C1CCCC1

>  <score_type>  (4) 
oracle

>  <origin>  (4) 
autodockgpu

>  <m_score__min__energy>  (4) 
-9.6899999999999995

>  <m_primary>  (4) 
energy

>  <rmsd>  (4) 
2.092832107645321

>  <m_score__min__rmsd>  (4) 
2.092832107645321

>  <meeko>  (4) 
{"free_energy": -8.62, "intermolecular_energy": -11.0, "internal_energy": -2.85, "cluster_size": 13, "cluster_id": 4, "rank_in_cluster": 11}

>  <energy>  (4) 
-9.32

>  <cluster_rmsd>  (4) 
1.05

>  <cluster>  (4) 
1

$$$$

     RDKit          3D

 58 61  0  0  0  0  0  0  0  0999 V2000
  140.5630   79.8820  219.2340 N   0  0  0  0  0  0  0  0  0  0  0  0
  140.9510   79.8500  220.3340 C   0  0  0  0  0  0  0  0  0  0  0  0
  141.4500   79.8210  221.6860 C   0  0  0  0  0  0  0  0  0  0  0  0
  142.5720   80.5620  221.9920 C   0  0  0  0  0  0  0  0  0  0  0  0
  143.0390   80.5260  223.2840 C   0  0  0  0  0  0  0  0  0  0  0  0
  142.3690   79.7600  224.1980 C   0  0  0  0  0  0  0  0  0  0  0  0
  141.2340   79.0140  223.8800 C   0  0  0  0  0  0  0  0  0  0  0  0
  140.7680   79.0470  222.5910 C   0  0  0  0  0  0  0  0  0  0  0  0
  139.5130   78.2970  222.1680 C   0  0  2  0  0  0  0  0  0  0  0  0
  139.9630   77.2900  221.1950 C   0  0  0  0  0  0  0  0  0  0  0  0
  139.1730   76.1000  221.0210 N   0  0  0  0  0  0  0  0  0  0  0  0
  139.5330   74.8690  221.6290 C   0  0  0  0  0  0  0  0  0  0  0  0
  140.5840   74.8860  222.3350 O   0  0  0  0  0  0  0  0  0  0  0  0
  138.8110   73.6080  221.5140 C   0  0  0  0  0  0  0  0  0  0  0  0
  139.1450   72.7230  222.6050 N   0  0  0  0  0  0  0  0  0  0  0  0
  138.7430   71.3500  222.6410 C   0  0  0  0  0  0  0  0  0  0  0  0
  138.0650   70.8250  221.6930 O   0  0  0  0  0  0  0  0  0  0  0  0
  139.1160   70.5110  223.7970 C   0  0  0  0  0  0  0  0  0  0  0  0
  138.8340   69.1660  223.7820 C   0  0  0  0  0  0  0  0  0  0  0  0
  139.1820   68.3640  224.8680 C   0  0  0  0  0  0  0  0  0  0  0  0
  139.8110   68.9630  225.9480 C   0  0  0  0  0  0  0  0  0  0  0  0
  140.1820   68.2120  227.0620 C   0  0  0  0  0  0  0  0  0  0  0  0
  140.8100   68.8310  228.1320 C   0  0  0  0  0  0  0  0  0  0  0  0
  141.1580   68.0740  229.1990 F   0  0  0  0  0  0  0  0  0  0  0  0
  141.0880   70.1940  228.1310 C   0  0  0  0  0  0  0  0  0  0  0  0
  140.7200   70.9320  227.0250 C   0  0  0  0  0  0  0  0  0  0  0  0
  140.0920   70.3260  225.9550 C   0  0  0  0  0  0  0  0  0  0  0  0
  139.7300   71.0430  224.8740 N   0  0  0  0  0  0  0  0  0  0  0  0
  138.4790   79.2760  221.8540 C   0  0  0  0  0  0  0  0  0  0  0  0
  138.3460   80.4870  222.7490 C   0  0  0  0  0  0  0  0  0  0  0  0
  137.1740   80.2060  223.6570 C   0  0  0  0  0  0  0  0  0  0  0  0
  136.4570   78.9840  223.1010 C   0  0  0  0  0  0  0  0  0  0  0  0
  137.0580   78.8020  221.7060 C   0  0  0  0  0  0  0  0  0  0  0  0
  143.0787   81.1647  221.2239 H   0  0  0  0  0  0  0  0  0  0  0  0
  143.9308   81.0998  223.5763 H   0  0  0  0  0  0  0  0  0  0  0  0
  142.7427   79.7309  225.2322 H   0  0  0  0  0  0  0  0  0  0  0  0
  140.7239   78.4124  224.6467 H   0  0  0  0  0  0  0  0  0  0  0  0
  138.9834   77.6944  222.9206 H   0  0  0  0  0  0  0  0  0  0  0  0
  140.0197   77.7878  220.2157 H   0  0  0  0  0  0  0  0  0  0  0  0
  140.9138   76.9229  221.6088 H   0  0  0  0  0  0  0  0  0  0  0  0
  138.3260   76.1550  220.4470 H   0  0  0  0  0  0  0  0  0  0  0  0
  137.7297   73.8090  221.5312 H   0  0  0  0  0  0  0  0  0  0  0  0
  139.0963   73.1241  220.5683 H   0  0  0  0  0  0  0  0  0  0  0  0
  139.7050   73.0460  223.4320 H   0  0  0  0  0  0  0  0  0  0  0  0
  138.3321   68.7208  222.9103 H   0  0  0  0  0  0  0  0  0  0  0  0
  138.9635   67.2859  224.8677 H   0  0  0  0  0  0  0  0  0  0  0  0
  139.9772   67.1316  227.0922 H   0  0  0  0  0  0  0  0  0  0  0  0
  141.5872   70.6700  228.9879 H   0  0  0  0  0  0  0  0  0  0  0  0
  140.9285   72.0116  226.9953 H   0  0  0  0  0  0  0  0  0  0  0  0
  138.9225   79.5304  220.8801 H   0  0  0  0  0  0  0  0  0  0  0  0
  139.2627   80.6277  223.3405 H   0  0  0  0  0  0  0  0  0  0  0  0
  138.1914   81.4056  222.1639 H   0  0  0  0  0  0  0  0  0  0  0  0
  137.5287   80.0027  224.6782 H   0  0  0  0  0  0  0  0  0  0  0  0
  136.4960   81.0712  223.6987 H   0  0  0  0  0  0  0  0  0  0  0  0
  136.6487   78.1002  223.7272 H   0  0  0  0  0  0  0  0  0  0  0  0
  135.3645   79.1098  223.0771 H   0  0  0  0  0  0  0  0  0  0  0  0
  137.0285   77.7450  221.4029 H   0  0  0  0  0  0  0  0  0  0  0  0
  136.5062   79.3567  220.9328 H   0  0  0  0  0  0  0  0  0  0  0  0
  1  2  3  0
  2  3  1  0
  3  4  2  0
  4  5  1  0
  5  6  2  0
  6  7  1  0
  7  8  2  0
  8  9  1  0
  9 10  1  0
 10 11  1  0
 11 12  1  0
 12 13  2  0
 12 14  1  0
 14 15  1  0
 15 16  1  0
 16 17  2  0
 16 18  1  0
 18 19  2  0
 19 20  1  0
 20 21  2  0
 21 22  1  0
 22 23  2  0
 23 24  1  0
 23 25  1  0
 25 26  2  0
 26 27  1  0
 27 28  2  0
  9 29  1  0
 29 30  1  0
 30 31  1  0
 31 32  1  0
 32 33  1  0
  8  3  1  0
 28 18  1  0
 33 29  1  0
 27 21  1  0
  4 34  1  0
  5 35  1  0
  6 36  1  0
  7 37  1  0
  9 38  1  1
 10 39  1  0
 10 40  1  0
 11 41  1  0
 14 42  1  0
 14 43  1  0
 15 44  1  0
 19 45  1  0
 20 46  1  0
 22 47  1  0
 25 48  1  0
 26 49  1  0
 29 50  1  0
 30 51  1  0
 30 52  1  0
 31 53  1  0
 31 54  1  0
 32 55  1  0
 32 56  1  0
 33 57  1  0
 33 58  1  0
M  END
>  <smiles>  (5) 
N#Cc1ccccc1[C@H](CNC(=O)CNC(=O)c1ccc2cc(F)ccc2n1)C1CCCC1

>  <score_type>  (5) 
oracle

>  <origin>  (5) 
autodockgpu

>  <m_score__min__energy>  (5) 
-9.6899999999999995

>  <m_primary>  (5) 
energy

>  <rmsd>  (5) 
2.897875982596832

>  <m_score__min__rmsd>  (5) 
2.897875982596832

>  <meeko>  (5) 
{"free_energy": -8.66, "intermolecular_energy": -11.04, "internal_energy": -2.14, "cluster_size": 13, "cluster_id": 4, "rank_in_cluster": 10}

>  <energy>  (5) 
-9.08

>  <cluster_rmsd>  (5) 
1.44

>  <cluster>  (5) 
1

$$$$

     RDKit          3D

 58 61  0  0  0  0  0  0  0  0999 V2000
  137.9650   77.8110  222.9710 N   0  0  0  0  0  0  0  0  0  0  0  0
  138.9060   78.5020  222.9760 C   0  0  0  0  0  0  0  0  0  0  0  0
  140.0720   79.3470  222.9600 C   0  0  0  0  0  0  0  0  0  0  0  0
  140.1330   80.4060  223.8410 C   0  0  0  0  0  0  0  0  0  0  0  0
  141.2500   81.2070  223.8170 C   0  0  0  0  0  0  0  0  0  0  0  0
  142.2420   80.9120  222.9230 C   0  0  0  0  0  0  0  0  0  0  0  0
  142.1740   79.8380  222.0350 C   0  0  0  0  0  0  0  0  0  0  0  0
  141.0590   79.0400  222.0570 C   0  0  0  0  0  0  0  0  0  0  0  0
  140.9210   77.8230  221.1530 C   0  0  2  0  0  0  0  0  0  0  0  0
  141.0880   76.6560  222.0330 C   0  0  0  0  0  0  0  0  0  0  0  0
  140.0060   75.7110  222.1350 N   0  0  0  0  0  0  0  0  0  0  0  0
  140.0980   74.4090  221.5760 C   0  0  0  0  0  0  0  0  0  0  0  0
  141.1860   74.1320  220.9920 O   0  0  0  0  0  0  0  0  0  0  0  0
  139.0650   73.3810  221.6160 C   0  0  0  0  0  0  0  0  0  0  0  0
  139.2620   72.4990  222.7420 N   0  0  0  0  0  0  0  0  0  0  0  0
  139.2210   71.0740  222.6280 C   0  0  0  0  0  0  0  0  0  0  0  0
  139.0160   70.4970  221.5050 O   0  0  0  0  0  0  0  0  0  0  0  0
  139.4210   70.2390  223.8290 C   0  0  0  0  0  0  0  0  0  0  0  0
  139.0260   68.9230  223.8180 C   0  0  0  0  0  0  0  0  0  0  0  0
  139.2100   68.1260  224.9470 C   0  0  0  0  0  0  0  0  0  0  0  0
  139.7950   68.7000  226.0650 C   0  0  0  0  0  0  0  0  0  0  0  0
  140.0050   67.9530  227.2220 C   0  0  0  0  0  0  0  0  0  0  0  0
  140.5910   68.5480  228.3290 C   0  0  0  0  0  0  0  0  0  0  0  0
  140.7810   67.7940  229.4380 F   0  0  0  0  0  0  0  0  0  0  0  0
  140.9850   69.8810  228.3230 C   0  0  0  0  0  0  0  0  0  0  0  0
  140.7760   70.6160  227.1740 C   0  0  0  0  0  0  0  0  0  0  0  0
  140.1910   70.0340  226.0660 C   0  0  0  0  0  0  0  0  0  0  0  0
  139.9860   70.7490  224.9430 N   0  0  0  0  0  0  0  0  0  0  0  0
  141.7510   78.0330  219.9740 C   0  0  0  0  0  0  0  0  0  0  0  0
  141.0630   78.3190  218.6580 C   0  0  0  0  0  0  0  0  0  0  0  0
  141.0810   77.0220  217.8880 C   0  0  0  0  0  0  0  0  0  0  0  0
  142.0240   76.0770  218.6200 C   0  0  0  0  0  0  0  0  0  0  0  0
  142.7650   76.9820  219.6070 C   0  0  0  0  0  0  0  0  0  0  0  0
  139.3104   80.6044  224.5438 H   0  0  0  0  0  0  0  0  0  0  0  0
  141.3436   82.0641  224.5001 H   0  0  0  0  0  0  0  0  0  0  0  0
  143.1363   81.5521  222.9031 H   0  0  0  0  0  0  0  0  0  0  0  0
  142.9964   79.6359  221.3330 H   0  0  0  0  0  0  0  0  0  0  0  0
  139.9497   77.6343  220.6724 H   0  0  0  0  0  0  0  0  0  0  0  0
  141.9691   76.1032  221.6753 H   0  0  0  0  0  0  0  0  0  0  0  0
  141.1634   77.0884  223.0417 H   0  0  0  0  0  0  0  0  0  0  0  0
  139.1560   75.9930  222.6320 H   0  0  0  0  0  0  0  0  0  0  0  0
  138.0800   73.8629  221.7035 H   0  0  0  0  0  0  0  0  0  0  0  0
  139.1211   72.7889  220.6906 H   0  0  0  0  0  0  0  0  0  0  0  0
  139.4450   72.8640  223.7090 H   0  0  0  0  0  0  0  0  0  0  0  0
  138.5632   68.4970  222.9156 H   0  0  0  0  0  0  0  0  0  0  0  0
  138.8995   67.0707  224.9505 H   0  0  0  0  0  0  0  0  0  0  0  0
  139.7070   66.8947  227.2573 H   0  0  0  0  0  0  0  0  0  0  0  0
  141.4503   70.3371  229.2093 H   0  0  0  0  0  0  0  0  0  0  0  0
  141.0775   71.6733  227.1400 H   0  0  0  0  0  0  0  0  0  0  0  0
  142.2329   78.9290  220.3922 H   0  0  0  0  0  0  0  0  0  0  0  0
  140.0272   78.6460  218.8316 H   0  0  0  0  0  0  0  0  0  0  0  0
  141.5707   79.1228  218.1046 H   0  0  0  0  0  0  0  0  0  0  0  0
  140.0694   76.5914  217.8513 H   0  0  0  0  0  0  0  0  0  0  0  0
  141.4180   77.1864  216.8539 H   0  0  0  0  0  0  0  0  0  0  0  0
  141.4599   75.2972  219.1526 H   0  0  0  0  0  0  0  0  0  0  0  0
  142.7057   75.5478  217.9379 H   0  0  0  0  0  0  0  0  0  0  0  0
  143.0794   76.4155  220.4959 H   0  0  0  0  0  0  0  0  0  0  0  0
  143.6825   77.4119  219.1787 H   0  0  0  0  0  0  0  0  0  0  0  0
  1  2  3  0
  2  3  1  0
  3  4  2  0
  4  5  1  0
  5  6  2  0
  6  7  1  0
  7  8  2  0
  8  9  1  0
  9 10  1  0
 10 11  1  0
 11 12  1  0
 12 13  2  0
 12 14  1  0
 14 15  1  0
 15 16  1  0
 16 17  2  0
 16 18  1  0
 18 19  2  0
 19 20  1  0
 20 21  2  0
 21 22  1  0
 22 23  2  0
 23 24  1  0
 23 25  1  0
 25 26  2  0
 26 27  1  0
 27 28  2  0
  9 29  1  0
 29 30  1  0
 30 31  1  0
 31 32  1  0
 32 33  1  0
  8  3  1  0
 28 18  1  0
 33 29  1  0
 27 21  1  0
  4 34  1  0
  5 35  1  0
  6 36  1  0
  7 37  1  0
  9 38  1  6
 10 39  1  0
 10 40  1  0
 11 41  1  0
 14 42  1  0
 14 43  1  0
 15 44  1  0
 19 45  1  0
 20 46  1  0
 22 47  1  0
 25 48  1  0
 26 49  1  0
 29 50  1  0
 30 51  1  0
 30 52  1  0
 31 53  1  0
 31 54  1  0
 32 55  1  0
 32 56  1  0
 33 57  1  0
 33 58  1  0
M  END
>  <smiles>  (6) 
N#Cc1ccccc1[C@H](CNC(=O)CNC(=O)c1ccc2cc(F)ccc2n1)C1CCCC1

>  <score_type>  (6) 
oracle

>  <origin>  (6) 
autodockgpu

>  <m_score__min__energy>  (6) 
-9.6899999999999995

>  <m_primary>  (6) 
energy

>  <rmsd>  (6) 
2.4241698944622216

>  <m_score__min__rmsd>  (6) 
2.4241698944622216

>  <meeko>  (6) 
{"free_energy": -8.5, "intermolecular_energy": -10.89, "internal_energy": -2.57, "cluster_size": 13, "cluster_id": 4, "rank_in_cluster": 12}

>  <energy>  (6) 
-9.05

>  <cluster_rmsd>  (6) 
1.44

>  <cluster>  (6) 
1

$$$$

     RDKit          3D

 58 61  0  0  0  0  0  0  0  0999 V2000
  138.2130   81.0590  223.5060 N   0  0  0  0  0  0  0  0  0  0  0  0
  139.3590   80.8500  223.4260 C   0  0  0  0  0  0  0  0  0  0  0  0
  140.7770   80.6040  223.3460 C   0  0  0  0  0  0  0  0  0  0  0  0
  141.6200   81.3340  224.1550 C   0  0  0  0  0  0  0  0  0  0  0  0
  142.9710   81.0920  224.0700 C   0  0  0  0  0  0  0  0  0  0  0  0
  143.4070   80.1410  223.1880 C   0  0  0  0  0  0  0  0  0  0  0  0
  142.5460   79.4070  222.3720 C   0  0  0  0  0  0  0  0  0  0  0  0
  141.1990   79.6480  222.4560 C   0  0  0  0  0  0  0  0  0  0  0  0
  140.1870   78.8640  221.6330 C   0  0  2  0  0  0  0  0  0  0  0  0
  140.6090   77.4570  221.7240 C   0  0  0  0  0  0  0  0  0  0  0  0
  139.6390   76.4290  221.4540 N   0  0  0  0  0  0  0  0  0  0  0  0
  139.9680   75.0510  221.5440 C   0  0  0  0  0  0  0  0  0  0  0  0
  141.1590   74.7850  221.8810 O   0  0  0  0  0  0  0  0  0  0  0  0
  139.0680   73.9330  221.2880 C   0  0  0  0  0  0  0  0  0  0  0  0
  139.0620   73.0120  222.4000 N   0  0  0  0  0  0  0  0  0  0  0  0
  140.1030   72.0550  222.6200 C   0  0  0  0  0  0  0  0  0  0  0  0
  141.1110   71.9700  221.8380 O   0  0  0  0  0  0  0  0  0  0  0  0
  140.0200   71.1400  223.7760 C   0  0  0  0  0  0  0  0  0  0  0  0
  139.3680   69.9380  223.6480 C   0  0  0  0  0  0  0  0  0  0  0  0
  139.2840   69.0660  224.7330 C   0  0  0  0  0  0  0  0  0  0  0  0
  139.8710   69.4510  225.9280 C   0  0  0  0  0  0  0  0  0  0  0  0
  139.8190   68.6220  227.0470 C   0  0  0  0  0  0  0  0  0  0  0  0
  140.4130   69.0270  228.2320 C   0  0  0  0  0  0  0  0  0  0  0  0
  140.3450   68.1990  229.3010 F   0  0  0  0  0  0  0  0  0  0  0  0
  141.0690   70.2490  228.3450 C   0  0  0  0  0  0  0  0  0  0  0  0
  141.1180   71.0650  227.2340 C   0  0  0  0  0  0  0  0  0  0  0  0
  140.5290   70.6720  226.0480 C   0  0  0  0  0  0  0  0  0  0  0  0
  140.5740   71.4670  224.9620 N   0  0  0  0  0  0  0  0  0  0  0  0
  140.0110   79.5430  220.3550 C   0  0  0  0  0  0  0  0  0  0  0  0
  140.1510   78.7290  219.0890 C   0  0  0  0  0  0  0  0  0  0  0  0
  141.5270   79.0290  218.5500 C   0  0  0  0  0  0  0  0  0  0  0  0
  142.0650   80.2220  219.3280 C   0  0  0  0  0  0  0  0  0  0  0  0
  140.8410   80.7660  220.0680 C   0  0  0  0  0  0  0  0  0  0  0  0
  141.2235   82.0893  224.8495 H   0  0  0  0  0  0  0  0  0  0  0  0
  143.6837   81.6493  224.6957 H   0  0  0  0  0  0  0  0  0  0  0  0
  144.4874   79.9461  223.1192 H   0  0  0  0  0  0  0  0  0  0  0  0
  142.9393   78.6512  221.6762 H   0  0  0  0  0  0  0  0  0  0  0  0
  139.1428   78.8327  221.9774 H   0  0  0  0  0  0  0  0  0  0  0  0
  141.4349   77.3192  221.0106 H   0  0  0  0  0  0  0  0  0  0  0  0
  140.8575   77.3193  222.7867 H   0  0  0  0  0  0  0  0  0  0  0  0
  138.6870   76.7100  221.1990 H   0  0  0  0  0  0  0  0  0  0  0  0
  138.0493   74.3185  221.1340 H   0  0  0  0  0  0  0  0  0  0  0  0
  139.4162   73.3994  220.3913 H   0  0  0  0  0  0  0  0  0  0  0  0
  138.2870   73.0000  223.1080 H   0  0  0  0  0  0  0  0  0  0  0  0
  138.9105   69.6622  222.6864 H   0  0  0  0  0  0  0  0  0  0  0  0
  138.7663   68.0996  224.6429 H   0  0  0  0  0  0  0  0  0  0  0  0
  139.3082   67.6494  226.9900 H   0  0  0  0  0  0  0  0  0  0  0  0
  141.5351   70.5554  229.2931 H   0  0  0  0  0  0  0  0  0  0  0  0
  141.6303   72.0366  227.2929 H   0  0  0  0  0  0  0  0  0  0  0  0
  138.9633   79.8061  220.5626 H   0  0  0  0  0  0  0  0  0  0  0  0
  140.0537   77.6562  219.3120 H   0  0  0  0  0  0  0  0  0  0  0  0
  139.3687   78.9833  218.3587 H   0  0  0  0  0  0  0  0  0  0  0  0
  142.1851   78.1590  218.6914 H   0  0  0  0  0  0  0  0  0  0  0  0
  141.4847   79.2517  217.4736 H   0  0  0  0  0  0  0  0  0  0  0  0
  142.8429   79.9063  220.0388 H   0  0  0  0  0  0  0  0  0  0  0  0
  142.5343   80.9743  218.6770 H   0  0  0  0  0  0  0  0  0  0  0  0
  141.1391   81.2636  221.0026 H   0  0  0  0  0  0  0  0  0  0  0  0
  140.2939   81.5192  219.4819 H   0  0  0  0  0  0  0  0  0  0  0  0
  1  2  3  0
  2  3  1  0
  3  4  2  0
  4  5  1  0
  5  6  2  0
  6  7  1  0
  7  8  2  0
  8  9  1  0
  9 10  1  0
 10 11  1  0
 11 12  1  0
 12 13  2  0
 12 14  1  0
 14 15  1  0
 15 16  1  0
 16 17  2  0
 16 18  1  0
 18 19  2  0
 19 20  1  0
 20 21  2  0
 21 22  1  0
 22 23  2  0
 23 24  1  0
 23 25  1  0
 25 26  2  0
 26 27  1  0
 27 28  2  0
  9 29  1  0
 29 30  1  0
 30 31  1  0
 31 32  1  0
 32 33  1  0
  8  3  1  0
 28 18  1  0
 33 29  1  0
 27 21  1  0
  4 34  1  0
  5 35  1  0
  6 36  1  0
  7 37  1  0
  9 38  1  1
 10 39  1  0
 10 40  1  0
 11 41  1  0
 14 42  1  0
 14 43  1  0
 15 44  1  0
 19 45  1  0
 20 46  1  0
 22 47  1  0
 25 48  1  0
 26 49  1  0
 29 50  1  0
 30 51  1  0
 30 52  1  0
 31 53  1  0
 31 54  1  0
 32 55  1  0
 32 56  1  0
 33 57  1  0
 33 58  1  0
M  END
>  <smiles>  (7) 
N#Cc1ccccc1[C@H](CNC(=O)CNC(=O)c1ccc2cc(F)ccc2n1)C1CCCC1

>  <score_type>  (7) 
oracle

>  <origin>  (7) 
autodockgpu

>  <m_score__min__energy>  (7) 
-9.6899999999999995

>  <m_primary>  (7) 
energy

>  <rmsd>  (7) 
2.6152311581274748

>  <m_score__min__rmsd>  (7) 
2.6152311581274748

>  <meeko>  (7) 
{"free_energy": -9.35, "intermolecular_energy": -11.74, "internal_energy": -1.66, "cluster_size": 14, "cluster_id": 2, "rank_in_cluster": 2}

>  <energy>  (7) 
-9.05

>  <cluster_rmsd>  (7) 
1.44

>  <cluster>  (7) 
1

$$$$

     RDKit          3D

 58 61  0  0  0  0  0  0  0  0999 V2000
  139.0630   80.4840  219.0950 N   0  0  0  0  0  0  0  0  0  0  0  0
  138.6770   79.7680  219.9320 C   0  0  0  0  0  0  0  0  0  0  0  0
  138.1830   78.8760  220.9510 C   0  0  0  0  0  0  0  0  0  0  0  0
  136.8220   78.6920  221.0650 C   0  0  0  0  0  0  0  0  0  0  0  0
  136.3620   77.8400  222.0410 C   0  0  0  0  0  0  0  0  0  0  0  0
  137.2780   77.2180  222.8450 C   0  0  0  0  0  0  0  0  0  0  0  0
  138.6540   77.4090  222.7220 C   0  0  0  0  0  0  0  0  0  0  0  0
  139.1130   78.2600  221.7510 C   0  0  0  0  0  0  0  0  0  0  0  0
  140.5990   78.4930  221.5200 C   0  0  2  0  0  0  0  0  0  0  0  0
  141.0580   77.3500  220.7140 C   0  0  0  0  0  0  0  0  0  0  0  0
  140.1600   76.2430  220.5160 N   0  0  0  0  0  0  0  0  0  0  0  0
  140.1760   75.1070  221.3680 C   0  0  0  0  0  0  0  0  0  0  0  0
  141.0210   75.1330  222.3110 O   0  0  0  0  0  0  0  0  0  0  0  0
  139.3190   73.9340  221.2550 C   0  0  0  0  0  0  0  0  0  0  0  0
  139.5110   73.0470  222.3780 N   0  0  0  0  0  0  0  0  0  0  0  0
  139.1820   71.6550  222.3330 C   0  0  0  0  0  0  0  0  0  0  0  0
  138.7020   71.1140  221.2780 O   0  0  0  0  0  0  0  0  0  0  0  0
  139.3990   70.8140  223.5260 C   0  0  0  0  0  0  0  0  0  0  0  0
  138.9890   69.5030  223.5190 C   0  0  0  0  0  0  0  0  0  0  0  0
  139.1880   68.6990  224.6410 C   0  0  0  0  0  0  0  0  0  0  0  0
  139.8040   69.2630  225.7480 C   0  0  0  0  0  0  0  0  0  0  0  0
  140.0290   68.5100  226.8980 C   0  0  0  0  0  0  0  0  0  0  0  0
  140.6460   69.0940  227.9940 C   0  0  0  0  0  0  0  0  0  0  0  0
  140.8510   68.3340  229.0970 F   0  0  0  0  0  0  0  0  0  0  0  0
  141.0540   70.4230  227.9840 C   0  0  0  0  0  0  0  0  0  0  0  0
  140.8290   71.1640  226.8430 C   0  0  0  0  0  0  0  0  0  0  0  0
  140.2140   70.5930  225.7460 C   0  0  0  0  0  0  0  0  0  0  0  0
  139.9930   71.3130  224.6300 N   0  0  0  0  0  0  0  0  0  0  0  0
  141.2110   78.8410  222.7960 C   0  0  0  0  0  0  0  0  0  0  0  0
  140.4790   79.8060  223.7000 C   0  0  0  0  0  0  0  0  0  0  0  0
  141.1570   81.1420  223.5200 C   0  0  0  0  0  0  0  0  0  0  0  0
  142.4470   80.8920  222.7510 C   0  0  0  0  0  0  0  0  0  0  0  0
  142.6210   79.3720  222.8000 C   0  0  0  0  0  0  0  0  0  0  0  0
  136.1231   79.2124  220.3937 H   0  0  0  0  0  0  0  0  0  0  0  0
  135.2843   77.6627  222.1723 H   0  0  0  0  0  0  0  0  0  0  0  0
  136.9116   76.5349  223.6255 H   0  0  0  0  0  0  0  0  0  0  0  0
  139.3556   76.8878  223.3899 H   0  0  0  0  0  0  0  0  0  0  0  0
  140.9063   79.3605  220.9175 H   0  0  0  0  0  0  0  0  0  0  0  0
  141.3182   77.7387  219.7184 H   0  0  0  0  0  0  0  0  0  0  0  0
  141.8854   76.9232  221.2999 H   0  0  0  0  0  0  0  0  0  0  0  0
  139.4900   76.2890  219.7430 H   0  0  0  0  0  0  0  0  0  0  0  0
  138.2679   74.2570  221.2265 H   0  0  0  0  0  0  0  0  0  0  0  0
  139.5798   73.3951  220.3322 H   0  0  0  0  0  0  0  0  0  0  0  0
  139.9050   73.3820  223.2910 H   0  0  0  0  0  0  0  0  0  0  0  0
  138.5020   69.0858  222.6252 H   0  0  0  0  0  0  0  0  0  0  0  0
  138.8655   67.6474  224.6477 H   0  0  0  0  0  0  0  0  0  0  0  0
  139.7183   67.4555  226.9367 H   0  0  0  0  0  0  0  0  0  0  0  0
  141.5427   70.8710  228.8618 H   0  0  0  0  0  0  0  0  0  0  0  0
  141.1417   72.2180  226.8062 H   0  0  0  0  0  0  0  0  0  0  0  0
  141.1677   77.8086  223.1732 H   0  0  0  0  0  0  0  0  0  0  0  0
  139.4201   79.8728  223.4099 H   0  0  0  0  0  0  0  0  0  0  0  0
  140.5101   79.4770  224.7492 H   0  0  0  0  0  0  0  0  0  0  0  0
  140.5052   81.8219  222.9518 H   0  0  0  0  0  0  0  0  0  0  0  0
  141.3670   81.6078  224.4941 H   0  0  0  0  0  0  0  0  0  0  0  0
  142.3564   81.2416  221.7120 H   0  0  0  0  0  0  0  0  0  0  0  0
  143.3055   81.4297  223.1797 H   0  0  0  0  0  0  0  0  0  0  0  0
  143.1758   79.0138  221.9203 H   0  0  0  0  0  0  0  0  0  0  0  0
  143.1947   79.0406  223.6781 H   0  0  0  0  0  0  0  0  0  0  0  0
  1  2  3  0
  2  3  1  0
  3  4  2  0
  4  5  1  0
  5  6  2  0
  6  7  1  0
  7  8  2  0
  8  9  1  0
  9 10  1  0
 10 11  1  0
 11 12  1  0
 12 13  2  0
 12 14  1  0
 14 15  1  0
 15 16  1  0
 16 17  2  0
 16 18  1  0
 18 19  2  0
 19 20  1  0
 20 21  2  0
 21 22  1  0
 22 23  2  0
 23 24  1  0
 23 25  1  0
 25 26  2  0
 26 27  1  0
 27 28  2  0
  9 29  1  0
 29 30  1  0
 30 31  1  0
 31 32  1  0
 32 33  1  0
  8  3  1  0
 28 18  1  0
 33 29  1  0
 27 21  1  0
  4 34  1  0
  5 35  1  0
  6 36  1  0
  7 37  1  0
  9 38  1  6
 10 39  1  0
 10 40  1  0
 11 41  1  0
 14 42  1  0
 14 43  1  0
 15 44  1  0
 19 45  1  0
 20 46  1  0
 22 47  1  0
 25 48  1  0
 26 49  1  0
 29 50  1  0
 30 51  1  0
 30 52  1  0
 31 53  1  0
 31 54  1  0
 32 55  1  0
 32 56  1  0
 33 57  1  0
 33 58  1  0
M  END
>  <smiles>  (8) 
N#Cc1ccccc1[C@H](CNC(=O)CNC(=O)c1ccc2cc(F)ccc2n1)C1CCCC1

>  <score_type>  (8) 
oracle

>  <origin>  (8) 
autodockgpu

>  <m_score__min__energy>  (8) 
-9.6899999999999995

>  <m_primary>  (8) 
energy

>  <rmsd>  (8) 
2.781937355450498

>  <m_score__min__rmsd>  (8) 
2.781937355450498

>  <meeko>  (8) 
{"free_energy": -8.04, "intermolecular_energy": -10.42, "internal_energy": -2.71, "cluster_size": 14, "cluster_id": 2, "rank_in_cluster": 14}

>  <energy>  (8) 
-9.05

>  <cluster_rmsd>  (8) 
1.45

>  <cluster>  (8) 
1

$$$$

     RDKit          3D

 58 61  0  0  0  0  0  0  0  0999 V2000
  140.7340   73.7070  222.3310 N   0  0  0  0  0  0  0  0  0  0  0  0
  141.2720   74.3560  221.5220 C   0  0  0  0  0  0  0  0  0  0  0  0
  141.9510   75.1390  220.5220 C   0  0  0  0  0  0  0  0  0  0  0  0
  142.7370   74.4890  219.5950 C   0  0  0  0  0  0  0  0  0  0  0  0
  143.3810   75.2470  218.6450 C   0  0  0  0  0  0  0  0  0  0  0  0
  143.2090   76.6040  218.6700 C   0  0  0  0  0  0  0  0  0  0  0  0
  142.4120   77.2540  219.6110 C   0  0  0  0  0  0  0  0  0  0  0  0
  141.7700   76.4990  220.5590 C   0  0  0  0  0  0  0  0  0  0  0  0
  140.8480   77.1230  221.5970 C   0  0  2  0  0  0  0  0  0  0  0  0
  139.5020   77.0860  221.0030 C   0  0  0  0  0  0  0  0  0  0  0  0
  138.5820   76.0720  221.4470 N   0  0  0  0  0  0  0  0  0  0  0  0
  138.3860   74.8710  220.7150 C   0  0  0  0  0  0  0  0  0  0  0  0
  139.0730   74.7470  219.6590 O   0  0  0  0  0  0  0  0  0  0  0  0
  137.4790   73.7860  221.0690 C   0  0  0  0  0  0  0  0  0  0  0  0
  138.0320   72.9800  222.1320 N   0  0  0  0  0  0  0  0  0  0  0  0
  137.7670   71.5800  222.2630 C   0  0  0  0  0  0  0  0  0  0  0  0
  137.0230   70.9590  221.4290 O   0  0  0  0  0  0  0  0  0  0  0  0
  138.3620   70.8260  223.3840 C   0  0  0  0  0  0  0  0  0  0  0  0
  138.1270   69.4770  223.4980 C   0  0  0  0  0  0  0  0  0  0  0  0
  138.6840   68.7550  224.5520 C   0  0  0  0  0  0  0  0  0  0  0  0
  139.4690   69.4360  225.4690 C   0  0  0  0  0  0  0  0  0  0  0  0
  140.0520   68.7680  226.5430 C   0  0  0  0  0  0  0  0  0  0  0  0
  140.8350   69.4690  227.4480 C   0  0  0  0  0  0  0  0  0  0  0  0
  141.3870   68.7900  228.4820 F   0  0  0  0  0  0  0  0  0  0  0  0
  141.0620   70.8350  227.3180 C   0  0  0  0  0  0  0  0  0  0  0  0
  140.4830   71.4920  226.2510 C   0  0  0  0  0  0  0  0  0  0  0  0
  139.7010   70.8030  225.3450 C   0  0  0  0  0  0  0  0  0  0  0  0
  139.1340   71.4410  224.3030 N   0  0  0  0  0  0  0  0  0  0  0  0
  141.4580   78.3610  222.0660 C   0  0  0  0  0  0  0  0  0  0  0  0
  141.5030   78.6150  223.5560 C   0  0  0  0  0  0  0  0  0  0  0  0
  140.3830   79.5820  223.8480 C   0  0  0  0  0  0  0  0  0  0  0  0
  139.8840   80.1100  222.5100 C   0  0  0  0  0  0  0  0  0  0  0  0
  140.9570   79.6680  221.5120 C   0  0  0  0  0  0  0  0  0  0  0  0
  142.8462   73.3946  219.6144 H   0  0  0  0  0  0  0  0  0  0  0  0
  144.0187   74.7737  217.8838 H   0  0  0  0  0  0  0  0  0  0  0  0
  143.7243   77.2112  217.9112 H   0  0  0  0  0  0  0  0  0  0  0  0
  142.3005   78.3482  219.5936 H   0  0  0  0  0  0  0  0  0  0  0  0
  140.7103   76.6027  222.5563 H   0  0  0  0  0  0  0  0  0  0  0  0
  139.0322   78.0604  221.2028 H   0  0  0  0  0  0  0  0  0  0  0  0
  139.6814   76.8417  219.9456 H   0  0  0  0  0  0  0  0  0  0  0  0
  138.0660   76.2280  222.3180 H   0  0  0  0  0  0  0  0  0  0  0  0
  136.5203   74.2114  221.4006 H   0  0  0  0  0  0  0  0  0  0  0  0
  137.3304   73.1487  220.1848 H   0  0  0  0  0  0  0  0  0  0  0  0
  138.6620   73.3850  222.8670 H   0  0  0  0  0  0  0  0  0  0  0  0
  137.4974   68.9654  222.7552 H   0  0  0  0  0  0  0  0  0  0  0  0
  138.5055   67.6743  224.6533 H   0  0  0  0  0  0  0  0  0  0  0  0
  139.8919   67.6875  226.6731 H   0  0  0  0  0  0  0  0  0  0  0  0
  141.6853   71.3765  228.0449 H   0  0  0  0  0  0  0  0  0  0  0  0
  140.6457   72.5722  226.1215 H   0  0  0  0  0  0  0  0  0  0  0  0
  142.4479   78.1046  221.6605 H   0  0  0  0  0  0  0  0  0  0  0  0
  141.3507   77.6760  224.1084 H   0  0  0  0  0  0  0  0  0  0  0  0
  142.4770   79.0218  223.8657 H   0  0  0  0  0  0  0  0  0  0  0  0
  139.5682   79.0663  224.3773 H   0  0  0  0  0  0  0  0  0  0  0  0
  140.7348   80.4059  224.4863 H   0  0  0  0  0  0  0  0  0  0  0  0
  138.9086   79.6698  222.2555 H   0  0  0  0  0  0  0  0  0  0  0  0
  139.7345   81.1998  222.5148 H   0  0  0  0  0  0  0  0  0  0  0  0
  140.5245   79.5274  220.5104 H   0  0  0  0  0  0  0  0  0  0  0  0
  141.7585   80.4125  221.3967 H   0  0  0  0  0  0  0  0  0  0  0  0
  1  2  3  0
  2  3  1  0
  3  4  2  0
  4  5  1  0
  5  6  2  0
  6  7  1  0
  7  8  2  0
  8  9  1  0
  9 10  1  0
 10 11  1  0
 11 12  1  0
 12 13  2  0
 12 14  1  0
 14 15  1  0
 15 16  1  0
 16 17  2  0
 16 18  1  0
 18 19  2  0
 19 20  1  0
 20 21  2  0
 21 22  1  0
 22 23  2  0
 23 24  1  0
 23 25  1  0
 25 26  2  0
 26 27  1  0
 27 28  2  0
  9 29  1  0
 29 30  1  0
 30 31  1  0
 31 32  1  0
 32 33  1  0
  8  3  1  0
 28 18  1  0
 33 29  1  0
 27 21  1  0
  4 34  1  0
  5 35  1  0
  6 36  1  0
  7 37  1  0
  9 38  1  1
 10 39  1  0
 10 40  1  0
 11 41  1  0
 14 42  1  0
 14 43  1  0
 15 44  1  0
 19 45  1  0
 20 46  1  0
 22 47  1  0
 25 48  1  0
 26 49  1  0
 29 50  1  0
 30 51  1  0
 30 52  1  0
 31 53  1  0
 31 54  1  0
 32 55  1  0
 32 56  1  0
 33 57  1  0
 33 58  1  0
M  END
>  <smiles>  (9) 
N#Cc1ccccc1[C@H](CNC(=O)CNC(=O)c1ccc2cc(F)ccc2n1)C1CCCC1

>  <score_type>  (9) 
oracle

>  <origin>  (9) 
autodockgpu

>  <m_score__min__energy>  (9) 
-9.6899999999999995

>  <m_primary>  (9) 
energy

>  <rmsd>  (9) 
2.4876779221325

>  <m_score__min__rmsd>  (9) 
2.4876779221325

>  <meeko>  (9) 
{"free_energy": -8.02, "intermolecular_energy": -10.41, "internal_energy": -2.95, "cluster_size": 11, "cluster_id": 3, "rank_in_cluster": 11}

>  <energy>  (9) 
-9.04

>  <cluster_rmsd>  (9) 
1.29

>  <cluster>  (9) 
1

$$$$

     RDKit          3D

 58 61  0  0  0  0  0  0  0  0999 V2000
  139.5570   80.6270  219.2070 N   0  0  0  0  0  0  0  0  0  0  0  0
  139.2160   80.6130  220.3240 C   0  0  0  0  0  0  0  0  0  0  0  0
  138.7820   80.5800  221.6970 C   0  0  0  0  0  0  0  0  0  0  0  0
  137.5640   81.1400  222.0190 C   0  0  0  0  0  0  0  0  0  0  0  0
  137.1600   81.1030  223.3320 C   0  0  0  0  0  0  0  0  0  0  0  0
  137.9840   80.5130  224.2500 C   0  0  0  0  0  0  0  0  0  0  0  0
  139.2150   79.9480  223.9170 C   0  0  0  0  0  0  0  0  0  0  0  0
  139.6200   79.9850  222.6070 C   0  0  0  0  0  0  0  0  0  0  0  0
  140.9270   79.3550  222.1500 C   0  0  2  0  0  0  0  0  0  0  0  0
  141.0680   78.1200  222.9370 C   0  0  0  0  0  0  0  0  0  0  0  0
  141.0450   76.8580  222.2460 N   0  0  0  0  0  0  0  0  0  0  0  0
  139.8440   76.1200  222.0790 C   0  0  0  0  0  0  0  0  0  0  0  0
  138.7990   76.6430  222.5680 O   0  0  0  0  0  0  0  0  0  0  0  0
  139.7090   74.8350  221.4040 C   0  0  0  0  0  0  0  0  0  0  0  0
  139.5720   73.7640  222.3620 N   0  0  0  0  0  0  0  0  0  0  0  0
  140.4830   72.6620  222.4300 C   0  0  0  0  0  0  0  0  0  0  0  0
  141.4860   72.5720  221.6410 O   0  0  0  0  0  0  0  0  0  0  0  0
  140.2700   71.5990  223.4320 C   0  0  0  0  0  0  0  0  0  0  0  0
  139.6180   70.4450  223.0720 C   0  0  0  0  0  0  0  0  0  0  0  0
  139.4110   69.4340  224.0100 C   0  0  0  0  0  0  0  0  0  0  0  0
  139.8790   69.6340  225.3000 C   0  0  0  0  0  0  0  0  0  0  0  0
  139.7020   68.6600  226.2800 C   0  0  0  0  0  0  0  0  0  0  0  0
  140.1770   68.8800  227.5640 C   0  0  0  0  0  0  0  0  0  0  0  0
  139.9890   67.9130  228.4940 F   0  0  0  0  0  0  0  0  0  0  0  0
  140.8350   70.0550  227.9110 C   0  0  0  0  0  0  0  0  0  0  0  0
  141.0090   71.0150  226.9360 C   0  0  0  0  0  0  0  0  0  0  0  0
  140.5380   70.8070  225.6550 C   0  0  0  0  0  0  0  0  0  0  0  0
  140.7060   71.7430  224.7010 N   0  0  0  0  0  0  0  0  0  0  0  0
  141.9540   80.3910  222.1360 C   0  0  0  0  0  0  0  0  0  0  0  0
  143.3000   80.0700  222.7430 C   0  0  0  0  0  0  0  0  0  0  0  0
  143.3050   80.7120  224.1090 C   0  0  0  0  0  0  0  0  0  0  0  0
  142.0990   81.6390  224.1740 C   0  0  0  0  0  0  0  0  0  0  0  0
  141.6270   81.7390  222.7220 C   0  0  0  0  0  0  0  0  0  0  0  0
  136.9331   81.6036  221.2463 H   0  0  0  0  0  0  0  0  0  0  0  0
  136.1967   81.5376  223.6372 H   0  0  0  0  0  0  0  0  0  0  0  0
  137.6607   80.4825  225.3010 H   0  0  0  0  0  0  0  0  0  0  0  0
  139.8471   79.4830  224.6879 H   0  0  0  0  0  0  0  0  0  0  0  0
  141.0016   78.9971  221.1125 H   0  0  0  0  0  0  0  0  0  0  0  0
  142.0293   78.1817  223.4682 H   0  0  0  0  0  0  0  0  0  0  0  0
  140.1663   78.0981  223.5667 H   0  0  0  0  0  0  0  0  0  0  0  0
  141.9230   76.4950  221.8620 H   0  0  0  0  0  0  0  0  0  0  0  0
  138.8180   74.8582  220.7594 H   0  0  0  0  0  0  0  0  0  0  0  0
  140.6125   74.6563  220.8026 H   0  0  0  0  0  0  0  0  0  0  0  0
  138.7910   73.7390  223.0620 H   0  0  0  0  0  0  0  0  0  0  0  0
  139.2579   70.3178  222.0404 H   0  0  0  0  0  0  0  0  0  0  0  0
  138.8913   68.5045  223.7345 H   0  0  0  0  0  0  0  0  0  0  0  0
  139.1869   67.7192  226.0360 H   0  0  0  0  0  0  0  0  0  0  0  0
  141.2062   70.2143  228.9341 H   0  0  0  0  0  0  0  0  0  0  0  0
  141.5272   71.9538  227.1810 H   0  0  0  0  0  0  0  0  0  0  0  0
  141.9957   80.4286  221.0374 H   0  0  0  0  0  0  0  0  0  0  0  0
  143.4291   78.9812  222.8321 H   0  0  0  0  0  0  0  0  0  0  0  0
  144.1234   80.4464  222.1183 H   0  0  0  0  0  0  0  0  0  0  0  0
  143.2295   79.9399  224.8888 H   0  0  0  0  0  0  0  0  0  0  0  0
  144.2375   81.2715  224.2746 H   0  0  0  0  0  0  0  0  0  0  0  0
  141.3116   81.2113  224.8121 H   0  0  0  0  0  0  0  0  0  0  0  0
  142.3433   82.6201  224.6072 H   0  0  0  0  0  0  0  0  0  0  0  0
  140.5452   81.9330  222.6755 H   0  0  0  0  0  0  0  0  0  0  0  0
  142.1088   82.5643  222.1773 H   0  0  0  0  0  0  0  0  0  0  0  0
  1  2  3  0
  2  3  1  0
  3  4  2  0
  4  5  1  0
  5  6  2  0
  6  7  1  0
  7  8  2  0
  8  9  1  0
  9 10  1  0
 10 11  1  0
 11 12  1  0
 12 13  2  0
 12 14  1  0
 14 15  1  0
 15 16  1  0
 16 17  2  0
 16 18  1  0
 18 19  2  0
 19 20  1  0
 20 21  2  0
 21 22  1  0
 22 23  2  0
 23 24  1  0
 23 25  1  0
 25 26  2  0
 26 27  1  0
 27 28  2  0
  9 29  1  0
 29 30  1  0
 30 31  1  0
 31 32  1  0
 32 33  1  0
  8  3  1  0
 28 18  1  0
 33 29  1  0
 27 21  1  0
  4 34  1  0
  5 35  1  0
  6 36  1  0
  7 37  1  0
  9 38  1  6
 10 39  1  0
 10 40  1  0
 11 41  1  0
 14 42  1  0
 14 43  1  0
 15 44  1  0
 19 45  1  0
 20 46  1  0
 22 47  1  0
 25 48  1  0
 26 49  1  0
 29 50  1  0
 30 51  1  0
 30 52  1  0
 31 53  1  0
 31 54  1  0
 32 55  1  0
 32 56  1  0
 33 57  1  0
 33 58  1  0
M  END
>  <smiles>  (10) 
N#Cc1ccccc1[C@H](CNC(=O)CNC(=O)c1ccc2cc(F)ccc2n1)C1CCCC1

>  <score_type>  (10) 
oracle

>  <origin>  (10) 
autodockgpu

>  <m_score__min__energy>  (10) 
-9.6899999999999995

>  <m_primary>  (10) 
energy

>  <rmsd>  (10) 
3.3899071088229937

>  <m_score__min__rmsd>  (10) 
3.3899071088229937

>  <meeko>  (10) 
{"free_energy": -9.53, "intermolecular_energy": -11.91, "internal_energy": -1.94, "cluster_size": 14, "cluster_id": 2, "rank_in_cluster": 1}

>  <energy>  (10) 
-9.03

>  <cluster_rmsd>  (10) 
1.31

>  <cluster>  (10) 
1

$$$$

     RDKit          3D

 58 61  0  0  0  0  0  0  0  0999 V2000
  138.1970   79.8920  222.8140 N   0  0  0  0  0  0  0  0  0  0  0  0
  139.3490   80.0150  222.9610 C   0  0  0  0  0  0  0  0  0  0  0  0
  140.7670   80.1890  223.1430 C   0  0  0  0  0  0  0  0  0  0  0  0
  141.2110   81.2560  223.8950 C   0  0  0  0  0  0  0  0  0  0  0  0
  142.5670   81.4130  224.0610 C   0  0  0  0  0  0  0  0  0  0  0  0
  143.4030   80.5040  223.4740 C   0  0  0  0  0  0  0  0  0  0  0  0
  142.9460   79.4270  222.7150 C   0  0  0  0  0  0  0  0  0  0  0  0
  141.5950   79.2700  222.5470 C   0  0  0  0  0  0  0  0  0  0  0  0
  141.0090   78.1000  221.7710 C   0  0  2  0  0  0  0  0  0  0  0  0
  141.0810   76.9460  222.6810 C   0  0  0  0  0  0  0  0  0  0  0  0
  140.5940   75.6730  222.2170 N   0  0  0  0  0  0  0  0  0  0  0  0
  139.2340   75.4810  221.8570 C   0  0  0  0  0  0  0  0  0  0  0  0
  138.4830   76.4950  221.9630 O   0  0  0  0  0  0  0  0  0  0  0  0
  138.6360   74.2380  221.3830 C   0  0  0  0  0  0  0  0  0  0  0  0
  138.7360   73.2050  222.3860 N   0  0  0  0  0  0  0  0  0  0  0  0
  139.9790   72.6010  222.7580 C   0  0  0  0  0  0  0  0  0  0  0  0
  141.0830   72.9570  222.2210 O   0  0  0  0  0  0  0  0  0  0  0  0
  139.9970   71.5420  223.7860 C   0  0  0  0  0  0  0  0  0  0  0  0
  139.5100   70.2930  223.4860 C   0  0  0  0  0  0  0  0  0  0  0  0
  139.5230   69.2850  224.4500 C   0  0  0  0  0  0  0  0  0  0  0  0
  140.0350   69.5850  225.7030 C   0  0  0  0  0  0  0  0  0  0  0  0
  140.0730   68.6180  226.7060 C   0  0  0  0  0  0  0  0  0  0  0  0
  140.5900   68.9390  227.9520 C   0  0  0  0  0  0  0  0  0  0  0  0
  140.6130   67.9780  228.9050 F   0  0  0  0  0  0  0  0  0  0  0  0
  141.0780   70.2090  228.2390 C   0  0  0  0  0  0  0  0  0  0  0  0
  141.0390   71.1620  227.2420 C   0  0  0  0  0  0  0  0  0  0  0  0
  140.5250   70.8530  225.9970 C   0  0  0  0  0  0  0  0  0  0  0  0
  140.4850   71.7810  225.0210 N   0  0  0  0  0  0  0  0  0  0  0  0
  141.6130   78.0830  220.4440 C   0  0  0  0  0  0  0  0  0  0  0  0
  140.6990   78.1480  219.2420 C   0  0  0  0  0  0  0  0  0  0  0  0
  140.5940   76.7360  218.7210 C   0  0  0  0  0  0  0  0  0  0  0  0
  141.6640   75.9150  219.4290 C   0  0  0  0  0  0  0  0  0  0  0  0
  142.5580   76.9640  220.0940 C   0  0  0  0  0  0  0  0  0  0  0  0
  140.5003   81.9620  224.3495 H   0  0  0  0  0  0  0  0  0  0  0  0
  142.9693   82.2493  224.6515 H   0  0  0  0  0  0  0  0  0  0  0  0
  144.4879   80.6282  223.6068 H   0  0  0  0  0  0  0  0  0  0  0  0
  143.6547   78.7188  222.2609 H   0  0  0  0  0  0  0  0  0  0  0  0
  139.9443   78.1337  221.4968 H   0  0  0  0  0  0  0  0  0  0  0  0
  142.1389   76.8103  222.9501 H   0  0  0  0  0  0  0  0  0  0  0  0
  140.4012   77.2101  223.5045 H   0  0  0  0  0  0  0  0  0  0  0  0
  141.2550   74.8950  222.1410 H   0  0  0  0  0  0  0  0  0  0  0  0
  137.5752   74.4138  221.1511 H   0  0  0  0  0  0  0  0  0  0  0  0
  139.1756   73.9084  220.4829 H   0  0  0  0  0  0  0  0  0  0  0  0
  137.8930   72.8410  222.8970 H   0  0  0  0  0  0  0  0  0  0  0  0
  139.1087   70.0872  222.4827 H   0  0  0  0  0  0  0  0  0  0  0  0
  139.1378   68.2801  224.2224 H   0  0  0  0  0  0  0  0  0  0  0  0
  139.6943   67.6040  226.5099 H   0  0  0  0  0  0  0  0  0  0  0  0
  141.4839   70.4473  229.2332 H   0  0  0  0  0  0  0  0  0  0  0  0
  141.4197   72.1749  227.4396 H   0  0  0  0  0  0  0  0  0  0  0  0
  142.1508   79.0289  220.6056 H   0  0  0  0  0  0  0  0  0  0  0  0
  139.7070   78.5214  219.5362 H   0  0  0  0  0  0  0  0  0  0  0  0
  141.0911   78.8319  218.4748 H   0  0  0  0  0  0  0  0  0  0  0  0
  139.5972   76.3261  218.9409 H   0  0  0  0  0  0  0  0  0  0  0  0
  140.7387   76.7098  217.6309 H   0  0  0  0  0  0  0  0  0  0  0  0
  141.2132   75.2518  220.1820 H   0  0  0  0  0  0  0  0  0  0  0  0
  142.2196   75.2611  218.7407 H   0  0  0  0  0  0  0  0  0  0  0  0
  143.0323   76.5560  220.9988 H   0  0  0  0  0  0  0  0  0  0  0  0
  143.3795   77.2938  219.4411 H   0  0  0  0  0  0  0  0  0  0  0  0
  1  2  3  0
  2  3  1  0
  3  4  2  0
  4  5  1  0
  5  6  2  0
  6  7  1  0
  7  8  2  0
  8  9  1  0
  9 10  1  0
 10 11  1  0
 11 12  1  0
 12 13  2  0
 12 14  1  0
 14 15  1  0
 15 16  1  0
 16 17  2  0
 16 18  1  0
 18 19  2  0
 19 20  1  0
 20 21  2  0
 21 22  1  0
 22 23  2  0
 23 24  1  0
 23 25  1  0
 25 26  2  0
 26 27  1  0
 27 28  2  0
  9 29  1  0
 29 30  1  0
 30 31  1  0
 31 32  1  0
 32 33  1  0
  8  3  1  0
 28 18  1  0
 33 29  1  0
 27 21  1  0
  4 34  1  0
  5 35  1  0
  6 36  1  0
  7 37  1  0
  9 38  1  6
 10 39  1  0
 10 40  1  0
 11 41  1  0
 14 42  1  0
 14 43  1  0
 15 44  1  0
 19 45  1  0
 20 46  1  0
 22 47  1  0
 25 48  1  0
 26 49  1  0
 29 50  1  0
 30 51  1  0
 30 52  1  0
 31 53  1  0
 31 54  1  0
 32 55  1  0
 32 56  1  0
 33 57  1  0
 33 58  1  0
M  END
>  <smiles>  (11) 
N#Cc1ccccc1[C@H](CNC(=O)CNC(=O)c1ccc2cc(F)ccc2n1)C1CCCC1

>  <score_type>  (11) 
oracle

>  <origin>  (11) 
autodockgpu

>  <m_score__min__energy>  (11) 
-9.6899999999999995

>  <m_primary>  (11) 
energy

>  <rmsd>  (11) 
2.716974838349859

>  <m_score__min__rmsd>  (11) 
2.716974838349859

>  <meeko>  (11) 
{"free_energy": -9.15, "intermolecular_energy": -11.54, "internal_energy": -2.76, "cluster_size": 14, "cluster_id": 2, "rank_in_cluster": 5}

>  <energy>  (11) 
-9.53

>  <cluster_rmsd>  (11) 
0.0

>  <cluster>  (11) 
2

$$$$

     RDKit          3D

 58 61  0  0  0  0  0  0  0  0999 V2000
  137.8060   79.9080  223.0600 N   0  0  0  0  0  0  0  0  0  0  0  0
  138.9690   80.0020  223.0970 C   0  0  0  0  0  0  0  0  0  0  0  0
  140.4030   80.1410  223.1370 C   0  0  0  0  0  0  0  0  0  0  0  0
  140.9440   81.2110  223.8160 C   0  0  0  0  0  0  0  0  0  0  0  0
  142.3130   81.3330  223.8470 C   0  0  0  0  0  0  0  0  0  0  0  0
  143.0660   80.3890  223.2040 C   0  0  0  0  0  0  0  0  0  0  0  0
  142.5100   79.3090  222.5180 C   0  0  0  0  0  0  0  0  0  0  0  0
  141.1440   79.1860  222.4860 C   0  0  0  0  0  0  0  0  0  0  0  0
  140.4560   78.0170  221.7980 C   0  0  2  0  0  0  0  0  0  0  0  0
  141.0610   76.8060  222.3760 C   0  0  0  0  0  0  0  0  0  0  0  0
  140.6290   75.5220  221.8900 N   0  0  0  0  0  0  0  0  0  0  0  0
  141.4710   74.7060  221.0890 C   0  0  0  0  0  0  0  0  0  0  0  0
  142.6210   75.1740  220.8380 O   0  0  0  0  0  0  0  0  0  0  0  0
  141.1340   73.3980  220.5410 C   0  0  0  0  0  0  0  0  0  0  0  0
  141.0510   72.4080  221.5890 N   0  0  0  0  0  0  0  0  0  0  0  0
  140.0820   72.4700  222.6400 C   0  0  0  0  0  0  0  0  0  0  0  0
  139.2200   73.4130  222.7020 O   0  0  0  0  0  0  0  0  0  0  0  0
  140.0670   71.4240  223.6820 C   0  0  0  0  0  0  0  0  0  0  0  0
  139.5650   70.1790  223.3900 C   0  0  0  0  0  0  0  0  0  0  0  0
  139.5460   69.1840  224.3660 C   0  0  0  0  0  0  0  0  0  0  0  0
  140.0410   69.4920  225.6240 C   0  0  0  0  0  0  0  0  0  0  0  0
  140.0480   68.5380  226.6390 C   0  0  0  0  0  0  0  0  0  0  0  0
  140.5480   68.8680  227.8900 C   0  0  0  0  0  0  0  0  0  0  0  0
  140.5400   67.9190  228.8560 F   0  0  0  0  0  0  0  0  0  0  0  0
  141.0510   70.1340  228.1690 C   0  0  0  0  0  0  0  0  0  0  0  0
  141.0440   71.0740  227.1590 C   0  0  0  0  0  0  0  0  0  0  0  0
  140.5470   70.7570  225.9100 C   0  0  0  0  0  0  0  0  0  0  0  0
  140.5370   71.6720  224.9220 N   0  0  0  0  0  0  0  0  0  0  0  0
  140.4470   78.2720  220.3620 C   0  0  0  0  0  0  0  0  0  0  0  0
  141.7640   78.5640  219.6800 C   0  0  0  0  0  0  0  0  0  0  0  0
  141.8130   80.0600  219.4920 C   0  0  0  0  0  0  0  0  0  0  0  0
  140.4210   80.5970  219.7910 C   0  0  0  0  0  0  0  0  0  0  0  0
  139.5390   79.3470  219.8260 C   0  0  0  0  0  0  0  0  0  0  0  0
  140.2990   81.9465  224.3189 H   0  0  0  0  0  0  0  0  0  0  0  0
  142.7917   82.1700  224.3764 H   0  0  0  0  0  0  0  0  0  0  0  0
  144.1614   80.4861  223.2291 H   0  0  0  0  0  0  0  0  0  0  0  0
  143.1527   78.5723  222.0139 H   0  0  0  0  0  0  0  0  0  0  0  0
  139.3806   77.8655  221.9731 H   0  0  0  0  0  0  0  0  0  0  0  0
  142.1453   76.8705  222.2025 H   0  0  0  0  0  0  0  0  0  0  0  0
  140.7361   76.8187  223.4269 H   0  0  0  0  0  0  0  0  0  0  0  0
  139.6920   75.1950  222.1400 H   0  0  0  0  0  0  0  0  0  0  0  0
  140.1633   73.4615  220.0274 H   0  0  0  0  0  0  0  0  0  0  0  0
  141.9224   73.0982  219.8349 H   0  0  0  0  0  0  0  0  0  0  0  0
  141.7030   71.5870  221.6320 H   0  0  0  0  0  0  0  0  0  0  0  0
  139.1769   69.9667  222.3829 H   0  0  0  0  0  0  0  0  0  0  0  0
  139.1493   68.1822  224.1443 H   0  0  0  0  0  0  0  0  0  0  0  0
  139.6585   67.5269  226.4492 H   0  0  0  0  0  0  0  0  0  0  0  0
  141.4434   70.3792  229.1669 H   0  0  0  0  0  0  0  0  0  0  0  0
  141.4372   72.0834  227.3500 H   0  0  0  0  0  0  0  0  0  0  0  0
  140.0705   77.2675  220.1186 H   0  0  0  0  0  0  0  0  0  0  0  0
  142.6023   78.2303  220.3092 H   0  0  0  0  0  0  0  0  0  0  0  0
  141.8460   78.0346  218.7193 H   0  0  0  0  0  0  0  0  0  0  0  0
  142.5445   80.5030  220.1839 H   0  0  0  0  0  0  0  0  0  0  0  0
  142.1178   80.3148  218.4663 H   0  0  0  0  0  0  0  0  0  0  0  0
  140.4024   81.1155  220.7610 H   0  0  0  0  0  0  0  0  0  0  0  0
  140.0827   81.3320  219.0458 H   0  0  0  0  0  0  0  0  0  0  0  0
  138.6758   79.4966  220.4912 H   0  0  0  0  0  0  0  0  0  0  0  0
  139.1236   79.0955  218.8390 H   0  0  0  0  0  0  0  0  0  0  0  0
  1  2  3  0
  2  3  1  0
  3  4  2  0
  4  5  1  0
  5  6  2  0
  6  7  1  0
  7  8  2  0
  8  9  1  0
  9 10  1  0
 10 11  1  0
 11 12  1  0
 12 13  2  0
 12 14  1  0
 14 15  1  0
 15 16  1  0
 16 17  2  0
 16 18  1  0
 18 19  2  0
 19 20  1  0
 20 21  2  0
 21 22  1  0
 22 23  2  0
 23 24  1  0
 23 25  1  0
 25 26  2  0
 26 27  1  0
 27 28  2  0
  9 29  1  0
 29 30  1  0
 30 31  1  0
 31 32  1  0
 32 33  1  0
  8  3  1  0
 28 18  1  0
 33 29  1  0
 27 21  1  0
  4 34  1  0
  5 35  1  0
  6 36  1  0
  7 37  1  0
  9 38  1  1
 10 39  1  0
 10 40  1  0
 11 41  1  0
 14 42  1  0
 14 43  1  0
 15 44  1  0
 19 45  1  0
 20 46  1  0
 22 47  1  0
 25 48  1  0
 26 49  1  0
 29 50  1  0
 30 51  1  0
 30 52  1  0
 31 53  1  0
 31 54  1  0
 32 55  1  0
 32 56  1  0
 33 57  1  0
 33 58  1  0
M  END
>  <smiles>  (12) 
N#Cc1ccccc1[C@H](CNC(=O)CNC(=O)c1ccc2cc(F)ccc2n1)C1CCCC1

>  <score_type>  (12) 
oracle

>  <origin>  (12) 
autodockgpu

>  <m_score__min__energy>  (12) 
-9.6899999999999995

>  <m_primary>  (12) 
energy

>  <rmsd>  (12) 
2.86840302816125

>  <m_score__min__rmsd>  (12) 
2.86840302816125

>  <meeko>  (12) 
{"free_energy": -8.68, "intermolecular_energy": -11.07, "internal_energy": -2.42, "cluster_size": 13, "cluster_id": 4, "rank_in_cluster": 9}

>  <energy>  (12) 
-9.35

>  <cluster_rmsd>  (12) 
1.98

>  <cluster>  (12) 
2

$$$$

     RDKit          3D

 58 61  0  0  0  0  0  0  0  0999 V2000
  141.8290   80.3200  218.8160 N   0  0  0  0  0  0  0  0  0  0  0  0
  141.8420   79.9850  219.9340 C   0  0  0  0  0  0  0  0  0  0  0  0
  141.8400   79.5570  221.3110 C   0  0  0  0  0  0  0  0  0  0  0  0
  142.3580   80.4050  222.2660 C   0  0  0  0  0  0  0  0  0  0  0  0
  142.3520   79.9860  223.5760 C   0  0  0  0  0  0  0  0  0  0  0  0
  141.8310   78.7540  223.8620 C   0  0  0  0  0  0  0  0  0  0  0  0
  141.3080   77.9030  222.8890 C   0  0  0  0  0  0  0  0  0  0  0  0
  141.3160   78.3180  221.5830 C   0  0  0  0  0  0  0  0  0  0  0  0
  140.7270   77.4710  220.4640 C   0  0  2  0  0  0  0  0  0  0  0  0
  139.3390   77.1930  220.8670 C   0  0  0  0  0  0  0  0  0  0  0  0
  138.7930   75.8880  220.5990 N   0  0  0  0  0  0  0  0  0  0  0  0
  138.9530   74.8110  221.5100 C   0  0  0  0  0  0  0  0  0  0  0  0
  139.5950   75.0710  222.5700 O   0  0  0  0  0  0  0  0  0  0  0  0
  138.4480   73.4550  221.3360 C   0  0  0  0  0  0  0  0  0  0  0  0
  138.8290   72.6180  222.4490 N   0  0  0  0  0  0  0  0  0  0  0  0
  138.6640   71.1960  222.4430 C   0  0  0  0  0  0  0  0  0  0  0  0
  138.1720   70.5830  221.4340 O   0  0  0  0  0  0  0  0  0  0  0  0
  139.0690   70.4090  223.6250 C   0  0  0  0  0  0  0  0  0  0  0  0
  138.8290   69.0570  223.6580 C   0  0  0  0  0  0  0  0  0  0  0  0
  139.2070   68.3040  224.7690 C   0  0  0  0  0  0  0  0  0  0  0  0
  139.8230   68.9600  225.8240 C   0  0  0  0  0  0  0  0  0  0  0  0
  140.2240   68.2600  226.9600 C   0  0  0  0  0  0  0  0  0  0  0  0
  140.8380   68.9350  228.0030 C   0  0  0  0  0  0  0  0  0  0  0  0
  141.2150   68.2260  229.0940 F   0  0  0  0  0  0  0  0  0  0  0  0
  141.0730   70.3050  227.9540 C   0  0  0  0  0  0  0  0  0  0  0  0
  140.6770   70.9920  226.8260 C   0  0  0  0  0  0  0  0  0  0  0  0
  140.0620   70.3300  225.7810 C   0  0  0  0  0  0  0  0  0  0  0  0
  139.6730   70.9980  224.6780 N   0  0  0  0  0  0  0  0  0  0  0  0
  141.6730   76.4080  220.1480 C   0  0  0  0  0  0  0  0  0  0  0  0
  143.0660   76.7990  219.7090 C   0  0  0  0  0  0  0  0  0  0  0  0
  143.0860   76.6520  218.2070 C   0  0  0  0  0  0  0  0  0  0  0  0
  141.8200   75.9040  217.8120 C   0  0  0  0  0  0  0  0  0  0  0  0
  141.2770   75.3650  219.1370 C   0  0  0  0  0  0  0  0  0  0  0  0
  142.7646   81.3887  221.9885 H   0  0  0  0  0  0  0  0  0  0  0  0
  142.7563   80.6259  224.3741 H   0  0  0  0  0  0  0  0  0  0  0  0
  141.8243   78.4185  224.9096 H   0  0  0  0  0  0  0  0  0  0  0  0
  140.8979   76.9200  223.1638 H   0  0  0  0  0  0  0  0  0  0  0  0
  140.6103   77.9252  219.4690 H   0  0  0  0  0  0  0  0  0  0  0  0
  139.2783   77.3533  221.9536 H   0  0  0  0  0  0  0  0  0  0  0  0
  138.7372   77.8696  220.2425 H   0  0  0  0  0  0  0  0  0  0  0  0
  138.2720   75.7460  219.7290 H   0  0  0  0  0  0  0  0  0  0  0  0
  137.3506   73.4852  221.2669 H   0  0  0  0  0  0  0  0  0  0  0  0
  138.8788   73.0343  220.4155 H   0  0  0  0  0  0  0  0  0  0  0  0
  139.2500   73.0140  223.3250 H   0  0  0  0  0  0  0  0  0  0  0  0
  138.3369   68.5666  222.8051 H   0  0  0  0  0  0  0  0  0  0  0  0
  139.0218   67.2204  224.8075 H   0  0  0  0  0  0  0  0  0  0  0  0
  140.0538   67.1754  227.0287 H   0  0  0  0  0  0  0  0  0  0  0  0
  141.5609   70.8256  228.7913 H   0  0  0  0  0  0  0  0  0  0  0  0
  140.8522   72.0758  226.7576 H   0  0  0  0  0  0  0  0  0  0  0  0
  141.6602   76.0029  221.1706 H   0  0  0  0  0  0  0  0  0  0  0  0
  143.2783   77.8400  219.9939 H   0  0  0  0  0  0  0  0  0  0  0  0
  143.8305   76.1678  220.1856 H   0  0  0  0  0  0  0  0  0  0  0  0
  143.1020   77.6437  217.7313 H   0  0  0  0  0  0  0  0  0  0  0  0
  143.9820   76.1041  217.8797 H   0  0  0  0  0  0  0  0  0  0  0  0
  141.0954   76.5843  217.3407 H   0  0  0  0  0  0  0  0  0  0  0  0
  142.0117   75.1069  217.0785 H   0  0  0  0  0  0  0  0  0  0  0  0
  140.1831   75.2569  219.0956 H   0  0  0  0  0  0  0  0  0  0  0  0
  141.6733   74.3684  219.3814 H   0  0  0  0  0  0  0  0  0  0  0  0
  1  2  3  0
  2  3  1  0
  3  4  2  0
  4  5  1  0
  5  6  2  0
  6  7  1  0
  7  8  2  0
  8  9  1  0
  9 10  1  0
 10 11  1  0
 11 12  1  0
 12 13  2  0
 12 14  1  0
 14 15  1  0
 15 16  1  0
 16 17  2  0
 16 18  1  0
 18 19  2  0
 19 20  1  0
 20 21  2  0
 21 22  1  0
 22 23  2  0
 23 24  1  0
 23 25  1  0
 25 26  2  0
 26 27  1  0
 27 28  2  0
  9 29  1  0
 29 30  1  0
 30 31  1  0
 31 32  1  0
 32 33  1  0
  8  3  1  0
 28 18  1  0
 33 29  1  0
 27 21  1  0
  4 34  1  0
  5 35  1  0
  6 36  1  0
  7 37  1  0
  9 38  1  6
 10 39  1  0
 10 40  1  0
 11 41  1  0
 14 42  1  0
 14 43  1  0
 15 44  1  0
 19 45  1  0
 20 46  1  0
 22 47  1  0
 25 48  1  0
 26 49  1  0
 29 50  1  0
 30 51  1  0
 30 52  1  0
 31 53  1  0
 31 54  1  0
 32 55  1  0
 32 56  1  0
 33 57  1  0
 33 58  1  0
M  END
>  <smiles>  (13) 
N#Cc1ccccc1[C@H](CNC(=O)CNC(=O)c1ccc2cc(F)ccc2n1)C1CCCC1

>  <score_type>  (13) 
oracle

>  <origin>  (13) 
autodockgpu

>  <m_score__min__energy>  (13) 
-9.6899999999999995

>  <m_primary>  (13) 
energy

>  <rmsd>  (13) 
2.0655948362139935

>  <m_score__min__rmsd>  (13) 
2.0655948362139935

>  <meeko>  (13) 
{"free_energy": -8.74, "intermolecular_energy": -11.13, "internal_energy": -2.83, "cluster_size": 13, "cluster_id": 4, "rank_in_cluster": 6}

>  <energy>  (13) 
-9.32

>  <cluster_rmsd>  (13) 
1.98

>  <cluster>  (13) 
2

$$$$

     RDKit          3D

 58 61  0  0  0  0  0  0  0  0999 V2000
  142.2180   74.3910  221.1570 N   0  0  0  0  0  0  0  0  0  0  0  0
  142.3640   75.2700  220.4030 C   0  0  0  0  0  0  0  0  0  0  0  0
  142.5310   76.3690  219.4870 C   0  0  0  0  0  0  0  0  0  0  0  0
  143.1740   76.1390  218.2890 C   0  0  0  0  0  0  0  0  0  0  0  0
  143.3290   77.1960  217.4230 C   0  0  0  0  0  0  0  0  0  0  0  0
  142.8380   78.4180  217.7930 C   0  0  0  0  0  0  0  0  0  0  0  0
  142.1880   78.6420  219.0060 C   0  0  0  0  0  0  0  0  0  0  0  0
  142.0340   77.5900  219.8720 C   0  0  0  0  0  0  0  0  0  0  0  0
  141.3010   77.7370  221.1970 C   0  0  2  0  0  0  0  0  0  0  0  0
  139.8690   77.7420  220.8580 C   0  0  0  0  0  0  0  0  0  0  0  0
  139.2450   76.4990  220.4880 N   0  0  0  0  0  0  0  0  0  0  0  0
  139.2000   75.3930  221.3780 C   0  0  0  0  0  0  0  0  0  0  0  0
  139.7340   75.5710  222.5120 O   0  0  0  0  0  0  0  0  0  0  0  0
  138.6010   74.0920  221.1040 C   0  0  0  0  0  0  0  0  0  0  0  0
  138.7550   73.2080  222.2350 N   0  0  0  0  0  0  0  0  0  0  0  0
  139.7480   72.1790  222.2860 C   0  0  0  0  0  0  0  0  0  0  0  0
  140.5690   71.9920  221.3240 O   0  0  0  0  0  0  0  0  0  0  0  0
  139.8360   71.3070  223.4740 C   0  0  0  0  0  0  0  0  0  0  0  0
  139.4010   70.0060  223.3980 C   0  0  0  0  0  0  0  0  0  0  0  0
  139.4790   69.1740  224.5140 C   0  0  0  0  0  0  0  0  0  0  0  0
  140.0020   69.6990  225.6860 C   0  0  0  0  0  0  0  0  0  0  0  0
  140.1050   68.9160  226.8340 C   0  0  0  0  0  0  0  0  0  0  0  0
  140.6300   69.4610  227.9950 C   0  0  0  0  0  0  0  0  0  0  0  0
  140.7160   68.6730  229.0930 F   0  0  0  0  0  0  0  0  0  0  0  0
  141.0650   70.7810  228.0550 C   0  0  0  0  0  0  0  0  0  0  0  0
  140.9620   71.5510  226.9150 C   0  0  0  0  0  0  0  0  0  0  0  0
  140.4390   71.0190  225.7530 C   0  0  0  0  0  0  0  0  0  0  0  0
  140.3360   71.7680  224.6390 N   0  0  0  0  0  0  0  0  0  0  0  0
  141.9270   78.8170  221.9490 C   0  0  0  0  0  0  0  0  0  0  0  0
  141.8490   78.7760  223.4580 C   0  0  0  0  0  0  0  0  0  0  0  0
  140.7560   79.7420  223.8450 C   0  0  0  0  0  0  0  0  0  0  0  0
  140.4080   80.5500  222.6020 C   0  0  0  0  0  0  0  0  0  0  0  0
  141.5440   80.2380  221.6260 C   0  0  0  0  0  0  0  0  0  0  0  0
  143.5523   75.1383  218.0332 H   0  0  0  0  0  0  0  0  0  0  0  0
  143.8357   77.0620  216.4559 H   0  0  0  0  0  0  0  0  0  0  0  0
  142.9618   79.2639  217.1008 H   0  0  0  0  0  0  0  0  0  0  0  0
  141.8068   79.6414  219.2628 H   0  0  0  0  0  0  0  0  0  0  0  0
  141.3786   76.9228  221.9326 H   0  0  0  0  0  0  0  0  0  0  0  0
  139.3292   78.1273  221.7356 H   0  0  0  0  0  0  0  0  0  0  0  0
  139.8112   78.3535  219.9455 H   0  0  0  0  0  0  0  0  0  0  0  0
  138.8190   76.4230  219.5600 H   0  0  0  0  0  0  0  0  0  0  0  0
  137.5295   74.2254  220.8939 H   0  0  0  0  0  0  0  0  0  0  0  0
  139.1088   73.6459  220.2362 H   0  0  0  0  0  0  0  0  0  0  0  0
  138.1400   73.2760  223.0830 H   0  0  0  0  0  0  0  0  0  0  0  0
  138.9899   69.6196  222.4537 H   0  0  0  0  0  0  0  0  0  0  0  0
  139.1352   68.1302  224.4661 H   0  0  0  0  0  0  0  0  0  0  0  0
  139.7705   67.8682  226.8188 H   0  0  0  0  0  0  0  0  0  0  0  0
  141.4791   71.1987  228.9845 H   0  0  0  0  0  0  0  0  0  0  0  0
  141.2994   72.5978  226.9318 H   0  0  0  0  0  0  0  0  0  0  0  0
  142.9357   78.5771  221.5815 H   0  0  0  0  0  0  0  0  0  0  0  0
  141.6004   77.7606  223.8003 H   0  0  0  0  0  0  0  0  0  0  0  0
  142.8098   79.0496  223.9184 H   0  0  0  0  0  0  0  0  0  0  0  0
  139.8715   79.1897  224.1953 H   0  0  0  0  0  0  0  0  0  0  0  0
  141.0889   80.4023  224.6593 H   0  0  0  0  0  0  0  0  0  0  0  0
  139.4393   80.2329  222.1884 H   0  0  0  0  0  0  0  0  0  0  0  0
  140.3129   81.6260  222.8101 H   0  0  0  0  0  0  0  0  0  0  0  0
  141.1985   80.3222  220.5851 H   0  0  0  0  0  0  0  0  0  0  0  0
  142.3888   80.9356  221.7249 H   0  0  0  0  0  0  0  0  0  0  0  0
  1  2  3  0
  2  3  1  0
  3  4  2  0
  4  5  1  0
  5  6  2  0
  6  7  1  0
  7  8  2  0
  8  9  1  0
  9 10  1  0
 10 11  1  0
 11 12  1  0
 12 13  2  0
 12 14  1  0
 14 15  1  0
 15 16  1  0
 16 17  2  0
 16 18  1  0
 18 19  2  0
 19 20  1  0
 20 21  2  0
 21 22  1  0
 22 23  2  0
 23 24  1  0
 23 25  1  0
 25 26  2  0
 26 27  1  0
 27 28  2  0
  9 29  1  0
 29 30  1  0
 30 31  1  0
 31 32  1  0
 32 33  1  0
  8  3  1  0
 28 18  1  0
 33 29  1  0
 27 21  1  0
  4 34  1  0
  5 35  1  0
  6 36  1  0
  7 37  1  0
  9 38  1  1
 10 39  1  0
 10 40  1  0
 11 41  1  0
 14 42  1  0
 14 43  1  0
 15 44  1  0
 19 45  1  0
 20 46  1  0
 22 47  1  0
 25 48  1  0
 26 49  1  0
 29 50  1  0
 30 51  1  0
 30 52  1  0
 31 53  1  0
 31 54  1  0
 32 55  1  0
 32 56  1  0
 33 57  1  0
 33 58  1  0
M  END
>  <smiles>  (14) 
N#Cc1ccccc1[C@H](CNC(=O)CNC(=O)c1ccc2cc(F)ccc2n1)C1CCCC1

>  <score_type>  (14) 
oracle

>  <origin>  (14) 
autodockgpu

>  <m_score__min__energy>  (14) 
-9.6899999999999995

>  <m_primary>  (14) 
energy

>  <rmsd>  (14) 
2.4825992779824757

>  <m_score__min__rmsd>  (14) 
2.4825992779824757

>  <meeko>  (14) 
{"free_energy": -9.03, "intermolecular_energy": -11.42, "internal_energy": -2.22, "cluster_size": 11, "cluster_id": 3, "rank_in_cluster": 2}

>  <energy>  (14) 
-9.24

>  <cluster_rmsd>  (14) 
1.95

>  <cluster>  (14) 
2

$$$$

     RDKit          3D

 58 61  0  0  0  0  0  0  0  0999 V2000
  143.4520   75.8170  219.8990 N   0  0  0  0  0  0  0  0  0  0  0  0
  143.0460   76.7630  219.3480 C   0  0  0  0  0  0  0  0  0  0  0  0
  142.5380   77.9170  218.6500 C   0  0  0  0  0  0  0  0  0  0  0  0
  142.6740   77.9740  217.2800 C   0  0  0  0  0  0  0  0  0  0  0  0
  142.1860   79.0800  216.6250 C   0  0  0  0  0  0  0  0  0  0  0  0
  141.5920   80.0650  217.3650 C   0  0  0  0  0  0  0  0  0  0  0  0
  141.4580   80.0000  218.7520 C   0  0  0  0  0  0  0  0  0  0  0  0
  141.9450   78.8980  219.4060 C   0  0  0  0  0  0  0  0  0  0  0  0
  141.8030   78.7260  220.9120 C   0  0  2  0  0  0  0  0  0  0  0  0
  140.5200   78.0350  221.1120 C   0  0  0  0  0  0  0  0  0  0  0  0
  140.3750   76.6940  220.6090 N   0  0  0  0  0  0  0  0  0  0  0  0
  140.0100   75.6150  221.4560 C   0  0  0  0  0  0  0  0  0  0  0  0
  139.8140   75.9060  222.6720 O   0  0  0  0  0  0  0  0  0  0  0  0
  139.8410   74.2230  221.0540 C   0  0  0  0  0  0  0  0  0  0  0  0
  139.7860   73.3580  222.2080 N   0  0  0  0  0  0  0  0  0  0  0  0
  140.0080   71.9470  222.1310 C   0  0  0  0  0  0  0  0  0  0  0  0
  140.2820   71.3710  221.0220 O   0  0  0  0  0  0  0  0  0  0  0  0
  139.9240   71.1260  223.3560 C   0  0  0  0  0  0  0  0  0  0  0  0
  139.3470   69.8810  223.3030 C   0  0  0  0  0  0  0  0  0  0  0  0
  139.2620   69.0970  224.4530 C   0  0  0  0  0  0  0  0  0  0  0  0
  139.7710   69.6140  225.6350 C   0  0  0  0  0  0  0  0  0  0  0  0
  139.7140   68.8780  226.8160 C   0  0  0  0  0  0  0  0  0  0  0  0
  140.2290   69.4130  227.9870 C   0  0  0  0  0  0  0  0  0  0  0  0
  140.1590   68.6720  229.1180 F   0  0  0  0  0  0  0  0  0  0  0  0
  140.8100   70.6760  228.0230 C   0  0  0  0  0  0  0  0  0  0  0  0
  140.8650   71.4000  226.8500 C   0  0  0  0  0  0  0  0  0  0  0  0
  140.3530   70.8770  225.6780 C   0  0  0  0  0  0  0  0  0  0  0  0
  140.4040   71.5810  224.5320 N   0  0  0  0  0  0  0  0  0  0  0  0
  142.1080   80.0010  221.5480 C   0  0  0  0  0  0  0  0  0  0  0  0
  143.0480   80.0030  222.7320 C   0  0  0  0  0  0  0  0  0  0  0  0
  142.1760   80.1090  223.9580 C   0  0  0  0  0  0  0  0  0  0  0  0
  140.7740   80.4620  223.4830 C   0  0  0  0  0  0  0  0  0  0  0  0
  140.9660   80.8640  222.0190 C   0  0  0  0  0  0  0  0  0  0  0  0
  143.1595   77.1573  216.7257 H   0  0  0  0  0  0  0  0  0  0  0  0
  142.2713   79.1705  215.5320 H   0  0  0  0  0  0  0  0  0  0  0  0
  141.2015   80.9503  216.8417 H   0  0  0  0  0  0  0  0  0  0  0  0
  140.9723   80.8150  219.3086 H   0  0  0  0  0  0  0  0  0  0  0  0
  142.5186   78.0750  221.4355 H   0  0  0  0  0  0  0  0  0  0  0  0
  140.3378   77.9964  222.1961 H   0  0  0  0  0  0  0  0  0  0  0  0
  139.8031   78.6230  220.5201 H   0  0  0  0  0  0  0  0  0  0  0  0
  140.5340   76.5260  219.6110 H   0  0  0  0  0  0  0  0  0  0  0  0
  138.9054   74.1235  220.4841 H   0  0  0  0  0  0  0  0  0  0  0  0
  140.7008   73.9287  220.4342 H   0  0  0  0  0  0  0  0  0  0  0  0
  139.5760   73.7240  223.1690 H   0  0  0  0  0  0  0  0  0  0  0  0
  138.9505   69.5008  222.3500 H   0  0  0  0  0  0  0  0  0  0  0  0
  138.8043   68.0972  224.4236 H   0  0  0  0  0  0  0  0  0  0  0  0
  139.2618   67.8753  226.8198 H   0  0  0  0  0  0  0  0  0  0  0  0
  141.2142   71.0861  228.9602 H   0  0  0  0  0  0  0  0  0  0  0  0
  141.3200   72.4015  226.8477 H   0  0  0  0  0  0  0  0  0  0  0  0
  142.5812   80.4134  220.6447 H   0  0  0  0  0  0  0  0  0  0  0  0
  143.6314   79.0708  222.7579 H   0  0  0  0  0  0  0  0  0  0  0  0
  143.7644   80.8358  222.6751 H   0  0  0  0  0  0  0  0  0  0  0  0
  142.1617   79.1489  224.4946 H   0  0  0  0  0  0  0  0  0  0  0  0
  142.5604   80.8766  224.6458 H   0  0  0  0  0  0  0  0  0  0  0  0
  140.1038   79.5936  223.5648 H   0  0  0  0  0  0  0  0  0  0  0  0
  140.3135   81.2606  224.0832 H   0  0  0  0  0  0  0  0  0  0  0  0
  140.0561   80.6603  221.4355 H   0  0  0  0  0  0  0  0  0  0  0  0
  141.1711   81.9381  221.8994 H   0  0  0  0  0  0  0  0  0  0  0  0
  1  2  3  0
  2  3  1  0
  3  4  2  0
  4  5  1  0
  5  6  2  0
  6  7  1  0
  7  8  2  0
  8  9  1  0
  9 10  1  0
 10 11  1  0
 11 12  1  0
 12 13  2  0
 12 14  1  0
 14 15  1  0
 15 16  1  0
 16 17  2  0
 16 18  1  0
 18 19  2  0
 19 20  1  0
 20 21  2  0
 21 22  1  0
 22 23  2  0
 23 24  1  0
 23 25  1  0
 25 26  2  0
 26 27  1  0
 27 28  2  0
  9 29  1  0
 29 30  1  0
 30 31  1  0
 31 32  1  0
 32 33  1  0
  8  3  1  0
 28 18  1  0
 33 29  1  0
 27 21  1  0
  4 34  1  0
  5 35  1  0
  6 36  1  0
  7 37  1  0
  9 38  1  1
 10 39  1  0
 10 40  1  0
 11 41  1  0
 14 42  1  0
 14 43  1  0
 15 44  1  0
 19 45  1  0
 20 46  1  0
 22 47  1  0
 25 48  1  0
 26 49  1  0
 29 50  1  0
 30 51  1  0
 30 52  1  0
 31 53  1  0
 31 54  1  0
 32 55  1  0
 32 56  1  0
 33 57  1  0
 33 58  1  0
M  END
>  <smiles>  (15) 
N#Cc1ccccc1[C@H](CNC(=O)CNC(=O)c1ccc2cc(F)ccc2n1)C1CCCC1

>  <score_type>  (15) 
oracle

>  <origin>  (15) 
autodockgpu

>  <m_score__min__energy>  (15) 
-9.6899999999999995

>  <m_primary>  (15) 
energy

>  <rmsd>  (15) 
2.7379595580524403

>  <m_score__min__rmsd>  (15) 
2.7379595580524403

>  <meeko>  (15) 
{"free_energy": -9.11, "intermolecular_energy": -11.5, "internal_energy": -2.47, "cluster_size": 11, "cluster_id": 3, "rank_in_cluster": 1}

>  <energy>  (15) 
-9.15

>  <cluster_rmsd>  (15) 
1.95

>  <cluster>  (15) 
2

$$$$

     RDKit          3D

 58 61  0  0  0  0  0  0  0  0999 V2000
  142.9400   76.5830  219.1850 N   0  0  0  0  0  0  0  0  0  0  0  0
  142.6000   77.6840  218.9960 C   0  0  0  0  0  0  0  0  0  0  0  0
  142.1970   79.0450  218.7470 C   0  0  0  0  0  0  0  0  0  0  0  0
  142.5280   79.6220  217.5400 C   0  0  0  0  0  0  0  0  0  0  0  0
  142.1390   80.9210  217.3140 C   0  0  0  0  0  0  0  0  0  0  0  0
  141.4450   81.5730  218.2960 C   0  0  0  0  0  0  0  0  0  0  0  0
  141.1130   80.9810  219.5150 C   0  0  0  0  0  0  0  0  0  0  0  0
  141.5020   79.6860  219.7420 C   0  0  0  0  0  0  0  0  0  0  0  0
  141.1450   78.9510  221.0260 C   0  0  2  0  0  0  0  0  0  0  0  0
  140.0450   78.0430  220.6700 C   0  0  0  0  0  0  0  0  0  0  0  0
  140.3600   76.6800  220.3300 N   0  0  0  0  0  0  0  0  0  0  0  0
  140.1540   75.6160  221.2470 C   0  0  0  0  0  0  0  0  0  0  0  0
  139.6720   75.9380  222.3720 O   0  0  0  0  0  0  0  0  0  0  0  0
  140.4430   74.2070  221.0090 C   0  0  0  0  0  0  0  0  0  0  0  0
  140.1800   73.4210  222.1910 N   0  0  0  0  0  0  0  0  0  0  0  0
  140.5980   72.0600  222.3280 C   0  0  0  0  0  0  0  0  0  0  0  0
  141.2430   71.4610  221.4000 O   0  0  0  0  0  0  0  0  0  0  0  0
  140.2820   71.3190  223.5650 C   0  0  0  0  0  0  0  0  0  0  0  0
  139.5720   70.1450  223.4940 C   0  0  0  0  0  0  0  0  0  0  0  0
  139.2690   69.4370  224.6570 C   0  0  0  0  0  0  0  0  0  0  0  0
  139.7000   69.9550  225.8680 C   0  0  0  0  0  0  0  0  0  0  0  0
  139.4260   69.2920  227.0630 C   0  0  0  0  0  0  0  0  0  0  0  0
  139.8670   69.8270  228.2640 C   0  0  0  0  0  0  0  0  0  0  0  0
  139.5840   69.1590  229.4080 F   0  0  0  0  0  0  0  0  0  0  0  0
  140.5840   71.0180  228.3180 C   0  0  0  0  0  0  0  0  0  0  0  0
  140.8530   71.6690  227.1320 C   0  0  0  0  0  0  0  0  0  0  0  0
  140.4180   71.1460  225.9300 C   0  0  0  0  0  0  0  0  0  0  0  0
  140.6780   71.7790  224.7700 N   0  0  0  0  0  0  0  0  0  0  0  0
  141.0280   79.9330  222.0980 C   0  0  0  0  0  0  0  0  0  0  0  0
  142.2460   80.7580  222.4470 C   0  0  0  0  0  0  0  0  0  0  0  0
  142.8300   80.1340  223.6900 C   0  0  0  0  0  0  0  0  0  0  0  0
  141.8010   79.1460  224.2230 C   0  0  0  0  0  0  0  0  0  0  0  0
  140.5270   79.4770  223.4430 C   0  0  0  0  0  0  0  0  0  0  0  0
  143.0878   79.0589  216.7787 H   0  0  0  0  0  0  0  0  0  0  0  0
  142.3801   81.4241  216.3660 H   0  0  0  0  0  0  0  0  0  0  0  0
  141.1341   82.6127  218.1162 H   0  0  0  0  0  0  0  0  0  0  0  0
  140.5514   81.5410  220.2773 H   0  0  0  0  0  0  0  0  0  0  0  0
  141.8915   78.2740  221.4669 H   0  0  0  0  0  0  0  0  0  0  0  0
  139.3585   78.0127  221.5289 H   0  0  0  0  0  0  0  0  0  0  0  0
  139.6391   78.4651  219.7388 H   0  0  0  0  0  0  0  0  0  0  0  0
  140.7350   76.4830  219.3980 H   0  0  0  0  0  0  0  0  0  0  0  0
  139.8098   73.8433  220.1863 H   0  0  0  0  0  0  0  0  0  0  0  0
  141.5069   74.1053  220.7485 H   0  0  0  0  0  0  0  0  0  0  0  0
  139.6640   73.8140  223.0170 H   0  0  0  0  0  0  0  0  0  0  0  0
  139.2415   69.7622  222.5171 H   0  0  0  0  0  0  0  0  0  0  0  0
  138.7039   68.4942  224.6142 H   0  0  0  0  0  0  0  0  0  0  0  0
  138.8619   68.3477  227.0535 H   0  0  0  0  0  0  0  0  0  0  0  0
  140.9267   71.4289  229.2791 H   0  0  0  0  0  0  0  0  0  0  0  0
  141.4186   72.6124  227.1437 H   0  0  0  0  0  0  0  0  0  0  0  0
  140.2689   80.5237  221.5643 H   0  0  0  0  0  0  0  0  0  0  0  0
  142.9763   80.7276  221.6250 H   0  0  0  0  0  0  0  0  0  0  0  0
  141.9835   81.8134  222.6118 H   0  0  0  0  0  0  0  0  0  0  0  0
  143.7650   79.6090  223.4447 H   0  0  0  0  0  0  0  0  0  0  0  0
  143.0598   80.9029  224.4423 H   0  0  0  0  0  0  0  0  0  0  0  0
  142.1182   78.1103  224.0314 H   0  0  0  0  0  0  0  0  0  0  0  0
  141.6626   79.2264  225.3113 H   0  0  0  0  0  0  0  0  0  0  0  0
  139.8892   78.5866  223.3408 H   0  0  0  0  0  0  0  0  0  0  0  0
  139.9107   80.2379  223.9442 H   0  0  0  0  0  0  0  0  0  0  0  0
  1  2  3  0
  2  3  1  0
  3  4  2  0
  4  5  1  0
  5  6  2  0
  6  7  1  0
  7  8  2  0
  8  9  1  0
  9 10  1  0
 10 11  1  0
 11 12  1  0
 12 13  2  0
 12 14  1  0
 14 15  1  0
 15 16  1  0
 16 17  2  0
 16 18  1  0
 18 19  2  0
 19 20  1  0
 20 21  2  0
 21 22  1  0
 22 23  2  0
 23 24  1  0
 23 25  1  0
 25 26  2  0
 26 27  1  0
 27 28  2  0
  9 29  1  0
 29 30  1  0
 30 31  1  0
 31 32  1  0
 32 33  1  0
  8  3  1  0
 28 18  1  0
 33 29  1  0
 27 21  1  0
  4 34  1  0
  5 35  1  0
  6 36  1  0
  7 37  1  0
  9 38  1  1
 10 39  1  0
 10 40  1  0
 11 41  1  0
 14 42  1  0
 14 43  1  0
 15 44  1  0
 19 45  1  0
 20 46  1  0
 22 47  1  0
 25 48  1  0
 26 49  1  0
 29 50  1  0
 30 51  1  0
 30 52  1  0
 31 53  1  0
 31 54  1  0
 32 55  1  0
 32 56  1  0
 33 57  1  0
 33 58  1  0
M  END
>  <smiles>  (16) 
N#Cc1ccccc1[C@H](CNC(=O)CNC(=O)c1ccc2cc(F)ccc2n1)C1CCCC1

>  <score_type>  (16) 
oracle

>  <origin>  (16) 
autodockgpu

>  <m_score__min__energy>  (16) 
-9.6899999999999995

>  <m_primary>  (16) 
energy

>  <rmsd>  (16) 
2.890466348638416

>  <m_score__min__rmsd>  (16) 
2.890466348638416

>  <meeko>  (16) 
{"free_energy": -8.96, "intermolecular_energy": -11.34, "internal_energy": -2.72, "cluster_size": 11, "cluster_id": 3, "rank_in_cluster": 3}

>  <energy>  (16) 
-9.09

>  <cluster_rmsd>  (16) 
0.55

>  <cluster>  (16) 
2

$$$$

     RDKit          3D

 58 61  0  0  0  0  0  0  0  0999 V2000
  139.2930   67.3670  225.3850 N   0  0  0  0  0  0  0  0  0  0  0  0
  139.6760   68.3580  225.8680 C   0  0  0  0  0  0  0  0  0  0  0  0
  140.1710   69.5720  226.4650 C   0  0  0  0  0  0  0  0  0  0  0  0
  140.6240   69.5320  227.7660 C   0  0  0  0  0  0  0  0  0  0  0  0
  141.0930   70.6970  228.3260 C   0  0  0  0  0  0  0  0  0  0  0  0
  141.0850   71.8340  227.5640 C   0  0  0  0  0  0  0  0  0  0  0  0
  140.6250   71.8660  226.2480 C   0  0  0  0  0  0  0  0  0  0  0  0
  140.1560   70.7050  225.6890 C   0  0  0  0  0  0  0  0  0  0  0  0
  139.6740   70.6410  224.2470 C   0  0  2  0  0  0  0  0  0  0  0  0
  140.6710   71.3890  223.4640 C   0  0  0  0  0  0  0  0  0  0  0  0
  140.2130   72.4360  222.5890 N   0  0  0  0  0  0  0  0  0  0  0  0
  140.8400   72.6920  221.3410 C   0  0  0  0  0  0  0  0  0  0  0  0
  141.8150   71.9410  221.0460 O   0  0  0  0  0  0  0  0  0  0  0  0
  140.4620   73.7260  220.3840 C   0  0  0  0  0  0  0  0  0  0  0  0
  140.6760   75.0410  220.9390 N   0  0  0  0  0  0  0  0  0  0  0  0
  139.7890   75.6360  221.8910 C   0  0  0  0  0  0  0  0  0  0  0  0
  138.7500   75.0210  222.3140 O   0  0  0  0  0  0  0  0  0  0  0  0
  140.0700   76.9910  222.4050 C   0  0  0  0  0  0  0  0  0  0  0  0
  139.0410   77.7660  222.8810 C   0  0  0  0  0  0  0  0  0  0  0  0
  139.2950   79.0480  223.3690 C   0  0  0  0  0  0  0  0  0  0  0  0
  140.6040   79.5050  223.3530 C   0  0  0  0  0  0  0  0  0  0  0  0
  140.9190   80.7770  223.8270 C   0  0  0  0  0  0  0  0  0  0  0  0
  142.2340   81.2150  223.8020 C   0  0  0  0  0  0  0  0  0  0  0  0
  142.5070   82.4560  224.2690 F   0  0  0  0  0  0  0  0  0  0  0  0
  143.2640   80.4170  223.3150 C   0  0  0  0  0  0  0  0  0  0  0  0
  142.9470   79.1580  222.8480 C   0  0  0  0  0  0  0  0  0  0  0  0
  141.6390   78.7130  222.8670 C   0  0  0  0  0  0  0  0  0  0  0  0
  141.3260   77.4850  222.4120 N   0  0  0  0  0  0  0  0  0  0  0  0
  138.2560   70.9760  224.2240 C   0  0  0  0  0  0  0  0  0  0  0  0
  137.2750   69.9690  224.7820 C   0  0  0  0  0  0  0  0  0  0  0  0
  136.6720   69.2690  223.5890 C   0  0  0  0  0  0  0  0  0  0  0  0
  137.0750   70.0590  222.3520 C   0  0  0  0  0  0  0  0  0  0  0  0
  137.6290   71.3710  222.9130 C   0  0  0  0  0  0  0  0  0  0  0  0
  140.6107   68.5941  228.3405 H   0  0  0  0  0  0  0  0  0  0  0  0
  141.4654   70.7148  229.3609 H   0  0  0  0  0  0  0  0  0  0  0  0
  141.4592   72.7668  228.0110 H   0  0  0  0  0  0  0  0  0  0  0  0
  140.6381   72.8023  225.6708 H   0  0  0  0  0  0  0  0  0  0  0  0
  139.6477   69.6624  223.7454 H   0  0  0  0  0  0  0  0  0  0  0  0
  141.3693   71.8467  224.1802 H   0  0  0  0  0  0  0  0  0  0  0  0
  141.0978   70.6373  222.7837 H   0  0  0  0  0  0  0  0  0  0  0  0
  139.4090   73.0000  222.8800 H   0  0  0  0  0  0  0  0  0  0  0  0
  141.0704   73.6152  219.4743 H   0  0  0  0  0  0  0  0  0  0  0  0
  139.3939   73.6131  220.1465 H   0  0  0  0  0  0  0  0  0  0  0  0
  141.5000   75.6330  220.6680 H   0  0  0  0  0  0  0  0  0  0  0  0
  138.0130   77.3746  222.8775 H   0  0  0  0  0  0  0  0  0  0  0  0
  138.4803   79.6781  223.7553 H   0  0  0  0  0  0  0  0  0  0  0  0
  140.1268   81.4314  224.2197 H   0  0  0  0  0  0  0  0  0  0  0  0
  144.3024   80.7796  223.3025 H   0  0  0  0  0  0  0  0  0  0  0  0
  143.7409   78.5041  222.4579 H   0  0  0  0  0  0  0  0  0  0  0  0
  138.3817   71.8431  224.8891 H   0  0  0  0  0  0  0  0  0  0  0  0
  137.7954   69.2454  225.4267 H   0  0  0  0  0  0  0  0  0  0  0  0
  136.5028   70.4565  225.3952 H   0  0  0  0  0  0  0  0  0  0  0  0
  137.0568   68.2407  223.5213 H   0  0  0  0  0  0  0  0  0  0  0  0
  135.5769   69.2170  223.6793 H   0  0  0  0  0  0  0  0  0  0  0  0
  137.8459   69.5223  221.7796 H   0  0  0  0  0  0  0  0  0  0  0  0
  136.2355   70.2166  221.6589 H   0  0  0  0  0  0  0  0  0  0  0  0
  138.3812   71.7990  222.2340 H   0  0  0  0  0  0  0  0  0  0  0  0
  136.8516   72.1401  223.0322 H   0  0  0  0  0  0  0  0  0  0  0  0
  1  2  3  0
  2  3  1  0
  3  4  2  0
  4  5  1  0
  5  6  2  0
  6  7  1  0
  7  8  2  0
  8  9  1  0
  9 10  1  0
 10 11  1  0
 11 12  1  0
 12 13  2  0
 12 14  1  0
 14 15  1  0
 15 16  1  0
 16 17  2  0
 16 18  1  0
 18 19  2  0
 19 20  1  0
 20 21  2  0
 21 22  1  0
 22 23  2  0
 23 24  1  0
 23 25  1  0
 25 26  2  0
 26 27  1  0
 27 28  2  0
  9 29  1  0
 29 30  1  0
 30 31  1  0
 31 32  1  0
 32 33  1  0
  8  3  1  0
 28 18  1  0
 33 29  1  0
 27 21  1  0
  4 34  1  0
  5 35  1  0
  6 36  1  0
  7 37  1  0
  9 38  1  6
 10 39  1  0
 10 40  1  0
 11 41  1  0
 14 42  1  0
 14 43  1  0
 15 44  1  0
 19 45  1  0
 20 46  1  0
 22 47  1  0
 25 48  1  0
 26 49  1  0
 29 50  1  0
 30 51  1  0
 30 52  1  0
 31 53  1  0
 31 54  1  0
 32 55  1  0
 32 56  1  0
 33 57  1  0
 33 58  1  0
M  END
>  <smiles>  (17) 
N#Cc1ccccc1[C@H](CNC(=O)CNC(=O)c1ccc2cc(F)ccc2n1)C1CCCC1

>  <score_type>  (17) 
oracle

>  <origin>  (17) 
autodockgpu

>  <m_score__min__energy>  (17) 
-9.6899999999999995

>  <m_primary>  (17) 
energy

>  <rmsd>  (17) 
8.636674235816143

>  <m_score__min__rmsd>  (17) 
8.636674235816143

>  <meeko>  (17) 
{"free_energy": -9.57, "intermolecular_energy": -11.95, "internal_energy": -2.67, "cluster_size": 10, "cluster_id": 1, "rank_in_cluster": 2}

>  <energy>  (17) 
-9.02

>  <cluster_rmsd>  (17) 
1.84

>  <cluster>  (17) 
2

$$$$

     RDKit          3D

 58 61  0  0  0  0  0  0  0  0999 V2000
  140.3420   82.6650  221.0950 N   0  0  0  0  0  0  0  0  0  0  0  0
  139.5520   82.1130  221.7530 C   0  0  0  0  0  0  0  0  0  0  0  0
  138.5920   81.4290  222.5810 C   0  0  0  0  0  0  0  0  0  0  0  0
  137.6840   82.1780  223.2980 C   0  0  0  0  0  0  0  0  0  0  0  0
  136.7730   81.5150  224.0860 C   0  0  0  0  0  0  0  0  0  0  0  0
  136.8140   80.1480  224.1170 C   0  0  0  0  0  0  0  0  0  0  0  0
  137.7360   79.3960  223.3880 C   0  0  0  0  0  0  0  0  0  0  0  0
  138.6460   80.0570  222.6030 C   0  0  0  0  0  0  0  0  0  0  0  0
  139.6580   79.3150  221.7440 C   0  0  2  0  0  0  0  0  0  0  0  0
  138.8830   78.3100  220.9990 C   0  0  0  0  0  0  0  0  0  0  0  0
  139.5310   77.0800  220.6250 N   0  0  0  0  0  0  0  0  0  0  0  0
  139.4080   75.9030  221.4100 C   0  0  0  0  0  0  0  0  0  0  0  0
  138.6920   76.0020  222.4490 O   0  0  0  0  0  0  0  0  0  0  0  0
  140.0240   74.6120  221.1280 C   0  0  0  0  0  0  0  0  0  0  0  0
  139.8690   73.7140  222.2470 N   0  0  0  0  0  0  0  0  0  0  0  0
  140.4410   72.4030  222.2750 C   0  0  0  0  0  0  0  0  0  0  0  0
  141.1380   71.9550  221.3000 O   0  0  0  0  0  0  0  0  0  0  0  0
  140.2290   71.5380  223.4530 C   0  0  0  0  0  0  0  0  0  0  0  0
  139.5620   70.3460  223.3110 C   0  0  0  0  0  0  0  0  0  0  0  0
  139.3560   69.5210  224.4170 C   0  0  0  0  0  0  0  0  0  0  0  0
  139.8400   69.9430  225.6460 C   0  0  0  0  0  0  0  0  0  0  0  0
  139.6640   69.1620  226.7860 C   0  0  0  0  0  0  0  0  0  0  0  0
  140.1560   69.6020  228.0050 C   0  0  0  0  0  0  0  0  0  0  0  0
  139.9690   68.8200  229.0940 F   0  0  0  0  0  0  0  0  0  0  0  0
  140.8290   70.8130  228.1310 C   0  0  0  0  0  0  0  0  0  0  0  0
  141.0010   71.5820  226.9980 C   0  0  0  0  0  0  0  0  0  0  0  0
  140.5140   71.1530  225.7790 C   0  0  0  0  0  0  0  0  0  0  0  0
  140.6800   71.9010  224.6720 N   0  0  0  0  0  0  0  0  0  0  0  0
  140.7950   78.9550  222.5830 C   0  0  0  0  0  0  0  0  0  0  0  0
  140.9110   79.6020  223.9440 C   0  0  0  0  0  0  0  0  0  0  0  0
  141.9370   80.6990  223.7990 C   0  0  0  0  0  0  0  0  0  0  0  0
  142.6210   80.4990  222.4540 C   0  0  0  0  0  0  0  0  0  0  0  0
  142.1830   79.0990  222.0170 C   0  0  0  0  0  0  0  0  0  0  0  0
  137.6881   83.2765  223.2414 H   0  0  0  0  0  0  0  0  0  0  0  0
  136.0295   82.0701  224.6769 H   0  0  0  0  0  0  0  0  0  0  0  0
  136.0854   79.6163  224.7466 H   0  0  0  0  0  0  0  0  0  0  0  0
  137.7331   78.2973  223.4417 H   0  0  0  0  0  0  0  0  0  0  0  0
  140.1759   79.8699  220.9478 H   0  0  0  0  0  0  0  0  0  0  0  0
  138.0151   78.0437  221.6201 H   0  0  0  0  0  0  0  0  0  0  0  0
  138.6609   78.7993  220.0392 H   0  0  0  0  0  0  0  0  0  0  0  0
  140.0860   77.0620  219.7640 H   0  0  0  0  0  0  0  0  0  0  0  0
  139.5450   74.1699  220.2420 H   0  0  0  0  0  0  0  0  0  0  0  0
  141.0979   74.7663  220.9463 H   0  0  0  0  0  0  0  0  0  0  0  0
  139.3230   73.9800  223.1040 H   0  0  0  0  0  0  0  0  0  0  0  0
  139.1890   70.0408  222.3222 H   0  0  0  0  0  0  0  0  0  0  0  0
  138.8247   68.5630  224.3170 H   0  0  0  0  0  0  0  0  0  0  0  0
  139.1363   68.1992  226.7191 H   0  0  0  0  0  0  0  0  0  0  0  0
  141.2130   71.1480  229.1058 H   0  0  0  0  0  0  0  0  0  0  0  0
  141.5301   72.5440  227.0664 H   0  0  0  0  0  0  0  0  0  0  0  0
  140.4952   77.8989  222.6525 H   0  0  0  0  0  0  0  0  0  0  0  0
  139.9422   80.0233  224.2504 H   0  0  0  0  0  0  0  0  0  0  0  0
  141.2079   78.8726  224.7120 H   0  0  0  0  0  0  0  0  0  0  0  0
  141.4446   81.6822  223.8291 H   0  0  0  0  0  0  0  0  0  0  0  0
  142.6688   80.6607  224.6193 H   0  0  0  0  0  0  0  0  0  0  0  0
  142.2871   81.2565  221.7296 H   0  0  0  0  0  0  0  0  0  0  0  0
  143.7146   80.5986  222.5176 H   0  0  0  0  0  0  0  0  0  0  0  0
  142.1676   79.0193  220.9200 H   0  0  0  0  0  0  0  0  0  0  0  0
  142.8667   78.3132  222.3706 H   0  0  0  0  0  0  0  0  0  0  0  0
  1  2  3  0
  2  3  1  0
  3  4  2  0
  4  5  1  0
  5  6  2  0
  6  7  1  0
  7  8  2  0
  8  9  1  0
  9 10  1  0
 10 11  1  0
 11 12  1  0
 12 13  2  0
 12 14  1  0
 14 15  1  0
 15 16  1  0
 16 17  2  0
 16 18  1  0
 18 19  2  0
 19 20  1  0
 20 21  2  0
 21 22  1  0
 22 23  2  0
 23 24  1  0
 23 25  1  0
 25 26  2  0
 26 27  1  0
 27 28  2  0
  9 29  1  0
 29 30  1  0
 30 31  1  0
 31 32  1  0
 32 33  1  0
  8  3  1  0
 28 18  1  0
 33 29  1  0
 27 21  1  0
  4 34  1  0
  5 35  1  0
  6 36  1  0
  7 37  1  0
  9 38  1  6
 10 39  1  0
 10 40  1  0
 11 41  1  0
 14 42  1  0
 14 43  1  0
 15 44  1  0
 19 45  1  0
 20 46  1  0
 22 47  1  0
 25 48  1  0
 26 49  1  0
 29 50  1  0
 30 51  1  0
 30 52  1  0
 31 53  1  0
 31 54  1  0
 32 55  1  0
 32 56  1  0
 33 57  1  0
 33 58  1  0
M  END
>  <smiles>  (18) 
N#Cc1ccccc1[C@H](CNC(=O)CNC(=O)c1ccc2cc(F)ccc2n1)C1CCCC1

>  <score_type>  (18) 
oracle

>  <origin>  (18) 
autodockgpu

>  <m_score__min__energy>  (18) 
-9.6899999999999995

>  <m_primary>  (18) 
energy

>  <rmsd>  (18) 
3.151920906129618

>  <m_score__min__rmsd>  (18) 
3.151920906129618

>  <meeko>  (18) 
{"free_energy": -8.57, "intermolecular_energy": -10.95, "internal_energy": -2.6, "cluster_size": 14, "cluster_id": 2, "rank_in_cluster": 10}

>  <energy>  (18) 
-8.59

>  <cluster_rmsd>  (18) 
1.26

>  <cluster>  (18) 
2

$$$$

     RDKit          3D

 58 61  0  0  0  0  0  0  0  0999 V2000
  138.1430   80.5830  224.0210 N   0  0  0  0  0  0  0  0  0  0  0  0
  139.2880   80.4730  223.8230 C   0  0  0  0  0  0  0  0  0  0  0  0
  140.7030   80.3610  223.5750 C   0  0  0  0  0  0  0  0  0  0  0  0
  141.5480   81.2960  224.1350 C   0  0  0  0  0  0  0  0  0  0  0  0
  142.8960   81.1800  223.8910 C   0  0  0  0  0  0  0  0  0  0  0  0
  143.3280   80.1450  223.1080 C   0  0  0  0  0  0  0  0  0  0  0  0
  142.4670   79.2030  222.5460 C   0  0  0  0  0  0  0  0  0  0  0  0
  141.1220   79.3190  222.7870 C   0  0  0  0  0  0  0  0  0  0  0  0
  140.1170   78.3110  222.2480 C   0  0  2  0  0  0  0  0  0  0  0  0
  140.6490   76.9880  222.6110 C   0  0  0  0  0  0  0  0  0  0  0  0
  139.7620   75.8560  222.5730 N   0  0  0  0  0  0  0  0  0  0  0  0
  139.4090   75.2260  221.3500 C   0  0  0  0  0  0  0  0  0  0  0  0
  139.9260   75.7160  220.3040 O   0  0  0  0  0  0  0  0  0  0  0  0
  138.5180   74.0820  221.1980 C   0  0  0  0  0  0  0  0  0  0  0  0
  138.6710   73.1610  222.2990 N   0  0  0  0  0  0  0  0  0  0  0  0
  139.8160   72.3170  222.4520 C   0  0  0  0  0  0  0  0  0  0  0  0
  140.7820   72.3400  221.6140 O   0  0  0  0  0  0  0  0  0  0  0  0
  139.8950   71.3930  223.6010 C   0  0  0  0  0  0  0  0  0  0  0  0
  139.4890   70.0890  223.4560 C   0  0  0  0  0  0  0  0  0  0  0  0
  139.5580   69.2080  224.5340 C   0  0  0  0  0  0  0  0  0  0  0  0
  140.0420   69.6890  225.7410 C   0  0  0  0  0  0  0  0  0  0  0  0
  140.1350   68.8560  226.8540 C   0  0  0  0  0  0  0  0  0  0  0  0
  140.6220   69.3580  228.0510 C   0  0  0  0  0  0  0  0  0  0  0  0
  140.6990   68.5230  229.1140 F   0  0  0  0  0  0  0  0  0  0  0  0
  141.0280   70.6820  228.1810 C   0  0  0  0  0  0  0  0  0  0  0  0
  140.9350   71.5020  227.0760 C   0  0  0  0  0  0  0  0  0  0  0  0
  140.4500   71.0130  225.8780 C   0  0  0  0  0  0  0  0  0  0  0  0
  140.3580   71.8110  224.7970 N   0  0  0  0  0  0  0  0  0  0  0  0
  139.8010   78.6720  220.8710 C   0  0  0  0  0  0  0  0  0  0  0  0
  140.4510   79.9070  220.2890 C   0  0  0  0  0  0  0  0  0  0  0  0
  139.4040   80.9920  220.3410 C   0  0  0  0  0  0  0  0  0  0  0  0
  138.0780   80.3220  220.6730 C   0  0  0  0  0  0  0  0  0  0  0  0
  138.3560   78.8300  220.4800 C   0  0  0  0  0  0  0  0  0  0  0  0
  141.1545   82.1117  224.7593 H   0  0  0  0  0  0  0  0  0  0  0  0
  143.6096   81.9018  224.3150 H   0  0  0  0  0  0  0  0  0  0  0  0
  144.4064   80.0512  222.9122 H   0  0  0  0  0  0  0  0  0  0  0  0
  142.8580   78.3850  221.9232 H   0  0  0  0  0  0  0  0  0  0  0  0
  139.1053   78.2975  222.6796 H   0  0  0  0  0  0  0  0  0  0  0  0
  141.4798   76.7724  221.9230 H   0  0  0  0  0  0  0  0  0  0  0  0
  140.9127   77.0870  223.6743 H   0  0  0  0  0  0  0  0  0  0  0  0
  139.3870   75.4980  223.4560 H   0  0  0  0  0  0  0  0  0  0  0  0
  137.4774   74.4373  221.1675 H   0  0  0  0  0  0  0  0  0  0  0  0
  138.7727   73.5594  220.2642 H   0  0  0  0  0  0  0  0  0  0  0  0
  137.9430   73.0640  223.0490 H   0  0  0  0  0  0  0  0  0  0  0  0
  139.1079   69.7385  222.4855 H   0  0  0  0  0  0  0  0  0  0  0  0
  139.2375   68.1609  224.4301 H   0  0  0  0  0  0  0  0  0  0  0  0
  139.8230   67.8035  226.7832 H   0  0  0  0  0  0  0  0  0  0  0  0
  141.4124   71.0642  229.1381 H   0  0  0  0  0  0  0  0  0  0  0  0
  141.2494   72.5536  227.1489 H   0  0  0  0  0  0  0  0  0  0  0  0
  140.2310   77.7468  220.4597 H   0  0  0  0  0  0  0  0  0  0  0  0
  141.3290   80.1942  220.8862 H   0  0  0  0  0  0  0  0  0  0  0  0
  140.7992   79.7322  219.2603 H   0  0  0  0  0  0  0  0  0  0  0  0
  139.6605   81.7263  221.1188 H   0  0  0  0  0  0  0  0  0  0  0  0
  139.3435   81.5228  219.3795 H   0  0  0  0  0  0  0  0  0  0  0  0
  137.7828   80.5332  221.7114 H   0  0  0  0  0  0  0  0  0  0  0  0
  137.2526   80.6830  220.0419 H   0  0  0  0  0  0  0  0  0  0  0  0
  137.7072   78.2246  221.1300 H   0  0  0  0  0  0  0  0  0  0  0  0
  138.1577   78.4932  219.4518 H   0  0  0  0  0  0  0  0  0  0  0  0
  1  2  3  0
  2  3  1  0
  3  4  2  0
  4  5  1  0
  5  6  2  0
  6  7  1  0
  7  8  2  0
  8  9  1  0
  9 10  1  0
 10 11  1  0
 11 12  1  0
 12 13  2  0
 12 14  1  0
 14 15  1  0
 15 16  1  0
 16 17  2  0
 16 18  1  0
 18 19  2  0
 19 20  1  0
 20 21  2  0
 21 22  1  0
 22 23  2  0
 23 24  1  0
 23 25  1  0
 25 26  2  0
 26 27  1  0
 27 28  2  0
  9 29  1  0
 29 30  1  0
 30 31  1  0
 31 32  1  0
 32 33  1  0
  8  3  1  0
 28 18  1  0
 33 29  1  0
 27 21  1  0
  4 34  1  0
  5 35  1  0
  6 36  1  0
  7 37  1  0
  9 38  1  1
 10 39  1  0
 10 40  1  0
 11 41  1  0
 14 42  1  0
 14 43  1  0
 15 44  1  0
 19 45  1  0
 20 46  1  0
 22 47  1  0
 25 48  1  0
 26 49  1  0
 29 50  1  0
 30 51  1  0
 30 52  1  0
 31 53  1  0
 31 54  1  0
 32 55  1  0
 32 56  1  0
 33 57  1  0
 33 58  1  0
M  END
>  <smiles>  (19) 
N#Cc1ccccc1[C@H](CNC(=O)CNC(=O)c1ccc2cc(F)ccc2n1)C1CCCC1

>  <score_type>  (19) 
oracle

>  <origin>  (19) 
autodockgpu

>  <m_score__min__energy>  (19) 
-9.6899999999999995

>  <m_primary>  (19) 
energy

>  <rmsd>  (19) 
2.8166695013260514

>  <m_score__min__rmsd>  (19) 
2.8166695013260514

>  <meeko>  (19) 
{"free_energy": -9.02, "intermolecular_energy": -11.41, "internal_energy": -2.02, "cluster_size": 14, "cluster_id": 2, "rank_in_cluster": 7}

>  <energy>  (19) 
-8.58

>  <cluster_rmsd>  (19) 
1.27

>  <cluster>  (19) 
2

$$$$

     RDKit          3D

 58 61  0  0  0  0  0  0  0  0999 V2000
  141.7820   80.2880  218.8200 N   0  0  0  0  0  0  0  0  0  0  0  0
  141.8070   79.9270  219.9290 C   0  0  0  0  0  0  0  0  0  0  0  0
  141.8260   79.5000  221.3050 C   0  0  0  0  0  0  0  0  0  0  0  0
  142.4230   80.3150  222.2430 C   0  0  0  0  0  0  0  0  0  0  0  0
  142.4350   79.8970  223.5520 C   0  0  0  0  0  0  0  0  0  0  0  0
  141.8550   78.6960  223.8570 C   0  0  0  0  0  0  0  0  0  0  0  0
  141.2520   77.8770  222.9020 C   0  0  0  0  0  0  0  0  0  0  0  0
  141.2410   78.2920  221.5960 C   0  0  0  0  0  0  0  0  0  0  0  0
  140.5680   77.4810  220.4980 C   0  0  2  0  0  0  0  0  0  0  0  0
  139.2040   77.2160  220.9810 C   0  0  0  0  0  0  0  0  0  0  0  0
  138.6280   75.9190  220.7400 N   0  0  0  0  0  0  0  0  0  0  0  0
  139.0410   74.7730  221.4690 C   0  0  0  0  0  0  0  0  0  0  0  0
  139.9360   74.9640  222.3440 O   0  0  0  0  0  0  0  0  0  0  0  0
  138.5310   73.4180  221.3030 C   0  0  0  0  0  0  0  0  0  0  0  0
  138.9200   72.5820  222.4140 N   0  0  0  0  0  0  0  0  0  0  0  0
  138.6180   71.1850  222.4770 C   0  0  0  0  0  0  0  0  0  0  0  0
  137.9870   70.5920  221.5360 O   0  0  0  0  0  0  0  0  0  0  0  0
  139.0420   70.3990  223.6530 C   0  0  0  0  0  0  0  0  0  0  0  0
  138.8110   69.0450  223.6860 C   0  0  0  0  0  0  0  0  0  0  0  0
  139.2070   68.2920  224.7910 C   0  0  0  0  0  0  0  0  0  0  0  0
  139.8300   68.9500  225.8400 C   0  0  0  0  0  0  0  0  0  0  0  0
  140.2480   68.2510  226.9710 C   0  0  0  0  0  0  0  0  0  0  0  0
  140.8690   68.9290  228.0090 C   0  0  0  0  0  0  0  0  0  0  0  0
  141.2630   68.2210  229.0940 F   0  0  0  0  0  0  0  0  0  0  0  0
  141.0940   70.3000  227.9590 C   0  0  0  0  0  0  0  0  0  0  0  0
  140.6800   70.9870  226.8370 C   0  0  0  0  0  0  0  0  0  0  0  0
  140.0580   70.3220  225.7980 C   0  0  0  0  0  0  0  0  0  0  0  0
  139.6520   70.9900  224.7010 N   0  0  0  0  0  0  0  0  0  0  0  0
  141.4740   76.4110  220.1000 C   0  0  0  0  0  0  0  0  0  0  0  0
  142.9100   76.7690  219.7890 C   0  0  0  0  0  0  0  0  0  0  0  0
  143.0130   76.8080  218.2850 C   0  0  0  0  0  0  0  0  0  0  0  0
  141.7360   76.1940  217.7290 C   0  0  0  0  0  0  0  0  0  0  0  0
  141.0850   75.5280  218.9430 C   0  0  0  0  0  0  0  0  0  0  0  0
  142.8773   81.2735  221.9516 H   0  0  0  0  0  0  0  0  0  0  0  0
  142.8998   80.5132  224.3358 H   0  0  0  0  0  0  0  0  0  0  0  0
  141.8646   78.3603  224.9045 H   0  0  0  0  0  0  0  0  0  0  0  0
  140.7953   76.9189  223.1911 H   0  0  0  0  0  0  0  0  0  0  0  0
  140.3964   77.9599  219.5227 H   0  0  0  0  0  0  0  0  0  0  0  0
  139.2097   77.3711  222.0700 H   0  0  0  0  0  0  0  0  0  0  0  0
  138.5741   77.9023  220.3961 H   0  0  0  0  0  0  0  0  0  0  0  0
  137.8980   75.8330  220.0270 H   0  0  0  0  0  0  0  0  0  0  0  0
  137.4331   73.4510  221.2441 H   0  0  0  0  0  0  0  0  0  0  0  0
  138.9525   72.9943  220.3795 H   0  0  0  0  0  0  0  0  0  0  0  0
  139.4480   72.9610  223.2380 H   0  0  0  0  0  0  0  0  0  0  0  0
  138.3120   68.5532  222.8380 H   0  0  0  0  0  0  0  0  0  0  0  0
  139.0300   67.2070  224.8291 H   0  0  0  0  0  0  0  0  0  0  0  0
  140.0858   67.1652  227.0400 H   0  0  0  0  0  0  0  0  0  0  0  0
  141.5885   70.8224  228.7912 H   0  0  0  0  0  0  0  0  0  0  0  0
  140.8462   72.0722  226.7689 H   0  0  0  0  0  0  0  0  0  0  0  0
  141.3784   75.8835  221.0605 H   0  0  0  0  0  0  0  0  0  0  0  0
  143.1595   77.7521  220.2147 H   0  0  0  0  0  0  0  0  0  0  0  0
  143.6098   76.0388  220.2217 H   0  0  0  0  0  0  0  0  0  0  0  0
  143.1115   77.8482  217.9411 H   0  0  0  0  0  0  0  0  0  0  0  0
  143.8961   76.2503  217.9400 H   0  0  0  0  0  0  0  0  0  0  0  0
  141.0791   76.9706  217.3103 H   0  0  0  0  0  0  0  0  0  0  0  0
  141.9292   75.4849  216.9106 H   0  0  0  0  0  0  0  0  0  0  0  0
  139.9915   75.4927  218.8293 H   0  0  0  0  0  0  0  0  0  0  0  0
  141.4118   74.4865  219.0786 H   0  0  0  0  0  0  0  0  0  0  0  0
  1  2  3  0
  2  3  1  0
  3  4  2  0
  4  5  1  0
  5  6  2  0
  6  7  1  0
  7  8  2  0
  8  9  1  0
  9 10  1  0
 10 11  1  0
 11 12  1  0
 12 13  2  0
 12 14  1  0
 14 15  1  0
 15 16  1  0
 16 17  2  0
 16 18  1  0
 18 19  2  0
 19 20  1  0
 20 21  2  0
 21 22  1  0
 22 23  2  0
 23 24  1  0
 23 25  1  0
 25 26  2  0
 26 27  1  0
 27 28  2  0
  9 29  1  0
 29 30  1  0
 30 31  1  0
 31 32  1  0
 32 33  1  0
  8  3  1  0
 28 18  1  0
 33 29  1  0
 27 21  1  0
  4 34  1  0
  5 35  1  0
  6 36  1  0
  7 37  1  0
  9 38  1  6
 10 39  1  0
 10 40  1  0
 11 41  1  0
 14 42  1  0
 14 43  1  0
 15 44  1  0
 19 45  1  0
 20 46  1  0
 22 47  1  0
 25 48  1  0
 26 49  1  0
 29 50  1  0
 30 51  1  0
 30 52  1  0
 31 53  1  0
 31 54  1  0
 32 55  1  0
 32 56  1  0
 33 57  1  0
 33 58  1  0
M  END
>  <smiles>  (20) 
N#Cc1ccccc1[C@H](CNC(=O)CNC(=O)c1ccc2cc(F)ccc2n1)C1CCCC1

>  <score_type>  (20) 
oracle

>  <origin>  (20) 
autodockgpu

>  <m_score__min__energy>  (20) 
-9.6899999999999995

>  <m_primary>  (20) 
energy

>  <rmsd>  (20) 
2.06579344573553

>  <m_score__min__rmsd>  (20) 
2.06579344573553

>  <meeko>  (20) 
{"free_energy": -8.77, "intermolecular_energy": -11.16, "internal_energy": -2.83, "cluster_size": 13, "cluster_id": 4, "rank_in_cluster": 2}

>  <energy>  (20) 
-8.57

>  <cluster_rmsd>  (20) 
1.25

>  <cluster>  (20) 
2

$$$$

     RDKit          3D

 58 61  0  0  0  0  0  0  0  0999 V2000
  139.5290   67.3300  225.2720 N   0  0  0  0  0  0  0  0  0  0  0  0
  139.8760   68.3190  225.7860 C   0  0  0  0  0  0  0  0  0  0  0  0
  140.2950   69.5320  226.4410 C   0  0  0  0  0  0  0  0  0  0  0  0
  140.7870   69.4530  227.7260 C   0  0  0  0  0  0  0  0  0  0  0  0
  141.1830   70.6170  228.3410 C   0  0  0  0  0  0  0  0  0  0  0  0
  141.0700   71.7900  227.6480 C   0  0  0  0  0  0  0  0  0  0  0  0
  140.5720   71.8620  226.3470 C   0  0  0  0  0  0  0  0  0  0  0  0
  140.1750   70.7020  225.7330 C   0  0  0  0  0  0  0  0  0  0  0  0
  139.6600   70.6830  224.3010 C   0  0  2  0  0  0  0  0  0  0  0  0
  140.5420   71.5910  223.5510 C   0  0  0  0  0  0  0  0  0  0  0  0
  139.9440   72.5770  222.6900 N   0  0  0  0  0  0  0  0  0  0  0  0
  139.8330   72.3750  221.2890 C   0  0  0  0  0  0  0  0  0  0  0  0
  140.2860   71.2780  220.8490 O   0  0  0  0  0  0  0  0  0  0  0  0
  139.2530   73.3060  220.3290 C   0  0  0  0  0  0  0  0  0  0  0  0
  139.1130   74.6210  220.9080 N   0  0  0  0  0  0  0  0  0  0  0  0
  140.1330   75.2310  221.7040 C   0  0  0  0  0  0  0  0  0  0  0  0
  141.2420   74.6400  221.9400 O   0  0  0  0  0  0  0  0  0  0  0  0
  139.9110   76.5770  222.2700 C   0  0  0  0  0  0  0  0  0  0  0  0
  140.9860   77.3350  222.6660 C   0  0  0  0  0  0  0  0  0  0  0  0
  140.7880   78.6070  223.2020 C   0  0  0  0  0  0  0  0  0  0  0  0
  139.4870   79.0700  223.3220 C   0  0  0  0  0  0  0  0  0  0  0  0
  139.2270   80.3330  223.8500 C   0  0  0  0  0  0  0  0  0  0  0  0
  137.9180   80.7770  223.9610 C   0  0  0  0  0  0  0  0  0  0  0  0
  137.6990   82.0090  224.4790 F   0  0  0  0  0  0  0  0  0  0  0  0
  136.8410   79.9960  223.5550 C   0  0  0  0  0  0  0  0  0  0  0  0
  137.1040   78.7470  223.0320 C   0  0  0  0  0  0  0  0  0  0  0  0
  138.4040   78.2940  222.9180 C   0  0  0  0  0  0  0  0  0  0  0  0
  138.6650   77.0750  222.4080 N   0  0  0  0  0  0  0  0  0  0  0  0
  138.2130   70.8550  224.3340 C   0  0  0  0  0  0  0  0  0  0  0  0
  137.3740   69.7440  224.9220 C   0  0  0  0  0  0  0  0  0  0  0  0
  136.8070   68.9830  223.7490 C   0  0  0  0  0  0  0  0  0  0  0  0
  137.0710   69.8160  222.5030 C   0  0  0  0  0  0  0  0  0  0  0  0
  137.4950   71.1810  223.0500 C   0  0  0  0  0  0  0  0  0  0  0  0
  140.8607   68.4859  228.2449 H   0  0  0  0  0  0  0  0  0  0  0  0
  141.5813   70.6048  229.3663 H   0  0  0  0  0  0  0  0  0  0  0  0
  141.3869   72.7215  228.1398 H   0  0  0  0  0  0  0  0  0  0  0  0
  140.4994   72.8277  225.8253 H   0  0  0  0  0  0  0  0  0  0  0  0
  139.7289   69.7445  223.7313 H   0  0  0  0  0  0  0  0  0  0  0  0
  141.1529   72.1322  224.2885 H   0  0  0  0  0  0  0  0  0  0  0  0
  141.0861   70.9281  222.8622 H   0  0  0  0  0  0  0  0  0  0  0  0
  139.5840   73.4390  223.1100 H   0  0  0  0  0  0  0  0  0  0  0  0
  139.9075   73.3684  219.4471 H   0  0  0  0  0  0  0  0  0  0  0  0
  138.2562   72.9400  220.0420 H   0  0  0  0  0  0  0  0  0  0  0  0
  138.2470   75.2000  220.7720 H   0  0  0  0  0  0  0  0  0  0  0  0
  142.0061   76.9374  222.5600 H   0  0  0  0  0  0  0  0  0  0  0  0
  141.6401   79.2255  223.5205 H   0  0  0  0  0  0  0  0  0  0  0  0
  140.0574   80.9757  224.1777 H   0  0  0  0  0  0  0  0  0  0  0  0
  135.8086   80.3640  223.6483 H   0  0  0  0  0  0  0  0  0  0  0  0
  136.2721   78.1068  222.7032 H   0  0  0  0  0  0  0  0  0  0  0  0
  138.2664   71.7286  225.0003 H   0  0  0  0  0  0  0  0  0  0  0  0
  137.9969   69.0821  225.5415 H   0  0  0  0  0  0  0  0  0  0  0  0
  136.5764   70.1408  225.5673 H   0  0  0  0  0  0  0  0  0  0  0  0
  137.3014   68.0044  223.6600 H   0  0  0  0  0  0  0  0  0  0  0  0
  135.7291   68.8080  223.8809 H   0  0  0  0  0  0  0  0  0  0  0  0
  137.8749   69.3706  221.8985 H   0  0  0  0  0  0  0  0  0  0  0  0
  136.1929   69.8795  221.8435 H   0  0  0  0  0  0  0  0  0  0  0  0
  138.1674   71.6923  222.3455 H   0  0  0  0  0  0  0  0  0  0  0  0
  136.6418   71.8581  223.2034 H   0  0  0  0  0  0  0  0  0  0  0  0
  1  2  3  0
  2  3  1  0
  3  4  2  0
  4  5  1  0
  5  6  2  0
  6  7  1  0
  7  8  2  0
  8  9  1  0
  9 10  1  0
 10 11  1  0
 11 12  1  0
 12 13  2  0
 12 14  1  0
 14 15  1  0
 15 16  1  0
 16 17  2  0
 16 18  1  0
 18 19  2  0
 19 20  1  0
 20 21  2  0
 21 22  1  0
 22 23  2  0
 23 24  1  0
 23 25  1  0
 25 26  2  0
 26 27  1  0
 27 28  2  0
  9 29  1  0
 29 30  1  0
 30 31  1  0
 31 32  1  0
 32 33  1  0
  8  3  1  0
 28 18  1  0
 33 29  1  0
 27 21  1  0
  4 34  1  0
  5 35  1  0
  6 36  1  0
  7 37  1  0
  9 38  1  6
 10 39  1  0
 10 40  1  0
 11 41  1  0
 14 42  1  0
 14 43  1  0
 15 44  1  0
 19 45  1  0
 20 46  1  0
 22 47  1  0
 25 48  1  0
 26 49  1  0
 29 50  1  0
 30 51  1  0
 30 52  1  0
 31 53  1  0
 31 54  1  0
 32 55  1  0
 32 56  1  0
 33 57  1  0
 33 58  1  0
M  END
>  <smiles>  (21) 
N#Cc1ccccc1[C@H](CNC(=O)CNC(=O)c1ccc2cc(F)ccc2n1)C1CCCC1

>  <score_type>  (21) 
oracle

>  <origin>  (21) 
autodockgpu

>  <m_score__min__energy>  (21) 
-9.6899999999999995

>  <m_primary>  (21) 
energy

>  <rmsd>  (21) 
8.524711788137038

>  <m_score__min__rmsd>  (21) 
8.524711788137038

>  <meeko>  (21) 
{"free_energy": -9.05, "intermolecular_energy": -11.43, "internal_energy": -2.23, "cluster_size": 10, "cluster_id": 1, "rank_in_cluster": 6}

>  <energy>  (21) 
-8.53

>  <cluster_rmsd>  (21) 
1.96

>  <cluster>  (21) 
2

$$$$

     RDKit          3D

 58 61  0  0  0  0  0  0  0  0999 V2000
  139.2330   67.3600  224.6360 N   0  0  0  0  0  0  0  0  0  0  0  0
  139.5780   68.2180  225.3470 C   0  0  0  0  0  0  0  0  0  0  0  0
  140.0230   69.2660  226.2320 C   0  0  0  0  0  0  0  0  0  0  0  0
  140.3850   68.9330  227.5200 C   0  0  0  0  0  0  0  0  0  0  0  0
  140.8070   69.9400  228.3550 C   0  0  0  0  0  0  0  0  0  0  0  0
  140.8460   71.2170  227.8660 C   0  0  0  0  0  0  0  0  0  0  0  0
  140.4780   71.5450  226.5610 C   0  0  0  0  0  0  0  0  0  0  0  0
  140.0560   70.5420  225.7280 C   0  0  0  0  0  0  0  0  0  0  0  0
  139.6770   70.8050  224.2780 C   0  0  2  0  0  0  0  0  0  0  0  0
  140.6730   71.7650  223.7760 C   0  0  0  0  0  0  0  0  0  0  0  0
  140.3050   72.6330  222.6890 N   0  0  0  0  0  0  0  0  0  0  0  0
  141.0800   72.7110  221.5010 C   0  0  0  0  0  0  0  0  0  0  0  0
  142.1030   71.9680  221.4570 O   0  0  0  0  0  0  0  0  0  0  0  0
  140.8020   73.5560  220.3470 C   0  0  0  0  0  0  0  0  0  0  0  0
  141.0840   74.9410  220.6440 N   0  0  0  0  0  0  0  0  0  0  0  0
  140.4210   75.6610  221.6870 C   0  0  0  0  0  0  0  0  0  0  0  0
  139.5380   75.1060  222.4280 O   0  0  0  0  0  0  0  0  0  0  0  0
  140.7570   77.0790  221.9230 C   0  0  0  0  0  0  0  0  0  0  0  0
  141.2410   77.4700  223.1490 C   0  0  0  0  0  0  0  0  0  0  0  0
  141.5620   78.8060  223.3830 C   0  0  0  0  0  0  0  0  0  0  0  0
  141.3760   79.7130  222.3510 C   0  0  0  0  0  0  0  0  0  0  0  0
  141.6790   81.0620  222.5260 C   0  0  0  0  0  0  0  0  0  0  0  0
  141.4850   81.9520  221.4810 C   0  0  0  0  0  0  0  0  0  0  0  0
  141.7890   83.2570  221.6830 F   0  0  0  0  0  0  0  0  0  0  0  0
  140.9940   81.5400  220.2470 C   0  0  0  0  0  0  0  0  0  0  0  0
  140.6970   80.2040  220.0790 C   0  0  0  0  0  0  0  0  0  0  0  0
  140.8840   79.3080  221.1140 C   0  0  0  0  0  0  0  0  0  0  0  0
  140.5950   78.0030  220.9530 N   0  0  0  0  0  0  0  0  0  0  0  0
  138.2450   71.0670  224.2190 C   0  0  0  0  0  0  0  0  0  0  0  0
  137.2990   69.9680  224.6450 C   0  0  0  0  0  0  0  0  0  0  0  0
  136.7820   69.3450  223.3720 C   0  0  0  0  0  0  0  0  0  0  0  0
  137.1920   70.2610  222.2260 C   0  0  0  0  0  0  0  0  0  0  0  0
  137.6500   71.5450  222.9200 C   0  0  0  0  0  0  0  0  0  0  0  0
  140.3374   67.8911  227.8695 H   0  0  0  0  0  0  0  0  0  0  0  0
  141.1061   69.7243  229.3913 H   0  0  0  0  0  0  0  0  0  0  0  0
  141.1836   72.0235  228.5335 H   0  0  0  0  0  0  0  0  0  0  0  0
  140.5255   72.5859  226.2084 H   0  0  0  0  0  0  0  0  0  0  0  0
  139.7487   69.9754  223.5592 H   0  0  0  0  0  0  0  0  0  0  0  0
  140.9592   72.4076  224.6217 H   0  0  0  0  0  0  0  0  0  0  0  0
  141.4687   71.1318  223.3565 H   0  0  0  0  0  0  0  0  0  0  0  0
  139.4570   73.2000  222.7810 H   0  0  0  0  0  0  0  0  0  0  0  0
  141.4306   73.2330  219.5040 H   0  0  0  0  0  0  0  0  0  0  0  0
  139.7368   73.4610  220.0896 H   0  0  0  0  0  0  0  0  0  0  0  0
  141.7950   75.4920  220.1040 H   0  0  0  0  0  0  0  0  0  0  0  0
  141.3754   76.7259  223.9479 H   0  0  0  0  0  0  0  0  0  0  0  0
  141.9518   79.1315  224.3587 H   0  0  0  0  0  0  0  0  0  0  0  0
  142.0707   81.4193  223.4898 H   0  0  0  0  0  0  0  0  0  0  0  0
  140.8467   82.2595  219.4281 H   0  0  0  0  0  0  0  0  0  0  0  0
  140.3081   79.8487  219.1133 H   0  0  0  0  0  0  0  0  0  0  0  0
  138.2972   71.8775  224.9609 H   0  0  0  0  0  0  0  0  0  0  0  0
  137.8317   69.2181  225.2482 H   0  0  0  0  0  0  0  0  0  0  0  0
  136.4780   70.3611  225.2626 H   0  0  0  0  0  0  0  0  0  0  0  0
  137.2237   68.3471  223.2339 H   0  0  0  0  0  0  0  0  0  0  0  0
  135.6887   69.2295  223.4087 H   0  0  0  0  0  0  0  0  0  0  0  0
  138.0139   69.8164  221.6456 H   0  0  0  0  0  0  0  0  0  0  0  0
  136.3737   70.4359  221.5120 H   0  0  0  0  0  0  0  0  0  0  0  0
  138.4040   72.0689  222.3143 H   0  0  0  0  0  0  0  0  0  0  0  0
  136.8283   72.2608  223.0696 H   0  0  0  0  0  0  0  0  0  0  0  0
  1  2  3  0
  2  3  1  0
  3  4  2  0
  4  5  1  0
  5  6  2  0
  6  7  1  0
  7  8  2  0
  8  9  1  0
  9 10  1  0
 10 11  1  0
 11 12  1  0
 12 13  2  0
 12 14  1  0
 14 15  1  0
 15 16  1  0
 16 17  2  0
 16 18  1  0
 18 19  2  0
 19 20  1  0
 20 21  2  0
 21 22  1  0
 22 23  2  0
 23 24  1  0
 23 25  1  0
 25 26  2  0
 26 27  1  0
 27 28  2  0
  9 29  1  0
 29 30  1  0
 30 31  1  0
 31 32  1  0
 32 33  1  0
  8  3  1  0
 28 18  1  0
 33 29  1  0
 27 21  1  0
  4 34  1  0
  5 35  1  0
  6 36  1  0
  7 37  1  0
  9 38  1  6
 10 39  1  0
 10 40  1  0
 11 41  1  0
 14 42  1  0
 14 43  1  0
 15 44  1  0
 19 45  1  0
 20 46  1  0
 22 47  1  0
 25 48  1  0
 26 49  1  0
 29 50  1  0
 30 51  1  0
 30 52  1  0
 31 53  1  0
 31 54  1  0
 32 55  1  0
 32 56  1  0
 33 57  1  0
 33 58  1  0
M  END
>  <smiles>  (22) 
N#Cc1ccccc1[C@H](CNC(=O)CNC(=O)c1ccc2cc(F)ccc2n1)C1CCCC1

>  <score_type>  (22) 
oracle

>  <origin>  (22) 
autodockgpu

>  <m_score__min__energy>  (22) 
-9.6899999999999995

>  <m_primary>  (22) 
energy

>  <rmsd>  (22) 
9.231411580794198

>  <m_score__min__rmsd>  (22) 
9.231411580794198

>  <meeko>  (22) 
{"free_energy": -9.04, "intermolecular_energy": -11.43, "internal_energy": -2.35, "cluster_size": 10, "cluster_id": 1, "rank_in_cluster": 9}

>  <energy>  (22) 
-8.46

>  <cluster_rmsd>  (22) 
1.96

>  <cluster>  (22) 
2

$$$$

     RDKit          3D

 58 61  0  0  0  0  0  0  0  0999 V2000
  137.6790   79.8300  223.1760 N   0  0  0  0  0  0  0  0  0  0  0  0
  138.8380   79.9660  223.1770 C   0  0  0  0  0  0  0  0  0  0  0  0
  140.2720   80.1160  223.1920 C   0  0  0  0  0  0  0  0  0  0  0  0
  140.8150   81.2110  223.8290 C   0  0  0  0  0  0  0  0  0  0  0  0
  142.1830   81.3440  223.8370 C   0  0  0  0  0  0  0  0  0  0  0  0
  142.9330   80.3840  223.2130 C   0  0  0  0  0  0  0  0  0  0  0  0
  142.3760   79.2790  222.5710 C   0  0  0  0  0  0  0  0  0  0  0  0
  141.0110   79.1460  222.5620 C   0  0  0  0  0  0  0  0  0  0  0  0
  140.3220   77.9500  221.9220 C   0  0  2  0  0  0  0  0  0  0  0  0
  141.1000   76.7740  222.3420 C   0  0  0  0  0  0  0  0  0  0  0  0
  140.6710   75.4720  221.9020 N   0  0  0  0  0  0  0  0  0  0  0  0
  141.5010   74.6450  221.1010 C   0  0  0  0  0  0  0  0  0  0  0  0
  142.6380   75.1180  220.8060 O   0  0  0  0  0  0  0  0  0  0  0  0
  141.1650   73.3180  220.5970 C   0  0  0  0  0  0  0  0  0  0  0  0
  141.0770   72.3660  221.6780 N   0  0  0  0  0  0  0  0  0  0  0  0
  140.0850   72.4480  222.7060 C   0  0  0  0  0  0  0  0  0  0  0  0
  139.2070   73.3780  222.7170 O   0  0  0  0  0  0  0  0  0  0  0  0
  140.0660   71.4400  223.7850 C   0  0  0  0  0  0  0  0  0  0  0  0
  139.5520   70.1900  223.5400 C   0  0  0  0  0  0  0  0  0  0  0  0
  139.5280   69.2300  224.5510 C   0  0  0  0  0  0  0  0  0  0  0  0
  140.0330   69.5790  225.7940 C   0  0  0  0  0  0  0  0  0  0  0  0
  140.0360   68.6620  226.8440 C   0  0  0  0  0  0  0  0  0  0  0  0
  140.5460   69.0310  228.0790 C   0  0  0  0  0  0  0  0  0  0  0  0
  140.5340   68.1170  229.0780 F   0  0  0  0  0  0  0  0  0  0  0  0
  141.0620   70.3020  228.3100 C   0  0  0  0  0  0  0  0  0  0  0  0
  141.0570   71.2050  227.2670 C   0  0  0  0  0  0  0  0  0  0  0  0
  140.5510   70.8480  226.0330 C   0  0  0  0  0  0  0  0  0  0  0  0
  140.5450   71.7270  225.0130 N   0  0  0  0  0  0  0  0  0  0  0  0
  140.0770   78.2600  220.5190 C   0  0  0  0  0  0  0  0  0  0  0  0
  140.7200   77.3810  219.4700 C   0  0  0  0  0  0  0  0  0  0  0  0
  141.9200   78.1420  218.9650 C   0  0  0  0  0  0  0  0  0  0  0  0
  141.8070   79.5640  219.4980 C   0  0  0  0  0  0  0  0  0  0  0  0
  140.3730   79.6520  220.0240 C   0  0  0  0  0  0  0  0  0  0  0  0
  140.1715   81.9576  224.3173 H   0  0  0  0  0  0  0  0  0  0  0  0
  142.6631   82.2007  224.3326 H   0  0  0  0  0  0  0  0  0  0  0  0
  144.0279   80.4895  223.2183 H   0  0  0  0  0  0  0  0  0  0  0  0
  143.0171   78.5304  222.0825 H   0  0  0  0  0  0  0  0  0  0  0  0
  139.3005   77.6995  222.2440 H   0  0  0  0  0  0  0  0  0  0  0  0
  142.1277   76.9176  221.9769 H   0  0  0  0  0  0  0  0  0  0  0  0
  140.9728   76.7439  223.4342 H   0  0  0  0  0  0  0  0  0  0  0  0
  139.7450   75.1410  222.1860 H   0  0  0  0  0  0  0  0  0  0  0  0
  140.1965   73.3642  220.0775 H   0  0  0  0  0  0  0  0  0  0  0  0
  141.9559   72.9932  219.9049 H   0  0  0  0  0  0  0  0  0  0  0  0
  141.7420   71.5580  221.7640 H   0  0  0  0  0  0  0  0  0  0  0  0
  139.1579   69.9454  222.5426 H   0  0  0  0  0  0  0  0  0  0  0  0
  139.1202   68.2250  224.3676 H   0  0  0  0  0  0  0  0  0  0  0  0
  139.6349   67.6489  226.6930 H   0  0  0  0  0  0  0  0  0  0  0  0
  141.4626   70.5792  229.2962 H   0  0  0  0  0  0  0  0  0  0  0  0
  141.4593   72.2173  227.4197 H   0  0  0  0  0  0  0  0  0  0  0  0
  138.9946   78.0820  220.6008 H   0  0  0  0  0  0  0  0  0  0  0  0
  141.0335   76.4244  219.9135 H   0  0  0  0  0  0  0  0  0  0  0  0
  140.0187   77.1496  218.6548 H   0  0  0  0  0  0  0  0  0  0  0  0
  142.8452   77.6740  219.3323 H   0  0  0  0  0  0  0  0  0  0  0  0
  141.9511   78.1380  217.8654 H   0  0  0  0  0  0  0  0  0  0  0  0
  142.5313   79.7363  220.3078 H   0  0  0  0  0  0  0  0  0  0  0  0
  142.0223   80.3213  218.7298 H   0  0  0  0  0  0  0  0  0  0  0  0
  140.3020   80.3815  220.8443 H   0  0  0  0  0  0  0  0  0  0  0  0
  139.6611   79.9869  219.2552 H   0  0  0  0  0  0  0  0  0  0  0  0
  1  2  3  0
  2  3  1  0
  3  4  2  0
  4  5  1  0
  5  6  2  0
  6  7  1  0
  7  8  2  0
  8  9  1  0
  9 10  1  0
 10 11  1  0
 11 12  1  0
 12 13  2  0
 12 14  1  0
 14 15  1  0
 15 16  1  0
 16 17  2  0
 16 18  1  0
 18 19  2  0
 19 20  1  0
 20 21  2  0
 21 22  1  0
 22 23  2  0
 23 24  1  0
 23 25  1  0
 25 26  2  0
 26 27  1  0
 27 28  2  0
  9 29  1  0
 29 30  1  0
 30 31  1  0
 31 32  1  0
 32 33  1  0
  8  3  1  0
 28 18  1  0
 33 29  1  0
 27 21  1  0
  4 34  1  0
  5 35  1  0
  6 36  1  0
  7 37  1  0
  9 38  1  1
 10 39  1  0
 10 40  1  0
 11 41  1  0
 14 42  1  0
 14 43  1  0
 15 44  1  0
 19 45  1  0
 20 46  1  0
 22 47  1  0
 25 48  1  0
 26 49  1  0
 29 50  1  0
 30 51  1  0
 30 52  1  0
 31 53  1  0
 31 54  1  0
 32 55  1  0
 32 56  1  0
 33 57  1  0
 33 58  1  0
M  END
>  <smiles>  (23) 
N#Cc1ccccc1[C@H](CNC(=O)CNC(=O)c1ccc2cc(F)ccc2n1)C1CCCC1

>  <score_type>  (23) 
oracle

>  <origin>  (23) 
autodockgpu

>  <m_score__min__energy>  (23) 
-9.6899999999999995

>  <m_primary>  (23) 
energy

>  <rmsd>  (23) 
2.852828426876354

>  <m_score__min__rmsd>  (23) 
2.852828426876354

>  <meeko>  (23) 
{"free_energy": -8.73, "intermolecular_energy": -11.12, "internal_energy": -2.49, "cluster_size": 13, "cluster_id": 4, "rank_in_cluster": 7}

>  <energy>  (23) 
-8.44

>  <cluster_rmsd>  (23) 
1.9

>  <cluster>  (23) 
2

$$$$

     RDKit          3D

 58 61  0  0  0  0  0  0  0  0999 V2000
  141.7260   80.3210  218.8240 N   0  0  0  0  0  0  0  0  0  0  0  0
  141.7680   79.9840  219.9410 C   0  0  0  0  0  0  0  0  0  0  0  0
  141.7990   79.5580  221.3170 C   0  0  0  0  0  0  0  0  0  0  0  0
  142.4310   80.3590  222.2430 C   0  0  0  0  0  0  0  0  0  0  0  0
  142.4550   79.9420  223.5530 C   0  0  0  0  0  0  0  0  0  0  0  0
  141.8510   78.7560  223.8690 C   0  0  0  0  0  0  0  0  0  0  0  0
  141.2130   77.9510  222.9260 C   0  0  0  0  0  0  0  0  0  0  0  0
  141.1900   78.3650  221.6190 C   0  0  0  0  0  0  0  0  0  0  0  0
  140.4800   77.5690  220.5340 C   0  0  2  0  0  0  0  0  0  0  0  0
  139.1360   77.2890  221.0640 C   0  0  0  0  0  0  0  0  0  0  0  0
  138.5580   75.9930  220.8230 N   0  0  0  0  0  0  0  0  0  0  0  0
  139.0090   74.8360  221.5100 C   0  0  0  0  0  0  0  0  0  0  0  0
  139.9410   75.0160  222.3480 O   0  0  0  0  0  0  0  0  0  0  0  0
  138.5000   73.4800  221.3390 C   0  0  0  0  0  0  0  0  0  0  0  0
  138.8800   72.6440  222.4530 N   0  0  0  0  0  0  0  0  0  0  0  0
  138.6710   71.2290  222.4680 C   0  0  0  0  0  0  0  0  0  0  0  0
  138.1370   70.6200  221.4780 O   0  0  0  0  0  0  0  0  0  0  0  0
  139.0780   70.4430  223.6500 C   0  0  0  0  0  0  0  0  0  0  0  0
  138.8390   69.0910  223.6840 C   0  0  0  0  0  0  0  0  0  0  0  0
  139.2190   68.3390  224.7950 C   0  0  0  0  0  0  0  0  0  0  0  0
  139.8360   68.9950  225.8490 C   0  0  0  0  0  0  0  0  0  0  0  0
  140.2380   68.2970  226.9850 C   0  0  0  0  0  0  0  0  0  0  0  0
  140.8530   68.9730  228.0280 C   0  0  0  0  0  0  0  0  0  0  0  0
  141.2310   68.2650  229.1190 F   0  0  0  0  0  0  0  0  0  0  0  0
  141.0860   70.3430  227.9770 C   0  0  0  0  0  0  0  0  0  0  0  0
  140.6870   71.0300  226.8490 C   0  0  0  0  0  0  0  0  0  0  0  0
  140.0730   70.3660  225.8050 C   0  0  0  0  0  0  0  0  0  0  0  0
  139.6810   71.0330  224.7030 N   0  0  0  0  0  0  0  0  0  0  0  0
  141.3740   76.5110  220.0830 C   0  0  0  0  0  0  0  0  0  0  0  0
  142.8350   76.8460  219.8850 C   0  0  0  0  0  0  0  0  0  0  0  0
  143.0250   77.0250  218.3990 C   0  0  0  0  0  0  0  0  0  0  0  0
  141.7630   76.5110  217.7200 C   0  0  0  0  0  0  0  0  0  0  0  0
  141.0250   75.7560  218.8280 C   0  0  0  0  0  0  0  0  0  0  0  0
  142.9033   81.3059  221.9425 H   0  0  0  0  0  0  0  0  0  0  0  0
  142.9479   80.5473  224.3280 H   0  0  0  0  0  0  0  0  0  0  0  0
  141.8695   78.4215  224.9167 H   0  0  0  0  0  0  0  0  0  0  0  0
  140.7385   77.0044  223.2241 H   0  0  0  0  0  0  0  0  0  0  0  0
  140.2700   78.0635  219.5741 H   0  0  0  0  0  0  0  0  0  0  0  0
  139.1821   77.4261  222.1544 H   0  0  0  0  0  0  0  0  0  0  0  0
  138.4810   77.9817  220.5153 H   0  0  0  0  0  0  0  0  0  0  0  0
  137.7960   75.9170  220.1420 H   0  0  0  0  0  0  0  0  0  0  0  0
  137.4026   73.5129  221.2710 H   0  0  0  0  0  0  0  0  0  0  0  0
  138.9288   73.0565  220.4188 H   0  0  0  0  0  0  0  0  0  0  0  0
  139.3330   73.0370  223.3150 H   0  0  0  0  0  0  0  0  0  0  0  0
  138.3462   68.5998  222.8320 H   0  0  0  0  0  0  0  0  0  0  0  0
  139.0343   67.2553  224.8341 H   0  0  0  0  0  0  0  0  0  0  0  0
  140.0682   67.2124  227.0548 H   0  0  0  0  0  0  0  0  0  0  0  0
  141.5750   70.8646  228.8130 H   0  0  0  0  0  0  0  0  0  0  0  0
  140.8591   72.1143  226.7806 H   0  0  0  0  0  0  0  0  0  0  0  0
  141.2082   75.8985  220.9815 H   0  0  0  0  0  0  0  0  0  0  0  0
  143.0894   77.7745  220.4171 H   0  0  0  0  0  0  0  0  0  0  0  0
  143.4866   76.0532  220.2810 H   0  0  0  0  0  0  0  0  0  0  0  0
  143.1733   78.0892  218.1633 H   0  0  0  0  0  0  0  0  0  0  0  0
  143.9099   76.4734  218.0487 H   0  0  0  0  0  0  0  0  0  0  0  0
  141.1539   77.3462  217.3439 H   0  0  0  0  0  0  0  0  0  0  0  0
  141.9808   75.8759  216.8487 H   0  0  0  0  0  0  0  0  0  0  0  0
  139.9390   75.7698  218.6533 H   0  0  0  0  0  0  0  0  0  0  0  0
  141.3126   74.6955  218.8798 H   0  0  0  0  0  0  0  0  0  0  0  0
  1  2  3  0
  2  3  1  0
  3  4  2  0
  4  5  1  0
  5  6  2  0
  6  7  1  0
  7  8  2  0
  8  9  1  0
  9 10  1  0
 10 11  1  0
 11 12  1  0
 12 13  2  0
 12 14  1  0
 14 15  1  0
 15 16  1  0
 16 17  2  0
 16 18  1  0
 18 19  2  0
 19 20  1  0
 20 21  2  0
 21 22  1  0
 22 23  2  0
 23 24  1  0
 23 25  1  0
 25 26  2  0
 26 27  1  0
 27 28  2  0
  9 29  1  0
 29 30  1  0
 30 31  1  0
 31 32  1  0
 32 33  1  0
  8  3  1  0
 28 18  1  0
 33 29  1  0
 27 21  1  0
  4 34  1  0
  5 35  1  0
  6 36  1  0
  7 37  1  0
  9 38  1  6
 10 39  1  0
 10 40  1  0
 11 41  1  0
 14 42  1  0
 14 43  1  0
 15 44  1  0
 19 45  1  0
 20 46  1  0
 22 47  1  0
 25 48  1  0
 26 49  1  0
 29 50  1  0
 30 51  1  0
 30 52  1  0
 31 53  1  0
 31 54  1  0
 32 55  1  0
 32 56  1  0
 33 57  1  0
 33 58  1  0
M  END
>  <smiles>  (24) 
N#Cc1ccccc1[C@H](CNC(=O)CNC(=O)c1ccc2cc(F)ccc2n1)C1CCCC1

>  <score_type>  (24) 
oracle

>  <origin>  (24) 
autodockgpu

>  <m_score__min__energy>  (24) 
-9.6899999999999995

>  <m_primary>  (24) 
energy

>  <rmsd>  (24) 
2.0756505059333885

>  <m_score__min__rmsd>  (24) 
2.0756505059333885

>  <meeko>  (24) 
{"free_energy": -8.76, "intermolecular_energy": -11.14, "internal_energy": -2.81, "cluster_size": 13, "cluster_id": 4, "rank_in_cluster": 4}

>  <energy>  (24) 
-8.04

>  <cluster_rmsd>  (24) 
1.73

>  <cluster>  (24) 
2

$$$$

     RDKit          3D

 58 61  0  0  0  0  0  0  0  0999 V2000
  139.5320   67.3390  225.2810 N   0  0  0  0  0  0  0  0  0  0  0  0
  139.8830   68.3190  225.8080 C   0  0  0  0  0  0  0  0  0  0  0  0
  140.2970   69.5390  226.4540 C   0  0  0  0  0  0  0  0  0  0  0  0
  140.7970   69.4710  227.7370 C   0  0  0  0  0  0  0  0  0  0  0  0
  141.1880   70.6410  228.3440 C   0  0  0  0  0  0  0  0  0  0  0  0
  141.0610   71.8100  227.6450 C   0  0  0  0  0  0  0  0  0  0  0  0
  140.5540   71.8710  226.3470 C   0  0  0  0  0  0  0  0  0  0  0  0
  140.1630   70.7040  225.7410 C   0  0  0  0  0  0  0  0  0  0  0  0
  139.6380   70.6750  224.3130 C   0  0  2  0  0  0  0  0  0  0  0  0
  140.5150   71.5780  223.5510 C   0  0  0  0  0  0  0  0  0  0  0  0
  139.9100   72.5600  222.6900 N   0  0  0  0  0  0  0  0  0  0  0  0
  139.7610   72.3400  221.2960 C   0  0  0  0  0  0  0  0  0  0  0  0
  140.1860   71.2290  220.8610 O   0  0  0  0  0  0  0  0  0  0  0  0
  139.1700   73.2650  220.3360 C   0  0  0  0  0  0  0  0  0  0  0  0
  139.0420   74.5850  220.9070 N   0  0  0  0  0  0  0  0  0  0  0  0
  140.0720   75.1940  221.6910 C   0  0  0  0  0  0  0  0  0  0  0  0
  141.1790   74.5980  221.9240 O   0  0  0  0  0  0  0  0  0  0  0  0
  139.8620   76.5450  222.2490 C   0  0  0  0  0  0  0  0  0  0  0  0
  140.9440   77.2990  222.6340 C   0  0  0  0  0  0  0  0  0  0  0  0
  140.7580   78.5760  223.1620 C   0  0  0  0  0  0  0  0  0  0  0  0
  139.4610   79.0480  223.2860 C   0  0  0  0  0  0  0  0  0  0  0  0
  139.2120   80.3160  223.8080 C   0  0  0  0  0  0  0  0  0  0  0  0
  137.9070   80.7700  223.9230 C   0  0  0  0  0  0  0  0  0  0  0  0
  137.6980   82.0070  224.4340 F   0  0  0  0  0  0  0  0  0  0  0  0
  136.8220   79.9930  223.5290 C   0  0  0  0  0  0  0  0  0  0  0  0
  137.0740   78.7390  223.0130 C   0  0  0  0  0  0  0  0  0  0  0  0
  138.3710   78.2770  222.8950 C   0  0  0  0  0  0  0  0  0  0  0  0
  138.6200   77.0530  222.3910 N   0  0  0  0  0  0  0  0  0  0  0  0
  138.1910   70.8450  224.3530 C   0  0  0  0  0  0  0  0  0  0  0  0
  137.3560   69.7280  224.9360 C   0  0  0  0  0  0  0  0  0  0  0  0
  136.7850   68.9760  223.7590 C   0  0  0  0  0  0  0  0  0  0  0  0
  137.0430   69.8200  222.5190 C   0  0  0  0  0  0  0  0  0  0  0  0
  137.4680   71.1810  223.0760 C   0  0  0  0  0  0  0  0  0  0  0  0
  140.8808   68.5072  228.2606 H   0  0  0  0  0  0  0  0  0  0  0  0
  141.5931   70.6372  229.3667 H   0  0  0  0  0  0  0  0  0  0  0  0
  141.3736   72.7466  228.1297 H   0  0  0  0  0  0  0  0  0  0  0  0
  140.4696   72.8334  225.8210 H   0  0  0  0  0  0  0  0  0  0  0  0
  139.7031   69.7325  223.7496 H   0  0  0  0  0  0  0  0  0  0  0  0
  141.1326   72.1225  224.2805 H   0  0  0  0  0  0  0  0  0  0  0  0
  141.0533   70.9111  222.8614 H   0  0  0  0  0  0  0  0  0  0  0  0
  139.5740   73.4340  223.1060 H   0  0  0  0  0  0  0  0  0  0  0  0
  139.8122   73.3185  219.4446 H   0  0  0  0  0  0  0  0  0  0  0  0
  138.1684   72.8996  220.0653 H   0  0  0  0  0  0  0  0  0  0  0  0
  138.1800   75.1680  220.7730 H   0  0  0  0  0  0  0  0  0  0  0  0
  141.9608   76.8938  222.5253 H   0  0  0  0  0  0  0  0  0  0  0  0
  141.6160   79.1910  223.4712 H   0  0  0  0  0  0  0  0  0  0  0  0
  140.0484   80.9548  224.1279 H   0  0  0  0  0  0  0  0  0  0  0  0
  135.7926   80.3682  223.6263 H   0  0  0  0  0  0  0  0  0  0  0  0
  136.2363   78.1019  222.6930 H   0  0  0  0  0  0  0  0  0  0  0  0
  138.2457   71.7135  225.0259 H   0  0  0  0  0  0  0  0  0  0  0  0
  137.9825   69.0619  225.5474 H   0  0  0  0  0  0  0  0  0  0  0  0
  136.5609   70.1183  225.5883 H   0  0  0  0  0  0  0  0  0  0  0  0
  137.2802   67.9988  223.6597 H   0  0  0  0  0  0  0  0  0  0  0  0
  135.7078   68.7984  223.8939 H   0  0  0  0  0  0  0  0  0  0  0  0
  137.8448   69.3806  221.9074 H   0  0  0  0  0  0  0  0  0  0  0  0
  136.1621   69.8882  221.8638 H   0  0  0  0  0  0  0  0  0  0  0  0
  138.1370   71.6991  222.3731 H   0  0  0  0  0  0  0  0  0  0  0  0
  136.6148   71.8559  223.2387 H   0  0  0  0  0  0  0  0  0  0  0  0
  1  2  3  0
  2  3  1  0
  3  4  2  0
  4  5  1  0
  5  6  2  0
  6  7  1  0
  7  8  2  0
  8  9  1  0
  9 10  1  0
 10 11  1  0
 11 12  1  0
 12 13  2  0
 12 14  1  0
 14 15  1  0
 15 16  1  0
 16 17  2  0
 16 18  1  0
 18 19  2  0
 19 20  1  0
 20 21  2  0
 21 22  1  0
 22 23  2  0
 23 24  1  0
 23 25  1  0
 25 26  2  0
 26 27  1  0
 27 28  2  0
  9 29  1  0
 29 30  1  0
 30 31  1  0
 31 32  1  0
 32 33  1  0
  8  3  1  0
 28 18  1  0
 33 29  1  0
 27 21  1  0
  4 34  1  0
  5 35  1  0
  6 36  1  0
  7 37  1  0
  9 38  1  6
 10 39  1  0
 10 40  1  0
 11 41  1  0
 14 42  1  0
 14 43  1  0
 15 44  1  0
 19 45  1  0
 20 46  1  0
 22 47  1  0
 25 48  1  0
 26 49  1  0
 29 50  1  0
 30 51  1  0
 30 52  1  0
 31 53  1  0
 31 54  1  0
 32 55  1  0
 32 56  1  0
 33 57  1  0
 33 58  1  0
M  END
>  <smiles>  (25) 
N#Cc1ccccc1[C@H](CNC(=O)CNC(=O)c1ccc2cc(F)ccc2n1)C1CCCC1

>  <score_type>  (25) 
oracle

>  <origin>  (25) 
autodockgpu

>  <m_score__min__energy>  (25) 
-9.6899999999999995

>  <m_primary>  (25) 
energy

>  <rmsd>  (25) 
8.523473712608025

>  <m_score__min__rmsd>  (25) 
8.523473712608025

>  <meeko>  (25) 
{"free_energy": -9.05, "intermolecular_energy": -11.43, "internal_energy": -2.25, "cluster_size": 10, "cluster_id": 1, "rank_in_cluster": 8}

>  <energy>  (25) 
-9.11

>  <cluster_rmsd>  (25) 
0.0

>  <cluster>  (25) 
3

$$$$

     RDKit          3D

 58 61  0  0  0  0  0  0  0  0999 V2000
  143.4680   76.0570  220.0930 N   0  0  0  0  0  0  0  0  0  0  0  0
  142.7180   76.8070  219.6050 C   0  0  0  0  0  0  0  0  0  0  0  0
  141.8110   77.7470  218.9980 C   0  0  0  0  0  0  0  0  0  0  0  0
  141.5830   77.6630  217.6410 C   0  0  0  0  0  0  0  0  0  0  0  0
  140.7160   78.5660  217.0720 C   0  0  0  0  0  0  0  0  0  0  0  0
  140.1250   79.4980  217.8800 C   0  0  0  0  0  0  0  0  0  0  0  0
  140.3600   79.5760  219.2520 C   0  0  0  0  0  0  0  0  0  0  0  0
  141.2260   78.6770  219.8210 C   0  0  0  0  0  0  0  0  0  0  0  0
  141.5070   78.6640  221.3160 C   0  0  2  0  0  0  0  0  0  0  0  0
  140.2420   78.2660  221.9530 C   0  0  0  0  0  0  0  0  0  0  0  0
  139.5680   77.0900  221.4690 N   0  0  0  0  0  0  0  0  0  0  0  0
  140.0820   75.7870  221.7010 C   0  0  0  0  0  0  0  0  0  0  0  0
  141.1590   75.7250  222.3640 O   0  0  0  0  0  0  0  0  0  0  0  0
  139.4860   74.5340  221.2530 C   0  0  0  0  0  0  0  0  0  0  0  0
  139.4120   73.5830  222.3370 N   0  0  0  0  0  0  0  0  0  0  0  0
  140.3440   72.5090  222.4920 C   0  0  0  0  0  0  0  0  0  0  0  0
  141.3120   72.3380  221.6730 O   0  0  0  0  0  0  0  0  0  0  0  0
  140.1960   71.5710  223.6220 C   0  0  0  0  0  0  0  0  0  0  0  0
  139.5670   70.3650  223.4280 C   0  0  0  0  0  0  0  0  0  0  0  0
  139.4220   69.4710  224.4880 C   0  0  0  0  0  0  0  0  0  0  0  0
  139.9240   69.8390  225.7270 C   0  0  0  0  0  0  0  0  0  0  0  0
  139.8080   68.9870  226.8240 C   0  0  0  0  0  0  0  0  0  0  0  0
  140.3180   69.3740  228.0530 C   0  0  0  0  0  0  0  0  0  0  0  0
  140.1890   68.5240  229.0990 F   0  0  0  0  0  0  0  0  0  0  0  0
  140.9510   70.6000  228.2320 C   0  0  0  0  0  0  0  0  0  0  0  0
  141.0650   71.4380  227.1430 C   0  0  0  0  0  0  0  0  0  0  0  0
  140.5590   71.0630  225.9130 C   0  0  0  0  0  0  0  0  0  0  0  0
  140.6680   71.8800  224.8480 N   0  0  0  0  0  0  0  0  0  0  0  0
  142.1970   79.9010  221.6620 C   0  0  0  0  0  0  0  0  0  0  0  0
  143.1810   79.8730  222.8100 C   0  0  0  0  0  0  0  0  0  0  0  0
  142.4600   80.4700  223.9930 C   0  0  0  0  0  0  0  0  0  0  0  0
  141.1810   81.1060  223.4650 C   0  0  0  0  0  0  0  0  0  0  0  0
  141.3760   81.1310  221.9470 C   0  0  0  0  0  0  0  0  0  0  0  0
  142.0807   76.8951  217.0305 H   0  0  0  0  0  0  0  0  0  0  0  0
  140.5029   78.5395  215.9932 H   0  0  0  0  0  0  0  0  0  0  0  0
  139.4311   80.2205  217.4256 H   0  0  0  0  0  0  0  0  0  0  0  0
  139.8619   80.3417  219.8649 H   0  0  0  0  0  0  0  0  0  0  0  0
  142.2242   77.9279  221.7082 H   0  0  0  0  0  0  0  0  0  0  0  0
  140.4534   78.1027  223.0201 H   0  0  0  0  0  0  0  0  0  0  0  0
  139.5512   79.0884  221.7154 H   0  0  0  0  0  0  0  0  0  0  0  0
  138.6930   77.2070  220.9500 H   0  0  0  0  0  0  0  0  0  0  0  0
  138.4712   74.7317  220.8773 H   0  0  0  0  0  0  0  0  0  0  0  0
  140.1147   74.1106  220.4558 H   0  0  0  0  0  0  0  0  0  0  0  0
  138.6630   73.6330  223.0710 H   0  0  0  0  0  0  0  0  0  0  0  0
  139.1766   70.1040  222.4333 H   0  0  0  0  0  0  0  0  0  0  0  0
  138.9233   68.5010  224.3454 H   0  0  0  0  0  0  0  0  0  0  0  0
  139.3133   68.0107  226.7145 H   0  0  0  0  0  0  0  0  0  0  0  0
  141.3493   70.8925  229.2147 H   0  0  0  0  0  0  0  0  0  0  0  0
  141.5626   72.4127  227.2542 H   0  0  0  0  0  0  0  0  0  0  0  0
  142.7013   79.9698  220.6868 H   0  0  0  0  0  0  0  0  0  0  0  0
  143.4827   78.8381  223.0292 H   0  0  0  0  0  0  0  0  0  0  0  0
  144.0949   80.4362  222.5700 H   0  0  0  0  0  0  0  0  0  0  0  0
  142.2168   79.6835  224.7226 H   0  0  0  0  0  0  0  0  0  0  0  0
  143.0892   81.2179  224.4977 H   0  0  0  0  0  0  0  0  0  0  0  0
  140.3032   80.5010  223.7361 H   0  0  0  0  0  0  0  0  0  0  0  0
  141.0028   82.1072  223.8844 H   0  0  0  0  0  0  0  0  0  0  0  0
  140.4073   81.0829  221.4280 H   0  0  0  0  0  0  0  0  0  0  0  0
  141.8632   82.0538  221.5990 H   0  0  0  0  0  0  0  0  0  0  0  0
  1  2  3  0
  2  3  1  0
  3  4  2  0
  4  5  1  0
  5  6  2  0
  6  7  1  0
  7  8  2  0
  8  9  1  0
  9 10  1  0
 10 11  1  0
 11 12  1  0
 12 13  2  0
 12 14  1  0
 14 15  1  0
 15 16  1  0
 16 17  2  0
 16 18  1  0
 18 19  2  0
 19 20  1  0
 20 21  2  0
 21 22  1  0
 22 23  2  0
 23 24  1  0
 23 25  1  0
 25 26  2  0
 26 27  1  0
 27 28  2  0
  9 29  1  0
 29 30  1  0
 30 31  1  0
 31 32  1  0
 32 33  1  0
  8  3  1  0
 28 18  1  0
 33 29  1  0
 27 21  1  0
  4 34  1  0
  5 35  1  0
  6 36  1  0
  7 37  1  0
  9 38  1  6
 10 39  1  0
 10 40  1  0
 11 41  1  0
 14 42  1  0
 14 43  1  0
 15 44  1  0
 19 45  1  0
 20 46  1  0
 22 47  1  0
 25 48  1  0
 26 49  1  0
 29 50  1  0
 30 51  1  0
 30 52  1  0
 31 53  1  0
 31 54  1  0
 32 55  1  0
 32 56  1  0
 33 57  1  0
 33 58  1  0
M  END
>  <smiles>  (26) 
N#Cc1ccccc1[C@H](CNC(=O)CNC(=O)c1ccc2cc(F)ccc2n1)C1CCCC1

>  <score_type>  (26) 
oracle

>  <origin>  (26) 
autodockgpu

>  <m_score__min__energy>  (26) 
-9.6899999999999995

>  <m_primary>  (26) 
energy

>  <rmsd>  (26) 
2.949611226820648

>  <m_score__min__rmsd>  (26) 
2.949611226820648

>  <meeko>  (26) 
{"free_energy": -8.82, "intermolecular_energy": -11.21, "internal_energy": -2.05, "cluster_size": 11, "cluster_id": 3, "rank_in_cluster": 8}

>  <energy>  (26) 
-9.03

>  <cluster_rmsd>  (26) 
1.03

>  <cluster>  (26) 
3

$$$$

     RDKit          3D

 58 61  0  0  0  0  0  0  0  0999 V2000
  137.8790   77.2180  222.7260 N   0  0  0  0  0  0  0  0  0  0  0  0
  138.8270   77.8970  222.7700 C   0  0  0  0  0  0  0  0  0  0  0  0
  140.0090   78.7190  222.8360 C   0  0  0  0  0  0  0  0  0  0  0  0
  140.0490   79.7460  223.7550 C   0  0  0  0  0  0  0  0  0  0  0  0
  141.1810   80.5250  223.8080 C   0  0  0  0  0  0  0  0  0  0  0  0
  142.2080   80.2400  222.9500 C   0  0  0  0  0  0  0  0  0  0  0  0
  142.1590   79.1980  222.0240 C   0  0  0  0  0  0  0  0  0  0  0  0
  141.0300   78.4220  221.9680 C   0  0  0  0  0  0  0  0  0  0  0  0
  140.9110   77.2400  221.0180 C   0  0  2  0  0  0  0  0  0  0  0  0
  141.0550   76.0410  221.8580 C   0  0  0  0  0  0  0  0  0  0  0  0
  139.8890   75.2380  222.1170 N   0  0  0  0  0  0  0  0  0  0  0  0
  139.5780   74.0970  221.3310 C   0  0  0  0  0  0  0  0  0  0  0  0
  140.3910   73.8290  220.3980 O   0  0  0  0  0  0  0  0  0  0  0  0
  138.4250   73.2220  221.5020 C   0  0  0  0  0  0  0  0  0  0  0  0
  138.6030   72.3560  222.6430 N   0  0  0  0  0  0  0  0  0  0  0  0
  139.4700   71.2180  222.6270 C   0  0  0  0  0  0  0  0  0  0  0  0
  140.1500   70.9090  221.5890 O   0  0  0  0  0  0  0  0  0  0  0  0
  139.5910   70.3740  223.8320 C   0  0  0  0  0  0  0  0  0  0  0  0
  139.1040   69.0890  223.8160 C   0  0  0  0  0  0  0  0  0  0  0  0
  139.2120   68.2830  224.9480 C   0  0  0  0  0  0  0  0  0  0  0  0
  139.8180   68.8170  226.0750 C   0  0  0  0  0  0  0  0  0  0  0  0
  139.9540   68.0600  227.2360 C   0  0  0  0  0  0  0  0  0  0  0  0
  140.5630   68.6140  228.3520 C   0  0  0  0  0  0  0  0  0  0  0  0
  140.6810   67.8510  229.4650 F   0  0  0  0  0  0  0  0  0  0  0  0
  141.0500   69.9160  228.3520 C   0  0  0  0  0  0  0  0  0  0  0  0
  140.9130   70.6610  227.1990 C   0  0  0  0  0  0  0  0  0  0  0  0
  140.3070   70.1200  226.0820 C   0  0  0  0  0  0  0  0  0  0  0  0
  140.1720   70.8450  224.9550 N   0  0  0  0  0  0  0  0  0  0  0  0
  141.7680   77.4910  219.8660 C   0  0  0  0  0  0  0  0  0  0  0  0
  141.1430   77.4570  218.4890 C   0  0  0  0  0  0  0  0  0  0  0  0
  141.5040   76.1150  217.9010 C   0  0  0  0  0  0  0  0  0  0  0  0
  142.5670   75.5010  218.8000 C   0  0  0  0  0  0  0  0  0  0  0  0
  143.0120   76.6590  219.6960 C   0  0  0  0  0  0  0  0  0  0  0  0
  139.1993   79.9369  224.4270 H   0  0  0  0  0  0  0  0  0  0  0  0
  141.2590   81.3573  224.5230 H   0  0  0  0  0  0  0  0  0  0  0  0
  143.1145   80.8616  222.9924 H   0  0  0  0  0  0  0  0  0  0  0  0
  143.0083   79.0029  221.3527 H   0  0  0  0  0  0  0  0  0  0  0  0
  139.9507   77.0713  220.5087 H   0  0  0  0  0  0  0  0  0  0  0  0
  141.7953   75.3900  221.3700 H   0  0  0  0  0  0  0  0  0  0  0  0
  141.3331   76.4370  222.8458 H   0  0  0  0  0  0  0  0  0  0  0  0
  139.2780   75.5010  222.8960 H   0  0  0  0  0  0  0  0  0  0  0  0
  137.5252   73.8365  221.6527 H   0  0  0  0  0  0  0  0  0  0  0  0
  138.3178   72.6002  220.6010 H   0  0  0  0  0  0  0  0  0  0  0  0
  138.1000   72.5190  223.5500 H   0  0  0  0  0  0  0  0  0  0  0  0
  138.6272   68.6951  222.9064 H   0  0  0  0  0  0  0  0  0  0  0  0
  138.8274   67.2524  224.9473 H   0  0  0  0  0  0  0  0  0  0  0  0
  139.5796   67.0261  227.2677 H   0  0  0  0  0  0  0  0  0  0  0  0
  141.5309   70.3401  229.2458 H   0  0  0  0  0  0  0  0  0  0  0  0
  141.2894   71.6942  227.1690 H   0  0  0  0  0  0  0  0  0  0  0  0
  142.0084   78.5158  220.1854 H   0  0  0  0  0  0  0  0  0  0  0  0
  140.0504   77.5605  218.5626 H   0  0  0  0  0  0  0  0  0  0  0  0
  141.5074   78.2832  217.8608 H   0  0  0  0  0  0  0  0  0  0  0  0
  140.6163   75.4662  217.8697 H   0  0  0  0  0  0  0  0  0  0  0  0
  141.8793   76.2273  216.8731 H   0  0  0  0  0  0  0  0  0  0  0  0
  142.1448   74.6822  219.4010 H   0  0  0  0  0  0  0  0  0  0  0  0
  143.4002   75.0633  218.2306 H   0  0  0  0  0  0  0  0  0  0  0  0
  143.3683   76.2863  220.6677 H   0  0  0  0  0  0  0  0  0  0  0  0
  143.8464   77.2307  219.2637 H   0  0  0  0  0  0  0  0  0  0  0  0
  1  2  3  0
  2  3  1  0
  3  4  2  0
  4  5  1  0
  5  6  2  0
  6  7  1  0
  7  8  2  0
  8  9  1  0
  9 10  1  0
 10 11  1  0
 11 12  1  0
 12 13  2  0
 12 14  1  0
 14 15  1  0
 15 16  1  0
 16 17  2  0
 16 18  1  0
 18 19  2  0
 19 20  1  0
 20 21  2  0
 21 22  1  0
 22 23  2  0
 23 24  1  0
 23 25  1  0
 25 26  2  0
 26 27  1  0
 27 28  2  0
  9 29  1  0
 29 30  1  0
 30 31  1  0
 31 32  1  0
 32 33  1  0
  8  3  1  0
 28 18  1  0
 33 29  1  0
 27 21  1  0
  4 34  1  0
  5 35  1  0
  6 36  1  0
  7 37  1  0
  9 38  1  6
 10 39  1  0
 10 40  1  0
 11 41  1  0
 14 42  1  0
 14 43  1  0
 15 44  1  0
 19 45  1  0
 20 46  1  0
 22 47  1  0
 25 48  1  0
 26 49  1  0
 29 50  1  0
 30 51  1  0
 30 52  1  0
 31 53  1  0
 31 54  1  0
 32 55  1  0
 32 56  1  0
 33 57  1  0
 33 58  1  0
M  END
>  <smiles>  (27) 
N#Cc1ccccc1[C@H](CNC(=O)CNC(=O)c1ccc2cc(F)ccc2n1)C1CCCC1

>  <score_type>  (27) 
oracle

>  <origin>  (27) 
autodockgpu

>  <m_score__min__energy>  (27) 
-9.6899999999999995

>  <m_primary>  (27) 
energy

>  <rmsd>  (27) 
2.256883336834974

>  <m_score__min__rmsd>  (27) 
2.256883336834974

>  <meeko>  (27) 
{"free_energy": -8.75, "intermolecular_energy": -11.13, "internal_energy": -2.4, "cluster_size": 13, "cluster_id": 4, "rank_in_cluster": 5}

>  <energy>  (27) 
-8.96

>  <cluster_rmsd>  (27) 
0.78

>  <cluster>  (27) 
3

$$$$

     RDKit          3D

 58 61  0  0  0  0  0  0  0  0999 V2000
  142.7090   74.7010  220.8090 N   0  0  0  0  0  0  0  0  0  0  0  0
  142.6580   75.6150  220.0840 C   0  0  0  0  0  0  0  0  0  0  0  0
  142.6150   76.7490  219.1970 C   0  0  0  0  0  0  0  0  0  0  0  0
  143.1290   76.6140  217.9250 C   0  0  0  0  0  0  0  0  0  0  0  0
  143.0840   77.7030  217.0880 C   0  0  0  0  0  0  0  0  0  0  0  0
  142.5320   78.8630  217.5580 C   0  0  0  0  0  0  0  0  0  0  0  0
  142.0130   78.9920  218.8470 C   0  0  0  0  0  0  0  0  0  0  0  0
  142.0590   77.9060  219.6830 C   0  0  0  0  0  0  0  0  0  0  0  0
  141.4780   77.9470  221.0890 C   0  0  2  0  0  0  0  0  0  0  0  0
  140.0270   77.7720  220.9230 C   0  0  0  0  0  0  0  0  0  0  0  0
  139.5290   76.4720  220.5570 N   0  0  0  0  0  0  0  0  0  0  0  0
  139.5320   75.3870  221.4720 C   0  0  0  0  0  0  0  0  0  0  0  0
  139.9920   75.6350  222.6250 O   0  0  0  0  0  0  0  0  0  0  0  0
  139.0590   74.0340  221.2050 C   0  0  0  0  0  0  0  0  0  0  0  0
  139.2950   73.1730  222.3400 N   0  0  0  0  0  0  0  0  0  0  0  0
  139.1490   71.7510  222.2800 C   0  0  0  0  0  0  0  0  0  0  0  0
  138.8060   71.1580  221.2000 O   0  0  0  0  0  0  0  0  0  0  0  0
  139.3990   70.9400  223.4870 C   0  0  0  0  0  0  0  0  0  0  0  0
  139.0540   69.6100  223.4980 C   0  0  0  0  0  0  0  0  0  0  0  0
  139.2850   68.8340  224.6330 C   0  0  0  0  0  0  0  0  0  0  0  0
  139.8650   69.4430  225.7340 C   0  0  0  0  0  0  0  0  0  0  0  0
  140.1210   68.7190  226.8970 C   0  0  0  0  0  0  0  0  0  0  0  0
  140.7010   69.3480  227.9870 C   0  0  0  0  0  0  0  0  0  0  0  0
  140.9360   68.6160  229.1020 F   0  0  0  0  0  0  0  0  0  0  0  0
  141.0440   70.6960  227.9600 C   0  0  0  0  0  0  0  0  0  0  0  0
  140.7910   71.4080  226.8060 C   0  0  0  0  0  0  0  0  0  0  0  0
  140.2110   70.7910  225.7140 C   0  0  0  0  0  0  0  0  0  0  0  0
  139.9620   71.4840  224.5860 N   0  0  0  0  0  0  0  0  0  0  0  0
  142.0490   79.0930  221.7870 C   0  0  0  0  0  0  0  0  0  0  0  0
  142.1630   79.0290  223.2930 C   0  0  0  0  0  0  0  0  0  0  0  0
  141.0120   79.8400  223.8340 C   0  0  0  0  0  0  0  0  0  0  0  0
  140.4130   80.6070  222.6630 C   0  0  0  0  0  0  0  0  0  0  0  0
  141.4500   80.4550  221.5480 C   0  0  0  0  0  0  0  0  0  0  0  0
  143.5632   75.6607  217.5892 H   0  0  0  0  0  0  0  0  0  0  0  0
  143.4824   77.6433  216.0644 H   0  0  0  0  0  0  0  0  0  0  0  0
  142.4955   79.7350  216.8885 H   0  0  0  0  0  0  0  0  0  0  0  0
  141.5767   79.9436  219.1849 H   0  0  0  0  0  0  0  0  0  0  0  0
  141.7458   77.1429  221.7902 H   0  0  0  0  0  0  0  0  0  0  0  0
  139.5558   78.0427  221.8794 H   0  0  0  0  0  0  0  0  0  0  0  0
  139.7760   78.4086  220.0617 H   0  0  0  0  0  0  0  0  0  0  0  0
  139.1570   76.3390  219.6120 H   0  0  0  0  0  0  0  0  0  0  0  0
  137.9798   74.0646  220.9943 H   0  0  0  0  0  0  0  0  0  0  0  0
  139.6079   73.6338  220.3398 H   0  0  0  0  0  0  0  0  0  0  0  0
  139.5880   73.5520  223.2750 H   0  0  0  0  0  0  0  0  0  0  0  0
  138.5939   69.1559  222.6080 H   0  0  0  0  0  0  0  0  0  0  0  0
  139.0143   67.7680  224.6538 H   0  0  0  0  0  0  0  0  0  0  0  0
  139.8633   67.6509  226.9495 H   0  0  0  0  0  0  0  0  0  0  0  0
  141.5039   71.1803  228.8341 H   0  0  0  0  0  0  0  0  0  0  0  0
  141.0529   72.4751  226.7546 H   0  0  0  0  0  0  0  0  0  0  0  0
  143.0273   78.9894  221.2948 H   0  0  0  0  0  0  0  0  0  0  0  0
  142.0910   77.9868  223.6374 H   0  0  0  0  0  0  0  0  0  0  0  0
  143.1300   79.4221  223.6401 H   0  0  0  0  0  0  0  0  0  0  0  0
  140.2557   79.1738  224.2747 H   0  0  0  0  0  0  0  0  0  0  0  0
  141.3551   80.5303  224.6188 H   0  0  0  0  0  0  0  0  0  0  0  0
  139.4492   80.1703  222.3622 H   0  0  0  0  0  0  0  0  0  0  0  0
  140.2078   81.6595  222.9083 H   0  0  0  0  0  0  0  0  0  0  0  0
  140.9703   80.5027  220.5593 H   0  0  0  0  0  0  0  0  0  0  0  0
  142.2038   81.2560  221.5602 H   0  0  0  0  0  0  0  0  0  0  0  0
  1  2  3  0
  2  3  1  0
  3  4  2  0
  4  5  1  0
  5  6  2  0
  6  7  1  0
  7  8  2  0
  8  9  1  0
  9 10  1  0
 10 11  1  0
 11 12  1  0
 12 13  2  0
 12 14  1  0
 14 15  1  0
 15 16  1  0
 16 17  2  0
 16 18  1  0
 18 19  2  0
 19 20  1  0
 20 21  2  0
 21 22  1  0
 22 23  2  0
 23 24  1  0
 23 25  1  0
 25 26  2  0
 26 27  1  0
 27 28  2  0
  9 29  1  0
 29 30  1  0
 30 31  1  0
 31 32  1  0
 32 33  1  0
  8  3  1  0
 28 18  1  0
 33 29  1  0
 27 21  1  0
  4 34  1  0
  5 35  1  0
  6 36  1  0
  7 37  1  0
  9 38  1  1
 10 39  1  0
 10 40  1  0
 11 41  1  0
 14 42  1  0
 14 43  1  0
 15 44  1  0
 19 45  1  0
 20 46  1  0
 22 47  1  0
 25 48  1  0
 26 49  1  0
 29 50  1  0
 30 51  1  0
 30 52  1  0
 31 53  1  0
 31 54  1  0
 32 55  1  0
 32 56  1  0
 33 57  1  0
 33 58  1  0
M  END
>  <smiles>  (28) 
N#Cc1ccccc1[C@H](CNC(=O)CNC(=O)c1ccc2cc(F)ccc2n1)C1CCCC1

>  <score_type>  (28) 
oracle

>  <origin>  (28) 
autodockgpu

>  <m_score__min__energy>  (28) 
-9.6899999999999995

>  <m_primary>  (28) 
energy

>  <rmsd>  (28) 
2.465800224926533

>  <m_score__min__rmsd>  (28) 
2.465800224926533

>  <meeko>  (28) 
{"free_energy": -8.9, "intermolecular_energy": -11.29, "internal_energy": -2.82, "cluster_size": 11, "cluster_id": 3, "rank_in_cluster": 5}

>  <energy>  (28) 
-8.96

>  <cluster_rmsd>  (28) 
0.77

>  <cluster>  (28) 
3

$$$$

     RDKit          3D

 58 61  0  0  0  0  0  0  0  0999 V2000
  142.5180   74.8700  220.7900 N   0  0  0  0  0  0  0  0  0  0  0  0
  142.4800   75.7880  220.0700 C   0  0  0  0  0  0  0  0  0  0  0  0
  142.4380   76.9360  219.1990 C   0  0  0  0  0  0  0  0  0  0  0  0
  143.0450   76.8510  217.9650 C   0  0  0  0  0  0  0  0  0  0  0  0
  142.9990   77.9520  217.1430 C   0  0  0  0  0  0  0  0  0  0  0  0
  142.3540   79.0720  217.5910 C   0  0  0  0  0  0  0  0  0  0  0  0
  141.7410   79.1490  218.8410 C   0  0  0  0  0  0  0  0  0  0  0  0
  141.7870   78.0520  219.6620 C   0  0  0  0  0  0  0  0  0  0  0  0
  141.1090   78.0360  221.0240 C   0  0  2  0  0  0  0  0  0  0  0  0
  139.7020   77.6920  220.7620 C   0  0  0  0  0  0  0  0  0  0  0  0
  139.3860   76.3470  220.3610 N   0  0  0  0  0  0  0  0  0  0  0  0
  139.4130   75.2680  221.2840 C   0  0  0  0  0  0  0  0  0  0  0  0
  139.7230   75.5640  222.4750 O   0  0  0  0  0  0  0  0  0  0  0  0
  139.1170   73.8720  220.9850 C   0  0  0  0  0  0  0  0  0  0  0  0
  139.2920   73.0470  222.1560 N   0  0  0  0  0  0  0  0  0  0  0  0
  139.3820   71.6200  222.0950 C   0  0  0  0  0  0  0  0  0  0  0  0
  139.3200   70.9930  220.9820 O   0  0  0  0  0  0  0  0  0  0  0  0
  139.5510   70.8450  223.3400 C   0  0  0  0  0  0  0  0  0  0  0  0
  139.1450   69.5330  223.3860 C   0  0  0  0  0  0  0  0  0  0  0  0
  139.3000   68.7910  224.5560 C   0  0  0  0  0  0  0  0  0  0  0  0
  139.8670   69.4160  225.6560 C   0  0  0  0  0  0  0  0  0  0  0  0
  140.0470   68.7260  226.8520 C   0  0  0  0  0  0  0  0  0  0  0  0
  140.6170   69.3700  227.9400 C   0  0  0  0  0  0  0  0  0  0  0  0
  140.7780   68.6710  229.0890 F   0  0  0  0  0  0  0  0  0  0  0  0
  141.0210   70.6990  227.8770 C   0  0  0  0  0  0  0  0  0  0  0  0
  140.8420   71.3770  226.6890 C   0  0  0  0  0  0  0  0  0  0  0  0
  140.2750   70.7460  225.6000 C   0  0  0  0  0  0  0  0  0  0  0  0
  140.0980   71.4050  224.4390 N   0  0  0  0  0  0  0  0  0  0  0  0
  141.4940   79.2450  221.7420 C   0  0  0  0  0  0  0  0  0  0  0  0
  142.5410   79.1300  222.8260 C   0  0  0  0  0  0  0  0  0  0  0  0
  141.7890   79.1310  224.1340 C   0  0  0  0  0  0  0  0  0  0  0  0
  140.3540   79.5390  223.8270 C   0  0  0  0  0  0  0  0  0  0  0  0
  140.4170   80.0710  222.3940 C   0  0  0  0  0  0  0  0  0  0  0  0
  143.5521   75.9283  217.6465 H   0  0  0  0  0  0  0  0  0  0  0  0
  143.4696   77.9328  216.1489 H   0  0  0  0  0  0  0  0  0  0  0  0
  142.3172   79.9536  216.9341 H   0  0  0  0  0  0  0  0  0  0  0  0
  141.2316   80.0698  219.1614 H   0  0  0  0  0  0  0  0  0  0  0  0
  141.4186   77.2738  221.7542 H   0  0  0  0  0  0  0  0  0  0  0  0
  139.1408   77.8954  221.6859 H   0  0  0  0  0  0  0  0  0  0  0  0
  139.4345   78.3030  219.8872 H   0  0  0  0  0  0  0  0  0  0  0  0
  139.1290   76.1750  219.3850 H   0  0  0  0  0  0  0  0  0  0  0  0
  138.0760   73.7905  220.6392 H   0  0  0  0  0  0  0  0  0  0  0  0
  139.8093   73.5252  220.2037 H   0  0  0  0  0  0  0  0  0  0  0  0
  139.3630   73.4570  223.1200 H   0  0  0  0  0  0  0  0  0  0  0  0
  138.6962   69.0666  222.4966 H   0  0  0  0  0  0  0  0  0  0  0  0
  138.9814   67.7393  224.6050 H   0  0  0  0  0  0  0  0  0  0  0  0
  139.7381   67.6734  226.9336 H   0  0  0  0  0  0  0  0  0  0  0  0
  141.4705   71.1956  228.7496 H   0  0  0  0  0  0  0  0  0  0  0  0
  141.1536   72.4289  226.6088 H   0  0  0  0  0  0  0  0  0  0  0  0
  141.8875   79.7348  220.8391 H   0  0  0  0  0  0  0  0  0  0  0  0
  143.1078   78.1942  222.7119 H   0  0  0  0  0  0  0  0  0  0  0  0
  143.2638   79.9577  222.7768 H   0  0  0  0  0  0  0  0  0  0  0  0
  141.8079   78.1259  224.5806 H   0  0  0  0  0  0  0  0  0  0  0  0
  142.2493   79.8287  224.8490 H   0  0  0  0  0  0  0  0  0  0  0  0
  139.6790   78.6730  223.8929 H   0  0  0  0  0  0  0  0  0  0  0  0
  139.9651   80.2833  224.5374 H   0  0  0  0  0  0  0  0  0  0  0  0
  139.4534   79.9300  221.8825 H   0  0  0  0  0  0  0  0  0  0  0  0
  140.6296   81.1495  222.3533 H   0  0  0  0  0  0  0  0  0  0  0  0
  1  2  3  0
  2  3  1  0
  3  4  2  0
  4  5  1  0
  5  6  2  0
  6  7  1  0
  7  8  2  0
  8  9  1  0
  9 10  1  0
 10 11  1  0
 11 12  1  0
 12 13  2  0
 12 14  1  0
 14 15  1  0
 15 16  1  0
 16 17  2  0
 16 18  1  0
 18 19  2  0
 19 20  1  0
 20 21  2  0
 21 22  1  0
 22 23  2  0
 23 24  1  0
 23 25  1  0
 25 26  2  0
 26 27  1  0
 27 28  2  0
  9 29  1  0
 29 30  1  0
 30 31  1  0
 31 32  1  0
 32 33  1  0
  8  3  1  0
 28 18  1  0
 33 29  1  0
 27 21  1  0
  4 34  1  0
  5 35  1  0
  6 36  1  0
  7 37  1  0
  9 38  1  1
 10 39  1  0
 10 40  1  0
 11 41  1  0
 14 42  1  0
 14 43  1  0
 15 44  1  0
 19 45  1  0
 20 46  1  0
 22 47  1  0
 25 48  1  0
 26 49  1  0
 29 50  1  0
 30 51  1  0
 30 52  1  0
 31 53  1  0
 31 54  1  0
 32 55  1  0
 32 56  1  0
 33 57  1  0
 33 58  1  0
M  END
>  <smiles>  (29) 
N#Cc1ccccc1[C@H](CNC(=O)CNC(=O)c1ccc2cc(F)ccc2n1)C1CCCC1

>  <score_type>  (29) 
oracle

>  <origin>  (29) 
autodockgpu

>  <m_score__min__energy>  (29) 
-9.6899999999999995

>  <m_primary>  (29) 
energy

>  <rmsd>  (29) 
2.3550460176015253

>  <m_score__min__rmsd>  (29) 
2.3550460176015253

>  <meeko>  (29) 
{"free_energy": -8.76, "intermolecular_energy": -11.15, "internal_energy": -2.82, "cluster_size": 11, "cluster_id": 3, "rank_in_cluster": 9}

>  <energy>  (29) 
-8.9

>  <cluster_rmsd>  (29) 
0.86

>  <cluster>  (29) 
3

$$$$

     RDKit          3D

 58 61  0  0  0  0  0  0  0  0999 V2000
  139.5520   67.1450  224.9770 N   0  0  0  0  0  0  0  0  0  0  0  0
  139.8990   68.0220  225.6660 C   0  0  0  0  0  0  0  0  0  0  0  0
  140.3100   69.1160  226.5080 C   0  0  0  0  0  0  0  0  0  0  0  0
  140.7730   68.8370  227.7760 C   0  0  0  0  0  0  0  0  0  0  0  0
  141.1620   69.8890  228.5700 C   0  0  0  0  0  0  0  0  0  0  0  0
  141.0710   71.1560  228.0630 C   0  0  0  0  0  0  0  0  0  0  0  0
  140.6010   71.4300  226.7780 C   0  0  0  0  0  0  0  0  0  0  0  0
  140.2120   70.3820  225.9850 C   0  0  0  0  0  0  0  0  0  0  0  0
  139.7280   70.5880  224.5570 C   0  0  2  0  0  0  0  0  0  0  0  0
  140.6280   71.5960  223.9760 C   0  0  0  0  0  0  0  0  0  0  0  0
  140.1920   72.3160  222.8090 N   0  0  0  0  0  0  0  0  0  0  0  0
  140.9250   72.2810  221.5930 C   0  0  0  0  0  0  0  0  0  0  0  0
  141.9760   71.5750  221.5990 O   0  0  0  0  0  0  0  0  0  0  0  0
  140.5790   72.9740  220.3580 C   0  0  0  0  0  0  0  0  0  0  0  0
  140.9160   74.3750  220.4440 N   0  0  0  0  0  0  0  0  0  0  0  0
  140.3900   75.2400  221.4550 C   0  0  0  0  0  0  0  0  0  0  0  0
  139.5890   74.8100  222.3540 O   0  0  0  0  0  0  0  0  0  0  0  0
  140.7750   76.6660  221.4690 C   0  0  0  0  0  0  0  0  0  0  0  0
  141.4310   77.2050  220.3890 C   0  0  0  0  0  0  0  0  0  0  0  0
  141.7990   78.5500  220.3920 C   0  0  0  0  0  0  0  0  0  0  0  0
  141.4860   79.3110  221.5080 C   0  0  0  0  0  0  0  0  0  0  0  0
  141.8290   80.6600  221.5690 C   0  0  0  0  0  0  0  0  0  0  0  0
  141.5070   81.4020  222.6940 C   0  0  0  0  0  0  0  0  0  0  0  0
  141.8550   82.7110  222.7220 F   0  0  0  0  0  0  0  0  0  0  0  0
  140.8440   80.8400  223.7790 C   0  0  0  0  0  0  0  0  0  0  0  0
  140.5050   79.5040  223.7140 C   0  0  0  0  0  0  0  0  0  0  0  0
  140.8230   78.7550  222.5980 C   0  0  0  0  0  0  0  0  0  0  0  0
  140.4940   77.4500  222.5300 N   0  0  0  0  0  0  0  0  0  0  0  0
  138.2810   70.7600  224.5850 C   0  0  0  0  0  0  0  0  0  0  0  0
  137.4260   69.5670  224.9460 C   0  0  0  0  0  0  0  0  0  0  0  0
  136.8870   69.0300  223.6430 C   0  0  0  0  0  0  0  0  0  0  0  0
  137.1830   70.0700  222.5720 C   0  0  0  0  0  0  0  0  0  0  0  0
  137.5960   71.3130  223.3630 C   0  0  0  0  0  0  0  0  0  0  0  0
  140.8295   67.8012  228.1421 H   0  0  0  0  0  0  0  0  0  0  0  0
  141.5377   69.7162  229.5893 H   0  0  0  0  0  0  0  0  0  0  0  0
  141.3829   71.9984  228.6979 H   0  0  0  0  0  0  0  0  0  0  0  0
  140.5439   72.4648  226.4094 H   0  0  0  0  0  0  0  0  0  0  0  0
  139.8070   69.7488  223.8502 H   0  0  0  0  0  0  0  0  0  0  0  0
  140.8304   72.3407  224.7599 H   0  0  0  0  0  0  0  0  0  0  0  0
  141.4928   71.0138  223.6251 H   0  0  0  0  0  0  0  0  0  0  0  0
  139.3260   72.8590  222.8650 H   0  0  0  0  0  0  0  0  0  0  0  0
  141.1329   72.5206  219.5228 H   0  0  0  0  0  0  0  0  0  0  0  0
  139.4952   72.8817  220.1940 H   0  0  0  0  0  0  0  0  0  0  0  0
  141.5700   74.8330  219.7620 H   0  0  0  0  0  0  0  0  0  0  0  0
  141.6666   76.5738  219.5195 H   0  0  0  0  0  0  0  0  0  0  0  0
  142.3229   78.9948  219.5331 H   0  0  0  0  0  0  0  0  0  0  0  0
  142.3538   81.1345  220.7267 H   0  0  0  0  0  0  0  0  0  0  0  0
  140.5965   81.4436  224.6647 H   0  0  0  0  0  0  0  0  0  0  0  0
  139.9780   79.0324  224.5566 H   0  0  0  0  0  0  0  0  0  0  0  0
  138.3190   71.5011  225.3970 H   0  0  0  0  0  0  0  0  0  0  0  0
  138.0324   68.8018  225.4527 H   0  0  0  0  0  0  0  0  0  0  0  0
  136.6134   69.8474  225.6323 H   0  0  0  0  0  0  0  0  0  0  0  0
  137.3820   68.0800  223.3931 H   0  0  0  0  0  0  0  0  0  0  0  0
  135.8059   68.8405  223.7157 H   0  0  0  0  0  0  0  0  0  0  0  0
  138.0006   69.7344  221.9171 H   0  0  0  0  0  0  0  0  0  0  0  0
  136.3213   70.2554  221.9139 H   0  0  0  0  0  0  0  0  0  0  0  0
  138.2867   71.9371  222.7770 H   0  0  0  0  0  0  0  0  0  0  0  0
  136.7405   71.9573  223.6139 H   0  0  0  0  0  0  0  0  0  0  0  0
  1  2  3  0
  2  3  1  0
  3  4  2  0
  4  5  1  0
  5  6  2  0
  6  7  1  0
  7  8  2  0
  8  9  1  0
  9 10  1  0
 10 11  1  0
 11 12  1  0
 12 13  2  0
 12 14  1  0
 14 15  1  0
 15 16  1  0
 16 17  2  0
 16 18  1  0
 18 19  2  0
 19 20  1  0
 20 21  2  0
 21 22  1  0
 22 23  2  0
 23 24  1  0
 23 25  1  0
 25 26  2  0
 26 27  1  0
 27 28  2  0
  9 29  1  0
 29 30  1  0
 30 31  1  0
 31 32  1  0
 32 33  1  0
  8  3  1  0
 28 18  1  0
 33 29  1  0
 27 21  1  0
  4 34  1  0
  5 35  1  0
  6 36  1  0
  7 37  1  0
  9 38  1  6
 10 39  1  0
 10 40  1  0
 11 41  1  0
 14 42  1  0
 14 43  1  0
 15 44  1  0
 19 45  1  0
 20 46  1  0
 22 47  1  0
 25 48  1  0
 26 49  1  0
 29 50  1  0
 30 51  1  0
 30 52  1  0
 31 53  1  0
 31 54  1  0
 32 55  1  0
 32 56  1  0
 33 57  1  0
 33 58  1  0
M  END
>  <smiles>  (30) 
N#Cc1ccccc1[C@H](CNC(=O)CNC(=O)c1ccc2cc(F)ccc2n1)C1CCCC1

>  <score_type>  (30) 
oracle

>  <origin>  (30) 
autodockgpu

>  <m_score__min__energy>  (30) 
-9.6899999999999995

>  <m_primary>  (30) 
energy

>  <rmsd>  (30) 
8.897785871822197

>  <m_score__min__rmsd>  (30) 
8.897785871822197

>  <meeko>  (30) 
{"free_energy": -9.32, "intermolecular_energy": -11.71, "internal_energy": -2.24, "cluster_size": 10, "cluster_id": 1, "rank_in_cluster": 4}

>  <energy>  (30) 
-8.86

>  <cluster_rmsd>  (30) 
0.98

>  <cluster>  (30) 
3

$$$$

     RDKit          3D

 58 61  0  0  0  0  0  0  0  0999 V2000
  139.9930   79.6290  219.0820 N   0  0  0  0  0  0  0  0  0  0  0  0
  140.4970   79.6250  220.1350 C   0  0  0  0  0  0  0  0  0  0  0  0
  141.1180   79.6420  221.4350 C   0  0  0  0  0  0  0  0  0  0  0  0
  141.6080   80.8370  221.9170 C   0  0  0  0  0  0  0  0  0  0  0  0
  142.1990   80.8420  223.1580 C   0  0  0  0  0  0  0  0  0  0  0  0
  142.2700   79.6640  223.8490 C   0  0  0  0  0  0  0  0  0  0  0  0
  141.7720   78.4590  223.3540 C   0  0  0  0  0  0  0  0  0  0  0  0
  141.1830   78.4530  222.1160 C   0  0  0  0  0  0  0  0  0  0  0  0
  140.5750   77.1920  221.5190 C   0  0  2  0  0  0  0  0  0  0  0  0
  139.7210   76.6260  222.5750 C   0  0  0  0  0  0  0  0  0  0  0  0
  139.2330   75.2810  222.4180 N   0  0  0  0  0  0  0  0  0  0  0  0
  138.3150   74.9360  221.3910 C   0  0  0  0  0  0  0  0  0  0  0  0
  137.9610   75.8780  220.6240 O   0  0  0  0  0  0  0  0  0  0  0  0
  137.7550   73.6120  221.1470 C   0  0  0  0  0  0  0  0  0  0  0  0
  138.0680   72.7130  222.2320 N   0  0  0  0  0  0  0  0  0  0  0  0
  139.4090   72.3790  222.6010 C   0  0  0  0  0  0  0  0  0  0  0  0
  140.4160   72.8730  221.9860 O   0  0  0  0  0  0  0  0  0  0  0  0
  139.6480   71.4430  223.7170 C   0  0  0  0  0  0  0  0  0  0  0  0
  139.3460   70.1120  223.5660 C   0  0  0  0  0  0  0  0  0  0  0  0
  139.5670   69.2190  224.6140 C   0  0  0  0  0  0  0  0  0  0  0  0
  140.0930   69.7160  225.7960 C   0  0  0  0  0  0  0  0  0  0  0  0
  140.3360   68.8720  226.8780 C   0  0  0  0  0  0  0  0  0  0  0  0
  140.8630   69.3900  228.0510 C   0  0  0  0  0  0  0  0  0  0  0  0
  141.0870   68.5430  229.0840 F   0  0  0  0  0  0  0  0  0  0  0  0
  141.1620   70.7410  228.1870 C   0  0  0  0  0  0  0  0  0  0  0  0
  140.9220   71.5720  227.1130 C   0  0  0  0  0  0  0  0  0  0  0  0
  140.3960   71.0670  225.9400 C   0  0  0  0  0  0  0  0  0  0  0  0
  140.1590   71.8750  224.8890 N   0  0  0  0  0  0  0  0  0  0  0  0
  141.6420   76.4250  220.8870 C   0  0  0  0  0  0  0  0  0  0  0  0
  142.5900   77.1500  219.9590 C   0  0  0  0  0  0  0  0  0  0  0  0
  142.1350   76.8230  218.5590 C   0  0  0  0  0  0  0  0  0  0  0  0
  141.1230   75.6900  218.6680 C   0  0  0  0  0  0  0  0  0  0  0  0
  141.2780   75.1900  220.1060 C   0  0  0  0  0  0  0  0  0  0  0  0
  141.5283   81.7607  221.3250 H   0  0  0  0  0  0  0  0  0  0  0  0
  142.6050   81.7709  223.5849 H   0  0  0  0  0  0  0  0  0  0  0  0
  142.7423   79.6670  224.8424 H   0  0  0  0  0  0  0  0  0  0  0  0
  141.8501   77.5338  223.9439 H   0  0  0  0  0  0  0  0  0  0  0  0
  139.8836   77.2951  220.6697 H   0  0  0  0  0  0  0  0  0  0  0  0
  140.2996   76.6542  223.5101 H   0  0  0  0  0  0  0  0  0  0  0  0
  138.8129   77.2462  222.5474 H   0  0  0  0  0  0  0  0  0  0  0  0
  139.5680   74.5610  223.0640 H   0  0  0  0  0  0  0  0  0  0  0  0
  136.6623   73.6950  221.0517 H   0  0  0  0  0  0  0  0  0  0  0  0
  138.1918   73.2107  220.2206 H   0  0  0  0  0  0  0  0  0  0  0  0
  137.3200   72.2560  222.8100 H   0  0  0  0  0  0  0  0  0  0  0  0
  138.9284   69.7490  222.6153 H   0  0  0  0  0  0  0  0  0  0  0  0
  139.3305   68.1502  224.5056 H   0  0  0  0  0  0  0  0  0  0  0  0
  140.1103   67.7981  226.8016 H   0  0  0  0  0  0  0  0  0  0  0  0
  141.5785   71.1361  229.1253 H   0  0  0  0  0  0  0  0  0  0  0  0
  141.1512   72.6450  227.1911 H   0  0  0  0  0  0  0  0  0  0  0  0
  142.1172   76.1706  221.8459 H   0  0  0  0  0  0  0  0  0  0  0  0
  142.5399   78.2350  220.1332 H   0  0  0  0  0  0  0  0  0  0  0  0
  143.6321   76.8399  220.1260 H   0  0  0  0  0  0  0  0  0  0  0  0
  141.6652   77.7052  218.0996 H   0  0  0  0  0  0  0  0  0  0  0  0
  142.9875   76.5262  217.9304 H   0  0  0  0  0  0  0  0  0  0  0  0
  140.1022   76.0595  218.4907 H   0  0  0  0  0  0  0  0  0  0  0  0
  141.2937   74.8977  217.9243 H   0  0  0  0  0  0  0  0  0  0  0  0
  140.3348   74.7594  220.4735 H   0  0  0  0  0  0  0  0  0  0  0  0
  142.0326   74.3949  220.1975 H   0  0  0  0  0  0  0  0  0  0  0  0
  1  2  3  0
  2  3  1  0
  3  4  2  0
  4  5  1  0
  5  6  2  0
  6  7  1  0
  7  8  2  0
  8  9  1  0
  9 10  1  0
 10 11  1  0
 11 12  1  0
 12 13  2  0
 12 14  1  0
 14 15  1  0
 15 16  1  0
 16 17  2  0
 16 18  1  0
 18 19  2  0
 19 20  1  0
 20 21  2  0
 21 22  1  0
 22 23  2  0
 23 24  1  0
 23 25  1  0
 25 26  2  0
 26 27  1  0
 27 28  2  0
  9 29  1  0
 29 30  1  0
 30 31  1  0
 31 32  1  0
 32 33  1  0
  8  3  1  0
 28 18  1  0
 33 29  1  0
 27 21  1  0
  4 34  1  0
  5 35  1  0
  6 36  1  0
  7 37  1  0
  9 38  1  6
 10 39  1  0
 10 40  1  0
 11 41  1  0
 14 42  1  0
 14 43  1  0
 15 44  1  0
 19 45  1  0
 20 46  1  0
 22 47  1  0
 25 48  1  0
 26 49  1  0
 29 50  1  0
 30 51  1  0
 30 52  1  0
 31 53  1  0
 31 54  1  0
 32 55  1  0
 32 56  1  0
 33 57  1  0
 33 58  1  0
M  END
>  <smiles>  (31) 
N#Cc1ccccc1[C@H](CNC(=O)CNC(=O)c1ccc2cc(F)ccc2n1)C1CCCC1

>  <score_type>  (31) 
oracle

>  <origin>  (31) 
autodockgpu

>  <m_score__min__energy>  (31) 
-9.6899999999999995

>  <m_primary>  (31) 
energy

>  <rmsd>  (31) 
2.51560085390225

>  <m_score__min__rmsd>  (31) 
2.51560085390225

>  <meeko>  (31) 
{"free_energy": -8.44, "intermolecular_energy": -10.83, "internal_energy": -2.77, "cluster_size": 14, "cluster_id": 2, "rank_in_cluster": 13}

>  <energy>  (31) 
-8.84

>  <cluster_rmsd>  (31) 
0.96

>  <cluster>  (31) 
3

$$$$

     RDKit          3D

 58 61  0  0  0  0  0  0  0  0999 V2000
  140.3870   82.6260  221.0480 N   0  0  0  0  0  0  0  0  0  0  0  0
  139.6220   82.0680  221.7310 C   0  0  0  0  0  0  0  0  0  0  0  0
  138.6640   81.3980  222.5740 C   0  0  0  0  0  0  0  0  0  0  0  0
  137.7870   82.1620  223.3130 C   0  0  0  0  0  0  0  0  0  0  0  0
  136.8780   81.5120  224.1140 C   0  0  0  0  0  0  0  0  0  0  0  0
  136.8900   80.1440  224.1350 C   0  0  0  0  0  0  0  0  0  0  0  0
  137.7810   79.3790  223.3830 C   0  0  0  0  0  0  0  0  0  0  0  0
  138.6900   80.0260  222.5850 C   0  0  0  0  0  0  0  0  0  0  0  0
  139.6690   79.2680  221.7010 C   0  0  2  0  0  0  0  0  0  0  0  0
  138.8580   78.2870  220.9630 C   0  0  0  0  0  0  0  0  0  0  0  0
  139.4680   77.0420  220.5760 N   0  0  0  0  0  0  0  0  0  0  0  0
  139.5120   75.9280  221.4560 C   0  0  0  0  0  0  0  0  0  0  0  0
  138.9780   76.0950  222.5910 O   0  0  0  0  0  0  0  0  0  0  0  0
  140.1080   74.6280  221.1690 C   0  0  0  0  0  0  0  0  0  0  0  0
  139.9420   73.7290  222.2860 N   0  0  0  0  0  0  0  0  0  0  0  0
  140.4710   72.4000  222.2980 C   0  0  0  0  0  0  0  0  0  0  0  0
  141.1360   71.9350  221.3100 O   0  0  0  0  0  0  0  0  0  0  0  0
  140.2500   71.5370  223.4750 C   0  0  0  0  0  0  0  0  0  0  0  0
  139.5710   70.3510  223.3330 C   0  0  0  0  0  0  0  0  0  0  0  0
  139.3570   69.5270  224.4370 C   0  0  0  0  0  0  0  0  0  0  0  0
  139.8440   69.9430  225.6670 C   0  0  0  0  0  0  0  0  0  0  0  0
  139.6610   69.1630  226.8060 C   0  0  0  0  0  0  0  0  0  0  0  0
  140.1560   69.5980  228.0260 C   0  0  0  0  0  0  0  0  0  0  0  0
  139.9610   68.8170  229.1150 F   0  0  0  0  0  0  0  0  0  0  0  0
  140.8400   70.8020  228.1530 C   0  0  0  0  0  0  0  0  0  0  0  0
  141.0210   71.5700  227.0210 C   0  0  0  0  0  0  0  0  0  0  0  0
  140.5300   71.1470  225.8010 C   0  0  0  0  0  0  0  0  0  0  0  0
  140.7040   71.8940  224.6950 N   0  0  0  0  0  0  0  0  0  0  0  0
  140.8130   78.8780  222.5150 C   0  0  0  0  0  0  0  0  0  0  0  0
  140.9530   79.4890  223.8900 C   0  0  0  0  0  0  0  0  0  0  0  0
  141.9870   80.5800  223.7590 C   0  0  0  0  0  0  0  0  0  0  0  0
  142.6520   80.4070  222.4000 C   0  0  0  0  0  0  0  0  0  0  0  0
  142.1950   79.0230  221.9350 C   0  0  0  0  0  0  0  0  0  0  0  0
  137.8134   83.2606  223.2635 H   0  0  0  0  0  0  0  0  0  0  0  0
  136.1583   82.0783  224.7234 H   0  0  0  0  0  0  0  0  0  0  0  0
  136.1627   79.6232  224.7751 H   0  0  0  0  0  0  0  0  0  0  0  0
  137.7555   78.2802  223.4287 H   0  0  0  0  0  0  0  0  0  0  0  0
  140.1842   79.8165  220.8986 H   0  0  0  0  0  0  0  0  0  0  0  0
  137.9917   78.0413  221.5948 H   0  0  0  0  0  0  0  0  0  0  0  0
  138.6362   78.7858  220.0080 H   0  0  0  0  0  0  0  0  0  0  0  0
  139.8720   76.9660  219.6380 H   0  0  0  0  0  0  0  0  0  0  0  0
  139.6204   74.1957  220.2828 H   0  0  0  0  0  0  0  0  0  0  0  0
  141.1837   74.7666  220.9855 H   0  0  0  0  0  0  0  0  0  0  0  0
  139.4200   74.0090  223.1530 H   0  0  0  0  0  0  0  0  0  0  0  0
  139.1947   70.0504  222.3441 H   0  0  0  0  0  0  0  0  0  0  0  0
  138.8172   68.5740  224.3353 H   0  0  0  0  0  0  0  0  0  0  0  0
  139.1253   68.2046  226.7381 H   0  0  0  0  0  0  0  0  0  0  0  0
  141.2259   71.1329  229.1285 H   0  0  0  0  0  0  0  0  0  0  0  0
  141.5603   72.5262  227.0905 H   0  0  0  0  0  0  0  0  0  0  0  0
  140.5036   77.8234  222.5615 H   0  0  0  0  0  0  0  0  0  0  0  0
  139.9923   79.9110  224.2200 H   0  0  0  0  0  0  0  0  0  0  0  0
  141.2533   78.7377  224.6352 H   0  0  0  0  0  0  0  0  0  0  0  0
  141.5042   81.5665  223.8198 H   0  0  0  0  0  0  0  0  0  0  0  0
  142.7289   80.5151  224.5686 H   0  0  0  0  0  0  0  0  0  0  0  0
  142.3161   81.1852  221.6989 H   0  0  0  0  0  0  0  0  0  0  0  0
  143.7473   80.4950  222.4514 H   0  0  0  0  0  0  0  0  0  0  0  0
  142.1650   78.9704  220.8367 H   0  0  0  0  0  0  0  0  0  0  0  0
  142.8755   78.2224  222.2606 H   0  0  0  0  0  0  0  0  0  0  0  0
  1  2  3  0
  2  3  1  0
  3  4  2  0
  4  5  1  0
  5  6  2  0
  6  7  1  0
  7  8  2  0
  8  9  1  0
  9 10  1  0
 10 11  1  0
 11 12  1  0
 12 13  2  0
 12 14  1  0
 14 15  1  0
 15 16  1  0
 16 17  2  0
 16 18  1  0
 18 19  2  0
 19 20  1  0
 20 21  2  0
 21 22  1  0
 22 23  2  0
 23 24  1  0
 23 25  1  0
 25 26  2  0
 26 27  1  0
 27 28  2  0
  9 29  1  0
 29 30  1  0
 30 31  1  0
 31 32  1  0
 32 33  1  0
  8  3  1  0
 28 18  1  0
 33 29  1  0
 27 21  1  0
  4 34  1  0
  5 35  1  0
  6 36  1  0
  7 37  1  0
  9 38  1  6
 10 39  1  0
 10 40  1  0
 11 41  1  0
 14 42  1  0
 14 43  1  0
 15 44  1  0
 19 45  1  0
 20 46  1  0
 22 47  1  0
 25 48  1  0
 26 49  1  0
 29 50  1  0
 30 51  1  0
 30 52  1  0
 31 53  1  0
 31 54  1  0
 32 55  1  0
 32 56  1  0
 33 57  1  0
 33 58  1  0
M  END
>  <smiles>  (32) 
N#Cc1ccccc1[C@H](CNC(=O)CNC(=O)c1ccc2cc(F)ccc2n1)C1CCCC1

>  <score_type>  (32) 
oracle

>  <origin>  (32) 
autodockgpu

>  <m_score__min__energy>  (32) 
-9.6899999999999995

>  <m_primary>  (32) 
energy

>  <rmsd>  (32) 
3.1254929472261193

>  <m_score__min__rmsd>  (32) 
3.1254929472261193

>  <meeko>  (32) 
{"free_energy": -8.58, "intermolecular_energy": -10.97, "internal_energy": -2.64, "cluster_size": 14, "cluster_id": 2, "rank_in_cluster": 9}

>  <energy>  (32) 
-8.82

>  <cluster_rmsd>  (32) 
0.88

>  <cluster>  (32) 
3

$$$$

     RDKit          3D

 58 61  0  0  0  0  0  0  0  0999 V2000
  142.6290   74.5650  220.8210 N   0  0  0  0  0  0  0  0  0  0  0  0
  142.6250   75.4890  220.1070 C   0  0  0  0  0  0  0  0  0  0  0  0
  142.6130   76.6420  219.2420 C   0  0  0  0  0  0  0  0  0  0  0  0
  143.2200   76.5490  218.0080 C   0  0  0  0  0  0  0  0  0  0  0  0
  143.2040   77.6550  217.1920 C   0  0  0  0  0  0  0  0  0  0  0  0
  142.5860   78.7880  217.6460 C   0  0  0  0  0  0  0  0  0  0  0  0
  141.9740   78.8740  218.8960 C   0  0  0  0  0  0  0  0  0  0  0  0
  141.9910   77.7720  219.7110 C   0  0  0  0  0  0  0  0  0  0  0  0
  141.3100   77.7650  221.0720 C   0  0  2  0  0  0  0  0  0  0  0  0
  139.8680   77.6870  220.7930 C   0  0  0  0  0  0  0  0  0  0  0  0
  139.2930   76.4010  220.4980 N   0  0  0  0  0  0  0  0  0  0  0  0
  139.4180   75.3050  221.3920 C   0  0  0  0  0  0  0  0  0  0  0  0
  140.0580   75.5310  222.4610 O   0  0  0  0  0  0  0  0  0  0  0  0
  138.8820   73.9640  221.1900 C   0  0  0  0  0  0  0  0  0  0  0  0
  139.1760   73.1180  222.3220 N   0  0  0  0  0  0  0  0  0  0  0  0
  138.9850   71.7000  222.3020 C   0  0  0  0  0  0  0  0  0  0  0  0
  138.5460   71.0980  221.2620 O   0  0  0  0  0  0  0  0  0  0  0  0
  139.2990   70.9030  223.5040 C   0  0  0  0  0  0  0  0  0  0  0  0
  139.0080   69.5610  223.5270 C   0  0  0  0  0  0  0  0  0  0  0  0
  139.3010   68.7980  224.6570 C   0  0  0  0  0  0  0  0  0  0  0  0
  139.8850   69.4350  225.7410 C   0  0  0  0  0  0  0  0  0  0  0  0
  140.2000   68.7250  226.8980 C   0  0  0  0  0  0  0  0  0  0  0  0
  140.7840   69.3810  227.9710 C   0  0  0  0  0  0  0  0  0  0  0  0
  141.0780   68.6630  229.0810 F   0  0  0  0  0  0  0  0  0  0  0  0
  141.0710   70.7410  227.9310 C   0  0  0  0  0  0  0  0  0  0  0  0
  140.7590   71.4380  226.7830 C   0  0  0  0  0  0  0  0  0  0  0  0
  140.1750   70.7950  225.7090 C   0  0  0  0  0  0  0  0  0  0  0  0
  139.8680   71.4730  224.5860 N   0  0  0  0  0  0  0  0  0  0  0  0
  141.8910   78.8320  221.8790 C   0  0  0  0  0  0  0  0  0  0  0  0
  141.8360   78.6990  223.3840 C   0  0  0  0  0  0  0  0  0  0  0  0
  140.7000   79.5820  223.8390 C   0  0  0  0  0  0  0  0  0  0  0  0
  140.2940   80.4410  222.6500 C   0  0  0  0  0  0  0  0  0  0  0  0
  141.4310   80.2460  221.6440 C   0  0  0  0  0  0  0  0  0  0  0  0
  143.7039   75.6154  217.6851 H   0  0  0  0  0  0  0  0  0  0  0  0
  143.6762   77.6298  216.1988 H   0  0  0  0  0  0  0  0  0  0  0  0
  142.5712   79.6736  216.9937 H   0  0  0  0  0  0  0  0  0  0  0  0
  141.4882   79.8059  219.2209 H   0  0  0  0  0  0  0  0  0  0  0  0
  141.4791   76.9066  221.7388 H   0  0  0  0  0  0  0  0  0  0  0  0
  139.3448   78.0814  221.6765 H   0  0  0  0  0  0  0  0  0  0  0  0
  139.7435   78.2573  219.8606 H   0  0  0  0  0  0  0  0  0  0  0  0
  138.7750   76.2870  219.6220 H   0  0  0  0  0  0  0  0  0  0  0  0
  137.7915   74.0273  221.0608 H   0  0  0  0  0  0  0  0  0  0  0  0
  139.3494   73.5290  220.2943 H   0  0  0  0  0  0  0  0  0  0  0  0
  139.5480   73.5040  223.2250 H   0  0  0  0  0  0  0  0  0  0  0  0
  138.5421   69.0862  222.6509 H   0  0  0  0  0  0  0  0  0  0  0  0
  139.0752   67.7218  224.6873 H   0  0  0  0  0  0  0  0  0  0  0  0
  139.9861   67.6478  226.9599 H   0  0  0  0  0  0  0  0  0  0  0  0
  141.5340   71.2466  228.7912 H   0  0  0  0  0  0  0  0  0  0  0  0
  140.9768   72.5145  226.7219 H   0  0  0  0  0  0  0  0  0  0  0  0
  142.9056   78.6679  221.4870 H   0  0  0  0  0  0  0  0  0  0  0  0
  141.6450   77.6537  223.6685 H   0  0  0  0  0  0  0  0  0  0  0  0
  142.7876   78.9953  223.8494 H   0  0  0  0  0  0  0  0  0  0  0  0
  139.8502   78.9646  224.1656 H   0  0  0  0  0  0  0  0  0  0  0  0
  141.0093   80.2103  224.6873 H   0  0  0  0  0  0  0  0  0  0  0  0
  139.3371   80.0984  222.2292 H   0  0  0  0  0  0  0  0  0  0  0  0
  140.1470   81.4966  222.9220 H   0  0  0  0  0  0  0  0  0  0  0  0
  141.0667   80.3719  220.6138 H   0  0  0  0  0  0  0  0  0  0  0  0
  142.2399   80.9801  221.7737 H   0  0  0  0  0  0  0  0  0  0  0  0
  1  2  3  0
  2  3  1  0
  3  4  2  0
  4  5  1  0
  5  6  2  0
  6  7  1  0
  7  8  2  0
  8  9  1  0
  9 10  1  0
 10 11  1  0
 11 12  1  0
 12 13  2  0
 12 14  1  0
 14 15  1  0
 15 16  1  0
 16 17  2  0
 16 18  1  0
 18 19  2  0
 19 20  1  0
 20 21  2  0
 21 22  1  0
 22 23  2  0
 23 24  1  0
 23 25  1  0
 25 26  2  0
 26 27  1  0
 27 28  2  0
  9 29  1  0
 29 30  1  0
 30 31  1  0
 31 32  1  0
 32 33  1  0
  8  3  1  0
 28 18  1  0
 33 29  1  0
 27 21  1  0
  4 34  1  0
  5 35  1  0
  6 36  1  0
  7 37  1  0
  9 38  1  1
 10 39  1  0
 10 40  1  0
 11 41  1  0
 14 42  1  0
 14 43  1  0
 15 44  1  0
 19 45  1  0
 20 46  1  0
 22 47  1  0
 25 48  1  0
 26 49  1  0
 29 50  1  0
 30 51  1  0
 30 52  1  0
 31 53  1  0
 31 54  1  0
 32 55  1  0
 32 56  1  0
 33 57  1  0
 33 58  1  0
M  END
>  <smiles>  (33) 
N#Cc1ccccc1[C@H](CNC(=O)CNC(=O)c1ccc2cc(F)ccc2n1)C1CCCC1

>  <score_type>  (33) 
oracle

>  <origin>  (33) 
autodockgpu

>  <m_score__min__energy>  (33) 
-9.6899999999999995

>  <m_primary>  (33) 
energy

>  <rmsd>  (33) 
2.388341125497363

>  <m_score__min__rmsd>  (33) 
2.388341125497363

>  <meeko>  (33) 
{"free_energy": -8.86, "intermolecular_energy": -11.24, "internal_energy": -2.83, "cluster_size": 11, "cluster_id": 3, "rank_in_cluster": 6}

>  <energy>  (33) 
-8.76

>  <cluster_rmsd>  (33) 
0.84

>  <cluster>  (33) 
3

$$$$

     RDKit          3D

 58 61  0  0  0  0  0  0  0  0999 V2000
  139.3650   79.8420  219.0860 N   0  0  0  0  0  0  0  0  0  0  0  0
  139.0780   79.9910  220.2070 C   0  0  0  0  0  0  0  0  0  0  0  0
  138.7140   80.1530  221.5920 C   0  0  0  0  0  0  0  0  0  0  0  0
  137.4980   80.7270  221.8930 C   0  0  0  0  0  0  0  0  0  0  0  0
  137.1610   80.8770  223.2180 C   0  0  0  0  0  0  0  0  0  0  0  0
  138.0490   80.4500  224.1670 C   0  0  0  0  0  0  0  0  0  0  0  0
  139.2780   79.8690  223.8540 C   0  0  0  0  0  0  0  0  0  0  0  0
  139.6150   79.7200  222.5330 C   0  0  0  0  0  0  0  0  0  0  0  0
  140.9170   79.0590  222.1030 C   0  0  2  0  0  0  0  0  0  0  0  0
  141.0840   77.8990  222.9930 C   0  0  0  0  0  0  0  0  0  0  0  0
  141.0010   76.5790  222.4260 N   0  0  0  0  0  0  0  0  0  0  0  0
  139.7750   76.0510  221.9440 C   0  0  0  0  0  0  0  0  0  0  0  0
  138.7680   76.8120  222.0360 O   0  0  0  0  0  0  0  0  0  0  0  0
  139.5780   74.7300  221.3580 C   0  0  0  0  0  0  0  0  0  0  0  0
  139.5960   73.7080  222.3780 N   0  0  0  0  0  0  0  0  0  0  0  0
  139.7050   72.3140  222.0770 C   0  0  0  0  0  0  0  0  0  0  0  0
  139.8020   71.8940  220.8730 O   0  0  0  0  0  0  0  0  0  0  0  0
  139.7080   71.3270  223.1760 C   0  0  0  0  0  0  0  0  0  0  0  0
  139.2150   70.0640  222.9580 C   0  0  0  0  0  0  0  0  0  0  0  0
  139.2120   69.1240  223.9880 C   0  0  0  0  0  0  0  0  0  0  0  0
  139.7140   69.5060  225.2220 C   0  0  0  0  0  0  0  0  0  0  0  0
  139.7380   68.6110  226.2900 C   0  0  0  0  0  0  0  0  0  0  0  0
  140.2450   69.0140  227.5160 C   0  0  0  0  0  0  0  0  0  0  0  0
  140.2530   68.1200  228.5330 F   0  0  0  0  0  0  0  0  0  0  0  0
  140.7390   70.2980  227.7190 C   0  0  0  0  0  0  0  0  0  0  0  0
  140.7150   71.1800  226.6590 C   0  0  0  0  0  0  0  0  0  0  0  0
  140.2110   70.7890  225.4330 C   0  0  0  0  0  0  0  0  0  0  0  0
  140.1850   71.6480  224.3960 N   0  0  0  0  0  0  0  0  0  0  0  0
  141.9350   80.0940  221.9730 C   0  0  0  0  0  0  0  0  0  0  0  0
  143.2370   79.9130  222.7190 C   0  0  0  0  0  0  0  0  0  0  0  0
  143.1420   80.7880  223.9440 C   0  0  0  0  0  0  0  0  0  0  0  0
  141.9290   81.6890  223.7600 C   0  0  0  0  0  0  0  0  0  0  0  0
  141.5590   81.5190  222.2850 C   0  0  0  0  0  0  0  0  0  0  0  0
  136.8156   81.0562  221.0955 H   0  0  0  0  0  0  0  0  0  0  0  0
  136.2010   81.3292  223.5075 H   0  0  0  0  0  0  0  0  0  0  0  0
  137.7812   80.5705  225.2271 H   0  0  0  0  0  0  0  0  0  0  0  0
  139.9618   79.5376  224.6493 H   0  0  0  0  0  0  0  0  0  0  0  0
  140.9716   78.6114  221.0997 H   0  0  0  0  0  0  0  0  0  0  0  0
  142.0754   77.9893  223.4610 H   0  0  0  0  0  0  0  0  0  0  0  0
  140.2200   77.9546  223.6715 H   0  0  0  0  0  0  0  0  0  0  0  0
  141.8550   76.0180  222.3680 H   0  0  0  0  0  0  0  0  0  0  0  0
  138.6075   74.7061  220.8408 H   0  0  0  0  0  0  0  0  0  0  0  0
  140.3953   74.5339  220.6484 H   0  0  0  0  0  0  0  0  0  0  0  0
  139.5300   73.9400  223.4000 H   0  0  0  0  0  0  0  0  0  0  0  0
  138.8211   69.7928  221.9674 H   0  0  0  0  0  0  0  0  0  0  0  0
  138.8223   68.1082  223.8257 H   0  0  0  0  0  0  0  0  0  0  0  0
  139.3558   67.5877  226.1607 H   0  0  0  0  0  0  0  0  0  0  0  0
  141.1379   70.6018  228.6981 H   0  0  0  0  0  0  0  0  0  0  0  0
  141.0998   72.2021  226.7903 H   0  0  0  0  0  0  0  0  0  0  0  0
  142.0536   79.9350  220.8910 H   0  0  0  0  0  0  0  0  0  0  0  0
  143.3667   78.8604  223.0108 H   0  0  0  0  0  0  0  0  0  0  0  0
  144.0997   80.1880  222.0945 H   0  0  0  0  0  0  0  0  0  0  0  0
  143.0168   80.1661  224.8427 H   0  0  0  0  0  0  0  0  0  0  0  0
  144.0571   81.3855  224.0693 H   0  0  0  0  0  0  0  0  0  0  0  0
  141.1016   81.3677  224.4098 H   0  0  0  0  0  0  0  0  0  0  0  0
  142.1364   82.7361  224.0255 H   0  0  0  0  0  0  0  0  0  0  0  0
  140.4819   81.6811  222.1316 H   0  0  0  0  0  0  0  0  0  0  0  0
  142.0726   82.2428  221.6351 H   0  0  0  0  0  0  0  0  0  0  0  0
  1  2  3  0
  2  3  1  0
  3  4  2  0
  4  5  1  0
  5  6  2  0
  6  7  1  0
  7  8  2  0
  8  9  1  0
  9 10  1  0
 10 11  1  0
 11 12  1  0
 12 13  2  0
 12 14  1  0
 14 15  1  0
 15 16  1  0
 16 17  2  0
 16 18  1  0
 18 19  2  0
 19 20  1  0
 20 21  2  0
 21 22  1  0
 22 23  2  0
 23 24  1  0
 23 25  1  0
 25 26  2  0
 26 27  1  0
 27 28  2  0
  9 29  1  0
 29 30  1  0
 30 31  1  0
 31 32  1  0
 32 33  1  0
  8  3  1  0
 28 18  1  0
 33 29  1  0
 27 21  1  0
  4 34  1  0
  5 35  1  0
  6 36  1  0
  7 37  1  0
  9 38  1  6
 10 39  1  0
 10 40  1  0
 11 41  1  0
 14 42  1  0
 14 43  1  0
 15 44  1  0
 19 45  1  0
 20 46  1  0
 22 47  1  0
 25 48  1  0
 26 49  1  0
 29 50  1  0
 30 51  1  0
 30 52  1  0
 31 53  1  0
 31 54  1  0
 32 55  1  0
 32 56  1  0
 33 57  1  0
 33 58  1  0
M  END
>  <smiles>  (34) 
N#Cc1ccccc1[C@H](CNC(=O)CNC(=O)c1ccc2cc(F)ccc2n1)C1CCCC1

>  <score_type>  (34) 
oracle

>  <origin>  (34) 
autodockgpu

>  <m_score__min__energy>  (34) 
-9.6899999999999995

>  <m_primary>  (34) 
energy

>  <rmsd>  (34) 
3.226358223181548

>  <m_score__min__rmsd>  (34) 
3.226358223181548

>  <meeko>  (34) 
{"free_energy": -9.09, "intermolecular_energy": -11.47, "internal_energy": -2.13, "cluster_size": 14, "cluster_id": 2, "rank_in_cluster": 6}

>  <energy>  (34) 
-8.63

>  <cluster_rmsd>  (34) 
1.99

>  <cluster>  (34) 
3

$$$$

     RDKit          3D

 58 61  0  0  0  0  0  0  0  0999 V2000
  139.3330   67.4160  225.1840 N   0  0  0  0  0  0  0  0  0  0  0  0
  139.7170   68.3660  225.7430 C   0  0  0  0  0  0  0  0  0  0  0  0
  140.1900   69.5500  226.4140 C   0  0  0  0  0  0  0  0  0  0  0  0
  140.6280   69.4420  227.7160 C   0  0  0  0  0  0  0  0  0  0  0  0
  141.0760   70.5790  228.3460 C   0  0  0  0  0  0  0  0  0  0  0  0
  141.0650   71.7560  227.6500 C   0  0  0  0  0  0  0  0  0  0  0  0
  140.6200   71.8570  226.3320 C   0  0  0  0  0  0  0  0  0  0  0  0
  140.1710   70.7240  225.7030 C   0  0  0  0  0  0  0  0  0  0  0  0
  139.7080   70.7370  224.2530 C   0  0  2  0  0  0  0  0  0  0  0  0
  140.7020   71.5430  223.5270 C   0  0  0  0  0  0  0  0  0  0  0  0
  140.2370   72.6150  222.6870 N   0  0  0  0  0  0  0  0  0  0  0  0
  140.6180   72.7120  221.3230 C   0  0  0  0  0  0  0  0  0  0  0  0
  141.3830   71.7990  220.8940 O   0  0  0  0  0  0  0  0  0  0  0  0
  140.2120   73.7540  220.3880 C   0  0  0  0  0  0  0  0  0  0  0  0
  140.4530   75.0650  220.9420 N   0  0  0  0  0  0  0  0  0  0  0  0
  139.5920   75.6680  221.9130 C   0  0  0  0  0  0  0  0  0  0  0  0
  138.5540   75.0650  222.3540 O   0  0  0  0  0  0  0  0  0  0  0  0
  139.9010   77.0180  222.4260 C   0  0  0  0  0  0  0  0  0  0  0  0
  138.8880   77.8110  222.9080 C   0  0  0  0  0  0  0  0  0  0  0  0
  139.1680   79.0880  223.3940 C   0  0  0  0  0  0  0  0  0  0  0  0
  140.4850   79.5210  223.3720 C   0  0  0  0  0  0  0  0  0  0  0  0
  140.8260   80.7870  223.8450 C   0  0  0  0  0  0  0  0  0  0  0  0
  142.1490   81.2000  223.8130 C   0  0  0  0  0  0  0  0  0  0  0  0
  142.4470   82.4360  224.2800 F   0  0  0  0  0  0  0  0  0  0  0  0
  143.1610   80.3840  223.3200 C   0  0  0  0  0  0  0  0  0  0  0  0
  142.8190   79.1320  222.8550 C   0  0  0  0  0  0  0  0  0  0  0  0
  141.5040   78.7100  222.8810 C   0  0  0  0  0  0  0  0  0  0  0  0
  141.1650   77.4880  222.4270 N   0  0  0  0  0  0  0  0  0  0  0  0
  138.2850   71.0500  224.2300 C   0  0  0  0  0  0  0  0  0  0  0  0
  137.3140   70.0020  224.7260 C   0  0  0  0  0  0  0  0  0  0  0  0
  136.7350   69.3540  223.4930 C   0  0  0  0  0  0  0  0  0  0  0  0
  137.1390   70.2120  222.3020 C   0  0  0  0  0  0  0  0  0  0  0  0
  137.6660   71.5020  222.9340 C   0  0  0  0  0  0  0  0  0  0  0  0
  140.6195   68.4732  228.2368 H   0  0  0  0  0  0  0  0  0  0  0  0
  141.4348   70.5427  229.3852 H   0  0  0  0  0  0  0  0  0  0  0  0
  141.4240   72.6659  228.1532 H   0  0  0  0  0  0  0  0  0  0  0  0
  140.6290   72.8244  225.8084 H   0  0  0  0  0  0  0  0  0  0  0  0
  139.7039   69.7888  223.6955 H   0  0  0  0  0  0  0  0  0  0  0  0
  141.3715   71.9867  224.2786 H   0  0  0  0  0  0  0  0  0  0  0  0
  141.1635   70.8325  222.8254 H   0  0  0  0  0  0  0  0  0  0  0  0
  139.6090   73.3160  223.0910 H   0  0  0  0  0  0  0  0  0  0  0  0
  140.7864   73.6456  219.4562 H   0  0  0  0  0  0  0  0  0  0  0  0
  139.1352   73.6485  220.1898 H   0  0  0  0  0  0  0  0  0  0  0  0
  141.2800   75.6470  220.6580 H   0  0  0  0  0  0  0  0  0  0  0  0
  137.8532   77.4378  222.9107 H   0  0  0  0  0  0  0  0  0  0  0  0
  138.3668   79.7332  223.7836 H   0  0  0  0  0  0  0  0  0  0  0  0
  140.0483   81.4559  224.2422 H   0  0  0  0  0  0  0  0  0  0  0  0
  144.2057   80.7279  223.3015 H   0  0  0  0  0  0  0  0  0  0  0  0
  143.5990   78.4643  222.4604 H   0  0  0  0  0  0  0  0  0  0  0  0
  138.3902   71.8839  224.9396 H   0  0  0  0  0  0  0  0  0  0  0  0
  137.8387   69.2549  225.3397 H   0  0  0  0  0  0  0  0  0  0  0  0
  136.5279   70.4465  225.3541 H   0  0  0  0  0  0  0  0  0  0  0  0
  137.1367   68.3364  223.3780 H   0  0  0  0  0  0  0  0  0  0  0  0
  135.6400   69.2805  223.5679 H   0  0  0  0  0  0  0  0  0  0  0  0
  137.9245   69.7167  221.7123 H   0  0  0  0  0  0  0  0  0  0  0  0
  136.3044   70.3917  221.6083 H   0  0  0  0  0  0  0  0  0  0  0  0
  138.4185   71.9752  222.2860 H   0  0  0  0  0  0  0  0  0  0  0  0
  136.8758   72.2526  223.0828 H   0  0  0  0  0  0  0  0  0  0  0  0
  1  2  3  0
  2  3  1  0
  3  4  2  0
  4  5  1  0
  5  6  2  0
  6  7  1  0
  7  8  2  0
  8  9  1  0
  9 10  1  0
 10 11  1  0
 11 12  1  0
 12 13  2  0
 12 14  1  0
 14 15  1  0
 15 16  1  0
 16 17  2  0
 16 18  1  0
 18 19  2  0
 19 20  1  0
 20 21  2  0
 21 22  1  0
 22 23  2  0
 23 24  1  0
 23 25  1  0
 25 26  2  0
 26 27  1  0
 27 28  2  0
  9 29  1  0
 29 30  1  0
 30 31  1  0
 31 32  1  0
 32 33  1  0
  8  3  1  0
 28 18  1  0
 33 29  1  0
 27 21  1  0
  4 34  1  0
  5 35  1  0
  6 36  1  0
  7 37  1  0
  9 38  1  6
 10 39  1  0
 10 40  1  0
 11 41  1  0
 14 42  1  0
 14 43  1  0
 15 44  1  0
 19 45  1  0
 20 46  1  0
 22 47  1  0
 25 48  1  0
 26 49  1  0
 29 50  1  0
 30 51  1  0
 30 52  1  0
 31 53  1  0
 31 54  1  0
 32 55  1  0
 32 56  1  0
 33 57  1  0
 33 58  1  0
M  END
>  <smiles>  (35) 
N#Cc1ccccc1[C@H](CNC(=O)CNC(=O)c1ccc2cc(F)ccc2n1)C1CCCC1

>  <score_type>  (35) 
oracle

>  <origin>  (35) 
autodockgpu

>  <m_score__min__energy>  (35) 
-9.6899999999999995

>  <m_primary>  (35) 
energy

>  <rmsd>  (35) 
8.607726605472921

>  <m_score__min__rmsd>  (35) 
8.607726605472921

>  <meeko>  (35) 
{"free_energy": -9.69, "intermolecular_energy": -12.07, "internal_energy": -2.73, "cluster_size": 10, "cluster_id": 1, "rank_in_cluster": 1}

>  <energy>  (35) 
-8.02

>  <cluster_rmsd>  (35) 
1.92

>  <cluster>  (35) 
3

$$$$

     RDKit          3D

 58 61  0  0  0  0  0  0  0  0999 V2000
  138.1800   79.6930  222.6070 N   0  0  0  0  0  0  0  0  0  0  0  0
  139.3100   79.8980  222.8120 C   0  0  0  0  0  0  0  0  0  0  0  0
  140.7120   80.1350  223.0510 C   0  0  0  0  0  0  0  0  0  0  0  0
  141.0780   81.2300  223.8040 C   0  0  0  0  0  0  0  0  0  0  0  0
  142.4170   81.4470  224.0240 C   0  0  0  0  0  0  0  0  0  0  0  0
  143.3160   80.5670  223.4860 C   0  0  0  0  0  0  0  0  0  0  0  0
  142.9370   79.4610  222.7250 C   0  0  0  0  0  0  0  0  0  0  0  0
  141.6010   79.2450  222.5040 C   0  0  0  0  0  0  0  0  0  0  0  0
  141.0990   78.0400  221.7210 C   0  0  2  0  0  0  0  0  0  0  0  0
  140.9090   76.9730  222.7160 C   0  0  0  0  0  0  0  0  0  0  0  0
  140.4860   75.6750  222.2600 N   0  0  0  0  0  0  0  0  0  0  0  0
  139.1600   75.4370  221.8130 C   0  0  0  0  0  0  0  0  0  0  0  0
  138.3800   76.4340  221.8340 O   0  0  0  0  0  0  0  0  0  0  0  0
  138.6270   74.1660  221.3380 C   0  0  0  0  0  0  0  0  0  0  0  0
  138.7240   73.1530  222.3620 N   0  0  0  0  0  0  0  0  0  0  0  0
  139.9690   72.5780  222.7700 C   0  0  0  0  0  0  0  0  0  0  0  0
  141.0780   72.9440  222.2480 O   0  0  0  0  0  0  0  0  0  0  0  0
  139.9860   71.5390  223.8180 C   0  0  0  0  0  0  0  0  0  0  0  0
  139.4920   70.2860  223.5430 C   0  0  0  0  0  0  0  0  0  0  0  0
  139.5030   69.2970  224.5250 C   0  0  0  0  0  0  0  0  0  0  0  0
  140.0190   69.6180  225.7710 C   0  0  0  0  0  0  0  0  0  0  0  0
  140.0560   68.6710  226.7920 C   0  0  0  0  0  0  0  0  0  0  0  0
  140.5770   69.0130  228.0310 C   0  0  0  0  0  0  0  0  0  0  0  0
  140.5980   68.0700  229.0020 F   0  0  0  0  0  0  0  0  0  0  0  0
  141.0720   70.2870  228.2920 C   0  0  0  0  0  0  0  0  0  0  0  0
  141.0340   71.2200  227.2770 C   0  0  0  0  0  0  0  0  0  0  0  0
  140.5160   70.8900  226.0400 C   0  0  0  0  0  0  0  0  0  0  0  0
  140.4770   71.7990  225.0470 N   0  0  0  0  0  0  0  0  0  0  0  0
  141.9490   77.8690  220.5490 C   0  0  0  0  0  0  0  0  0  0  0  0
  141.8100   78.8590  219.4150 C   0  0  0  0  0  0  0  0  0  0  0  0
  140.9820   78.1690  218.3590 C   0  0  0  0  0  0  0  0  0  0  0  0
  140.8920   76.7000  218.7470 C   0  0  0  0  0  0  0  0  0  0  0  0
  141.9470   76.5390  219.8430 C   0  0  0  0  0  0  0  0  0  0  0  0
  140.3195   81.9111  224.2172 H   0  0  0  0  0  0  0  0  0  0  0  0
  142.7579   82.3075  224.6184 H   0  0  0  0  0  0  0  0  0  0  0  0
  144.3880   80.7398  223.6618 H   0  0  0  0  0  0  0  0  0  0  0  0
  143.6930   78.7773  222.3114 H   0  0  0  0  0  0  0  0  0  0  0  0
  140.1142   78.1040  221.2350 H   0  0  0  0  0  0  0  0  0  0  0  0
  141.8698   76.8377  223.2343 H   0  0  0  0  0  0  0  0  0  0  0  0
  140.0705   77.3274  223.3335 H   0  0  0  0  0  0  0  0  0  0  0  0
  141.1700   74.9120  222.2550 H   0  0  0  0  0  0  0  0  0  0  0  0
  137.5706   74.2990  221.0616 H   0  0  0  0  0  0  0  0  0  0  0  0
  139.2139   73.8421  220.4659 H   0  0  0  0  0  0  0  0  0  0  0  0
  137.8780   72.7840  222.8620 H   0  0  0  0  0  0  0  0  0  0  0  0
  139.0868   70.0632  222.5449 H   0  0  0  0  0  0  0  0  0  0  0  0
  139.1131   68.2897  224.3171 H   0  0  0  0  0  0  0  0  0  0  0  0
  139.6731   67.6549  226.6160 H   0  0  0  0  0  0  0  0  0  0  0  0
  141.4821   70.5428  229.2801 H   0  0  0  0  0  0  0  0  0  0  0  0
  141.4193   72.2350  227.4541 H   0  0  0  0  0  0  0  0  0  0  0  0
  142.8775   78.0215  221.1188 H   0  0  0  0  0  0  0  0  0  0  0  0
  141.3023   79.7705  219.7635 H   0  0  0  0  0  0  0  0  0  0  0  0
  142.7918   79.1622  219.0225 H   0  0  0  0  0  0  0  0  0  0  0  0
  139.9755   78.6111  218.3207 H   0  0  0  0  0  0  0  0  0  0  0  0
  141.4412   78.2834  217.3660 H   0  0  0  0  0  0  0  0  0  0  0  0
  139.8899   76.4581  219.1308 H   0  0  0  0  0  0  0  0  0  0  0  0
  141.0627   76.0266  217.8941 H   0  0  0  0  0  0  0  0  0  0  0  0
  141.6707   75.7299  220.5351 H   0  0  0  0  0  0  0  0  0  0  0  0
  142.9358   76.2727  219.4413 H   0  0  0  0  0  0  0  0  0  0  0  0
  1  2  3  0
  2  3  1  0
  3  4  2  0
  4  5  1  0
  5  6  2  0
  6  7  1  0
  7  8  2  0
  8  9  1  0
  9 10  1  0
 10 11  1  0
 11 12  1  0
 12 13  2  0
 12 14  1  0
 14 15  1  0
 15 16  1  0
 16 17  2  0
 16 18  1  0
 18 19  2  0
 19 20  1  0
 20 21  2  0
 21 22  1  0
 22 23  2  0
 23 24  1  0
 23 25  1  0
 25 26  2  0
 26 27  1  0
 27 28  2  0
  9 29  1  0
 29 30  1  0
 30 31  1  0
 31 32  1  0
 32 33  1  0
  8  3  1  0
 28 18  1  0
 33 29  1  0
 27 21  1  0
  4 34  1  0
  5 35  1  0
  6 36  1  0
  7 37  1  0
  9 38  1  6
 10 39  1  0
 10 40  1  0
 11 41  1  0
 14 42  1  0
 14 43  1  0
 15 44  1  0
 19 45  1  0
 20 46  1  0
 22 47  1  0
 25 48  1  0
 26 49  1  0
 29 50  1  0
 30 51  1  0
 30 52  1  0
 31 53  1  0
 31 54  1  0
 32 55  1  0
 32 56  1  0
 33 57  1  0
 33 58  1  0
M  END
>  <smiles>  (36) 
N#Cc1ccccc1[C@H](CNC(=O)CNC(=O)c1ccc2cc(F)ccc2n1)C1CCCC1

>  <score_type>  (36) 
oracle

>  <origin>  (36) 
autodockgpu

>  <m_score__min__energy>  (36) 
-9.6899999999999995

>  <m_primary>  (36) 
energy

>  <rmsd>  (36) 
2.7601135573990985

>  <m_score__min__rmsd>  (36) 
2.7601135573990985

>  <meeko>  (36) 
{"free_energy": -9.24, "intermolecular_energy": -11.62, "internal_energy": -2.69, "cluster_size": 14, "cluster_id": 2, "rank_in_cluster": 4}

>  <energy>  (36) 
-8.77

>  <cluster_rmsd>  (36) 
0.0

>  <cluster>  (36) 
4

$$$$

     RDKit          3D

 58 61  0  0  0  0  0  0  0  0999 V2000
  142.8930   76.5030  219.2130 N   0  0  0  0  0  0  0  0  0  0  0  0
  142.5920   77.6090  218.9950 C   0  0  0  0  0  0  0  0  0  0  0  0
  142.2140   78.9780  218.7490 C   0  0  0  0  0  0  0  0  0  0  0  0
  142.5480   79.5480  217.5390 C   0  0  0  0  0  0  0  0  0  0  0  0
  142.1830   80.8540  217.3150 C   0  0  0  0  0  0  0  0  0  0  0  0
  141.5090   81.5200  218.3020 C   0  0  0  0  0  0  0  0  0  0  0  0
  141.1740   80.9350  219.5230 C   0  0  0  0  0  0  0  0  0  0  0  0
  141.5390   79.6330  219.7480 C   0  0  0  0  0  0  0  0  0  0  0  0
  141.1770   78.9060  221.0350 C   0  0  2  0  0  0  0  0  0  0  0  0
  140.0590   78.0160  220.6860 C   0  0  0  0  0  0  0  0  0  0  0  0
  140.3490   76.6500  220.3370 N   0  0  0  0  0  0  0  0  0  0  0  0
  140.2040   75.5940  221.2750 C   0  0  0  0  0  0  0  0  0  0  0  0
  139.7990   75.9260  222.4270 O   0  0  0  0  0  0  0  0  0  0  0  0
  140.4750   74.1820  221.0300 C   0  0  0  0  0  0  0  0  0  0  0  0
  140.2070   73.3950  222.2100 N   0  0  0  0  0  0  0  0  0  0  0  0
  140.6010   72.0250  222.3350 C   0  0  0  0  0  0  0  0  0  0  0  0
  141.2290   71.4200  221.4000 O   0  0  0  0  0  0  0  0  0  0  0  0
  140.2820   71.2840  223.5710 C   0  0  0  0  0  0  0  0  0  0  0  0
  139.5770   70.1070  223.4960 C   0  0  0  0  0  0  0  0  0  0  0  0
  139.2690   69.3980  224.6570 C   0  0  0  0  0  0  0  0  0  0  0  0
  139.6920   69.9170  225.8710 C   0  0  0  0  0  0  0  0  0  0  0  0
  139.4140   69.2530  227.0640 C   0  0  0  0  0  0  0  0  0  0  0  0
  139.8460   69.7900  228.2670 C   0  0  0  0  0  0  0  0  0  0  0  0
  139.5600   69.1210  229.4090 F   0  0  0  0  0  0  0  0  0  0  0  0
  140.5580   70.9830  228.3250 C   0  0  0  0  0  0  0  0  0  0  0  0
  140.8320   71.6350  227.1410 C   0  0  0  0  0  0  0  0  0  0  0  0
  140.4050   71.1100  225.9360 C   0  0  0  0  0  0  0  0  0  0  0  0
  140.6700   71.7440  224.7780 N   0  0  0  0  0  0  0  0  0  0  0  0
  141.0830   79.8900  222.1060 C   0  0  0  0  0  0  0  0  0  0  0  0
  142.3090   80.7140  222.4290 C   0  0  0  0  0  0  0  0  0  0  0  0
  142.9160   80.0910  223.6620 C   0  0  0  0  0  0  0  0  0  0  0  0
  141.8970   79.1060  224.2170 C   0  0  0  0  0  0  0  0  0  0  0  0
  140.6080   79.4390  223.4620 C   0  0  0  0  0  0  0  0  0  0  0  0
  143.0914   78.9737  216.7742 H   0  0  0  0  0  0  0  0  0  0  0  0
  142.4269   81.3519  216.3649 H   0  0  0  0  0  0  0  0  0  0  0  0
  141.2177   82.5657  218.1242 H   0  0  0  0  0  0  0  0  0  0  0  0
  140.6287   81.5061  220.2888 H   0  0  0  0  0  0  0  0  0  0  0  0
  141.9146   78.2172  221.4727 H   0  0  0  0  0  0  0  0  0  0  0  0
  139.3808   77.9925  221.5517 H   0  0  0  0  0  0  0  0  0  0  0  0
  139.6507   78.4484  219.7606 H   0  0  0  0  0  0  0  0  0  0  0  0
  140.6610   76.4450  219.3830 H   0  0  0  0  0  0  0  0  0  0  0  0
  139.8342   73.8293  220.2084 H   0  0  0  0  0  0  0  0  0  0  0  0
  141.5364   74.0682  220.7646 H   0  0  0  0  0  0  0  0  0  0  0  0
  139.7050   73.7920  223.0420 H   0  0  0  0  0  0  0  0  0  0  0  0
  139.2544   69.7226  222.5171 H   0  0  0  0  0  0  0  0  0  0  0  0
  138.7064   68.4539  224.6107 H   0  0  0  0  0  0  0  0  0  0  0  0
  138.8539   68.3063  227.0514 H   0  0  0  0  0  0  0  0  0  0  0  0
  140.8933   71.3951  229.2882 H   0  0  0  0  0  0  0  0  0  0  0  0
  141.3947   72.5801  227.1559 H   0  0  0  0  0  0  0  0  0  0  0  0
  140.3143   80.4799  221.5854 H   0  0  0  0  0  0  0  0  0  0  0  0
  143.0231   80.6806  221.5929 H   0  0  0  0  0  0  0  0  0  0  0  0
  142.0518   81.7703  222.5963 H   0  0  0  0  0  0  0  0  0  0  0  0
  143.8452   79.5641  223.3995 H   0  0  0  0  0  0  0  0  0  0  0  0
  143.1611   80.8611  224.4082 H   0  0  0  0  0  0  0  0  0  0  0  0
  142.2083   78.0695  224.0203 H   0  0  0  0  0  0  0  0  0  0  0  0
  141.7810   79.1876  225.3078 H   0  0  0  0  0  0  0  0  0  0  0  0
  139.9656   78.5503  223.3751 H   0  0  0  0  0  0  0  0  0  0  0  0
  140.0043   80.2031  223.9736 H   0  0  0  0  0  0  0  0  0  0  0  0
  1  2  3  0
  2  3  1  0
  3  4  2  0
  4  5  1  0
  5  6  2  0
  6  7  1  0
  7  8  2  0
  8  9  1  0
  9 10  1  0
 10 11  1  0
 11 12  1  0
 12 13  2  0
 12 14  1  0
 14 15  1  0
 15 16  1  0
 16 17  2  0
 16 18  1  0
 18 19  2  0
 19 20  1  0
 20 21  2  0
 21 22  1  0
 22 23  2  0
 23 24  1  0
 23 25  1  0
 25 26  2  0
 26 27  1  0
 27 28  2  0
  9 29  1  0
 29 30  1  0
 30 31  1  0
 31 32  1  0
 32 33  1  0
  8  3  1  0
 28 18  1  0
 33 29  1  0
 27 21  1  0
  4 34  1  0
  5 35  1  0
  6 36  1  0
  7 37  1  0
  9 38  1  1
 10 39  1  0
 10 40  1  0
 11 41  1  0
 14 42  1  0
 14 43  1  0
 15 44  1  0
 19 45  1  0
 20 46  1  0
 22 47  1  0
 25 48  1  0
 26 49  1  0
 29 50  1  0
 30 51  1  0
 30 52  1  0
 31 53  1  0
 31 54  1  0
 32 55  1  0
 32 56  1  0
 33 57  1  0
 33 58  1  0
M  END
>  <smiles>  (37) 
N#Cc1ccccc1[C@H](CNC(=O)CNC(=O)c1ccc2cc(F)ccc2n1)C1CCCC1

>  <score_type>  (37) 
oracle

>  <origin>  (37) 
autodockgpu

>  <m_score__min__energy>  (37) 
-9.6899999999999995

>  <m_primary>  (37) 
energy

>  <rmsd>  (37) 
2.8804280429917615

>  <m_score__min__rmsd>  (37) 
2.8804280429917615

>  <meeko>  (37) 
{"free_energy": -8.96, "intermolecular_energy": -11.34, "internal_energy": -2.7, "cluster_size": 11, "cluster_id": 3, "rank_in_cluster": 4}

>  <energy>  (37) 
-8.77

>  <cluster_rmsd>  (37) 
0.09

>  <cluster>  (37) 
4

$$$$

     RDKit          3D

 58 61  0  0  0  0  0  0  0  0999 V2000
  141.8140   81.1580  218.9140 N   0  0  0  0  0  0  0  0  0  0  0  0
  141.8180   80.5810  219.9290 C   0  0  0  0  0  0  0  0  0  0  0  0
  141.8000   79.8680  221.1810 C   0  0  0  0  0  0  0  0  0  0  0  0
  142.3020   80.4910  222.3030 C   0  0  0  0  0  0  0  0  0  0  0  0
  142.2810   79.8010  223.4920 C   0  0  0  0  0  0  0  0  0  0  0  0
  141.7630   78.5340  223.5000 C   0  0  0  0  0  0  0  0  0  0  0  0
  141.2570   77.9110  222.3600 C   0  0  0  0  0  0  0  0  0  0  0  0
  141.2790   78.5980  221.1730 C   0  0  0  0  0  0  0  0  0  0  0  0
  140.7090   78.0100  219.8910 C   0  0  2  0  0  0  0  0  0  0  0  0
  139.5130   77.2560  220.2990 C   0  0  0  0  0  0  0  0  0  0  0  0
  139.5120   75.8260  220.1340 N   0  0  0  0  0  0  0  0  0  0  0  0
  139.5180   74.9470  221.2490 C   0  0  0  0  0  0  0  0  0  0  0  0
  139.5180   75.4960  222.3890 O   0  0  0  0  0  0  0  0  0  0  0  0
  139.5230   73.4900  221.1960 C   0  0  0  0  0  0  0  0  0  0  0  0
  139.7020   72.9280  222.5140 N   0  0  0  0  0  0  0  0  0  0  0  0
  140.0630   71.5610  222.7330 C   0  0  0  0  0  0  0  0  0  0  0  0
  140.2580   70.7550  221.7590 O   0  0  0  0  0  0  0  0  0  0  0  0
  140.2170   71.0580  224.1120 C   0  0  0  0  0  0  0  0  0  0  0  0
  140.7080   71.8900  225.0890 C   0  0  0  0  0  0  0  0  0  0  0  0
  140.8580   71.4260  226.3960 C   0  0  0  0  0  0  0  0  0  0  0  0
  140.5020   70.1140  226.6680 C   0  0  0  0  0  0  0  0  0  0  0  0
  140.6300   69.5940  227.9540 C   0  0  0  0  0  0  0  0  0  0  0  0
  140.2680   68.2790  228.2050 C   0  0  0  0  0  0  0  0  0  0  0  0
  140.4050   67.8040  229.4660 F   0  0  0  0  0  0  0  0  0  0  0  0
  139.7740   67.4500  227.2030 C   0  0  0  0  0  0  0  0  0  0  0  0
  139.6480   67.9710  225.9320 C   0  0  0  0  0  0  0  0  0  0  0  0
  140.0070   69.2790  225.6710 C   0  0  0  0  0  0  0  0  0  0  0  0
  139.8860   69.7900  224.4310 N   0  0  0  0  0  0  0  0  0  0  0  0
  141.8000   77.3940  219.1450 C   0  0  0  0  0  0  0  0  0  0  0  0
  141.4560   76.3460  218.1110 C   0  0  0  0  0  0  0  0  0  0  0  0
  141.7420   75.0130  218.7580 C   0  0  0  0  0  0  0  0  0  0  0  0
  142.5180   75.2910  220.0380 C   0  0  0  0  0  0  0  0  0  0  0  0
  142.9300   76.7590  219.9120 C   0  0  0  0  0  0  0  0  0  0  0  0
  142.7082   81.5118  222.2488 H   0  0  0  0  0  0  0  0  0  0  0  0
  142.6710   80.2561  224.4144 H   0  0  0  0  0  0  0  0  0  0  0  0
  141.7451   77.9812  224.4508 H   0  0  0  0  0  0  0  0  0  0  0  0
  140.8490   76.8908  222.4114 H   0  0  0  0  0  0  0  0  0  0  0  0
  140.3195   78.6987  219.1269 H   0  0  0  0  0  0  0  0  0  0  0  0
  139.3500   77.4595  221.3677 H   0  0  0  0  0  0  0  0  0  0  0  0
  138.7275   77.6063  219.6132 H   0  0  0  0  0  0  0  0  0  0  0  0
  139.4980   75.4430  219.1840 H   0  0  0  0  0  0  0  0  0  0  0  0
  138.5652   73.1412  220.7826 H   0  0  0  0  0  0  0  0  0  0  0  0
  140.3577   73.1640  220.5581 H   0  0  0  0  0  0  0  0  0  0  0  0
  139.5750   73.5000  223.3850 H   0  0  0  0  0  0  0  0  0  0  0  0
  140.9837   72.9253  224.8398 H   0  0  0  0  0  0  0  0  0  0  0  0
  141.2476   72.0823  227.1881 H   0  0  0  0  0  0  0  0  0  0  0  0
  141.0171   70.2246  228.7680 H   0  0  0  0  0  0  0  0  0  0  0  0
  139.4919   66.4088  227.4181 H   0  0  0  0  0  0  0  0  0  0  0  0
  139.2585   67.3397  225.1198 H   0  0  0  0  0  0  0  0  0  0  0  0
  142.1091   78.3432  218.6830 H   0  0  0  0  0  0  0  0  0  0  0  0
  140.3937   76.4164  217.8343 H   0  0  0  0  0  0  0  0  0  0  0  0
  142.0426   76.4809  217.1903 H   0  0  0  0  0  0  0  0  0  0  0  0
  140.7988   74.4982  218.9934 H   0  0  0  0  0  0  0  0  0  0  0  0
  142.3221   74.3674  218.0822 H   0  0  0  0  0  0  0  0  0  0  0  0
  141.8812   75.1384  220.9219 H   0  0  0  0  0  0  0  0  0  0  0  0
  143.3801   74.6195  220.1638 H   0  0  0  0  0  0  0  0  0  0  0  0
  143.0363   77.2212  220.9045 H   0  0  0  0  0  0  0  0  0  0  0  0
  143.9017   76.8830  219.4115 H   0  0  0  0  0  0  0  0  0  0  0  0
  1  2  3  0
  2  3  1  0
  3  4  2  0
  4  5  1  0
  5  6  2  0
  6  7  1  0
  7  8  2  0
  8  9  1  0
  9 10  1  0
 10 11  1  0
 11 12  1  0
 12 13  2  0
 12 14  1  0
 14 15  1  0
 15 16  1  0
 16 17  2  0
 16 18  1  0
 18 19  2  0
 19 20  1  0
 20 21  2  0
 21 22  1  0
 22 23  2  0
 23 24  1  0
 23 25  1  0
 25 26  2  0
 26 27  1  0
 27 28  2  0
  9 29  1  0
 29 30  1  0
 30 31  1  0
 31 32  1  0
 32 33  1  0
  8  3  1  0
 28 18  1  0
 33 29  1  0
 27 21  1  0
  4 34  1  0
  5 35  1  0
  6 36  1  0
  7 37  1  0
  9 38  1  6
 10 39  1  0
 10 40  1  0
 11 41  1  0
 14 42  1  0
 14 43  1  0
 15 44  1  0
 19 45  1  0
 20 46  1  0
 22 47  1  0
 25 48  1  0
 26 49  1  0
 29 50  1  0
 30 51  1  0
 30 52  1  0
 31 53  1  0
 31 54  1  0
 32 55  1  0
 32 56  1  0
 33 57  1  0
 33 58  1  0
M  END
>  <smiles>  (38) 
N#Cc1ccccc1[C@H](CNC(=O)CNC(=O)c1ccc2cc(F)ccc2n1)C1CCCC1

>  <score_type>  (38) 
oracle

>  <origin>  (38) 
autodockgpu

>  <m_score__min__energy>  (38) 
-9.6899999999999995

>  <m_primary>  (38) 
energy

>  <rmsd>  (38) 
3.0142257080514954

>  <m_score__min__rmsd>  (38) 
3.0142257080514954

>  <meeko>  (38) 
{"free_energy": -8.63, "intermolecular_energy": -11.02, "internal_energy": -2.25, "cluster_size": 11, "cluster_id": 3, "rank_in_cluster": 10}

>  <energy>  (38) 
-8.76

>  <cluster_rmsd>  (38) 
1.97

>  <cluster>  (38) 
4

$$$$

     RDKit          3D

 58 61  0  0  0  0  0  0  0  0999 V2000
  140.3340   82.5570  220.9020 N   0  0  0  0  0  0  0  0  0  0  0  0
  139.5910   82.0290  221.6300 C   0  0  0  0  0  0  0  0  0  0  0  0
  138.6660   81.3970  222.5370 C   0  0  0  0  0  0  0  0  0  0  0  0
  137.8120   82.1920  223.2710 C   0  0  0  0  0  0  0  0  0  0  0  0
  136.9360   81.5790  224.1340 C   0  0  0  0  0  0  0  0  0  0  0  0
  136.9550   80.2140  224.2200 C   0  0  0  0  0  0  0  0  0  0  0  0
  137.8230   79.4160  223.4740 C   0  0  0  0  0  0  0  0  0  0  0  0
  138.6980   80.0270  222.6130 C   0  0  0  0  0  0  0  0  0  0  0  0
  139.6490   79.2310  221.7310 C   0  0  2  0  0  0  0  0  0  0  0  0
  138.8080   78.2510  221.0270 C   0  0  0  0  0  0  0  0  0  0  0  0
  139.3980   77.0020  220.6220 N   0  0  0  0  0  0  0  0  0  0  0  0
  139.5410   75.9170  221.5260 C   0  0  0  0  0  0  0  0  0  0  0  0
  139.1130   76.1130  222.7010 O   0  0  0  0  0  0  0  0  0  0  0  0
  140.1270   74.6160  221.2240 C   0  0  0  0  0  0  0  0  0  0  0  0
  139.9660   73.7100  222.3360 N   0  0  0  0  0  0  0  0  0  0  0  0
  140.4680   72.3700  222.3240 C   0  0  0  0  0  0  0  0  0  0  0  0
  141.1030   71.9010  221.3170 O   0  0  0  0  0  0  0  0  0  0  0  0
  140.2550   71.4990  223.4970 C   0  0  0  0  0  0  0  0  0  0  0  0
  139.5980   70.3020  223.3460 C   0  0  0  0  0  0  0  0  0  0  0  0
  139.3910   69.4720  224.4470 C   0  0  0  0  0  0  0  0  0  0  0  0
  139.8630   69.8930  225.6810 C   0  0  0  0  0  0  0  0  0  0  0  0
  139.6860   69.1060  226.8170 C   0  0  0  0  0  0  0  0  0  0  0  0
  140.1660   69.5460  228.0410 C   0  0  0  0  0  0  0  0  0  0  0  0
  139.9770   68.7580  229.1260 F   0  0  0  0  0  0  0  0  0  0  0  0
  140.8280   70.7610  228.1760 C   0  0  0  0  0  0  0  0  0  0  0  0
  141.0020   71.5350  227.0480 C   0  0  0  0  0  0  0  0  0  0  0  0
  140.5270   71.1070  225.8230 C   0  0  0  0  0  0  0  0  0  0  0  0
  140.6950   71.8610  224.7200 N   0  0  0  0  0  0  0  0  0  0  0  0
  140.7970   78.8340  222.5380 C   0  0  0  0  0  0  0  0  0  0  0  0
  140.9260   79.4100  223.9290 C   0  0  0  0  0  0  0  0  0  0  0  0
  141.9460   80.5170  223.8290 C   0  0  0  0  0  0  0  0  0  0  0  0
  142.6150   80.3900  222.4680 C   0  0  0  0  0  0  0  0  0  0  0  0
  142.1780   79.0130  221.9650 C   0  0  0  0  0  0  0  0  0  0  0  0
  137.8313   83.2871  223.1686 H   0  0  0  0  0  0  0  0  0  0  0  0
  136.2361   82.1718  224.7413 H   0  0  0  0  0  0  0  0  0  0  0  0
  136.2531   79.7224  224.9096 H   0  0  0  0  0  0  0  0  0  0  0  0
  137.8058   78.3207  223.5744 H   0  0  0  0  0  0  0  0  0  0  0  0
  140.1629   79.7524  220.9100 H   0  0  0  0  0  0  0  0  0  0  0  0
  137.9645   78.0110  221.6911 H   0  0  0  0  0  0  0  0  0  0  0  0
  138.5537   78.7475  220.0790 H   0  0  0  0  0  0  0  0  0  0  0  0
  139.7130   76.9020  219.6530 H   0  0  0  0  0  0  0  0  0  0  0  0
  139.6289   74.1929  220.3392 H   0  0  0  0  0  0  0  0  0  0  0  0
  141.2017   74.7499  221.0314 H   0  0  0  0  0  0  0  0  0  0  0  0
  139.4690   73.9910  223.2170 H   0  0  0  0  0  0  0  0  0  0  0  0
  139.2342   69.9975  222.3536 H   0  0  0  0  0  0  0  0  0  0  0  0
  138.8680   68.5103  224.3398 H   0  0  0  0  0  0  0  0  0  0  0  0
  139.1672   68.1389  226.7430 H   0  0  0  0  0  0  0  0  0  0  0  0
  141.2024   71.0955  229.1548 H   0  0  0  0  0  0  0  0  0  0  0  0
  141.5231   72.5008  227.1240 H   0  0  0  0  0  0  0  0  0  0  0  0
  140.5017   77.7745  222.5563 H   0  0  0  0  0  0  0  0  0  0  0  0
  139.9592   79.8108  224.2677 H   0  0  0  0  0  0  0  0  0  0  0  0
  141.2341   78.6433  224.6551 H   0  0  0  0  0  0  0  0  0  0  0  0
  141.4504   81.4952  223.9157 H   0  0  0  0  0  0  0  0  0  0  0  0
  142.6876   80.4392  224.6377 H   0  0  0  0  0  0  0  0  0  0  0  0
  142.2694   81.1821  221.7875 H   0  0  0  0  0  0  0  0  0  0  0  0
  143.7089   80.4916  222.5239 H   0  0  0  0  0  0  0  0  0  0  0  0
  142.1507   78.9895  220.8656 H   0  0  0  0  0  0  0  0  0  0  0  0
  142.8687   78.2132  222.2704 H   0  0  0  0  0  0  0  0  0  0  0  0
  1  2  3  0
  2  3  1  0
  3  4  2  0
  4  5  1  0
  5  6  2  0
  6  7  1  0
  7  8  2  0
  8  9  1  0
  9 10  1  0
 10 11  1  0
 11 12  1  0
 12 13  2  0
 12 14  1  0
 14 15  1  0
 15 16  1  0
 16 17  2  0
 16 18  1  0
 18 19  2  0
 19 20  1  0
 20 21  2  0
 21 22  1  0
 22 23  2  0
 23 24  1  0
 23 25  1  0
 25 26  2  0
 26 27  1  0
 27 28  2  0
  9 29  1  0
 29 30  1  0
 30 31  1  0
 31 32  1  0
 32 33  1  0
  8  3  1  0
 28 18  1  0
 33 29  1  0
 27 21  1  0
  4 34  1  0
  5 35  1  0
  6 36  1  0
  7 37  1  0
  9 38  1  6
 10 39  1  0
 10 40  1  0
 11 41  1  0
 14 42  1  0
 14 43  1  0
 15 44  1  0
 19 45  1  0
 20 46  1  0
 22 47  1  0
 25 48  1  0
 26 49  1  0
 29 50  1  0
 30 51  1  0
 30 52  1  0
 31 53  1  0
 31 54  1  0
 32 55  1  0
 32 56  1  0
 33 57  1  0
 33 58  1  0
M  END
>  <smiles>  (39) 
N#Cc1ccccc1[C@H](CNC(=O)CNC(=O)c1ccc2cc(F)ccc2n1)C1CCCC1

>  <score_type>  (39) 
oracle

>  <origin>  (39) 
autodockgpu

>  <m_score__min__energy>  (39) 
-9.6899999999999995

>  <m_primary>  (39) 
energy

>  <rmsd>  (39) 
3.1210724203622404

>  <m_score__min__rmsd>  (39) 
3.1210724203622404

>  <meeko>  (39) 
{"free_energy": -8.59, "intermolecular_energy": -10.97, "internal_energy": -2.65, "cluster_size": 14, "cluster_id": 2, "rank_in_cluster": 8}

>  <energy>  (39) 
-8.76

>  <cluster_rmsd>  (39) 
0.09

>  <cluster>  (39) 
4

$$$$

     RDKit          3D

 58 61  0  0  0  0  0  0  0  0999 V2000
  138.1830   79.7950  222.5570 N   0  0  0  0  0  0  0  0  0  0  0  0
  139.3170   79.9520  222.7820 C   0  0  0  0  0  0  0  0  0  0  0  0
  140.7150   80.1690  223.0560 C   0  0  0  0  0  0  0  0  0  0  0  0
  141.0750   81.2260  223.8650 C   0  0  0  0  0  0  0  0  0  0  0  0
  142.4110   81.4230  224.1190 C   0  0  0  0  0  0  0  0  0  0  0  0
  143.3140   80.5620  223.5580 C   0  0  0  0  0  0  0  0  0  0  0  0
  142.9420   79.4940  222.7410 C   0  0  0  0  0  0  0  0  0  0  0  0
  141.6090   79.2970  222.4860 C   0  0  0  0  0  0  0  0  0  0  0  0
  141.1140   78.1330  221.6410 C   0  0  2  0  0  0  0  0  0  0  0  0
  140.8230   77.0490  222.5930 C   0  0  0  0  0  0  0  0  0  0  0  0
  140.4500   75.7590  222.0740 N   0  0  0  0  0  0  0  0  0  0  0  0
  139.0920   75.4040  221.8620 C   0  0  0  0  0  0  0  0  0  0  0  0
  138.2360   76.2910  222.1500 O   0  0  0  0  0  0  0  0  0  0  0  0
  138.6050   74.1300  221.3480 C   0  0  0  0  0  0  0  0  0  0  0  0
  138.6940   73.1010  222.3580 N   0  0  0  0  0  0  0  0  0  0  0  0
  139.9410   72.5740  222.8200 C   0  0  0  0  0  0  0  0  0  0  0  0
  141.0590   72.9980  222.3640 O   0  0  0  0  0  0  0  0  0  0  0  0
  139.9500   71.5150  223.8490 C   0  0  0  0  0  0  0  0  0  0  0  0
  139.4370   70.2750  223.5540 C   0  0  0  0  0  0  0  0  0  0  0  0
  139.4400   69.2670  224.5180 C   0  0  0  0  0  0  0  0  0  0  0  0
  139.9690   69.5580  225.7660 C   0  0  0  0  0  0  0  0  0  0  0  0
  139.9980   68.5920  226.7690 C   0  0  0  0  0  0  0  0  0  0  0  0
  140.5320   68.9040  228.0100 C   0  0  0  0  0  0  0  0  0  0  0  0
  140.5460   67.9420  228.9640 F   0  0  0  0  0  0  0  0  0  0  0  0
  141.0460   70.1650  228.2920 C   0  0  0  0  0  0  0  0  0  0  0  0
  141.0160   71.1170  227.2950 C   0  0  0  0  0  0  0  0  0  0  0  0
  140.4850   70.8170  226.0550 C   0  0  0  0  0  0  0  0  0  0  0  0
  140.4530   71.7450  225.0790 N   0  0  0  0  0  0  0  0  0  0  0  0
  142.0300   77.9590  220.5200 C   0  0  0  0  0  0  0  0  0  0  0  0
  141.8380   78.8300  219.2990 C   0  0  0  0  0  0  0  0  0  0  0  0
  141.1360   77.9690  218.2790 C   0  0  0  0  0  0  0  0  0  0  0  0
  141.1840   76.5360  218.7900 C   0  0  0  0  0  0  0  0  0  0  0  0
  142.2000   76.5820  219.9330 C   0  0  0  0  0  0  0  0  0  0  0  0
  140.3136   81.8932  224.2952 H   0  0  0  0  0  0  0  0  0  0  0  0
  142.7463   82.2531  224.7581 H   0  0  0  0  0  0  0  0  0  0  0  0
  144.3837   80.7191  223.7606 H   0  0  0  0  0  0  0  0  0  0  0  0
  143.7014   78.8245  222.3107 H   0  0  0  0  0  0  0  0  0  0  0  0
  140.1649   78.2468  221.0967 H   0  0  0  0  0  0  0  0  0  0  0  0
  141.7253   76.9039  223.2052 H   0  0  0  0  0  0  0  0  0  0  0  0
  139.9250   77.3939  223.1265 H   0  0  0  0  0  0  0  0  0  0  0  0
  141.1920   75.0900  221.8470 H   0  0  0  0  0  0  0  0  0  0  0  0
  137.5550   74.2431  221.0401 H   0  0  0  0  0  0  0  0  0  0  0  0
  139.2265   73.8357  220.4895 H   0  0  0  0  0  0  0  0  0  0  0  0
  137.8410   72.6860  222.8060 H   0  0  0  0  0  0  0  0  0  0  0  0
  139.0227   70.0766  222.5545 H   0  0  0  0  0  0  0  0  0  0  0  0
  139.0341   68.2694  224.2944 H   0  0  0  0  0  0  0  0  0  0  0  0
  139.5987   67.5851  226.5773 H   0  0  0  0  0  0  0  0  0  0  0  0
  141.4647   70.3965  229.2825 H   0  0  0  0  0  0  0  0  0  0  0  0
  141.4177   72.1227  227.4881 H   0  0  0  0  0  0  0  0  0  0  0  0
  142.9106   78.2587  221.1072 H   0  0  0  0  0  0  0  0  0  0  0  0
  141.2218   79.7065  219.5481 H   0  0  0  0  0  0  0  0  0  0  0  0
  142.7990   79.2044  218.9166 H   0  0  0  0  0  0  0  0  0  0  0  0
  140.0912   78.2941  218.1664 H   0  0  0  0  0  0  0  0  0  0  0  0
  141.6249   78.0499  217.2969 H   0  0  0  0  0  0  0  0  0  0  0  0
  140.1968   76.2190  219.1574 H   0  0  0  0  0  0  0  0  0  0  0  0
  141.4628   75.8169  218.0056 H   0  0  0  0  0  0  0  0  0  0  0  0
  141.9797   75.8079  220.6828 H   0  0  0  0  0  0  0  0  0  0  0  0
  143.2284   76.3923  219.5918 H   0  0  0  0  0  0  0  0  0  0  0  0
  1  2  3  0
  2  3  1  0
  3  4  2  0
  4  5  1  0
  5  6  2  0
  6  7  1  0
  7  8  2  0
  8  9  1  0
  9 10  1  0
 10 11  1  0
 11 12  1  0
 12 13  2  0
 12 14  1  0
 14 15  1  0
 15 16  1  0
 16 17  2  0
 16 18  1  0
 18 19  2  0
 19 20  1  0
 20 21  2  0
 21 22  1  0
 22 23  2  0
 23 24  1  0
 23 25  1  0
 25 26  2  0
 26 27  1  0
 27 28  2  0
  9 29  1  0
 29 30  1  0
 30 31  1  0
 31 32  1  0
 32 33  1  0
  8  3  1  0
 28 18  1  0
 33 29  1  0
 27 21  1  0
  4 34  1  0
  5 35  1  0
  6 36  1  0
  7 37  1  0
  9 38  1  6
 10 39  1  0
 10 40  1  0
 11 41  1  0
 14 42  1  0
 14 43  1  0
 15 44  1  0
 19 45  1  0
 20 46  1  0
 22 47  1  0
 25 48  1  0
 26 49  1  0
 29 50  1  0
 30 51  1  0
 30 52  1  0
 31 53  1  0
 31 54  1  0
 32 55  1  0
 32 56  1  0
 33 57  1  0
 33 58  1  0
M  END
>  <smiles>  (40) 
N#Cc1ccccc1[C@H](CNC(=O)CNC(=O)c1ccc2cc(F)ccc2n1)C1CCCC1

>  <score_type>  (40) 
oracle

>  <origin>  (40) 
autodockgpu

>  <m_score__min__energy>  (40) 
-9.6899999999999995

>  <m_primary>  (40) 
energy

>  <rmsd>  (40) 
2.74224829311672

>  <m_score__min__rmsd>  (40) 
2.74224829311672

>  <meeko>  (40) 
{"free_energy": -9.32, "intermolecular_energy": -11.71, "internal_energy": -2.56, "cluster_size": 14, "cluster_id": 2, "rank_in_cluster": 3}

>  <energy>  (40) 
-8.75

>  <cluster_rmsd>  (40) 
1.59

>  <cluster>  (40) 
4

$$$$

     RDKit          3D

 58 61  0  0  0  0  0  0  0  0999 V2000
  139.4880   67.3750  225.1750 N   0  0  0  0  0  0  0  0  0  0  0  0
  139.8280   68.3410  225.7360 C   0  0  0  0  0  0  0  0  0  0  0  0
  140.2580   69.5400  226.4100 C   0  0  0  0  0  0  0  0  0  0  0  0
  140.6760   69.4480  227.7200 C   0  0  0  0  0  0  0  0  0  0  0  0
  141.0840   70.5980  228.3530 C   0  0  0  0  0  0  0  0  0  0  0  0
  141.0530   71.7720  227.6520 C   0  0  0  0  0  0  0  0  0  0  0  0
  140.6270   71.8570  226.3260 C   0  0  0  0  0  0  0  0  0  0  0  0
  140.2200   70.7100  225.6940 C   0  0  0  0  0  0  0  0  0  0  0  0
  139.7810   70.7060  224.2370 C   0  0  2  0  0  0  0  0  0  0  0  0
  140.7750   71.5230  223.5220 C   0  0  0  0  0  0  0  0  0  0  0  0
  140.3230   72.3800  222.4580 N   0  0  0  0  0  0  0  0  0  0  0  0
  141.1240   72.6340  221.3140 C   0  0  0  0  0  0  0  0  0  0  0  0
  142.2510   72.0590  221.2870 O   0  0  0  0  0  0  0  0  0  0  0  0
  140.7680   73.4860  220.1850 C   0  0  0  0  0  0  0  0  0  0  0  0
  141.0340   74.8730  220.4840 N   0  0  0  0  0  0  0  0  0  0  0  0
  140.4630   75.5480  221.6090 C   0  0  0  0  0  0  0  0  0  0  0  0
  139.6830   74.9480  222.4250 O   0  0  0  0  0  0  0  0  0  0  0  0
  140.7760   76.9720  221.8420 C   0  0  0  0  0  0  0  0  0  0  0  0
  141.1620   77.3890  223.0920 C   0  0  0  0  0  0  0  0  0  0  0  0
  141.4600   78.7310  223.3240 C   0  0  0  0  0  0  0  0  0  0  0  0
  141.3510   79.6170  222.2630 C   0  0  0  0  0  0  0  0  0  0  0  0
  141.6350   80.9700  222.4340 C   0  0  0  0  0  0  0  0  0  0  0  0
  141.5200   81.8390  221.3590 C   0  0  0  0  0  0  0  0  0  0  0  0
  141.8030   83.1490  221.5580 F   0  0  0  0  0  0  0  0  0  0  0  0
  141.1260   81.4000  220.1000 C   0  0  0  0  0  0  0  0  0  0  0  0
  140.8480   80.0590  219.9360 C   0  0  0  0  0  0  0  0  0  0  0  0
  140.9580   79.1850  221.0000 C   0  0  0  0  0  0  0  0  0  0  0  0
  140.6860   77.8760  220.8440 N   0  0  0  0  0  0  0  0  0  0  0  0
  138.3540   70.9970  224.1880 C   0  0  0  0  0  0  0  0  0  0  0  0
  137.4010   70.0060  224.8180 C   0  0  0  0  0  0  0  0  0  0  0  0
  136.8210   69.2040  223.6790 C   0  0  0  0  0  0  0  0  0  0  0  0
  137.2050   69.9130  222.3880 C   0  0  0  0  0  0  0  0  0  0  0  0
  137.7200   71.2770  222.8510 C   0  0  0  0  0  0  0  0  0  0  0  0
  140.6830   68.4811  228.2445 H   0  0  0  0  0  0  0  0  0  0  0  0
  141.4271   70.5746  229.3979 H   0  0  0  0  0  0  0  0  0  0  0  0
  141.3794   72.6928  228.1575 H   0  0  0  0  0  0  0  0  0  0  0  0
  140.6178   72.8226  225.7993 H   0  0  0  0  0  0  0  0  0  0  0  0
  139.8005   69.7540  223.6863 H   0  0  0  0  0  0  0  0  0  0  0  0
  141.2659   72.1642  224.2689 H   0  0  0  0  0  0  0  0  0  0  0  0
  141.4175   70.7855  223.0188 H   0  0  0  0  0  0  0  0  0  0  0  0
  139.3940   72.8050  222.5330 H   0  0  0  0  0  0  0  0  0  0  0  0
  141.3594   73.1867  219.3071 H   0  0  0  0  0  0  0  0  0  0  0  0
  139.6933   73.3696  219.9813 H   0  0  0  0  0  0  0  0  0  0  0  0
  141.6650   75.4600  219.8850 H   0  0  0  0  0  0  0  0  0  0  0  0
  141.2364   76.6613  223.9136 H   0  0  0  0  0  0  0  0  0  0  0  0
  141.7727   79.0771  224.3202 H   0  0  0  0  0  0  0  0  0  0  0  0
  141.9493   81.3479  223.4181 H   0  0  0  0  0  0  0  0  0  0  0  0
  141.0384   82.1026  219.2581 H   0  0  0  0  0  0  0  0  0  0  0  0
  140.5364   79.6827  218.9505 H   0  0  0  0  0  0  0  0  0  0  0  0
  138.4525   71.9139  224.7877 H   0  0  0  0  0  0  0  0  0  0  0  0
  137.9404   69.3466  225.5139 H   0  0  0  0  0  0  0  0  0  0  0  0
  136.6140   70.5146  225.3941 H   0  0  0  0  0  0  0  0  0  0  0  0
  137.2347   68.1848  223.6867 H   0  0  0  0  0  0  0  0  0  0  0  0
  135.7276   69.1276  223.7722 H   0  0  0  0  0  0  0  0  0  0  0  0
  137.9923   69.3580  221.8569 H   0  0  0  0  0  0  0  0  0  0  0  0
  136.3630   69.9958  221.6850 H   0  0  0  0  0  0  0  0  0  0  0  0
  138.4618   71.6750  222.1430 H   0  0  0  0  0  0  0  0  0  0  0  0
  136.9211   72.0307  222.9126 H   0  0  0  0  0  0  0  0  0  0  0  0
  1  2  3  0
  2  3  1  0
  3  4  2  0
  4  5  1  0
  5  6  2  0
  6  7  1  0
  7  8  2  0
  8  9  1  0
  9 10  1  0
 10 11  1  0
 11 12  1  0
 12 13  2  0
 12 14  1  0
 14 15  1  0
 15 16  1  0
 16 17  2  0
 16 18  1  0
 18 19  2  0
 19 20  1  0
 20 21  2  0
 21 22  1  0
 22 23  2  0
 23 24  1  0
 23 25  1  0
 25 26  2  0
 26 27  1  0
 27 28  2  0
  9 29  1  0
 29 30  1  0
 30 31  1  0
 31 32  1  0
 32 33  1  0
  8  3  1  0
 28 18  1  0
 33 29  1  0
 27 21  1  0
  4 34  1  0
  5 35  1  0
  6 36  1  0
  7 37  1  0
  9 38  1  6
 10 39  1  0
 10 40  1  0
 11 41  1  0
 14 42  1  0
 14 43  1  0
 15 44  1  0
 19 45  1  0
 20 46  1  0
 22 47  1  0
 25 48  1  0
 26 49  1  0
 29 50  1  0
 30 51  1  0
 30 52  1  0
 31 53  1  0
 31 54  1  0
 32 55  1  0
 32 56  1  0
 33 57  1  0
 33 58  1  0
M  END
>  <smiles>  (41) 
N#Cc1ccccc1[C@H](CNC(=O)CNC(=O)c1ccc2cc(F)ccc2n1)C1CCCC1

>  <score_type>  (41) 
oracle

>  <origin>  (41) 
autodockgpu

>  <m_score__min__energy>  (41) 
-9.6899999999999995

>  <m_primary>  (41) 
energy

>  <rmsd>  (41) 
9.199323207930565

>  <m_score__min__rmsd>  (41) 
9.199323207930565

>  <meeko>  (41) 
{"free_energy": -9.03, "intermolecular_energy": -11.42, "internal_energy": -2.45, "cluster_size": 10, "cluster_id": 1, "rank_in_cluster": 10}

>  <energy>  (41) 
-8.74

>  <cluster_rmsd>  (41) 
0.23

>  <cluster>  (41) 
4

$$$$

     RDKit          3D

 58 61  0  0  0  0  0  0  0  0999 V2000
  142.6390   74.5700  220.8110 N   0  0  0  0  0  0  0  0  0  0  0  0
  142.6150   75.5100  220.1190 C   0  0  0  0  0  0  0  0  0  0  0  0
  142.6030   76.6620  219.2540 C   0  0  0  0  0  0  0  0  0  0  0  0
  143.1990   76.5640  218.0150 C   0  0  0  0  0  0  0  0  0  0  0  0
  143.1830   77.6690  217.1970 C   0  0  0  0  0  0  0  0  0  0  0  0
  142.5770   78.8070  217.6550 C   0  0  0  0  0  0  0  0  0  0  0  0
  141.9760   78.8980  218.9100 C   0  0  0  0  0  0  0  0  0  0  0  0
  141.9930   77.7970  219.7270 C   0  0  0  0  0  0  0  0  0  0  0  0
  141.3240   77.7960  221.0940 C   0  0  2  0  0  0  0  0  0  0  0  0
  139.8840   77.6500  220.8300 C   0  0  0  0  0  0  0  0  0  0  0  0
  139.3750   76.3460  220.4940 N   0  0  0  0  0  0  0  0  0  0  0  0
  139.4010   75.2730  221.4240 C   0  0  0  0  0  0  0  0  0  0  0  0
  139.8900   75.5370  222.5610 O   0  0  0  0  0  0  0  0  0  0  0  0
  138.9200   73.9170  221.1870 C   0  0  0  0  0  0  0  0  0  0  0  0
  139.1840   73.0720  222.3280 N   0  0  0  0  0  0  0  0  0  0  0  0
  139.0260   71.6510  222.2930 C   0  0  0  0  0  0  0  0  0  0  0  0
  138.6470   71.0440  221.2330 O   0  0  0  0  0  0  0  0  0  0  0  0
  139.3060   70.8550  223.5050 C   0  0  0  0  0  0  0  0  0  0  0  0
  138.9660   69.5250  223.5400 C   0  0  0  0  0  0  0  0  0  0  0  0
  139.2260   68.7640  224.6790 C   0  0  0  0  0  0  0  0  0  0  0  0
  139.8290   69.3890  225.7590 C   0  0  0  0  0  0  0  0  0  0  0  0
  140.1140   68.6800  226.9240 C   0  0  0  0  0  0  0  0  0  0  0  0
  140.7180   69.3250  227.9930 C   0  0  0  0  0  0  0  0  0  0  0  0
  140.9810   68.6080  229.1110 F   0  0  0  0  0  0  0  0  0  0  0  0
  141.0550   70.6730  227.9400 C   0  0  0  0  0  0  0  0  0  0  0  0
  140.7730   71.3700  226.7840 C   0  0  0  0  0  0  0  0  0  0  0  0
  140.1700   70.7370  225.7140 C   0  0  0  0  0  0  0  0  0  0  0  0
  139.8920   71.4150  224.5830 N   0  0  0  0  0  0  0  0  0  0  0  0
  141.8640   78.9070  221.8670 C   0  0  0  0  0  0  0  0  0  0  0  0
  141.8630   78.7950  223.3750 C   0  0  0  0  0  0  0  0  0  0  0  0
  140.6920   79.6160  223.8540 C   0  0  0  0  0  0  0  0  0  0  0  0
  140.2000   80.4320  222.6660 C   0  0  0  0  0  0  0  0  0  0  0  0
  141.3150   80.2890  221.6280 C   0  0  0  0  0  0  0  0  0  0  0  0
  143.6746   75.6271  217.6895 H   0  0  0  0  0  0  0  0  0  0  0  0
  143.6457   77.6389  216.1995 H   0  0  0  0  0  0  0  0  0  0  0  0
  142.5632   79.6922  217.0022 H   0  0  0  0  0  0  0  0  0  0  0  0
  141.4984   79.8332  219.2376 H   0  0  0  0  0  0  0  0  0  0  0  0
  141.5356   76.9630  221.7806 H   0  0  0  0  0  0  0  0  0  0  0  0
  139.3530   77.9826  221.7341 H   0  0  0  0  0  0  0  0  0  0  0  0
  139.7155   78.2466  219.9214 H   0  0  0  0  0  0  0  0  0  0  0  0
  138.9800   76.2010  219.5600 H   0  0  0  0  0  0  0  0  0  0  0  0
  137.8359   73.9460  221.0030 H   0  0  0  0  0  0  0  0  0  0  0  0
  139.4460   73.5042  220.3135 H   0  0  0  0  0  0  0  0  0  0  0  0
  139.5070   73.4620  223.2470 H   0  0  0  0  0  0  0  0  0  0  0  0
  138.4870   69.0585  222.6666 H   0  0  0  0  0  0  0  0  0  0  0  0
  138.9600   67.6974  224.7192 H   0  0  0  0  0  0  0  0  0  0  0  0
  139.8608   67.6120  226.9957 H   0  0  0  0  0  0  0  0  0  0  0  0
  141.5335   71.1699  228.7968 H   0  0  0  0  0  0  0  0  0  0  0  0
  141.0299   72.4372  226.7132 H   0  0  0  0  0  0  0  0  0  0  0  0
  142.8734   78.7957  221.4443 H   0  0  0  0  0  0  0  0  0  0  0  0
  141.7433   77.7449  223.6798 H   0  0  0  0  0  0  0  0  0  0  0  0
  142.8092   79.1546  223.8056 H   0  0  0  0  0  0  0  0  0  0  0  0
  139.8905   78.9549  224.2153 H   0  0  0  0  0  0  0  0  0  0  0  0
  140.9891   80.2738  224.6841 H   0  0  0  0  0  0  0  0  0  0  0  0
  139.2527   80.0275  222.2799 H   0  0  0  0  0  0  0  0  0  0  0  0
  139.9994   81.4812  222.9284 H   0  0  0  0  0  0  0  0  0  0  0  0
  140.9129   80.3785  220.6081 H   0  0  0  0  0  0  0  0  0  0  0  0
  142.0831   81.0707  221.7229 H   0  0  0  0  0  0  0  0  0  0  0  0
  1  2  3  0
  2  3  1  0
  3  4  2  0
  4  5  1  0
  5  6  2  0
  6  7  1  0
  7  8  2  0
  8  9  1  0
  9 10  1  0
 10 11  1  0
 11 12  1  0
 12 13  2  0
 12 14  1  0
 14 15  1  0
 15 16  1  0
 16 17  2  0
 16 18  1  0
 18 19  2  0
 19 20  1  0
 20 21  2  0
 21 22  1  0
 22 23  2  0
 23 24  1  0
 23 25  1  0
 25 26  2  0
 26 27  1  0
 27 28  2  0
  9 29  1  0
 29 30  1  0
 30 31  1  0
 31 32  1  0
 32 33  1  0
  8  3  1  0
 28 18  1  0
 33 29  1  0
 27 21  1  0
  4 34  1  0
  5 35  1  0
  6 36  1  0
  7 37  1  0
  9 38  1  1
 10 39  1  0
 10 40  1  0
 11 41  1  0
 14 42  1  0
 14 43  1  0
 15 44  1  0
 19 45  1  0
 20 46  1  0
 22 47  1  0
 25 48  1  0
 26 49  1  0
 29 50  1  0
 30 51  1  0
 30 52  1  0
 31 53  1  0
 31 54  1  0
 32 55  1  0
 32 56  1  0
 33 57  1  0
 33 58  1  0
M  END
>  <smiles>  (42) 
N#Cc1ccccc1[C@H](CNC(=O)CNC(=O)c1ccc2cc(F)ccc2n1)C1CCCC1

>  <score_type>  (42) 
oracle

>  <origin>  (42) 
autodockgpu

>  <m_score__min__energy>  (42) 
-9.6899999999999995

>  <m_primary>  (42) 
energy

>  <rmsd>  (42) 
2.393696757377572

>  <m_score__min__rmsd>  (42) 
2.393696757377572

>  <meeko>  (42) 
{"free_energy": -8.84, "intermolecular_energy": -11.23, "internal_energy": -2.84, "cluster_size": 11, "cluster_id": 3, "rank_in_cluster": 7}

>  <energy>  (42) 
-8.73

>  <cluster_rmsd>  (42) 
1.98

>  <cluster>  (42) 
4

$$$$

     RDKit          3D

 58 61  0  0  0  0  0  0  0  0999 V2000
  141.7290   80.2380  218.8110 N   0  0  0  0  0  0  0  0  0  0  0  0
  141.7650   79.9310  219.9370 C   0  0  0  0  0  0  0  0  0  0  0  0
  141.8080   79.5300  221.3200 C   0  0  0  0  0  0  0  0  0  0  0  0
  142.4370   80.3540  222.2280 C   0  0  0  0  0  0  0  0  0  0  0  0
  142.4730   79.9620  223.5450 C   0  0  0  0  0  0  0  0  0  0  0  0
  141.8830   78.7760  223.8860 C   0  0  0  0  0  0  0  0  0  0  0  0
  141.2470   77.9470  222.9610 C   0  0  0  0  0  0  0  0  0  0  0  0
  141.2120   78.3370  221.6470 C   0  0  0  0  0  0  0  0  0  0  0  0
  140.5040   77.5150  220.5810 C   0  0  2  0  0  0  0  0  0  0  0  0
  139.1590   77.2490  221.1150 C   0  0  0  0  0  0  0  0  0  0  0  0
  138.5650   75.9600  220.8740 N   0  0  0  0  0  0  0  0  0  0  0  0
  139.0380   74.7880  221.5220 C   0  0  0  0  0  0  0  0  0  0  0  0
  140.0030   74.9500  222.3250 O   0  0  0  0  0  0  0  0  0  0  0  0
  138.5160   73.4380  221.3480 C   0  0  0  0  0  0  0  0  0  0  0  0
  138.9020   72.5920  222.4520 N   0  0  0  0  0  0  0  0  0  0  0  0
  138.6090   71.1920  222.4960 C   0  0  0  0  0  0  0  0  0  0  0  0
  137.9890   70.6070  221.5420 O   0  0  0  0  0  0  0  0  0  0  0  0
  139.0280   70.3940  223.6650 C   0  0  0  0  0  0  0  0  0  0  0  0
  138.7970   69.0400  223.6840 C   0  0  0  0  0  0  0  0  0  0  0  0
  139.1890   68.2770  224.7830 C   0  0  0  0  0  0  0  0  0  0  0  0
  139.8090   68.9240  225.8410 C   0  0  0  0  0  0  0  0  0  0  0  0
  140.2220   68.2140  226.9670 C   0  0  0  0  0  0  0  0  0  0  0  0
  140.8390   68.8820  228.0130 C   0  0  0  0  0  0  0  0  0  0  0  0
  141.2290   68.1630  229.0930 F   0  0  0  0  0  0  0  0  0  0  0  0
  141.0650   70.2540  227.9780 C   0  0  0  0  0  0  0  0  0  0  0  0
  140.6540   70.9510  226.8610 C   0  0  0  0  0  0  0  0  0  0  0  0
  140.0370   70.2970  225.8130 C   0  0  0  0  0  0  0  0  0  0  0  0
  139.6350   70.9750  224.7210 N   0  0  0  0  0  0  0  0  0  0  0  0
  141.3990   76.4440  220.1590 C   0  0  0  0  0  0  0  0  0  0  0  0
  142.8470   76.7880  219.8920 C   0  0  0  0  0  0  0  0  0  0  0  0
  142.9830   76.8840  218.3920 C   0  0  0  0  0  0  0  0  0  0  0  0
  141.7070   76.3160  217.7880 C   0  0  0  0  0  0  0  0  0  0  0  0
  141.0190   75.6150  218.9610 C   0  0  0  0  0  0  0  0  0  0  0  0
  142.8979   81.3000  221.9075 H   0  0  0  0  0  0  0  0  0  0  0  0
  142.9641   80.5865  224.3058 H   0  0  0  0  0  0  0  0  0  0  0  0
  141.9112   78.4607  224.9395 H   0  0  0  0  0  0  0  0  0  0  0  0
  140.7839   77.0013  223.2791 H   0  0  0  0  0  0  0  0  0  0  0  0
  140.2966   77.9857  219.6086 H   0  0  0  0  0  0  0  0  0  0  0  0
  139.2105   77.3836  222.2055 H   0  0  0  0  0  0  0  0  0  0  0  0
  138.5101   77.9499  220.5694 H   0  0  0  0  0  0  0  0  0  0  0  0
  137.7780   75.8980  220.2220 H   0  0  0  0  0  0  0  0  0  0  0  0
  137.4182   73.4803  221.2930 H   0  0  0  0  0  0  0  0  0  0  0  0
  138.9304   73.0171  220.4201 H   0  0  0  0  0  0  0  0  0  0  0  0
  139.4210   72.9640  223.2840 H   0  0  0  0  0  0  0  0  0  0  0  0
  138.3012   68.5563  222.8295 H   0  0  0  0  0  0  0  0  0  0  0  0
  139.0113   67.1918  224.8100 H   0  0  0  0  0  0  0  0  0  0  0  0
  140.0589   67.1277  227.0253 H   0  0  0  0  0  0  0  0  0  0  0  0
  141.5572   70.7682  228.8167 H   0  0  0  0  0  0  0  0  0  0  0  0
  140.8192   72.0371  226.8045 H   0  0  0  0  0  0  0  0  0  0  0  0
  141.2737   75.8801  221.0951 H   0  0  0  0  0  0  0  0  0  0  0  0
  143.1041   77.7491  220.3612 H   0  0  0  0  0  0  0  0  0  0  0  0
  143.5247   76.0290  220.3098 H   0  0  0  0  0  0  0  0  0  0  0  0
  143.1073   77.9348  218.0912 H   0  0  0  0  0  0  0  0  0  0  0  0
  143.8634   76.3245  218.0428 H   0  0  0  0  0  0  0  0  0  0  0  0
  141.0728   77.1205  217.3874 H   0  0  0  0  0  0  0  0  0  0  0  0
  141.9046   75.6356  216.9466 H   0  0  0  0  0  0  0  0  0  0  0  0
  139.9276   75.6045  218.8238 H   0  0  0  0  0  0  0  0  0  0  0  0
  141.3243   74.5630  219.0618 H   0  0  0  0  0  0  0  0  0  0  0  0
  1  2  3  0
  2  3  1  0
  3  4  2  0
  4  5  1  0
  5  6  2  0
  6  7  1  0
  7  8  2  0
  8  9  1  0
  9 10  1  0
 10 11  1  0
 11 12  1  0
 12 13  2  0
 12 14  1  0
 14 15  1  0
 15 16  1  0
 16 17  2  0
 16 18  1  0
 18 19  2  0
 19 20  1  0
 20 21  2  0
 21 22  1  0
 22 23  2  0
 23 24  1  0
 23 25  1  0
 25 26  2  0
 26 27  1  0
 27 28  2  0
  9 29  1  0
 29 30  1  0
 30 31  1  0
 31 32  1  0
 32 33  1  0
  8  3  1  0
 28 18  1  0
 33 29  1  0
 27 21  1  0
  4 34  1  0
  5 35  1  0
  6 36  1  0
  7 37  1  0
  9 38  1  6
 10 39  1  0
 10 40  1  0
 11 41  1  0
 14 42  1  0
 14 43  1  0
 15 44  1  0
 19 45  1  0
 20 46  1  0
 22 47  1  0
 25 48  1  0
 26 49  1  0
 29 50  1  0
 30 51  1  0
 30 52  1  0
 31 53  1  0
 31 54  1  0
 32 55  1  0
 32 56  1  0
 33 57  1  0
 33 58  1  0
M  END
>  <smiles>  (43) 
N#Cc1ccccc1[C@H](CNC(=O)CNC(=O)c1ccc2cc(F)ccc2n1)C1CCCC1

>  <score_type>  (43) 
oracle

>  <origin>  (43) 
autodockgpu

>  <m_score__min__energy>  (43) 
-9.6899999999999995

>  <m_primary>  (43) 
energy

>  <rmsd>  (43) 
2.0926013007370323

>  <m_score__min__rmsd>  (43) 
2.0926013007370323

>  <meeko>  (43) 
{"free_energy": -8.77, "intermolecular_energy": -11.16, "internal_energy": -2.77, "cluster_size": 13, "cluster_id": 4, "rank_in_cluster": 1}

>  <energy>  (43) 
-8.73

>  <cluster_rmsd>  (43) 
0.33

>  <cluster>  (43) 
4

$$$$

     RDKit          3D

 58 61  0  0  0  0  0  0  0  0999 V2000
  140.3740   73.4820  222.4230 N   0  0  0  0  0  0  0  0  0  0  0  0
  141.0140   74.1450  221.7070 C   0  0  0  0  0  0  0  0  0  0  0  0
  141.8000   74.9490  220.8060 C   0  0  0  0  0  0  0  0  0  0  0  0
  142.7520   74.3280  220.0260 C   0  0  0  0  0  0  0  0  0  0  0  0
  143.4970   75.1050  219.1700 C   0  0  0  0  0  0  0  0  0  0  0  0
  143.2550   76.4510  219.1370 C   0  0  0  0  0  0  0  0  0  0  0  0
  142.2890   77.0720  219.9290 C   0  0  0  0  0  0  0  0  0  0  0  0
  141.5470   76.2980  220.7840 C   0  0  0  0  0  0  0  0  0  0  0  0
  140.4450   76.8870  221.6520 C   0  0  2  0  0  0  0  0  0  0  0  0
  139.1810   76.4320  221.0510 C   0  0  0  0  0  0  0  0  0  0  0  0
  138.5690   75.2330  221.5610 N   0  0  0  0  0  0  0  0  0  0  0  0
  137.7630   74.4000  220.7410 C   0  0  0  0  0  0  0  0  0  0  0  0
  137.6250   74.7710  219.5390 O   0  0  0  0  0  0  0  0  0  0  0  0
  137.0940   73.1730  221.1560 C   0  0  0  0  0  0  0  0  0  0  0  0
  137.7440   72.5980  222.3100 N   0  0  0  0  0  0  0  0  0  0  0  0
  137.6760   71.2030  222.6240 C   0  0  0  0  0  0  0  0  0  0  0  0
  137.0350   70.3800  221.8840 O   0  0  0  0  0  0  0  0  0  0  0  0
  138.3600   70.6920  223.8280 C   0  0  0  0  0  0  0  0  0  0  0  0
  138.1190   69.4080  224.2550 C   0  0  0  0  0  0  0  0  0  0  0  0
  138.7600   68.9150  225.3910 C   0  0  0  0  0  0  0  0  0  0  0  0
  139.6330   69.7540  226.0660 C   0  0  0  0  0  0  0  0  0  0  0  0
  140.3010   69.3170  227.2070 C   0  0  0  0  0  0  0  0  0  0  0  0
  141.1700   70.1730  227.8660 C   0  0  0  0  0  0  0  0  0  0  0  0
  141.8050   69.7180  228.9730 F   0  0  0  0  0  0  0  0  0  0  0  0
  141.4020   71.4700  227.4210 C   0  0  0  0  0  0  0  0  0  0  0  0
  140.7380   71.8970  226.2900 C   0  0  0  0  0  0  0  0  0  0  0  0
  139.8690   71.0530  225.6260 C   0  0  0  0  0  0  0  0  0  0  0  0
  139.2190   71.4670  224.5210 N   0  0  0  0  0  0  0  0  0  0  0  0
  140.7390   78.2980  221.8700 C   0  0  0  0  0  0  0  0  0  0  0  0
  141.8390   78.6560  222.8440 C   0  0  0  0  0  0  0  0  0  0  0  0
  141.1490   79.0630  224.1220 C   0  0  0  0  0  0  0  0  0  0  0  0
  139.6690   79.2230  223.8030 C   0  0  0  0  0  0  0  0  0  0  0  0
  139.6150   79.2160  222.2730 C   0  0  0  0  0  0  0  0  0  0  0  0
  142.9113   73.2413  220.0866 H   0  0  0  0  0  0  0  0  0  0  0  0
  144.2684   74.6552  218.5277 H   0  0  0  0  0  0  0  0  0  0  0  0
  143.8507   77.0735  218.4532 H   0  0  0  0  0  0  0  0  0  0  0  0
  142.1261   78.1582  219.8690 H   0  0  0  0  0  0  0  0  0  0  0  0
  140.3606   76.5456  222.6943 H   0  0  0  0  0  0  0  0  0  0  0  0
  138.4516   77.2462  221.1740 H   0  0  0  0  0  0  0  0  0  0  0  0
  139.4524   76.1759  220.0162 H   0  0  0  0  0  0  0  0  0  0  0  0
  138.7300   74.9810  222.5400 H   0  0  0  0  0  0  0  0  0  0  0  0
  136.0477   73.4005  221.4079 H   0  0  0  0  0  0  0  0  0  0  0  0
  137.1409   72.4495  220.3288 H   0  0  0  0  0  0  0  0  0  0  0  0
  138.3030   73.1790  222.9810 H   0  0  0  0  0  0  0  0  0  0  0  0
  137.4185   68.7675  223.6991 H   0  0  0  0  0  0  0  0  0  0  0  0
  138.5779   67.8885  225.7419 H   0  0  0  0  0  0  0  0  0  0  0  0
  140.1398   68.2963  227.5841 H   0  0  0  0  0  0  0  0  0  0  0  0
  142.0951   72.1362  227.9556 H   0  0  0  0  0  0  0  0  0  0  0  0
  140.9017   72.9176  225.9137 H   0  0  0  0  0  0  0  0  0  0  0  0
  141.0412   78.4648  220.8256 H   0  0  0  0  0  0  0  0  0  0  0  0
  142.4898   77.7871  223.0214 H   0  0  0  0  0  0  0  0  0  0  0  0
  142.4736   79.4655  222.4542 H   0  0  0  0  0  0  0  0  0  0  0  0
  141.2875   78.2866  224.8889 H   0  0  0  0  0  0  0  0  0  0  0  0
  141.5687   80.0027  224.5103 H   0  0  0  0  0  0  0  0  0  0  0  0
  139.0872   78.3869  224.2183 H   0  0  0  0  0  0  0  0  0  0  0  0
  139.2397   80.1382  224.2368 H   0  0  0  0  0  0  0  0  0  0  0  0
  138.6484   78.8290  221.9181 H   0  0  0  0  0  0  0  0  0  0  0  0
  139.7173   80.2230  221.8423 H   0  0  0  0  0  0  0  0  0  0  0  0
  1  2  3  0
  2  3  1  0
  3  4  2  0
  4  5  1  0
  5  6  2  0
  6  7  1  0
  7  8  2  0
  8  9  1  0
  9 10  1  0
 10 11  1  0
 11 12  1  0
 12 13  2  0
 12 14  1  0
 14 15  1  0
 15 16  1  0
 16 17  2  0
 16 18  1  0
 18 19  2  0
 19 20  1  0
 20 21  2  0
 21 22  1  0
 22 23  2  0
 23 24  1  0
 23 25  1  0
 25 26  2  0
 26 27  1  0
 27 28  2  0
  9 29  1  0
 29 30  1  0
 30 31  1  0
 31 32  1  0
 32 33  1  0
  8  3  1  0
 28 18  1  0
 33 29  1  0
 27 21  1  0
  4 34  1  0
  5 35  1  0
  6 36  1  0
  7 37  1  0
  9 38  1  1
 10 39  1  0
 10 40  1  0
 11 41  1  0
 14 42  1  0
 14 43  1  0
 15 44  1  0
 19 45  1  0
 20 46  1  0
 22 47  1  0
 25 48  1  0
 26 49  1  0
 29 50  1  0
 30 51  1  0
 30 52  1  0
 31 53  1  0
 31 54  1  0
 32 55  1  0
 32 56  1  0
 33 57  1  0
 33 58  1  0
M  END
>  <smiles>  (44) 
N#Cc1ccccc1[C@H](CNC(=O)CNC(=O)c1ccc2cc(F)ccc2n1)C1CCCC1

>  <score_type>  (44) 
oracle

>  <origin>  (44) 
autodockgpu

>  <m_score__min__energy>  (44) 
-9.6899999999999995

>  <m_primary>  (44) 
energy

>  <rmsd>  (44) 
2.48378765729033

>  <m_score__min__rmsd>  (44) 
2.48378765729033

>  <meeko>  (44) 
{"free_energy": -8.24, "intermolecular_energy": -10.62, "internal_energy": -3.06, "cluster_size": 1, "cluster_id": 5, "rank_in_cluster": 1}

>  <energy>  (44) 
-8.68

>  <cluster_rmsd>  (44) 
1.97

>  <cluster>  (44) 
4

$$$$

     RDKit          3D

 58 61  0  0  0  0  0  0  0  0999 V2000
  138.1580   78.1150  222.2430 N   0  0  0  0  0  0  0  0  0  0  0  0
  139.1420   78.7100  222.4460 C   0  0  0  0  0  0  0  0  0  0  0  0
  140.3630   79.4380  222.6760 C   0  0  0  0  0  0  0  0  0  0  0  0
  140.4460   80.2580  223.7820 C   0  0  0  0  0  0  0  0  0  0  0  0
  141.6160   80.9490  223.9910 C   0  0  0  0  0  0  0  0  0  0  0  0
  142.6360   80.7870  223.0940 C   0  0  0  0  0  0  0  0  0  0  0  0
  142.5450   79.9550  221.9780 C   0  0  0  0  0  0  0  0  0  0  0  0
  141.3780   79.2670  221.7670 C   0  0  0  0  0  0  0  0  0  0  0  0
  141.2080   78.3060  220.6000 C   0  0  2  0  0  0  0  0  0  0  0  0
  141.3670   76.9590  221.1690 C   0  0  0  0  0  0  0  0  0  0  0  0
  140.2030   76.1210  221.2890 N   0  0  0  0  0  0  0  0  0  0  0  0
  140.3110   74.7220  221.5060 C   0  0  0  0  0  0  0  0  0  0  0  0
  141.4870   74.2620  221.5930 O   0  0  0  0  0  0  0  0  0  0  0  0
  139.2020   73.7840  221.6360 C   0  0  0  0  0  0  0  0  0  0  0  0
  139.4400   72.8530  222.7140 N   0  0  0  0  0  0  0  0  0  0  0  0
  138.9990   71.4930  222.6760 C   0  0  0  0  0  0  0  0  0  0  0  0
  138.3700   71.0200  221.6680 O   0  0  0  0  0  0  0  0  0  0  0  0
  139.2720   70.6050  223.8240 C   0  0  0  0  0  0  0  0  0  0  0  0
  138.9180   69.2790  223.7590 C   0  0  0  0  0  0  0  0  0  0  0  0
  139.1710   68.4310  224.8360 C   0  0  0  0  0  0  0  0  0  0  0  0
  139.7810   68.9670  225.9600 C   0  0  0  0  0  0  0  0  0  0  0  0
  140.0590   68.1690  227.0680 C   0  0  0  0  0  0  0  0  0  0  0  0
  140.6700   68.7240  228.1810 C   0  0  0  0  0  0  0  0  0  0  0  0
  140.9270   67.9220  229.2410 F   0  0  0  0  0  0  0  0  0  0  0  0
  141.0220   70.0690  228.2300 C   0  0  0  0  0  0  0  0  0  0  0  0
  140.7460   70.8540  227.1300 C   0  0  0  0  0  0  0  0  0  0  0  0
  140.1360   70.3110  226.0170 C   0  0  0  0  0  0  0  0  0  0  0  0
  139.8640   71.0750  224.9410 N   0  0  0  0  0  0  0  0  0  0  0  0
  142.0260   78.7840  219.4920 C   0  0  0  0  0  0  0  0  0  0  0  0
  141.4380   79.8250  218.5660 C   0  0  0  0  0  0  0  0  0  0  0  0
  140.9940   79.0810  217.3310 C   0  0  0  0  0  0  0  0  0  0  0  0
  141.5840   77.6800  217.4130 C   0  0  0  0  0  0  0  0  0  0  0  0
  142.6140   77.7750  218.5410 C   0  0  0  0  0  0  0  0  0  0  0  0
  139.5995   80.3563  224.4775 H   0  0  0  0  0  0  0  0  0  0  0  0
  141.7292   81.6159  224.8584 H   0  0  0  0  0  0  0  0  0  0  0  0
  143.5727   81.3392  223.2607 H   0  0  0  0  0  0  0  0  0  0  0  0
  143.3911   79.8531  221.2824 H   0  0  0  0  0  0  0  0  0  0  0  0
  140.2271   78.2510  220.1052 H   0  0  0  0  0  0  0  0  0  0  0  0
  142.0891   76.4225  220.5360 H   0  0  0  0  0  0  0  0  0  0  0  0
  141.6751   77.1414  222.2091 H   0  0  0  0  0  0  0  0  0  0  0  0
  139.2790   76.5560  221.2230 H   0  0  0  0  0  0  0  0  0  0  0  0
  138.2780   74.3445  221.8413 H   0  0  0  0  0  0  0  0  0  0  0  0
  139.1071   73.2187  220.6971 H   0  0  0  0  0  0  0  0  0  0  0  0
  139.9530   73.1320  223.5860 H   0  0  0  0  0  0  0  0  0  0  0  0
  138.4331   68.8851  222.8536 H   0  0  0  0  0  0  0  0  0  0  0  0
  138.8947   67.3671  224.7954 H   0  0  0  0  0  0  0  0  0  0  0  0
  139.7942   67.1014  227.0591 H   0  0  0  0  0  0  0  0  0  0  0  0
  141.5068   70.4945  229.1210 H   0  0  0  0  0  0  0  0  0  0  0  0
  141.0140   71.9208  227.1397 H   0  0  0  0  0  0  0  0  0  0  0  0
  142.7936   79.2086  220.1557 H   0  0  0  0  0  0  0  0  0  0  0  0
  140.5793   80.3196  219.0434 H   0  0  0  0  0  0  0  0  0  0  0  0
  142.1717   80.6076  218.3225 H   0  0  0  0  0  0  0  0  0  0  0  0
  139.8959   79.0262  217.2985 H   0  0  0  0  0  0  0  0  0  0  0  0
  141.3356   79.5959  216.4210 H   0  0  0  0  0  0  0  0  0  0  0  0
  140.8055   76.9419  217.6561 H   0  0  0  0  0  0  0  0  0  0  0  0
  142.0284   77.3524  216.4616 H   0  0  0  0  0  0  0  0  0  0  0  0
  142.7423   76.8009  219.0356 H   0  0  0  0  0  0  0  0  0  0  0  0
  143.6107   78.0673  218.1788 H   0  0  0  0  0  0  0  0  0  0  0  0
  1  2  3  0
  2  3  1  0
  3  4  2  0
  4  5  1  0
  5  6  2  0
  6  7  1  0
  7  8  2  0
  8  9  1  0
  9 10  1  0
 10 11  1  0
 11 12  1  0
 12 13  2  0
 12 14  1  0
 14 15  1  0
 15 16  1  0
 16 17  2  0
 16 18  1  0
 18 19  2  0
 19 20  1  0
 20 21  2  0
 21 22  1  0
 22 23  2  0
 23 24  1  0
 23 25  1  0
 25 26  2  0
 26 27  1  0
 27 28  2  0
  9 29  1  0
 29 30  1  0
 30 31  1  0
 31 32  1  0
 32 33  1  0
  8  3  1  0
 28 18  1  0
 33 29  1  0
 27 21  1  0
  4 34  1  0
  5 35  1  0
  6 36  1  0
  7 37  1  0
  9 38  1  6
 10 39  1  0
 10 40  1  0
 11 41  1  0
 14 42  1  0
 14 43  1  0
 15 44  1  0
 19 45  1  0
 20 46  1  0
 22 47  1  0
 25 48  1  0
 26 49  1  0
 29 50  1  0
 30 51  1  0
 30 52  1  0
 31 53  1  0
 31 54  1  0
 32 55  1  0
 32 56  1  0
 33 57  1  0
 33 58  1  0
M  END
>  <smiles>  (45) 
N#Cc1ccccc1[C@H](CNC(=O)CNC(=O)c1ccc2cc(F)ccc2n1)C1CCCC1

>  <score_type>  (45) 
oracle

>  <origin>  (45) 
autodockgpu

>  <m_score__min__energy>  (45) 
-9.6899999999999995

>  <m_primary>  (45) 
energy

>  <rmsd>  (45) 
2.461433776192982

>  <m_score__min__rmsd>  (45) 
2.461433776192982

>  <meeko>  (45) 
{"free_energy": -8.43, "intermolecular_energy": -10.81, "internal_energy": -2.64, "cluster_size": 13, "cluster_id": 4, "rank_in_cluster": 13}

>  <energy>  (45) 
-8.66

>  <cluster_rmsd>  (45) 
1.42

>  <cluster>  (45) 
4

$$$$

     RDKit          3D

 58 61  0  0  0  0  0  0  0  0999 V2000
  137.6930   79.7950  223.1020 N   0  0  0  0  0  0  0  0  0  0  0  0
  138.8550   79.9050  223.1090 C   0  0  0  0  0  0  0  0  0  0  0  0
  140.2880   80.0600  223.1300 C   0  0  0  0  0  0  0  0  0  0  0  0
  140.8260   81.1380  223.7990 C   0  0  0  0  0  0  0  0  0  0  0  0
  142.1940   81.2770  223.8110 C   0  0  0  0  0  0  0  0  0  0  0  0
  142.9480   80.3390  223.1600 C   0  0  0  0  0  0  0  0  0  0  0  0
  142.3960   79.2510  222.4850 C   0  0  0  0  0  0  0  0  0  0  0  0
  141.0320   79.1130  222.4710 C   0  0  0  0  0  0  0  0  0  0  0  0
  140.3480   77.9330  221.7950 C   0  0  2  0  0  0  0  0  0  0  0  0
  141.0890   76.7410  222.2360 C   0  0  0  0  0  0  0  0  0  0  0  0
  140.6440   75.4480  221.7850 N   0  0  0  0  0  0  0  0  0  0  0  0
  141.4930   74.5830  221.0460 C   0  0  0  0  0  0  0  0  0  0  0  0
  142.6610   75.0140  220.8170 O   0  0  0  0  0  0  0  0  0  0  0  0
  141.1440   73.2620  220.5380 C   0  0  0  0  0  0  0  0  0  0  0  0
  141.0550   72.3040  221.6150 N   0  0  0  0  0  0  0  0  0  0  0  0
  140.1010   72.4160  222.6760 C   0  0  0  0  0  0  0  0  0  0  0  0
  139.2590   73.3770  222.7220 O   0  0  0  0  0  0  0  0  0  0  0  0
  140.0790   71.4000  223.7480 C   0  0  0  0  0  0  0  0  0  0  0  0
  139.5580   70.1550  223.4950 C   0  0  0  0  0  0  0  0  0  0  0  0
  139.5320   69.1880  224.5000 C   0  0  0  0  0  0  0  0  0  0  0  0
  140.0410   69.5250  225.7440 C   0  0  0  0  0  0  0  0  0  0  0  0
  140.0420   68.6020  226.7870 C   0  0  0  0  0  0  0  0  0  0  0  0
  140.5560   68.9600  228.0240 C   0  0  0  0  0  0  0  0  0  0  0  0
  140.5420   68.0390  229.0170 F   0  0  0  0  0  0  0  0  0  0  0  0
  141.0790   70.2260  228.2630 C   0  0  0  0  0  0  0  0  0  0  0  0
  141.0770   71.1360  227.2260 C   0  0  0  0  0  0  0  0  0  0  0  0
  140.5660   70.7910  225.9900 C   0  0  0  0  0  0  0  0  0  0  0  0
  140.5620   71.6770  224.9770 N   0  0  0  0  0  0  0  0  0  0  0  0
  140.1630   78.2580  220.3860 C   0  0  0  0  0  0  0  0  0  0  0  0
  140.9540   77.4760  219.3630 C   0  0  0  0  0  0  0  0  0  0  0  0
  142.1030   78.3650  218.9550 C   0  0  0  0  0  0  0  0  0  0  0  0
  141.8160   79.7530  219.5100 C   0  0  0  0  0  0  0  0  0  0  0  0
  140.3500   79.6850  219.9430 C   0  0  0  0  0  0  0  0  0  0  0  0
  140.1792   81.8669  224.3092 H   0  0  0  0  0  0  0  0  0  0  0  0
  142.6703   82.1212  224.3310 H   0  0  0  0  0  0  0  0  0  0  0  0
  144.0425   80.4485  223.1696 H   0  0  0  0  0  0  0  0  0  0  0  0
  143.0404   78.5197  221.9751 H   0  0  0  0  0  0  0  0  0  0  0  0
  139.3106   77.6971  222.0747 H   0  0  0  0  0  0  0  0  0  0  0  0
  142.1289   76.8621  221.8985 H   0  0  0  0  0  0  0  0  0  0  0  0
  140.9321   76.7145  223.3244 H   0  0  0  0  0  0  0  0  0  0  0  0
  139.6910   75.1520  222.0150 H   0  0  0  0  0  0  0  0  0  0  0  0
  140.1728   73.3183  220.0246 H   0  0  0  0  0  0  0  0  0  0  0  0
  141.9285   72.9348  219.8398 H   0  0  0  0  0  0  0  0  0  0  0  0
  141.6910   71.4710  221.6740 H   0  0  0  0  0  0  0  0  0  0  0  0
  139.1600   69.9195  222.4969 H   0  0  0  0  0  0  0  0  0  0  0  0
  139.1191   68.1862  224.3104 H   0  0  0  0  0  0  0  0  0  0  0  0
  139.6361   67.5918  226.6298 H   0  0  0  0  0  0  0  0  0  0  0  0
  141.4827   70.4943  229.2504 H   0  0  0  0  0  0  0  0  0  0  0  0
  141.4858   72.1448  227.3849 H   0  0  0  0  0  0  0  0  0  0  0  0
  139.1004   77.9737  220.3923 H   0  0  0  0  0  0  0  0  0  0  0  0
  141.3318   76.5422  219.8048 H   0  0  0  0  0  0  0  0  0  0  0  0
  140.3320   77.2004  218.4986 H   0  0  0  0  0  0  0  0  0  0  0  0
  143.0448   77.9793  219.3725 H   0  0  0  0  0  0  0  0  0  0  0  0
  142.2042   78.3951  217.8601 H   0  0  0  0  0  0  0  0  0  0  0  0
  142.4672   79.9726  220.3689 H   0  0  0  0  0  0  0  0  0  0  0  0
  142.0028   80.5492  218.7743 H   0  0  0  0  0  0  0  0  0  0  0  0
  140.1555   80.3801  220.7730 H   0  0  0  0  0  0  0  0  0  0  0  0
  139.6583   79.9706  219.1368 H   0  0  0  0  0  0  0  0  0  0  0  0
  1  2  3  0
  2  3  1  0
  3  4  2  0
  4  5  1  0
  5  6  2  0
  6  7  1  0
  7  8  2  0
  8  9  1  0
  9 10  1  0
 10 11  1  0
 11 12  1  0
 12 13  2  0
 12 14  1  0
 14 15  1  0
 15 16  1  0
 16 17  2  0
 16 18  1  0
 18 19  2  0
 19 20  1  0
 20 21  2  0
 21 22  1  0
 22 23  2  0
 23 24  1  0
 23 25  1  0
 25 26  2  0
 26 27  1  0
 27 28  2  0
  9 29  1  0
 29 30  1  0
 30 31  1  0
 31 32  1  0
 32 33  1  0
  8  3  1  0
 28 18  1  0
 33 29  1  0
 27 21  1  0
  4 34  1  0
  5 35  1  0
  6 36  1  0
  7 37  1  0
  9 38  1  1
 10 39  1  0
 10 40  1  0
 11 41  1  0
 14 42  1  0
 14 43  1  0
 15 44  1  0
 19 45  1  0
 20 46  1  0
 22 47  1  0
 25 48  1  0
 26 49  1  0
 29 50  1  0
 30 51  1  0
 30 52  1  0
 31 53  1  0
 31 54  1  0
 32 55  1  0
 32 56  1  0
 33 57  1  0
 33 58  1  0
M  END
>  <smiles>  (46) 
N#Cc1ccccc1[C@H](CNC(=O)CNC(=O)c1ccc2cc(F)ccc2n1)C1CCCC1

>  <score_type>  (46) 
oracle

>  <origin>  (46) 
autodockgpu

>  <m_score__min__energy>  (46) 
-9.6899999999999995

>  <m_primary>  (46) 
energy

>  <rmsd>  (46) 
2.8079410912066374

>  <m_score__min__rmsd>  (46) 
2.8079410912066374

>  <meeko>  (46) 
{"free_energy": -8.76, "intermolecular_energy": -11.15, "internal_energy": -2.45, "cluster_size": 13, "cluster_id": 4, "rank_in_cluster": 3}

>  <energy>  (46) 
-8.62

>  <cluster_rmsd>  (46) 
0.28

>  <cluster>  (46) 
4

$$$$

     RDKit          3D

 58 61  0  0  0  0  0  0  0  0999 V2000
  137.8940   78.3690  222.3020 N   0  0  0  0  0  0  0  0  0  0  0  0
  138.9500   78.8230  222.5040 C   0  0  0  0  0  0  0  0  0  0  0  0
  140.2530   79.3940  222.7330 C   0  0  0  0  0  0  0  0  0  0  0  0
  140.3690   80.4410  223.6230 C   0  0  0  0  0  0  0  0  0  0  0  0
  141.6160   80.9790  223.8330 C   0  0  0  0  0  0  0  0  0  0  0  0
  142.6770   80.4480  223.1510 C   0  0  0  0  0  0  0  0  0  0  0  0
  142.5520   79.3880  222.2530 C   0  0  0  0  0  0  0  0  0  0  0  0
  141.3080   78.8520  222.0410 C   0  0  0  0  0  0  0  0  0  0  0  0
  141.0880   77.6680  221.1110 C   0  0  2  0  0  0  0  0  0  0  0  0
  140.7240   76.5410  221.9840 C   0  0  0  0  0  0  0  0  0  0  0  0
  139.4890   75.8460  221.7320 N   0  0  0  0  0  0  0  0  0  0  0  0
  139.4180   74.4280  221.7310 C   0  0  0  0  0  0  0  0  0  0  0  0
  140.5010   73.8180  221.9710 O   0  0  0  0  0  0  0  0  0  0  0  0
  138.2260   73.6270  221.4830 C   0  0  0  0  0  0  0  0  0  0  0  0
  137.2670   73.7880  222.5500 N   0  0  0  0  0  0  0  0  0  0  0  0
  136.4740   74.9690  222.7090 C   0  0  0  0  0  0  0  0  0  0  0  0
  136.5680   75.9530  221.8970 O   0  0  0  0  0  0  0  0  0  0  0  0
  135.5210   75.0630  223.8330 C   0  0  0  0  0  0  0  0  0  0  0  0
  135.0650   76.2940  224.2380 C   0  0  0  0  0  0  0  0  0  0  0  0
  134.1650   76.3950  225.2980 C   0  0  0  0  0  0  0  0  0  0  0  0
  133.7550   75.2260  225.9200 C   0  0  0  0  0  0  0  0  0  0  0  0
  132.8570   75.2640  226.9850 C   0  0  0  0  0  0  0  0  0  0  0  0
  132.4600   74.0830  227.5930 C   0  0  0  0  0  0  0  0  0  0  0  0
  131.5860   74.1540  228.6260 F   0  0  0  0  0  0  0  0  0  0  0  0
  132.9320   72.8450  227.1710 C   0  0  0  0  0  0  0  0  0  0  0  0
  133.8190   72.8130  226.1150 C   0  0  0  0  0  0  0  0  0  0  0  0
  134.2230   73.9840  225.5030 C   0  0  0  0  0  0  0  0  0  0  0  0
  135.0900   73.9570  224.4730 N   0  0  0  0  0  0  0  0  0  0  0  0
  142.2090   77.6020  220.1820 C   0  0  0  0  0  0  0  0  0  0  0  0
  142.1260   78.4040  218.9030 C   0  0  0  0  0  0  0  0  0  0  0  0
  141.7500   77.4240  217.8200 C   0  0  0  0  0  0  0  0  0  0  0  0
  141.9040   76.0270  218.4050 C   0  0  0  0  0  0  0  0  0  0  0  0
  142.6750   76.2510  219.7070 C   0  0  0  0  0  0  0  0  0  0  0  0
  139.4876   80.8347  224.1503 H   0  0  0  0  0  0  0  0  0  0  0  0
  141.7579   81.8162  224.5323 H   0  0  0  0  0  0  0  0  0  0  0  0
  143.6757   80.8774  223.3189 H   0  0  0  0  0  0  0  0  0  0  0  0
  143.4323   78.9908  221.7264 H   0  0  0  0  0  0  0  0  0  0  0  0
  140.2509   77.7096  220.3986 H   0  0  0  0  0  0  0  0  0  0  0  0
  141.5338   75.8000  221.9118 H   0  0  0  0  0  0  0  0  0  0  0  0
  140.5754   77.0031  222.9711 H   0  0  0  0  0  0  0  0  0  0  0  0
  138.6450   76.3980  221.5580 H   0  0  0  0  0  0  0  0  0  0  0  0
  137.7678   73.9467  220.5354 H   0  0  0  0  0  0  0  0  0  0  0  0
  138.5186   72.5680  221.4297 H   0  0  0  0  0  0  0  0  0  0  0  0
  137.1020   73.0410  223.2690 H   0  0  0  0  0  0  0  0  0  0  0  0
  135.4111   77.2030  223.7243 H   0  0  0  0  0  0  0  0  0  0  0  0
  133.7909   77.3743  225.6312 H   0  0  0  0  0  0  0  0  0  0  0  0
  132.4645   76.2276  227.3420 H   0  0  0  0  0  0  0  0  0  0  0  0
  132.6073   71.9175  227.6652 H   0  0  0  0  0  0  0  0  0  0  0  0
  134.2076   71.8480  225.7575 H   0  0  0  0  0  0  0  0  0  0  0  0
  142.9152   78.0430  220.9009 H   0  0  0  0  0  0  0  0  0  0  0  0
  141.3590   79.1874  218.9924 H   0  0  0  0  0  0  0  0  0  0  0  0
  143.0796   78.9046  218.6793 H   0  0  0  0  0  0  0  0  0  0  0  0
  140.7084   77.5891  217.5072 H   0  0  0  0  0  0  0  0  0  0  0  0
  142.3937   77.5512  216.9371 H   0  0  0  0  0  0  0  0  0  0  0  0
  140.9205   75.5771  218.6060 H   0  0  0  0  0  0  0  0  0  0  0  0
  142.4210   75.3375  217.7214 H   0  0  0  0  0  0  0  0  0  0  0  0
  142.4307   75.4722  220.4444 H   0  0  0  0  0  0  0  0  0  0  0  0
  143.7649   76.2061  219.5653 H   0  0  0  0  0  0  0  0  0  0  0  0
  1  2  3  0
  2  3  1  0
  3  4  2  0
  4  5  1  0
  5  6  2  0
  6  7  1  0
  7  8  2  0
  8  9  1  0
  9 10  1  0
 10 11  1  0
 11 12  1  0
 12 13  2  0
 12 14  1  0
 14 15  1  0
 15 16  1  0
 16 17  2  0
 16 18  1  0
 18 19  2  0
 19 20  1  0
 20 21  2  0
 21 22  1  0
 22 23  2  0
 23 24  1  0
 23 25  1  0
 25 26  2  0
 26 27  1  0
 27 28  2  0
  9 29  1  0
 29 30  1  0
 30 31  1  0
 31 32  1  0
 32 33  1  0
  8  3  1  0
 28 18  1  0
 33 29  1  0
 27 21  1  0
  4 34  1  0
  5 35  1  0
  6 36  1  0
  7 37  1  0
  9 38  1  6
 10 39  1  0
 10 40  1  0
 11 41  1  0
 14 42  1  0
 14 43  1  0
 15 44  1  0
 19 45  1  0
 20 46  1  0
 22 47  1  0
 25 48  1  0
 26 49  1  0
 29 50  1  0
 30 51  1  0
 30 52  1  0
 31 53  1  0
 31 54  1  0
 32 55  1  0
 32 56  1  0
 33 57  1  0
 33 58  1  0
M  END
>  <smiles>  (47) 
N#Cc1ccccc1[C@H](CNC(=O)CNC(=O)c1ccc2cc(F)ccc2n1)C1CCCC1

>  <score_type>  (47) 
oracle

>  <origin>  (47) 
autodockgpu

>  <m_score__min__energy>  (47) 
-9.6899999999999995

>  <m_primary>  (47) 
energy

>  <rmsd>  (47) 
6.305064128662832

>  <m_score__min__rmsd>  (47) 
6.305064128662832

>  <meeko>  (47) 
{"free_energy": -7.55, "intermolecular_energy": -9.93, "internal_energy": -3.35, "cluster_size": 1, "cluster_id": 6, "rank_in_cluster": 1}

>  <energy>  (47) 
-8.5

>  <cluster_rmsd>  (47) 
1.6

>  <cluster>  (47) 
4

$$$$

     RDKit          3D

 58 61  0  0  0  0  0  0  0  0999 V2000
  141.8350   80.1900  218.7140 N   0  0  0  0  0  0  0  0  0  0  0  0
  141.8320   79.9160  219.8490 C   0  0  0  0  0  0  0  0  0  0  0  0
  141.8410   79.5600  221.2460 C   0  0  0  0  0  0  0  0  0  0  0  0
  142.3130   80.4780  222.1580 C   0  0  0  0  0  0  0  0  0  0  0  0
  142.3180   80.1280  223.4880 C   0  0  0  0  0  0  0  0  0  0  0  0
  141.8540   78.8890  223.8350 C   0  0  0  0  0  0  0  0  0  0  0  0
  141.3770   77.9650  222.9050 C   0  0  0  0  0  0  0  0  0  0  0  0
  141.3730   78.3140  221.5790 C   0  0  0  0  0  0  0  0  0  0  0  0
  140.8310   77.3840  220.5030 C   0  0  2  0  0  0  0  0  0  0  0  0
  139.4460   77.0850  220.9000 C   0  0  0  0  0  0  0  0  0  0  0  0
  138.9150   75.7780  220.6130 N   0  0  0  0  0  0  0  0  0  0  0  0
  138.9870   74.7200  221.5570 C   0  0  0  0  0  0  0  0  0  0  0  0
  139.5380   74.9990  222.6620 O   0  0  0  0  0  0  0  0  0  0  0  0
  138.4890   73.3630  221.3680 C   0  0  0  0  0  0  0  0  0  0  0  0
  138.8660   72.5180  222.4770 N   0  0  0  0  0  0  0  0  0  0  0  0
  138.6800   71.1000  222.4700 C   0  0  0  0  0  0  0  0  0  0  0  0
  138.1700   70.4950  221.4650 O   0  0  0  0  0  0  0  0  0  0  0  0
  139.0820   70.3050  223.6480 C   0  0  0  0  0  0  0  0  0  0  0  0
  138.8350   68.9530  223.6740 C   0  0  0  0  0  0  0  0  0  0  0  0
  139.2110   68.1930  224.7800 C   0  0  0  0  0  0  0  0  0  0  0  0
  139.8310   68.8400  225.8380 C   0  0  0  0  0  0  0  0  0  0  0  0
  140.2290   68.1330  226.9710 C   0  0  0  0  0  0  0  0  0  0  0  0
  140.8480   68.7990  228.0170 C   0  0  0  0  0  0  0  0  0  0  0  0
  141.2230   68.0830  229.1040 F   0  0  0  0  0  0  0  0  0  0  0  0
  141.0890   70.1680  227.9740 C   0  0  0  0  0  0  0  0  0  0  0  0
  140.6950   70.8630  226.8500 C   0  0  0  0  0  0  0  0  0  0  0  0
  140.0760   70.2090  225.8020 C   0  0  0  0  0  0  0  0  0  0  0  0
  139.6890   70.8850  224.7040 N   0  0  0  0  0  0  0  0  0  0  0  0
  141.8160   76.3360  220.2650 C   0  0  0  0  0  0  0  0  0  0  0  0
  143.1720   76.7380  219.7310 C   0  0  0  0  0  0  0  0  0  0  0  0
  143.1470   76.4280  218.2550 C   0  0  0  0  0  0  0  0  0  0  0  0
  141.9050   75.5870  217.9930 C   0  0  0  0  0  0  0  0  0  0  0  0
  141.4350   75.1720  219.3880 C   0  0  0  0  0  0  0  0  0  0  0  0
  142.6759   81.4638  221.8316 H   0  0  0  0  0  0  0  0  0  0  0  0
  142.6859   80.8270  224.2535 H   0  0  0  0  0  0  0  0  0  0  0  0
  141.8571   78.6076  224.8984 H   0  0  0  0  0  0  0  0  0  0  0  0
  141.0124   76.9788  223.2281 H   0  0  0  0  0  0  0  0  0  0  0  0
  140.7172   77.7748  219.4811 H   0  0  0  0  0  0  0  0  0  0  0  0
  139.3821   77.2293  221.9886 H   0  0  0  0  0  0  0  0  0  0  0  0
  138.8375   77.7635  220.2841 H   0  0  0  0  0  0  0  0  0  0  0  0
  138.4690   75.6200  219.7050 H   0  0  0  0  0  0  0  0  0  0  0  0
  137.3920   73.3891  221.2914 H   0  0  0  0  0  0  0  0  0  0  0  0
  138.9281   72.9519  220.4470 H   0  0  0  0  0  0  0  0  0  0  0  0
  139.3000   72.9070  223.3500 H   0  0  0  0  0  0  0  0  0  0  0  0
  138.3391   68.4696  222.8194 H   0  0  0  0  0  0  0  0  0  0  0  0
  139.0212   67.1100  224.8127 H   0  0  0  0  0  0  0  0  0  0  0  0
  140.0523   67.0492  227.0350 H   0  0  0  0  0  0  0  0  0  0  0  0
  141.5803   70.6821  228.8132 H   0  0  0  0  0  0  0  0  0  0  0  0
  140.8749   71.9464  226.7872 H   0  0  0  0  0  0  0  0  0  0  0  0
  141.8594   76.0449  221.3249 H   0  0  0  0  0  0  0  0  0  0  0  0
  143.3432   77.8125  219.8929 H   0  0  0  0  0  0  0  0  0  0  0  0
  143.9824   76.1976  220.2422 H   0  0  0  0  0  0  0  0  0  0  0  0
  143.0997   77.3612  217.6746 H   0  0  0  0  0  0  0  0  0  0  0  0
  144.0560   75.8866  217.9541 H   0  0  0  0  0  0  0  0  0  0  0  0
  141.1328   76.1798  217.4810 H   0  0  0  0  0  0  0  0  0  0  0  0
  142.1088   74.7241  217.3419 H   0  0  0  0  0  0  0  0  0  0  0  0
  140.3468   75.0122  219.4020 H   0  0  0  0  0  0  0  0  0  0  0  0
  141.8866   74.2261  219.7218 H   0  0  0  0  0  0  0  0  0  0  0  0
  1  2  3  0
  2  3  1  0
  3  4  2  0
  4  5  1  0
  5  6  2  0
  6  7  1  0
  7  8  2  0
  8  9  1  0
  9 10  1  0
 10 11  1  0
 11 12  1  0
 12 13  2  0
 12 14  1  0
 14 15  1  0
 15 16  1  0
 16 17  2  0
 16 18  1  0
 18 19  2  0
 19 20  1  0
 20 21  2  0
 21 22  1  0
 22 23  2  0
 23 24  1  0
 23 25  1  0
 25 26  2  0
 26 27  1  0
 27 28  2  0
  9 29  1  0
 29 30  1  0
 30 31  1  0
 31 32  1  0
 32 33  1  0
  8  3  1  0
 28 18  1  0
 33 29  1  0
 27 21  1  0
  4 34  1  0
  5 35  1  0
  6 36  1  0
  7 37  1  0
  9 38  1  6
 10 39  1  0
 10 40  1  0
 11 41  1  0
 14 42  1  0
 14 43  1  0
 15 44  1  0
 19 45  1  0
 20 46  1  0
 22 47  1  0
 25 48  1  0
 26 49  1  0
 29 50  1  0
 30 51  1  0
 30 52  1  0
 31 53  1  0
 31 54  1  0
 32 55  1  0
 32 56  1  0
 33 57  1  0
 33 58  1  0
M  END
>  <smiles>  (48) 
N#Cc1ccccc1[C@H](CNC(=O)CNC(=O)c1ccc2cc(F)ccc2n1)C1CCCC1

>  <score_type>  (48) 
oracle

>  <origin>  (48) 
autodockgpu

>  <m_score__min__energy>  (48) 
-9.6899999999999995

>  <m_primary>  (48) 
energy

>  <rmsd>  (48) 
2.088300049236496

>  <m_score__min__rmsd>  (48) 
2.088300049236496

>  <meeko>  (48) 
{"free_energy": -8.73, "intermolecular_energy": -11.12, "internal_energy": -2.78, "cluster_size": 13, "cluster_id": 4, "rank_in_cluster": 8}

>  <energy>  (48) 
-8.43

>  <cluster_rmsd>  (48) 
1.47

>  <cluster>  (48) 
4

$$$$

     RDKit          3D

 58 61  0  0  0  0  0  0  0  0999 V2000
  139.5490   67.3480  225.3120 N   0  0  0  0  0  0  0  0  0  0  0  0
  139.8980   68.3300  225.8380 C   0  0  0  0  0  0  0  0  0  0  0  0
  140.3110   69.5540  226.4780 C   0  0  0  0  0  0  0  0  0  0  0  0
  140.8090   69.4930  227.7620 C   0  0  0  0  0  0  0  0  0  0  0  0
  141.1990   70.6660  228.3620 C   0  0  0  0  0  0  0  0  0  0  0  0
  141.0740   71.8310  227.6560 C   0  0  0  0  0  0  0  0  0  0  0  0
  140.5690   71.8840  226.3570 C   0  0  0  0  0  0  0  0  0  0  0  0
  140.1790   70.7150  225.7570 C   0  0  0  0  0  0  0  0  0  0  0  0
  139.6570   70.6770  224.3280 C   0  0  2  0  0  0  0  0  0  0  0  0
  140.5300   71.5830  223.5650 C   0  0  0  0  0  0  0  0  0  0  0  0
  139.9190   72.5640  222.7070 N   0  0  0  0  0  0  0  0  0  0  0  0
  139.8100   72.3650  221.3050 C   0  0  0  0  0  0  0  0  0  0  0  0
  140.2740   71.2740  220.8620 O   0  0  0  0  0  0  0  0  0  0  0  0
  139.2180   73.2920  220.3480 C   0  0  0  0  0  0  0  0  0  0  0  0
  139.0910   74.6110  220.9210 N   0  0  0  0  0  0  0  0  0  0  0  0
  140.1150   75.2130  221.7180 C   0  0  0  0  0  0  0  0  0  0  0  0
  141.2170   74.6100  221.9610 O   0  0  0  0  0  0  0  0  0  0  0  0
  139.9060   76.5630  222.2780 C   0  0  0  0  0  0  0  0  0  0  0  0
  140.9880   77.3170  222.6600 C   0  0  0  0  0  0  0  0  0  0  0  0
  140.8030   78.5940  223.1900 C   0  0  0  0  0  0  0  0  0  0  0  0
  139.5050   79.0660  223.3180 C   0  0  0  0  0  0  0  0  0  0  0  0
  139.2570   80.3330  223.8410 C   0  0  0  0  0  0  0  0  0  0  0  0
  137.9520   80.7860  223.9600 C   0  0  0  0  0  0  0  0  0  0  0  0
  137.7450   82.0220  224.4730 F   0  0  0  0  0  0  0  0  0  0  0  0
  136.8670   80.0080  223.5690 C   0  0  0  0  0  0  0  0  0  0  0  0
  137.1190   78.7550  223.0510 C   0  0  0  0  0  0  0  0  0  0  0  0
  138.4150   78.2930  222.9290 C   0  0  0  0  0  0  0  0  0  0  0  0
  138.6640   77.0700  222.4240 N   0  0  0  0  0  0  0  0  0  0  0  0
  138.2090   70.8390  224.3660 C   0  0  0  0  0  0  0  0  0  0  0  0
  137.3780   69.7120  224.9370 C   0  0  0  0  0  0  0  0  0  0  0  0
  136.8160   68.9660  223.7520 C   0  0  0  0  0  0  0  0  0  0  0  0
  137.0720   69.8220  222.5190 C   0  0  0  0  0  0  0  0  0  0  0  0
  137.4880   71.1800  223.0890 C   0  0  0  0  0  0  0  0  0  0  0  0
  140.8918   68.5323  228.2913 H   0  0  0  0  0  0  0  0  0  0  0  0
  141.6021   70.6682  229.3855 H   0  0  0  0  0  0  0  0  0  0  0  0
  141.3865   72.7704  228.1355 H   0  0  0  0  0  0  0  0  0  0  0  0
  140.4855   72.8434  225.8254 H   0  0  0  0  0  0  0  0  0  0  0  0
  139.7287   69.7332  223.7675 H   0  0  0  0  0  0  0  0  0  0  0  0
  141.1480   72.1284  224.2934 H   0  0  0  0  0  0  0  0  0  0  0  0
  141.0692   70.9188  222.8736 H   0  0  0  0  0  0  0  0  0  0  0  0
  139.5510   73.4210  223.1290 H   0  0  0  0  0  0  0  0  0  0  0  0
  139.8590   73.3469  219.4557 H   0  0  0  0  0  0  0  0  0  0  0  0
  138.2158   72.9273  220.0786 H   0  0  0  0  0  0  0  0  0  0  0  0
  138.2320   75.1990  220.7800 H   0  0  0  0  0  0  0  0  0  0  0  0
  142.0047   76.9125  222.5477 H   0  0  0  0  0  0  0  0  0  0  0  0
  141.6617   79.2089  223.4976 H   0  0  0  0  0  0  0  0  0  0  0  0
  140.0940   80.9722  224.1586 H   0  0  0  0  0  0  0  0  0  0  0  0
  135.8374   80.3817  223.6701 H   0  0  0  0  0  0  0  0  0  0  0  0
  136.2808   78.1180  222.7322 H   0  0  0  0  0  0  0  0  0  0  0  0
  138.2569   71.7020  225.0464 H   0  0  0  0  0  0  0  0  0  0  0  0
  138.0061   69.0447  225.5455 H   0  0  0  0  0  0  0  0  0  0  0  0
  136.5780   70.0925  225.5891 H   0  0  0  0  0  0  0  0  0  0  0  0
  137.3182   67.9931  223.6463 H   0  0  0  0  0  0  0  0  0  0  0  0
  135.7396   68.7802  223.8820 H   0  0  0  0  0  0  0  0  0  0  0  0
  137.8776   69.3924  221.9055 H   0  0  0  0  0  0  0  0  0  0  0  0
  136.1924   69.8908  221.8620 H   0  0  0  0  0  0  0  0  0  0  0  0
  138.1564   71.7073  222.3924 H   0  0  0  0  0  0  0  0  0  0  0  0
  136.6301   71.8481  223.2549 H   0  0  0  0  0  0  0  0  0  0  0  0
  1  2  3  0
  2  3  1  0
  3  4  2  0
  4  5  1  0
  5  6  2  0
  6  7  1  0
  7  8  2  0
  8  9  1  0
  9 10  1  0
 10 11  1  0
 11 12  1  0
 12 13  2  0
 12 14  1  0
 14 15  1  0
 15 16  1  0
 16 17  2  0
 16 18  1  0
 18 19  2  0
 19 20  1  0
 20 21  2  0
 21 22  1  0
 22 23  2  0
 23 24  1  0
 23 25  1  0
 25 26  2  0
 26 27  1  0
 27 28  2  0
  9 29  1  0
 29 30  1  0
 30 31  1  0
 31 32  1  0
 32 33  1  0
  8  3  1  0
 28 18  1  0
 33 29  1  0
 27 21  1  0
  4 34  1  0
  5 35  1  0
  6 36  1  0
  7 37  1  0
  9 38  1  6
 10 39  1  0
 10 40  1  0
 11 41  1  0
 14 42  1  0
 14 43  1  0
 15 44  1  0
 19 45  1  0
 20 46  1  0
 22 47  1  0
 25 48  1  0
 26 49  1  0
 29 50  1  0
 30 51  1  0
 30 52  1  0
 31 53  1  0
 31 54  1  0
 32 55  1  0
 32 56  1  0
 33 57  1  0
 33 58  1  0
M  END
>  <smiles>  (49) 
N#Cc1ccccc1[C@H](CNC(=O)CNC(=O)c1ccc2cc(F)ccc2n1)C1CCCC1

>  <score_type>  (49) 
oracle

>  <origin>  (49) 
autodockgpu

>  <m_score__min__energy>  (49) 
-9.6899999999999995

>  <m_primary>  (49) 
energy

>  <rmsd>  (49) 
8.527679654077122

>  <m_score__min__rmsd>  (49) 
8.527679654077122

>  <meeko>  (49) 
{"free_energy": -9.08, "intermolecular_energy": -11.47, "internal_energy": -2.19, "cluster_size": 10, "cluster_id": 1, "rank_in_cluster": 5}

>  <energy>  (49) 
-8.24

>  <cluster_rmsd>  (49) 
0.0

>  <cluster>  (49) 
5

$$$$

     RDKit          3D

 58 61  0  0  0  0  0  0  0  0999 V2000
  140.2560   82.7160  220.7050 N   0  0  0  0  0  0  0  0  0  0  0  0
  140.7020   81.8930  221.4020 C   0  0  0  0  0  0  0  0  0  0  0  0
  141.2340   80.8760  222.2740 C   0  0  0  0  0  0  0  0  0  0  0  0
  141.9630   81.2670  223.3770 C   0  0  0  0  0  0  0  0  0  0  0  0
  142.4660   80.2880  224.2010 C   0  0  0  0  0  0  0  0  0  0  0  0
  142.2170   78.9810  223.8860 C   0  0  0  0  0  0  0  0  0  0  0  0
  141.4780   78.5940  222.7680 C   0  0  0  0  0  0  0  0  0  0  0  0
  140.9770   79.5690  221.9450 C   0  0  0  0  0  0  0  0  0  0  0  0
  140.1240   79.2370  220.7290 C   0  0  2  0  0  0  0  0  0  0  0  0
  139.1020   78.2940  221.2080 C   0  0  0  0  0  0  0  0  0  0  0  0
  139.1170   76.9470  220.7010 N   0  0  0  0  0  0  0  0  0  0  0  0
  139.4760   75.8450  221.5220 C   0  0  0  0  0  0  0  0  0  0  0  0
  139.7730   76.1200  222.7210 O   0  0  0  0  0  0  0  0  0  0  0  0
  139.5300   74.4470  221.1110 C   0  0  0  0  0  0  0  0  0  0  0  0
  139.6330   73.5780  222.2590 N   0  0  0  0  0  0  0  0  0  0  0  0
  139.8010   72.1610  222.1470 C   0  0  0  0  0  0  0  0  0  0  0  0
  139.8800   71.5840  221.0090 O   0  0  0  0  0  0  0  0  0  0  0  0
  139.8880   71.3370  223.3690 C   0  0  0  0  0  0  0  0  0  0  0  0
  139.4670   70.0300  223.3400 C   0  0  0  0  0  0  0  0  0  0  0  0
  139.5440   69.2420  224.4880 C   0  0  0  0  0  0  0  0  0  0  0  0
  140.0510   69.8190  225.6430 C   0  0  0  0  0  0  0  0  0  0  0  0
  140.1520   69.0810  226.8210 C   0  0  0  0  0  0  0  0  0  0  0  0
  140.6610   69.6770  227.9650 C   0  0  0  0  0  0  0  0  0  0  0  0
  140.7460   68.9340  229.0940 F   0  0  0  0  0  0  0  0  0  0  0  0
  141.0810   71.0030  227.9770 C   0  0  0  0  0  0  0  0  0  0  0  0
  140.9800   71.7280  226.8070 C   0  0  0  0  0  0  0  0  0  0  0  0
  140.4730   71.1440  225.6620 C   0  0  0  0  0  0  0  0  0  0  0  0
  140.3730   71.8490  224.5190 N   0  0  0  0  0  0  0  0  0  0  0  0
  141.0150   78.9210  219.6180 C   0  0  0  0  0  0  0  0  0  0  0  0
  142.2070   79.8200  219.3810 C   0  0  0  0  0  0  0  0  0  0  0  0
  141.8260   80.7230  218.2330 C   0  0  0  0  0  0  0  0  0  0  0  0
  140.5510   80.1600  217.6220 C   0  0  0  0  0  0  0  0  0  0  0  0
  140.4250   78.7660  218.2410 C   0  0  0  0  0  0  0  0  0  0  0  0
  142.1372   82.3317  223.5916 H   0  0  0  0  0  0  0  0  0  0  0  0
  143.0548   80.5500  225.0925 H   0  0  0  0  0  0  0  0  0  0  0  0
  142.6185   78.1975  224.5455 H   0  0  0  0  0  0  0  0  0  0  0  0
  141.3012   77.5301  222.5516 H   0  0  0  0  0  0  0  0  0  0  0  0
  139.5260   80.0400  220.2733 H   0  0  0  0  0  0  0  0  0  0  0  0
  139.2062   78.2304  222.3012 H   0  0  0  0  0  0  0  0  0  0  0  0
  138.1553   78.7112  220.8342 H   0  0  0  0  0  0  0  0  0  0  0  0
  138.8530   76.7890  219.7240 H   0  0  0  0  0  0  0  0  0  0  0  0
  138.6150   74.1998  220.5527 H   0  0  0  0  0  0  0  0  0  0  0  0
  140.4171   74.3002  220.4774 H   0  0  0  0  0  0  0  0  0  0  0  0
  139.5880   73.9450  223.2410 H   0  0  0  0  0  0  0  0  0  0  0  0
  139.0677   69.6033  222.4081 H   0  0  0  0  0  0  0  0  0  0  0  0
  139.2123   68.1932  224.4779 H   0  0  0  0  0  0  0  0  0  0  0  0
  139.8291   68.0297  226.8432 H   0  0  0  0  0  0  0  0  0  0  0  0
  141.4823   71.4608  228.8932 H   0  0  0  0  0  0  0  0  0  0  0  0
  141.3055   72.7785  226.7859 H   0  0  0  0  0  0  0  0  0  0  0  0
  141.3085   77.9495  220.0424 H   0  0  0  0  0  0  0  0  0  0  0  0
  142.4214   80.4155  220.2807 H   0  0  0  0  0  0  0  0  0  0  0  0
  143.1115   79.2374  219.1520 H   0  0  0  0  0  0  0  0  0  0  0  0
  141.6489   81.7448  218.5999 H   0  0  0  0  0  0  0  0  0  0  0  0
  142.6318   80.7654  217.4854 H   0  0  0  0  0  0  0  0  0  0  0  0
  139.6837   80.7837  217.8843 H   0  0  0  0  0  0  0  0  0  0  0  0
  140.5857   80.1325  216.5229 H   0  0  0  0  0  0  0  0  0  0  0  0
  139.3704   78.4589  218.3003 H   0  0  0  0  0  0  0  0  0  0  0  0
  140.9351   77.9929  217.6477 H   0  0  0  0  0  0  0  0  0  0  0  0
  1  2  3  0
  2  3  1  0
  3  4  2  0
  4  5  1  0
  5  6  2  0
  6  7  1  0
  7  8  2  0
  8  9  1  0
  9 10  1  0
 10 11  1  0
 11 12  1  0
 12 13  2  0
 12 14  1  0
 14 15  1  0
 15 16  1  0
 16 17  2  0
 16 18  1  0
 18 19  2  0
 19 20  1  0
 20 21  2  0
 21 22  1  0
 22 23  2  0
 23 24  1  0
 23 25  1  0
 25 26  2  0
 26 27  1  0
 27 28  2  0
  9 29  1  0
 29 30  1  0
 30 31  1  0
 31 32  1  0
 32 33  1  0
  8  3  1  0
 28 18  1  0
 33 29  1  0
 27 21  1  0
  4 34  1  0
  5 35  1  0
  6 36  1  0
  7 37  1  0
  9 38  1  6
 10 39  1  0
 10 40  1  0
 11 41  1  0
 14 42  1  0
 14 43  1  0
 15 44  1  0
 19 45  1  0
 20 46  1  0
 22 47  1  0
 25 48  1  0
 26 49  1  0
 29 50  1  0
 30 51  1  0
 30 52  1  0
 31 53  1  0
 31 54  1  0
 32 55  1  0
 32 56  1  0
 33 57  1  0
 33 58  1  0
M  END
>  <smiles>  (50) 
N#Cc1ccccc1[C@H](CNC(=O)CNC(=O)c1ccc2cc(F)ccc2n1)C1CCCC1

>  <score_type>  (50) 
oracle

>  <origin>  (50) 
autodockgpu

>  <m_score__min__energy>  (50) 
-9.6899999999999995

>  <m_primary>  (50) 
energy

>  <rmsd>  (50) 
2.6445070876216437

>  <m_score__min__rmsd>  (50) 
2.6445070876216437

>  <meeko>  (50) 
{"free_energy": -8.46, "intermolecular_energy": -10.84, "internal_energy": -2.67, "cluster_size": 14, "cluster_id": 2, "rank_in_cluster": 12}

>  <energy>  (50) 
-7.55

>  <cluster_rmsd>  (50) 
0.0

>  <cluster>  (50) 
6

$$$$
