
     RDKit          3D

 57 60  0  0  0  0  0  0  0  0999 V2000
  143.4390   77.1670  218.9840 N   0  0  0  0  0  0  0  0  0  0  0  0
  142.7100   76.0500  219.5130 C   0  0  2  0  0  0  0  0  0  0  0  0
  142.4920   74.9530  218.4720 C   0  0  0  0  0  0  0  0  0  0  0  0
  141.0990   74.3650  218.8020 C   0  0  0  0  0  0  0  0  0  0  0  0
  140.7550   75.0490  220.0750 N   0  0  0  0  0  0  0  0  0  0  0  0
  140.0980   74.5450  221.2020 C   0  0  0  0  0  0  0  0  0  0  0  0
  140.5560   74.9540  222.3420 O   0  0  0  0  0  0  0  0  0  0  0  0
  138.9720   73.6260  221.2980 C   0  0  0  0  0  0  0  0  0  0  0  0
  138.8930   72.7410  222.4090 N   0  0  0  0  0  0  0  0  0  0  0  0
  140.0260   71.8800  222.6520 C   0  0  0  0  0  0  0  0  0  0  0  0
  141.0460   71.8850  221.9380 O   0  0  0  0  0  0  0  0  0  0  0  0
  139.9310   70.9730  223.8050 C   0  0  0  0  0  0  0  0  0  0  0  0
  139.2230   69.7940  223.7000 C   0  0  0  0  0  0  0  0  0  0  0  0
  139.1090   68.9100  224.7690 C   0  0  0  0  0  0  0  0  0  0  0  0
  139.7160   69.2190  225.9550 C   0  0  0  0  0  0  0  0  0  0  0  0
  139.6750   68.4280  227.0810 C   0  0  0  0  0  0  0  0  0  0  0  0
  140.3060   68.7910  228.2510 C   0  0  0  0  0  0  0  0  0  0  0  0
  141.0100   69.9750  228.3380 C   0  0  0  0  0  0  0  0  0  0  0  0
  141.0550   70.7800  227.2040 C   0  0  0  0  0  0  0  0  0  0  0  0
  140.4150   70.4050  226.0270 C   0  0  0  0  0  0  0  0  0  0  0  0
  140.5090   71.2420  224.9790 N   0  0  0  0  0  0  0  0  0  0  0  0
  141.2770   76.3900  219.8170 C   0  0  1  0  0  0  0  0  0  0  0  0
  141.0180   77.4220  220.7760 C   0  0  0  0  0  0  0  0  0  0  0  0
  139.8890   77.4920  221.3370 O   0  0  0  0  0  0  0  0  0  0  0  0
  141.9790   78.3820  221.1410 N   0  0  0  0  0  0  0  0  0  0  0  0
  141.6400   79.3880  222.1090 C   0  0  0  0  0  0  0  0  0  0  0  0
  141.3700   80.7440  221.5360 C   0  0  0  0  0  0  0  0  0  0  0  0
  141.2130   81.5640  222.8200 C   0  0  0  0  0  0  0  0  0  0  0  0
  142.1120   80.8700  223.8370 C   0  0  0  0  0  0  0  0  0  0  0  0
  142.7080   79.6700  223.1230 C   0  0  0  0  0  0  0  0  0  0  0  0
  142.9180   78.0330  219.2600 H   0  0  0  0  0  0  0  0  0  0  0  0
  144.4160   77.1560  219.3460 H   0  0  0  0  0  0  0  0  0  0  0  0
  143.3137   75.7556  220.3841 H   0  0  0  0  0  0  0  0  0  0  0  0
  142.5036   75.3751  217.4563 H   0  0  0  0  0  0  0  0  0  0  0  0
  143.2827   74.1889  218.5026 H   0  0  0  0  0  0  0  0  0  0  0  0
  140.3701   74.6028  218.0133 H   0  0  0  0  0  0  0  0  0  0  0  0
  141.0929   73.2677  218.8781 H   0  0  0  0  0  0  0  0  0  0  0  0
  138.0577   74.2375  221.3082 H   0  0  0  0  0  0  0  0  0  0  0  0
  139.1071   72.9548  220.4371 H   0  0  0  0  0  0  0  0  0  0  0  0
  138.0590   72.6770  223.0620 H   0  0  0  0  0  0  0  0  0  0  0  0
  138.7354   69.5457  222.7458 H   0  0  0  0  0  0  0  0  0  0  0  0
  138.5385   67.9757  224.6614 H   0  0  0  0  0  0  0  0  0  0  0  0
  139.1220   67.4778  227.0457 H   0  0  0  0  0  0  0  0  0  0  0  0
  140.2479   68.1285  229.1272 H   0  0  0  0  0  0  0  0  0  0  0  0
  141.5163   70.2710  229.2686 H   0  0  0  0  0  0  0  0  0  0  0  0
  141.6070   71.7308  227.2388 H   0  0  0  0  0  0  0  0  0  0  0  0
  140.7552   76.9216  219.0076 H   0  0  0  0  0  0  0  0  0  0  0  0
  142.9650   78.4110  220.7610 H   0  0  0  0  0  0  0  0  0  0  0  0
  140.7444   78.9286  222.5527 H   0  0  0  0  0  0  0  0  0  0  0  0
  142.2124   81.1021  220.9260 H   0  0  0  0  0  0  0  0  0  0  0  0
  140.5077   80.7901  220.8546 H   0  0  0  0  0  0  0  0  0  0  0  0
  141.5391   82.6022  222.6592 H   0  0  0  0  0  0  0  0  0  0  0  0
  140.1667   81.6136  223.1560 H   0  0  0  0  0  0  0  0  0  0  0  0
  142.9092   81.5512  224.1693 H   0  0  0  0  0  0  0  0  0  0  0  0
  141.5474   80.5660  224.7308 H   0  0  0  0  0  0  0  0  0  0  0  0
  143.6661   79.9190  222.6434 H   0  0  0  0  0  0  0  0  0  0  0  0
  142.9475   78.8213  223.7805 H   0  0  0  0  0  0  0  0  0  0  0  0
  1  2  1  0
  2  3  1  0
  3  4  1  0
  4  5  1  0
  5  6  1  0
  6  7  2  0
  6  8  1  0
  8  9  1  0
  9 10  1  0
 10 11  2  0
 10 12  1  0
 12 13  2  0
 13 14  1  0
 14 15  2  0
 15 16  1  0
 16 17  2  0
 17 18  1  0
 18 19  2  0
 19 20  1  0
 20 21  2  0
  5 22  1  0
 22 23  1  0
 23 24  2  0
 23 25  1  0
 25 26  1  0
 26 27  1  0
 27 28  1  0
 28 29  1  0
 29 30  1  0
 22  2  1  0
 30 26  1  0
 21 12  1  0
 20 15  1  0
  1 31  1  0
  1 32  1  0
  2 33  1  1
  3 34  1  0
  3 35  1  0
  4 36  1  0
  4 37  1  0
  8 38  1  0
  8 39  1  0
  9 40  1  0
 13 41  1  0
 14 42  1  0
 16 43  1  0
 17 44  1  0
 18 45  1  0
 19 46  1  0
 22 47  1  6
 25 48  1  0
 26 49  1  0
 27 50  1  0
 27 51  1  0
 28 52  1  0
 28 53  1  0
 29 54  1  0
 29 55  1  0
 30 56  1  0
 30 57  1  0
M  END
>  <smiles>  (1) 
N[C@@H]1CCN(C(=O)CNC(=O)c2ccc3ccccc3n2)[C@H]1C(=O)NC1CCCC1

>  <score_type>  (1) 
oracle

>  <origin>  (1) 
autodockgpu

>  <m_score__min__energy>  (1) 
-9.6600000000000001

>  <m_primary>  (1) 
energy

>  <rmsd>  (1) 
1.8437100596103466

>  <m_score__min__rmsd>  (1) 
1.8437100596103466

>  <meeko>  (1) 
{"free_energy": -9.52, "intermolecular_energy": -11.61, "internal_energy": -1.91, "cluster_size": 24, "cluster_id": 1, "rank_in_cluster": 2}

>  <energy>  (1) 
-9.66

>  <cluster_rmsd>  (1) 
0.0

>  <cluster>  (1) 
1

$$$$

     RDKit          3D

 57 60  0  0  0  0  0  0  0  0999 V2000
  143.7050   76.8430  219.1620 N   0  0  0  0  0  0  0  0  0  0  0  0
  142.3790   76.3430  219.3840 C   0  0  2  0  0  0  0  0  0  0  0  0
  141.5760   77.2300  220.3350 C   0  0  0  0  0  0  0  0  0  0  0  0
  140.6870   76.2490  221.1360 C   0  0  0  0  0  0  0  0  0  0  0  0
  140.9390   74.9540  220.4510 N   0  0  0  0  0  0  0  0  0  0  0  0
  140.0480   73.9150  220.1660 C   0  0  0  0  0  0  0  0  0  0  0  0
  140.3250   73.2190  219.1100 O   0  0  0  0  0  0  0  0  0  0  0  0
  138.8470   73.4900  220.8730 C   0  0  0  0  0  0  0  0  0  0  0  0
  138.9760   72.8680  222.1450 N   0  0  0  0  0  0  0  0  0  0  0  0
  139.7490   71.6510  222.2130 C   0  0  0  0  0  0  0  0  0  0  0  0
  140.2930   71.1390  221.2180 O   0  0  0  0  0  0  0  0  0  0  0  0
  139.8750   71.0230  223.5360 C   0  0  0  0  0  0  0  0  0  0  0  0
  139.4990   69.7080  223.7150 C   0  0  0  0  0  0  0  0  0  0  0  0
  139.6030   69.0780  224.9520 C   0  0  0  0  0  0  0  0  0  0  0  0
  140.0920   69.7810  226.0180 C   0  0  0  0  0  0  0  0  0  0  0  0
  140.2420   69.2690  227.2870 C   0  0  0  0  0  0  0  0  0  0  0  0
  140.7410   70.0270  228.3240 C   0  0  0  0  0  0  0  0  0  0  0  0
  141.1130   71.3410  228.1270 C   0  0  0  0  0  0  0  0  0  0  0  0
  140.9640   71.8650  226.8470 C   0  0  0  0  0  0  0  0  0  0  0  0
  140.4590   71.0920  225.8050 C   0  0  0  0  0  0  0  0  0  0  0  0
  140.3480   71.6780  224.6000 N   0  0  0  0  0  0  0  0  0  0  0  0
  142.3700   75.0630  220.1730 C   0  0  1  0  0  0  0  0  0  0  0  0
  143.0490   73.9280  219.6240 C   0  0  0  0  0  0  0  0  0  0  0  0
  144.0680   74.0950  218.8960 O   0  0  0  0  0  0  0  0  0  0  0  0
  142.6380   72.6050  219.8620 N   0  0  0  0  0  0  0  0  0  0  0  0
  143.3700   71.5200  219.2710 C   0  0  0  0  0  0  0  0  0  0  0  0
  142.8790   70.1560  219.6410 C   0  0  0  0  0  0  0  0  0  0  0  0
  143.9550   69.2840  218.9900 C   0  0  0  0  0  0  0  0  0  0  0  0
  145.2210   70.1330  219.0290 C   0  0  0  0  0  0  0  0  0  0  0  0
  144.8190   71.4580  219.6530 C   0  0  0  0  0  0  0  0  0  0  0  0
  144.0610   77.1920  220.0830 H   0  0  0  0  0  0  0  0  0  0  0  0
  144.3040   76.0920  218.7610 H   0  0  0  0  0  0  0  0  0  0  0  0
  141.9749   76.2632  218.3640 H   0  0  0  0  0  0  0  0  0  0  0  0
  142.2472   77.7828  221.0087 H   0  0  0  0  0  0  0  0  0  0  0  0
  140.9820   77.9836  219.7973 H   0  0  0  0  0  0  0  0  0  0  0  0
  140.9931   76.2065  222.1917 H   0  0  0  0  0  0  0  0  0  0  0  0
  139.6251   76.5355  221.1555 H   0  0  0  0  0  0  0  0  0  0  0  0
  138.2233   74.3850  221.0143 H   0  0  0  0  0  0  0  0  0  0  0  0
  138.4334   72.6962  220.2336 H   0  0  0  0  0  0  0  0  0  0  0  0
  138.5410   73.2430  223.0390 H   0  0  0  0  0  0  0  0  0  0  0  0
  139.1065   69.1420  222.8573 H   0  0  0  0  0  0  0  0  0  0  0  0
  139.2958   68.0284  225.0703 H   0  0  0  0  0  0  0  0  0  0  0  0
  139.9552   68.2245  227.4788 H   0  0  0  0  0  0  0  0  0  0  0  0
  140.8442   69.5782  229.3230 H   0  0  0  0  0  0  0  0  0  0  0  0
  141.5122   71.9510  228.9507 H   0  0  0  0  0  0  0  0  0  0  0  0
  141.2505   72.9095  226.6546 H   0  0  0  0  0  0  0  0  0  0  0  0
  142.9975   75.0830  221.0762 H   0  0  0  0  0  0  0  0  0  0  0  0
  141.8170   72.3380  220.4730 H   0  0  0  0  0  0  0  0  0  0  0  0
  143.2205   71.7503  218.2058 H   0  0  0  0  0  0  0  0  0  0  0  0
  142.8495   70.0174  220.7318 H   0  0  0  0  0  0  0  0  0  0  0  0
  141.8519   69.9353  219.3149 H   0  0  0  0  0  0  0  0  0  0  0  0
  144.0953   68.3528  219.5585 H   0  0  0  0  0  0  0  0  0  0  0  0
  143.6854   68.9876  217.9656 H   0  0  0  0  0  0  0  0  0  0  0  0
  145.9920   69.6412  219.6403 H   0  0  0  0  0  0  0  0  0  0  0  0
  145.6424   70.2736  218.0227 H   0  0  0  0  0  0  0  0  0  0  0  0
  144.9497   71.4474  220.7452 H   0  0  0  0  0  0  0  0  0  0  0  0
  145.4158   72.3191  219.3178 H   0  0  0  0  0  0  0  0  0  0  0  0
  1  2  1  0
  2  3  1  0
  3  4  1  0
  4  5  1  0
  5  6  1  0
  6  7  2  0
  6  8  1  0
  8  9  1  0
  9 10  1  0
 10 11  2  0
 10 12  1  0
 12 13  2  0
 13 14  1  0
 14 15  2  0
 15 16  1  0
 16 17  2  0
 17 18  1  0
 18 19  2  0
 19 20  1  0
 20 21  2  0
  5 22  1  0
 22 23  1  0
 23 24  2  0
 23 25  1  0
 25 26  1  0
 26 27  1  0
 27 28  1  0
 28 29  1  0
 29 30  1  0
 22  2  1  0
 30 26  1  0
 21 12  1  0
 20 15  1  0
  1 31  1  0
  1 32  1  0
  2 33  1  6
  3 34  1  0
  3 35  1  0
  4 36  1  0
  4 37  1  0
  8 38  1  0
  8 39  1  0
  9 40  1  0
 13 41  1  0
 14 42  1  0
 16 43  1  0
 17 44  1  0
 18 45  1  0
 19 46  1  0
 22 47  1  1
 25 48  1  0
 26 49  1  0
 27 50  1  0
 27 51  1  0
 28 52  1  0
 28 53  1  0
 29 54  1  0
 29 55  1  0
 30 56  1  0
 30 57  1  0
M  END
>  <smiles>  (2) 
N[C@@H]1CCN(C(=O)CNC(=O)c2ccc3ccccc3n2)[C@H]1C(=O)NC1CCCC1

>  <score_type>  (2) 
oracle

>  <origin>  (2) 
autodockgpu

>  <m_score__min__energy>  (2) 
-9.6600000000000001

>  <m_primary>  (2) 
energy

>  <rmsd>  (2) 
5.593730974427195

>  <m_score__min__rmsd>  (2) 
5.593730974427195

>  <meeko>  (2) 
{"free_energy": -7.42, "intermolecular_energy": -9.5, "internal_energy": -3.45, "cluster_size": 16, "cluster_id": 2, "rank_in_cluster": 16}

>  <energy>  (2) 
-9.52

>  <cluster_rmsd>  (2) 
0.46

>  <cluster>  (2) 
1

$$$$

     RDKit          3D

 57 60  0  0  0  0  0  0  0  0999 V2000
  142.5200   77.4880  217.3320 N   0  0  0  0  0  0  0  0  0  0  0  0
  141.5970   77.2600  218.4070 C   0  0  2  0  0  0  0  0  0  0  0  0
  140.9120   78.5450  218.8670 C   0  0  0  0  0  0  0  0  0  0  0  0
  140.7310   78.3740  220.3940 C   0  0  0  0  0  0  0  0  0  0  0  0
  141.1590   76.9680  220.6120 N   0  0  0  0  0  0  0  0  0  0  0  0
  140.6310   76.0050  221.4780 C   0  0  0  0  0  0  0  0  0  0  0  0
  140.4290   76.4030  222.6940 O   0  0  0  0  0  0  0  0  0  0  0  0
  140.2700   74.6170  221.2290 C   0  0  0  0  0  0  0  0  0  0  0  0
  139.9890   73.7640  222.3320 N   0  0  0  0  0  0  0  0  0  0  0  0
  140.6060   72.4590  222.3350 C   0  0  0  0  0  0  0  0  0  0  0  0
  141.3560   72.0630  221.4250 O   0  0  0  0  0  0  0  0  0  0  0  0
  140.3080   71.5910  223.4830 C   0  0  0  0  0  0  0  0  0  0  0  0
  139.5980   70.4230  223.3010 C   0  0  0  0  0  0  0  0  0  0  0  0
  139.2960   69.5750  224.3630 C   0  0  0  0  0  0  0  0  0  0  0  0
  139.7150   69.9100  225.6210 C   0  0  0  0  0  0  0  0  0  0  0  0
  139.4790   69.1550  226.7470 C   0  0  0  0  0  0  0  0  0  0  0  0
  139.9270   69.5430  227.9920 C   0  0  0  0  0  0  0  0  0  0  0  0
  140.6360   70.7150  228.1560 C   0  0  0  0  0  0  0  0  0  0  0  0
  140.8790   71.4830  227.0220 C   0  0  0  0  0  0  0  0  0  0  0  0
  140.4230   71.0830  225.7690 C   0  0  0  0  0  0  0  0  0  0  0  0
  140.7000   71.8850  224.7260 N   0  0  0  0  0  0  0  0  0  0  0  0
  142.2880   76.8760  219.6870 C   0  0  1  0  0  0  0  0  0  0  0  0
  143.0830   75.6850  219.6930 C   0  0  0  0  0  0  0  0  0  0  0  0
  143.6890   75.3270  218.6440 O   0  0  0  0  0  0  0  0  0  0  0  0
  143.2360   74.8770  220.8330 N   0  0  0  0  0  0  0  0  0  0  0  0
  144.0490   73.6950  220.7570 C   0  0  0  0  0  0  0  0  0  0  0  0
  145.5030   73.9490  220.5080 C   0  0  0  0  0  0  0  0  0  0  0  0
  146.0110   72.5160  220.3290 C   0  0  0  0  0  0  0  0  0  0  0  0
  144.8280   71.7540  219.7400 C   0  0  0  0  0  0  0  0  0  0  0  0
  143.6890   72.7540  219.6460 C   0  0  0  0  0  0  0  0  0  0  0  0
  143.4760   77.2600  217.6940 H   0  0  0  0  0  0  0  0  0  0  0  0
  142.2550   76.9070  216.5090 H   0  0  0  0  0  0  0  0  0  0  0  0
  140.9248   76.4941  217.9928 H   0  0  0  0  0  0  0  0  0  0  0  0
  141.5420   79.4196  218.6474 H   0  0  0  0  0  0  0  0  0  0  0  0
  139.9542   78.7112  218.3522 H   0  0  0  0  0  0  0  0  0  0  0  0
  141.3698   79.0751  220.9512 H   0  0  0  0  0  0  0  0  0  0  0  0
  139.7075   78.5800  220.7405 H   0  0  0  0  0  0  0  0  0  0  0  0
  139.3718   74.6276  220.5941 H   0  0  0  0  0  0  0  0  0  0  0  0
  141.1812   74.1847  220.7898 H   0  0  0  0  0  0  0  0  0  0  0  0
  139.3600   74.0290  223.1450 H   0  0  0  0  0  0  0  0  0  0  0  0
  139.2610   70.1539  222.2890 H   0  0  0  0  0  0  0  0  0  0  0  0
  138.7283   68.6484  224.1927 H   0  0  0  0  0  0  0  0  0  0  0  0
  138.9166   68.2145  226.6511 H   0  0  0  0  0  0  0  0  0  0  0  0
  139.7162   68.9095  228.8662 H   0  0  0  0  0  0  0  0  0  0  0  0
  140.9957   71.0304  229.1465 H   0  0  0  0  0  0  0  0  0  0  0  0
  141.4416   72.4234  227.1170 H   0  0  0  0  0  0  0  0  0  0  0  0
  143.1374   77.5212  219.9560 H   0  0  0  0  0  0  0  0  0  0  0  0
  142.8010   75.0860  221.7730 H   0  0  0  0  0  0  0  0  0  0  0  0
  143.8562   73.2694  221.7529 H   0  0  0  0  0  0  0  0  0  0  0  0
  145.6603   74.5517  219.6013 H   0  0  0  0  0  0  0  0  0  0  0  0
  146.0105   74.5192  221.3000 H   0  0  0  0  0  0  0  0  0  0  0  0
  146.8688   72.4921  219.6408 H   0  0  0  0  0  0  0  0  0  0  0  0
  146.3577   72.0770  221.2761 H   0  0  0  0  0  0  0  0  0  0  0  0
  145.0811   71.3684  218.7414 H   0  0  0  0  0  0  0  0  0  0  0  0
  144.5547   70.8905  220.3642 H   0  0  0  0  0  0  0  0  0  0  0  0
  143.6773   73.2639  218.6714 H   0  0  0  0  0  0  0  0  0  0  0  0
  142.6858   72.3110  219.7314 H   0  0  0  0  0  0  0  0  0  0  0  0
  1  2  1  0
  2  3  1  0
  3  4  1  0
  4  5  1  0
  5  6  1  0
  6  7  2  0
  6  8  1  0
  8  9  1  0
  9 10  1  0
 10 11  2  0
 10 12  1  0
 12 13  2  0
 13 14  1  0
 14 15  2  0
 15 16  1  0
 16 17  2  0
 17 18  1  0
 18 19  2  0
 19 20  1  0
 20 21  2  0
  5 22  1  0
 22 23  1  0
 23 24  2  0
 23 25  1  0
 25 26  1  0
 26 27  1  0
 27 28  1  0
 28 29  1  0
 29 30  1  0
 22  2  1  0
 30 26  1  0
 21 12  1  0
 20 15  1  0
  1 31  1  0
  1 32  1  0
  2 33  1  6
  3 34  1  0
  3 35  1  0
  4 36  1  0
  4 37  1  0
  8 38  1  0
  8 39  1  0
  9 40  1  0
 13 41  1  0
 14 42  1  0
 16 43  1  0
 17 44  1  0
 18 45  1  0
 19 46  1  0
 22 47  1  1
 25 48  1  0
 26 49  1  0
 27 50  1  0
 27 51  1  0
 28 52  1  0
 28 53  1  0
 29 54  1  0
 29 55  1  0
 30 56  1  0
 30 57  1  0
M  END
>  <smiles>  (3) 
N[C@@H]1CCN(C(=O)CNC(=O)c2ccc3ccccc3n2)[C@H]1C(=O)NC1CCCC1

>  <score_type>  (3) 
oracle

>  <origin>  (3) 
autodockgpu

>  <m_score__min__energy>  (3) 
-9.6600000000000001

>  <m_primary>  (3) 
energy

>  <rmsd>  (3) 
4.764987438012113

>  <m_score__min__rmsd>  (3) 
4.764987438012113

>  <meeko>  (3) 
{"free_energy": -8.09, "intermolecular_energy": -10.18, "internal_energy": -2.56, "cluster_size": 16, "cluster_id": 2, "rank_in_cluster": 1}

>  <energy>  (3) 
-9.3

>  <cluster_rmsd>  (3) 
0.73

>  <cluster>  (3) 
1

$$$$

     RDKit          3D

 57 60  0  0  0  0  0  0  0  0999 V2000
  141.8250   77.5930  221.3230 N   0  0  0  0  0  0  0  0  0  0  0  0
  140.5620   76.9390  221.1330 C   0  0  2  0  0  0  0  0  0  0  0  0
  139.4800   77.4830  222.0650 C   0  0  0  0  0  0  0  0  0  0  0  0
  138.6000   76.2570  222.4080 C   0  0  0  0  0  0  0  0  0  0  0  0
  139.1510   75.2050  221.5150 N   0  0  0  0  0  0  0  0  0  0  0  0
  138.4810   74.1980  220.8140 C   0  0  0  0  0  0  0  0  0  0  0  0
  138.5890   74.2530  219.5240 O   0  0  0  0  0  0  0  0  0  0  0  0
  137.6740   73.0910  221.3070 C   0  0  0  0  0  0  0  0  0  0  0  0
  138.0370   72.4580  222.5270 N   0  0  0  0  0  0  0  0  0  0  0  0
  139.0610   71.4420  222.4670 C   0  0  0  0  0  0  0  0  0  0  0  0
  139.6230   71.1090  221.4080 O   0  0  0  0  0  0  0  0  0  0  0  0
  139.4280   70.7990  223.7370 C   0  0  0  0  0  0  0  0  0  0  0  0
  139.2340   69.4440  223.9070 C   0  0  0  0  0  0  0  0  0  0  0  0
  139.5680   68.7990  225.0940 C   0  0  0  0  0  0  0  0  0  0  0  0
  140.1030   69.5290  226.1200 C   0  0  0  0  0  0  0  0  0  0  0  0
  140.4720   69.0060  227.3380 C   0  0  0  0  0  0  0  0  0  0  0  0
  141.0080   69.7910  228.3370 C   0  0  0  0  0  0  0  0  0  0  0  0
  141.1950   71.1450  228.1490 C   0  0  0  0  0  0  0  0  0  0  0  0
  140.8240   71.6810  226.9200 C   0  0  0  0  0  0  0  0  0  0  0  0
  140.2840   70.8800  225.9180 C   0  0  0  0  0  0  0  0  0  0  0  0
  139.9520   71.4780  224.7610 N   0  0  0  0  0  0  0  0  0  0  0  0
  140.5810   75.5050  221.5860 C   0  0  1  0  0  0  0  0  0  0  0  0
  141.5010   74.6100  220.9520 C   0  0  0  0  0  0  0  0  0  0  0  0
  142.7190   74.9260  220.8490 O   0  0  0  0  0  0  0  0  0  0  0  0
  141.1130   73.3630  220.4290 N   0  0  0  0  0  0  0  0  0  0  0  0
  142.0960   72.5230  219.8030 C   0  0  0  0  0  0  0  0  0  0  0  0
  141.5440   71.3010  219.1370 C   0  0  0  0  0  0  0  0  0  0  0  0
  142.8400   70.5890  218.7410 C   0  0  0  0  0  0  0  0  0  0  0  0
  143.8500   70.9970  219.8070 C   0  0  0  0  0  0  0  0  0  0  0  0
  143.1180   71.9490  220.7370 C   0  0  0  0  0  0  0  0  0  0  0  0
  141.9870   77.6540  222.3570 H   0  0  0  0  0  0  0  0  0  0  0  0
  142.5750   77.0630  220.8320 H   0  0  0  0  0  0  0  0  0  0  0  0
  140.3719   77.0848  220.0594 H   0  0  0  0  0  0  0  0  0  0  0  0
  139.9296   77.9043  222.9763 H   0  0  0  0  0  0  0  0  0  0  0  0
  138.8997   78.2930  221.5990 H   0  0  0  0  0  0  0  0  0  0  0  0
  138.7057   75.9755  223.4661 H   0  0  0  0  0  0  0  0  0  0  0  0
  137.5243   76.4354  222.2633 H   0  0  0  0  0  0  0  0  0  0  0  0
  136.6499   73.4717  221.4347 H   0  0  0  0  0  0  0  0  0  0  0  0
  137.8183   72.3049  220.5512 H   0  0  0  0  0  0  0  0  0  0  0  0
  137.6040   72.6860  223.4690 H   0  0  0  0  0  0  0  0  0  0  0  0
  138.8036   68.8574  223.0820 H   0  0  0  0  0  0  0  0  0  0  0  0
  139.4041   67.7170  225.2058 H   0  0  0  0  0  0  0  0  0  0  0  0
  140.3354   67.9298  227.5202 H   0  0  0  0  0  0  0  0  0  0  0  0
  141.2900   69.3319  229.2960 H   0  0  0  0  0  0  0  0  0  0  0  0
  141.6217   71.7773  228.9416 H   0  0  0  0  0  0  0  0  0  0  0  0
  140.9599   72.7571  226.7369 H   0  0  0  0  0  0  0  0  0  0  0  0
  141.0183   75.3500  222.5834 H   0  0  0  0  0  0  0  0  0  0  0  0
  140.1290   72.9780  220.4770 H   0  0  0  0  0  0  0  0  0  0  0  0
  142.5281   73.2385  219.0879 H   0  0  0  0  0  0  0  0  0  0  0  0
  140.9442   70.6955  219.8324 H   0  0  0  0  0  0  0  0  0  0  0  0
  140.8592   71.5048  218.3006 H   0  0  0  0  0  0  0  0  0  0  0  0
  142.6978   69.4982  218.7392 H   0  0  0  0  0  0  0  0  0  0  0  0
  143.1715   70.8629  217.7285 H   0  0  0  0  0  0  0  0  0  0  0  0
  144.1979   70.1131  220.3618 H   0  0  0  0  0  0  0  0  0  0  0  0
  144.7360   71.4723  219.3608 H   0  0  0  0  0  0  0  0  0  0  0  0
  142.6461   71.4141  221.5744 H   0  0  0  0  0  0  0  0  0  0  0  0
  143.7622   72.6967  221.2227 H   0  0  0  0  0  0  0  0  0  0  0  0
  1  2  1  0
  2  3  1  0
  3  4  1  0
  4  5  1  0
  5  6  1  0
  6  7  2  0
  6  8  1  0
  8  9  1  0
  9 10  1  0
 10 11  2  0
 10 12  1  0
 12 13  2  0
 13 14  1  0
 14 15  2  0
 15 16  1  0
 16 17  2  0
 17 18  1  0
 18 19  2  0
 19 20  1  0
 20 21  2  0
  5 22  1  0
 22 23  1  0
 23 24  2  0
 23 25  1  0
 25 26  1  0
 26 27  1  0
 27 28  1  0
 28 29  1  0
 29 30  1  0
 22  2  1  0
 30 26  1  0
 21 12  1  0
 20 15  1  0
  1 31  1  0
  1 32  1  0
  2 33  1  6
  3 34  1  0
  3 35  1  0
  4 36  1  0
  4 37  1  0
  8 38  1  0
  8 39  1  0
  9 40  1  0
 13 41  1  0
 14 42  1  0
 16 43  1  0
 17 44  1  0
 18 45  1  0
 19 46  1  0
 22 47  1  1
 25 48  1  0
 26 49  1  0
 27 50  1  0
 27 51  1  0
 28 52  1  0
 28 53  1  0
 29 54  1  0
 29 55  1  0
 30 56  1  0
 30 57  1  0
M  END
>  <smiles>  (4) 
N[C@@H]1CCN(C(=O)CNC(=O)c2ccc3ccccc3n2)[C@H]1C(=O)NC1CCCC1

>  <score_type>  (4) 
oracle

>  <origin>  (4) 
autodockgpu

>  <m_score__min__energy>  (4) 
-9.6600000000000001

>  <m_primary>  (4) 
energy

>  <rmsd>  (4) 
5.115030764909852

>  <m_score__min__rmsd>  (4) 
5.115030764909852

>  <meeko>  (4) 
{"free_energy": -7.06, "intermolecular_energy": -9.15, "internal_energy": -3.73, "cluster_size": 24, "cluster_id": 1, "rank_in_cluster": 24}

>  <energy>  (4) 
-9.26

>  <cluster_rmsd>  (4) 
0.75

>  <cluster>  (4) 
1

$$$$

     RDKit          3D

 57 60  0  0  0  0  0  0  0  0999 V2000
  146.2820   73.4920  219.7570 N   0  0  0  0  0  0  0  0  0  0  0  0
  144.9840   72.9500  220.0440 C   0  0  2  0  0  0  0  0  0  0  0  0
  144.8280   71.5180  219.5360 C   0  0  0  0  0  0  0  0  0  0  0  0
  143.3490   71.4140  219.0930 C   0  0  0  0  0  0  0  0  0  0  0  0
  142.7850   72.7100  219.5500 N   0  0  0  0  0  0  0  0  0  0  0  0
  141.5290   72.9850  220.1020 C   0  0  0  0  0  0  0  0  0  0  0  0
  140.5250   72.8390  219.2990 O   0  0  0  0  0  0  0  0  0  0  0  0
  141.1700   73.4130  221.4470 C   0  0  0  0  0  0  0  0  0  0  0  0
  141.2790   74.7900  221.7880 N   0  0  0  0  0  0  0  0  0  0  0  0
  140.0510   75.5250  221.9760 C   0  0  0  0  0  0  0  0  0  0  0  0
  138.9270   75.0070  221.8510 O   0  0  0  0  0  0  0  0  0  0  0  0
  140.1800   76.9460  222.3300 C   0  0  0  0  0  0  0  0  0  0  0  0
  139.0520   77.7280  222.4710 C   0  0  0  0  0  0  0  0  0  0  0  0
  139.1330   79.0760  222.8050 C   0  0  0  0  0  0  0  0  0  0  0  0
  140.3640   79.6410  222.9990 C   0  0  0  0  0  0  0  0  0  0  0  0
  140.5720   80.9600  223.3310 C   0  0  0  0  0  0  0  0  0  0  0  0
  141.8380   81.4760  223.5140 C   0  0  0  0  0  0  0  0  0  0  0  0
  142.9540   80.6780  223.3690 C   0  0  0  0  0  0  0  0  0  0  0  0
  142.7520   79.3440  223.0330 C   0  0  0  0  0  0  0  0  0  0  0  0
  141.4700   78.8320  222.8500 C   0  0  0  0  0  0  0  0  0  0  0  0
  141.3640   77.5320  222.5260 N   0  0  0  0  0  0  0  0  0  0  0  0
  143.8940   73.6150  219.2500 C   0  0  1  0  0  0  0  0  0  0  0  0
  143.6960   75.0220  219.4240 C   0  0  0  0  0  0  0  0  0  0  0  0
  144.4960   75.6880  220.1400 O   0  0  0  0  0  0  0  0  0  0  0  0
  142.6360   75.7230  218.8220 N   0  0  0  0  0  0  0  0  0  0  0  0
  142.5030   77.1350  219.0490 C   0  0  0  0  0  0  0  0  0  0  0  0
  141.1020   77.6030  219.2930 C   0  0  0  0  0  0  0  0  0  0  0  0
  141.3150   79.1180  219.3260 C   0  0  0  0  0  0  0  0  0  0  0  0
  142.4960   79.3670  218.3950 C   0  0  0  0  0  0  0  0  0  0  0  0
  142.9390   77.9990  217.9040 C   0  0  0  0  0  0  0  0  0  0  0  0
  146.1350   74.4580  219.3790 H   0  0  0  0  0  0  0  0  0  0  0  0
  146.8670   73.4850  220.6180 H   0  0  0  0  0  0  0  0  0  0  0  0
  144.9047   73.0710  221.1345 H   0  0  0  0  0  0  0  0  0  0  0  0
  145.5010   71.3331  218.6858 H   0  0  0  0  0  0  0  0  0  0  0  0
  145.0840   70.7746  220.3053 H   0  0  0  0  0  0  0  0  0  0  0  0
  143.2675   71.3078  218.0012 H   0  0  0  0  0  0  0  0  0  0  0  0
  142.8276   70.5383  219.5070 H   0  0  0  0  0  0  0  0  0  0  0  0
  140.1208   73.1240  221.6073 H   0  0  0  0  0  0  0  0  0  0  0  0
  141.9196   72.9242  222.0867 H   0  0  0  0  0  0  0  0  0  0  0  0
  142.2010   75.3030  221.9110 H   0  0  0  0  0  0  0  0  0  0  0  0
  138.0625   77.2735  222.3152 H   0  0  0  0  0  0  0  0  0  0  0  0
  138.2196   79.6796  222.9117 H   0  0  0  0  0  0  0  0  0  0  0  0
  139.7027   81.6227  223.4541 H   0  0  0  0  0  0  0  0  0  0  0  0
  141.9593   82.5367  223.7788 H   0  0  0  0  0  0  0  0  0  0  0  0
  143.9667   81.0823  223.5139 H   0  0  0  0  0  0  0  0  0  0  0  0
  143.6209   78.6809  222.9095 H   0  0  0  0  0  0  0  0  0  0  0  0
  144.1097   73.7132  218.1758 H   0  0  0  0  0  0  0  0  0  0  0  0
  141.9180   75.2810  218.1830 H   0  0  0  0  0  0  0  0  0  0  0  0
  143.1472   77.2448  219.9339 H   0  0  0  0  0  0  0  0  0  0  0  0
  140.4268   77.3056  218.4771 H   0  0  0  0  0  0  0  0  0  0  0  0
  140.6307   77.1869  220.1956 H   0  0  0  0  0  0  0  0  0  0  0  0
  140.4189   79.6430  218.9637 H   0  0  0  0  0  0  0  0  0  0  0  0
  141.5046   79.4880  220.3444 H   0  0  0  0  0  0  0  0  0  0  0  0
  142.1879   79.9960  217.5468 H   0  0  0  0  0  0  0  0  0  0  0  0
  143.3122   79.8929  218.9119 H   0  0  0  0  0  0  0  0  0  0  0  0
  142.4301   77.7199  216.9696 H   0  0  0  0  0  0  0  0  0  0  0  0
  144.0094   77.9270  217.6608 H   0  0  0  0  0  0  0  0  0  0  0  0
  1  2  1  0
  2  3  1  0
  3  4  1  0
  4  5  1  0
  5  6  1  0
  6  7  2  0
  6  8  1  0
  8  9  1  0
  9 10  1  0
 10 11  2  0
 10 12  1  0
 12 13  2  0
 13 14  1  0
 14 15  2  0
 15 16  1  0
 16 17  2  0
 17 18  1  0
 18 19  2  0
 19 20  1  0
 20 21  2  0
  5 22  1  0
 22 23  1  0
 23 24  2  0
 23 25  1  0
 25 26  1  0
 26 27  1  0
 27 28  1  0
 28 29  1  0
 29 30  1  0
 22  2  1  0
 30 26  1  0
 21 12  1  0
 20 15  1  0
  1 31  1  0
  1 32  1  0
  2 33  1  1
  3 34  1  0
  3 35  1  0
  4 36  1  0
  4 37  1  0
  8 38  1  0
  8 39  1  0
  9 40  1  0
 13 41  1  0
 14 42  1  0
 16 43  1  0
 17 44  1  0
 18 45  1  0
 19 46  1  0
 22 47  1  6
 25 48  1  0
 26 49  1  0
 27 50  1  0
 27 51  1  0
 28 52  1  0
 28 53  1  0
 29 54  1  0
 29 55  1  0
 30 56  1  0
 30 57  1  0
M  END
>  <smiles>  (5) 
N[C@@H]1CCN(C(=O)CNC(=O)c2ccc3ccccc3n2)[C@H]1C(=O)NC1CCCC1

>  <score_type>  (5) 
oracle

>  <origin>  (5) 
autodockgpu

>  <m_score__min__energy>  (5) 
-9.6600000000000001

>  <m_primary>  (5) 
energy

>  <rmsd>  (5) 
7.072689603000105

>  <m_score__min__rmsd>  (5) 
7.072689603000105

>  <meeko>  (5) 
{"free_energy": -7.26, "intermolecular_energy": -9.35, "internal_energy": -3.73, "cluster_size": 7, "cluster_id": 3, "rank_in_cluster": 4}

>  <energy>  (5) 
-9.25

>  <cluster_rmsd>  (5) 
0.9

>  <cluster>  (5) 
1

$$$$

     RDKit          3D

 57 60  0  0  0  0  0  0  0  0999 V2000
  143.6800   76.7850  218.5480 N   0  0  0  0  0  0  0  0  0  0  0  0
  143.0400   75.7520  219.3120 C   0  0  2  0  0  0  0  0  0  0  0  0
  142.9950   74.4200  218.5660 C   0  0  0  0  0  0  0  0  0  0  0  0
  141.6540   73.7740  218.9890 C   0  0  0  0  0  0  0  0  0  0  0  0
  141.1700   74.7010  220.0450 N   0  0  0  0  0  0  0  0  0  0  0  0
  140.5060   74.4110  221.2420 C   0  0  0  0  0  0  0  0  0  0  0  0
  140.8430   75.1430  222.2560 O   0  0  0  0  0  0  0  0  0  0  0  0
  139.4900   73.4080  221.5310 C   0  0  0  0  0  0  0  0  0  0  0  0
  139.6040   72.6270  222.7140 N   0  0  0  0  0  0  0  0  0  0  0  0
  139.4620   71.1970  222.5790 C   0  0  0  0  0  0  0  0  0  0  0  0
  139.2470   70.6380  221.4890 O   0  0  0  0  0  0  0  0  0  0  0  0
  139.5850   70.4030  223.8110 C   0  0  0  0  0  0  0  0  0  0  0  0
  139.1040   69.1110  223.8510 C   0  0  0  0  0  0  0  0  0  0  0  0
  139.2010   68.3290  224.9970 C   0  0  0  0  0  0  0  0  0  0  0  0
  139.7890   68.8550  226.1150 C   0  0  0  0  0  0  0  0  0  0  0  0
  139.9440   68.1820  227.3050 C   0  0  0  0  0  0  0  0  0  0  0  0
  140.5460   68.7640  228.3990 C   0  0  0  0  0  0  0  0  0  0  0  0
  141.0220   70.0580  228.3410 C   0  0  0  0  0  0  0  0  0  0  0  0
  140.8690   70.7450  227.1410 C   0  0  0  0  0  0  0  0  0  0  0  0
  140.2600   70.1480  226.0410 C   0  0  0  0  0  0  0  0  0  0  0  0
  140.1530   70.8830  224.9210 N   0  0  0  0  0  0  0  0  0  0  0  0
  141.5650   75.9910  219.4820 C   0  0  1  0  0  0  0  0  0  0  0  0
  141.1480   77.1870  220.1520 C   0  0  0  0  0  0  0  0  0  0  0  0
  140.4030   78.0150  219.5570 O   0  0  0  0  0  0  0  0  0  0  0  0
  141.5290   77.4940  221.4700 N   0  0  0  0  0  0  0  0  0  0  0  0
  141.0710   78.7160  222.0700 C   0  0  0  0  0  0  0  0  0  0  0  0
  142.0870   79.4170  222.9180 C   0  0  0  0  0  0  0  0  0  0  0  0
  141.2330   80.5440  223.5040 C   0  0  0  0  0  0  0  0  0  0  0  0
  139.8250   79.9630  223.5870 C   0  0  0  0  0  0  0  0  0  0  0  0
  139.9150   78.5600  223.0110 C   0  0  0  0  0  0  0  0  0  0  0  0
  144.0210   77.5050  219.2290 H   0  0  0  0  0  0  0  0  0  0  0  0
  144.4500   76.3780  217.9780 H   0  0  0  0  0  0  0  0  0  0  0  0
  143.6208   75.7453  220.2461 H   0  0  0  0  0  0  0  0  0  0  0  0
  143.0199   74.5840  217.4786 H   0  0  0  0  0  0  0  0  0  0  0  0
  143.8574   73.7807  218.8061 H   0  0  0  0  0  0  0  0  0  0  0  0
  140.9499   73.7304  218.1450 H   0  0  0  0  0  0  0  0  0  0  0  0
  141.7570   72.7339  219.3318 H   0  0  0  0  0  0  0  0  0  0  0  0
  138.5252   73.9337  221.5845 H   0  0  0  0  0  0  0  0  0  0  0  0
  139.6082   72.6741  220.7202 H   0  0  0  0  0  0  0  0  0  0  0  0
  139.7850   73.0300  223.6790 H   0  0  0  0  0  0  0  0  0  0  0  0
  138.6311   68.6878  222.9526 H   0  0  0  0  0  0  0  0  0  0  0  0
  138.8101   67.3008  225.0045 H   0  0  0  0  0  0  0  0  0  0  0  0
  139.5763   67.1484  227.3853 H   0  0  0  0  0  0  0  0  0  0  0  0
  140.6486   68.1894  229.3314 H   0  0  0  0  0  0  0  0  0  0  0  0
  141.5041   70.5284  229.2106 H   0  0  0  0  0  0  0  0  0  0  0  0
  141.2360   71.7788  227.0600 H   0  0  0  0  0  0  0  0  0  0  0  0
  141.0376   76.2508  218.5523 H   0  0  0  0  0  0  0  0  0  0  0  0
  142.1280   76.8690  222.0770 H   0  0  0  0  0  0  0  0  0  0  0  0
  140.8076   79.2833  221.1652 H   0  0  0  0  0  0  0  0  0  0  0  0
  142.4841   78.7579  223.7040 H   0  0  0  0  0  0  0  0  0  0  0  0
  142.9818   79.7554  222.3750 H   0  0  0  0  0  0  0  0  0  0  0  0
  141.5957   80.8253  224.5037 H   0  0  0  0  0  0  0  0  0  0  0  0
  141.2704   81.4557  222.8897 H   0  0  0  0  0  0  0  0  0  0  0  0
  139.4883   79.9254  224.6335 H   0  0  0  0  0  0  0  0  0  0  0  0
  139.1019   80.5798  223.0332 H   0  0  0  0  0  0  0  0  0  0  0  0
  140.1264   77.8147  223.7919 H   0  0  0  0  0  0  0  0  0  0  0  0
  138.9886   78.2015  222.5386 H   0  0  0  0  0  0  0  0  0  0  0  0
  1  2  1  0
  2  3  1  0
  3  4  1  0
  4  5  1  0
  5  6  1  0
  6  7  2  0
  6  8  1  0
  8  9  1  0
  9 10  1  0
 10 11  2  0
 10 12  1  0
 12 13  2  0
 13 14  1  0
 14 15  2  0
 15 16  1  0
 16 17  2  0
 17 18  1  0
 18 19  2  0
 19 20  1  0
 20 21  2  0
  5 22  1  0
 22 23  1  0
 23 24  2  0
 23 25  1  0
 25 26  1  0
 26 27  1  0
 27 28  1  0
 28 29  1  0
 29 30  1  0
 22  2  1  0
 30 26  1  0
 21 12  1  0
 20 15  1  0
  1 31  1  0
  1 32  1  0
  2 33  1  1
  3 34  1  0
  3 35  1  0
  4 36  1  0
  4 37  1  0
  8 38  1  0
  8 39  1  0
  9 40  1  0
 13 41  1  0
 14 42  1  0
 16 43  1  0
 17 44  1  0
 18 45  1  0
 19 46  1  0
 22 47  1  6
 25 48  1  0
 26 49  1  0
 27 50  1  0
 27 51  1  0
 28 52  1  0
 28 53  1  0
 29 54  1  0
 29 55  1  0
 30 56  1  0
 30 57  1  0
M  END
>  <smiles>  (6) 
N[C@@H]1CCN(C(=O)CNC(=O)c2ccc3ccccc3n2)[C@H]1C(=O)NC1CCCC1

>  <score_type>  (6) 
oracle

>  <origin>  (6) 
autodockgpu

>  <m_score__min__energy>  (6) 
-9.6600000000000001

>  <m_primary>  (6) 
energy

>  <rmsd>  (6) 
2.3136576520694536

>  <m_score__min__rmsd>  (6) 
2.3136576520694536

>  <meeko>  (6) 
{"free_energy": -9.24, "intermolecular_energy": -11.32, "internal_energy": -2.34, "cluster_size": 24, "cluster_id": 1, "rank_in_cluster": 6}

>  <energy>  (6) 
-9.24

>  <cluster_rmsd>  (6) 
1.1

>  <cluster>  (6) 
1

$$$$

     RDKit          3D

 57 60  0  0  0  0  0  0  0  0999 V2000
  141.8160   77.9710  221.7630 N   0  0  0  0  0  0  0  0  0  0  0  0
  140.5390   77.3960  221.4530 C   0  0  2  0  0  0  0  0  0  0  0  0
  139.3930   78.1060  222.1710 C   0  0  0  0  0  0  0  0  0  0  0  0
  138.3720   76.9880  222.4910 C   0  0  0  0  0  0  0  0  0  0  0  0
  138.9460   75.8160  221.7810 N   0  0  0  0  0  0  0  0  0  0  0  0
  138.2920   74.7960  221.0820 C   0  0  0  0  0  0  0  0  0  0  0  0
  137.3890   75.1890  220.2420 O   0  0  0  0  0  0  0  0  0  0  0  0
  138.4670   73.3520  221.1500 C   0  0  0  0  0  0  0  0  0  0  0  0
  138.8990   72.7630  222.3700 N   0  0  0  0  0  0  0  0  0  0  0  0
  138.7000   71.3420  222.5270 C   0  0  0  0  0  0  0  0  0  0  0  0
  138.1730   70.6320  221.6510 O   0  0  0  0  0  0  0  0  0  0  0  0
  139.1540   70.7470  223.7930 C   0  0  0  0  0  0  0  0  0  0  0  0
  138.9990   69.3950  224.0160 C   0  0  0  0  0  0  0  0  0  0  0  0
  139.4150   68.7960  225.2010 C   0  0  0  0  0  0  0  0  0  0  0  0
  139.9940   69.5680  226.1700 C   0  0  0  0  0  0  0  0  0  0  0  0
  140.4450   69.0930  227.3800 C   0  0  0  0  0  0  0  0  0  0  0  0
  141.0210   69.9200  228.3200 C   0  0  0  0  0  0  0  0  0  0  0  0
  141.1680   71.2700  228.0790 C   0  0  0  0  0  0  0  0  0  0  0  0
  140.7140   71.7590  226.8580 C   0  0  0  0  0  0  0  0  0  0  0  0
  140.1340   70.9160  225.9150 C   0  0  0  0  0  0  0  0  0  0  0  0
  139.7220   71.4700  224.7620 N   0  0  0  0  0  0  0  0  0  0  0  0
  140.3730   76.0160  222.0280 C   0  0  1  0  0  0  0  0  0  0  0  0
  141.2900   74.9980  221.6110 C   0  0  0  0  0  0  0  0  0  0  0  0
  141.0800   73.7930  221.9270 O   0  0  0  0  0  0  0  0  0  0  0  0
  142.4360   75.2710  220.8440 N   0  0  0  0  0  0  0  0  0  0  0  0
  143.3090   74.1940  220.4680 C   0  0  0  0  0  0  0  0  0  0  0  0
  144.7690   74.5030  220.5760 C   0  0  0  0  0  0  0  0  0  0  0  0
  145.3690   73.2360  219.9610 C   0  0  0  0  0  0  0  0  0  0  0  0
  144.3340   72.7680  218.9440 C   0  0  0  0  0  0  0  0  0  0  0  0
  143.1760   73.7450  219.0440 C   0  0  0  0  0  0  0  0  0  0  0  0
  142.0280   77.7310  222.7610 H   0  0  0  0  0  0  0  0  0  0  0  0
  142.5370   77.6090  221.1050 H   0  0  0  0  0  0  0  0  0  0  0  0
  140.5085   77.4492  220.3547 H   0  0  0  0  0  0  0  0  0  0  0  0
  139.7508   78.5803  223.0968 H   0  0  0  0  0  0  0  0  0  0  0  0
  138.9528   78.9067  221.5586 H   0  0  0  0  0  0  0  0  0  0  0  0
  138.3090   76.8051  223.5739 H   0  0  0  0  0  0  0  0  0  0  0  0
  137.3450   77.2296  222.1797 H   0  0  0  0  0  0  0  0  0  0  0  0
  137.4966   72.8984  220.8998 H   0  0  0  0  0  0  0  0  0  0  0  0
  139.2975   73.1558  220.4558 H   0  0  0  0  0  0  0  0  0  0  0  0
  139.3540   73.3010  223.1640 H   0  0  0  0  0  0  0  0  0  0  0  0
  138.5341   68.7736  223.2364 H   0  0  0  0  0  0  0  0  0  0  0  0
  139.2799   67.7154  225.3564 H   0  0  0  0  0  0  0  0  0  0  0  0
  140.3428   68.0209  227.6038 H   0  0  0  0  0  0  0  0  0  0  0  0
  141.3679   69.4980  229.2747 H   0  0  0  0  0  0  0  0  0  0  0  0
  141.6273   71.9357  228.8246 H   0  0  0  0  0  0  0  0  0  0  0  0
  140.8154   72.8312  226.6342 H   0  0  0  0  0  0  0  0  0  0  0  0
  140.6565   75.9282  223.0872 H   0  0  0  0  0  0  0  0  0  0  0  0
  142.7040   76.2340  220.4970 H   0  0  0  0  0  0  0  0  0  0  0  0
  142.9831   73.4277  221.1868 H   0  0  0  0  0  0  0  0  0  0  0  0
  145.0378   75.4006  219.9997 H   0  0  0  0  0  0  0  0  0  0  0  0
  145.1160   74.7260  221.5958 H   0  0  0  0  0  0  0  0  0  0  0  0
  146.3248   73.4612  219.4653 H   0  0  0  0  0  0  0  0  0  0  0  0
  145.5827   72.4680  220.7189 H   0  0  0  0  0  0  0  0  0  0  0  0
  144.7604   72.7835  217.9301 H   0  0  0  0  0  0  0  0  0  0  0  0
  144.0091   71.7367  219.1459 H   0  0  0  0  0  0  0  0  0  0  0  0
  143.2927   74.5842  218.3424 H   0  0  0  0  0  0  0  0  0  0  0  0
  142.1951   73.3158  218.7917 H   0  0  0  0  0  0  0  0  0  0  0  0
  1  2  1  0
  2  3  1  0
  3  4  1  0
  4  5  1  0
  5  6  1  0
  6  7  2  0
  6  8  1  0
  8  9  1  0
  9 10  1  0
 10 11  2  0
 10 12  1  0
 12 13  2  0
 13 14  1  0
 14 15  2  0
 15 16  1  0
 16 17  2  0
 17 18  1  0
 18 19  2  0
 19 20  1  0
 20 21  2  0
  5 22  1  0
 22 23  1  0
 23 24  2  0
 23 25  1  0
 25 26  1  0
 26 27  1  0
 27 28  1  0
 28 29  1  0
 29 30  1  0
 22  2  1  0
 30 26  1  0
 21 12  1  0
 20 15  1  0
  1 31  1  0
  1 32  1  0
  2 33  1  6
  3 34  1  0
  3 35  1  0
  4 36  1  0
  4 37  1  0
  8 38  1  0
  8 39  1  0
  9 40  1  0
 13 41  1  0
 14 42  1  0
 16 43  1  0
 17 44  1  0
 18 45  1  0
 19 46  1  0
 22 47  1  1
 25 48  1  0
 26 49  1  0
 27 50  1  0
 27 51  1  0
 28 52  1  0
 28 53  1  0
 29 54  1  0
 29 55  1  0
 30 56  1  0
 30 57  1  0
M  END
>  <smiles>  (7) 
N[C@@H]1CCN(C(=O)CNC(=O)c2ccc3ccccc3n2)[C@H]1C(=O)NC1CCCC1

>  <score_type>  (7) 
oracle

>  <origin>  (7) 
autodockgpu

>  <m_score__min__energy>  (7) 
-9.6600000000000001

>  <m_primary>  (7) 
energy

>  <rmsd>  (7) 
4.470289569510903

>  <m_score__min__rmsd>  (7) 
4.470289569510903

>  <meeko>  (7) 
{"free_energy": -8.53, "intermolecular_energy": -10.62, "internal_energy": -2.63, "cluster_size": 24, "cluster_id": 1, "rank_in_cluster": 15}

>  <energy>  (7) 
-9.2

>  <cluster_rmsd>  (7) 
0.88

>  <cluster>  (7) 
1

$$$$

     RDKit          3D

 57 60  0  0  0  0  0  0  0  0999 V2000
  141.8570   78.3220  221.5050 N   0  0  0  0  0  0  0  0  0  0  0  0
  140.7310   77.4840  221.2080 C   0  0  2  0  0  0  0  0  0  0  0  0
  139.6450   77.5690  222.2790 C   0  0  0  0  0  0  0  0  0  0  0  0
  139.0460   76.1440  222.3490 C   0  0  0  0  0  0  0  0  0  0  0  0
  139.7130   75.4590  221.2120 N   0  0  0  0  0  0  0  0  0  0  0  0
  139.1920   74.5230  220.3130 C   0  0  0  0  0  0  0  0  0  0  0  0
  138.4040   75.0030  219.4050 O   0  0  0  0  0  0  0  0  0  0  0  0
  139.3950   73.0820  220.2370 C   0  0  0  0  0  0  0  0  0  0  0  0
  139.1970   72.2920  221.4020 N   0  0  0  0  0  0  0  0  0  0  0  0
  140.1900   72.3880  222.4450 C   0  0  0  0  0  0  0  0  0  0  0  0
  141.1920   73.1210  222.3600 O   0  0  0  0  0  0  0  0  0  0  0  0
  139.9700   71.5670  223.6450 C   0  0  0  0  0  0  0  0  0  0  0  0
  139.1980   70.4260  223.5690 C   0  0  0  0  0  0  0  0  0  0  0  0
  138.9650   69.6240  224.6820 C   0  0  0  0  0  0  0  0  0  0  0  0
  139.5180   69.9750  225.8830 C   0  0  0  0  0  0  0  0  0  0  0  0
  139.3620   69.2640  227.0510 C   0  0  0  0  0  0  0  0  0  0  0  0
  139.9430   69.6670  228.2330 C   0  0  0  0  0  0  0  0  0  0  0  0
  140.7130   70.8110  228.2900 C   0  0  0  0  0  0  0  0  0  0  0  0
  140.8760   71.5350  227.1140 C   0  0  0  0  0  0  0  0  0  0  0  0
  140.2840   71.1200  225.9240 C   0  0  0  0  0  0  0  0  0  0  0  0
  140.4920   71.8790  224.8340 N   0  0  0  0  0  0  0  0  0  0  0  0
  141.0600   76.0200  221.3040 C   0  0  1  0  0  0  0  0  0  0  0  0
  142.0780   75.5000  220.4420 C   0  0  0  0  0  0  0  0  0  0  0  0
  142.7670   76.2870  219.7330 O   0  0  0  0  0  0  0  0  0  0  0  0
  142.3660   74.1270  220.3430 N   0  0  0  0  0  0  0  0  0  0  0  0
  143.4010   73.6850  219.4520 C   0  0  0  0  0  0  0  0  0  0  0  0
  143.2610   72.2710  218.9800 C   0  0  0  0  0  0  0  0  0  0  0  0
  144.5750   72.1000  218.2140 C   0  0  0  0  0  0  0  0  0  0  0  0
  145.5650   73.0110  218.9300 C   0  0  0  0  0  0  0  0  0  0  0  0
  144.7810   73.6950  220.0370 C   0  0  0  0  0  0  0  0  0  0  0  0
  142.2170   78.0310  222.4460 H   0  0  0  0  0  0  0  0  0  0  0  0
  142.5760   78.2280  220.7580 H   0  0  0  0  0  0  0  0  0  0  0  0
  140.4297   77.8277  220.2075 H   0  0  0  0  0  0  0  0  0  0  0  0
  140.0786   77.8551  223.2486 H   0  0  0  0  0  0  0  0  0  0  0  0
  138.8850   78.3275  222.0402 H   0  0  0  0  0  0  0  0  0  0  0  0
  139.2895   75.6569  223.3047 H   0  0  0  0  0  0  0  0  0  0  0  0
  137.9478   76.1264  222.2885 H   0  0  0  0  0  0  0  0  0  0  0  0
  138.7063   72.7004  219.4689 H   0  0  0  0  0  0  0  0  0  0  0  0
  140.4706   72.9796  220.0308 H   0  0  0  0  0  0  0  0  0  0  0  0
  138.3700   71.6420  221.5480 H   0  0  0  0  0  0  0  0  0  0  0  0
  138.7549   70.1428  222.6028 H   0  0  0  0  0  0  0  0  0  0  0  0
  138.3444   68.7198  224.5973 H   0  0  0  0  0  0  0  0  0  0  0  0
  138.7552   68.3465  227.0402 H   0  0  0  0  0  0  0  0  0  0  0  0
  139.7913   69.0691  229.1438 H   0  0  0  0  0  0  0  0  0  0  0  0
  141.1803   71.1379  229.2306 H   0  0  0  0  0  0  0  0  0  0  0  0
  141.4835   72.4520  227.1240 H   0  0  0  0  0  0  0  0  0  0  0  0
  141.5990   75.7351  222.2196 H   0  0  0  0  0  0  0  0  0  0  0  0
  141.8760   73.3760  220.9040 H   0  0  0  0  0  0  0  0  0  0  0  0
  143.2774   74.4185  218.6416 H   0  0  0  0  0  0  0  0  0  0  0  0
  143.1876   71.5673  219.8223 H   0  0  0  0  0  0  0  0  0  0  0  0
  142.3560   72.0738  218.3866 H   0  0  0  0  0  0  0  0  0  0  0  0
  144.9129   71.0539  218.2531 H   0  0  0  0  0  0  0  0  0  0  0  0
  144.4710   72.3557  217.1492 H   0  0  0  0  0  0  0  0  0  0  0  0
  146.3897   72.4200  219.3549 H   0  0  0  0  0  0  0  0  0  0  0  0
  146.0098   73.7433  218.2401 H   0  0  0  0  0  0  0  0  0  0  0  0
  144.8264   73.1250  220.9767 H   0  0  0  0  0  0  0  0  0  0  0  0
  145.1533   74.6939  220.3082 H   0  0  0  0  0  0  0  0  0  0  0  0
  1  2  1  0
  2  3  1  0
  3  4  1  0
  4  5  1  0
  5  6  1  0
  6  7  2  0
  6  8  1  0
  8  9  1  0
  9 10  1  0
 10 11  2  0
 10 12  1  0
 12 13  2  0
 13 14  1  0
 14 15  2  0
 15 16  1  0
 16 17  2  0
 17 18  1  0
 18 19  2  0
 19 20  1  0
 20 21  2  0
  5 22  1  0
 22 23  1  0
 23 24  2  0
 23 25  1  0
 25 26  1  0
 26 27  1  0
 27 28  1  0
 28 29  1  0
 29 30  1  0
 22  2  1  0
 30 26  1  0
 21 12  1  0
 20 15  1  0
  1 31  1  0
  1 32  1  0
  2 33  1  6
  3 34  1  0
  3 35  1  0
  4 36  1  0
  4 37  1  0
  8 38  1  0
  8 39  1  0
  9 40  1  0
 13 41  1  0
 14 42  1  0
 16 43  1  0
 17 44  1  0
 18 45  1  0
 19 46  1  0
 22 47  1  1
 25 48  1  0
 26 49  1  0
 27 50  1  0
 27 51  1  0
 28 52  1  0
 28 53  1  0
 29 54  1  0
 29 55  1  0
 30 56  1  0
 30 57  1  0
M  END
>  <smiles>  (8) 
N[C@@H]1CCN(C(=O)CNC(=O)c2ccc3ccccc3n2)[C@H]1C(=O)NC1CCCC1

>  <score_type>  (8) 
oracle

>  <origin>  (8) 
autodockgpu

>  <m_score__min__energy>  (8) 
-9.6600000000000001

>  <m_primary>  (8) 
energy

>  <rmsd>  (8) 
4.755748358228074

>  <m_score__min__rmsd>  (8) 
4.755748358228074

>  <meeko>  (8) 
{"free_energy": -7.38, "intermolecular_energy": -9.47, "internal_energy": -3.06, "cluster_size": 24, "cluster_id": 1, "rank_in_cluster": 22}

>  <energy>  (8) 
-9.15

>  <cluster_rmsd>  (8) 
0.96

>  <cluster>  (8) 
1

$$$$

     RDKit          3D

 57 60  0  0  0  0  0  0  0  0999 V2000
  141.6500   78.1870  221.7320 N   0  0  0  0  0  0  0  0  0  0  0  0
  140.5180   77.3660  221.4110 C   0  0  2  0  0  0  0  0  0  0  0  0
  139.3440   77.5980  222.3600 C   0  0  0  0  0  0  0  0  0  0  0  0
  138.6750   76.2110  222.5100 C   0  0  0  0  0  0  0  0  0  0  0  0
  139.4110   75.3900  221.5150 N   0  0  0  0  0  0  0  0  0  0  0  0
  138.9330   74.3870  220.6660 C   0  0  0  0  0  0  0  0  0  0  0  0
  138.9120   74.6880  219.4060 O   0  0  0  0  0  0  0  0  0  0  0  0
  138.4490   73.0490  220.9750 C   0  0  0  0  0  0  0  0  0  0  0  0
  138.6750   72.5130  222.2730 N   0  0  0  0  0  0  0  0  0  0  0  0
  139.8170   71.6470  222.4420 C   0  0  0  0  0  0  0  0  0  0  0  0
  140.5920   71.3590  221.5120 O   0  0  0  0  0  0  0  0  0  0  0  0
  140.0390   71.1030  223.7900 C   0  0  0  0  0  0  0  0  0  0  0  0
  140.6490   71.8770  224.7550 C   0  0  0  0  0  0  0  0  0  0  0  0
  140.8770   71.3980  226.0420 C   0  0  0  0  0  0  0  0  0  0  0  0
  140.4850   70.1250  226.3570 C   0  0  0  0  0  0  0  0  0  0  0  0
  140.6560   69.5410  227.5910 C   0  0  0  0  0  0  0  0  0  0  0  0
  140.2400   68.2530  227.8520 C   0  0  0  0  0  0  0  0  0  0  0  0
  139.6310   67.4940  226.8740 C   0  0  0  0  0  0  0  0  0  0  0  0
  139.4560   68.0780  225.6240 C   0  0  0  0  0  0  0  0  0  0  0  0
  139.8790   69.3800  225.3700 C   0  0  0  0  0  0  0  0  0  0  0  0
  139.6710   69.8660  224.1340 N   0  0  0  0  0  0  0  0  0  0  0  0
  140.7690   75.9080  221.6800 C   0  0  1  0  0  0  0  0  0  0  0  0
  141.8370   75.2660  220.9740 C   0  0  0  0  0  0  0  0  0  0  0  0
  142.5700   75.9370  220.1940 O   0  0  0  0  0  0  0  0  0  0  0  0
  142.1260   73.8970  221.1100 N   0  0  0  0  0  0  0  0  0  0  0  0
  143.2140   73.3270  220.3650 C   0  0  0  0  0  0  0  0  0  0  0  0
  143.3390   71.8400  220.4750 C   0  0  0  0  0  0  0  0  0  0  0  0
  144.6490   71.6120  219.7180 C   0  0  0  0  0  0  0  0  0  0  0  0
  145.4580   72.8840  219.9470 C   0  0  0  0  0  0  0  0  0  0  0  0
  144.5750   73.7990  220.7780 C   0  0  0  0  0  0  0  0  0  0  0  0
  142.5060   77.6020  221.5840 H   0  0  0  0  0  0  0  0  0  0  0  0
  141.6450   79.0440  221.1400 H   0  0  0  0  0  0  0  0  0  0  0  0
  140.3254   77.6185  220.3578 H   0  0  0  0  0  0  0  0  0  0  0  0
  139.7001   77.9636  223.3344 H   0  0  0  0  0  0  0  0  0  0  0  0
  138.6450   78.3562  221.9772 H   0  0  0  0  0  0  0  0  0  0  0  0
  138.8061   75.8144  223.5276 H   0  0  0  0  0  0  0  0  0  0  0  0
  137.5875   76.2286  222.3457 H   0  0  0  0  0  0  0  0  0  0  0  0
  137.3607   73.0557  220.8148 H   0  0  0  0  0  0  0  0  0  0  0  0
  139.0410   72.3973  220.3156 H   0  0  0  0  0  0  0  0  0  0  0  0
  138.0590   72.7110  223.1150 H   0  0  0  0  0  0  0  0  0  0  0  0
  140.9637   72.8999  224.5009 H   0  0  0  0  0  0  0  0  0  0  0  0
  141.3654   72.0337  226.7953 H   0  0  0  0  0  0  0  0  0  0  0  0
  141.1389   70.1189  228.3928 H   0  0  0  0  0  0  0  0  0  0  0  0
  140.3956   67.8247  228.8532 H   0  0  0  0  0  0  0  0  0  0  0  0
  139.2964   66.4656  227.0753 H   0  0  0  0  0  0  0  0  0  0  0  0
  138.9744   67.5006  224.8211 H   0  0  0  0  0  0  0  0  0  0  0  0
  141.2084   75.6978  222.6663 H   0  0  0  0  0  0  0  0  0  0  0  0
  141.6020   73.2390  221.7510 H   0  0  0  0  0  0  0  0  0  0  0  0
  142.9403   73.6563  219.3518 H   0  0  0  0  0  0  0  0  0  0  0  0
  143.4143   71.5155  221.5234 H   0  0  0  0  0  0  0  0  0  0  0  0
  142.4791   71.2779  220.0816 H   0  0  0  0  0  0  0  0  0  0  0  0
  145.1811   70.7369  220.1193 H   0  0  0  0  0  0  0  0  0  0  0  0
  144.4816   71.4133  218.6491 H   0  0  0  0  0  0  0  0  0  0  0  0
  146.3868   72.6536  220.4893 H   0  0  0  0  0  0  0  0  0  0  0  0
  145.7440   73.3559  218.9954 H   0  0  0  0  0  0  0  0  0  0  0  0
  144.7436   73.6552  221.8554 H   0  0  0  0  0  0  0  0  0  0  0  0
  144.7529   74.8726  220.6173 H   0  0  0  0  0  0  0  0  0  0  0  0
  1  2  1  0
  2  3  1  0
  3  4  1  0
  4  5  1  0
  5  6  1  0
  6  7  2  0
  6  8  1  0
  8  9  1  0
  9 10  1  0
 10 11  2  0
 10 12  1  0
 12 13  2  0
 13 14  1  0
 14 15  2  0
 15 16  1  0
 16 17  2  0
 17 18  1  0
 18 19  2  0
 19 20  1  0
 20 21  2  0
  5 22  1  0
 22 23  1  0
 23 24  2  0
 23 25  1  0
 25 26  1  0
 26 27  1  0
 27 28  1  0
 28 29  1  0
 29 30  1  0
 22  2  1  0
 30 26  1  0
 21 12  1  0
 20 15  1  0
  1 31  1  0
  1 32  1  0
  2 33  1  6
  3 34  1  0
  3 35  1  0
  4 36  1  0
  4 37  1  0
  8 38  1  0
  8 39  1  0
  9 40  1  0
 13 41  1  0
 14 42  1  0
 16 43  1  0
 17 44  1  0
 18 45  1  0
 19 46  1  0
 22 47  1  1
 25 48  1  0
 26 49  1  0
 27 50  1  0
 27 51  1  0
 28 52  1  0
 28 53  1  0
 29 54  1  0
 29 55  1  0
 30 56  1  0
 30 57  1  0
M  END
>  <smiles>  (9) 
N[C@@H]1CCN(C(=O)CNC(=O)c2ccc3ccccc3n2)[C@H]1C(=O)NC1CCCC1

>  <score_type>  (9) 
oracle

>  <origin>  (9) 
autodockgpu

>  <m_score__min__energy>  (9) 
-9.6600000000000001

>  <m_primary>  (9) 
energy

>  <rmsd>  (9) 
5.071174751619571

>  <m_score__min__rmsd>  (9) 
5.071174751619571

>  <meeko>  (9) 
{"free_energy": -7.8, "intermolecular_energy": -9.89, "internal_energy": -3.19, "cluster_size": 16, "cluster_id": 2, "rank_in_cluster": 8}

>  <energy>  (9) 
-9.1

>  <cluster_rmsd>  (9) 
1.06

>  <cluster>  (9) 
1

$$$$

     RDKit          3D

 57 60  0  0  0  0  0  0  0  0999 V2000
  143.9670   76.6580  219.5340 N   0  0  0  0  0  0  0  0  0  0  0  0
  143.1020   75.6370  220.0540 C   0  0  2  0  0  0  0  0  0  0  0  0
  143.0470   74.4070  219.1490 C   0  0  0  0  0  0  0  0  0  0  0  0
  141.5940   73.8900  219.2720 C   0  0  0  0  0  0  0  0  0  0  0  0
  141.0360   74.7510  220.3460 N   0  0  0  0  0  0  0  0  0  0  0  0
  140.1510   74.4200  221.3770 C   0  0  0  0  0  0  0  0  0  0  0  0
  140.0600   75.2900  222.3320 O   0  0  0  0  0  0  0  0  0  0  0  0
  139.3110   73.2430  221.5500 C   0  0  0  0  0  0  0  0  0  0  0  0
  139.4440   72.4640  222.7320 N   0  0  0  0  0  0  0  0  0  0  0  0
  139.4020   71.0290  222.5880 C   0  0  0  0  0  0  0  0  0  0  0  0
  139.2550   70.4630  221.4900 O   0  0  0  0  0  0  0  0  0  0  0  0
  139.5430   70.2370  223.8190 C   0  0  0  0  0  0  0  0  0  0  0  0
  139.0830   68.9370  223.8620 C   0  0  0  0  0  0  0  0  0  0  0  0
  139.1980   68.1570  225.0080 C   0  0  0  0  0  0  0  0  0  0  0  0
  139.7830   68.6930  226.1230 C   0  0  0  0  0  0  0  0  0  0  0  0
  139.9530   68.0230  227.3120 C   0  0  0  0  0  0  0  0  0  0  0  0
  140.5500   68.6150  228.4040 C   0  0  0  0  0  0  0  0  0  0  0  0
  141.0040   69.9170  228.3430 C   0  0  0  0  0  0  0  0  0  0  0  0
  140.8350   70.6010  227.1440 C   0  0  0  0  0  0  0  0  0  0  0  0
  140.2310   69.9940  226.0460 C   0  0  0  0  0  0  0  0  0  0  0  0
  140.1070   70.7270  224.9270 N   0  0  0  0  0  0  0  0  0  0  0  0
  141.6530   76.0360  220.0180 C   0  0  1  0  0  0  0  0  0  0  0  0
  141.2550   77.1960  220.7570 C   0  0  0  0  0  0  0  0  0  0  0  0
  140.0300   77.4130  220.9770 O   0  0  0  0  0  0  0  0  0  0  0  0
  142.1750   78.1270  221.2690 N   0  0  0  0  0  0  0  0  0  0  0  0
  141.6950   79.2680  221.9980 C   0  0  0  0  0  0  0  0  0  0  0  0
  142.0850   80.5920  221.4180 C   0  0  0  0  0  0  0  0  0  0  0  0
  141.5630   81.5370  222.5030 C   0  0  0  0  0  0  0  0  0  0  0  0
  141.6670   80.7390  223.7980 C   0  0  0  0  0  0  0  0  0  0  0  0
  142.1960   79.3700  223.4070 C   0  0  0  0  0  0  0  0  0  0  0  0
  144.3150   76.3220  218.6050 H   0  0  0  0  0  0  0  0  0  0  0  0
  143.4490   77.5580  219.4650 H   0  0  0  0  0  0  0  0  0  0  0  0
  143.5105   75.4605  221.0600 H   0  0  0  0  0  0  0  0  0  0  0  0
  143.2738   74.6813  218.1082 H   0  0  0  0  0  0  0  0  0  0  0  0
  143.7848   73.6446  219.4395 H   0  0  0  0  0  0  0  0  0  0  0  0
  141.0434   74.0236  218.3291 H   0  0  0  0  0  0  0  0  0  0  0  0
  141.5286   72.8146  219.4939 H   0  0  0  0  0  0  0  0  0  0  0  0
  138.2663   73.5844  221.5059 H   0  0  0  0  0  0  0  0  0  0  0  0
  139.6433   72.5645  220.7505 H   0  0  0  0  0  0  0  0  0  0  0  0
  139.5700   72.8730  223.7040 H   0  0  0  0  0  0  0  0  0  0  0  0
  138.6127   68.5057  222.9660 H   0  0  0  0  0  0  0  0  0  0  0  0
  138.8236   67.1227  225.0179 H   0  0  0  0  0  0  0  0  0  0  0  0
  139.6020   66.9837  227.3938 H   0  0  0  0  0  0  0  0  0  0  0  0
  140.6662   68.0426  229.3361 H   0  0  0  0  0  0  0  0  0  0  0  0
  141.4817   70.3958  229.2105 H   0  0  0  0  0  0  0  0  0  0  0  0
  141.1849   71.6406  227.0615 H   0  0  0  0  0  0  0  0  0  0  0  0
  141.3210   76.4557  219.0570 H   0  0  0  0  0  0  0  0  0  0  0  0
  143.2250   78.0400  221.1720 H   0  0  0  0  0  0  0  0  0  0  0  0
  140.6119   79.0836  221.9453 H   0  0  0  0  0  0  0  0  0  0  0  0
  143.1749   80.6766  221.2959 H   0  0  0  0  0  0  0  0  0  0  0  0
  141.6871   80.7862  220.4110 H   0  0  0  0  0  0  0  0  0  0  0  0
  142.1818   82.4448  222.5566 H   0  0  0  0  0  0  0  0  0  0  0  0
  140.5342   81.8710  222.3027 H   0  0  0  0  0  0  0  0  0  0  0  0
  142.3606   81.2315  224.4954 H   0  0  0  0  0  0  0  0  0  0  0  0
  140.6930   80.6644  224.3037 H   0  0  0  0  0  0  0  0  0  0  0  0
  143.2945   79.3330  223.4498 H   0  0  0  0  0  0  0  0  0  0  0  0
  141.8722   78.5511  224.0662 H   0  0  0  0  0  0  0  0  0  0  0  0
  1  2  1  0
  2  3  1  0
  3  4  1  0
  4  5  1  0
  5  6  1  0
  6  7  2  0
  6  8  1  0
  8  9  1  0
  9 10  1  0
 10 11  2  0
 10 12  1  0
 12 13  2  0
 13 14  1  0
 14 15  2  0
 15 16  1  0
 16 17  2  0
 17 18  1  0
 18 19  2  0
 19 20  1  0
 20 21  2  0
  5 22  1  0
 22 23  1  0
 23 24  2  0
 23 25  1  0
 25 26  1  0
 26 27  1  0
 27 28  1  0
 28 29  1  0
 29 30  1  0
 22  2  1  0
 30 26  1  0
 21 12  1  0
 20 15  1  0
  1 31  1  0
  1 32  1  0
  2 33  1  1
  3 34  1  0
  3 35  1  0
  4 36  1  0
  4 37  1  0
  8 38  1  0
  8 39  1  0
  9 40  1  0
 13 41  1  0
 14 42  1  0
 16 43  1  0
 17 44  1  0
 18 45  1  0
 19 46  1  0
 22 47  1  6
 25 48  1  0
 26 49  1  0
 27 50  1  0
 27 51  1  0
 28 52  1  0
 28 53  1  0
 29 54  1  0
 29 55  1  0
 30 56  1  0
 30 57  1  0
M  END
>  <smiles>  (10) 
N[C@@H]1CCN(C(=O)CNC(=O)c2ccc3ccccc3n2)[C@H]1C(=O)NC1CCCC1

>  <score_type>  (10) 
oracle

>  <origin>  (10) 
autodockgpu

>  <m_score__min__energy>  (10) 
-9.6600000000000001

>  <m_primary>  (10) 
energy

>  <rmsd>  (10) 
2.041216910009709

>  <m_score__min__rmsd>  (10) 
2.041216910009709

>  <meeko>  (10) 
{"free_energy": -9.26, "intermolecular_energy": -11.35, "internal_energy": -1.99, "cluster_size": 24, "cluster_id": 1, "rank_in_cluster": 4}

>  <energy>  (10) 
-9.0

>  <cluster_rmsd>  (10) 
0.83

>  <cluster>  (10) 
1

$$$$

     RDKit          3D

 57 60  0  0  0  0  0  0  0  0999 V2000
  142.6710   77.4070  217.2040 N   0  0  0  0  0  0  0  0  0  0  0  0
  141.7220   77.1280  218.2440 C   0  0  2  0  0  0  0  0  0  0  0  0
  140.9200   78.3650  218.6450 C   0  0  0  0  0  0  0  0  0  0  0  0
  140.6860   78.2090  220.1670 C   0  0  0  0  0  0  0  0  0  0  0  0
  141.2110   76.8450  220.4350 N   0  0  0  0  0  0  0  0  0  0  0  0
  140.7220   75.8610  221.3000 C   0  0  0  0  0  0  0  0  0  0  0  0
  141.4230   75.6620  222.3700 O   0  0  0  0  0  0  0  0  0  0  0  0
  139.5400   75.0180  221.1860 C   0  0  0  0  0  0  0  0  0  0  0  0
  139.3440   73.9700  222.1280 N   0  0  0  0  0  0  0  0  0  0  0  0
  140.4050   73.0020  222.2720 C   0  0  0  0  0  0  0  0  0  0  0  0
  141.4600   73.0520  221.6150 O   0  0  0  0  0  0  0  0  0  0  0  0
  140.1880   71.9270  223.2510 C   0  0  0  0  0  0  0  0  0  0  0  0
  139.4430   70.8180  222.9070 C   0  0  0  0  0  0  0  0  0  0  0  0
  139.2150   69.7800  223.8050 C   0  0  0  0  0  0  0  0  0  0  0  0
  139.7460   69.8610  225.0630 C   0  0  0  0  0  0  0  0  0  0  0  0
  139.5910   68.9010  226.0370 C   0  0  0  0  0  0  0  0  0  0  0  0
  140.1490   69.0370  227.2900 C   0  0  0  0  0  0  0  0  0  0  0  0
  140.8930   70.1520  227.6170 C   0  0  0  0  0  0  0  0  0  0  0  0
  141.0530   71.1270  226.6380 C   0  0  0  0  0  0  0  0  0  0  0  0
  140.4850   70.9810  225.3750 C   0  0  0  0  0  0  0  0  0  0  0  0
  140.6900   71.9710  224.4880 N   0  0  0  0  0  0  0  0  0  0  0  0
  142.3830   76.8250  219.5600 C   0  0  1  0  0  0  0  0  0  0  0  0
  143.2680   75.7000  219.6270 C   0  0  0  0  0  0  0  0  0  0  0  0
  144.0740   75.4760  218.6810 O   0  0  0  0  0  0  0  0  0  0  0  0
  143.2920   74.8140  220.7180 N   0  0  0  0  0  0  0  0  0  0  0  0
  144.2070   73.7070  220.7080 C   0  0  0  0  0  0  0  0  0  0  0  0
  145.6550   74.0890  220.7090 C   0  0  0  0  0  0  0  0  0  0  0  0
  146.3070   72.7150  220.5340 C   0  0  0  0  0  0  0  0  0  0  0  0
  145.3010   71.9060  219.7240 C   0  0  0  0  0  0  0  0  0  0  0  0
  144.1070   72.8180  219.5050 C   0  0  0  0  0  0  0  0  0  0  0  0
  143.0980   78.3390  217.4200 H   0  0  0  0  0  0  0  0  0  0  0  0
  143.3780   76.6450  217.1560 H   0  0  0  0  0  0  0  0  0  0  0  0
  141.1303   76.3035  217.8195 H   0  0  0  0  0  0  0  0  0  0  0  0
  141.4897   79.2817  218.4326 H   0  0  0  0  0  0  0  0  0  0  0  0
  139.9760   78.4466  218.0862 H   0  0  0  0  0  0  0  0  0  0  0  0
  141.2438   78.9683  220.7348 H   0  0  0  0  0  0  0  0  0  0  0  0
  139.6353   78.3408  220.4649 H   0  0  0  0  0  0  0  0  0  0  0  0
  138.6645   75.6804  221.2547 H   0  0  0  0  0  0  0  0  0  0  0  0
  139.6850   74.4899  220.2320 H   0  0  0  0  0  0  0  0  0  0  0  0
  138.4720   73.8590  222.7240 H   0  0  0  0  0  0  0  0  0  0  0  0
  139.0175   70.7526  221.8948 H   0  0  0  0  0  0  0  0  0  0  0  0
  138.6162   68.9065  223.5075 H   0  0  0  0  0  0  0  0  0  0  0  0
  139.0046   67.9987  225.8088 H   0  0  0  0  0  0  0  0  0  0  0  0
  139.9991   68.2459  228.0394 H   0  0  0  0  0  0  0  0  0  0  0  0
  141.3427   70.2656  228.6144 H   0  0  0  0  0  0  0  0  0  0  0  0
  141.6388   72.0298  226.8656 H   0  0  0  0  0  0  0  0  0  0  0  0
  143.1662   77.5411  219.8494 H   0  0  0  0  0  0  0  0  0  0  0  0
  142.6850   74.9120  221.5780 H   0  0  0  0  0  0  0  0  0  0  0  0
  143.8999   73.2018  221.6356 H   0  0  0  0  0  0  0  0  0  0  0  0
  145.8977   74.7628  219.8741 H   0  0  0  0  0  0  0  0  0  0  0  0
  145.9825   74.6410  221.6023 H   0  0  0  0  0  0  0  0  0  0  0  0
  147.2593   72.8045  219.9907 H   0  0  0  0  0  0  0  0  0  0  0  0
  146.5403   72.2406  221.4986 H   0  0  0  0  0  0  0  0  0  0  0  0
  145.7376   71.6101  218.7587 H   0  0  0  0  0  0  0  0  0  0  0  0
  145.0115   70.9834  220.2484 H   0  0  0  0  0  0  0  0  0  0  0  0
  144.2008   73.3901  218.5702 H   0  0  0  0  0  0  0  0  0  0  0  0
  143.1455   72.2930  219.4058 H   0  0  0  0  0  0  0  0  0  0  0  0
  1  2  1  0
  2  3  1  0
  3  4  1  0
  4  5  1  0
  5  6  1  0
  6  7  2  0
  6  8  1  0
  8  9  1  0
  9 10  1  0
 10 11  2  0
 10 12  1  0
 12 13  2  0
 13 14  1  0
 14 15  2  0
 15 16  1  0
 16 17  2  0
 17 18  1  0
 18 19  2  0
 19 20  1  0
 20 21  2  0
  5 22  1  0
 22 23  1  0
 23 24  2  0
 23 25  1  0
 25 26  1  0
 26 27  1  0
 27 28  1  0
 28 29  1  0
 29 30  1  0
 22  2  1  0
 30 26  1  0
 21 12  1  0
 20 15  1  0
  1 31  1  0
  1 32  1  0
  2 33  1  6
  3 34  1  0
  3 35  1  0
  4 36  1  0
  4 37  1  0
  8 38  1  0
  8 39  1  0
  9 40  1  0
 13 41  1  0
 14 42  1  0
 16 43  1  0
 17 44  1  0
 18 45  1  0
 19 46  1  0
 22 47  1  1
 25 48  1  0
 26 49  1  0
 27 50  1  0
 27 51  1  0
 28 52  1  0
 28 53  1  0
 29 54  1  0
 29 55  1  0
 30 56  1  0
 30 57  1  0
M  END
>  <smiles>  (11) 
N[C@@H]1CCN(C(=O)CNC(=O)c2ccc3ccccc3n2)[C@H]1C(=O)NC1CCCC1

>  <score_type>  (11) 
oracle

>  <origin>  (11) 
autodockgpu

>  <m_score__min__energy>  (11) 
-9.6600000000000001

>  <m_primary>  (11) 
energy

>  <rmsd>  (11) 
4.7782080741956054

>  <m_score__min__rmsd>  (11) 
4.7782080741956054

>  <meeko>  (11) 
{"free_energy": -7.77, "intermolecular_energy": -9.86, "internal_energy": -3.28, "cluster_size": 16, "cluster_id": 2, "rank_in_cluster": 10}

>  <energy>  (11) 
-8.94

>  <cluster_rmsd>  (11) 
1.26

>  <cluster>  (11) 
1

$$$$

     RDKit          3D

 57 60  0  0  0  0  0  0  0  0999 V2000
  146.3130   71.1650  219.3950 N   0  0  0  0  0  0  0  0  0  0  0  0
  145.2590   72.1380  219.4020 C   0  0  2  0  0  0  0  0  0  0  0  0
  145.6300   73.3890  220.1960 C   0  0  0  0  0  0  0  0  0  0  0  0
  144.3060   73.8490  220.8520 C   0  0  0  0  0  0  0  0  0  0  0  0
  143.3080   72.9380  220.2340 N   0  0  0  0  0  0  0  0  0  0  0  0
  142.0000   73.2080  219.8190 C   0  0  0  0  0  0  0  0  0  0  0  0
  141.8110   73.2050  218.5380 O   0  0  0  0  0  0  0  0  0  0  0  0
  140.8070   73.4950  220.6050 C   0  0  0  0  0  0  0  0  0  0  0  0
  140.7000   72.9650  221.9210 N   0  0  0  0  0  0  0  0  0  0  0  0
  140.2410   71.6030  222.0510 C   0  0  0  0  0  0  0  0  0  0  0  0
  139.9410   70.8940  221.0740 O   0  0  0  0  0  0  0  0  0  0  0  0
  140.1380   71.0690  223.4170 C   0  0  0  0  0  0  0  0  0  0  0  0
  139.4980   69.8680  223.6430 C   0  0  0  0  0  0  0  0  0  0  0  0
  139.3800   69.3310  224.9210 C   0  0  0  0  0  0  0  0  0  0  0  0
  139.9130   70.0110  225.9810 C   0  0  0  0  0  0  0  0  0  0  0  0
  139.8610   69.5820  227.2880 C   0  0  0  0  0  0  0  0  0  0  0  0
  140.4170   70.3110  228.3170 C   0  0  0  0  0  0  0  0  0  0  0  0
  141.0540   71.5100  228.0720 C   0  0  0  0  0  0  0  0  0  0  0  0
  141.1110   71.9500  226.7540 C   0  0  0  0  0  0  0  0  0  0  0  0
  140.5470   71.2070  225.7210 C   0  0  0  0  0  0  0  0  0  0  0  0
  140.6460   71.7050  224.4760 N   0  0  0  0  0  0  0  0  0  0  0  0
  144.0640   71.6870  220.1950 C   0  0  1  0  0  0  0  0  0  0  0  0
  143.3900   70.4930  219.7790 C   0  0  0  0  0  0  0  0  0  0  0  0
  144.0270   69.4050  219.7030 O   0  0  0  0  0  0  0  0  0  0  0  0
  142.0240   70.4640  219.4490 N   0  0  0  0  0  0  0  0  0  0  0  0
  141.4230   69.2260  219.0370 C   0  0  0  0  0  0  0  0  0  0  0  0
  141.4540   68.1410  220.0670 C   0  0  0  0  0  0  0  0  0  0  0  0
  140.8990   66.9680  219.2550 C   0  0  0  0  0  0  0  0  0  0  0  0
  141.3350   67.2470  217.8210 C   0  0  0  0  0  0  0  0  0  0  0  0
  142.0750   68.5720  217.8570 C   0  0  0  0  0  0  0  0  0  0  0  0
  146.7210   71.1450  220.3600 H   0  0  0  0  0  0  0  0  0  0  0  0
  145.9380   70.2390  219.1010 H   0  0  0  0  0  0  0  0  0  0  0  0
  145.0711   72.3017  218.3306 H   0  0  0  0  0  0  0  0  0  0  0  0
  146.3809   73.1518  220.9640 H   0  0  0  0  0  0  0  0  0  0  0  0
  146.0702   74.1697  219.5583 H   0  0  0  0  0  0  0  0  0  0  0  0
  144.3381   73.7215  221.9441 H   0  0  0  0  0  0  0  0  0  0  0  0
  144.0848   74.9147  220.6931 H   0  0  0  0  0  0  0  0  0  0  0  0
  140.7348   74.5892  220.6921 H   0  0  0  0  0  0  0  0  0  0  0  0
  140.0012   72.9895  220.0525 H   0  0  0  0  0  0  0  0  0  0  0  0
  140.9360   73.5070  222.8030 H   0  0  0  0  0  0  0  0  0  0  0  0
  139.0698   69.3206  222.7904 H   0  0  0  0  0  0  0  0  0  0  0  0
  138.8646   68.3718  225.0768 H   0  0  0  0  0  0  0  0  0  0  0  0
  139.3610   68.6295  227.5178 H   0  0  0  0  0  0  0  0  0  0  0  0
  140.3520   69.9318  229.3475 H   0  0  0  0  0  0  0  0  0  0  0  0
  141.5002   72.0962  228.8889 H   0  0  0  0  0  0  0  0  0  0  0  0
  141.6108   72.9024  226.5237 H   0  0  0  0  0  0  0  0  0  0  0  0
  144.3059   71.2822  221.1888 H   0  0  0  0  0  0  0  0  0  0  0  0
  141.3820   71.3030  219.4990 H   0  0  0  0  0  0  0  0  0  0  0  0
  140.4033   69.5756  218.8181 H   0  0  0  0  0  0  0  0  0  0  0  0
  142.4777   67.9435  220.4179 H   0  0  0  0  0  0  0  0  0  0  0  0
  140.8945   68.3666  220.9868 H   0  0  0  0  0  0  0  0  0  0  0  0
  141.3212   66.0164  219.6103 H   0  0  0  0  0  0  0  0  0  0  0  0
  139.8065   66.8789  219.3472 H   0  0  0  0  0  0  0  0  0  0  0  0
  142.0000   66.4478  217.4617 H   0  0  0  0  0  0  0  0  0  0  0  0
  140.4729   67.2863  217.1389 H   0  0  0  0  0  0  0  0  0  0  0  0
  143.1537   68.4290  218.0183 H   0  0  0  0  0  0  0  0  0  0  0  0
  142.0156   69.1522  216.9244 H   0  0  0  0  0  0  0  0  0  0  0  0
  1  2  1  0
  2  3  1  0
  3  4  1  0
  4  5  1  0
  5  6  1  0
  6  7  2  0
  6  8  1  0
  8  9  1  0
  9 10  1  0
 10 11  2  0
 10 12  1  0
 12 13  2  0
 13 14  1  0
 14 15  2  0
 15 16  1  0
 16 17  2  0
 17 18  1  0
 18 19  2  0
 19 20  1  0
 20 21  2  0
  5 22  1  0
 22 23  1  0
 23 24  2  0
 23 25  1  0
 25 26  1  0
 26 27  1  0
 27 28  1  0
 28 29  1  0
 29 30  1  0
 22  2  1  0
 30 26  1  0
 21 12  1  0
 20 15  1  0
  1 31  1  0
  1 32  1  0
  2 33  1  6
  3 34  1  0
  3 35  1  0
  4 36  1  0
  4 37  1  0
  8 38  1  0
  8 39  1  0
  9 40  1  0
 13 41  1  0
 14 42  1  0
 16 43  1  0
 17 44  1  0
 18 45  1  0
 19 46  1  0
 22 47  1  1
 25 48  1  0
 26 49  1  0
 27 50  1  0
 27 51  1  0
 28 52  1  0
 28 53  1  0
 29 54  1  0
 29 55  1  0
 30 56  1  0
 30 57  1  0
M  END
>  <smiles>  (12) 
N[C@@H]1CCN(C(=O)CNC(=O)c2ccc3ccccc3n2)[C@H]1C(=O)NC1CCCC1

>  <score_type>  (12) 
oracle

>  <origin>  (12) 
autodockgpu

>  <m_score__min__energy>  (12) 
-9.6600000000000001

>  <m_primary>  (12) 
energy

>  <rmsd>  (12) 
7.281147839390287

>  <m_score__min__rmsd>  (12) 
7.281147839390287

>  <meeko>  (12) 
{"free_energy": -6.42, "intermolecular_energy": -8.51, "internal_energy": -3.81, "cluster_size": 1, "cluster_id": 6, "rank_in_cluster": 1}

>  <energy>  (12) 
-8.89

>  <cluster_rmsd>  (12) 
0.8

>  <cluster>  (12) 
1

$$$$

     RDKit          3D

 57 60  0  0  0  0  0  0  0  0999 V2000
  143.6970   76.7500  218.4260 N   0  0  0  0  0  0  0  0  0  0  0  0
  143.0460   75.7080  219.1680 C   0  0  2  0  0  0  0  0  0  0  0  0
  142.9610   74.4020  218.3820 C   0  0  0  0  0  0  0  0  0  0  0  0
  141.6130   73.7710  218.8060 C   0  0  0  0  0  0  0  0  0  0  0  0
  141.1650   74.6740  219.8980 N   0  0  0  0  0  0  0  0  0  0  0  0
  140.5130   74.3620  221.0940 C   0  0  0  0  0  0  0  0  0  0  0  0
  141.0040   74.9170  222.1560 O   0  0  0  0  0  0  0  0  0  0  0  0
  139.3620   73.5030  221.3380 C   0  0  0  0  0  0  0  0  0  0  0  0
  139.3240   72.7150  222.5220 N   0  0  0  0  0  0  0  0  0  0  0  0
  139.9520   71.4160  222.4740 C   0  0  0  0  0  0  0  0  0  0  0  0
  140.5110   70.9720  221.4550 O   0  0  0  0  0  0  0  0  0  0  0  0
  139.9060   70.6150  223.7060 C   0  0  0  0  0  0  0  0  0  0  0  0
  139.3010   69.3760  223.7020 C   0  0  0  0  0  0  0  0  0  0  0  0
  139.2370   68.5880  224.8470 C   0  0  0  0  0  0  0  0  0  0  0  0
  139.7890   69.0560  226.0080 C   0  0  0  0  0  0  0  0  0  0  0  0
  139.7900   68.3720  227.2020 C   0  0  0  0  0  0  0  0  0  0  0  0
  140.3620   68.8930  228.3420 C   0  0  0  0  0  0  0  0  0  0  0  0
  140.9640   70.1350  228.3270 C   0  0  0  0  0  0  0  0  0  0  0  0
  140.9670   70.8330  227.1230 C   0  0  0  0  0  0  0  0  0  0  0  0
  140.3860   70.2980  225.9770 C   0  0  0  0  0  0  0  0  0  0  0  0
  140.4340   71.0390  224.8570 N   0  0  0  0  0  0  0  0  0  0  0  0
  141.5800   75.9730  219.3680 C   0  0  1  0  0  0  0  0  0  0  0  0
  141.1990   77.1560  220.0810 C   0  0  0  0  0  0  0  0  0  0  0  0
  140.4830   78.0290  219.5150 O   0  0  0  0  0  0  0  0  0  0  0  0
  141.5840   77.4020  221.4110 N   0  0  0  0  0  0  0  0  0  0  0  0
  141.1640   78.6150  222.0550 C   0  0  0  0  0  0  0  0  0  0  0  0
  141.8200   79.8580  221.5400 C   0  0  0  0  0  0  0  0  0  0  0  0
  141.2760   80.8910  222.5300 C   0  0  0  0  0  0  0  0  0  0  0  0
  141.0690   80.1170  223.8270 C   0  0  0  0  0  0  0  0  0  0  0  0
  141.4530   78.6790  223.5240 C   0  0  0  0  0  0  0  0  0  0  0  0
  144.0110   77.4710  219.1190 H   0  0  0  0  0  0  0  0  0  0  0  0
  144.4880   76.3530  217.8780 H   0  0  0  0  0  0  0  0  0  0  0  0
  143.6400   75.6599  220.0926 H   0  0  0  0  0  0  0  0  0  0  0  0
  142.9727   74.5997  217.3000 H   0  0  0  0  0  0  0  0  0  0  0  0
  143.8130   73.7376  218.5883 H   0  0  0  0  0  0  0  0  0  0  0  0
  140.8954   73.7688  217.9723 H   0  0  0  0  0  0  0  0  0  0  0  0
  141.6990   72.7187  219.1145 H   0  0  0  0  0  0  0  0  0  0  0  0
  138.4741   74.1521  221.3550 H   0  0  0  0  0  0  0  0  0  0  0  0
  139.4140   72.7590  220.5295 H   0  0  0  0  0  0  0  0  0  0  0  0
  138.8650   73.0230  223.4280 H   0  0  0  0  0  0  0  0  0  0  0  0
  138.8569   69.0003  222.7684 H   0  0  0  0  0  0  0  0  0  0  0  0
  138.7493   67.6024  224.8191 H   0  0  0  0  0  0  0  0  0  0  0  0
  139.3196   67.3787  227.2477 H   0  0  0  0  0  0  0  0  0  0  0  0
  140.3386   68.3119  229.2757 H   0  0  0  0  0  0  0  0  0  0  0  0
  141.4241   70.5572  229.2326 H   0  0  0  0  0  0  0  0  0  0  0  0
  141.4374   71.8262  227.0762 H   0  0  0  0  0  0  0  0  0  0  0  0
  141.0451   76.2727  218.4548 H   0  0  0  0  0  0  0  0  0  0  0  0
  142.1600   76.7350  221.9960 H   0  0  0  0  0  0  0  0  0  0  0  0
  140.0866   78.5818  221.8359 H   0  0  0  0  0  0  0  0  0  0  0  0
  142.9167   79.7880  221.5877 H   0  0  0  0  0  0  0  0  0  0  0  0
  141.6122   80.0819  220.4833 H   0  0  0  0  0  0  0  0  0  0  0  0
  142.0002   81.7059  222.6766 H   0  0  0  0  0  0  0  0  0  0  0  0
  140.3466   81.3586  222.1730 H   0  0  0  0  0  0  0  0  0  0  0  0
  141.7113   80.5245  224.6216 H   0  0  0  0  0  0  0  0  0  0  0  0
  140.0290   80.1903  224.1776 H   0  0  0  0  0  0  0  0  0  0  0  0
  142.5158   78.4905  223.7361 H   0  0  0  0  0  0  0  0  0  0  0  0
  140.9199   77.9286  224.1262 H   0  0  0  0  0  0  0  0  0  0  0  0
  1  2  1  0
  2  3  1  0
  3  4  1  0
  4  5  1  0
  5  6  1  0
  6  7  2  0
  6  8  1  0
  8  9  1  0
  9 10  1  0
 10 11  2  0
 10 12  1  0
 12 13  2  0
 13 14  1  0
 14 15  2  0
 15 16  1  0
 16 17  2  0
 17 18  1  0
 18 19  2  0
 19 20  1  0
 20 21  2  0
  5 22  1  0
 22 23  1  0
 23 24  2  0
 23 25  1  0
 25 26  1  0
 26 27  1  0
 27 28  1  0
 28 29  1  0
 29 30  1  0
 22  2  1  0
 30 26  1  0
 21 12  1  0
 20 15  1  0
  1 31  1  0
  1 32  1  0
  2 33  1  1
  3 34  1  0
  3 35  1  0
  4 36  1  0
  4 37  1  0
  8 38  1  0
  8 39  1  0
  9 40  1  0
 13 41  1  0
 14 42  1  0
 16 43  1  0
 17 44  1  0
 18 45  1  0
 19 46  1  0
 22 47  1  6
 25 48  1  0
 26 49  1  0
 27 50  1  0
 27 51  1  0
 28 52  1  0
 28 53  1  0
 29 54  1  0
 29 55  1  0
 30 56  1  0
 30 57  1  0
M  END
>  <smiles>  (13) 
N[C@@H]1CCN(C(=O)CNC(=O)c2ccc3ccccc3n2)[C@H]1C(=O)NC1CCCC1

>  <score_type>  (13) 
oracle

>  <origin>  (13) 
autodockgpu

>  <m_score__min__energy>  (13) 
-9.6600000000000001

>  <m_primary>  (13) 
energy

>  <rmsd>  (13) 
2.068215497323962

>  <m_score__min__rmsd>  (13) 
2.068215497323962

>  <meeko>  (13) 
{"free_energy": -9.25, "intermolecular_energy": -11.34, "internal_energy": -2.17, "cluster_size": 24, "cluster_id": 1, "rank_in_cluster": 5}

>  <energy>  (13) 
-8.86

>  <cluster_rmsd>  (13) 
1.41

>  <cluster>  (13) 
1

$$$$

     RDKit          3D

 57 60  0  0  0  0  0  0  0  0999 V2000
  143.1930   77.9420  218.3080 N   0  0  0  0  0  0  0  0  0  0  0  0
  142.6780   76.7280  218.8730 C   0  0  2  0  0  0  0  0  0  0  0  0
  142.4250   75.6560  217.8140 C   0  0  0  0  0  0  0  0  0  0  0  0
  141.1720   74.8970  218.3100 C   0  0  0  0  0  0  0  0  0  0  0  0
  140.9520   75.4840  219.6570 N   0  0  0  0  0  0  0  0  0  0  0  0
  140.5330   74.8620  220.8370 C   0  0  0  0  0  0  0  0  0  0  0  0
  141.3400   74.9780  221.8430 O   0  0  0  0  0  0  0  0  0  0  0  0
  139.3250   74.0970  221.1160 C   0  0  0  0  0  0  0  0  0  0  0  0
  139.2550   73.3220  222.3060 N   0  0  0  0  0  0  0  0  0  0  0  0
  140.2110   72.2510  222.4570 C   0  0  0  0  0  0  0  0  0  0  0  0
  141.0740   71.9890  221.5990 O   0  0  0  0  0  0  0  0  0  0  0  0
  140.1270   71.4610  223.6940 C   0  0  0  0  0  0  0  0  0  0  0  0
  139.5160   70.2240  223.6830 C   0  0  0  0  0  0  0  0  0  0  0  0
  139.4170   69.4470  224.8330 C   0  0  0  0  0  0  0  0  0  0  0  0
  139.9400   69.9220  226.0050 C   0  0  0  0  0  0  0  0  0  0  0  0
  139.9040   69.2480  227.2040 C   0  0  0  0  0  0  0  0  0  0  0  0
  140.4480   69.7760  228.3550 C   0  0  0  0  0  0  0  0  0  0  0  0
  141.0560   71.0150  228.3460 C   0  0  0  0  0  0  0  0  0  0  0  0
  141.0960   71.7030  227.1370 C   0  0  0  0  0  0  0  0  0  0  0  0
  140.5440   71.1600  225.9800 C   0  0  0  0  0  0  0  0  0  0  0  0
  140.6250   71.8920  224.8560 N   0  0  0  0  0  0  0  0  0  0  0  0
  141.2800   76.8860  219.4030 C   0  0  1  0  0  0  0  0  0  0  0  0
  141.0590   77.8410  220.4470 C   0  0  0  0  0  0  0  0  0  0  0  0
  140.5010   78.9440  220.1850 O   0  0  0  0  0  0  0  0  0  0  0  0
  141.4330   77.6100  221.7830 N   0  0  0  0  0  0  0  0  0  0  0  0
  141.1810   78.6200  222.7720 C   0  0  0  0  0  0  0  0  0  0  0  0
  139.7600   79.0870  222.8440 C   0  0  0  0  0  0  0  0  0  0  0  0
  139.8920   80.2330  223.8490 C   0  0  0  0  0  0  0  0  0  0  0  0
  141.3020   80.7740  223.6410 C   0  0  0  0  0  0  0  0  0  0  0  0
  141.9330   79.9010  222.5700 C   0  0  0  0  0  0  0  0  0  0  0  0
  142.4330   78.6600  218.3780 H   0  0  0  0  0  0  0  0  0  0  0  0
  144.0590   78.2270  218.8100 H   0  0  0  0  0  0  0  0  0  0  0  0
  143.4354   76.4712  219.6282 H   0  0  0  0  0  0  0  0  0  0  0  0
  142.2355   76.1173  216.8335 H   0  0  0  0  0  0  0  0  0  0  0  0
  143.2899   74.9887  217.6844 H   0  0  0  0  0  0  0  0  0  0  0  0
  140.3101   75.0796  217.6513 H   0  0  0  0  0  0  0  0  0  0  0  0
  141.2982   73.8043  218.3234 H   0  0  0  0  0  0  0  0  0  0  0  0
  138.4911   74.8136  221.1495 H   0  0  0  0  0  0  0  0  0  0  0  0
  139.2989   73.3462  220.3125 H   0  0  0  0  0  0  0  0  0  0  0  0
  138.5480   73.4830  223.0820 H   0  0  0  0  0  0  0  0  0  0  0  0
  139.0963   69.8422  222.7407 H   0  0  0  0  0  0  0  0  0  0  0  0
  138.9248   68.4638  224.8005 H   0  0  0  0  0  0  0  0  0  0  0  0
  139.4266   68.2578  227.2451 H   0  0  0  0  0  0  0  0  0  0  0  0
  140.3970   69.2028  229.2925 H   0  0  0  0  0  0  0  0  0  0  0  0
  141.4927   71.4428  229.2605 H   0  0  0  0  0  0  0  0  0  0  0  0
  141.5723   72.6936  227.0948 H   0  0  0  0  0  0  0  0  0  0  0  0
  140.5864   77.3857  218.7107 H   0  0  0  0  0  0  0  0  0  0  0  0
  141.8830   76.7180  222.1280 H   0  0  0  0  0  0  0  0  0  0  0  0
  141.4980   78.0800  223.6764 H   0  0  0  0  0  0  0  0  0  0  0  0
  139.3998   79.4430  221.8675 H   0  0  0  0  0  0  0  0  0  0  0  0
  139.0364   78.3091  223.1291 H   0  0  0  0  0  0  0  0  0  0  0  0
  139.1438   81.0136  223.6468 H   0  0  0  0  0  0  0  0  0  0  0  0
  139.7242   79.8990  224.8835 H   0  0  0  0  0  0  0  0  0  0  0  0
  141.2639   81.8213  223.3067 H   0  0  0  0  0  0  0  0  0  0  0  0
  141.8839   80.7500  224.5742 H   0  0  0  0  0  0  0  0  0  0  0  0
  141.7682   80.3126  221.5633 H   0  0  0  0  0  0  0  0  0  0  0  0
  143.0260   79.8043  222.6472 H   0  0  0  0  0  0  0  0  0  0  0  0
  1  2  1  0
  2  3  1  0
  3  4  1  0
  4  5  1  0
  5  6  1  0
  6  7  2  0
  6  8  1  0
  8  9  1  0
  9 10  1  0
 10 11  2  0
 10 12  1  0
 12 13  2  0
 13 14  1  0
 14 15  2  0
 15 16  1  0
 16 17  2  0
 17 18  1  0
 18 19  2  0
 19 20  1  0
 20 21  2  0
  5 22  1  0
 22 23  1  0
 23 24  2  0
 23 25  1  0
 25 26  1  0
 26 27  1  0
 27 28  1  0
 28 29  1  0
 29 30  1  0
 22  2  1  0
 30 26  1  0
 21 12  1  0
 20 15  1  0
  1 31  1  0
  1 32  1  0
  2 33  1  1
  3 34  1  0
  3 35  1  0
  4 36  1  0
  4 37  1  0
  8 38  1  0
  8 39  1  0
  9 40  1  0
 13 41  1  0
 14 42  1  0
 16 43  1  0
 17 44  1  0
 18 45  1  0
 19 46  1  0
 22 47  1  6
 25 48  1  0
 26 49  1  0
 27 50  1  0
 27 51  1  0
 28 52  1  0
 28 53  1  0
 29 54  1  0
 29 55  1  0
 30 56  1  0
 30 57  1  0
M  END
>  <smiles>  (14) 
N[C@@H]1CCN(C(=O)CNC(=O)c2ccc3ccccc3n2)[C@H]1C(=O)NC1CCCC1

>  <score_type>  (14) 
oracle

>  <origin>  (14) 
autodockgpu

>  <m_score__min__energy>  (14) 
-9.6600000000000001

>  <m_primary>  (14) 
energy

>  <rmsd>  (14) 
1.9399447576294007

>  <m_score__min__rmsd>  (14) 
1.9399447576294007

>  <meeko>  (14) 
{"free_energy": -8.94, "intermolecular_energy": -11.03, "internal_energy": -2.21, "cluster_size": 24, "cluster_id": 1, "rank_in_cluster": 11}

>  <energy>  (14) 
-8.7

>  <cluster_rmsd>  (14) 
1.08

>  <cluster>  (14) 
1

$$$$

     RDKit          3D

 57 60  0  0  0  0  0  0  0  0999 V2000
  143.2920   77.1960  218.5460 N   0  0  0  0  0  0  0  0  0  0  0  0
  142.7160   76.0360  219.1640 C   0  0  2  0  0  0  0  0  0  0  0  0
  142.5010   74.8960  218.1700 C   0  0  0  0  0  0  0  0  0  0  0  0
  141.2020   74.1990  218.6420 C   0  0  0  0  0  0  0  0  0  0  0  0
  140.9180   74.8860  219.9290 N   0  0  0  0  0  0  0  0  0  0  0  0
  140.4160   74.3590  221.1220 C   0  0  0  0  0  0  0  0  0  0  0  0
  141.0570   74.7000  222.1940 O   0  0  0  0  0  0  0  0  0  0  0  0
  139.2780   73.4790  221.3530 C   0  0  0  0  0  0  0  0  0  0  0  0
  139.2420   72.6890  222.5350 N   0  0  0  0  0  0  0  0  0  0  0  0
  139.8500   71.3810  222.4750 C   0  0  0  0  0  0  0  0  0  0  0  0
  140.3910   70.9320  221.4490 O   0  0  0  0  0  0  0  0  0  0  0  0
  139.8070   70.5770  223.7050 C   0  0  0  0  0  0  0  0  0  0  0  0
  139.2450   69.3170  223.6880 C   0  0  0  0  0  0  0  0  0  0  0  0
  139.1850   68.5260  224.8320 C   0  0  0  0  0  0  0  0  0  0  0  0
  139.6970   69.0110  226.0040 C   0  0  0  0  0  0  0  0  0  0  0  0
  139.6970   68.3250  227.1970 C   0  0  0  0  0  0  0  0  0  0  0  0
  140.2280   68.8640  228.3490 C   0  0  0  0  0  0  0  0  0  0  0  0
  140.7870   70.1260  228.3470 C   0  0  0  0  0  0  0  0  0  0  0  0
  140.7900   70.8260  227.1440 C   0  0  0  0  0  0  0  0  0  0  0  0
  140.2510   70.2720  225.9860 C   0  0  0  0  0  0  0  0  0  0  0  0
  140.2960   71.0170  224.8680 N   0  0  0  0  0  0  0  0  0  0  0  0
  141.2940   76.2600  219.5960 C   0  0  1  0  0  0  0  0  0  0  0  0
  141.0350   77.2920  220.5550 C   0  0  0  0  0  0  0  0  0  0  0  0
  139.9700   77.2680  221.2340 O   0  0  0  0  0  0  0  0  0  0  0  0
  141.9260   78.3530  220.7920 N   0  0  0  0  0  0  0  0  0  0  0  0
  141.5920   79.3510  221.7690 C   0  0  0  0  0  0  0  0  0  0  0  0
  142.1720   80.7060  221.5060 C   0  0  0  0  0  0  0  0  0  0  0  0
  141.7610   81.4400  222.7850 C   0  0  0  0  0  0  0  0  0  0  0  0
  141.7280   80.3590  223.8600 C   0  0  0  0  0  0  0  0  0  0  0  0
  142.0720   79.0570  223.1590 C   0  0  0  0  0  0  0  0  0  0  0  0
  142.5200   77.8940  218.4220 H   0  0  0  0  0  0  0  0  0  0  0  0
  144.0690   77.5620  219.1350 H   0  0  0  0  0  0  0  0  0  0  0  0
  143.4208   75.8189  219.9802 H   0  0  0  0  0  0  0  0  0  0  0  0
  142.3810   75.2891  217.1497 H   0  0  0  0  0  0  0  0  0  0  0  0
  143.3559   74.2044  218.1403 H   0  0  0  0  0  0  0  0  0  0  0  0
  140.3849   74.3510  217.9214 H   0  0  0  0  0  0  0  0  0  0  0  0
  141.3004   73.1078  218.7397 H   0  0  0  0  0  0  0  0  0  0  0  0
  138.3785   74.1120  221.3617 H   0  0  0  0  0  0  0  0  0  0  0  0
  139.3517   72.7373  220.5441 H   0  0  0  0  0  0  0  0  0  0  0  0
  138.7980   73.0010  223.4470 H   0  0  0  0  0  0  0  0  0  0  0  0
  138.8334   68.9271  222.7454 H   0  0  0  0  0  0  0  0  0  0  0  0
  138.7319   67.5244  224.7939 H   0  0  0  0  0  0  0  0  0  0  0  0
  139.2601   67.3161  227.2322 H   0  0  0  0  0  0  0  0  0  0  0  0
  140.2060   68.2812  229.2816 H   0  0  0  0  0  0  0  0  0  0  0  0
  141.2142   70.5622  229.2620 H   0  0  0  0  0  0  0  0  0  0  0  0
  141.2261   71.8352  227.1075 H   0  0  0  0  0  0  0  0  0  0  0  0
  140.6549   76.7224  218.8294 H   0  0  0  0  0  0  0  0  0  0  0  0
  142.8590   78.4660  220.3060 H   0  0  0  0  0  0  0  0  0  0  0  0
  140.4952   79.3347  221.6863 H   0  0  0  0  0  0  0  0  0  0  0  0
  143.2656   80.6648  221.3953 H   0  0  0  0  0  0  0  0  0  0  0  0
  141.8261   81.1793  220.5752 H   0  0  0  0  0  0  0  0  0  0  0  0
  142.4967   82.2173  223.0393 H   0  0  0  0  0  0  0  0  0  0  0  0
  140.7921   81.9498  222.6785 H   0  0  0  0  0  0  0  0  0  0  0  0
  142.4681   80.5775  224.6439 H   0  0  0  0  0  0  0  0  0  0  0  0
  140.7425   80.3055  224.3458 H   0  0  0  0  0  0  0  0  0  0  0  0
  143.1539   78.8593  223.1803 H   0  0  0  0  0  0  0  0  0  0  0  0
  141.6245   78.1618  223.6156 H   0  0  0  0  0  0  0  0  0  0  0  0
  1  2  1  0
  2  3  1  0
  3  4  1  0
  4  5  1  0
  5  6  1  0
  6  7  2  0
  6  8  1  0
  8  9  1  0
  9 10  1  0
 10 11  2  0
 10 12  1  0
 12 13  2  0
 13 14  1  0
 14 15  2  0
 15 16  1  0
 16 17  2  0
 17 18  1  0
 18 19  2  0
 19 20  1  0
 20 21  2  0
  5 22  1  0
 22 23  1  0
 23 24  2  0
 23 25  1  0
 25 26  1  0
 26 27  1  0
 27 28  1  0
 28 29  1  0
 29 30  1  0
 22  2  1  0
 30 26  1  0
 21 12  1  0
 20 15  1  0
  1 31  1  0
  1 32  1  0
  2 33  1  1
  3 34  1  0
  3 35  1  0
  4 36  1  0
  4 37  1  0
  8 38  1  0
  8 39  1  0
  9 40  1  0
 13 41  1  0
 14 42  1  0
 16 43  1  0
 17 44  1  0
 18 45  1  0
 19 46  1  0
 22 47  1  6
 25 48  1  0
 26 49  1  0
 27 50  1  0
 27 51  1  0
 28 52  1  0
 28 53  1  0
 29 54  1  0
 29 55  1  0
 30 56  1  0
 30 57  1  0
M  END
>  <smiles>  (15) 
N[C@@H]1CCN(C(=O)CNC(=O)c2ccc3ccccc3n2)[C@H]1C(=O)NC1CCCC1

>  <score_type>  (15) 
oracle

>  <origin>  (15) 
autodockgpu

>  <m_score__min__energy>  (15) 
-9.6600000000000001

>  <m_primary>  (15) 
energy

>  <rmsd>  (15) 
1.9206361281358315

>  <m_score__min__rmsd>  (15) 
1.9206361281358315

>  <meeko>  (15) 
{"free_energy": -8.89, "intermolecular_energy": -10.98, "internal_energy": -2.07, "cluster_size": 24, "cluster_id": 1, "rank_in_cluster": 12}

>  <energy>  (15) 
-8.53

>  <cluster_rmsd>  (15) 
1.81

>  <cluster>  (15) 
1

$$$$

     RDKit          3D

 57 60  0  0  0  0  0  0  0  0999 V2000
  143.5890   76.9150  218.3620 N   0  0  0  0  0  0  0  0  0  0  0  0
  142.9950   75.8760  219.1540 C   0  0  2  0  0  0  0  0  0  0  0  0
  142.9140   74.5480  218.4030 C   0  0  0  0  0  0  0  0  0  0  0  0
  141.6000   73.8940  218.8940 C   0  0  0  0  0  0  0  0  0  0  0  0
  141.1710   74.8130  219.9800 N   0  0  0  0  0  0  0  0  0  0  0  0
  140.5730   74.5140  221.2090 C   0  0  0  0  0  0  0  0  0  0  0  0
  141.0470   75.1570  222.2280 O   0  0  0  0  0  0  0  0  0  0  0  0
  139.4960   73.5870  221.5260 C   0  0  0  0  0  0  0  0  0  0  0  0
  139.5830   72.8020  222.7090 N   0  0  0  0  0  0  0  0  0  0  0  0
  139.5700   71.3670  222.5550 C   0  0  0  0  0  0  0  0  0  0  0  0
  139.4850   70.8060  221.4480 O   0  0  0  0  0  0  0  0  0  0  0  0
  139.6630   70.5700  223.7870 C   0  0  0  0  0  0  0  0  0  0  0  0
  139.1710   69.2820  223.8160 C   0  0  0  0  0  0  0  0  0  0  0  0
  139.2400   68.4960  224.9620 C   0  0  0  0  0  0  0  0  0  0  0  0
  139.8120   69.0160  226.0910 C   0  0  0  0  0  0  0  0  0  0  0  0
  139.9390   68.3390  227.2830 C   0  0  0  0  0  0  0  0  0  0  0  0
  140.5250   68.9140  228.3900 C   0  0  0  0  0  0  0  0  0  0  0  0
  141.0120   70.2040  228.3420 C   0  0  0  0  0  0  0  0  0  0  0  0
  140.8870   70.8950  227.1410 C   0  0  0  0  0  0  0  0  0  0  0  0
  140.2940   70.3050  226.0290 C   0  0  0  0  0  0  0  0  0  0  0  0
  140.2140   71.0440  224.9080 N   0  0  0  0  0  0  0  0  0  0  0  0
  141.5310   76.1080  219.4040 C   0  0  1  0  0  0  0  0  0  0  0  0
  141.1460   77.2980  220.1020 C   0  0  0  0  0  0  0  0  0  0  0  0
  140.3880   78.1400  219.5430 O   0  0  0  0  0  0  0  0  0  0  0  0
  141.5720   77.5860  221.4110 N   0  0  0  0  0  0  0  0  0  0  0  0
  141.1460   78.8040  222.0410 C   0  0  0  0  0  0  0  0  0  0  0  0
  142.2120   79.5190  222.8100 C   0  0  0  0  0  0  0  0  0  0  0  0
  141.3900   80.6370  223.4560 C   0  0  0  0  0  0  0  0  0  0  0  0
  140.0000   80.0390  223.6430 C   0  0  0  0  0  0  0  0  0  0  0  0
  140.0640   78.6360  223.0650 C   0  0  0  0  0  0  0  0  0  0  0  0
  143.7780   77.7210  219.0040 H   0  0  0  0  0  0  0  0  0  0  0  0
  144.4530   76.5600  217.9020 H   0  0  0  0  0  0  0  0  0  0  0  0
  143.6251   75.8667  220.0556 H   0  0  0  0  0  0  0  0  0  0  0  0
  142.8793   74.7188  217.3169 H   0  0  0  0  0  0  0  0  0  0  0  0
  143.7903   73.9106  218.5921 H   0  0  0  0  0  0  0  0  0  0  0  0
  140.8514   73.8526  218.0891 H   0  0  0  0  0  0  0  0  0  0  0  0
  141.7249   72.8522  219.2243 H   0  0  0  0  0  0  0  0  0  0  0  0
  138.5727   74.1802  221.6009 H   0  0  0  0  0  0  0  0  0  0  0  0
  139.5417   72.8450  220.7152 H   0  0  0  0  0  0  0  0  0  0  0  0
  139.6560   73.2060  223.6880 H   0  0  0  0  0  0  0  0  0  0  0  0
  138.7113   68.8645  222.9080 H   0  0  0  0  0  0  0  0  0  0  0  0
  138.8404   67.4712  224.9604 H   0  0  0  0  0  0  0  0  0  0  0  0
  139.5615   67.3083  227.3540 H   0  0  0  0  0  0  0  0  0  0  0  0
  140.6054   68.3374  229.3233 H   0  0  0  0  0  0  0  0  0  0  0  0
  141.4819   70.6691  229.2211 H   0  0  0  0  0  0  0  0  0  0  0  0
  141.2636   71.9260  227.0692 H   0  0  0  0  0  0  0  0  0  0  0  0
  140.9540   76.3709  218.5052 H   0  0  0  0  0  0  0  0  0  0  0  0
  142.1860   76.9480  221.9900 H   0  0  0  0  0  0  0  0  0  0  0  0
  140.8110   79.3665  221.1570 H   0  0  0  0  0  0  0  0  0  0  0  0
  142.6742   78.8666  223.5655 H   0  0  0  0  0  0  0  0  0  0  0  0
  143.0598   79.8671  222.2017 H   0  0  0  0  0  0  0  0  0  0  0  0
  141.8219   80.9248  224.4259 H   0  0  0  0  0  0  0  0  0  0  0  0
  141.3710   81.5480  222.8398 H   0  0  0  0  0  0  0  0  0  0  0  0
  139.7416   80.0003  224.7115 H   0  0  0  0  0  0  0  0  0  0  0  0
  139.2309   80.6453  223.1422 H   0  0  0  0  0  0  0  0  0  0  0  0
  140.3414   77.8953  223.8295 H   0  0  0  0  0  0  0  0  0  0  0  0
  139.1098   78.2648  222.6630 H   0  0  0  0  0  0  0  0  0  0  0  0
  1  2  1  0
  2  3  1  0
  3  4  1  0
  4  5  1  0
  5  6  1  0
  6  7  2  0
  6  8  1  0
  8  9  1  0
  9 10  1  0
 10 11  2  0
 10 12  1  0
 12 13  2  0
 13 14  1  0
 14 15  2  0
 15 16  1  0
 16 17  2  0
 17 18  1  0
 18 19  2  0
 19 20  1  0
 20 21  2  0
  5 22  1  0
 22 23  1  0
 23 24  2  0
 23 25  1  0
 25 26  1  0
 26 27  1  0
 27 28  1  0
 28 29  1  0
 29 30  1  0
 22  2  1  0
 30 26  1  0
 21 12  1  0
 20 15  1  0
  1 31  1  0
  1 32  1  0
  2 33  1  1
  3 34  1  0
  3 35  1  0
  4 36  1  0
  4 37  1  0
  8 38  1  0
  8 39  1  0
  9 40  1  0
 13 41  1  0
 14 42  1  0
 16 43  1  0
 17 44  1  0
 18 45  1  0
 19 46  1  0
 22 47  1  6
 25 48  1  0
 26 49  1  0
 27 50  1  0
 27 51  1  0
 28 52  1  0
 28 53  1  0
 29 54  1  0
 29 55  1  0
 30 56  1  0
 30 57  1  0
M  END
>  <smiles>  (16) 
N[C@@H]1CCN(C(=O)CNC(=O)c2ccc3ccccc3n2)[C@H]1C(=O)NC1CCCC1

>  <score_type>  (16) 
oracle

>  <origin>  (16) 
autodockgpu

>  <m_score__min__energy>  (16) 
-9.6600000000000001

>  <m_primary>  (16) 
energy

>  <rmsd>  (16) 
2.2558289033239314

>  <m_score__min__rmsd>  (16) 
2.2558289033239314

>  <meeko>  (16) 
{"free_energy": -9.1, "intermolecular_energy": -11.18, "internal_energy": -2.36, "cluster_size": 24, "cluster_id": 1, "rank_in_cluster": 9}

>  <energy>  (16) 
-8.44

>  <cluster_rmsd>  (16) 
1.91

>  <cluster>  (16) 
1

$$$$

     RDKit          3D

 57 60  0  0  0  0  0  0  0  0999 V2000
  142.1830   78.1660  221.2910 N   0  0  0  0  0  0  0  0  0  0  0  0
  140.8740   77.6110  221.0960 C   0  0  2  0  0  0  0  0  0  0  0  0
  139.7930   78.4010  221.8310 C   0  0  0  0  0  0  0  0  0  0  0  0
  138.7650   77.3380  222.2840 C   0  0  0  0  0  0  0  0  0  0  0  0
  139.2630   76.1050  221.6210 N   0  0  0  0  0  0  0  0  0  0  0  0
  138.5420   75.0630  221.0310 C   0  0  0  0  0  0  0  0  0  0  0  0
  137.5310   75.4260  220.3070 O   0  0  0  0  0  0  0  0  0  0  0  0
  138.7470   73.6230  221.1030 C   0  0  0  0  0  0  0  0  0  0  0  0
  139.1340   73.0390  222.3410 N   0  0  0  0  0  0  0  0  0  0  0  0
  138.8970   71.6250  222.5080 C   0  0  0  0  0  0  0  0  0  0  0  0
  138.3780   70.9160  221.6270 O   0  0  0  0  0  0  0  0  0  0  0  0
  139.3050   71.0350  223.7920 C   0  0  0  0  0  0  0  0  0  0  0  0
  139.0160   69.7150  224.0690 C   0  0  0  0  0  0  0  0  0  0  0  0
  139.3850   69.1210  225.2720 C   0  0  0  0  0  0  0  0  0  0  0  0
  140.0520   69.8670  226.2060 C   0  0  0  0  0  0  0  0  0  0  0  0
  140.4680   69.3940  227.4290 C   0  0  0  0  0  0  0  0  0  0  0  0
  141.1370   70.1930  228.3310 C   0  0  0  0  0  0  0  0  0  0  0  0
  141.4170   71.5110  228.0370 C   0  0  0  0  0  0  0  0  0  0  0  0
  141.0000   71.9970  226.8020 C   0  0  0  0  0  0  0  0  0  0  0  0
  140.3240   71.1820  225.8970 C   0  0  0  0  0  0  0  0  0  0  0  0
  139.9560   71.7320  224.7270 N   0  0  0  0  0  0  0  0  0  0  0  0
  140.7080   76.2780  221.7700 C   0  0  1  0  0  0  0  0  0  0  0  0
  141.5700   75.2070  221.3680 C   0  0  0  0  0  0  0  0  0  0  0  0
  141.3870   74.0440  221.8270 O   0  0  0  0  0  0  0  0  0  0  0  0
  142.6320   75.3820  220.4630 N   0  0  0  0  0  0  0  0  0  0  0  0
  143.4540   74.2570  220.1130 C   0  0  0  0  0  0  0  0  0  0  0  0
  144.7780   74.2070  220.8110 C   0  0  0  0  0  0  0  0  0  0  0  0
  145.4250   73.0170  220.0980 C   0  0  0  0  0  0  0  0  0  0  0  0
  144.8310   73.0350  218.6930 C   0  0  0  0  0  0  0  0  0  0  0  0
  143.8460   74.1910  218.6680 C   0  0  0  0  0  0  0  0  0  0  0  0
  142.4820   77.9150  222.2640 H   0  0  0  0  0  0  0  0  0  0  0  0
  142.8350   77.8000  220.5660 H   0  0  0  0  0  0  0  0  0  0  0  0
  140.7774   77.5935  220.0004 H   0  0  0  0  0  0  0  0  0  0  0  0
  140.2186   78.9235  222.7004 H   0  0  0  0  0  0  0  0  0  0  0  0
  139.3378   79.1734  221.1936 H   0  0  0  0  0  0  0  0  0  0  0  0
  138.7634   77.2278  223.3785 H   0  0  0  0  0  0  0  0  0  0  0  0
  137.7278   77.5901  222.0182 H   0  0  0  0  0  0  0  0  0  0  0  0
  137.8004   73.1482  220.8054 H   0  0  0  0  0  0  0  0  0  0  0  0
  139.6139   73.4487  220.4487 H   0  0  0  0  0  0  0  0  0  0  0  0
  139.5810   73.5760  223.1400 H   0  0  0  0  0  0  0  0  0  0  0  0
  138.4794   69.1158  223.3187 H   0  0  0  0  0  0  0  0  0  0  0  0
  139.1439   68.0661  225.4698 H   0  0  0  0  0  0  0  0  0  0  0  0
  140.2605   68.3470  227.6949 H   0  0  0  0  0  0  0  0  0  0  0  0
  141.4517   69.7739  229.2981 H   0  0  0  0  0  0  0  0  0  0  0  0
  141.9503   72.1541  228.7525 H   0  0  0  0  0  0  0  0  0  0  0  0
  141.2079   73.0438  226.5354 H   0  0  0  0  0  0  0  0  0  0  0  0
  141.0540   76.2516  222.8138 H   0  0  0  0  0  0  0  0  0  0  0  0
  142.8680   76.2990  219.9940 H   0  0  0  0  0  0  0  0  0  0  0  0
  142.7859   73.4349  220.4094 H   0  0  0  0  0  0  0  0  0  0  0  0
  145.3524   75.1327  220.6589 H   0  0  0  0  0  0  0  0  0  0  0  0
  144.7159   74.1073  221.9047 H   0  0  0  0  0  0  0  0  0  0  0  0
  146.5178   73.1364  220.0583 H   0  0  0  0  0  0  0  0  0  0  0  0
  145.2330   72.0668  220.6180 H   0  0  0  0  0  0  0  0  0  0  0  0
  145.6227   73.1916  217.9456 H   0  0  0  0  0  0  0  0  0  0  0  0
  144.3383   72.0814  218.4523 H   0  0  0  0  0  0  0  0  0  0  0  0
  144.3248   75.1238  218.3354 H   0  0  0  0  0  0  0  0  0  0  0  0
  143.0038   74.0569  217.9732 H   0  0  0  0  0  0  0  0  0  0  0  0
  1  2  1  0
  2  3  1  0
  3  4  1  0
  4  5  1  0
  5  6  1  0
  6  7  2  0
  6  8  1  0
  8  9  1  0
  9 10  1  0
 10 11  2  0
 10 12  1  0
 12 13  2  0
 13 14  1  0
 14 15  2  0
 15 16  1  0
 16 17  2  0
 17 18  1  0
 18 19  2  0
 19 20  1  0
 20 21  2  0
  5 22  1  0
 22 23  1  0
 23 24  2  0
 23 25  1  0
 25 26  1  0
 26 27  1  0
 27 28  1  0
 28 29  1  0
 29 30  1  0
 22  2  1  0
 30 26  1  0
 21 12  1  0
 20 15  1  0
  1 31  1  0
  1 32  1  0
  2 33  1  6
  3 34  1  0
  3 35  1  0
  4 36  1  0
  4 37  1  0
  8 38  1  0
  8 39  1  0
  9 40  1  0
 13 41  1  0
 14 42  1  0
 16 43  1  0
 17 44  1  0
 18 45  1  0
 19 46  1  0
 22 47  1  1
 25 48  1  0
 26 49  1  0
 27 50  1  0
 27 51  1  0
 28 52  1  0
 28 53  1  0
 29 54  1  0
 29 55  1  0
 30 56  1  0
 30 57  1  0
M  END
>  <smiles>  (17) 
N[C@@H]1CCN(C(=O)CNC(=O)c2ccc3ccccc3n2)[C@H]1C(=O)NC1CCCC1

>  <score_type>  (17) 
oracle

>  <origin>  (17) 
autodockgpu

>  <m_score__min__energy>  (17) 
-9.6600000000000001

>  <m_primary>  (17) 
energy

>  <rmsd>  (17) 
4.47956973297247

>  <m_score__min__rmsd>  (17) 
4.47956973297247

>  <meeko>  (17) 
{"free_energy": -8.29, "intermolecular_energy": -10.38, "internal_energy": -2.55, "cluster_size": 24, "cluster_id": 1, "rank_in_cluster": 17}

>  <energy>  (17) 
-8.29

>  <cluster_rmsd>  (17) 
1.76

>  <cluster>  (17) 
1

$$$$

     RDKit          3D

 57 60  0  0  0  0  0  0  0  0999 V2000
  139.1260   74.5150  222.3500 N   0  0  0  0  0  0  0  0  0  0  0  0
  140.0770   74.6860  221.2890 C   0  0  2  0  0  0  0  0  0  0  0  0
  140.8450   73.4000  220.9860 C   0  0  0  0  0  0  0  0  0  0  0  0
  142.2660   73.8710  220.5930 C   0  0  0  0  0  0  0  0  0  0  0  0
  142.1120   75.3480  220.5410 N   0  0  0  0  0  0  0  0  0  0  0  0
  142.6760   76.2660  219.6500 C   0  0  0  0  0  0  0  0  0  0  0  0
  143.8770   76.6560  219.9380 O   0  0  0  0  0  0  0  0  0  0  0  0
  142.1230   76.8600  218.4400 C   0  0  0  0  0  0  0  0  0  0  0  0
  142.3610   78.2360  218.1720 N   0  0  0  0  0  0  0  0  0  0  0  0
  141.4040   79.1870  218.6860 C   0  0  0  0  0  0  0  0  0  0  0  0
  140.4010   78.8500  219.3390 O   0  0  0  0  0  0  0  0  0  0  0  0
  141.6660   80.6050  218.4020 C   0  0  0  0  0  0  0  0  0  0  0  0
  140.7860   81.5720  218.8430 C   0  0  0  0  0  0  0  0  0  0  0  0
  140.9990   82.9240  218.5940 C   0  0  0  0  0  0  0  0  0  0  0  0
  142.1110   83.3050  217.8940 C   0  0  0  0  0  0  0  0  0  0  0  0
  142.4290   84.6080  217.5860 C   0  0  0  0  0  0  0  0  0  0  0  0
  143.5650   84.9330  216.8770 C   0  0  0  0  0  0  0  0  0  0  0  0
  144.4350   83.9530  216.4440 C   0  0  0  0  0  0  0  0  0  0  0  0
  144.1190   82.6330  216.7510 C   0  0  0  0  0  0  0  0  0  0  0  0
  142.9690   82.3150  217.4680 C   0  0  0  0  0  0  0  0  0  0  0  0
  142.7400   81.0150  217.7210 N   0  0  0  0  0  0  0  0  0  0  0  0
  141.2260   75.5730  221.6820 C   0  0  1  0  0  0  0  0  0  0  0  0
  140.9350   76.9220  222.0670 C   0  0  0  0  0  0  0  0  0  0  0  0
  139.8480   77.1890  222.6520 O   0  0  0  0  0  0  0  0  0  0  0  0
  141.8180   77.9900  221.8290 N   0  0  0  0  0  0  0  0  0  0  0  0
  141.4510   79.3150  222.2430 C   0  0  0  0  0  0  0  0  0  0  0  0
  142.2380   80.4140  221.5990 C   0  0  0  0  0  0  0  0  0  0  0  0
  141.7100   81.6260  222.3710 C   0  0  0  0  0  0  0  0  0  0  0  0
  141.3510   81.0830  223.7500 C   0  0  0  0  0  0  0  0  0  0  0  0
  141.6410   79.5930  223.7040 C   0  0  0  0  0  0  0  0  0  0  0  0
  139.3040   73.5730  222.7740 H   0  0  0  0  0  0  0  0  0  0  0  0
  139.2240   75.2880  223.0410 H   0  0  0  0  0  0  0  0  0  0  0  0
  139.4565   75.0670  220.4645 H   0  0  0  0  0  0  0  0  0  0  0  0
  140.8833   72.7530  221.8748 H   0  0  0  0  0  0  0  0  0  0  0  0
  140.3683   72.8097  220.1896 H   0  0  0  0  0  0  0  0  0  0  0  0
  143.0067   73.5749  221.3505 H   0  0  0  0  0  0  0  0  0  0  0  0
  142.6279   73.4343  219.6505 H   0  0  0  0  0  0  0  0  0  0  0  0
  142.5276   76.2921  217.5892 H   0  0  0  0  0  0  0  0  0  0  0  0
  141.0354   76.8080  218.5963 H   0  0  0  0  0  0  0  0  0  0  0  0
  143.1930   78.6000  217.6210 H   0  0  0  0  0  0  0  0  0  0  0  0
  139.8923   81.2657  219.4064 H   0  0  0  0  0  0  0  0  0  0  0  0
  140.2828   83.6768  218.9551 H   0  0  0  0  0  0  0  0  0  0  0  0
  141.7566   85.4138  217.9155 H   0  0  0  0  0  0  0  0  0  0  0  0
  143.7814   85.9880  216.6531 H   0  0  0  0  0  0  0  0  0  0  0  0
  145.3436   84.2057  215.8778 H   0  0  0  0  0  0  0  0  0  0  0  0
  144.7901   81.8263  216.4211 H   0  0  0  0  0  0  0  0  0  0  0  0
  141.6796   75.3246  222.6529 H   0  0  0  0  0  0  0  0  0  0  0  0
  142.7660   77.8870  221.3720 H   0  0  0  0  0  0  0  0  0  0  0  0
  140.3923   79.3189  221.9445 H   0  0  0  0  0  0  0  0  0  0  0  0
  143.3197   80.2787  221.7462 H   0  0  0  0  0  0  0  0  0  0  0  0
  142.1227   80.4807  220.5071 H   0  0  0  0  0  0  0  0  0  0  0  0
  142.4849   82.4027  222.4500 H   0  0  0  0  0  0  0  0  0  0  0  0
  140.8486   82.0934  221.8716 H   0  0  0  0  0  0  0  0  0  0  0  0
  141.9652   81.5679  224.5231 H   0  0  0  0  0  0  0  0  0  0  0  0
  140.2976   81.2801  223.9980 H   0  0  0  0  0  0  0  0  0  0  0  0
  142.6683   79.3703  224.0282 H   0  0  0  0  0  0  0  0  0  0  0  0
  141.0099   78.9854  224.3691 H   0  0  0  0  0  0  0  0  0  0  0  0
  1  2  1  0
  2  3  1  0
  3  4  1  0
  4  5  1  0
  5  6  1  0
  6  7  2  0
  6  8  1  0
  8  9  1  0
  9 10  1  0
 10 11  2  0
 10 12  1  0
 12 13  2  0
 13 14  1  0
 14 15  2  0
 15 16  1  0
 16 17  2  0
 17 18  1  0
 18 19  2  0
 19 20  1  0
 20 21  2  0
  5 22  1  0
 22 23  1  0
 23 24  2  0
 23 25  1  0
 25 26  1  0
 26 27  1  0
 27 28  1  0
 28 29  1  0
 29 30  1  0
 22  2  1  0
 30 26  1  0
 21 12  1  0
 20 15  1  0
  1 31  1  0
  1 32  1  0
  2 33  1  6
  3 34  1  0
  3 35  1  0
  4 36  1  0
  4 37  1  0
  8 38  1  0
  8 39  1  0
  9 40  1  0
 13 41  1  0
 14 42  1  0
 16 43  1  0
 17 44  1  0
 18 45  1  0
 19 46  1  0
 22 47  1  1
 25 48  1  0
 26 49  1  0
 27 50  1  0
 27 51  1  0
 28 52  1  0
 28 53  1  0
 29 54  1  0
 29 55  1  0
 30 56  1  0
 30 57  1  0
M  END
>  <smiles>  (18) 
N[C@@H]1CCN(C(=O)CNC(=O)c2ccc3ccccc3n2)[C@H]1C(=O)NC1CCCC1

>  <score_type>  (18) 
oracle

>  <origin>  (18) 
autodockgpu

>  <m_score__min__energy>  (18) 
-9.6600000000000001

>  <m_primary>  (18) 
energy

>  <rmsd>  (18) 
9.71671452758307

>  <m_score__min__rmsd>  (18) 
9.71671452758307

>  <meeko>  (18) 
{"free_energy": -7.13, "intermolecular_energy": -9.22, "internal_energy": -3.87, "cluster_size": 1, "cluster_id": 5, "rank_in_cluster": 1}

>  <energy>  (18) 
-8.05

>  <cluster_rmsd>  (18) 
1.95

>  <cluster>  (18) 
1

$$$$

     RDKit          3D

 57 60  0  0  0  0  0  0  0  0999 V2000
  142.4360   78.2460  217.0160 N   0  0  0  0  0  0  0  0  0  0  0  0
  141.6240   77.9860  218.1700 C   0  0  2  0  0  0  0  0  0  0  0  0
  141.0370   79.2640  218.7660 C   0  0  0  0  0  0  0  0  0  0  0  0
  141.0120   79.0140  220.2930 C   0  0  0  0  0  0  0  0  0  0  0  0
  141.4100   77.5870  220.3920 N   0  0  0  0  0  0  0  0  0  0  0  0
  140.9430   76.5940  221.2590 C   0  0  0  0  0  0  0  0  0  0  0  0
  141.4430   76.6180  222.4530 O   0  0  0  0  0  0  0  0  0  0  0  0
  139.9760   75.5290  221.0300 C   0  0  0  0  0  0  0  0  0  0  0  0
  139.7910   74.5350  222.0300 N   0  0  0  0  0  0  0  0  0  0  0  0
  140.1050   73.1720  221.6740 C   0  0  0  0  0  0  0  0  0  0  0  0
  140.5220   72.8450  220.5490 O   0  0  0  0  0  0  0  0  0  0  0  0
  139.9110   72.1560  222.7190 C   0  0  0  0  0  0  0  0  0  0  0  0
  139.1330   71.0450  222.4670 C   0  0  0  0  0  0  0  0  0  0  0  0
  138.9250   70.0620  223.4300 C   0  0  0  0  0  0  0  0  0  0  0  0
  139.5090   70.2010  224.6600 C   0  0  0  0  0  0  0  0  0  0  0  0
  139.3780   69.3000  225.6910 C   0  0  0  0  0  0  0  0  0  0  0  0
  139.9900   69.4920  226.9110 C   0  0  0  0  0  0  0  0  0  0  0  0
  140.7660   70.6100  227.1450 C   0  0  0  0  0  0  0  0  0  0  0  0
  140.9020   71.5260  226.1070 C   0  0  0  0  0  0  0  0  0  0  0  0
  140.2800   71.3220  224.8790 C   0  0  0  0  0  0  0  0  0  0  0  0
  140.4640   72.2580  223.9310 N   0  0  0  0  0  0  0  0  0  0  0  0
  142.4310   77.5130  219.3470 C   0  0  1  0  0  0  0  0  0  0  0  0
  143.1810   76.3000  219.2070 C   0  0  0  0  0  0  0  0  0  0  0  0
  143.7230   76.0190  218.1010 O   0  0  0  0  0  0  0  0  0  0  0  0
  143.3560   75.3860  220.2610 N   0  0  0  0  0  0  0  0  0  0  0  0
  144.1190   74.1900  220.0390 C   0  0  0  0  0  0  0  0  0  0  0  0
  143.4380   72.9240  220.4590 C   0  0  0  0  0  0  0  0  0  0  0  0
  144.5660   71.9130  220.2370 C   0  0  0  0  0  0  0  0  0  0  0  0
  145.8490   72.7000  220.4820 C   0  0  0  0  0  0  0  0  0  0  0  0
  145.4160   74.1240  220.7870 C   0  0  0  0  0  0  0  0  0  0  0  0
  143.1700   78.9350  217.3050 H   0  0  0  0  0  0  0  0  0  0  0  0
  142.8420   77.3550  216.6610 H   0  0  0  0  0  0  0  0  0  0  0  0
  140.8860   77.2636  217.7912 H   0  0  0  0  0  0  0  0  0  0  0  0
  141.6710   80.1302  218.5257 H   0  0  0  0  0  0  0  0  0  0  0  0
  140.0370   79.4872  218.3657 H   0  0  0  0  0  0  0  0  0  0  0  0
  141.7303   79.6640  220.8140 H   0  0  0  0  0  0  0  0  0  0  0  0
  140.0384   79.2307  220.7568 H   0  0  0  0  0  0  0  0  0  0  0  0
  138.9997   76.0099  220.8699 H   0  0  0  0  0  0  0  0  0  0  0  0
  140.3965   74.9712  220.1803 H   0  0  0  0  0  0  0  0  0  0  0  0
  139.4380   74.7340  223.0110 H   0  0  0  0  0  0  0  0  0  0  0  0
  138.6643   70.9330  221.4781 H   0  0  0  0  0  0  0  0  0  0  0  0
  138.2997   69.1852  223.2056 H   0  0  0  0  0  0  0  0  0  0  0  0
  138.7662   68.3988  225.5372 H   0  0  0  0  0  0  0  0  0  0  0  0
  139.8586   68.7454  227.7081 H   0  0  0  0  0  0  0  0  0  0  0  0
  141.2581   70.7702  228.1157 H   0  0  0  0  0  0  0  0  0  0  0  0
  141.5124   72.4282  226.2597 H   0  0  0  0  0  0  0  0  0  0  0  0
  143.3255   78.1182  219.5560 H   0  0  0  0  0  0  0  0  0  0  0  0
  142.9720   75.5230  221.2370 H   0  0  0  0  0  0  0  0  0  0  0  0
  144.2597   74.2558  218.9500 H   0  0  0  0  0  0  0  0  0  0  0  0
  143.1273   72.9607  221.5136 H   0  0  0  0  0  0  0  0  0  0  0  0
  142.5089   72.7009  219.9140 H   0  0  0  0  0  0  0  0  0  0  0  0
  144.4825   71.0773  220.9473 H   0  0  0  0  0  0  0  0  0  0  0  0
  144.5356   71.4719  219.2298 H   0  0  0  0  0  0  0  0  0  0  0  0
  146.3996   72.2770  221.3352 H   0  0  0  0  0  0  0  0  0  0  0  0
  146.5181   72.6608  219.6098 H   0  0  0  0  0  0  0  0  0  0  0  0
  145.2694   74.2801  221.8659 H   0  0  0  0  0  0  0  0  0  0  0  0
  146.1472   74.8937  220.4991 H   0  0  0  0  0  0  0  0  0  0  0  0
  1  2  1  0
  2  3  1  0
  3  4  1  0
  4  5  1  0
  5  6  1  0
  6  7  2  0
  6  8  1  0
  8  9  1  0
  9 10  1  0
 10 11  2  0
 10 12  1  0
 12 13  2  0
 13 14  1  0
 14 15  2  0
 15 16  1  0
 16 17  2  0
 17 18  1  0
 18 19  2  0
 19 20  1  0
 20 21  2  0
  5 22  1  0
 22 23  1  0
 23 24  2  0
 23 25  1  0
 25 26  1  0
 26 27  1  0
 27 28  1  0
 28 29  1  0
 29 30  1  0
 22  2  1  0
 30 26  1  0
 21 12  1  0
 20 15  1  0
  1 31  1  0
  1 32  1  0
  2 33  1  6
  3 34  1  0
  3 35  1  0
  4 36  1  0
  4 37  1  0
  8 38  1  0
  8 39  1  0
  9 40  1  0
 13 41  1  0
 14 42  1  0
 16 43  1  0
 17 44  1  0
 18 45  1  0
 19 46  1  0
 22 47  1  1
 25 48  1  0
 26 49  1  0
 27 50  1  0
 27 51  1  0
 28 52  1  0
 28 53  1  0
 29 54  1  0
 29 55  1  0
 30 56  1  0
 30 57  1  0
M  END
>  <smiles>  (19) 
N[C@@H]1CCN(C(=O)CNC(=O)c2ccc3ccccc3n2)[C@H]1C(=O)NC1CCCC1

>  <score_type>  (19) 
oracle

>  <origin>  (19) 
autodockgpu

>  <m_score__min__energy>  (19) 
-9.6600000000000001

>  <m_primary>  (19) 
energy

>  <rmsd>  (19) 
4.739119718772987

>  <m_score__min__rmsd>  (19) 
4.739119718772987

>  <meeko>  (19) 
{"free_energy": -7.83, "intermolecular_energy": -9.92, "internal_energy": -3.16, "cluster_size": 16, "cluster_id": 2, "rank_in_cluster": 7}

>  <energy>  (19) 
-8.04

>  <cluster_rmsd>  (19) 
1.94

>  <cluster>  (19) 
1

$$$$

     RDKit          3D

 57 60  0  0  0  0  0  0  0  0999 V2000
  146.1010   74.0180  220.6070 N   0  0  0  0  0  0  0  0  0  0  0  0
  144.7850   73.4550  220.7090 C   0  0  2  0  0  0  0  0  0  0  0  0
  144.7520   71.9810  220.3080 C   0  0  0  0  0  0  0  0  0  0  0  0
  143.3770   71.7880  219.6250 C   0  0  0  0  0  0  0  0  0  0  0  0
  142.7130   73.0960  219.8610 N   0  0  0  0  0  0  0  0  0  0  0  0
  141.3750   73.3690  220.1600 C   0  0  0  0  0  0  0  0  0  0  0  0
  140.5500   73.2570  219.1670 O   0  0  0  0  0  0  0  0  0  0  0  0
  140.7560   73.7620  221.4180 C   0  0  0  0  0  0  0  0  0  0  0  0
  140.9880   75.0710  221.9250 N   0  0  0  0  0  0  0  0  0  0  0  0
  139.9080   76.0230  221.8180 C   0  0  0  0  0  0  0  0  0  0  0  0
  138.8080   75.7440  221.3090 O   0  0  0  0  0  0  0  0  0  0  0  0
  140.1620   77.3710  222.3480 C   0  0  0  0  0  0  0  0  0  0  0  0
  139.1070   78.1740  222.7280 C   0  0  0  0  0  0  0  0  0  0  0  0
  139.3070   79.4550  223.2340 C   0  0  0  0  0  0  0  0  0  0  0  0
  140.5830   79.9300  223.3570 C   0  0  0  0  0  0  0  0  0  0  0  0
  140.9080   81.1770  223.8420 C   0  0  0  0  0  0  0  0  0  0  0  0
  142.2140   81.6030  223.9450 C   0  0  0  0  0  0  0  0  0  0  0  0
  143.2570   80.7850  223.5600 C   0  0  0  0  0  0  0  0  0  0  0  0
  142.9380   79.5240  223.0680 C   0  0  0  0  0  0  0  0  0  0  0  0
  141.6140   79.1020  222.9690 C   0  0  0  0  0  0  0  0  0  0  0  0
  141.3940   77.8690  222.4830 N   0  0  0  0  0  0  0  0  0  0  0  0
  143.8390   74.0120  219.6820 C   0  0  1  0  0  0  0  0  0  0  0  0
  143.5830   75.4210  219.6950 C   0  0  0  0  0  0  0  0  0  0  0  0
  144.4750   76.2200  220.0970 O   0  0  0  0  0  0  0  0  0  0  0  0
  142.3650   75.9790  219.2690 N   0  0  0  0  0  0  0  0  0  0  0  0
  142.1850   77.4030  219.3170 C   0  0  0  0  0  0  0  0  0  0  0  0
  140.7650   77.8610  219.1830 C   0  0  0  0  0  0  0  0  0  0  0  0
  140.9660   79.3770  219.1130 C   0  0  0  0  0  0  0  0  0  0  0  0
  142.3310   79.5590  218.4590 C   0  0  0  0  0  0  0  0  0  0  0  0
  142.8740   78.1610  218.2230 C   0  0  0  0  0  0  0  0  0  0  0  0
  146.0630   74.7570  219.8650 H   0  0  0  0  0  0  0  0  0  0  0  0
  146.3970   74.3960  221.5310 H   0  0  0  0  0  0  0  0  0  0  0  0
  144.5114   73.6625  221.7540 H   0  0  0  0  0  0  0  0  0  0  0  0
  145.5683   71.7517  219.6073 H   0  0  0  0  0  0  0  0  0  0  0  0
  144.8842   71.3126  221.1716 H   0  0  0  0  0  0  0  0  0  0  0  0
  143.4921   71.5892  218.5493 H   0  0  0  0  0  0  0  0  0  0  0  0
  142.8093   70.9314  220.0175 H   0  0  0  0  0  0  0  0  0  0  0  0
  139.6689   73.6551  221.2888 H   0  0  0  0  0  0  0  0  0  0  0  0
  141.2316   73.1048  222.1609 H   0  0  0  0  0  0  0  0  0  0  0  0
  141.8990   75.3850  222.3710 H   0  0  0  0  0  0  0  0  0  0  0  0
  138.0803   77.7919  222.6285 H   0  0  0  0  0  0  0  0  0  0  0  0
  138.4498   80.0770  223.5310 H   0  0  0  0  0  0  0  0  0  0  0  0
  140.1000   81.8538  224.1569 H   0  0  0  0  0  0  0  0  0  0  0  0
  142.4283   82.6074  224.3389 H   0  0  0  0  0  0  0  0  0  0  0  0
  144.3023   81.1183  223.6394 H   0  0  0  0  0  0  0  0  0  0  0  0
  143.7456   78.8476  222.7513 H   0  0  0  0  0  0  0  0  0  0  0  0
  144.2405   74.0283  218.6580 H   0  0  0  0  0  0  0  0  0  0  0  0
  141.5540   75.4160  218.8890 H   0  0  0  0  0  0  0  0  0  0  0  0
  142.6077   77.6128  220.3106 H   0  0  0  0  0  0  0  0  0  0  0  0
  140.2972   77.4707  218.2671 H   0  0  0  0  0  0  0  0  0  0  0  0
  140.0968   77.5240  219.9892 H   0  0  0  0  0  0  0  0  0  0  0  0
  140.1788   79.8445  218.5033 H   0  0  0  0  0  0  0  0  0  0  0  0
  140.9148   79.8489  220.1053 H   0  0  0  0  0  0  0  0  0  0  0  0
  142.2284   80.0950  217.5039 H   0  0  0  0  0  0  0  0  0  0  0  0
  143.0060   80.1504  219.0951 H   0  0  0  0  0  0  0  0  0  0  0  0
  142.5948   77.7808  217.2293 H   0  0  0  0  0  0  0  0  0  0  0  0
  143.9715   78.0899  218.2414 H   0  0  0  0  0  0  0  0  0  0  0  0
  1  2  1  0
  2  3  1  0
  3  4  1  0
  4  5  1  0
  5  6  1  0
  6  7  2  0
  6  8  1  0
  8  9  1  0
  9 10  1  0
 10 11  2  0
 10 12  1  0
 12 13  2  0
 13 14  1  0
 14 15  2  0
 15 16  1  0
 16 17  2  0
 17 18  1  0
 18 19  2  0
 19 20  1  0
 20 21  2  0
  5 22  1  0
 22 23  1  0
 23 24  2  0
 23 25  1  0
 25 26  1  0
 26 27  1  0
 27 28  1  0
 28 29  1  0
 29 30  1  0
 22  2  1  0
 30 26  1  0
 21 12  1  0
 20 15  1  0
  1 31  1  0
  1 32  1  0
  2 33  1  1
  3 34  1  0
  3 35  1  0
  4 36  1  0
  4 37  1  0
  8 38  1  0
  8 39  1  0
  9 40  1  0
 13 41  1  0
 14 42  1  0
 16 43  1  0
 17 44  1  0
 18 45  1  0
 19 46  1  0
 22 47  1  6
 25 48  1  0
 26 49  1  0
 27 50  1  0
 27 51  1  0
 28 52  1  0
 28 53  1  0
 29 54  1  0
 29 55  1  0
 30 56  1  0
 30 57  1  0
M  END
>  <smiles>  (20) 
N[C@@H]1CCN(C(=O)CNC(=O)c2ccc3ccccc3n2)[C@H]1C(=O)NC1CCCC1

>  <score_type>  (20) 
oracle

>  <origin>  (20) 
autodockgpu

>  <m_score__min__energy>  (20) 
-9.6600000000000001

>  <m_primary>  (20) 
energy

>  <rmsd>  (20) 
7.077982250809998

>  <m_score__min__rmsd>  (20) 
7.077982250809998

>  <meeko>  (20) 
{"free_energy": -7.03, "intermolecular_energy": -9.12, "internal_energy": -3.98, "cluster_size": 7, "cluster_id": 3, "rank_in_cluster": 7}

>  <energy>  (20) 
-7.93

>  <cluster_rmsd>  (20) 
1.69

>  <cluster>  (20) 
1

$$$$

     RDKit          3D

 57 60  0  0  0  0  0  0  0  0999 V2000
  143.9860   76.6500  219.5700 N   0  0  0  0  0  0  0  0  0  0  0  0
  143.1000   75.6500  220.0940 C   0  0  2  0  0  0  0  0  0  0  0  0
  143.0350   74.4090  219.2050 C   0  0  0  0  0  0  0  0  0  0  0  0
  141.5720   73.9170  219.3190 C   0  0  0  0  0  0  0  0  0  0  0  0
  141.0170   74.8010  220.3760 N   0  0  0  0  0  0  0  0  0  0  0  0
  140.1160   74.4980  221.4020 C   0  0  0  0  0  0  0  0  0  0  0  0
  140.0200   75.3870  222.3380 O   0  0  0  0  0  0  0  0  0  0  0  0
  139.2650   73.3310  221.5870 C   0  0  0  0  0  0  0  0  0  0  0  0
  139.4160   72.5410  222.7600 N   0  0  0  0  0  0  0  0  0  0  0  0
  139.3590   71.1070  222.6060 C   0  0  0  0  0  0  0  0  0  0  0  0
  139.1840   70.5510  221.5070 O   0  0  0  0  0  0  0  0  0  0  0  0
  139.5190   70.3050  223.8280 C   0  0  0  0  0  0  0  0  0  0  0  0
  139.0880   68.9950  223.8560 C   0  0  0  0  0  0  0  0  0  0  0  0
  139.2220   68.2040  224.9930 C   0  0  0  0  0  0  0  0  0  0  0  0
  139.7970   68.7400  226.1130 C   0  0  0  0  0  0  0  0  0  0  0  0
  139.9840   68.0610  227.2950 C   0  0  0  0  0  0  0  0  0  0  0  0
  140.5700   68.6530  228.3920 C   0  0  0  0  0  0  0  0  0  0  0  0
  140.9960   69.9650  228.3450 C   0  0  0  0  0  0  0  0  0  0  0  0
  140.8100   70.6590  227.1540 C   0  0  0  0  0  0  0  0  0  0  0  0
  140.2170   70.0520  226.0510 C   0  0  0  0  0  0  0  0  0  0  0  0
  140.0750   70.7950  224.9400 N   0  0  0  0  0  0  0  0  0  0  0  0
  141.6580   76.0710  220.0370 C   0  0  1  0  0  0  0  0  0  0  0  0
  141.2700   77.2470  220.7570 C   0  0  0  0  0  0  0  0  0  0  0  0
  140.0470   77.4830  220.9670 O   0  0  0  0  0  0  0  0  0  0  0  0
  142.2000   78.1730  221.2610 N   0  0  0  0  0  0  0  0  0  0  0  0
  141.7300   79.3310  221.9700 C   0  0  0  0  0  0  0  0  0  0  0  0
  141.8200   80.6140  221.2050 C   0  0  0  0  0  0  0  0  0  0  0  0
  141.4060   81.6150  222.2870 C   0  0  0  0  0  0  0  0  0  0  0  0
  141.8710   80.9870  223.5960 C   0  0  0  0  0  0  0  0  0  0  0  0
  142.4850   79.6490  223.2260 C   0  0  0  0  0  0  0  0  0  0  0  0
  144.2890   76.3260  218.6210 H   0  0  0  0  0  0  0  0  0  0  0  0
  143.5020   77.5720  219.5410 H   0  0  0  0  0  0  0  0  0  0  0  0
  143.4952   75.4807  221.1065 H   0  0  0  0  0  0  0  0  0  0  0  0
  143.2775   74.6655  218.1632 H   0  0  0  0  0  0  0  0  0  0  0  0
  143.7572   73.6389  219.5137 H   0  0  0  0  0  0  0  0  0  0  0  0
  141.0336   74.0473  218.3687 H   0  0  0  0  0  0  0  0  0  0  0  0
  141.4866   72.8457  219.5538 H   0  0  0  0  0  0  0  0  0  0  0  0
  138.2241   73.6865  221.5707 H   0  0  0  0  0  0  0  0  0  0  0  0
  139.5690   72.6542  220.7749 H   0  0  0  0  0  0  0  0  0  0  0  0
  139.5660   72.9410  223.7320 H   0  0  0  0  0  0  0  0  0  0  0  0
  138.6260   68.5641  222.9555 H   0  0  0  0  0  0  0  0  0  0  0  0
  138.8704   67.1617  224.9914 H   0  0  0  0  0  0  0  0  0  0  0  0
  139.6555   67.0136  227.3661 H   0  0  0  0  0  0  0  0  0  0  0  0
  140.7002   68.0727  229.3174 H   0  0  0  0  0  0  0  0  0  0  0  0
  141.4652   70.4440  229.2170 H   0  0  0  0  0  0  0  0  0  0  0  0
  141.1376   71.7067  227.0827 H   0  0  0  0  0  0  0  0  0  0  0  0
  141.3438   76.4825  219.0665 H   0  0  0  0  0  0  0  0  0  0  0  0
  143.2490   78.0720  221.1720 H   0  0  0  0  0  0  0  0  0  0  0  0
  140.6918   79.0239  222.1647 H   0  0  0  0  0  0  0  0  0  0  0  0
  142.8431   80.8026  220.8476 H   0  0  0  0  0  0  0  0  0  0  0  0
  141.2072   80.6468  220.2921 H   0  0  0  0  0  0  0  0  0  0  0  0
  141.8985   82.5854  222.1262 H   0  0  0  0  0  0  0  0  0  0  0  0
  140.3233   81.8093  222.2809 H   0  0  0  0  0  0  0  0  0  0  0  0
  142.6198   81.6292  224.0827 H   0  0  0  0  0  0  0  0  0  0  0  0
  141.0363   80.8648  224.3020 H   0  0  0  0  0  0  0  0  0  0  0  0
  143.5651   79.7375  223.0376 H   0  0  0  0  0  0  0  0  0  0  0  0
  142.4092   78.8809  224.0097 H   0  0  0  0  0  0  0  0  0  0  0  0
  1  2  1  0
  2  3  1  0
  3  4  1  0
  4  5  1  0
  5  6  1  0
  6  7  2  0
  6  8  1  0
  8  9  1  0
  9 10  1  0
 10 11  2  0
 10 12  1  0
 12 13  2  0
 13 14  1  0
 14 15  2  0
 15 16  1  0
 16 17  2  0
 17 18  1  0
 18 19  2  0
 19 20  1  0
 20 21  2  0
  5 22  1  0
 22 23  1  0
 23 24  2  0
 23 25  1  0
 25 26  1  0
 26 27  1  0
 27 28  1  0
 28 29  1  0
 29 30  1  0
 22  2  1  0
 30 26  1  0
 21 12  1  0
 20 15  1  0
  1 31  1  0
  1 32  1  0
  2 33  1  1
  3 34  1  0
  3 35  1  0
  4 36  1  0
  4 37  1  0
  8 38  1  0
  8 39  1  0
  9 40  1  0
 13 41  1  0
 14 42  1  0
 16 43  1  0
 17 44  1  0
 18 45  1  0
 19 46  1  0
 22 47  1  6
 25 48  1  0
 26 49  1  0
 27 50  1  0
 27 51  1  0
 28 52  1  0
 28 53  1  0
 29 54  1  0
 29 55  1  0
 30 56  1  0
 30 57  1  0
M  END
>  <smiles>  (21) 
N[C@@H]1CCN(C(=O)CNC(=O)c2ccc3ccccc3n2)[C@H]1C(=O)NC1CCCC1

>  <score_type>  (21) 
oracle

>  <origin>  (21) 
autodockgpu

>  <m_score__min__energy>  (21) 
-9.6600000000000001

>  <m_primary>  (21) 
energy

>  <rmsd>  (21) 
1.9749490180933083

>  <m_score__min__rmsd>  (21) 
1.9749490180933083

>  <meeko>  (21) 
{"free_energy": -9.3, "intermolecular_energy": -11.38, "internal_energy": -1.99, "cluster_size": 24, "cluster_id": 1, "rank_in_cluster": 3}

>  <energy>  (21) 
-7.82

>  <cluster_rmsd>  (21) 
1.91

>  <cluster>  (21) 
1

$$$$

     RDKit          3D

 57 60  0  0  0  0  0  0  0  0999 V2000
  146.1280   74.0590  220.4640 N   0  0  0  0  0  0  0  0  0  0  0  0
  144.8210   73.4730  220.5570 C   0  0  2  0  0  0  0  0  0  0  0  0
  144.8050   72.0150  220.1000 C   0  0  0  0  0  0  0  0  0  0  0  0
  143.4260   71.8280  219.4230 C   0  0  0  0  0  0  0  0  0  0  0  0
  142.7460   73.1160  219.7160 N   0  0  0  0  0  0  0  0  0  0  0  0
  141.4070   73.3570  220.0380 C   0  0  0  0  0  0  0  0  0  0  0  0
  140.5600   73.1540  219.0800 O   0  0  0  0  0  0  0  0  0  0  0  0
  140.8090   73.8060  221.2880 C   0  0  0  0  0  0  0  0  0  0  0  0
  141.0390   75.1390  221.7270 N   0  0  0  0  0  0  0  0  0  0  0  0
  139.8800   75.9510  222.0140 C   0  0  0  0  0  0  0  0  0  0  0  0
  138.7140   75.5330  221.8920 O   0  0  0  0  0  0  0  0  0  0  0  0
  140.1330   77.3260  222.4680 C   0  0  0  0  0  0  0  0  0  0  0  0
  139.0780   78.1530  222.7910 C   0  0  0  0  0  0  0  0  0  0  0  0
  139.2770   79.4600  223.2240 C   0  0  0  0  0  0  0  0  0  0  0  0
  140.5540   79.9370  223.3340 C   0  0  0  0  0  0  0  0  0  0  0  0
  140.8780   81.2080  223.7510 C   0  0  0  0  0  0  0  0  0  0  0  0
  142.1850   81.6350  223.8420 C   0  0  0  0  0  0  0  0  0  0  0  0
  143.2290   80.7930  223.5160 C   0  0  0  0  0  0  0  0  0  0  0  0
  142.9090   79.5070  223.0940 C   0  0  0  0  0  0  0  0  0  0  0  0
  141.5860   79.0850  223.0050 C   0  0  0  0  0  0  0  0  0  0  0  0
  141.3660   77.8260  222.5870 N   0  0  0  0  0  0  0  0  0  0  0  0
  143.8570   74.0550  219.5620 C   0  0  1  0  0  0  0  0  0  0  0  0
  143.5810   75.4590  219.6320 C   0  0  0  0  0  0  0  0  0  0  0  0
  144.4520   76.2500  220.0890 O   0  0  0  0  0  0  0  0  0  0  0  0
  142.3640   76.0190  219.2030 N   0  0  0  0  0  0  0  0  0  0  0  0
  142.1630   77.4370  219.3100 C   0  0  0  0  0  0  0  0  0  0  0  0
  140.7290   77.8660  219.3510 C   0  0  0  0  0  0  0  0  0  0  0  0
  140.8900   79.3870  219.3000 C   0  0  0  0  0  0  0  0  0  0  0  0
  142.1680   79.6170  218.5010 C   0  0  0  0  0  0  0  0  0  0  0  0
  142.7080   78.2370  218.1660 C   0  0  0  0  0  0  0  0  0  0  0  0
  146.0670   74.8380  219.7650 H   0  0  0  0  0  0  0  0  0  0  0  0
  146.4360   74.3890  221.4030 H   0  0  0  0  0  0  0  0  0  0  0  0
  144.5552   73.6361  221.6119 H   0  0  0  0  0  0  0  0  0  0  0  0
  145.6175   71.8246  219.3834 H   0  0  0  0  0  0  0  0  0  0  0  0
  144.9553   71.3161  220.9361 H   0  0  0  0  0  0  0  0  0  0  0  0
  143.5331   71.6727  218.3393 H   0  0  0  0  0  0  0  0  0  0  0  0
  142.8746   70.9486  219.7871 H   0  0  0  0  0  0  0  0  0  0  0  0
  139.7205   73.6845  221.1856 H   0  0  0  0  0  0  0  0  0  0  0  0
  141.3051   73.1894  222.0520 H   0  0  0  0  0  0  0  0  0  0  0  0
  142.0020   75.5680  221.8540 H   0  0  0  0  0  0  0  0  0  0  0  0
  138.0510   77.7688  222.7039 H   0  0  0  0  0  0  0  0  0  0  0  0
  138.4189   80.1011  223.4745 H   0  0  0  0  0  0  0  0  0  0  0  0
  140.0695   81.9037  224.0197 H   0  0  0  0  0  0  0  0  0  0  0  0
  142.3991   82.6601  224.1788 H   0  0  0  0  0  0  0  0  0  0  0  0
  144.2748   81.1266  223.5873 H   0  0  0  0  0  0  0  0  0  0  0  0
  143.7169   78.8104  222.8255 H   0  0  0  0  0  0  0  0  0  0  0  0
  144.2476   74.1168  218.5355 H   0  0  0  0  0  0  0  0  0  0  0  0
  141.5700   75.4630  218.7800 H   0  0  0  0  0  0  0  0  0  0  0  0
  142.6921   77.6316  220.2545 H   0  0  0  0  0  0  0  0  0  0  0  0
  140.1673   77.4880  218.4840 H   0  0  0  0  0  0  0  0  0  0  0  0
  140.1644   77.4941  220.2188 H   0  0  0  0  0  0  0  0  0  0  0  0
  140.0293   79.8511  218.7962 H   0  0  0  0  0  0  0  0  0  0  0  0
  140.9423   79.8328  220.3042 H   0  0  0  0  0  0  0  0  0  0  0  0
  141.9469   80.1748  217.5791 H   0  0  0  0  0  0  0  0  0  0  0  0
  142.8992   80.2074  219.0727 H   0  0  0  0  0  0  0  0  0  0  0  0
  142.3246   77.8757  217.2004 H   0  0  0  0  0  0  0  0  0  0  0  0
  143.8016   78.1899  218.0574 H   0  0  0  0  0  0  0  0  0  0  0  0
  1  2  1  0
  2  3  1  0
  3  4  1  0
  4  5  1  0
  5  6  1  0
  6  7  2  0
  6  8  1  0
  8  9  1  0
  9 10  1  0
 10 11  2  0
 10 12  1  0
 12 13  2  0
 13 14  1  0
 14 15  2  0
 15 16  1  0
 16 17  2  0
 17 18  1  0
 18 19  2  0
 19 20  1  0
 20 21  2  0
  5 22  1  0
 22 23  1  0
 23 24  2  0
 23 25  1  0
 25 26  1  0
 26 27  1  0
 27 28  1  0
 28 29  1  0
 29 30  1  0
 22  2  1  0
 30 26  1  0
 21 12  1  0
 20 15  1  0
  1 31  1  0
  1 32  1  0
  2 33  1  1
  3 34  1  0
  3 35  1  0
  4 36  1  0
  4 37  1  0
  8 38  1  0
  8 39  1  0
  9 40  1  0
 13 41  1  0
 14 42  1  0
 16 43  1  0
 17 44  1  0
 18 45  1  0
 19 46  1  0
 22 47  1  6
 25 48  1  0
 26 49  1  0
 27 50  1  0
 27 51  1  0
 28 52  1  0
 28 53  1  0
 29 54  1  0
 29 55  1  0
 30 56  1  0
 30 57  1  0
M  END
>  <smiles>  (22) 
N[C@@H]1CCN(C(=O)CNC(=O)c2ccc3ccccc3n2)[C@H]1C(=O)NC1CCCC1

>  <score_type>  (22) 
oracle

>  <origin>  (22) 
autodockgpu

>  <m_score__min__energy>  (22) 
-9.6600000000000001

>  <m_primary>  (22) 
energy

>  <rmsd>  (22) 
7.076395026850527

>  <m_score__min__rmsd>  (22) 
7.076395026850527

>  <meeko>  (22) 
{"free_energy": -7.26, "intermolecular_energy": -9.35, "internal_energy": -3.92, "cluster_size": 7, "cluster_id": 3, "rank_in_cluster": 5}

>  <energy>  (22) 
-7.38

>  <cluster_rmsd>  (22) 
1.91

>  <cluster>  (22) 
1

$$$$

     RDKit          3D

 57 60  0  0  0  0  0  0  0  0999 V2000
  146.1780   74.1940  220.4470 N   0  0  0  0  0  0  0  0  0  0  0  0
  144.8940   73.5610  220.5470 C   0  0  2  0  0  0  0  0  0  0  0  0
  144.9310   72.1010  220.1010 C   0  0  0  0  0  0  0  0  0  0  0  0
  143.5600   71.8570  219.4270 C   0  0  0  0  0  0  0  0  0  0  0  0
  142.8330   73.1220  219.7120 N   0  0  0  0  0  0  0  0  0  0  0  0
  141.4860   73.3160  220.0340 C   0  0  0  0  0  0  0  0  0  0  0  0
  140.6460   73.0850  219.0750 O   0  0  0  0  0  0  0  0  0  0  0  0
  140.8730   73.7410  221.2850 C   0  0  0  0  0  0  0  0  0  0  0  0
  141.0920   75.0680  221.7470 N   0  0  0  0  0  0  0  0  0  0  0  0
  139.9330   75.9140  221.9060 C   0  0  0  0  0  0  0  0  0  0  0  0
  138.7760   75.5310  221.6570 O   0  0  0  0  0  0  0  0  0  0  0  0
  140.1760   77.2820  222.3880 C   0  0  0  0  0  0  0  0  0  0  0  0
  139.1140   78.0860  222.7480 C   0  0  0  0  0  0  0  0  0  0  0  0
  139.3030   79.3860  223.2080 C   0  0  0  0  0  0  0  0  0  0  0  0
  140.5750   79.8790  223.3060 C   0  0  0  0  0  0  0  0  0  0  0  0
  140.8890   81.1450  223.7450 C   0  0  0  0  0  0  0  0  0  0  0  0
  142.1910   81.5890  223.8230 C   0  0  0  0  0  0  0  0  0  0  0  0
  143.2410   80.7700  223.4580 C   0  0  0  0  0  0  0  0  0  0  0  0
  142.9320   79.4890  223.0130 C   0  0  0  0  0  0  0  0  0  0  0  0
  141.6130   79.0500  222.9380 C   0  0  0  0  0  0  0  0  0  0  0  0
  141.4030   77.7980  222.4960 N   0  0  0  0  0  0  0  0  0  0  0  0
  143.9070   74.1000  219.5490 C   0  0  1  0  0  0  0  0  0  0  0  0
  143.5800   75.4930  219.6090 C   0  0  0  0  0  0  0  0  0  0  0  0
  144.4250   76.3200  220.0510 O   0  0  0  0  0  0  0  0  0  0  0  0
  142.3400   76.0030  219.1850 N   0  0  0  0  0  0  0  0  0  0  0  0
  142.0870   77.4140  219.2810 C   0  0  0  0  0  0  0  0  0  0  0  0
  140.6430   77.8000  219.1930 C   0  0  0  0  0  0  0  0  0  0  0  0
  140.7620   79.3260  219.1660 C   0  0  0  0  0  0  0  0  0  0  0  0
  142.1010   79.6000  218.4890 C   0  0  0  0  0  0  0  0  0  0  0  0
  142.7110   78.2400  218.1970 C   0  0  0  0  0  0  0  0  0  0  0  0
  146.4830   74.1170  219.4480 H   0  0  0  0  0  0  0  0  0  0  0  0
  146.1120   75.1830  220.7690 H   0  0  0  0  0  0  0  0  0  0  0  0
  144.6241   73.7219  221.6012 H   0  0  0  0  0  0  0  0  0  0  0  0
  145.7494   71.9355  219.3849 H   0  0  0  0  0  0  0  0  0  0  0  0
  145.1072   71.4148  220.9425 H   0  0  0  0  0  0  0  0  0  0  0  0
  143.6718   71.6978  218.3443 H   0  0  0  0  0  0  0  0  0  0  0  0
  143.0421   70.9600  219.7975 H   0  0  0  0  0  0  0  0  0  0  0  0
  139.7863   73.6156  221.1698 H   0  0  0  0  0  0  0  0  0  0  0  0
  141.3639   73.1143  222.0441 H   0  0  0  0  0  0  0  0  0  0  0  0
  142.0480   75.4690  221.9800 H   0  0  0  0  0  0  0  0  0  0  0  0
  138.0911   77.6891  222.6694 H   0  0  0  0  0  0  0  0  0  0  0  0
  138.4408   80.0086  223.4890 H   0  0  0  0  0  0  0  0  0  0  0  0
  140.0757   81.8231  224.0427 H   0  0  0  0  0  0  0  0  0  0  0  0
  142.3965   82.6088  224.1806 H   0  0  0  0  0  0  0  0  0  0  0  0
  144.2829   81.1177  223.5169 H   0  0  0  0  0  0  0  0  0  0  0  0
  143.7447   78.8103  222.7149 H   0  0  0  0  0  0  0  0  0  0  0  0
  144.2927   74.1690  218.5212 H   0  0  0  0  0  0  0  0  0  0  0  0
  141.5640   75.4150  218.7740 H   0  0  0  0  0  0  0  0  0  0  0  0
  142.5211   77.6161  220.2713 H   0  0  0  0  0  0  0  0  0  0  0  0
  140.1746   77.4131  218.2760 H   0  0  0  0  0  0  0  0  0  0  0  0
  140.0130   77.4041  220.0031 H   0  0  0  0  0  0  0  0  0  0  0  0
  139.9376   79.7689  218.5879 H   0  0  0  0  0  0  0  0  0  0  0  0
  140.7083   79.7647  220.1733 H   0  0  0  0  0  0  0  0  0  0  0  0
  141.9488   80.1589  217.5539 H   0  0  0  0  0  0  0  0  0  0  0  0
  142.7585   80.2065  219.1292 H   0  0  0  0  0  0  0  0  0  0  0  0
  142.4295   77.8761  217.1978 H   0  0  0  0  0  0  0  0  0  0  0  0
  143.8109   78.2262  218.1897 H   0  0  0  0  0  0  0  0  0  0  0  0
  1  2  1  0
  2  3  1  0
  3  4  1  0
  4  5  1  0
  5  6  1  0
  6  7  2  0
  6  8  1  0
  8  9  1  0
  9 10  1  0
 10 11  2  0
 10 12  1  0
 12 13  2  0
 13 14  1  0
 14 15  2  0
 15 16  1  0
 16 17  2  0
 17 18  1  0
 18 19  2  0
 19 20  1  0
 20 21  2  0
  5 22  1  0
 22 23  1  0
 23 24  2  0
 23 25  1  0
 25 26  1  0
 26 27  1  0
 27 28  1  0
 28 29  1  0
 29 30  1  0
 22  2  1  0
 30 26  1  0
 21 12  1  0
 20 15  1  0
  1 31  1  0
  1 32  1  0
  2 33  1  1
  3 34  1  0
  3 35  1  0
  4 36  1  0
  4 37  1  0
  8 38  1  0
  8 39  1  0
  9 40  1  0
 13 41  1  0
 14 42  1  0
 16 43  1  0
 17 44  1  0
 18 45  1  0
 19 46  1  0
 22 47  1  6
 25 48  1  0
 26 49  1  0
 27 50  1  0
 27 51  1  0
 28 52  1  0
 28 53  1  0
 29 54  1  0
 29 55  1  0
 30 56  1  0
 30 57  1  0
M  END
>  <smiles>  (23) 
N[C@@H]1CCN(C(=O)CNC(=O)c2ccc3ccccc3n2)[C@H]1C(=O)NC1CCCC1

>  <score_type>  (23) 
oracle

>  <origin>  (23) 
autodockgpu

>  <m_score__min__energy>  (23) 
-9.6600000000000001

>  <m_primary>  (23) 
energy

>  <rmsd>  (23) 
7.068379587621058

>  <m_score__min__rmsd>  (23) 
7.068379587621058

>  <meeko>  (23) 
{"free_energy": -7.37, "intermolecular_energy": -9.45, "internal_energy": -3.97, "cluster_size": 7, "cluster_id": 3, "rank_in_cluster": 3}

>  <energy>  (23) 
-7.06

>  <cluster_rmsd>  (23) 
1.87

>  <cluster>  (23) 
1

$$$$

     RDKit          3D

 57 60  0  0  0  0  0  0  0  0999 V2000
  143.9460   76.7550  219.5530 N   0  0  0  0  0  0  0  0  0  0  0  0
  143.0640   75.7490  220.0720 C   0  0  2  0  0  0  0  0  0  0  0  0
  142.9820   74.5230  219.1650 C   0  0  0  0  0  0  0  0  0  0  0  0
  141.5200   74.0340  219.2910 C   0  0  0  0  0  0  0  0  0  0  0  0
  140.9810   74.9040  220.3690 N   0  0  0  0  0  0  0  0  0  0  0  0
  140.0940   74.5870  221.4020 C   0  0  0  0  0  0  0  0  0  0  0  0
  140.0150   75.4610  222.3550 O   0  0  0  0  0  0  0  0  0  0  0  0
  139.2380   73.4220  221.5780 C   0  0  0  0  0  0  0  0  0  0  0  0
  139.3860   72.6240  222.7460 N   0  0  0  0  0  0  0  0  0  0  0  0
  139.4210   71.1920  222.5700 C   0  0  0  0  0  0  0  0  0  0  0  0
  139.3250   70.6440  221.4560 O   0  0  0  0  0  0  0  0  0  0  0  0
  139.5770   70.3800  223.7860 C   0  0  0  0  0  0  0  0  0  0  0  0
  139.1460   69.0700  223.8030 C   0  0  0  0  0  0  0  0  0  0  0  0
  139.2760   68.2710  224.9340 C   0  0  0  0  0  0  0  0  0  0  0  0
  139.8470   68.7980  226.0600 C   0  0  0  0  0  0  0  0  0  0  0  0
  140.0300   68.1100  227.2370 C   0  0  0  0  0  0  0  0  0  0  0  0
  140.6120   68.6940  228.3410 C   0  0  0  0  0  0  0  0  0  0  0  0
  141.0380   70.0060  228.3060 C   0  0  0  0  0  0  0  0  0  0  0  0
  140.8560   70.7090  227.1190 C   0  0  0  0  0  0  0  0  0  0  0  0
  140.2670   70.1100  226.0090 C   0  0  0  0  0  0  0  0  0  0  0  0
  140.1290   70.8610  224.9030 N   0  0  0  0  0  0  0  0  0  0  0  0
  141.6230   76.1760  220.0420 C   0  0  1  0  0  0  0  0  0  0  0  0
  141.2490   77.3420  220.7850 C   0  0  0  0  0  0  0  0  0  0  0  0
  140.0290   77.5850  221.0050 O   0  0  0  0  0  0  0  0  0  0  0  0
  142.1890   78.2510  221.3020 N   0  0  0  0  0  0  0  0  0  0  0  0
  141.7330   79.3990  222.0340 C   0  0  0  0  0  0  0  0  0  0  0  0
  140.9000   79.0860  223.2380 C   0  0  0  0  0  0  0  0  0  0  0  0
  140.4720   80.4940  223.6560 C   0  0  0  0  0  0  0  0  0  0  0  0
  140.4140   81.2870  222.3550 C   0  0  0  0  0  0  0  0  0  0  0  0
  140.8480   80.3290  221.2600 C   0  0  0  0  0  0  0  0  0  0  0  0
  143.3880   77.6370  219.4620 H   0  0  0  0  0  0  0  0  0  0  0  0
  144.7670   76.8660  220.1840 H   0  0  0  0  0  0  0  0  0  0  0  0
  143.4732   75.5614  221.0757 H   0  0  0  0  0  0  0  0  0  0  0  0
  143.2110   74.7953  218.1241 H   0  0  0  0  0  0  0  0  0  0  0  0
  143.7055   73.7457  219.4518 H   0  0  0  0  0  0  0  0  0  0  0  0
  140.9696   74.1801  218.3499 H   0  0  0  0  0  0  0  0  0  0  0  0
  141.4346   72.9596  219.5110 H   0  0  0  0  0  0  0  0  0  0  0  0
  138.1985   73.7815  221.5636 H   0  0  0  0  0  0  0  0  0  0  0  0
  139.5389   72.7496  220.7611 H   0  0  0  0  0  0  0  0  0  0  0  0
  139.4720   73.0160  223.7290 H   0  0  0  0  0  0  0  0  0  0  0  0
  138.6871   68.6457  222.8978 H   0  0  0  0  0  0  0  0  0  0  0  0
  138.9242   67.2288  224.9233 H   0  0  0  0  0  0  0  0  0  0  0  0
  139.7018   67.0619  227.2987 H   0  0  0  0  0  0  0  0  0  0  0  0
  140.7387   68.1066  229.2624 H   0  0  0  0  0  0  0  0  0  0  0  0
  141.5039   70.4784  229.1834 H   0  0  0  0  0  0  0  0  0  0  0  0
  141.1836   71.7572  227.0566 H   0  0  0  0  0  0  0  0  0  0  0  0
  141.2978   76.6041  219.0823 H   0  0  0  0  0  0  0  0  0  0  0  0
  143.2370   78.1420  221.2050 H   0  0  0  0  0  0  0  0  0  0  0  0
  142.7012   79.8523  222.2931 H   0  0  0  0  0  0  0  0  0  0  0  0
  140.0342   78.4582  222.9805 H   0  0  0  0  0  0  0  0  0  0  0  0
  141.4218   78.5149  224.0200 H   0  0  0  0  0  0  0  0  0  0  0  0
  139.4844   80.4710  224.1399 H   0  0  0  0  0  0  0  0  0  0  0  0
  141.1667   80.9400  224.3830 H   0  0  0  0  0  0  0  0  0  0  0  0
  139.3893   81.6411  222.1688 H   0  0  0  0  0  0  0  0  0  0  0  0
  141.0638   82.1737  222.3948 H   0  0  0  0  0  0  0  0  0  0  0  0
  139.9892   79.7994  220.8218 H   0  0  0  0  0  0  0  0  0  0  0  0
  141.3359   80.8114  220.4002 H   0  0  0  0  0  0  0  0  0  0  0  0
  1  2  1  0
  2  3  1  0
  3  4  1  0
  4  5  1  0
  5  6  1  0
  6  7  2  0
  6  8  1  0
  8  9  1  0
  9 10  1  0
 10 11  2  0
 10 12  1  0
 12 13  2  0
 13 14  1  0
 14 15  2  0
 15 16  1  0
 16 17  2  0
 17 18  1  0
 18 19  2  0
 19 20  1  0
 20 21  2  0
  5 22  1  0
 22 23  1  0
 23 24  2  0
 23 25  1  0
 25 26  1  0
 26 27  1  0
 27 28  1  0
 28 29  1  0
 29 30  1  0
 22  2  1  0
 30 26  1  0
 21 12  1  0
 20 15  1  0
  1 31  1  0
  1 32  1  0
  2 33  1  1
  3 34  1  0
  3 35  1  0
  4 36  1  0
  4 37  1  0
  8 38  1  0
  8 39  1  0
  9 40  1  0
 13 41  1  0
 14 42  1  0
 16 43  1  0
 17 44  1  0
 18 45  1  0
 19 46  1  0
 22 47  1  6
 25 48  1  0
 26 49  1  0
 27 50  1  0
 27 51  1  0
 28 52  1  0
 28 53  1  0
 29 54  1  0
 29 55  1  0
 30 56  1  0
 30 57  1  0
M  END
>  <smiles>  (24) 
N[C@@H]1CCN(C(=O)CNC(=O)c2ccc3ccccc3n2)[C@H]1C(=O)NC1CCCC1

>  <score_type>  (24) 
oracle

>  <origin>  (24) 
autodockgpu

>  <m_score__min__energy>  (24) 
-9.6600000000000001

>  <m_primary>  (24) 
energy

>  <rmsd>  (24) 
2.0959512607139232

>  <m_score__min__rmsd>  (24) 
2.0959512607139232

>  <meeko>  (24) 
{"free_energy": -9.0, "intermolecular_energy": -11.08, "internal_energy": -1.97, "cluster_size": 24, "cluster_id": 1, "rank_in_cluster": 10}

>  <energy>  (24) 
-7.06

>  <cluster_rmsd>  (24) 
1.97

>  <cluster>  (24) 
1

$$$$

     RDKit          3D

 57 60  0  0  0  0  0  0  0  0999 V2000
  146.4470   73.6520  219.6110 N   0  0  0  0  0  0  0  0  0  0  0  0
  145.1720   73.0550  219.8910 C   0  0  2  0  0  0  0  0  0  0  0  0
  145.0580   71.6390  219.3280 C   0  0  0  0  0  0  0  0  0  0  0  0
  143.5780   71.5030  218.8980 C   0  0  0  0  0  0  0  0  0  0  0  0
  142.9760   72.7600  219.4130 N   0  0  0  0  0  0  0  0  0  0  0  0
  141.7190   72.9680  219.9900 C   0  0  0  0  0  0  0  0  0  0  0  0
  140.7070   72.6930  219.2310 O   0  0  0  0  0  0  0  0  0  0  0  0
  141.3660   73.4510  221.3180 C   0  0  0  0  0  0  0  0  0  0  0  0
  141.4180   74.8470  221.5840 N   0  0  0  0  0  0  0  0  0  0  0  0
  140.2120   75.4730  222.0720 C   0  0  0  0  0  0  0  0  0  0  0  0
  139.1530   74.8480  222.2610 O   0  0  0  0  0  0  0  0  0  0  0  0
  140.2820   76.9160  222.3450 C   0  0  0  0  0  0  0  0  0  0  0  0
  139.1300   77.6760  222.3480 C   0  0  0  0  0  0  0  0  0  0  0  0
  139.1560   79.0440  222.6020 C   0  0  0  0  0  0  0  0  0  0  0  0
  140.3550   79.6520  222.8550 C   0  0  0  0  0  0  0  0  0  0  0  0
  140.5080   80.9930  223.1190 C   0  0  0  0  0  0  0  0  0  0  0  0
  141.7430   81.5520  223.3680 C   0  0  0  0  0  0  0  0  0  0  0  0
  142.8850   80.7760  223.3610 C   0  0  0  0  0  0  0  0  0  0  0  0
  142.7380   79.4190  223.0950 C   0  0  0  0  0  0  0  0  0  0  0  0
  141.4860   78.8640  222.8450 C   0  0  0  0  0  0  0  0  0  0  0  0
  141.4340   77.5440  222.5960 N   0  0  0  0  0  0  0  0  0  0  0  0
  144.0500   73.7120  219.1370 C   0  0  1  0  0  0  0  0  0  0  0  0
  143.8060   75.1050  219.3700 C   0  0  0  0  0  0  0  0  0  0  0  0
  144.2280   75.6500  220.4280 O   0  0  0  0  0  0  0  0  0  0  0  0
  143.1110   75.9190  218.4590 N   0  0  0  0  0  0  0  0  0  0  0  0
  142.9050   77.3070  218.7670 C   0  0  0  0  0  0  0  0  0  0  0  0
  141.6190   77.6090  219.4720 C   0  0  0  0  0  0  0  0  0  0  0  0
  141.6610   79.1390  219.4890 C   0  0  0  0  0  0  0  0  0  0  0  0
  142.4360   79.5210  218.2320 C   0  0  0  0  0  0  0  0  0  0  0  0
  142.8420   78.2140  217.5750 C   0  0  0  0  0  0  0  0  0  0  0  0
  146.5100   73.7680  218.5720 H   0  0  0  0  0  0  0  0  0  0  0  0
  146.5340   74.5560  220.1200 H   0  0  0  0  0  0  0  0  0  0  0  0
  145.1030   73.1307  220.9862 H   0  0  0  0  0  0  0  0  0  0  0  0
  145.7261   71.5107  218.4636 H   0  0  0  0  0  0  0  0  0  0  0  0
  145.3486   70.8748  220.0639 H   0  0  0  0  0  0  0  0  0  0  0  0
  143.4865   71.4377  217.8038 H   0  0  0  0  0  0  0  0  0  0  0  0
  143.0916   70.5944  219.2826 H   0  0  0  0  0  0  0  0  0  0  0  0
  140.3343   73.1242  221.5153 H   0  0  0  0  0  0  0  0  0  0  0  0
  142.1493   73.0313  221.9663 H   0  0  0  0  0  0  0  0  0  0  0  0
  142.2810   75.4490  221.4470 H   0  0  0  0  0  0  0  0  0  0  0  0
  138.1657   77.1875  222.1442 H   0  0  0  0  0  0  0  0  0  0  0  0
  138.2244   79.6289  222.5994 H   0  0  0  0  0  0  0  0  0  0  0  0
  139.6178   81.6390  223.1318 H   0  0  0  0  0  0  0  0  0  0  0  0
  141.8198   82.6296  223.5748 H   0  0  0  0  0  0  0  0  0  0  0  0
  143.8742   81.2148  223.5584 H   0  0  0  0  0  0  0  0  0  0  0  0
  143.6276   78.7721  223.0819 H   0  0  0  0  0  0  0  0  0  0  0  0
  144.2493   73.8585  218.0652 H   0  0  0  0  0  0  0  0  0  0  0  0
  142.7330   75.5840  217.5290 H   0  0  0  0  0  0  0  0  0  0  0  0
  143.7885   77.4930  219.3953 H   0  0  0  0  0  0  0  0  0  0  0  0
  140.7507   77.2330  218.9111 H   0  0  0  0  0  0  0  0  0  0  0  0
  141.5199   77.1427  220.4633 H   0  0  0  0  0  0  0  0  0  0  0  0
  140.6432   79.5550  219.4582 H   0  0  0  0  0  0  0  0  0  0  0  0
  142.1316   79.5315  220.4025 H   0  0  0  0  0  0  0  0  0  0  0  0
  141.7987   80.1075  217.5539 H   0  0  0  0  0  0  0  0  0  0  0  0
  143.3132   80.1395  218.4728 H   0  0  0  0  0  0  0  0  0  0  0  0
  142.0889   77.8754  216.8482 H   0  0  0  0  0  0  0  0  0  0  0  0
  143.7744   78.2672  216.9939 H   0  0  0  0  0  0  0  0  0  0  0  0
  1  2  1  0
  2  3  1  0
  3  4  1  0
  4  5  1  0
  5  6  1  0
  6  7  2  0
  6  8  1  0
  8  9  1  0
  9 10  1  0
 10 11  2  0
 10 12  1  0
 12 13  2  0
 13 14  1  0
 14 15  2  0
 15 16  1  0
 16 17  2  0
 17 18  1  0
 18 19  2  0
 19 20  1  0
 20 21  2  0
  5 22  1  0
 22 23  1  0
 23 24  2  0
 23 25  1  0
 25 26  1  0
 26 27  1  0
 27 28  1  0
 28 29  1  0
 29 30  1  0
 22  2  1  0
 30 26  1  0
 21 12  1  0
 20 15  1  0
  1 31  1  0
  1 32  1  0
  2 33  1  1
  3 34  1  0
  3 35  1  0
  4 36  1  0
  4 37  1  0
  8 38  1  0
  8 39  1  0
  9 40  1  0
 13 41  1  0
 14 42  1  0
 16 43  1  0
 17 44  1  0
 18 45  1  0
 19 46  1  0
 22 47  1  6
 25 48  1  0
 26 49  1  0
 27 50  1  0
 27 51  1  0
 28 52  1  0
 28 53  1  0
 29 54  1  0
 29 55  1  0
 30 56  1  0
 30 57  1  0
M  END
>  <smiles>  (25) 
N[C@@H]1CCN(C(=O)CNC(=O)c2ccc3ccccc3n2)[C@H]1C(=O)NC1CCCC1

>  <score_type>  (25) 
oracle

>  <origin>  (25) 
autodockgpu

>  <m_score__min__energy>  (25) 
-9.6600000000000001

>  <m_primary>  (25) 
energy

>  <rmsd>  (25) 
7.139661535816484

>  <m_score__min__rmsd>  (25) 
7.139661535816484

>  <meeko>  (25) 
{"free_energy": -7.65, "intermolecular_energy": -9.74, "internal_energy": -3.63, "cluster_size": 7, "cluster_id": 3, "rank_in_cluster": 2}

>  <energy>  (25) 
-8.09

>  <cluster_rmsd>  (25) 
0.0

>  <cluster>  (25) 
2

$$$$

     RDKit          3D

 57 60  0  0  0  0  0  0  0  0999 V2000
  141.6400   77.6470  217.0110 N   0  0  0  0  0  0  0  0  0  0  0  0
  140.9430   77.2080  218.1870 C   0  0  2  0  0  0  0  0  0  0  0  0
  140.1240   78.3270  218.8270 C   0  0  0  0  0  0  0  0  0  0  0  0
  140.2070   78.0580  220.3480 C   0  0  0  0  0  0  0  0  0  0  0  0
  140.8980   76.7440  220.4050 N   0  0  0  0  0  0  0  0  0  0  0  0
  140.6800   75.6650  221.2670 C   0  0  0  0  0  0  0  0  0  0  0  0
  141.4200   75.6440  222.3300 O   0  0  0  0  0  0  0  0  0  0  0  0
  139.7470   74.5520  221.1570 C   0  0  0  0  0  0  0  0  0  0  0  0
  139.5830   73.6740  222.2640 N   0  0  0  0  0  0  0  0  0  0  0  0
  140.4310   72.5070  222.3160 C   0  0  0  0  0  0  0  0  0  0  0  0
  141.2810   72.2490  221.4440 O   0  0  0  0  0  0  0  0  0  0  0  0
  140.2510   71.6110  223.4670 C   0  0  0  0  0  0  0  0  0  0  0  0
  139.6010   70.4050  223.3090 C   0  0  0  0  0  0  0  0  0  0  0  0
  139.4110   69.5300  224.3740 C   0  0  0  0  0  0  0  0  0  0  0  0
  139.8820   69.8750  225.6120 C   0  0  0  0  0  0  0  0  0  0  0  0
  139.7550   69.0960  226.7390 C   0  0  0  0  0  0  0  0  0  0  0  0
  140.2510   69.4960  227.9610 C   0  0  0  0  0  0  0  0  0  0  0  0
  140.8990   70.7060  228.1010 C   0  0  0  0  0  0  0  0  0  0  0  0
  141.0310   71.4990  226.9650 C   0  0  0  0  0  0  0  0  0  0  0  0
  140.5270   71.0870  225.7350 C   0  0  0  0  0  0  0  0  0  0  0  0
  140.6970   71.9140  224.6890 N   0  0  0  0  0  0  0  0  0  0  0  0
  141.8740   76.9000  219.3270 C   0  0  1  0  0  0  0  0  0  0  0  0
  142.8540   75.8730  219.1370 C   0  0  0  0  0  0  0  0  0  0  0  0
  143.2270   75.5650  217.9710 O   0  0  0  0  0  0  0  0  0  0  0  0
  143.4440   75.1760  220.2070 N   0  0  0  0  0  0  0  0  0  0  0  0
  144.4180   74.1570  219.9340 C   0  0  0  0  0  0  0  0  0  0  0  0
  143.8980   72.7550  220.0090 C   0  0  0  0  0  0  0  0  0  0  0  0
  145.1970   71.9640  219.8330 C   0  0  0  0  0  0  0  0  0  0  0  0
  146.2790   72.8550  220.4330 C   0  0  0  0  0  0  0  0  0  0  0  0
  145.5770   74.1240  220.8840 C   0  0  0  0  0  0  0  0  0  0  0  0
  142.4020   76.9510  216.8280 H   0  0  0  0  0  0  0  0  0  0  0  0
  140.9750   77.7290  216.2150 H   0  0  0  0  0  0  0  0  0  0  0  0
  140.3591   76.3515  217.8191 H   0  0  0  0  0  0  0  0  0  0  0  0
  140.5539   79.3097  218.5834 H   0  0  0  0  0  0  0  0  0  0  0  0
  139.0857   78.3410  218.4641 H   0  0  0  0  0  0  0  0  0  0  0  0
  140.7922   78.8373  220.8582 H   0  0  0  0  0  0  0  0  0  0  0  0
  139.2271   78.0601  220.8478 H   0  0  0  0  0  0  0  0  0  0  0  0
  138.7583   74.9815  220.9378 H   0  0  0  0  0  0  0  0  0  0  0  0
  140.1909   73.9134  220.3791 H   0  0  0  0  0  0  0  0  0  0  0  0
  138.8800   73.8240  223.0450 H   0  0  0  0  0  0  0  0  0  0  0  0
  139.2225   70.1273  222.3142 H   0  0  0  0  0  0  0  0  0  0  0  0
  138.8891   68.5735  224.2230 H   0  0  0  0  0  0  0  0  0  0  0  0
  139.2426   68.1256  226.6624 H   0  0  0  0  0  0  0  0  0  0  0  0
  140.1286   68.8416  228.8367 H   0  0  0  0  0  0  0  0  0  0  0  0
  141.2963   71.0316  229.0737 H   0  0  0  0  0  0  0  0  0  0  0  0
  141.5433   72.4695  227.0407 H   0  0  0  0  0  0  0  0  0  0  0  0
  142.6292   77.6762  219.5197 H   0  0  0  0  0  0  0  0  0  0  0  0
  143.2330   75.3620  221.2260 H   0  0  0  0  0  0  0  0  0  0  0  0
  144.7125   74.4471  218.9146 H   0  0  0  0  0  0  0  0  0  0  0  0
  143.4258   72.5487  220.9808 H   0  0  0  0  0  0  0  0  0  0  0  0
  143.1144   72.5175  219.2745 H   0  0  0  0  0  0  0  0  0  0  0  0
  145.1428   71.0053  220.3695 H   0  0  0  0  0  0  0  0  0  0  0  0
  145.3960   71.7212  218.7788 H   0  0  0  0  0  0  0  0  0  0  0  0
  146.7528   72.3553  221.2908 H   0  0  0  0  0  0  0  0  0  0  0  0
  147.0718   73.0723  219.7021 H   0  0  0  0  0  0  0  0  0  0  0  0
  145.2417   74.0515  221.9292 H   0  0  0  0  0  0  0  0  0  0  0  0
  146.2078   75.0249  220.8641 H   0  0  0  0  0  0  0  0  0  0  0  0
  1  2  1  0
  2  3  1  0
  3  4  1  0
  4  5  1  0
  5  6  1  0
  6  7  2  0
  6  8  1  0
  8  9  1  0
  9 10  1  0
 10 11  2  0
 10 12  1  0
 12 13  2  0
 13 14  1  0
 14 15  2  0
 15 16  1  0
 16 17  2  0
 17 18  1  0
 18 19  2  0
 19 20  1  0
 20 21  2  0
  5 22  1  0
 22 23  1  0
 23 24  2  0
 23 25  1  0
 25 26  1  0
 26 27  1  0
 27 28  1  0
 28 29  1  0
 29 30  1  0
 22  2  1  0
 30 26  1  0
 21 12  1  0
 20 15  1  0
  1 31  1  0
  1 32  1  0
  2 33  1  6
  3 34  1  0
  3 35  1  0
  4 36  1  0
  4 37  1  0
  8 38  1  0
  8 39  1  0
  9 40  1  0
 13 41  1  0
 14 42  1  0
 16 43  1  0
 17 44  1  0
 18 45  1  0
 19 46  1  0
 22 47  1  1
 25 48  1  0
 26 49  1  0
 27 50  1  0
 27 51  1  0
 28 52  1  0
 28 53  1  0
 29 54  1  0
 29 55  1  0
 30 56  1  0
 30 57  1  0
M  END
>  <smiles>  (26) 
N[C@@H]1CCN(C(=O)CNC(=O)c2ccc3ccccc3n2)[C@H]1C(=O)NC1CCCC1

>  <score_type>  (26) 
oracle

>  <origin>  (26) 
autodockgpu

>  <m_score__min__energy>  (26) 
-9.6600000000000001

>  <m_primary>  (26) 
energy

>  <rmsd>  (26) 
4.5873544272281395

>  <m_score__min__rmsd>  (26) 
4.5873544272281395

>  <meeko>  (26) 
{"free_energy": -7.95, "intermolecular_energy": -10.04, "internal_energy": -3.01, "cluster_size": 16, "cluster_id": 2, "rank_in_cluster": 4}

>  <energy>  (26) 
-8.01

>  <cluster_rmsd>  (26) 
0.39

>  <cluster>  (26) 
2

$$$$

     RDKit          3D

 57 60  0  0  0  0  0  0  0  0999 V2000
  142.7120   77.6150  216.9890 N   0  0  0  0  0  0  0  0  0  0  0  0
  141.7920   77.5570  218.0890 C   0  0  2  0  0  0  0  0  0  0  0  0
  141.2300   78.9320  218.4480 C   0  0  0  0  0  0  0  0  0  0  0  0
  141.0600   78.9000  219.9860 C   0  0  0  0  0  0  0  0  0  0  0  0
  141.3670   77.4840  220.3140 N   0  0  0  0  0  0  0  0  0  0  0  0
  140.7710   76.6450  221.2610 C   0  0  0  0  0  0  0  0  0  0  0  0
  141.1970   76.7870  222.4760 O   0  0  0  0  0  0  0  0  0  0  0  0
  139.7410   75.6290  221.0970 C   0  0  0  0  0  0  0  0  0  0  0  0
  139.6790   74.5490  222.0210 N   0  0  0  0  0  0  0  0  0  0  0  0
  140.0380   73.2390  221.5330 C   0  0  0  0  0  0  0  0  0  0  0  0
  140.3910   73.0270  220.3580 O   0  0  0  0  0  0  0  0  0  0  0  0
  139.9720   72.1340  222.5000 C   0  0  0  0  0  0  0  0  0  0  0  0
  139.5060   70.8970  222.1050 C   0  0  0  0  0  0  0  0  0  0  0  0
  139.4270   69.8270  222.9910 C   0  0  0  0  0  0  0  0  0  0  0  0
  139.8240   70.0060  224.2880 C   0  0  0  0  0  0  0  0  0  0  0  0
  139.7940   69.0260  225.2540 C   0  0  0  0  0  0  0  0  0  0  0  0
  140.2070   69.2640  226.5470 C   0  0  0  0  0  0  0  0  0  0  0  0
  140.6710   70.5080  226.9240 C   0  0  0  0  0  0  0  0  0  0  0  0
  140.7040   71.5030  225.9530 C   0  0  0  0  0  0  0  0  0  0  0  0
  140.2850   71.2530  224.6490 C   0  0  0  0  0  0  0  0  0  0  0  0
  140.3500   72.2710  223.7740 N   0  0  0  0  0  0  0  0  0  0  0  0
  142.4670   77.2190  219.3880 C   0  0  1  0  0  0  0  0  0  0  0  0
  143.1550   75.9660  219.4840 C   0  0  0  0  0  0  0  0  0  0  0  0
  143.8400   75.5470  218.5090 O   0  0  0  0  0  0  0  0  0  0  0  0
  143.1150   75.1600  220.6360 N   0  0  0  0  0  0  0  0  0  0  0  0
  143.8300   73.9150  220.6520 C   0  0  0  0  0  0  0  0  0  0  0  0
  145.3140   74.0410  220.4980 C   0  0  0  0  0  0  0  0  0  0  0  0
  145.7110   72.5660  220.3970 C   0  0  0  0  0  0  0  0  0  0  0  0
  144.5120   71.8830  219.7500 C   0  0  0  0  0  0  0  0  0  0  0  0
  143.4680   72.9680  219.5480 C   0  0  0  0  0  0  0  0  0  0  0  0
  143.2500   78.5100  217.0850 H   0  0  0  0  0  0  0  0  0  0  0  0
  143.3290   76.7760  216.9990 H   0  0  0  0  0  0  0  0  0  0  0  0
  141.0491   76.8216  217.7465 H   0  0  0  0  0  0  0  0  0  0  0  0
  141.9309   79.7265  218.1520 H   0  0  0  0  0  0  0  0  0  0  0  0
  140.2827   79.1417  217.9297 H   0  0  0  0  0  0  0  0  0  0  0  0
  141.7666   79.5843  220.4784 H   0  0  0  0  0  0  0  0  0  0  0  0
  140.0641   79.2224  220.3239 H   0  0  0  0  0  0  0  0  0  0  0  0
  138.7705   76.1451  221.1401 H   0  0  0  0  0  0  0  0  0  0  0  0
  140.0007   75.1441  220.1444 H   0  0  0  0  0  0  0  0  0  0  0  0
  139.3870   74.6490  223.0360 H   0  0  0  0  0  0  0  0  0  0  0  0
  139.1884   70.7527  221.0618 H   0  0  0  0  0  0  0  0  0  0  0  0
  139.0504   68.8503  222.6531 H   0  0  0  0  0  0  0  0  0  0  0  0
  139.4296   68.0233  224.9860 H   0  0  0  0  0  0  0  0  0  0  0  0
  140.1663   68.4522  227.2881 H   0  0  0  0  0  0  0  0  0  0  0  0
  141.0024   70.7051  227.9542 H   0  0  0  0  0  0  0  0  0  0  0  0
  141.0679   72.5061  226.2201 H   0  0  0  0  0  0  0  0  0  0  0  0
  143.3732   77.8074  219.5943 H   0  0  0  0  0  0  0  0  0  0  0  0
  142.5980   75.4160  221.5230 H   0  0  0  0  0  0  0  0  0  0  0  0
  143.5364   73.5422  221.6444 H   0  0  0  0  0  0  0  0  0  0  0  0
  145.5819   74.5968  219.5873 H   0  0  0  0  0  0  0  0  0  0  0  0
  145.8130   74.5954  221.3065 H   0  0  0  0  0  0  0  0  0  0  0  0
  146.6081   72.4482  219.7714 H   0  0  0  0  0  0  0  0  0  0  0  0
  145.9550   72.1338  221.3786 H   0  0  0  0  0  0  0  0  0  0  0  0
  144.7985   71.4440  218.7829 H   0  0  0  0  0  0  0  0  0  0  0  0
  144.1269   71.0665  220.3785 H   0  0  0  0  0  0  0  0  0  0  0  0
  143.5631   73.4425  218.5602 H   0  0  0  0  0  0  0  0  0  0  0  0
  142.4281   72.6106  219.5772 H   0  0  0  0  0  0  0  0  0  0  0  0
  1  2  1  0
  2  3  1  0
  3  4  1  0
  4  5  1  0
  5  6  1  0
  6  7  2  0
  6  8  1  0
  8  9  1  0
  9 10  1  0
 10 11  2  0
 10 12  1  0
 12 13  2  0
 13 14  1  0
 14 15  2  0
 15 16  1  0
 16 17  2  0
 17 18  1  0
 18 19  2  0
 19 20  1  0
 20 21  2  0
  5 22  1  0
 22 23  1  0
 23 24  2  0
 23 25  1  0
 25 26  1  0
 26 27  1  0
 27 28  1  0
 28 29  1  0
 29 30  1  0
 22  2  1  0
 30 26  1  0
 21 12  1  0
 20 15  1  0
  1 31  1  0
  1 32  1  0
  2 33  1  6
  3 34  1  0
  3 35  1  0
  4 36  1  0
  4 37  1  0
  8 38  1  0
  8 39  1  0
  9 40  1  0
 13 41  1  0
 14 42  1  0
 16 43  1  0
 17 44  1  0
 18 45  1  0
 19 46  1  0
 22 47  1  1
 25 48  1  0
 26 49  1  0
 27 50  1  0
 27 51  1  0
 28 52  1  0
 28 53  1  0
 29 54  1  0
 29 55  1  0
 30 56  1  0
 30 57  1  0
M  END
>  <smiles>  (27) 
N[C@@H]1CCN(C(=O)CNC(=O)c2ccc3ccccc3n2)[C@H]1C(=O)NC1CCCC1

>  <score_type>  (27) 
oracle

>  <origin>  (27) 
autodockgpu

>  <m_score__min__energy>  (27) 
-9.6600000000000001

>  <m_primary>  (27) 
energy

>  <rmsd>  (27) 
4.799009951340966

>  <m_score__min__rmsd>  (27) 
4.799009951340966

>  <meeko>  (27) 
{"free_energy": -7.42, "intermolecular_energy": -9.51, "internal_energy": -3.26, "cluster_size": 16, "cluster_id": 2, "rank_in_cluster": 15}

>  <energy>  (27) 
-7.99

>  <cluster_rmsd>  (27) 
0.58

>  <cluster>  (27) 
2

$$$$

     RDKit          3D

 57 60  0  0  0  0  0  0  0  0999 V2000
  142.0610   78.4360  221.2170 N   0  0  0  0  0  0  0  0  0  0  0  0
  140.9070   77.6040  221.0290 C   0  0  2  0  0  0  0  0  0  0  0  0
  139.7640   77.9750  221.9710 C   0  0  0  0  0  0  0  0  0  0  0  0
  139.0770   76.6310  222.3100 C   0  0  0  0  0  0  0  0  0  0  0  0
  139.7720   75.6780  221.4060 N   0  0  0  0  0  0  0  0  0  0  0  0
  139.2540   74.5870  220.7010 C   0  0  0  0  0  0  0  0  0  0  0  0
  139.7000   74.4440  219.4940 O   0  0  0  0  0  0  0  0  0  0  0  0
  138.2850   73.5800  221.1120 C   0  0  0  0  0  0  0  0  0  0  0  0
  138.4890   72.8790  222.3320 N   0  0  0  0  0  0  0  0  0  0  0  0
  139.6330   72.0030  222.4090 C   0  0  0  0  0  0  0  0  0  0  0  0
  140.4280   71.8430  221.4650 O   0  0  0  0  0  0  0  0  0  0  0  0
  139.8320   71.2870  223.6780 C   0  0  0  0  0  0  0  0  0  0  0  0
  139.5130   69.9480  223.7740 C   0  0  0  0  0  0  0  0  0  0  0  0
  139.6870   69.2370  224.9570 C   0  0  0  0  0  0  0  0  0  0  0  0
  140.1870   69.8820  226.0540 C   0  0  0  0  0  0  0  0  0  0  0  0
  140.4030   69.2880  227.2770 C   0  0  0  0  0  0  0  0  0  0  0  0
  140.9100   69.9900  228.3490 C   0  0  0  0  0  0  0  0  0  0  0  0
  141.2240   71.3290  228.2350 C   0  0  0  0  0  0  0  0  0  0  0  0
  141.0080   71.9360  227.0020 C   0  0  0  0  0  0  0  0  0  0  0  0
  140.4950   71.2190  225.9250 C   0  0  0  0  0  0  0  0  0  0  0  0
  140.3170   71.8840  224.7700 N   0  0  0  0  0  0  0  0  0  0  0  0
  141.1420   76.1860  221.4720 C   0  0  1  0  0  0  0  0  0  0  0  0
  142.1800   75.4410  220.8250 C   0  0  0  0  0  0  0  0  0  0  0  0
  143.0200   76.0350  220.0920 O   0  0  0  0  0  0  0  0  0  0  0  0
  142.3230   74.0500  220.9700 N   0  0  0  0  0  0  0  0  0  0  0  0
  143.3900   73.3740  220.2850 C   0  0  0  0  0  0  0  0  0  0  0  0
  143.3830   71.8840  220.4290 C   0  0  0  0  0  0  0  0  0  0  0  0
  144.7010   71.5300  219.7360 C   0  0  0  0  0  0  0  0  0  0  0  0
  145.6040   72.7340  219.9780 C   0  0  0  0  0  0  0  0  0  0  0  0
  144.7670   73.7390  220.7510 C   0  0  0  0  0  0  0  0  0  0  0  0
  142.8800   77.7990  221.3650 H   0  0  0  0  0  0  0  0  0  0  0  0
  142.1850   79.0610  220.3930 H   0  0  0  0  0  0  0  0  0  0  0  0
  140.6893   77.7273  219.9578 H   0  0  0  0  0  0  0  0  0  0  0  0
  140.1530   78.4519  222.8828 H   0  0  0  0  0  0  0  0  0  0  0  0
  139.0671   78.6933  221.5145 H   0  0  0  0  0  0  0  0  0  0  0  0
  139.2299   76.3614  223.3654 H   0  0  0  0  0  0  0  0  0  0  0  0
  137.9857   76.6493  222.1729 H   0  0  0  0  0  0  0  0  0  0  0  0
  137.3106   74.0845  221.1901 H   0  0  0  0  0  0  0  0  0  0  0  0
  138.3767   72.7990  220.3428 H   0  0  0  0  0  0  0  0  0  0  0  0
  137.8560   72.9620  223.1800 H   0  0  0  0  0  0  0  0  0  0  0  0
  139.1104   69.4289  222.8917 H   0  0  0  0  0  0  0  0  0  0  0  0
  139.4257   68.1698  225.0092 H   0  0  0  0  0  0  0  0  0  0  0  0
  140.1639   68.2216  227.4022 H   0  0  0  0  0  0  0  0  0  0  0  0
  141.0666   69.4760  229.3088 H   0  0  0  0  0  0  0  0  0  0  0  0
  141.6296   71.8948  229.0867 H   0  0  0  0  0  0  0  0  0  0  0  0
  141.2471   73.0023  226.8759 H   0  0  0  0  0  0  0  0  0  0  0  0
  141.6042   76.0915  222.4657 H   0  0  0  0  0  0  0  0  0  0  0  0
  141.6990   73.4480  221.5760 H   0  0  0  0  0  0  0  0  0  0  0  0
  143.1900   73.7021  219.2543 H   0  0  0  0  0  0  0  0  0  0  0  0
  143.3850   71.5782  221.4856 H   0  0  0  0  0  0  0  0  0  0  0  0
  142.4963   71.3872  220.0083 H   0  0  0  0  0  0  0  0  0  0  0  0
  145.1390   70.6223  220.1768 H   0  0  0  0  0  0  0  0  0  0  0  0
  144.5640   71.3225  218.6645 H   0  0  0  0  0  0  0  0  0  0  0  0
  146.4853   72.4383  220.5661 H   0  0  0  0  0  0  0  0  0  0  0  0
  145.9700   73.1588  219.0317 H   0  0  0  0  0  0  0  0  0  0  0  0
  144.8754   73.6057  221.8375 H   0  0  0  0  0  0  0  0  0  0  0  0
  145.0427   74.7899  220.5789 H   0  0  0  0  0  0  0  0  0  0  0  0
  1  2  1  0
  2  3  1  0
  3  4  1  0
  4  5  1  0
  5  6  1  0
  6  7  2  0
  6  8  1  0
  8  9  1  0
  9 10  1  0
 10 11  2  0
 10 12  1  0
 12 13  2  0
 13 14  1  0
 14 15  2  0
 15 16  1  0
 16 17  2  0
 17 18  1  0
 18 19  2  0
 19 20  1  0
 20 21  2  0
  5 22  1  0
 22 23  1  0
 23 24  2  0
 23 25  1  0
 25 26  1  0
 26 27  1  0
 27 28  1  0
 28 29  1  0
 29 30  1  0
 22  2  1  0
 30 26  1  0
 21 12  1  0
 20 15  1  0
  1 31  1  0
  1 32  1  0
  2 33  1  6
  3 34  1  0
  3 35  1  0
  4 36  1  0
  4 37  1  0
  8 38  1  0
  8 39  1  0
  9 40  1  0
 13 41  1  0
 14 42  1  0
 16 43  1  0
 17 44  1  0
 18 45  1  0
 19 46  1  0
 22 47  1  1
 25 48  1  0
 26 49  1  0
 27 50  1  0
 27 51  1  0
 28 52  1  0
 28 53  1  0
 29 54  1  0
 29 55  1  0
 30 56  1  0
 30 57  1  0
M  END
>  <smiles>  (28) 
N[C@@H]1CCN(C(=O)CNC(=O)c2ccc3ccccc3n2)[C@H]1C(=O)NC1CCCC1

>  <score_type>  (28) 
oracle

>  <origin>  (28) 
autodockgpu

>  <m_score__min__energy>  (28) 
-9.6600000000000001

>  <m_primary>  (28) 
energy

>  <rmsd>  (28) 
4.716016821542172

>  <m_score__min__rmsd>  (28) 
4.716016821542172

>  <meeko>  (28) 
{"free_energy": -8.05, "intermolecular_energy": -10.14, "internal_energy": -3.21, "cluster_size": 24, "cluster_id": 1, "rank_in_cluster": 18}

>  <energy>  (28) 
-7.95

>  <cluster_rmsd>  (28) 
0.6

>  <cluster>  (28) 
2

$$$$

     RDKit          3D

 57 60  0  0  0  0  0  0  0  0999 V2000
  142.5130   77.3610  217.2210 N   0  0  0  0  0  0  0  0  0  0  0  0
  141.5940   77.1040  218.2920 C   0  0  2  0  0  0  0  0  0  0  0  0
  140.7980   78.3470  218.6850 C   0  0  0  0  0  0  0  0  0  0  0  0
  140.6040   78.2260  220.2160 C   0  0  0  0  0  0  0  0  0  0  0  0
  141.1420   76.8710  220.5020 N   0  0  0  0  0  0  0  0  0  0  0  0
  140.6790   75.9070  221.4020 C   0  0  0  0  0  0  0  0  0  0  0  0
  141.0170   76.0930  222.6380 O   0  0  0  0  0  0  0  0  0  0  0  0
  139.8730   74.7170  221.1680 C   0  0  0  0  0  0  0  0  0  0  0  0
  139.6470   73.8110  222.2410 N   0  0  0  0  0  0  0  0  0  0  0  0
  140.5440   72.6860  222.3580 C   0  0  0  0  0  0  0  0  0  0  0  0
  141.4850   72.4860  221.5690 O   0  0  0  0  0  0  0  0  0  0  0  0
  140.2990   71.7600  223.4730 C   0  0  0  0  0  0  0  0  0  0  0  0
  139.6360   70.5710  223.2520 C   0  0  0  0  0  0  0  0  0  0  0  0
  139.3860   69.6690  224.2810 C   0  0  0  0  0  0  0  0  0  0  0  0
  139.8090   69.9690  225.5470 C   0  0  0  0  0  0  0  0  0  0  0  0
  139.6200   69.1600  226.6440 C   0  0  0  0  0  0  0  0  0  0  0  0
  140.0690   69.5160  227.8980 C   0  0  0  0  0  0  0  0  0  0  0  0
  140.7310   70.7090  228.1010 C   0  0  0  0  0  0  0  0  0  0  0  0
  140.9250   71.5330  226.9970 C   0  0  0  0  0  0  0  0  0  0  0  0
  140.4680   71.1650  225.7340 C   0  0  0  0  0  0  0  0  0  0  0  0
  140.6970   72.0190  224.7220 N   0  0  0  0  0  0  0  0  0  0  0  0
  142.2900   76.8340  219.5970 C   0  0  1  0  0  0  0  0  0  0  0  0
  143.1810   75.7140  219.6670 C   0  0  0  0  0  0  0  0  0  0  0  0
  143.9290   75.4420  218.6870 O   0  0  0  0  0  0  0  0  0  0  0  0
  143.2740   74.8840  220.7980 N   0  0  0  0  0  0  0  0  0  0  0  0
  144.1900   73.7780  220.7890 C   0  0  0  0  0  0  0  0  0  0  0  0
  145.6340   74.1590  220.6900 C   0  0  0  0  0  0  0  0  0  0  0  0
  146.2790   72.7790  220.5440 C   0  0  0  0  0  0  0  0  0  0  0  0
  145.2310   71.9330  219.8300 C   0  0  0  0  0  0  0  0  0  0  0  0
  144.0240   72.8340  219.6360 C   0  0  0  0  0  0  0  0  0  0  0  0
  142.5550   78.4000  217.0940 H   0  0  0  0  0  0  0  0  0  0  0  0
  143.4430   76.9490  217.4460 H   0  0  0  0  0  0  0  0  0  0  0  0
  140.9950   76.2676  217.9026 H   0  0  0  0  0  0  0  0  0  0  0  0
  141.3584   79.2604  218.4366 H   0  0  0  0  0  0  0  0  0  0  0  0
  139.8395   78.4122  218.1493 H   0  0  0  0  0  0  0  0  0  0  0  0
  141.1727   79.0007  220.7512 H   0  0  0  0  0  0  0  0  0  0  0  0
  139.5608   78.3606  220.5379 H   0  0  0  0  0  0  0  0  0  0  0  0
  138.8862   75.0597  220.8232 H   0  0  0  0  0  0  0  0  0  0  0  0
  140.4703   74.1324  220.4528 H   0  0  0  0  0  0  0  0  0  0  0  0
  138.8660   73.9120  222.9530 H   0  0  0  0  0  0  0  0  0  0  0  0
  139.2956   70.3294  222.2343 H   0  0  0  0  0  0  0  0  0  0  0  0
  138.8552   68.7269  224.0795 H   0  0  0  0  0  0  0  0  0  0  0  0
  139.0955   68.2015  226.5167 H   0  0  0  0  0  0  0  0  0  0  0  0
  139.8970   68.8395  228.7481 H   0  0  0  0  0  0  0  0  0  0  0  0
  141.0922   70.9982  229.0990 H   0  0  0  0  0  0  0  0  0  0  0  0
  141.4486   72.4920  227.1239 H   0  0  0  0  0  0  0  0  0  0  0  0
  143.0776   77.5594  219.8489 H   0  0  0  0  0  0  0  0  0  0  0  0
  142.7190   75.0260  221.6870 H   0  0  0  0  0  0  0  0  0  0  0  0
  143.9379   73.3173  221.7555 H   0  0  0  0  0  0  0  0  0  0  0  0
  145.8273   74.7923  219.8116 H   0  0  0  0  0  0  0  0  0  0  0  0
  146.0098   74.7527  221.5364 H   0  0  0  0  0  0  0  0  0  0  0  0
  147.1993   72.8428  219.9449 H   0  0  0  0  0  0  0  0  0  0  0  0
  146.5672   72.3505  221.5152 H   0  0  0  0  0  0  0  0  0  0  0  0
  145.6137   71.5924  218.8566 H   0  0  0  0  0  0  0  0  0  0  0  0
  144.9737   71.0359  220.4122 H   0  0  0  0  0  0  0  0  0  0  0  0
  144.0636   73.3618  218.6717 H   0  0  0  0  0  0  0  0  0  0  0  0
  143.0596   72.3053  219.6154 H   0  0  0  0  0  0  0  0  0  0  0  0
  1  2  1  0
  2  3  1  0
  3  4  1  0
  4  5  1  0
  5  6  1  0
  6  7  2  0
  6  8  1  0
  8  9  1  0
  9 10  1  0
 10 11  2  0
 10 12  1  0
 12 13  2  0
 13 14  1  0
 14 15  2  0
 15 16  1  0
 16 17  2  0
 17 18  1  0
 18 19  2  0
 19 20  1  0
 20 21  2  0
  5 22  1  0
 22 23  1  0
 23 24  2  0
 23 25  1  0
 25 26  1  0
 26 27  1  0
 27 28  1  0
 28 29  1  0
 29 30  1  0
 22  2  1  0
 30 26  1  0
 21 12  1  0
 20 15  1  0
  1 31  1  0
  1 32  1  0
  2 33  1  6
  3 34  1  0
  3 35  1  0
  4 36  1  0
  4 37  1  0
  8 38  1  0
  8 39  1  0
  9 40  1  0
 13 41  1  0
 14 42  1  0
 16 43  1  0
 17 44  1  0
 18 45  1  0
 19 46  1  0
 22 47  1  1
 25 48  1  0
 26 49  1  0
 27 50  1  0
 27 51  1  0
 28 52  1  0
 28 53  1  0
 29 54  1  0
 29 55  1  0
 30 56  1  0
 30 57  1  0
M  END
>  <smiles>  (29) 
N[C@@H]1CCN(C(=O)CNC(=O)c2ccc3ccccc3n2)[C@H]1C(=O)NC1CCCC1

>  <score_type>  (29) 
oracle

>  <origin>  (29) 
autodockgpu

>  <m_score__min__energy>  (29) 
-9.6600000000000001

>  <m_primary>  (29) 
energy

>  <rmsd>  (29) 
4.727992766403634

>  <m_score__min__rmsd>  (29) 
4.727992766403634

>  <meeko>  (29) 
{"free_energy": -8.01, "intermolecular_energy": -10.1, "internal_energy": -2.96, "cluster_size": 16, "cluster_id": 2, "rank_in_cluster": 2}

>  <energy>  (29) 
-7.89

>  <cluster_rmsd>  (29) 
0.45

>  <cluster>  (29) 
2

$$$$

     RDKit          3D

 57 60  0  0  0  0  0  0  0  0999 V2000
  142.7850   77.5530  217.1960 N   0  0  0  0  0  0  0  0  0  0  0  0
  141.8250   77.3340  218.2400 C   0  0  2  0  0  0  0  0  0  0  0  0
  141.1030   78.6170  218.6450 C   0  0  0  0  0  0  0  0  0  0  0  0
  140.8670   78.4750  220.1670 C   0  0  0  0  0  0  0  0  0  0  0  0
  141.3070   77.0810  220.4330 N   0  0  0  0  0  0  0  0  0  0  0  0
  140.7610   76.1290  221.2990 C   0  0  0  0  0  0  0  0  0  0  0  0
  141.4120   75.9440  222.4030 O   0  0  0  0  0  0  0  0  0  0  0  0
  139.5680   75.3060  221.1550 C   0  0  0  0  0  0  0  0  0  0  0  0
  139.3390   74.2510  222.0810 N   0  0  0  0  0  0  0  0  0  0  0  0
  140.3500   73.2270  222.1820 C   0  0  0  0  0  0  0  0  0  0  0  0
  141.3920   73.2350  221.5010 O   0  0  0  0  0  0  0  0  0  0  0  0
  140.1000   72.1440  223.1450 C   0  0  0  0  0  0  0  0  0  0  0  0
  139.2450   71.1120  222.8180 C   0  0  0  0  0  0  0  0  0  0  0  0
  138.9820   70.0710  223.7020 C   0  0  0  0  0  0  0  0  0  0  0  0
  139.5880   70.0700  224.9290 C   0  0  0  0  0  0  0  0  0  0  0  0
  139.4090   69.0980  225.8860 C   0  0  0  0  0  0  0  0  0  0  0  0
  140.0470   69.1490  227.1070 C   0  0  0  0  0  0  0  0  0  0  0  0
  140.9000   70.1900  227.4160 C   0  0  0  0  0  0  0  0  0  0  0  0
  141.0860   71.1760  226.4530 C   0  0  0  0  0  0  0  0  0  0  0  0
  140.4370   71.1150  225.2230 C   0  0  0  0  0  0  0  0  0  0  0  0
  140.6730   72.1100  224.3510 N   0  0  0  0  0  0  0  0  0  0  0  0
  142.4720   76.9890  219.5530 C   0  0  1  0  0  0  0  0  0  0  0  0
  143.2850   75.8110  219.6150 C   0  0  0  0  0  0  0  0  0  0  0  0
  144.0680   75.5350  218.6640 O   0  0  0  0  0  0  0  0  0  0  0  0
  143.2620   74.9260  220.7080 N   0  0  0  0  0  0  0  0  0  0  0  0
  144.1060   73.7640  220.6930 C   0  0  0  0  0  0  0  0  0  0  0  0
  145.5740   74.0550  220.6570 C   0  0  0  0  0  0  0  0  0  0  0  0
  146.1350   72.6410  220.4870 C   0  0  0  0  0  0  0  0  0  0  0  0
  145.0620   71.8860  219.7100 C   0  0  0  0  0  0  0  0  0  0  0  0
  143.9230   72.8690  219.5040 C   0  0  0  0  0  0  0  0  0  0  0  0
  143.1620   78.5230  217.3240 H   0  0  0  0  0  0  0  0  0  0  0  0
  143.5290   76.8270  217.2400 H   0  0  0  0  0  0  0  0  0  0  0  0
  141.1808   76.5488  217.8175 H   0  0  0  0  0  0  0  0  0  0  0  0
  141.7271   79.4970  218.4302 H   0  0  0  0  0  0  0  0  0  0  0  0
  140.1632   78.7568  218.0907 H   0  0  0  0  0  0  0  0  0  0  0  0
  141.4736   79.1978  220.7323 H   0  0  0  0  0  0  0  0  0  0  0  0
  139.8278   78.6717  220.4695 H   0  0  0  0  0  0  0  0  0  0  0  0
  138.7019   75.9814  221.2161 H   0  0  0  0  0  0  0  0  0  0  0  0
  139.7216   74.7863  220.1978 H   0  0  0  0  0  0  0  0  0  0  0  0
  138.4760   74.1740  222.6950 H   0  0  0  0  0  0  0  0  0  0  0  0
  138.7582   71.1124  221.8316 H   0  0  0  0  0  0  0  0  0  0  0  0
  138.2959   69.2592  223.4186 H   0  0  0  0  0  0  0  0  0  0  0  0
  138.7365   68.2546  225.6704 H   0  0  0  0  0  0  0  0  0  0  0  0
  139.8745   68.3508  227.8440 H   0  0  0  0  0  0  0  0  0  0  0  0
  141.4133   70.2376  228.3877 H   0  0  0  0  0  0  0  0  0  0  0  0
  141.7584   72.0198  226.6672 H   0  0  0  0  0  0  0  0  0  0  0  0
  143.2997   77.6545  219.8396 H   0  0  0  0  0  0  0  0  0  0  0  0
  142.6680   75.0630  221.5720 H   0  0  0  0  0  0  0  0  0  0  0  0
  143.7900   73.2898  221.6339 H   0  0  0  0  0  0  0  0  0  0  0  0
  145.8390   74.7018  219.8076 H   0  0  0  0  0  0  0  0  0  0  0  0
  145.9554   74.5968  221.5350 H   0  0  0  0  0  0  0  0  0  0  0  0
  147.0785   72.6640  219.9219 H   0  0  0  0  0  0  0  0  0  0  0  0
  146.3600   72.1651  221.4529 H   0  0  0  0  0  0  0  0  0  0  0  0
  145.4575   71.5508  218.7398 H   0  0  0  0  0  0  0  0  0  0  0  0
  144.7271   70.9901  220.2533 H   0  0  0  0  0  0  0  0  0  0  0  0
  144.0320   73.4228  218.5598 H   0  0  0  0  0  0  0  0  0  0  0  0
  142.9283   72.4050  219.4320 H   0  0  0  0  0  0  0  0  0  0  0  0
  1  2  1  0
  2  3  1  0
  3  4  1  0
  4  5  1  0
  5  6  1  0
  6  7  2  0
  6  8  1  0
  8  9  1  0
  9 10  1  0
 10 11  2  0
 10 12  1  0
 12 13  2  0
 13 14  1  0
 14 15  2  0
 15 16  1  0
 16 17  2  0
 17 18  1  0
 18 19  2  0
 19 20  1  0
 20 21  2  0
  5 22  1  0
 22 23  1  0
 23 24  2  0
 23 25  1  0
 25 26  1  0
 26 27  1  0
 27 28  1  0
 28 29  1  0
 29 30  1  0
 22  2  1  0
 30 26  1  0
 21 12  1  0
 20 15  1  0
  1 31  1  0
  1 32  1  0
  2 33  1  6
  3 34  1  0
  3 35  1  0
  4 36  1  0
  4 37  1  0
  8 38  1  0
  8 39  1  0
  9 40  1  0
 13 41  1  0
 14 42  1  0
 16 43  1  0
 17 44  1  0
 18 45  1  0
 19 46  1  0
 22 47  1  1
 25 48  1  0
 26 49  1  0
 27 50  1  0
 27 51  1  0
 28 52  1  0
 28 53  1  0
 29 54  1  0
 29 55  1  0
 30 56  1  0
 30 57  1  0
M  END
>  <smiles>  (30) 
N[C@@H]1CCN(C(=O)CNC(=O)c2ccc3ccccc3n2)[C@H]1C(=O)NC1CCCC1

>  <score_type>  (30) 
oracle

>  <origin>  (30) 
autodockgpu

>  <m_score__min__energy>  (30) 
-9.6600000000000001

>  <m_primary>  (30) 
energy

>  <rmsd>  (30) 
4.812126586852384

>  <m_score__min__rmsd>  (30) 
4.812126586852384

>  <meeko>  (30) 
{"free_energy": -7.69, "intermolecular_energy": -9.77, "internal_energy": -3.34, "cluster_size": 16, "cluster_id": 2, "rank_in_cluster": 12}

>  <energy>  (30) 
-7.83

>  <cluster_rmsd>  (30) 
0.37

>  <cluster>  (30) 
2

$$$$

     RDKit          3D

 57 60  0  0  0  0  0  0  0  0999 V2000
  141.8210   77.5370  221.3200 N   0  0  0  0  0  0  0  0  0  0  0  0
  140.5530   76.8980  221.1130 C   0  0  2  0  0  0  0  0  0  0  0  0
  139.4640   77.4610  222.0240 C   0  0  0  0  0  0  0  0  0  0  0  0
  138.5620   76.2490  222.3580 C   0  0  0  0  0  0  0  0  0  0  0  0
  139.1140   75.1850  221.4810 N   0  0  0  0  0  0  0  0  0  0  0  0
  138.4430   74.1830  220.7730 C   0  0  0  0  0  0  0  0  0  0  0  0
  138.5180   74.2670  219.4830 O   0  0  0  0  0  0  0  0  0  0  0  0
  137.6660   73.0520  221.2610 C   0  0  0  0  0  0  0  0  0  0  0  0
  138.0440   72.4260  222.4810 N   0  0  0  0  0  0  0  0  0  0  0  0
  139.0740   71.4170  222.4170 C   0  0  0  0  0  0  0  0  0  0  0  0
  139.6290   71.0830  221.3550 O   0  0  0  0  0  0  0  0  0  0  0  0
  139.4550   70.7820  223.6870 C   0  0  0  0  0  0  0  0  0  0  0  0
  139.2900   69.4230  223.8570 C   0  0  0  0  0  0  0  0  0  0  0  0
  139.6390   68.7850  225.0430 C   0  0  0  0  0  0  0  0  0  0  0  0
  140.1580   69.5260  226.0690 C   0  0  0  0  0  0  0  0  0  0  0  0
  140.5400   69.0110  227.2870 C   0  0  0  0  0  0  0  0  0  0  0  0
  141.0580   69.8070  228.2860 C   0  0  0  0  0  0  0  0  0  0  0  0
  141.2160   71.1650  228.0980 C   0  0  0  0  0  0  0  0  0  0  0  0
  140.8320   71.6930  226.8700 C   0  0  0  0  0  0  0  0  0  0  0  0
  140.3100   70.8810  225.8670 C   0  0  0  0  0  0  0  0  0  0  0  0
  139.9640   71.4720  224.7110 N   0  0  0  0  0  0  0  0  0  0  0  0
  140.5460   75.4670  221.5740 C   0  0  1  0  0  0  0  0  0  0  0  0
  141.4650   74.5560  220.9600 C   0  0  0  0  0  0  0  0  0  0  0  0
  142.6950   74.8390  220.9110 O   0  0  0  0  0  0  0  0  0  0  0  0
  141.0630   73.3310  220.3990 N   0  0  0  0  0  0  0  0  0  0  0  0
  142.0460   72.4740  219.7970 C   0  0  0  0  0  0  0  0  0  0  0  0
  143.0880   71.9560  220.7390 C   0  0  0  0  0  0  0  0  0  0  0  0
  144.0220   71.2430  219.7580 C   0  0  0  0  0  0  0  0  0  0  0  0
  143.8930   72.0280  218.4570 C   0  0  0  0  0  0  0  0  0  0  0  0
  142.8700   73.1180  218.7240 C   0  0  0  0  0  0  0  0  0  0  0  0
  141.9680   77.5990  222.3560 H   0  0  0  0  0  0  0  0  0  0  0  0
  142.5720   76.9970  220.8430 H   0  0  0  0  0  0  0  0  0  0  0  0
  140.3822   77.0398  220.0356 H   0  0  0  0  0  0  0  0  0  0  0  0
  139.9043   77.8805  222.9406 H   0  0  0  0  0  0  0  0  0  0  0  0
  138.9027   78.2766  221.5448 H   0  0  0  0  0  0  0  0  0  0  0  0
  138.6454   75.9721  223.4193 H   0  0  0  0  0  0  0  0  0  0  0  0
  137.4915   76.4410  222.1933 H   0  0  0  0  0  0  0  0  0  0  0  0
  136.6312   73.4032  221.3870 H   0  0  0  0  0  0  0  0  0  0  0  0
  137.8342   72.2723  220.5035 H   0  0  0  0  0  0  0  0  0  0  0  0
  137.6170   72.6550  223.4260 H   0  0  0  0  0  0  0  0  0  0  0  0
  138.8711   68.8276  223.0324 H   0  0  0  0  0  0  0  0  0  0  0  0
  139.4995   67.6996  225.1542 H   0  0  0  0  0  0  0  0  0  0  0  0
  140.4285   67.9318  227.4686 H   0  0  0  0  0  0  0  0  0  0  0  0
  141.3491   69.3541  229.2452 H   0  0  0  0  0  0  0  0  0  0  0  0
  141.6303   71.8061  228.8901 H   0  0  0  0  0  0  0  0  0  0  0  0
  140.9428   72.7722  226.6879 H   0  0  0  0  0  0  0  0  0  0  0  0
  140.9649   75.3123  222.5793 H   0  0  0  0  0  0  0  0  0  0  0  0
  140.0680   72.9740  220.4010 H   0  0  0  0  0  0  0  0  0  0  0  0
  141.3908   71.6800  219.4094 H   0  0  0  0  0  0  0  0  0  0  0  0
  143.6009   72.7737  221.2666 H   0  0  0  0  0  0  0  0  0  0  0  0
  142.6991   71.3187  221.5469 H   0  0  0  0  0  0  0  0  0  0  0  0
  145.0592   71.2666  220.1236 H   0  0  0  0  0  0  0  0  0  0  0  0
  143.7594   70.1824  219.6308 H   0  0  0  0  0  0  0  0  0  0  0  0
  144.8609   72.4719  218.1811 H   0  0  0  0  0  0  0  0  0  0  0  0
  143.5820   71.3794  217.6248 H   0  0  0  0  0  0  0  0  0  0  0  0
  143.3475   74.0426  219.0805 H   0  0  0  0  0  0  0  0  0  0  0  0
  142.2985   73.4326  217.8384 H   0  0  0  0  0  0  0  0  0  0  0  0
  1  2  1  0
  2  3  1  0
  3  4  1  0
  4  5  1  0
  5  6  1  0
  6  7  2  0
  6  8  1  0
  8  9  1  0
  9 10  1  0
 10 11  2  0
 10 12  1  0
 12 13  2  0
 13 14  1  0
 14 15  2  0
 15 16  1  0
 16 17  2  0
 17 18  1  0
 18 19  2  0
 19 20  1  0
 20 21  2  0
  5 22  1  0
 22 23  1  0
 23 24  2  0
 23 25  1  0
 25 26  1  0
 26 27  1  0
 27 28  1  0
 28 29  1  0
 29 30  1  0
 22  2  1  0
 30 26  1  0
 21 12  1  0
 20 15  1  0
  1 31  1  0
  1 32  1  0
  2 33  1  6
  3 34  1  0
  3 35  1  0
  4 36  1  0
  4 37  1  0
  8 38  1  0
  8 39  1  0
  9 40  1  0
 13 41  1  0
 14 42  1  0
 16 43  1  0
 17 44  1  0
 18 45  1  0
 19 46  1  0
 22 47  1  1
 25 48  1  0
 26 49  1  0
 27 50  1  0
 27 51  1  0
 28 52  1  0
 28 53  1  0
 29 54  1  0
 29 55  1  0
 30 56  1  0
 30 57  1  0
M  END
>  <smiles>  (31) 
N[C@@H]1CCN(C(=O)CNC(=O)c2ccc3ccccc3n2)[C@H]1C(=O)NC1CCCC1

>  <score_type>  (31) 
oracle

>  <origin>  (31) 
autodockgpu

>  <m_score__min__energy>  (31) 
-9.6600000000000001

>  <m_primary>  (31) 
energy

>  <rmsd>  (31) 
4.871575229056838

>  <m_score__min__rmsd>  (31) 
4.871575229056838

>  <meeko>  (31) 
{"free_energy": -7.06, "intermolecular_energy": -9.15, "internal_energy": -3.55, "cluster_size": 24, "cluster_id": 1, "rank_in_cluster": 23}

>  <energy>  (31) 
-7.83

>  <cluster_rmsd>  (31) 
0.87

>  <cluster>  (31) 
2

$$$$

     RDKit          3D

 57 60  0  0  0  0  0  0  0  0999 V2000
  143.6730   76.7490  218.2690 N   0  0  0  0  0  0  0  0  0  0  0  0
  143.0350   75.7590  219.0890 C   0  0  2  0  0  0  0  0  0  0  0  0
  142.8840   74.4200  218.3710 C   0  0  0  0  0  0  0  0  0  0  0  0
  141.5430   73.8430  218.8870 C   0  0  0  0  0  0  0  0  0  0  0  0
  141.1680   74.8070  219.9530 N   0  0  0  0  0  0  0  0  0  0  0  0
  140.5660   74.5670  221.1920 C   0  0  0  0  0  0  0  0  0  0  0  0
  141.0560   75.2360  222.1870 O   0  0  0  0  0  0  0  0  0  0  0  0
  139.4690   73.6760  221.5450 C   0  0  0  0  0  0  0  0  0  0  0  0
  139.5750   72.8750  222.7150 N   0  0  0  0  0  0  0  0  0  0  0  0
  139.5430   71.4430  222.5420 C   0  0  0  0  0  0  0  0  0  0  0  0
  139.4270   70.8980  221.4300 O   0  0  0  0  0  0  0  0  0  0  0  0
  139.6570   70.6280  223.7610 C   0  0  0  0  0  0  0  0  0  0  0  0
  139.1910   69.3300  223.7710 C   0  0  0  0  0  0  0  0  0  0  0  0
  139.2800   68.5280  224.9040 C   0  0  0  0  0  0  0  0  0  0  0  0
  139.8450   69.0410  226.0390 C   0  0  0  0  0  0  0  0  0  0  0  0
  139.9900   68.3480  227.2200 C   0  0  0  0  0  0  0  0  0  0  0  0
  140.5690   68.9170  228.3330 C   0  0  0  0  0  0  0  0  0  0  0  0
  141.0300   70.2170  228.3050 C   0  0  0  0  0  0  0  0  0  0  0  0
  140.8870   70.9240  227.1160 C   0  0  0  0  0  0  0  0  0  0  0  0
  140.3010   70.3400  225.9960 C   0  0  0  0  0  0  0  0  0  0  0  0
  140.2020   71.0950  224.8870 N   0  0  0  0  0  0  0  0  0  0  0  0
  141.5860   76.0690  219.3430 C   0  0  1  0  0  0  0  0  0  0  0  0
  141.2660   77.2930  220.0150 C   0  0  0  0  0  0  0  0  0  0  0  0
  140.6110   78.1900  219.4130 O   0  0  0  0  0  0  0  0  0  0  0  0
  141.6440   77.5550  221.3440 N   0  0  0  0  0  0  0  0  0  0  0  0
  141.2880   78.8090  221.9450 C   0  0  0  0  0  0  0  0  0  0  0  0
  142.3880   79.4720  222.7140 C   0  0  0  0  0  0  0  0  0  0  0  0
  141.6300   80.6510  223.3280 C   0  0  0  0  0  0  0  0  0  0  0  0
  140.2030   80.1450  223.5100 C   0  0  0  0  0  0  0  0  0  0  0  0
  140.1860   78.7300  222.9590 C   0  0  0  0  0  0  0  0  0  0  0  0
  144.4990   76.2880  217.8170 H   0  0  0  0  0  0  0  0  0  0  0  0
  142.9950   77.1220  217.5720 H   0  0  0  0  0  0  0  0  0  0  0  0
  143.6707   75.7394  219.9865 H   0  0  0  0  0  0  0  0  0  0  0  0
  142.8490   74.5665  217.2814 H   0  0  0  0  0  0  0  0  0  0  0  0
  143.7298   73.7452  218.5691 H   0  0  0  0  0  0  0  0  0  0  0  0
  140.7868   73.8192  218.0885 H   0  0  0  0  0  0  0  0  0  0  0  0
  141.6196   72.8046  219.2416 H   0  0  0  0  0  0  0  0  0  0  0  0
  138.5723   74.3018  221.6641 H   0  0  0  0  0  0  0  0  0  0  0  0
  139.4542   72.9420  220.7259 H   0  0  0  0  0  0  0  0  0  0  0  0
  139.6760   73.2650  223.6970 H   0  0  0  0  0  0  0  0  0  0  0  0
  138.7365   68.9177  222.8581 H   0  0  0  0  0  0  0  0  0  0  0  0
  138.9012   67.4954  224.8874 H   0  0  0  0  0  0  0  0  0  0  0  0
  139.6329   67.3091  227.2764 H   0  0  0  0  0  0  0  0  0  0  0  0
  140.6650   68.3269  229.2564 H   0  0  0  0  0  0  0  0  0  0  0  0
  141.4934   70.6772  229.1901 H   0  0  0  0  0  0  0  0  0  0  0  0
  141.2432   71.9632  227.0593 H   0  0  0  0  0  0  0  0  0  0  0  0
  141.0150   76.3385  218.4423 H   0  0  0  0  0  0  0  0  0  0  0  0
  142.1710   76.8730  221.9580 H   0  0  0  0  0  0  0  0  0  0  0  0
  140.9988   79.3727  221.0457 H   0  0  0  0  0  0  0  0  0  0  0  0
  142.8001   78.8073  223.4876 H   0  0  0  0  0  0  0  0  0  0  0  0
  143.2627   79.7548  222.1100 H   0  0  0  0  0  0  0  0  0  0  0  0
  142.0684   80.9309  224.2973 H   0  0  0  0  0  0  0  0  0  0  0  0
  141.6744   81.5485  222.6936 H   0  0  0  0  0  0  0  0  0  0  0  0
  139.9314   80.1432  224.5759 H   0  0  0  0  0  0  0  0  0  0  0  0
  139.4784   80.7883  222.9894 H   0  0  0  0  0  0  0  0  0  0  0  0
  140.4078   77.9886  223.7408 H   0  0  0  0  0  0  0  0  0  0  0  0
  139.2149   78.4119  222.5518 H   0  0  0  0  0  0  0  0  0  0  0  0
  1  2  1  0
  2  3  1  0
  3  4  1  0
  4  5  1  0
  5  6  1  0
  6  7  2  0
  6  8  1  0
  8  9  1  0
  9 10  1  0
 10 11  2  0
 10 12  1  0
 12 13  2  0
 13 14  1  0
 14 15  2  0
 15 16  1  0
 16 17  2  0
 17 18  1  0
 18 19  2  0
 19 20  1  0
 20 21  2  0
  5 22  1  0
 22 23  1  0
 23 24  2  0
 23 25  1  0
 25 26  1  0
 26 27  1  0
 27 28  1  0
 28 29  1  0
 29 30  1  0
 22  2  1  0
 30 26  1  0
 21 12  1  0
 20 15  1  0
  1 31  1  0
  1 32  1  0
  2 33  1  1
  3 34  1  0
  3 35  1  0
  4 36  1  0
  4 37  1  0
  8 38  1  0
  8 39  1  0
  9 40  1  0
 13 41  1  0
 14 42  1  0
 16 43  1  0
 17 44  1  0
 18 45  1  0
 19 46  1  0
 22 47  1  6
 25 48  1  0
 26 49  1  0
 27 50  1  0
 27 51  1  0
 28 52  1  0
 28 53  1  0
 29 54  1  0
 29 55  1  0
 30 56  1  0
 30 57  1  0
M  END
>  <smiles>  (32) 
N[C@@H]1CCN(C(=O)CNC(=O)c2ccc3ccccc3n2)[C@H]1C(=O)NC1CCCC1

>  <score_type>  (32) 
oracle

>  <origin>  (32) 
autodockgpu

>  <m_score__min__energy>  (32) 
-9.6600000000000001

>  <m_primary>  (32) 
energy

>  <rmsd>  (32) 
2.2313094692924857

>  <m_score__min__rmsd>  (32) 
2.2313094692924857

>  <meeko>  (32) 
{"free_energy": -8.7, "intermolecular_energy": -10.79, "internal_energy": -2.34, "cluster_size": 24, "cluster_id": 1, "rank_in_cluster": 14}

>  <energy>  (32) 
-7.8

>  <cluster_rmsd>  (32) 
1.93

>  <cluster>  (32) 
2

$$$$

     RDKit          3D

 57 60  0  0  0  0  0  0  0  0999 V2000
  143.0250   78.2510  217.4160 N   0  0  0  0  0  0  0  0  0  0  0  0
  142.8810   76.9710  218.0490 C   0  0  2  0  0  0  0  0  0  0  0  0
  142.8370   75.8250  217.0400 C   0  0  0  0  0  0  0  0  0  0  0  0
  141.8590   74.7950  217.6530 C   0  0  0  0  0  0  0  0  0  0  0  0
  141.5920   75.3660  218.9990 N   0  0  0  0  0  0  0  0  0  0  0  0
  141.4320   74.7100  220.2240 C   0  0  0  0  0  0  0  0  0  0  0  0
  142.2060   75.1180  221.1780 O   0  0  0  0  0  0  0  0  0  0  0  0
  140.5270   73.6320  220.5980 C   0  0  0  0  0  0  0  0  0  0  0  0
  140.6010   73.0890  221.9110 N   0  0  0  0  0  0  0  0  0  0  0  0
  139.9460   71.8240  222.1420 C   0  0  0  0  0  0  0  0  0  0  0  0
  139.3330   71.2070  221.2530 O   0  0  0  0  0  0  0  0  0  0  0  0
  140.0340   71.2750  223.5040 C   0  0  0  0  0  0  0  0  0  0  0  0
  139.5230   70.0240  223.7780 C   0  0  0  0  0  0  0  0  0  0  0  0
  139.5860   69.4700  225.0530 C   0  0  0  0  0  0  0  0  0  0  0  0
  140.1710   70.1870  226.0620 C   0  0  0  0  0  0  0  0  0  0  0  0
  140.2930   69.7480  227.3600 C   0  0  0  0  0  0  0  0  0  0  0  0
  140.8930   70.5140  228.3360 C   0  0  0  0  0  0  0  0  0  0  0  0
  141.3990   71.7640  228.0420 C   0  0  0  0  0  0  0  0  0  0  0  0
  141.2790   72.2150  226.7320 C   0  0  0  0  0  0  0  0  0  0  0  0
  140.6710   71.4330  225.7530 C   0  0  0  0  0  0  0  0  0  0  0  0
  140.5970   71.9450  224.5130 N   0  0  0  0  0  0  0  0  0  0  0  0
  141.5300   76.7930  218.6860 C   0  0  1  0  0  0  0  0  0  0  0  0
  141.1470   77.7050  219.7210 C   0  0  0  0  0  0  0  0  0  0  0  0
  140.1400   78.4510  219.5630 O   0  0  0  0  0  0  0  0  0  0  0  0
  141.8440   77.8140  220.9370 N   0  0  0  0  0  0  0  0  0  0  0  0
  141.3970   78.7570  221.9250 C   0  0  0  0  0  0  0  0  0  0  0  0
  142.2110   80.0110  222.0080 C   0  0  0  0  0  0  0  0  0  0  0  0
  141.5730   80.6780  223.2290 C   0  0  0  0  0  0  0  0  0  0  0  0
  141.0950   79.5220  224.1000 C   0  0  0  0  0  0  0  0  0  0  0  0
  141.4330   78.2530  223.3360 C   0  0  0  0  0  0  0  0  0  0  0  0
  144.0160   78.3180  217.0820 H   0  0  0  0  0  0  0  0  0  0  0  0
  142.3360   78.3420  216.6410 H   0  0  0  0  0  0  0  0  0  0  0  0
  143.7312   76.9470  218.7465 H   0  0  0  0  0  0  0  0  0  0  0  0
  142.4663   76.1796  216.0669 H   0  0  0  0  0  0  0  0  0  0  0  0
  143.8326   75.3943  216.8577 H   0  0  0  0  0  0  0  0  0  0  0  0
  140.9346   74.7235  217.0611 H   0  0  0  0  0  0  0  0  0  0  0  0
  142.2618   73.7718  217.6829 H   0  0  0  0  0  0  0  0  0  0  0  0
  139.5030   74.0107  220.4639 H   0  0  0  0  0  0  0  0  0  0  0  0
  140.8331   72.7965  219.9512 H   0  0  0  0  0  0  0  0  0  0  0  0
  141.1040   73.5560  222.7210 H   0  0  0  0  0  0  0  0  0  0  0  0
  139.0529   69.4485  222.9670 H   0  0  0  0  0  0  0  0  0  0  0  0
  139.1715   68.4698  225.2475 H   0  0  0  0  0  0  0  0  0  0  0  0
  139.8999   68.7559  227.6269 H   0  0  0  0  0  0  0  0  0  0  0  0
  140.9696   70.1244  229.3618 H   0  0  0  0  0  0  0  0  0  0  0  0
  141.8796   72.3809  228.8156 H   0  0  0  0  0  0  0  0  0  0  0  0
  141.6713   73.2072  226.4642 H   0  0  0  0  0  0  0  0  0  0  0  0
  140.6837   77.0703  218.0403 H   0  0  0  0  0  0  0  0  0  0  0  0
  142.6840   77.2270  221.1960 H   0  0  0  0  0  0  0  0  0  0  0  0
  140.3735   78.9375  221.5646 H   0  0  0  0  0  0  0  0  0  0  0  0
  143.2763   79.7933  222.1746 H   0  0  0  0  0  0  0  0  0  0  0  0
  142.2028   80.6239  221.0946 H   0  0  0  0  0  0  0  0  0  0  0  0
  142.3127   81.2886  223.7675 H   0  0  0  0  0  0  0  0  0  0  0  0
  140.7517   81.3546  222.9503 H   0  0  0  0  0  0  0  0  0  0  0  0
  141.6144   79.5340  225.0696 H   0  0  0  0  0  0  0  0  0  0  0  0
  140.0168   79.5925  224.3062 H   0  0  0  0  0  0  0  0  0  0  0  0
  142.4294   77.8720  223.6045 H   0  0  0  0  0  0  0  0  0  0  0  0
  140.7577   77.4078  223.5352 H   0  0  0  0  0  0  0  0  0  0  0  0
  1  2  1  0
  2  3  1  0
  3  4  1  0
  4  5  1  0
  5  6  1  0
  6  7  2  0
  6  8  1  0
  8  9  1  0
  9 10  1  0
 10 11  2  0
 10 12  1  0
 12 13  2  0
 13 14  1  0
 14 15  2  0
 15 16  1  0
 16 17  2  0
 17 18  1  0
 18 19  2  0
 19 20  1  0
 20 21  2  0
  5 22  1  0
 22 23  1  0
 23 24  2  0
 23 25  1  0
 25 26  1  0
 26 27  1  0
 27 28  1  0
 28 29  1  0
 29 30  1  0
 22  2  1  0
 30 26  1  0
 21 12  1  0
 20 15  1  0
  1 31  1  0
  1 32  1  0
  2 33  1  1
  3 34  1  0
  3 35  1  0
  4 36  1  0
  4 37  1  0
  8 38  1  0
  8 39  1  0
  9 40  1  0
 13 41  1  0
 14 42  1  0
 16 43  1  0
 17 44  1  0
 18 45  1  0
 19 46  1  0
 22 47  1  6
 25 48  1  0
 26 49  1  0
 27 50  1  0
 27 51  1  0
 28 52  1  0
 28 53  1  0
 29 54  1  0
 29 55  1  0
 30 56  1  0
 30 57  1  0
M  END
>  <smiles>  (33) 
N[C@@H]1CCN(C(=O)CNC(=O)c2ccc3ccccc3n2)[C@H]1C(=O)NC1CCCC1

>  <score_type>  (33) 
oracle

>  <origin>  (33) 
autodockgpu

>  <m_score__min__energy>  (33) 
-9.6600000000000001

>  <m_primary>  (33) 
energy

>  <rmsd>  (33) 
2.381823855949692

>  <m_score__min__rmsd>  (33) 
2.381823855949692

>  <meeko>  (33) 
{"free_energy": -7.93, "intermolecular_energy": -10.01, "internal_energy": -2.65, "cluster_size": 24, "cluster_id": 1, "rank_in_cluster": 20}

>  <energy>  (33) 
-7.79

>  <cluster_rmsd>  (33) 
1.64

>  <cluster>  (33) 
2

$$$$

     RDKit          3D

 57 60  0  0  0  0  0  0  0  0999 V2000
  143.0690   78.2050  218.0070 N   0  0  0  0  0  0  0  0  0  0  0  0
  142.7000   76.9440  218.5840 C   0  0  2  0  0  0  0  0  0  0  0  0
  142.4390   75.8750  217.5240 C   0  0  0  0  0  0  0  0  0  0  0  0
  141.2950   75.0110  218.1070 C   0  0  0  0  0  0  0  0  0  0  0  0
  141.1490   75.5550  219.4820 N   0  0  0  0  0  0  0  0  0  0  0  0
  140.8840   74.8800  220.6770 C   0  0  0  0  0  0  0  0  0  0  0  0
  141.8430   74.8910  221.5470 O   0  0  0  0  0  0  0  0  0  0  0  0
  139.6900   74.1610  221.1030 C   0  0  0  0  0  0  0  0  0  0  0  0
  139.7110   73.4540  222.3360 N   0  0  0  0  0  0  0  0  0  0  0  0
  139.9890   72.0380  222.2840 C   0  0  0  0  0  0  0  0  0  0  0  0
  140.2050   71.4300  221.2200 O   0  0  0  0  0  0  0  0  0  0  0  0
  140.0090   71.3210  223.5670 C   0  0  0  0  0  0  0  0  0  0  0  0
  139.5230   70.0330  223.6470 C   0  0  0  0  0  0  0  0  0  0  0  0
  139.5240   69.3220  224.8430 C   0  0  0  0  0  0  0  0  0  0  0  0
  140.0220   69.9170  225.9700 C   0  0  0  0  0  0  0  0  0  0  0  0
  140.0770   69.3180  227.2080 C   0  0  0  0  0  0  0  0  0  0  0  0
  140.5900   69.9670  228.3100 C   0  0  0  0  0  0  0  0  0  0  0  0
  141.0720   71.2560  228.2110 C   0  0  0  0  0  0  0  0  0  0  0  0
  141.0200   71.8680  226.9630 C   0  0  0  0  0  0  0  0  0  0  0  0
  140.5000   71.2040  225.8560 C   0  0  0  0  0  0  0  0  0  0  0  0
  140.4860   71.8700  224.6880 N   0  0  0  0  0  0  0  0  0  0  0  0
  141.3450   76.9830  219.2350 C   0  0  1  0  0  0  0  0  0  0  0  0
  141.1430   77.8980  220.3170 C   0  0  0  0  0  0  0  0  0  0  0  0
  140.6230   79.0280  220.0980 O   0  0  0  0  0  0  0  0  0  0  0  0
  141.4950   77.5980  221.6450 N   0  0  0  0  0  0  0  0  0  0  0  0
  141.2630   78.5730  222.6750 C   0  0  0  0  0  0  0  0  0  0  0  0
  139.8510   79.0600  222.7710 C   0  0  0  0  0  0  0  0  0  0  0  0
  140.0070   80.1630  223.8210 C   0  0  0  0  0  0  0  0  0  0  0  0
  141.4250   80.6880  223.6280 C   0  0  0  0  0  0  0  0  0  0  0  0
  142.0370   79.8470  222.5200 C   0  0  0  0  0  0  0  0  0  0  0  0
  143.6910   78.6890  218.6980 H   0  0  0  0  0  0  0  0  0  0  0  0
  143.5350   78.0520  217.0890 H   0  0  0  0  0  0  0  0  0  0  0  0
  143.5374   76.7333  219.2654 H   0  0  0  0  0  0  0  0  0  0  0  0
  142.1302   76.3376  216.5750 H   0  0  0  0  0  0  0  0  0  0  0  0
  143.3378   75.2802  217.3041 H   0  0  0  0  0  0  0  0  0  0  0  0
  140.3676   75.1372  217.5291 H   0  0  0  0  0  0  0  0  0  0  0  0
  141.5050   73.9315  218.0828 H   0  0  0  0  0  0  0  0  0  0  0  0
  138.8767   74.8987  221.1689 H   0  0  0  0  0  0  0  0  0  0  0  0
  139.5775   73.3688  220.3482 H   0  0  0  0  0  0  0  0  0  0  0  0
  139.5350   73.9010  223.2830 H   0  0  0  0  0  0  0  0  0  0  0  0
  139.1236   69.5546  222.7406 H   0  0  0  0  0  0  0  0  0  0  0  0
  139.1299   68.2958  224.8820 H   0  0  0  0  0  0  0  0  0  0  0  0
  139.7003   68.2907  227.3210 H   0  0  0  0  0  0  0  0  0  0  0  0
  140.6156   69.4508  229.2810 H   0  0  0  0  0  0  0  0  0  0  0  0
  141.4823   71.7803  229.0867 H   0  0  0  0  0  0  0  0  0  0  0  0
  141.3966   72.8952  226.8490 H   0  0  0  0  0  0  0  0  0  0  0  0
  140.5581   77.4395  218.6166 H   0  0  0  0  0  0  0  0  0  0  0  0
  141.9130   76.6780  221.9560 H   0  0  0  0  0  0  0  0  0  0  0  0
  141.5728   77.9932  223.5570 H   0  0  0  0  0  0  0  0  0  0  0  0
  139.4935   79.4608  221.8110 H   0  0  0  0  0  0  0  0  0  0  0  0
  139.1149   78.2839  223.0274 H   0  0  0  0  0  0  0  0  0  0  0  0
  139.2715   80.9637  223.6539 H   0  0  0  0  0  0  0  0  0  0  0  0
  139.8380   79.7906  224.8421 H   0  0  0  0  0  0  0  0  0  0  0  0
  141.4033   81.7481  223.3353 H   0  0  0  0  0  0  0  0  0  0  0  0
  142.0102   80.6175  224.5568 H   0  0  0  0  0  0  0  0  0  0  0  0
  141.8758   80.3009  221.5311 H   0  0  0  0  0  0  0  0  0  0  0  0
  143.1284   79.7282  222.5881 H   0  0  0  0  0  0  0  0  0  0  0  0
  1  2  1  0
  2  3  1  0
  3  4  1  0
  4  5  1  0
  5  6  1  0
  6  7  2  0
  6  8  1  0
  8  9  1  0
  9 10  1  0
 10 11  2  0
 10 12  1  0
 12 13  2  0
 13 14  1  0
 14 15  2  0
 15 16  1  0
 16 17  2  0
 17 18  1  0
 18 19  2  0
 19 20  1  0
 20 21  2  0
  5 22  1  0
 22 23  1  0
 23 24  2  0
 23 25  1  0
 25 26  1  0
 26 27  1  0
 27 28  1  0
 28 29  1  0
 29 30  1  0
 22  2  1  0
 30 26  1  0
 21 12  1  0
 20 15  1  0
  1 31  1  0
  1 32  1  0
  2 33  1  1
  3 34  1  0
  3 35  1  0
  4 36  1  0
  4 37  1  0
  8 38  1  0
  8 39  1  0
  9 40  1  0
 13 41  1  0
 14 42  1  0
 16 43  1  0
 17 44  1  0
 18 45  1  0
 19 46  1  0
 22 47  1  6
 25 48  1  0
 26 49  1  0
 27 50  1  0
 27 51  1  0
 28 52  1  0
 28 53  1  0
 29 54  1  0
 29 55  1  0
 30 56  1  0
 30 57  1  0
M  END
>  <smiles>  (34) 
N[C@@H]1CCN(C(=O)CNC(=O)c2ccc3ccccc3n2)[C@H]1C(=O)NC1CCCC1

>  <score_type>  (34) 
oracle

>  <origin>  (34) 
autodockgpu

>  <m_score__min__energy>  (34) 
-9.6600000000000001

>  <m_primary>  (34) 
energy

>  <rmsd>  (34) 
1.9590027314339127

>  <m_score__min__rmsd>  (34) 
1.9590027314339127

>  <meeko>  (34) 
{"free_energy": -8.86, "intermolecular_energy": -10.95, "internal_energy": -2.21, "cluster_size": 24, "cluster_id": 1, "rank_in_cluster": 13}

>  <energy>  (34) 
-7.77

>  <cluster_rmsd>  (34) 
0.6

>  <cluster>  (34) 
2

$$$$

     RDKit          3D

 57 60  0  0  0  0  0  0  0  0999 V2000
  142.5140   77.5550  217.3590 N   0  0  0  0  0  0  0  0  0  0  0  0
  141.5770   77.2800  218.4110 C   0  0  2  0  0  0  0  0  0  0  0  0
  140.8270   78.5320  218.8630 C   0  0  0  0  0  0  0  0  0  0  0  0
  140.6180   78.3400  220.3840 C   0  0  0  0  0  0  0  0  0  0  0  0
  141.1000   76.9520  220.6030 N   0  0  0  0  0  0  0  0  0  0  0  0
  140.5930   75.9610  221.4490 C   0  0  0  0  0  0  0  0  0  0  0  0
  141.0940   75.9400  222.6430 O   0  0  0  0  0  0  0  0  0  0  0  0
  139.5840   74.9400  221.1990 C   0  0  0  0  0  0  0  0  0  0  0  0
  139.3720   73.9230  222.1700 N   0  0  0  0  0  0  0  0  0  0  0  0
  140.4160   72.9420  222.3410 C   0  0  0  0  0  0  0  0  0  0  0  0
  141.4710   72.9550  221.6810 O   0  0  0  0  0  0  0  0  0  0  0  0
  140.1830   71.8990  223.3510 C   0  0  0  0  0  0  0  0  0  0  0  0
  139.4300   70.7870  223.0350 C   0  0  0  0  0  0  0  0  0  0  0  0
  139.1860   69.7790  223.9630 C   0  0  0  0  0  0  0  0  0  0  0  0
  139.7090   69.8940  225.2220 C   0  0  0  0  0  0  0  0  0  0  0  0
  139.5390   68.9660  226.2230 C   0  0  0  0  0  0  0  0  0  0  0  0
  140.0900   69.1340  227.4750 C   0  0  0  0  0  0  0  0  0  0  0  0
  140.8410   70.2520  227.7730 C   0  0  0  0  0  0  0  0  0  0  0  0
  141.0180   71.1950  226.7660 C   0  0  0  0  0  0  0  0  0  0  0  0
  140.4570   71.0160  225.5040 C   0  0  0  0  0  0  0  0  0  0  0  0
  140.6770   71.9760  224.5890 N   0  0  0  0  0  0  0  0  0  0  0  0
  142.2530   76.9160  219.7030 C   0  0  1  0  0  0  0  0  0  0  0  0
  143.0980   75.7600  219.7200 C   0  0  0  0  0  0  0  0  0  0  0  0
  143.8750   75.5330  218.7500 O   0  0  0  0  0  0  0  0  0  0  0  0
  143.1150   74.8430  220.7860 N   0  0  0  0  0  0  0  0  0  0  0  0
  143.9890   73.7050  220.7260 C   0  0  0  0  0  0  0  0  0  0  0  0
  145.4480   74.0370  220.6630 C   0  0  0  0  0  0  0  0  0  0  0  0
  146.0430   72.6430  220.4490 C   0  0  0  0  0  0  0  0  0  0  0  0
  144.9740   71.8770  219.6780 C   0  0  0  0  0  0  0  0  0  0  0  0
  143.8030   72.8320  219.5210 C   0  0  0  0  0  0  0  0  0  0  0  0
  143.3470   76.9410  217.5210 H   0  0  0  0  0  0  0  0  0  0  0  0
  142.0670   77.3870  216.4340 H   0  0  0  0  0  0  0  0  0  0  0  0
  140.9479   76.4893  217.9764 H   0  0  0  0  0  0  0  0  0  0  0  0
  141.4243   79.4342  218.6648 H   0  0  0  0  0  0  0  0  0  0  0  0
  139.8757   78.6626  218.3264 H   0  0  0  0  0  0  0  0  0  0  0  0
  141.2130   79.0630  220.9613 H   0  0  0  0  0  0  0  0  0  0  0  0
  139.5786   78.4989  220.7070 H   0  0  0  0  0  0  0  0  0  0  0  0
  138.6249   75.4617  221.0651 H   0  0  0  0  0  0  0  0  0  0  0  0
  139.9745   74.3934  220.3280 H   0  0  0  0  0  0  0  0  0  0  0  0
  138.5000   73.8450  222.7700 H   0  0  0  0  0  0  0  0  0  0  0  0
  139.0111   70.6946  222.0221 H   0  0  0  0  0  0  0  0  0  0  0  0
  138.5812   68.9022  223.6881 H   0  0  0  0  0  0  0  0  0  0  0  0
  138.9455   68.0628  226.0181 H   0  0  0  0  0  0  0  0  0  0  0  0
  139.9288   68.3667  228.2466 H   0  0  0  0  0  0  0  0  0  0  0  0
  141.2836   70.3926  228.7702 H   0  0  0  0  0  0  0  0  0  0  0  0
  141.6117   72.0983  226.9701 H   0  0  0  0  0  0  0  0  0  0  0  0
  143.0672   77.5953  219.9955 H   0  0  0  0  0  0  0  0  0  0  0  0
  142.5290   74.9390  221.6620 H   0  0  0  0  0  0  0  0  0  0  0  0
  143.7075   73.2017  221.6627 H   0  0  0  0  0  0  0  0  0  0  0  0
  145.6755   74.7090  219.8223 H   0  0  0  0  0  0  0  0  0  0  0  0
  145.8350   74.5700  221.5440 H   0  0  0  0  0  0  0  0  0  0  0  0
  146.9730   72.7042  219.8648 H   0  0  0  0  0  0  0  0  0  0  0  0
  146.3018   72.1519  221.3987 H   0  0  0  0  0  0  0  0  0  0  0  0
  145.3565   71.5763  218.6914 H   0  0  0  0  0  0  0  0  0  0  0  0
  144.6765   70.9595  220.2069 H   0  0  0  0  0  0  0  0  0  0  0  0
  143.8741   73.4098  218.5876 H   0  0  0  0  0  0  0  0  0  0  0  0
  142.8202   72.3416  219.4612 H   0  0  0  0  0  0  0  0  0  0  0  0
  1  2  1  0
  2  3  1  0
  3  4  1  0
  4  5  1  0
  5  6  1  0
  6  7  2  0
  6  8  1  0
  8  9  1  0
  9 10  1  0
 10 11  2  0
 10 12  1  0
 12 13  2  0
 13 14  1  0
 14 15  2  0
 15 16  1  0
 16 17  2  0
 17 18  1  0
 18 19  2  0
 19 20  1  0
 20 21  2  0
  5 22  1  0
 22 23  1  0
 23 24  2  0
 23 25  1  0
 25 26  1  0
 26 27  1  0
 27 28  1  0
 28 29  1  0
 29 30  1  0
 22  2  1  0
 30 26  1  0
 21 12  1  0
 20 15  1  0
  1 31  1  0
  1 32  1  0
  2 33  1  6
  3 34  1  0
  3 35  1  0
  4 36  1  0
  4 37  1  0
  8 38  1  0
  8 39  1  0
  9 40  1  0
 13 41  1  0
 14 42  1  0
 16 43  1  0
 17 44  1  0
 18 45  1  0
 19 46  1  0
 22 47  1  1
 25 48  1  0
 26 49  1  0
 27 50  1  0
 27 51  1  0
 28 52  1  0
 28 53  1  0
 29 54  1  0
 29 55  1  0
 30 56  1  0
 30 57  1  0
M  END
>  <smiles>  (35) 
N[C@@H]1CCN(C(=O)CNC(=O)c2ccc3ccccc3n2)[C@H]1C(=O)NC1CCCC1

>  <score_type>  (35) 
oracle

>  <origin>  (35) 
autodockgpu

>  <m_score__min__energy>  (35) 
-9.6600000000000001

>  <m_primary>  (35) 
energy

>  <rmsd>  (35) 
4.740593705986638

>  <m_score__min__rmsd>  (35) 
4.740593705986638

>  <meeko>  (35) 
{"free_energy": -7.7, "intermolecular_energy": -9.79, "internal_energy": -3.34, "cluster_size": 16, "cluster_id": 2, "rank_in_cluster": 11}

>  <energy>  (35) 
-7.7

>  <cluster_rmsd>  (35) 
0.45

>  <cluster>  (35) 
2

$$$$

     RDKit          3D

 57 60  0  0  0  0  0  0  0  0999 V2000
  142.5650   77.5830  217.3640 N   0  0  0  0  0  0  0  0  0  0  0  0
  141.6240   77.3010  218.4100 C   0  0  2  0  0  0  0  0  0  0  0  0
  140.8680   78.5480  218.8640 C   0  0  0  0  0  0  0  0  0  0  0  0
  140.6520   78.3500  220.3830 C   0  0  0  0  0  0  0  0  0  0  0  0
  141.1380   76.9620  220.5990 N   0  0  0  0  0  0  0  0  0  0  0  0
  140.6300   75.9660  221.4390 C   0  0  0  0  0  0  0  0  0  0  0  0
  141.0120   76.0330  222.6740 O   0  0  0  0  0  0  0  0  0  0  0  0
  139.7330   74.8570  221.1420 C   0  0  0  0  0  0  0  0  0  0  0  0
  139.4990   73.8700  222.1390 N   0  0  0  0  0  0  0  0  0  0  0  0
  140.5210   72.8710  222.3350 C   0  0  0  0  0  0  0  0  0  0  0  0
  141.5760   72.8440  221.6750 O   0  0  0  0  0  0  0  0  0  0  0  0
  140.2660   71.8590  223.3710 C   0  0  0  0  0  0  0  0  0  0  0  0
  139.5720   70.7090  223.0570 C   0  0  0  0  0  0  0  0  0  0  0  0
  139.3100   69.7290  224.0090 C   0  0  0  0  0  0  0  0  0  0  0  0
  139.7530   69.9100  225.2900 C   0  0  0  0  0  0  0  0  0  0  0  0
  139.5560   69.0150  226.3170 C   0  0  0  0  0  0  0  0  0  0  0  0
  140.0260   69.2520  227.5910 C   0  0  0  0  0  0  0  0  0  0  0  0
  140.7190   70.4080  227.8870 C   0  0  0  0  0  0  0  0  0  0  0  0
  140.9210   71.3180  226.8540 C   0  0  0  0  0  0  0  0  0  0  0  0
  140.4430   71.0700  225.5700 C   0  0  0  0  0  0  0  0  0  0  0  0
  140.6820   72.0020  224.6320 N   0  0  0  0  0  0  0  0  0  0  0  0
  142.2950   76.9330  219.7050 C   0  0  1  0  0  0  0  0  0  0  0  0
  143.1430   75.7790  219.7210 C   0  0  0  0  0  0  0  0  0  0  0  0
  143.9220   75.5560  218.7510 O   0  0  0  0  0  0  0  0  0  0  0  0
  143.1620   74.8620  220.7860 N   0  0  0  0  0  0  0  0  0  0  0  0
  144.0400   73.7270  220.7250 C   0  0  0  0  0  0  0  0  0  0  0  0
  145.4980   74.0630  220.6810 C   0  0  0  0  0  0  0  0  0  0  0  0
  146.0990   72.6720  220.4610 C   0  0  0  0  0  0  0  0  0  0  0  0
  145.0400   71.9100  219.6730 C   0  0  0  0  0  0  0  0  0  0  0  0
  143.8690   72.8640  219.5110 C   0  0  0  0  0  0  0  0  0  0  0  0
  143.5230   77.4410  217.7660 H   0  0  0  0  0  0  0  0  0  0  0  0
  142.3800   76.9670  216.5460 H   0  0  0  0  0  0  0  0  0  0  0  0
  140.9996   76.5104  217.9684 H   0  0  0  0  0  0  0  0  0  0  0  0
  141.4632   79.4529  218.6722 H   0  0  0  0  0  0  0  0  0  0  0  0
  139.9186   78.6770  218.3236 H   0  0  0  0  0  0  0  0  0  0  0  0
  141.2417   79.0729  220.9659 H   0  0  0  0  0  0  0  0  0  0  0  0
  139.6105   78.5044  220.7015 H   0  0  0  0  0  0  0  0  0  0  0  0
  138.7563   75.2930  220.8854 H   0  0  0  0  0  0  0  0  0  0  0  0
  140.2521   74.3060  220.3439 H   0  0  0  0  0  0  0  0  0  0  0  0
  138.6250   73.8260  222.7410 H   0  0  0  0  0  0  0  0  0  0  0  0
  139.2163   70.5629  222.0264 H   0  0  0  0  0  0  0  0  0  0  0  0
  138.7538   68.8204  223.7349 H   0  0  0  0  0  0  0  0  0  0  0  0
  139.0074   68.0832  226.1152 H   0  0  0  0  0  0  0  0  0  0  0  0
  139.8462   68.5095  228.3825 H   0  0  0  0  0  0  0  0  0  0  0  0
  141.0974   70.6027  228.9013 H   0  0  0  0  0  0  0  0  0  0  0  0
  141.4685   72.2506  227.0555 H   0  0  0  0  0  0  0  0  0  0  0  0
  143.1058   77.6133  220.0047 H   0  0  0  0  0  0  0  0  0  0  0  0
  142.5760   74.9550  221.6620 H   0  0  0  0  0  0  0  0  0  0  0  0
  143.7499   73.2148  221.6543 H   0  0  0  0  0  0  0  0  0  0  0  0
  145.7330   74.7430  219.8489 H   0  0  0  0  0  0  0  0  0  0  0  0
  145.8740   74.5891  221.5709 H   0  0  0  0  0  0  0  0  0  0  0  0
  147.0346   72.7406  219.8866 H   0  0  0  0  0  0  0  0  0  0  0  0
  146.3496   72.1735  221.4090 H   0  0  0  0  0  0  0  0  0  0  0  0
  145.4335   71.6176  218.6883 H   0  0  0  0  0  0  0  0  0  0  0  0
  144.7388   70.9879  220.1916 H   0  0  0  0  0  0  0  0  0  0  0  0
  143.9493   73.4497  218.5834 H   0  0  0  0  0  0  0  0  0  0  0  0
  142.8879   72.3723  219.4362 H   0  0  0  0  0  0  0  0  0  0  0  0
  1  2  1  0
  2  3  1  0
  3  4  1  0
  4  5  1  0
  5  6  1  0
  6  7  2  0
  6  8  1  0
  8  9  1  0
  9 10  1  0
 10 11  2  0
 10 12  1  0
 12 13  2  0
 13 14  1  0
 14 15  2  0
 15 16  1  0
 16 17  2  0
 17 18  1  0
 18 19  2  0
 19 20  1  0
 20 21  2  0
  5 22  1  0
 22 23  1  0
 23 24  2  0
 23 25  1  0
 25 26  1  0
 26 27  1  0
 27 28  1  0
 28 29  1  0
 29 30  1  0
 22  2  1  0
 30 26  1  0
 21 12  1  0
 20 15  1  0
  1 31  1  0
  1 32  1  0
  2 33  1  6
  3 34  1  0
  3 35  1  0
  4 36  1  0
  4 37  1  0
  8 38  1  0
  8 39  1  0
  9 40  1  0
 13 41  1  0
 14 42  1  0
 16 43  1  0
 17 44  1  0
 18 45  1  0
 19 46  1  0
 22 47  1  1
 25 48  1  0
 26 49  1  0
 27 50  1  0
 27 51  1  0
 28 52  1  0
 28 53  1  0
 29 54  1  0
 29 55  1  0
 30 56  1  0
 30 57  1  0
M  END
>  <smiles>  (36) 
N[C@@H]1CCN(C(=O)CNC(=O)c2ccc3ccccc3n2)[C@H]1C(=O)NC1CCCC1

>  <score_type>  (36) 
oracle

>  <origin>  (36) 
autodockgpu

>  <m_score__min__energy>  (36) 
-9.6600000000000001

>  <m_primary>  (36) 
energy

>  <rmsd>  (36) 
4.743262590971049

>  <m_score__min__rmsd>  (36) 
4.743262590971049

>  <meeko>  (36) 
{"free_energy": -7.83, "intermolecular_energy": -9.92, "internal_energy": -3.28, "cluster_size": 16, "cluster_id": 2, "rank_in_cluster": 6}

>  <energy>  (36) 
-7.69

>  <cluster_rmsd>  (36) 
0.66

>  <cluster>  (36) 
2

$$$$

     RDKit          3D

 57 60  0  0  0  0  0  0  0  0999 V2000
  141.4740   77.7030  221.9380 N   0  0  0  0  0  0  0  0  0  0  0  0
  140.2430   77.1060  221.5030 C   0  0  2  0  0  0  0  0  0  0  0  0
  139.0200   77.7880  222.1120 C   0  0  0  0  0  0  0  0  0  0  0  0
  137.9960   76.6470  222.3250 C   0  0  0  0  0  0  0  0  0  0  0  0
  138.6590   75.4930  221.6650 N   0  0  0  0  0  0  0  0  0  0  0  0
  138.0960   74.4670  220.9000 C   0  0  0  0  0  0  0  0  0  0  0  0
  137.6660   74.8180  219.7300 O   0  0  0  0  0  0  0  0  0  0  0  0
  137.9140   73.0560  221.2120 C   0  0  0  0  0  0  0  0  0  0  0  0
  138.4610   72.5370  222.4180 N   0  0  0  0  0  0  0  0  0  0  0  0
  138.2690   71.1310  222.6810 C   0  0  0  0  0  0  0  0  0  0  0  0
  137.6540   70.3750  221.9070 O   0  0  0  0  0  0  0  0  0  0  0  0
  138.8430   70.6090  223.9300 C   0  0  0  0  0  0  0  0  0  0  0  0
  138.7510   69.2640  224.2240 C   0  0  0  0  0  0  0  0  0  0  0  0
  139.2800   68.7320  225.3960 C   0  0  0  0  0  0  0  0  0  0  0  0
  139.9090   69.5650  226.2800 C   0  0  0  0  0  0  0  0  0  0  0  0
  140.4720   69.1590  227.4680 C   0  0  0  0  0  0  0  0  0  0  0  0
  141.0940   70.0450  228.3210 C   0  0  0  0  0  0  0  0  0  0  0  0
  141.1770   71.3870  228.0110 C   0  0  0  0  0  0  0  0  0  0  0  0
  140.6110   71.8050  226.8110 C   0  0  0  0  0  0  0  0  0  0  0  0
  139.9840   70.9030  225.9560 C   0  0  0  0  0  0  0  0  0  0  0  0
  139.4630   71.3910  224.8170 N   0  0  0  0  0  0  0  0  0  0  0  0
  140.0510   75.7190  222.0500 C   0  0  1  0  0  0  0  0  0  0  0  0
  141.0240   74.7220  221.7160 C   0  0  0  0  0  0  0  0  0  0  0  0
  140.7850   73.5040  221.9530 O   0  0  0  0  0  0  0  0  0  0  0  0
  142.2580   75.0310  221.1180 N   0  0  0  0  0  0  0  0  0  0  0  0
  143.1820   73.9730  220.8160 C   0  0  0  0  0  0  0  0  0  0  0  0
  144.5680   74.4280  220.4790 C   0  0  0  0  0  0  0  0  0  0  0  0
  145.2070   73.0990  220.0690 C   0  0  0  0  0  0  0  0  0  0  0  0
  144.0600   72.2780  219.4890 C   0  0  0  0  0  0  0  0  0  0  0  0
  142.8160   73.1380  219.6270 C   0  0  0  0  0  0  0  0  0  0  0  0
  141.7020   77.2890  222.8730 H   0  0  0  0  0  0  0  0  0  0  0  0
  142.2200   77.5310  221.2330 H   0  0  0  0  0  0  0  0  0  0  0  0
  140.3162   77.1679  220.4072 H   0  0  0  0  0  0  0  0  0  0  0  0
  139.2777   78.2614  223.0709 H   0  0  0  0  0  0  0  0  0  0  0  0
  138.6245   78.5855  221.4658 H   0  0  0  0  0  0  0  0  0  0  0  0
  137.8336   76.4532  223.3956 H   0  0  0  0  0  0  0  0  0  0  0  0
  136.9987   76.8711  221.9186 H   0  0  0  0  0  0  0  0  0  0  0  0
  136.8302   72.8710  221.2447 H   0  0  0  0  0  0  0  0  0  0  0  0
  138.4796   72.5381  220.4234 H   0  0  0  0  0  0  0  0  0  0  0  0
  138.9960   73.1170  223.1280 H   0  0  0  0  0  0  0  0  0  0  0  0
  138.2458   68.5941  223.5126 H   0  0  0  0  0  0  0  0  0  0  0  0
  139.1935   67.6562  225.6086 H   0  0  0  0  0  0  0  0  0  0  0  0
  140.4242   68.0956  227.7452 H   0  0  0  0  0  0  0  0  0  0  0  0
  141.5301   69.6774  229.2616 H   0  0  0  0  0  0  0  0  0  0  0  0
  141.6721   72.0994  228.6873 H   0  0  0  0  0  0  0  0  0  0  0  0
  140.6598   72.8681  226.5326 H   0  0  0  0  0  0  0  0  0  0  0  0
  140.2336   75.6284  223.1310 H   0  0  0  0  0  0  0  0  0  0  0  0
  142.5600   76.0080  220.8480 H   0  0  0  0  0  0  0  0  0  0  0  0
  143.1373   73.4093  221.7595 H   0  0  0  0  0  0  0  0  0  0  0  0
  144.5676   75.1510  219.6500 H   0  0  0  0  0  0  0  0  0  0  0  0
  145.0879   74.9543  221.2931 H   0  0  0  0  0  0  0  0  0  0  0  0
  145.9884   73.2619  219.3121 H   0  0  0  0  0  0  0  0  0  0  0  0
  145.6930   72.5930  220.9162 H   0  0  0  0  0  0  0  0  0  0  0  0
  144.2510   72.0498  218.4300 H   0  0  0  0  0  0  0  0  0  0  0  0
  143.9461   71.3185  220.0147 H   0  0  0  0  0  0  0  0  0  0  0  0
  142.6508   73.7572  218.7330 H   0  0  0  0  0  0  0  0  0  0  0  0
  141.8804   72.5706  219.7398 H   0  0  0  0  0  0  0  0  0  0  0  0
  1  2  1  0
  2  3  1  0
  3  4  1  0
  4  5  1  0
  5  6  1  0
  6  7  2  0
  6  8  1  0
  8  9  1  0
  9 10  1  0
 10 11  2  0
 10 12  1  0
 12 13  2  0
 13 14  1  0
 14 15  2  0
 15 16  1  0
 16 17  2  0
 17 18  1  0
 18 19  2  0
 19 20  1  0
 20 21  2  0
  5 22  1  0
 22 23  1  0
 23 24  2  0
 23 25  1  0
 25 26  1  0
 26 27  1  0
 27 28  1  0
 28 29  1  0
 29 30  1  0
 22  2  1  0
 30 26  1  0
 21 12  1  0
 20 15  1  0
  1 31  1  0
  1 32  1  0
  2 33  1  6
  3 34  1  0
  3 35  1  0
  4 36  1  0
  4 37  1  0
  8 38  1  0
  8 39  1  0
  9 40  1  0
 13 41  1  0
 14 42  1  0
 16 43  1  0
 17 44  1  0
 18 45  1  0
 19 46  1  0
 22 47  1  1
 25 48  1  0
 26 49  1  0
 27 50  1  0
 27 51  1  0
 28 52  1  0
 28 53  1  0
 29 54  1  0
 29 55  1  0
 30 56  1  0
 30 57  1  0
M  END
>  <smiles>  (37) 
N[C@@H]1CCN(C(=O)CNC(=O)c2ccc3ccccc3n2)[C@H]1C(=O)NC1CCCC1

>  <score_type>  (37) 
oracle

>  <origin>  (37) 
autodockgpu

>  <m_score__min__energy>  (37) 
-9.6600000000000001

>  <m_primary>  (37) 
energy

>  <rmsd>  (37) 
4.554284755559194

>  <m_score__min__rmsd>  (37) 
4.554284755559194

>  <meeko>  (37) 
{"free_energy": -8.44, "intermolecular_energy": -10.53, "internal_energy": -2.95, "cluster_size": 24, "cluster_id": 1, "rank_in_cluster": 16}

>  <energy>  (37) 
-7.66

>  <cluster_rmsd>  (37) 
0.46

>  <cluster>  (37) 
2

$$$$

     RDKit          3D

 57 60  0  0  0  0  0  0  0  0999 V2000
  136.2230   78.8700  222.6240 N   0  0  0  0  0  0  0  0  0  0  0  0
  136.7800   77.7200  221.9710 C   0  0  2  0  0  0  0  0  0  0  0  0
  135.8980   76.4820  222.1230 C   0  0  0  0  0  0  0  0  0  0  0  0
  136.8900   75.2990  222.2240 C   0  0  0  0  0  0  0  0  0  0  0  0
  138.1960   75.9500  221.9460 N   0  0  0  0  0  0  0  0  0  0  0  0
  139.2900   75.4670  221.2210 C   0  0  0  0  0  0  0  0  0  0  0  0
  139.8040   76.2970  220.3700 O   0  0  0  0  0  0  0  0  0  0  0  0
  139.9480   74.1680  221.2700 C   0  0  0  0  0  0  0  0  0  0  0  0
  139.8800   73.4020  222.4660 N   0  0  0  0  0  0  0  0  0  0  0  0
  140.2530   72.0100  222.3830 C   0  0  0  0  0  0  0  0  0  0  0  0
  140.6220   71.4700  221.3250 O   0  0  0  0  0  0  0  0  0  0  0  0
  140.1810   71.2320  223.6290 C   0  0  0  0  0  0  0  0  0  0  0  0
  139.6270   69.9690  223.6230 C   0  0  0  0  0  0  0  0  0  0  0  0
  139.5400   69.2020  224.7810 C   0  0  0  0  0  0  0  0  0  0  0  0
  140.0170   69.7140  225.9560 C   0  0  0  0  0  0  0  0  0  0  0  0
  139.9870   69.0540  227.1630 C   0  0  0  0  0  0  0  0  0  0  0  0
  140.4840   69.6210  228.3170 C   0  0  0  0  0  0  0  0  0  0  0  0
  141.0350   70.8860  228.3030 C   0  0  0  0  0  0  0  0  0  0  0  0
  141.0680   71.5600  227.0870 C   0  0  0  0  0  0  0  0  0  0  0  0
  140.5640   70.9790  225.9270 C   0  0  0  0  0  0  0  0  0  0  0  0
  140.6360   71.6990  224.7940 N   0  0  0  0  0  0  0  0  0  0  0  0
  138.0260   77.2200  222.6490 C   0  0  1  0  0  0  0  0  0  0  0  0
  139.1460   78.1080  222.7400 C   0  0  0  0  0  0  0  0  0  0  0  0
  138.9650   79.3240  223.0320 O   0  0  0  0  0  0  0  0  0  0  0  0
  140.4710   77.6890  222.5210 N   0  0  0  0  0  0  0  0  0  0  0  0
  141.5400   78.6420  222.6280 C   0  0  0  0  0  0  0  0  0  0  0  0
  141.6580   79.3070  223.9640 C   0  0  0  0  0  0  0  0  0  0  0  0
  142.7520   80.3360  223.6690 C   0  0  0  0  0  0  0  0  0  0  0  0
  142.5790   80.6770  222.1940 C   0  0  0  0  0  0  0  0  0  0  0  0
  141.4370   79.8100  221.6930 C   0  0  0  0  0  0  0  0  0  0  0  0
  136.8520   79.1020  223.4290 H   0  0  0  0  0  0  0  0  0  0  0  0
  136.1370   79.6550  221.9460 H   0  0  0  0  0  0  0  0  0  0  0  0
  136.9209   78.0708  220.9380 H   0  0  0  0  0  0  0  0  0  0  0  0
  135.2851   76.5525  223.0337 H   0  0  0  0  0  0  0  0  0  0  0  0
  135.1978   76.3657  221.2827 H   0  0  0  0  0  0  0  0  0  0  0  0
  136.8746   74.8520  223.2289 H   0  0  0  0  0  0  0  0  0  0  0  0
  136.6574   74.4718  221.5373 H   0  0  0  0  0  0  0  0  0  0  0  0
  139.5086   73.5545  220.4697 H   0  0  0  0  0  0  0  0  0  0  0  0
  141.0165   74.4116  221.1750 H   0  0  0  0  0  0  0  0  0  0  0  0
  139.5740   73.7900  223.4060 H   0  0  0  0  0  0  0  0  0  0  0  0
  139.2437   69.5570  222.6778 H   0  0  0  0  0  0  0  0  0  0  0  0
  139.0934   68.1972  224.7516 H   0  0  0  0  0  0  0  0  0  0  0  0
  139.5536   68.0440  227.2084 H   0  0  0  0  0  0  0  0  0  0  0  0
  140.4408   69.0579  229.2610 H   0  0  0  0  0  0  0  0  0  0  0  0
  141.4335   71.3445  229.2200 H   0  0  0  0  0  0  0  0  0  0  0  0
  141.5002   72.5705  227.0411 H   0  0  0  0  0  0  0  0  0  0  0  0
  137.9381   77.1150  223.7405 H   0  0  0  0  0  0  0  0  0  0  0  0
  140.7500   76.6940  222.2960 H   0  0  0  0  0  0  0  0  0  0  0  0
  142.3962   77.9896  222.4012 H   0  0  0  0  0  0  0  0  0  0  0  0
  140.7157   79.7903  224.2615 H   0  0  0  0  0  0  0  0  0  0  0  0
  141.8836   78.6247  224.7968 H   0  0  0  0  0  0  0  0  0  0  0  0
  142.6186   81.2326  224.2921 H   0  0  0  0  0  0  0  0  0  0  0  0
  143.7572   79.9479  223.8901 H   0  0  0  0  0  0  0  0  0  0  0  0
  142.3306   81.7420  222.0748 H   0  0  0  0  0  0  0  0  0  0  0  0
  143.5033   80.4914  221.6273 H   0  0  0  0  0  0  0  0  0  0  0  0
  140.4679   80.3215  221.7894 H   0  0  0  0  0  0  0  0  0  0  0  0
  141.4989   79.5467  220.6268 H   0  0  0  0  0  0  0  0  0  0  0  0
  1  2  1  0
  2  3  1  0
  3  4  1  0
  4  5  1  0
  5  6  1  0
  6  7  2  0
  6  8  1  0
  8  9  1  0
  9 10  1  0
 10 11  2  0
 10 12  1  0
 12 13  2  0
 13 14  1  0
 14 15  2  0
 15 16  1  0
 16 17  2  0
 17 18  1  0
 18 19  2  0
 19 20  1  0
 20 21  2  0
  5 22  1  0
 22 23  1  0
 23 24  2  0
 23 25  1  0
 25 26  1  0
 26 27  1  0
 27 28  1  0
 28 29  1  0
 29 30  1  0
 22  2  1  0
 30 26  1  0
 21 12  1  0
 20 15  1  0
  1 31  1  0
  1 32  1  0
  2 33  1  6
  3 34  1  0
  3 35  1  0
  4 36  1  0
  4 37  1  0
  8 38  1  0
  8 39  1  0
  9 40  1  0
 13 41  1  0
 14 42  1  0
 16 43  1  0
 17 44  1  0
 18 45  1  0
 19 46  1  0
 22 47  1  1
 25 48  1  0
 26 49  1  0
 27 50  1  0
 27 51  1  0
 28 52  1  0
 28 53  1  0
 29 54  1  0
 29 55  1  0
 30 56  1  0
 30 57  1  0
M  END
>  <smiles>  (38) 
N[C@@H]1CCN(C(=O)CNC(=O)c2ccc3ccccc3n2)[C@H]1C(=O)NC1CCCC1

>  <score_type>  (38) 
oracle

>  <origin>  (38) 
autodockgpu

>  <m_score__min__energy>  (38) 
-9.6600000000000001

>  <m_primary>  (38) 
energy

>  <rmsd>  (38) 
2.953746442616711

>  <m_score__min__rmsd>  (38) 
2.953746442616711

>  <meeko>  (38) 
{"free_energy": -7.95, "intermolecular_energy": -10.04, "internal_energy": -2.54, "cluster_size": 1, "cluster_id": 4, "rank_in_cluster": 1}

>  <energy>  (38) 
-7.65

>  <cluster_rmsd>  (38) 
0.66

>  <cluster>  (38) 
2

$$$$

     RDKit          3D

 57 60  0  0  0  0  0  0  0  0999 V2000
  142.7200   77.5510  217.1620 N   0  0  0  0  0  0  0  0  0  0  0  0
  141.7740   77.3500  218.2220 C   0  0  2  0  0  0  0  0  0  0  0  0
  141.0770   78.6460  218.6320 C   0  0  0  0  0  0  0  0  0  0  0  0
  140.8620   78.5130  220.1590 C   0  0  0  0  0  0  0  0  0  0  0  0
  141.2870   77.1140  220.4230 N   0  0  0  0  0  0  0  0  0  0  0  0
  140.7400   76.1740  221.3020 C   0  0  0  0  0  0  0  0  0  0  0  0
  141.3890   76.0060  222.4100 O   0  0  0  0  0  0  0  0  0  0  0  0
  139.5490   75.3460  221.1670 C   0  0  0  0  0  0  0  0  0  0  0  0
  139.3380   74.2810  222.0860 N   0  0  0  0  0  0  0  0  0  0  0  0
  140.3360   73.2390  222.1320 C   0  0  0  0  0  0  0  0  0  0  0  0
  141.3500   73.2410  221.4110 O   0  0  0  0  0  0  0  0  0  0  0  0
  140.1060   72.1460  223.0870 C   0  0  0  0  0  0  0  0  0  0  0  0
  139.3480   71.0540  222.7190 C   0  0  0  0  0  0  0  0  0  0  0  0
  139.1070   70.0000  223.5950 C   0  0  0  0  0  0  0  0  0  0  0  0
  139.6360   70.0480  224.8560 C   0  0  0  0  0  0  0  0  0  0  0  0
  139.4680   69.0700  225.8090 C   0  0  0  0  0  0  0  0  0  0  0  0
  140.0260   69.1730  227.0650 C   0  0  0  0  0  0  0  0  0  0  0  0
  140.7820   70.2730  227.4160 C   0  0  0  0  0  0  0  0  0  0  0  0
  140.9560   71.2660  226.4580 C   0  0  0  0  0  0  0  0  0  0  0  0
  140.3880   71.1530  225.1910 C   0  0  0  0  0  0  0  0  0  0  0  0
  140.6050   72.1580  224.3260 N   0  0  0  0  0  0  0  0  0  0  0  0
  142.4360   77.0010  219.5260 C   0  0  1  0  0  0  0  0  0  0  0  0
  143.2320   75.8120  219.5810 C   0  0  0  0  0  0  0  0  0  0  0  0
  144.0000   75.5230  218.6200 O   0  0  0  0  0  0  0  0  0  0  0  0
  143.2100   74.9290  220.6750 N   0  0  0  0  0  0  0  0  0  0  0  0
  144.0370   73.7550  220.6530 C   0  0  0  0  0  0  0  0  0  0  0  0
  145.5080   74.0250  220.5850 C   0  0  0  0  0  0  0  0  0  0  0  0
  146.0460   72.6020  220.4150 C   0  0  0  0  0  0  0  0  0  0  0  0
  144.9470   71.8570  219.6650 C   0  0  0  0  0  0  0  0  0  0  0  0
  143.8180   72.8540  219.4750 C   0  0  0  0  0  0  0  0  0  0  0  0
  143.1140   78.5150  217.2800 H   0  0  0  0  0  0  0  0  0  0  0  0
  143.4540   76.8130  217.1960 H   0  0  0  0  0  0  0  0  0  0  0  0
  141.1122   76.5720  217.8136 H   0  0  0  0  0  0  0  0  0  0  0  0
  141.7108   79.5157  218.4042 H   0  0  0  0  0  0  0  0  0  0  0  0
  140.1313   78.7981  218.0911 H   0  0  0  0  0  0  0  0  0  0  0  0
  141.4870   79.2294  220.7123 H   0  0  0  0  0  0  0  0  0  0  0  0
  139.8305   78.7253  220.4767 H   0  0  0  0  0  0  0  0  0  0  0  0
  138.6805   76.0164  221.2466 H   0  0  0  0  0  0  0  0  0  0  0  0
  139.6920   74.8360  220.2029 H   0  0  0  0  0  0  0  0  0  0  0  0
  138.4990   74.2080  222.7320 H   0  0  0  0  0  0  0  0  0  0  0  0
  138.9224   71.0152  221.7054 H   0  0  0  0  0  0  0  0  0  0  0  0
  138.4993   69.1397  223.2780 H   0  0  0  0  0  0  0  0  0  0  0  0
  138.8709   68.1800  225.5613 H   0  0  0  0  0  0  0  0  0  0  0  0
  139.8667   68.3678  227.7974 H   0  0  0  0  0  0  0  0  0  0  0  0
  141.2304   70.3611  228.4166 H   0  0  0  0  0  0  0  0  0  0  0  0
  141.5527   72.1564  226.7051 H   0  0  0  0  0  0  0  0  0  0  0  0
  143.2779   77.6553  219.7965 H   0  0  0  0  0  0  0  0  0  0  0  0
  142.6290   75.0770  221.5460 H   0  0  0  0  0  0  0  0  0  0  0  0
  143.7333   73.2926  221.6038 H   0  0  0  0  0  0  0  0  0  0  0  0
  145.7646   74.6615  219.7253 H   0  0  0  0  0  0  0  0  0  0  0  0
  145.9146   74.5681  221.4509 H   0  0  0  0  0  0  0  0  0  0  0  0
  146.9783   72.6074  219.8313 H   0  0  0  0  0  0  0  0  0  0  0  0
  146.2837   72.1300  221.3797 H   0  0  0  0  0  0  0  0  0  0  0  0
  145.3182   71.5098  218.6894 H   0  0  0  0  0  0  0  0  0  0  0  0
  144.6107   70.9697  220.2213 H   0  0  0  0  0  0  0  0  0  0  0  0
  143.9153   73.3994  218.5247 H   0  0  0  0  0  0  0  0  0  0  0  0
  142.8158   72.4031  219.4269 H   0  0  0  0  0  0  0  0  0  0  0  0
  1  2  1  0
  2  3  1  0
  3  4  1  0
  4  5  1  0
  5  6  1  0
  6  7  2  0
  6  8  1  0
  8  9  1  0
  9 10  1  0
 10 11  2  0
 10 12  1  0
 12 13  2  0
 13 14  1  0
 14 15  2  0
 15 16  1  0
 16 17  2  0
 17 18  1  0
 18 19  2  0
 19 20  1  0
 20 21  2  0
  5 22  1  0
 22 23  1  0
 23 24  2  0
 23 25  1  0
 25 26  1  0
 26 27  1  0
 27 28  1  0
 28 29  1  0
 29 30  1  0
 22  2  1  0
 30 26  1  0
 21 12  1  0
 20 15  1  0
  1 31  1  0
  1 32  1  0
  2 33  1  6
  3 34  1  0
  3 35  1  0
  4 36  1  0
  4 37  1  0
  8 38  1  0
  8 39  1  0
  9 40  1  0
 13 41  1  0
 14 42  1  0
 16 43  1  0
 17 44  1  0
 18 45  1  0
 19 46  1  0
 22 47  1  1
 25 48  1  0
 26 49  1  0
 27 50  1  0
 27 51  1  0
 28 52  1  0
 28 53  1  0
 29 54  1  0
 29 55  1  0
 30 56  1  0
 30 57  1  0
M  END
>  <smiles>  (39) 
N[C@@H]1CCN(C(=O)CNC(=O)c2ccc3ccccc3n2)[C@H]1C(=O)NC1CCCC1

>  <score_type>  (39) 
oracle

>  <origin>  (39) 
autodockgpu

>  <m_score__min__energy>  (39) 
-9.6600000000000001

>  <m_primary>  (39) 
energy

>  <rmsd>  (39) 
4.806837012895611

>  <m_score__min__rmsd>  (39) 
4.806837012895611

>  <meeko>  (39) 
{"free_energy": -7.65, "intermolecular_energy": -9.74, "internal_energy": -3.35, "cluster_size": 16, "cluster_id": 2, "rank_in_cluster": 14}

>  <energy>  (39) 
-7.42

>  <cluster_rmsd>  (39) 
0.83

>  <cluster>  (39) 
2

$$$$

     RDKit          3D

 57 60  0  0  0  0  0  0  0  0999 V2000
  143.7030   76.7180  219.4000 N   0  0  0  0  0  0  0  0  0  0  0  0
  142.7820   75.7370  219.8980 C   0  0  2  0  0  0  0  0  0  0  0  0
  142.6030   74.5660  218.9330 C   0  0  0  0  0  0  0  0  0  0  0  0
  141.1190   74.1520  219.0840 C   0  0  0  0  0  0  0  0  0  0  0  0
  140.6650   74.9920  220.2220 N   0  0  0  0  0  0  0  0  0  0  0  0
  139.7930   74.6710  221.2670 C   0  0  0  0  0  0  0  0  0  0  0  0
  139.9630   75.3460  222.3590 O   0  0  0  0  0  0  0  0  0  0  0  0
  138.7180   73.6900  221.3230 C   0  0  0  0  0  0  0  0  0  0  0  0
  138.6660   72.7810  222.4150 N   0  0  0  0  0  0  0  0  0  0  0  0
  139.8590   72.0210  222.7010 C   0  0  0  0  0  0  0  0  0  0  0  0
  140.9070   72.1310  222.0390 O   0  0  0  0  0  0  0  0  0  0  0  0
  139.7910   71.0870  223.8340 C   0  0  0  0  0  0  0  0  0  0  0  0
  139.0400   69.9340  223.7360 C   0  0  0  0  0  0  0  0  0  0  0  0
  138.9500   69.0260  224.7860 C   0  0  0  0  0  0  0  0  0  0  0  0
  139.6250   69.2830  225.9480 C   0  0  0  0  0  0  0  0  0  0  0  0
  139.6140   68.4640  227.0530 C   0  0  0  0  0  0  0  0  0  0  0  0
  140.3150   68.7750  228.1990 C   0  0  0  0  0  0  0  0  0  0  0  0
  141.0610   69.9320  228.2790 C   0  0  0  0  0  0  0  0  0  0  0  0
  141.0770   70.7660  227.1660 C   0  0  0  0  0  0  0  0  0  0  0  0
  140.3660   70.4430  226.0130 C   0  0  0  0  0  0  0  0  0  0  0  0
  140.4350   71.3050  224.9840 N   0  0  0  0  0  0  0  0  0  0  0  0
  141.3660   76.2430  219.9370 C   0  0  1  0  0  0  0  0  0  0  0  0
  141.0820   77.3870  220.7510 C   0  0  0  0  0  0  0  0  0  0  0  0
  139.8880   77.6590  221.0610 O   0  0  0  0  0  0  0  0  0  0  0  0
  142.0850   78.2420  221.2410 N   0  0  0  0  0  0  0  0  0  0  0  0
  141.7180   79.3720  222.0480 C   0  0  0  0  0  0  0  0  0  0  0  0
  141.7500   80.6890  221.3360 C   0  0  0  0  0  0  0  0  0  0  0  0
  141.4760   81.6430  222.5010 C   0  0  0  0  0  0  0  0  0  0  0  0
  142.0660   80.9480  223.7220 C   0  0  0  0  0  0  0  0  0  0  0  0
  142.6100   79.6190  223.2270 C   0  0  0  0  0  0  0  0  0  0  0  0
  144.1490   77.1710  220.2330 H   0  0  0  0  0  0  0  0  0  0  0  0
  144.3990   76.2640  218.7720 H   0  0  0  0  0  0  0  0  0  0  0  0
  143.2101   75.4763  220.8771 H   0  0  0  0  0  0  0  0  0  0  0  0
  142.8146   74.8794  217.9000 H   0  0  0  0  0  0  0  0  0  0  0  0
  143.2901   73.7362  219.1552 H   0  0  0  0  0  0  0  0  0  0  0  0
  140.5485   74.3776  218.1710 H   0  0  0  0  0  0  0  0  0  0  0  0
  140.9794   73.0739  219.2518 H   0  0  0  0  0  0  0  0  0  0  0  0
  137.7713   74.2501  221.3255 H   0  0  0  0  0  0  0  0  0  0  0  0
  138.9071   73.0440  220.4530 H   0  0  0  0  0  0  0  0  0  0  0  0
  137.8100   72.6300  223.0250 H   0  0  0  0  0  0  0  0  0  0  0  0
  138.4974   69.7269  222.8018 H   0  0  0  0  0  0  0  0  0  0  0  0
  138.3442   68.1136  224.6834 H   0  0  0  0  0  0  0  0  0  0  0  0
  139.0286   67.5332  227.0216 H   0  0  0  0  0  0  0  0  0  0  0  0
  140.2787   68.0916  229.0602 H   0  0  0  0  0  0  0  0  0  0  0  0
  141.6230   70.1861  229.1899 H   0  0  0  0  0  0  0  0  0  0  0  0
  141.6616   71.6972  227.1971 H   0  0  0  0  0  0  0  0  0  0  0  0
  141.0350   76.7369  219.0115 H   0  0  0  0  0  0  0  0  0  0  0  0
  143.1200   78.1040  221.0710 H   0  0  0  0  0  0  0  0  0  0  0  0
  140.7010   79.0717  222.3405 H   0  0  0  0  0  0  0  0  0  0  0  0
  142.7318   80.8791  220.8778 H   0  0  0  0  0  0  0  0  0  0  0  0
  141.0427   80.7741  220.4979 H   0  0  0  0  0  0  0  0  0  0  0  0
  141.9678   82.6123  222.3317 H   0  0  0  0  0  0  0  0  0  0  0  0
  140.4030   81.8530  222.6215 H   0  0  0  0  0  0  0  0  0  0  0  0
  142.8755   81.5553  224.1532 H   0  0  0  0  0  0  0  0  0  0  0  0
  141.3100   80.8055  224.5083 H   0  0  0  0  0  0  0  0  0  0  0  0
  143.6650   79.7001  222.9265 H   0  0  0  0  0  0  0  0  0  0  0  0
  142.6040   78.8160  223.9788 H   0  0  0  0  0  0  0  0  0  0  0  0
  1  2  1  0
  2  3  1  0
  3  4  1  0
  4  5  1  0
  5  6  1  0
  6  7  2  0
  6  8  1  0
  8  9  1  0
  9 10  1  0
 10 11  2  0
 10 12  1  0
 12 13  2  0
 13 14  1  0
 14 15  2  0
 15 16  1  0
 16 17  2  0
 17 18  1  0
 18 19  2  0
 19 20  1  0
 20 21  2  0
  5 22  1  0
 22 23  1  0
 23 24  2  0
 23 25  1  0
 25 26  1  0
 26 27  1  0
 27 28  1  0
 28 29  1  0
 29 30  1  0
 22  2  1  0
 30 26  1  0
 21 12  1  0
 20 15  1  0
  1 31  1  0
  1 32  1  0
  2 33  1  1
  3 34  1  0
  3 35  1  0
  4 36  1  0
  4 37  1  0
  8 38  1  0
  8 39  1  0
  9 40  1  0
 13 41  1  0
 14 42  1  0
 16 43  1  0
 17 44  1  0
 18 45  1  0
 19 46  1  0
 22 47  1  6
 25 48  1  0
 26 49  1  0
 27 50  1  0
 27 51  1  0
 28 52  1  0
 28 53  1  0
 29 54  1  0
 29 55  1  0
 30 56  1  0
 30 57  1  0
M  END
>  <smiles>  (40) 
N[C@@H]1CCN(C(=O)CNC(=O)c2ccc3ccccc3n2)[C@H]1C(=O)NC1CCCC1

>  <score_type>  (40) 
oracle

>  <origin>  (40) 
autodockgpu

>  <m_score__min__energy>  (40) 
-9.6600000000000001

>  <m_primary>  (40) 
energy

>  <rmsd>  (40) 
1.8975244644344993

>  <m_score__min__rmsd>  (40) 
1.8975244644344993

>  <meeko>  (40) 
{"free_energy": -9.66, "intermolecular_energy": -11.75, "internal_energy": -1.86, "cluster_size": 24, "cluster_id": 1, "rank_in_cluster": 1}

>  <energy>  (40) 
-7.42

>  <cluster_rmsd>  (40) 
1.57

>  <cluster>  (40) 
2

$$$$

     RDKit          3D

 57 60  0  0  0  0  0  0  0  0999 V2000
  141.6750   77.7680  217.1020 N   0  0  0  0  0  0  0  0  0  0  0  0
  140.9570   77.2940  218.2500 C   0  0  2  0  0  0  0  0  0  0  0  0
  140.1050   78.3860  218.8940 C   0  0  0  0  0  0  0  0  0  0  0  0
  140.1560   78.0850  220.4110 C   0  0  0  0  0  0  0  0  0  0  0  0
  140.8670   76.7810  220.4560 N   0  0  0  0  0  0  0  0  0  0  0  0
  140.6450   75.6800  221.2900 C   0  0  0  0  0  0  0  0  0  0  0  0
  141.3800   75.6320  222.3540 O   0  0  0  0  0  0  0  0  0  0  0  0
  139.7120   74.5700  221.1480 C   0  0  0  0  0  0  0  0  0  0  0  0
  139.5290   73.6760  222.2380 N   0  0  0  0  0  0  0  0  0  0  0  0
  140.4150   72.5390  222.3190 C   0  0  0  0  0  0  0  0  0  0  0  0
  141.3120   72.3200  221.4850 O   0  0  0  0  0  0  0  0  0  0  0  0
  140.2150   71.6260  223.4530 C   0  0  0  0  0  0  0  0  0  0  0  0
  139.5210   70.4460  223.2760 C   0  0  0  0  0  0  0  0  0  0  0  0
  139.3100   69.5560  224.3250 C   0  0  0  0  0  0  0  0  0  0  0  0
  139.8050   69.8580  225.5640 C   0  0  0  0  0  0  0  0  0  0  0  0
  139.6620   69.0610  226.6760 C   0  0  0  0  0  0  0  0  0  0  0  0
  140.1820   69.4170  227.9020 C   0  0  0  0  0  0  0  0  0  0  0  0
  140.8730   70.6010  228.0600 C   0  0  0  0  0  0  0  0  0  0  0  0
  141.0220   71.4130  226.9400 C   0  0  0  0  0  0  0  0  0  0  0  0
  140.4930   71.0440  225.7070 C   0  0  0  0  0  0  0  0  0  0  0  0
  140.6820   71.8870  224.6770 N   0  0  0  0  0  0  0  0  0  0  0  0
  141.8650   76.9750  219.4050 C   0  0  1  0  0  0  0  0  0  0  0  0
  142.8660   75.9670  219.2180 C   0  0  0  0  0  0  0  0  0  0  0  0
  143.3910   75.8040  218.0810 O   0  0  0  0  0  0  0  0  0  0  0  0
  143.3120   75.1340  220.2590 N   0  0  0  0  0  0  0  0  0  0  0  0
  144.3180   74.1440  219.9890 C   0  0  0  0  0  0  0  0  0  0  0  0
  143.8920   72.7320  220.2440 C   0  0  0  0  0  0  0  0  0  0  0  0
  145.2150   71.9960  220.0180 C   0  0  0  0  0  0  0  0  0  0  0  0
  146.2920   72.9950  220.4270 C   0  0  0  0  0  0  0  0  0  0  0  0
  145.5580   74.2640  220.8230 C   0  0  0  0  0  0  0  0  0  0  0  0
  142.6960   77.6420  217.3040 H   0  0  0  0  0  0  0  0  0  0  0  0
  141.3690   77.2480  216.2530 H   0  0  0  0  0  0  0  0  0  0  0  0
  140.3950   76.4375  217.8494 H   0  0  0  0  0  0  0  0  0  0  0  0
  140.5248   79.3804  218.6820 H   0  0  0  0  0  0  0  0  0  0  0  0
  139.0755   78.3918  218.5065 H   0  0  0  0  0  0  0  0  0  0  0  0
  140.7160   78.8621  220.9519 H   0  0  0  0  0  0  0  0  0  0  0  0
  139.1646   78.0607  220.8870 H   0  0  0  0  0  0  0  0  0  0  0  0
  138.7276   75.0044  220.9195 H   0  0  0  0  0  0  0  0  0  0  0  0
  140.1676   73.9426  220.3677 H   0  0  0  0  0  0  0  0  0  0  0  0
  138.7860   73.7940  222.9880 H   0  0  0  0  0  0  0  0  0  0  0  0
  139.1242   70.2026  222.2794 H   0  0  0  0  0  0  0  0  0  0  0  0
  138.7526   68.6221  224.1600 H   0  0  0  0  0  0  0  0  0  0  0  0
  139.1160   68.1105  226.5841 H   0  0  0  0  0  0  0  0  0  0  0  0
  140.0444   68.7490  228.7651 H   0  0  0  0  0  0  0  0  0  0  0  0
  141.2905   70.8920  229.0352 H   0  0  0  0  0  0  0  0  0  0  0  0
  141.5678   72.3637  227.0309 H   0  0  0  0  0  0  0  0  0  0  0  0
  142.6032   77.7586  219.6311 H   0  0  0  0  0  0  0  0  0  0  0  0
  142.9670   75.1920  221.2570 H   0  0  0  0  0  0  0  0  0  0  0  0
  144.5015   74.3472  218.9236 H   0  0  0  0  0  0  0  0  0  0  0  0
  143.5234   72.5984  221.2718 H   0  0  0  0  0  0  0  0  0  0  0  0
  143.0603   72.3834  219.6142 H   0  0  0  0  0  0  0  0  0  0  0  0
  145.2673   71.0924  220.6431 H   0  0  0  0  0  0  0  0  0  0  0  0
  145.3319   71.6631  218.9761 H   0  0  0  0  0  0  0  0  0  0  0  0
  146.8701   72.6065  221.2784 H   0  0  0  0  0  0  0  0  0  0  0  0
  147.0021   73.1796  219.6074 H   0  0  0  0  0  0  0  0  0  0  0  0
  145.3233   74.2772  221.8976 H   0  0  0  0  0  0  0  0  0  0  0  0
  146.1288   75.1899  220.6593 H   0  0  0  0  0  0  0  0  0  0  0  0
  1  2  1  0
  2  3  1  0
  3  4  1  0
  4  5  1  0
  5  6  1  0
  6  7  2  0
  6  8  1  0
  8  9  1  0
  9 10  1  0
 10 11  2  0
 10 12  1  0
 12 13  2  0
 13 14  1  0
 14 15  2  0
 15 16  1  0
 16 17  2  0
 17 18  1  0
 18 19  2  0
 19 20  1  0
 20 21  2  0
  5 22  1  0
 22 23  1  0
 23 24  2  0
 23 25  1  0
 25 26  1  0
 26 27  1  0
 27 28  1  0
 28 29  1  0
 29 30  1  0
 22  2  1  0
 30 26  1  0
 21 12  1  0
 20 15  1  0
  1 31  1  0
  1 32  1  0
  2 33  1  6
  3 34  1  0
  3 35  1  0
  4 36  1  0
  4 37  1  0
  8 38  1  0
  8 39  1  0
  9 40  1  0
 13 41  1  0
 14 42  1  0
 16 43  1  0
 17 44  1  0
 18 45  1  0
 19 46  1  0
 22 47  1  1
 25 48  1  0
 26 49  1  0
 27 50  1  0
 27 51  1  0
 28 52  1  0
 28 53  1  0
 29 54  1  0
 29 55  1  0
 30 56  1  0
 30 57  1  0
M  END
>  <smiles>  (41) 
N[C@@H]1CCN(C(=O)CNC(=O)c2ccc3ccccc3n2)[C@H]1C(=O)NC1CCCC1

>  <score_type>  (41) 
oracle

>  <origin>  (41) 
autodockgpu

>  <m_score__min__energy>  (41) 
-9.6600000000000001

>  <m_primary>  (41) 
energy

>  <rmsd>  (41) 
4.55803661674239

>  <m_score__min__rmsd>  (41) 
4.55803661674239

>  <meeko>  (41) 
{"free_energy": -7.99, "intermolecular_energy": -10.08, "internal_energy": -2.99, "cluster_size": 16, "cluster_id": 2, "rank_in_cluster": 3}

>  <energy>  (41) 
-8.01

>  <cluster_rmsd>  (41) 
0.0

>  <cluster>  (41) 
3

$$$$

     RDKit          3D

 57 60  0  0  0  0  0  0  0  0999 V2000
  143.6840   76.8050  218.3530 N   0  0  0  0  0  0  0  0  0  0  0  0
  143.0570   75.7530  219.1010 C   0  0  2  0  0  0  0  0  0  0  0  0
  142.9770   74.4480  218.3120 C   0  0  0  0  0  0  0  0  0  0  0  0
  141.6430   73.8000  218.7530 C   0  0  0  0  0  0  0  0  0  0  0  0
  141.1990   74.6940  219.8530 N   0  0  0  0  0  0  0  0  0  0  0  0
  140.5670   74.3700  221.0570 C   0  0  0  0  0  0  0  0  0  0  0  0
  141.0560   74.9390  222.1130 O   0  0  0  0  0  0  0  0  0  0  0  0
  139.4380   73.4860  221.3160 C   0  0  0  0  0  0  0  0  0  0  0  0
  139.4150   72.7260  222.5180 N   0  0  0  0  0  0  0  0  0  0  0  0
  139.7820   71.3330  222.4280 C   0  0  0  0  0  0  0  0  0  0  0  0
  140.1100   70.7870  221.3600 O   0  0  0  0  0  0  0  0  0  0  0  0
  139.7550   70.5620  223.6800 C   0  0  0  0  0  0  0  0  0  0  0  0
  139.2290   69.2870  223.6940 C   0  0  0  0  0  0  0  0  0  0  0  0
  139.1850   68.5260  224.8580 C   0  0  0  0  0  0  0  0  0  0  0  0
  139.6780   69.0560  226.0190 C   0  0  0  0  0  0  0  0  0  0  0  0
  139.6900   68.4030  227.2310 C   0  0  0  0  0  0  0  0  0  0  0  0
  140.2010   68.9880  228.3690 C   0  0  0  0  0  0  0  0  0  0  0  0
  140.7230   70.2650  228.3360 C   0  0  0  0  0  0  0  0  0  0  0  0
  140.7140   70.9310  227.1150 C   0  0  0  0  0  0  0  0  0  0  0  0
  140.1970   70.3320  225.9700 C   0  0  0  0  0  0  0  0  0  0  0  0
  140.2260   71.0470  224.8320 N   0  0  0  0  0  0  0  0  0  0  0  0
  141.5900   75.9990  219.3220 C   0  0  1  0  0  0  0  0  0  0  0  0
  141.2040   77.1750  220.0430 C   0  0  0  0  0  0  0  0  0  0  0  0
  140.4790   78.0470  219.4850 O   0  0  0  0  0  0  0  0  0  0  0  0
  141.5930   77.4160  221.3720 N   0  0  0  0  0  0  0  0  0  0  0  0
  141.1680   78.6220  222.0250 C   0  0  0  0  0  0  0  0  0  0  0  0
  141.8150   79.8730  221.5170 C   0  0  0  0  0  0  0  0  0  0  0  0
  141.2680   80.8970  222.5150 C   0  0  0  0  0  0  0  0  0  0  0  0
  141.0690   80.1130  223.8070 C   0  0  0  0  0  0  0  0  0  0  0  0
  141.4600   78.6790  223.4940 C   0  0  0  0  0  0  0  0  0  0  0  0
  143.9830   77.5360  219.0420 H   0  0  0  0  0  0  0  0  0  0  0  0
  144.4830   76.4230  217.8060 H   0  0  0  0  0  0  0  0  0  0  0  0
  143.6646   75.7097  220.0170 H   0  0  0  0  0  0  0  0  0  0  0  0
  142.9712   74.6489  217.2305 H   0  0  0  0  0  0  0  0  0  0  0  0
  143.8399   73.7933  218.5041 H   0  0  0  0  0  0  0  0  0  0  0  0
  140.9140   73.7911  217.9293 H   0  0  0  0  0  0  0  0  0  0  0  0
  141.7463   72.7481  219.0577 H   0  0  0  0  0  0  0  0  0  0  0  0
  138.5328   74.1110  221.3132 H   0  0  0  0  0  0  0  0  0  0  0  0
  139.5144   72.7246  220.5257 H   0  0  0  0  0  0  0  0  0  0  0  0
  139.1450   73.1190  223.4670 H   0  0  0  0  0  0  0  0  0  0  0  0
  138.8338   68.8605  222.7602 H   0  0  0  0  0  0  0  0  0  0  0  0
  138.7595   67.5117  224.8450 H   0  0  0  0  0  0  0  0  0  0  0  0
  139.2796   67.3843  227.2926 H   0  0  0  0  0  0  0  0  0  0  0  0
  140.1928   68.4296  229.3167 H   0  0  0  0  0  0  0  0  0  0  0  0
  141.1309   70.7384  229.2413 H   0  0  0  0  0  0  0  0  0  0  0  0
  141.1231   71.9502  227.0531 H   0  0  0  0  0  0  0  0  0  0  0  0
  141.0385   76.2946  218.4173 H   0  0  0  0  0  0  0  0  0  0  0  0
  142.1760   76.7500  221.9510 H   0  0  0  0  0  0  0  0  0  0  0  0
  140.0904   78.5828  221.8078 H   0  0  0  0  0  0  0  0  0  0  0  0
  142.9123   79.8092  221.5613 H   0  0  0  0  0  0  0  0  0  0  0  0
  141.6023   80.1027  220.4625 H   0  0  0  0  0  0  0  0  0  0  0  0
  141.9881   81.7149  222.6650 H   0  0  0  0  0  0  0  0  0  0  0  0
  140.3353   81.3623  222.1636 H   0  0  0  0  0  0  0  0  0  0  0  0
  141.7112   80.5188  224.6026 H   0  0  0  0  0  0  0  0  0  0  0  0
  140.0294   80.1781  224.1605 H   0  0  0  0  0  0  0  0  0  0  0  0
  142.5243   78.4950  223.7025 H   0  0  0  0  0  0  0  0  0  0  0  0
  140.9321   77.9222  224.0928 H   0  0  0  0  0  0  0  0  0  0  0  0
  1  2  1  0
  2  3  1  0
  3  4  1  0
  4  5  1  0
  5  6  1  0
  6  7  2  0
  6  8  1  0
  8  9  1  0
  9 10  1  0
 10 11  2  0
 10 12  1  0
 12 13  2  0
 13 14  1  0
 14 15  2  0
 15 16  1  0
 16 17  2  0
 17 18  1  0
 18 19  2  0
 19 20  1  0
 20 21  2  0
  5 22  1  0
 22 23  1  0
 23 24  2  0
 23 25  1  0
 25 26  1  0
 26 27  1  0
 27 28  1  0
 28 29  1  0
 29 30  1  0
 22  2  1  0
 30 26  1  0
 21 12  1  0
 20 15  1  0
  1 31  1  0
  1 32  1  0
  2 33  1  1
  3 34  1  0
  3 35  1  0
  4 36  1  0
  4 37  1  0
  8 38  1  0
  8 39  1  0
  9 40  1  0
 13 41  1  0
 14 42  1  0
 16 43  1  0
 17 44  1  0
 18 45  1  0
 19 46  1  0
 22 47  1  6
 25 48  1  0
 26 49  1  0
 27 50  1  0
 27 51  1  0
 28 52  1  0
 28 53  1  0
 29 54  1  0
 29 55  1  0
 30 56  1  0
 30 57  1  0
M  END
>  <smiles>  (42) 
N[C@@H]1CCN(C(=O)CNC(=O)c2ccc3ccccc3n2)[C@H]1C(=O)NC1CCCC1

>  <score_type>  (42) 
oracle

>  <origin>  (42) 
autodockgpu

>  <m_score__min__energy>  (42) 
-9.6600000000000001

>  <m_primary>  (42) 
energy

>  <rmsd>  (42) 
2.055776258208693

>  <m_score__min__rmsd>  (42) 
2.055776258208693

>  <meeko>  (42) 
{"free_energy": -9.15, "intermolecular_energy": -11.24, "internal_energy": -2.23, "cluster_size": 24, "cluster_id": 1, "rank_in_cluster": 8}

>  <energy>  (42) 
-7.65

>  <cluster_rmsd>  (42) 
0.73

>  <cluster>  (42) 
3

$$$$

     RDKit          3D

 57 60  0  0  0  0  0  0  0  0999 V2000
  142.2180   78.2450  220.8330 N   0  0  0  0  0  0  0  0  0  0  0  0
  141.0840   77.3680  220.7590 C   0  0  2  0  0  0  0  0  0  0  0  0
  139.9680   77.7800  221.7180 C   0  0  0  0  0  0  0  0  0  0  0  0
  139.3390   76.4470  222.1880 C   0  0  0  0  0  0  0  0  0  0  0  0
  140.0270   75.4460  221.3320 N   0  0  0  0  0  0  0  0  0  0  0  0
  139.5150   74.2900  220.7350 C   0  0  0  0  0  0  0  0  0  0  0  0
  140.1150   73.9110  219.6520 O   0  0  0  0  0  0  0  0  0  0  0  0
  138.4060   73.4380  221.1420 C   0  0  0  0  0  0  0  0  0  0  0  0
  138.5090   72.6950  222.3500 N   0  0  0  0  0  0  0  0  0  0  0  0
  139.6930   71.8900  222.5340 C   0  0  0  0  0  0  0  0  0  0  0  0
  140.6050   71.8250  221.6890 O   0  0  0  0  0  0  0  0  0  0  0  0
  139.7870   71.1300  223.7890 C   0  0  0  0  0  0  0  0  0  0  0  0
  139.2800   69.8490  223.8610 C   0  0  0  0  0  0  0  0  0  0  0  0
  139.3490   69.0990  225.0300 C   0  0  0  0  0  0  0  0  0  0  0  0
  139.9350   69.6460  226.1390 C   0  0  0  0  0  0  0  0  0  0  0  0
  140.0630   69.0050  227.3500 C   0  0  0  0  0  0  0  0  0  0  0  0
  140.6640   69.6070  228.4340 C   0  0  0  0  0  0  0  0  0  0  0  0
  141.1650   70.8890  228.3440 C   0  0  0  0  0  0  0  0  0  0  0  0
  141.0400   71.5440  227.1230 C   0  0  0  0  0  0  0  0  0  0  0  0
  140.4310   70.9270  226.0330 C   0  0  0  0  0  0  0  0  0  0  0  0
  140.3510   71.6320  224.8910 N   0  0  0  0  0  0  0  0  0  0  0  0
  141.3810   75.9970  221.2990 C   0  0  1  0  0  0  0  0  0  0  0  0
  142.4150   75.2330  220.6680 C   0  0  0  0  0  0  0  0  0  0  0  0
  143.3770   75.8230  220.1010 O   0  0  0  0  0  0  0  0  0  0  0  0
  142.4220   73.8270  220.6510 N   0  0  0  0  0  0  0  0  0  0  0  0
  143.4940   73.1340  219.9930 C   0  0  0  0  0  0  0  0  0  0  0  0
  143.3740   71.6410  220.0000 C   0  0  0  0  0  0  0  0  0  0  0  0
  144.7190   71.2500  219.3840 C   0  0  0  0  0  0  0  0  0  0  0  0
  145.6780   72.3580  219.8040 C   0  0  0  0  0  0  0  0  0  0  0  0
  144.8480   73.3530  220.5970 C   0  0  0  0  0  0  0  0  0  0  0  0
  142.5670   78.2140  221.8210 H   0  0  0  0  0  0  0  0  0  0  0  0
  142.9400   77.9490  220.1450 H   0  0  0  0  0  0  0  0  0  0  0  0
  140.8196   77.4004  219.6917 H   0  0  0  0  0  0  0  0  0  0  0  0
  140.3779   78.3378  222.5729 H   0  0  0  0  0  0  0  0  0  0  0  0
  139.2309   78.4406  221.2382 H   0  0  0  0  0  0  0  0  0  0  0  0
  139.5426   76.2655  223.2536 H   0  0  0  0  0  0  0  0  0  0  0  0
  138.2432   76.4231  222.0956 H   0  0  0  0  0  0  0  0  0  0  0  0
  137.5217   74.0852  221.2372 H   0  0  0  0  0  0  0  0  0  0  0  0
  138.3705   72.6641  220.3611 H   0  0  0  0  0  0  0  0  0  0  0  0
  137.7740   72.6980  223.1160 H   0  0  0  0  0  0  0  0  0  0  0  0
  138.8085   69.4091  222.9698 H   0  0  0  0  0  0  0  0  0  0  0  0
  138.9379   68.0793  225.0628 H   0  0  0  0  0  0  0  0  0  0  0  0
  139.6740   67.9815  227.4558 H   0  0  0  0  0  0  0  0  0  0  0  0
  140.7453   69.0580  229.3837 H   0  0  0  0  0  0  0  0  0  0  0  0
  141.6455   71.3754  229.2057 H   0  0  0  0  0  0  0  0  0  0  0  0
  141.4291   72.5674  227.0166 H   0  0  0  0  0  0  0  0  0  0  0  0
  141.8859   75.9948  222.2763 H   0  0  0  0  0  0  0  0  0  0  0  0
  141.6860   73.2230  221.1130 H   0  0  0  0  0  0  0  0  0  0  0  0
  143.4044   73.5629  218.9840 H   0  0  0  0  0  0  0  0  0  0  0  0
  143.2653   71.2472  221.0213 H   0  0  0  0  0  0  0  0  0  0  0  0
  142.4948   71.2494  219.4674 H   0  0  0  0  0  0  0  0  0  0  0  0
  145.0556   70.2781  219.7739 H   0  0  0  0  0  0  0  0  0  0  0  0
  144.6596   71.1454  218.2906 H   0  0  0  0  0  0  0  0  0  0  0  0
  146.4844   71.9484  220.4301 H   0  0  0  0  0  0  0  0  0  0  0  0
  146.1510   72.8330  218.9319 H   0  0  0  0  0  0  0  0  0  0  0  0
  144.8543   73.1196  221.6719 H   0  0  0  0  0  0  0  0  0  0  0  0
  145.2080   74.3911  220.5436 H   0  0  0  0  0  0  0  0  0  0  0  0
  1  2  1  0
  2  3  1  0
  3  4  1  0
  4  5  1  0
  5  6  1  0
  6  7  2  0
  6  8  1  0
  8  9  1  0
  9 10  1  0
 10 11  2  0
 10 12  1  0
 12 13  2  0
 13 14  1  0
 14 15  2  0
 15 16  1  0
 16 17  2  0
 17 18  1  0
 18 19  2  0
 19 20  1  0
 20 21  2  0
  5 22  1  0
 22 23  1  0
 23 24  2  0
 23 25  1  0
 25 26  1  0
 26 27  1  0
 27 28  1  0
 28 29  1  0
 29 30  1  0
 22  2  1  0
 30 26  1  0
 21 12  1  0
 20 15  1  0
  1 31  1  0
  1 32  1  0
  2 33  1  6
  3 34  1  0
  3 35  1  0
  4 36  1  0
  4 37  1  0
  8 38  1  0
  8 39  1  0
  9 40  1  0
 13 41  1  0
 14 42  1  0
 16 43  1  0
 17 44  1  0
 18 45  1  0
 19 46  1  0
 22 47  1  1
 25 48  1  0
 26 49  1  0
 27 50  1  0
 27 51  1  0
 28 52  1  0
 28 53  1  0
 29 54  1  0
 29 55  1  0
 30 56  1  0
 30 57  1  0
M  END
>  <smiles>  (43) 
N[C@@H]1CCN(C(=O)CNC(=O)c2ccc3ccccc3n2)[C@H]1C(=O)NC1CCCC1

>  <score_type>  (43) 
oracle

>  <origin>  (43) 
autodockgpu

>  <m_score__min__energy>  (43) 
-9.6600000000000001

>  <m_primary>  (43) 
energy

>  <rmsd>  (43) 
4.837262550983393

>  <m_score__min__rmsd>  (43) 
4.837262550983393

>  <meeko>  (43) 
{"free_energy": -8.04, "intermolecular_energy": -10.13, "internal_energy": -3.38, "cluster_size": 24, "cluster_id": 1, "rank_in_cluster": 19}

>  <energy>  (43) 
-7.37

>  <cluster_rmsd>  (43) 
0.99

>  <cluster>  (43) 
3

$$$$

     RDKit          3D

 57 60  0  0  0  0  0  0  0  0999 V2000
  142.2080   78.0830  220.7760 N   0  0  0  0  0  0  0  0  0  0  0  0
  141.1070   77.1690  220.6680 C   0  0  2  0  0  0  0  0  0  0  0  0
  139.9500   77.5430  221.5930 C   0  0  0  0  0  0  0  0  0  0  0  0
  139.3510   76.1890  222.0440 C   0  0  0  0  0  0  0  0  0  0  0  0
  140.0960   75.2130  221.2090 N   0  0  0  0  0  0  0  0  0  0  0  0
  139.6410   74.0400  220.5980 C   0  0  0  0  0  0  0  0  0  0  0  0
  140.1060   73.8160  219.4100 O   0  0  0  0  0  0  0  0  0  0  0  0
  138.7190   73.0250  221.0880 C   0  0  0  0  0  0  0  0  0  0  0  0
  138.8980   72.5000  222.3970 N   0  0  0  0  0  0  0  0  0  0  0  0
  140.0300   71.6300  222.6130 C   0  0  0  0  0  0  0  0  0  0  0  0
  140.8340   71.3300  221.7130 O   0  0  0  0  0  0  0  0  0  0  0  0
  140.2030   71.0980  223.9730 C   0  0  0  0  0  0  0  0  0  0  0  0
  140.7610   71.8860  224.9580 C   0  0  0  0  0  0  0  0  0  0  0  0
  140.9420   71.4180  226.2560 C   0  0  0  0  0  0  0  0  0  0  0  0
  140.5560   70.1420  226.5630 C   0  0  0  0  0  0  0  0  0  0  0  0
  140.6830   69.5680  227.8070 C   0  0  0  0  0  0  0  0  0  0  0  0
  140.2750   68.2760  228.0590 C   0  0  0  0  0  0  0  0  0  0  0  0
  139.7190   67.5020  227.0610 C   0  0  0  0  0  0  0  0  0  0  0  0
  139.5870   68.0760  225.8010 C   0  0  0  0  0  0  0  0  0  0  0  0
  140.0020   69.3820  225.5560 C   0  0  0  0  0  0  0  0  0  0  0  0
  139.8390   69.8580  224.3090 N   0  0  0  0  0  0  0  0  0  0  0  0
  141.4320   75.8070  221.2170 C   0  0  1  0  0  0  0  0  0  0  0  0
  142.5100   75.0780  220.6170 C   0  0  0  0  0  0  0  0  0  0  0  0
  143.5260   75.6940  220.1900 O   0  0  0  0  0  0  0  0  0  0  0  0
  142.5000   73.6790  220.4790 N   0  0  0  0  0  0  0  0  0  0  0  0
  143.6180   73.0220  219.8630 C   0  0  0  0  0  0  0  0  0  0  0  0
  143.5370   71.5270  219.8470 C   0  0  0  0  0  0  0  0  0  0  0  0
  144.9180   71.1780  219.2880 C   0  0  0  0  0  0  0  0  0  0  0  0
  145.8280   72.3050  219.7630 C   0  0  0  0  0  0  0  0  0  0  0  0
  144.9380   73.2690  220.5290 C   0  0  0  0  0  0  0  0  0  0  0  0
  143.0000   77.5590  221.2200 H   0  0  0  0  0  0  0  0  0  0  0  0
  142.4540   78.4540  219.8340 H   0  0  0  0  0  0  0  0  0  0  0  0
  140.8747   77.1935  219.5931 H   0  0  0  0  0  0  0  0  0  0  0  0
  140.3156   78.1130  222.4599 H   0  0  0  0  0  0  0  0  0  0  0  0
  139.2063   78.1796  221.0913 H   0  0  0  0  0  0  0  0  0  0  0  0
  139.5288   76.0129  223.1152 H   0  0  0  0  0  0  0  0  0  0  0  0
  138.2597   76.1294  221.9193 H   0  0  0  0  0  0  0  0  0  0  0  0
  137.7105   73.4627  221.0523 H   0  0  0  0  0  0  0  0  0  0  0  0
  138.9066   72.1622  220.4319 H   0  0  0  0  0  0  0  0  0  0  0  0
  138.2560   72.7080  223.2160 H   0  0  0  0  0  0  0  0  0  0  0  0
  141.0713   72.9120  224.7109 H   0  0  0  0  0  0  0  0  0  0  0  0
  141.3894   72.0653  227.0247 H   0  0  0  0  0  0  0  0  0  0  0  0
  141.1232   70.1578  228.6246 H   0  0  0  0  0  0  0  0  0  0  0  0
  140.3941   67.8563  229.0688 H   0  0  0  0  0  0  0  0  0  0  0  0
  139.3924   66.4696  227.2547 H   0  0  0  0  0  0  0  0  0  0  0  0
  139.1466   67.4871  224.9830 H   0  0  0  0  0  0  0  0  0  0  0  0
  141.9067   75.8188  222.2092 H   0  0  0  0  0  0  0  0  0  0  0  0
  141.7180   73.0530  220.8210 H   0  0  0  0  0  0  0  0  0  0  0  0
  143.5623   73.4610  218.8559 H   0  0  0  0  0  0  0  0  0  0  0  0
  143.3928   71.1174  220.8577 H   0  0  0  0  0  0  0  0  0  0  0  0
  142.6932   71.1201  219.2704 H   0  0  0  0  0  0  0  0  0  0  0  0
  145.2620   70.2103  219.6820 H   0  0  0  0  0  0  0  0  0  0  0  0
  144.9104   71.0852  218.1919 H   0  0  0  0  0  0  0  0  0  0  0  0
  146.6160   71.9084  220.4201 H   0  0  0  0  0  0  0  0  0  0  0  0
  146.3267   72.8026  218.9182 H   0  0  0  0  0  0  0  0  0  0  0  0
  144.9030   73.0232  221.6006 H   0  0  0  0  0  0  0  0  0  0  0  0
  145.2725   74.3166  220.5027 H   0  0  0  0  0  0  0  0  0  0  0  0
  1  2  1  0
  2  3  1  0
  3  4  1  0
  4  5  1  0
  5  6  1  0
  6  7  2  0
  6  8  1  0
  8  9  1  0
  9 10  1  0
 10 11  2  0
 10 12  1  0
 12 13  2  0
 13 14  1  0
 14 15  2  0
 15 16  1  0
 16 17  2  0
 17 18  1  0
 18 19  2  0
 19 20  1  0
 20 21  2  0
  5 22  1  0
 22 23  1  0
 23 24  2  0
 23 25  1  0
 25 26  1  0
 26 27  1  0
 27 28  1  0
 28 29  1  0
 29 30  1  0
 22  2  1  0
 30 26  1  0
 21 12  1  0
 20 15  1  0
  1 31  1  0
  1 32  1  0
  2 33  1  6
  3 34  1  0
  3 35  1  0
  4 36  1  0
  4 37  1  0
  8 38  1  0
  8 39  1  0
  9 40  1  0
 13 41  1  0
 14 42  1  0
 16 43  1  0
 17 44  1  0
 18 45  1  0
 19 46  1  0
 22 47  1  1
 25 48  1  0
 26 49  1  0
 27 50  1  0
 27 51  1  0
 28 52  1  0
 28 53  1  0
 29 54  1  0
 29 55  1  0
 30 56  1  0
 30 57  1  0
M  END
>  <smiles>  (44) 
N[C@@H]1CCN(C(=O)CNC(=O)c2ccc3ccccc3n2)[C@H]1C(=O)NC1CCCC1

>  <score_type>  (44) 
oracle

>  <origin>  (44) 
autodockgpu

>  <m_score__min__energy>  (44) 
-9.6600000000000001

>  <m_primary>  (44) 
energy

>  <rmsd>  (44) 
5.261316614460816

>  <m_score__min__rmsd>  (44) 
5.261316614460816

>  <meeko>  (44) 
{"free_energy": -7.79, "intermolecular_energy": -9.88, "internal_energy": -3.44, "cluster_size": 16, "cluster_id": 2, "rank_in_cluster": 9}

>  <energy>  (44) 
-7.26

>  <cluster_rmsd>  (44) 
0.8

>  <cluster>  (44) 
3

$$$$

     RDKit          3D

 57 60  0  0  0  0  0  0  0  0999 V2000
  146.1450   74.0090  220.4860 N   0  0  0  0  0  0  0  0  0  0  0  0
  144.8460   73.4140  220.6220 C   0  0  2  0  0  0  0  0  0  0  0  0
  144.8320   71.9470  220.1970 C   0  0  0  0  0  0  0  0  0  0  0  0
  143.4400   71.7340  219.5560 C   0  0  0  0  0  0  0  0  0  0  0  0
  142.7560   73.0220  219.8370 N   0  0  0  0  0  0  0  0  0  0  0  0
  141.4220   73.2600  220.1850 C   0  0  0  0  0  0  0  0  0  0  0  0
  140.5560   73.0420  219.2470 O   0  0  0  0  0  0  0  0  0  0  0  0
  140.8480   73.7170  221.4430 C   0  0  0  0  0  0  0  0  0  0  0  0
  141.0650   75.0610  221.8550 N   0  0  0  0  0  0  0  0  0  0  0  0
  139.9040   75.9060  221.9980 C   0  0  0  0  0  0  0  0  0  0  0  0
  138.7460   75.5080  221.7750 O   0  0  0  0  0  0  0  0  0  0  0  0
  140.1440   77.2920  222.4270 C   0  0  0  0  0  0  0  0  0  0  0  0
  139.0800   78.1250  222.7010 C   0  0  0  0  0  0  0  0  0  0  0  0
  139.2670   79.4420  223.1090 C   0  0  0  0  0  0  0  0  0  0  0  0
  140.5400   79.9230  223.2430 C   0  0  0  0  0  0  0  0  0  0  0  0
  140.8520   81.2040  223.6380 C   0  0  0  0  0  0  0  0  0  0  0  0
  142.1570   81.6340  223.7560 C   0  0  0  0  0  0  0  0  0  0  0  0
  143.2090   80.7860  223.4770 C   0  0  0  0  0  0  0  0  0  0  0  0
  142.9020   79.4900  223.0770 C   0  0  0  0  0  0  0  0  0  0  0  0
  141.5810   79.0640  222.9620 C   0  0  0  0  0  0  0  0  0  0  0  0
  141.3730   77.7960  222.5680 N   0  0  0  0  0  0  0  0  0  0  0  0
  143.8540   73.9670  219.6360 C   0  0  1  0  0  0  0  0  0  0  0  0
  143.5670   75.3690  219.6820 C   0  0  0  0  0  0  0  0  0  0  0  0
  144.4470   76.1790  220.0890 O   0  0  0  0  0  0  0  0  0  0  0  0
  142.3310   75.9080  219.2840 N   0  0  0  0  0  0  0  0  0  0  0  0
  142.1200   77.3270  219.3630 C   0  0  0  0  0  0  0  0  0  0  0  0
  140.6990   77.7610  219.1800 C   0  0  0  0  0  0  0  0  0  0  0  0
  140.8720   79.2820  219.1610 C   0  0  0  0  0  0  0  0  0  0  0  0
  142.2600   79.5100  218.5740 C   0  0  0  0  0  0  0  0  0  0  0  0
  142.8420   78.1290  218.3230 C   0  0  0  0  0  0  0  0  0  0  0  0
  146.0630   74.7660  219.7650 H   0  0  0  0  0  0  0  0  0  0  0  0
  146.4680   74.3700  221.4070 H   0  0  0  0  0  0  0  0  0  0  0  0
  144.6031   73.5972  221.6791 H   0  0  0  0  0  0  0  0  0  0  0  0
  145.6296   71.7477  219.4662 H   0  0  0  0  0  0  0  0  0  0  0  0
  145.0071   71.2677  221.0443 H   0  0  0  0  0  0  0  0  0  0  0  0
  143.5238   71.5563  218.4737 H   0  0  0  0  0  0  0  0  0  0  0  0
  142.9048   70.8580  219.9512 H   0  0  0  0  0  0  0  0  0  0  0  0
  139.7597   73.5743  221.3708 H   0  0  0  0  0  0  0  0  0  0  0  0
  141.3741   73.1212  222.2034 H   0  0  0  0  0  0  0  0  0  0  0  0
  142.0210   75.4740  222.0620 H   0  0  0  0  0  0  0  0  0  0  0  0
  138.0559   77.7380  222.5942 H   0  0  0  0  0  0  0  0  0  0  0  0
  138.4021   80.0878  223.3210 H   0  0  0  0  0  0  0  0  0  0  0  0
  140.0362   81.9057  223.8664 H   0  0  0  0  0  0  0  0  0  0  0  0
  142.3618   82.6661  224.0766 H   0  0  0  0  0  0  0  0  0  0  0  0
  144.2523   81.1227  223.5677 H   0  0  0  0  0  0  0  0  0  0  0  0
  143.7175   78.7884  222.8472 H   0  0  0  0  0  0  0  0  0  0  0  0
  144.2203   74.0105  218.5997 H   0  0  0  0  0  0  0  0  0  0  0  0
  141.5280   75.3360  218.9020 H   0  0  0  0  0  0  0  0  0  0  0  0
  142.4942   77.5168  220.3798 H   0  0  0  0  0  0  0  0  0  0  0  0
  140.2792   77.3882  218.2341 H   0  0  0  0  0  0  0  0  0  0  0  0
  140.0036   77.3883  219.9465 H   0  0  0  0  0  0  0  0  0  0  0  0
  140.1028   79.7514  218.5301 H   0  0  0  0  0  0  0  0  0  0  0  0
  140.7678   79.7238  220.1630 H   0  0  0  0  0  0  0  0  0  0  0  0
  142.1883   80.0715  217.6308 H   0  0  0  0  0  0  0  0  0  0  0  0
  142.8939   80.0960  219.2557 H   0  0  0  0  0  0  0  0  0  0  0  0
  142.6153   77.7726  217.3073 H   0  0  0  0  0  0  0  0  0  0  0  0
  143.9388   78.0781  218.3888 H   0  0  0  0  0  0  0  0  0  0  0  0
  1  2  1  0
  2  3  1  0
  3  4  1  0
  4  5  1  0
  5  6  1  0
  6  7  2  0
  6  8  1  0
  8  9  1  0
  9 10  1  0
 10 11  2  0
 10 12  1  0
 12 13  2  0
 13 14  1  0
 14 15  2  0
 15 16  1  0
 16 17  2  0
 17 18  1  0
 18 19  2  0
 19 20  1  0
 20 21  2  0
  5 22  1  0
 22 23  1  0
 23 24  2  0
 23 25  1  0
 25 26  1  0
 26 27  1  0
 27 28  1  0
 28 29  1  0
 29 30  1  0
 22  2  1  0
 30 26  1  0
 21 12  1  0
 20 15  1  0
  1 31  1  0
  1 32  1  0
  2 33  1  1
  3 34  1  0
  3 35  1  0
  4 36  1  0
  4 37  1  0
  8 38  1  0
  8 39  1  0
  9 40  1  0
 13 41  1  0
 14 42  1  0
 16 43  1  0
 17 44  1  0
 18 45  1  0
 19 46  1  0
 22 47  1  6
 25 48  1  0
 26 49  1  0
 27 50  1  0
 27 51  1  0
 28 52  1  0
 28 53  1  0
 29 54  1  0
 29 55  1  0
 30 56  1  0
 30 57  1  0
M  END
>  <smiles>  (45) 
N[C@@H]1CCN(C(=O)CNC(=O)c2ccc3ccccc3n2)[C@H]1C(=O)NC1CCCC1

>  <score_type>  (45) 
oracle

>  <origin>  (45) 
autodockgpu

>  <m_score__min__energy>  (45) 
-9.6600000000000001

>  <m_primary>  (45) 
energy

>  <rmsd>  (45) 
7.086436994029438

>  <m_score__min__rmsd>  (45) 
7.086436994029438

>  <meeko>  (45) 
{"free_energy": -7.16, "intermolecular_energy": -9.25, "internal_energy": -3.99, "cluster_size": 7, "cluster_id": 3, "rank_in_cluster": 6}

>  <energy>  (45) 
-7.26

>  <cluster_rmsd>  (45) 
1.01

>  <cluster>  (45) 
3

$$$$

     RDKit          3D

 57 60  0  0  0  0  0  0  0  0999 V2000
  143.3330   77.2430  218.9190 N   0  0  0  0  0  0  0  0  0  0  0  0
  142.6480   76.1020  219.4560 C   0  0  2  0  0  0  0  0  0  0  0  0
  142.3700   75.0390  218.3940 C   0  0  0  0  0  0  0  0  0  0  0  0
  141.0070   74.4260  218.7940 C   0  0  0  0  0  0  0  0  0  0  0  0
  140.7420   75.0630  220.1100 N   0  0  0  0  0  0  0  0  0  0  0  0
  140.1640   74.5140  221.2590 C   0  0  0  0  0  0  0  0  0  0  0  0
  140.3120   75.2100  222.3410 O   0  0  0  0  0  0  0  0  0  0  0  0
  139.4190   73.2750  221.4330 C   0  0  0  0  0  0  0  0  0  0  0  0
  139.5770   72.5350  222.6370 N   0  0  0  0  0  0  0  0  0  0  0  0
  139.3350   71.1130  222.5780 C   0  0  0  0  0  0  0  0  0  0  0  0
  138.9990   70.5270  221.5330 O   0  0  0  0  0  0  0  0  0  0  0  0
  139.5050   70.3620  223.8300 C   0  0  0  0  0  0  0  0  0  0  0  0
  139.0970   69.0460  223.9070 C   0  0  0  0  0  0  0  0  0  0  0  0
  139.2410   68.3020  225.0740 C   0  0  0  0  0  0  0  0  0  0  0  0
  139.8010   68.8910  226.1740 C   0  0  0  0  0  0  0  0  0  0  0  0
  139.9950   68.2600  227.3820 C   0  0  0  0  0  0  0  0  0  0  0  0
  140.5660   68.9050  228.4580 C   0  0  0  0  0  0  0  0  0  0  0  0
  140.9680   70.2220  228.3620 C   0  0  0  0  0  0  0  0  0  0  0  0
  140.7750   70.8660  227.1450 C   0  0  0  0  0  0  0  0  0  0  0  0
  140.1970   70.2060  226.0630 C   0  0  0  0  0  0  0  0  0  0  0  0
  140.0470   70.9030  224.9240 N   0  0  0  0  0  0  0  0  0  0  0  0
  141.2360   76.4170  219.8650 C   0  0  1  0  0  0  0  0  0  0  0  0
  141.0340   77.4130  220.8750 C   0  0  0  0  0  0  0  0  0  0  0  0
  139.9000   77.5390  221.4170 O   0  0  0  0  0  0  0  0  0  0  0  0
  142.0550   78.2760  221.3100 N   0  0  0  0  0  0  0  0  0  0  0  0
  141.7710   79.2510  222.3260 C   0  0  0  0  0  0  0  0  0  0  0  0
  141.0700   80.4800  221.8360 C   0  0  0  0  0  0  0  0  0  0  0  0
  141.0800   81.3330  223.1080 C   0  0  0  0  0  0  0  0  0  0  0  0
  142.3430   80.9110  223.8500 C   0  0  0  0  0  0  0  0  0  0  0  0
  142.9780   79.8170  223.0100 C   0  0  0  0  0  0  0  0  0  0  0  0
  142.6540   78.0410  218.9260 H   0  0  0  0  0  0  0  0  0  0  0  0
  144.1870   77.4410  219.4830 H   0  0  0  0  0  0  0  0  0  0  0  0
  143.3097   75.7844  220.2753 H   0  0  0  0  0  0  0  0  0  0  0  0
  142.3110   75.4957  217.3950 H   0  0  0  0  0  0  0  0  0  0  0  0
  143.1670   74.2824  218.3459 H   0  0  0  0  0  0  0  0  0  0  0  0
  140.2258   74.6829  218.0635 H   0  0  0  0  0  0  0  0  0  0  0  0
  141.0148   73.3267  218.8325 H   0  0  0  0  0  0  0  0  0  0  0  0
  138.3516   73.5269  221.3480 H   0  0  0  0  0  0  0  0  0  0  0  0
  139.8323   72.6099  220.6604 H   0  0  0  0  0  0  0  0  0  0  0  0
  139.8590   72.9620  223.5670 H   0  0  0  0  0  0  0  0  0  0  0  0
  138.6460   68.5726  223.0224 H   0  0  0  0  0  0  0  0  0  0  0  0
  138.9088   67.2540  225.1114 H   0  0  0  0  0  0  0  0  0  0  0  0
  139.6852   67.2102  227.4918 H   0  0  0  0  0  0  0  0  0  0  0  0
  140.7031   68.3632  229.4054 H   0  0  0  0  0  0  0  0  0  0  0  0
  141.4242   70.7428  229.2168 H   0  0  0  0  0  0  0  0  0  0  0  0
  141.0843   71.9158  227.0346 H   0  0  0  0  0  0  0  0  0  0  0  0
  140.6576   76.9705  219.1106 H   0  0  0  0  0  0  0  0  0  0  0  0
  143.0490   78.2500  220.9500 H   0  0  0  0  0  0  0  0  0  0  0  0
  141.1473   78.6451  222.9997 H   0  0  0  0  0  0  0  0  0  0  0  0
  141.6235   80.9643  221.0180 H   0  0  0  0  0  0  0  0  0  0  0  0
  140.0708   80.2998  221.4128 H   0  0  0  0  0  0  0  0  0  0  0  0
  141.1176   82.4032  222.8566 H   0  0  0  0  0  0  0  0  0  0  0  0
  140.1737   81.1857  223.7138 H   0  0  0  0  0  0  0  0  0  0  0  0
  143.0306   81.7639  223.9494 H   0  0  0  0  0  0  0  0  0  0  0  0
  142.1134   80.5563  224.8656 H   0  0  0  0  0  0  0  0  0  0  0  0
  143.6974   80.2283  222.2866 H   0  0  0  0  0  0  0  0  0  0  0  0
  143.5617   79.0828  223.5847 H   0  0  0  0  0  0  0  0  0  0  0  0
  1  2  1  0
  2  3  1  0
  3  4  1  0
  4  5  1  0
  5  6  1  0
  6  7  2  0
  6  8  1  0
  8  9  1  0
  9 10  1  0
 10 11  2  0
 10 12  1  0
 12 13  2  0
 13 14  1  0
 14 15  2  0
 15 16  1  0
 16 17  2  0
 17 18  1  0
 18 19  2  0
 19 20  1  0
 20 21  2  0
  5 22  1  0
 22 23  1  0
 23 24  2  0
 23 25  1  0
 25 26  1  0
 26 27  1  0
 27 28  1  0
 28 29  1  0
 29 30  1  0
 22  2  1  0
 30 26  1  0
 21 12  1  0
 20 15  1  0
  1 31  1  0
  1 32  1  0
  2 33  1  1
  3 34  1  0
  3 35  1  0
  4 36  1  0
  4 37  1  0
  8 38  1  0
  8 39  1  0
  9 40  1  0
 13 41  1  0
 14 42  1  0
 16 43  1  0
 17 44  1  0
 18 45  1  0
 19 46  1  0
 22 47  1  6
 25 48  1  0
 26 49  1  0
 27 50  1  0
 27 51  1  0
 28 52  1  0
 28 53  1  0
 29 54  1  0
 29 55  1  0
 30 56  1  0
 30 57  1  0
M  END
>  <smiles>  (46) 
N[C@@H]1CCN(C(=O)CNC(=O)c2ccc3ccccc3n2)[C@H]1C(=O)NC1CCCC1

>  <score_type>  (46) 
oracle

>  <origin>  (46) 
autodockgpu

>  <m_score__min__energy>  (46) 
-9.6600000000000001

>  <m_primary>  (46) 
energy

>  <rmsd>  (46) 
1.8125813212605573

>  <m_score__min__rmsd>  (46) 
1.8125813212605573

>  <meeko>  (46) 
{"free_energy": -9.2, "intermolecular_energy": -11.29, "internal_energy": -2.12, "cluster_size": 24, "cluster_id": 1, "rank_in_cluster": 7}

>  <energy>  (46) 
-7.16

>  <cluster_rmsd>  (46) 
1.0

>  <cluster>  (46) 
3

$$$$

     RDKit          3D

 57 60  0  0  0  0  0  0  0  0999 V2000
  146.3420   73.4500  218.9720 N   0  0  0  0  0  0  0  0  0  0  0  0
  145.2290   72.9010  219.6930 C   0  0  2  0  0  0  0  0  0  0  0  0
  144.9920   71.4290  219.3630 C   0  0  0  0  0  0  0  0  0  0  0  0
  143.4560   71.2520  219.4220 C   0  0  0  0  0  0  0  0  0  0  0  0
  143.0010   72.5670  219.9420 N   0  0  0  0  0  0  0  0  0  0  0  0
  141.9710   72.8540  220.8440 C   0  0  0  0  0  0  0  0  0  0  0  0
  141.9560   72.1320  221.9190 O   0  0  0  0  0  0  0  0  0  0  0  0
  140.9050   73.8430  220.7650 C   0  0  0  0  0  0  0  0  0  0  0  0
  141.1240   75.1430  221.3010 N   0  0  0  0  0  0  0  0  0  0  0  0
  139.9610   75.8960  221.7050 C   0  0  0  0  0  0  0  0  0  0  0  0
  138.8010   75.4580  221.6030 O   0  0  0  0  0  0  0  0  0  0  0  0
  140.2040   77.2360  222.2600 C   0  0  0  0  0  0  0  0  0  0  0  0
  139.1450   78.0050  222.6970 C   0  0  0  0  0  0  0  0  0  0  0  0
  139.3340   79.2780  223.2260 C   0  0  0  0  0  0  0  0  0  0  0  0
  140.6030   79.7800  223.3170 C   0  0  0  0  0  0  0  0  0  0  0  0
  140.9170   81.0210  223.8210 C   0  0  0  0  0  0  0  0  0  0  0  0
  142.2160   81.4750  223.8870 C   0  0  0  0  0  0  0  0  0  0  0  0
  143.2630   80.6910  223.4460 C   0  0  0  0  0  0  0  0  0  0  0  0
  142.9540   79.4350  222.9350 C   0  0  0  0  0  0  0  0  0  0  0  0
  141.6380   78.9860  222.8720 C   0  0  0  0  0  0  0  0  0  0  0  0
  141.4280   77.7590  222.3630 N   0  0  0  0  0  0  0  0  0  0  0  0
  143.9130   73.4710  219.2430 C   0  0  1  0  0  0  0  0  0  0  0  0
  143.7100   74.8830  219.3720 C   0  0  0  0  0  0  0  0  0  0  0  0
  144.0160   75.4680  220.4480 O   0  0  0  0  0  0  0  0  0  0  0  0
  143.1800   75.6740  218.3370 N   0  0  0  0  0  0  0  0  0  0  0  0
  143.0040   77.0840  218.5460 C   0  0  0  0  0  0  0  0  0  0  0  0
  141.7580   77.4580  219.2880 C   0  0  0  0  0  0  0  0  0  0  0  0
  141.8170   78.9840  219.1840 C   0  0  0  0  0  0  0  0  0  0  0  0
  142.5310   79.2570  217.8640 C   0  0  0  0  0  0  0  0  0  0  0  0
  142.8900   77.8970  217.2910 C   0  0  0  0  0  0  0  0  0  0  0  0
  145.9610   73.8650  218.0880 H   0  0  0  0  0  0  0  0  0  0  0  0
  146.8350   74.1520  219.5620 H   0  0  0  0  0  0  0  0  0  0  0  0
  145.4918   73.1092  220.7407 H   0  0  0  0  0  0  0  0  0  0  0  0
  145.3710   71.1915  218.3580 H   0  0  0  0  0  0  0  0  0  0  0  0
  145.5140   70.7581  220.0612 H   0  0  0  0  0  0  0  0  0  0  0  0
  143.0399   71.0539  218.4232 H   0  0  0  0  0  0  0  0  0  0  0  0
  143.1359   70.4009  220.0410 H   0  0  0  0  0  0  0  0  0  0  0  0
  140.6634   73.9710  219.6995 H   0  0  0  0  0  0  0  0  0  0  0  0
  140.1129   73.4261  221.4043 H   0  0  0  0  0  0  0  0  0  0  0  0
  142.0810   75.5860  221.4180 H   0  0  0  0  0  0  0  0  0  0  0  0
  138.1244   77.6010  222.6253 H   0  0  0  0  0  0  0  0  0  0  0  0
  138.4738   79.8730  223.5666 H   0  0  0  0  0  0  0  0  0  0  0  0
  140.1061   81.6706  224.1823 H   0  0  0  0  0  0  0  0  0  0  0  0
  142.4215   82.4751  224.2964 H   0  0  0  0  0  0  0  0  0  0  0  0
  144.3028   81.0463  223.4968 H   0  0  0  0  0  0  0  0  0  0  0  0
  143.7643   78.7846  222.5740 H   0  0  0  0  0  0  0  0  0  0  0  0
  143.7746   73.4858  218.1518 H   0  0  0  0  0  0  0  0  0  0  0  0
  142.9110   75.3040  217.3840 H   0  0  0  0  0  0  0  0  0  0  0  0
  143.9198   77.3054  219.1137 H   0  0  0  0  0  0  0  0  0  0  0  0
  140.8587   77.0525  218.8014 H   0  0  0  0  0  0  0  0  0  0  0  0
  141.7039   77.0709  220.3162 H   0  0  0  0  0  0  0  0  0  0  0  0
  140.8034   79.4111  219.1719 H   0  0  0  0  0  0  0  0  0  0  0  0
  142.3377   79.4388  220.0396 H   0  0  0  0  0  0  0  0  0  0  0  0
  141.8660   79.7983  217.1749 H   0  0  0  0  0  0  0  0  0  0  0  0
  143.4255   79.8799  218.0119 H   0  0  0  0  0  0  0  0  0  0  0  0
  142.0977   77.5139  216.6311 H   0  0  0  0  0  0  0  0  0  0  0  0
  143.7922   77.8919  216.6617 H   0  0  0  0  0  0  0  0  0  0  0  0
  1  2  1  0
  2  3  1  0
  3  4  1  0
  4  5  1  0
  5  6  1  0
  6  7  2  0
  6  8  1  0
  8  9  1  0
  9 10  1  0
 10 11  2  0
 10 12  1  0
 12 13  2  0
 13 14  1  0
 14 15  2  0
 15 16  1  0
 16 17  2  0
 17 18  1  0
 18 19  2  0
 19 20  1  0
 20 21  2  0
  5 22  1  0
 22 23  1  0
 23 24  2  0
 23 25  1  0
 25 26  1  0
 26 27  1  0
 27 28  1  0
 28 29  1  0
 29 30  1  0
 22  2  1  0
 30 26  1  0
 21 12  1  0
 20 15  1  0
  1 31  1  0
  1 32  1  0
  2 33  1  1
  3 34  1  0
  3 35  1  0
  4 36  1  0
  4 37  1  0
  8 38  1  0
  8 39  1  0
  9 40  1  0
 13 41  1  0
 14 42  1  0
 16 43  1  0
 17 44  1  0
 18 45  1  0
 19 46  1  0
 22 47  1  6
 25 48  1  0
 26 49  1  0
 27 50  1  0
 27 51  1  0
 28 52  1  0
 28 53  1  0
 29 54  1  0
 29 55  1  0
 30 56  1  0
 30 57  1  0
M  END
>  <smiles>  (47) 
N[C@@H]1CCN(C(=O)CNC(=O)c2ccc3ccccc3n2)[C@H]1C(=O)NC1CCCC1

>  <score_type>  (47) 
oracle

>  <origin>  (47) 
autodockgpu

>  <m_score__min__energy>  (47) 
-9.6600000000000001

>  <m_primary>  (47) 
energy

>  <rmsd>  (47) 
7.215966272131925

>  <m_score__min__rmsd>  (47) 
7.215966272131925

>  <meeko>  (47) 
{"free_energy": -8.01, "intermolecular_energy": -10.09, "internal_energy": -3.32, "cluster_size": 7, "cluster_id": 3, "rank_in_cluster": 1}

>  <energy>  (47) 
-7.03

>  <cluster_rmsd>  (47) 
1.04

>  <cluster>  (47) 
3

$$$$

     RDKit          3D

 57 60  0  0  0  0  0  0  0  0999 V2000
  142.3660   77.3350  217.1300 N   0  0  0  0  0  0  0  0  0  0  0  0
  141.4380   77.0600  218.1900 C   0  0  2  0  0  0  0  0  0  0  0  0
  140.6200   78.2900  218.5790 C   0  0  0  0  0  0  0  0  0  0  0  0
  140.4110   78.1590  220.1060 C   0  0  0  0  0  0  0  0  0  0  0  0
  140.9650   76.8110  220.3930 N   0  0  0  0  0  0  0  0  0  0  0  0
  140.5060   75.8360  221.2840 C   0  0  0  0  0  0  0  0  0  0  0  0
  141.0710   75.8370  222.4490 O   0  0  0  0  0  0  0  0  0  0  0  0
  139.4870   74.8100  221.1070 C   0  0  0  0  0  0  0  0  0  0  0  0
  139.3210   73.8180  222.1120 N   0  0  0  0  0  0  0  0  0  0  0  0
  140.4330   72.9300  222.3560 C   0  0  0  0  0  0  0  0  0  0  0  0
  141.5060   73.0020  221.7310 O   0  0  0  0  0  0  0  0  0  0  0  0
  140.2480   71.9110  223.4000 C   0  0  0  0  0  0  0  0  0  0  0  0
  139.5710   70.7440  223.1140 C   0  0  0  0  0  0  0  0  0  0  0  0
  139.3750   69.7560  224.0740 C   0  0  0  0  0  0  0  0  0  0  0  0
  139.8670   69.9490  225.3360 C   0  0  0  0  0  0  0  0  0  0  0  0
  139.7370   69.0480  226.3690 C   0  0  0  0  0  0  0  0  0  0  0  0
  140.2540   69.2960  227.6220 C   0  0  0  0  0  0  0  0  0  0  0  0
  140.9280   70.4700  227.8910 C   0  0  0  0  0  0  0  0  0  0  0  0
  141.0630   71.3850  226.8520 C   0  0  0  0  0  0  0  0  0  0  0  0
  140.5380   71.1260  225.5890 C   0  0  0  0  0  0  0  0  0  0  0  0
  140.7130   72.0640  224.6430 N   0  0  0  0  0  0  0  0  0  0  0  0
  142.1240   76.7940  219.5010 C   0  0  1  0  0  0  0  0  0  0  0  0
  143.0300   75.6870  219.5760 C   0  0  0  0  0  0  0  0  0  0  0  0
  143.7790   75.4180  218.5960 O   0  0  0  0  0  0  0  0  0  0  0  0
  143.1360   74.8650  220.7120 N   0  0  0  0  0  0  0  0  0  0  0  0
  144.0670   73.7710  220.7080 C   0  0  0  0  0  0  0  0  0  0  0  0
  145.5050   74.1710  220.5900 C   0  0  0  0  0  0  0  0  0  0  0  0
  146.1670   72.7980  220.4550 C   0  0  0  0  0  0  0  0  0  0  0  0
  145.1240   71.9280  219.7630 C   0  0  0  0  0  0  0  0  0  0  0  0
  143.9030   72.8100  219.5690 C   0  0  0  0  0  0  0  0  0  0  0  0
  143.3290   77.2480  217.5340 H   0  0  0  0  0  0  0  0  0  0  0  0
  142.2050   76.6780  216.3390 H   0  0  0  0  0  0  0  0  0  0  0  0
  140.8548   76.2171  217.7908 H   0  0  0  0  0  0  0  0  0  0  0  0
  141.1701   79.2123  218.3409 H   0  0  0  0  0  0  0  0  0  0  0  0
  139.6668   78.3444  218.0327 H   0  0  0  0  0  0  0  0  0  0  0  0
  140.9624   78.9394  220.6509 H   0  0  0  0  0  0  0  0  0  0  0  0
  139.3623   78.2767  220.4163 H   0  0  0  0  0  0  0  0  0  0  0  0
  138.5225   75.3289  221.0049 H   0  0  0  0  0  0  0  0  0  0  0  0
  139.8366   74.2414  220.2327 H   0  0  0  0  0  0  0  0  0  0  0  0
  138.4370   73.6930  222.6870 H   0  0  0  0  0  0  0  0  0  0  0  0
  139.1752   70.5901  222.0993 H   0  0  0  0  0  0  0  0  0  0  0  0
  138.8323   68.8330  223.8219 H   0  0  0  0  0  0  0  0  0  0  0  0
  139.2048   68.1024  226.1887 H   0  0  0  0  0  0  0  0  0  0  0  0
  140.1278   68.5481  228.4187 H   0  0  0  0  0  0  0  0  0  0  0  0
  141.3427   70.6744  228.8891 H   0  0  0  0  0  0  0  0  0  0  0  0
  141.5946   72.3311  227.0318 H   0  0  0  0  0  0  0  0  0  0  0  0
  142.8989   77.5287  219.7649 H   0  0  0  0  0  0  0  0  0  0  0  0
  142.5810   75.0050  221.6020 H   0  0  0  0  0  0  0  0  0  0  0  0
  143.8304   73.3189  221.6825 H   0  0  0  0  0  0  0  0  0  0  0  0
  145.6811   74.7957  219.7019 H   0  0  0  0  0  0  0  0  0  0  0  0
  145.8809   74.7807  221.4249 H   0  0  0  0  0  0  0  0  0  0  0  0
  147.0802   72.8665  219.8456 H   0  0  0  0  0  0  0  0  0  0  0  0
  146.4705   72.3863  221.4288 H   0  0  0  0  0  0  0  0  0  0  0  0
  145.5018   71.5794  218.7905 H   0  0  0  0  0  0  0  0  0  0  0  0
  144.8848   71.0354  220.3597 H   0  0  0  0  0  0  0  0  0  0  0  0
  143.9263   73.3257  218.5976 H   0  0  0  0  0  0  0  0  0  0  0  0
  142.9457   72.2681  219.5645 H   0  0  0  0  0  0  0  0  0  0  0  0
  1  2  1  0
  2  3  1  0
  3  4  1  0
  4  5  1  0
  5  6  1  0
  6  7  2  0
  6  8  1  0
  8  9  1  0
  9 10  1  0
 10 11  2  0
 10 12  1  0
 12 13  2  0
 13 14  1  0
 14 15  2  0
 15 16  1  0
 16 17  2  0
 17 18  1  0
 18 19  2  0
 19 20  1  0
 20 21  2  0
  5 22  1  0
 22 23  1  0
 23 24  2  0
 23 25  1  0
 25 26  1  0
 26 27  1  0
 27 28  1  0
 28 29  1  0
 29 30  1  0
 22  2  1  0
 30 26  1  0
 21 12  1  0
 20 15  1  0
  1 31  1  0
  1 32  1  0
  2 33  1  6
  3 34  1  0
  3 35  1  0
  4 36  1  0
  4 37  1  0
  8 38  1  0
  8 39  1  0
  9 40  1  0
 13 41  1  0
 14 42  1  0
 16 43  1  0
 17 44  1  0
 18 45  1  0
 19 46  1  0
 22 47  1  1
 25 48  1  0
 26 49  1  0
 27 50  1  0
 27 51  1  0
 28 52  1  0
 28 53  1  0
 29 54  1  0
 29 55  1  0
 30 56  1  0
 30 57  1  0
M  END
>  <smiles>  (48) 
N[C@@H]1CCN(C(=O)CNC(=O)c2ccc3ccccc3n2)[C@H]1C(=O)NC1CCCC1

>  <score_type>  (48) 
oracle

>  <origin>  (48) 
autodockgpu

>  <m_score__min__energy>  (48) 
-9.6600000000000001

>  <m_primary>  (48) 
energy

>  <rmsd>  (48) 
4.694711551656316

>  <m_score__min__rmsd>  (48) 
4.694711551656316

>  <meeko>  (48) 
{"free_energy": -7.66, "intermolecular_energy": -9.74, "internal_energy": -3.36, "cluster_size": 16, "cluster_id": 2, "rank_in_cluster": 13}

>  <energy>  (48) 
-7.95

>  <cluster_rmsd>  (48) 
0.0

>  <cluster>  (48) 
4

$$$$

     RDKit          3D

 57 60  0  0  0  0  0  0  0  0999 V2000
  142.6420   77.5620  217.3320 N   0  0  0  0  0  0  0  0  0  0  0  0
  141.6990   77.2960  218.3800 C   0  0  2  0  0  0  0  0  0  0  0  0
  140.9550   78.5540  218.8250 C   0  0  0  0  0  0  0  0  0  0  0  0
  140.7390   78.3680  220.3460 C   0  0  0  0  0  0  0  0  0  0  0  0
  141.2110   76.9780  220.5710 N   0  0  0  0  0  0  0  0  0  0  0  0
  140.6950   75.9930  221.4190 C   0  0  0  0  0  0  0  0  0  0  0  0
  141.1030   76.0460  222.6470 O   0  0  0  0  0  0  0  0  0  0  0  0
  139.7640   74.9080  221.1380 C   0  0  0  0  0  0  0  0  0  0  0  0
  139.5290   73.9210  222.1340 N   0  0  0  0  0  0  0  0  0  0  0  0
  140.5400   72.9060  222.3120 C   0  0  0  0  0  0  0  0  0  0  0  0
  141.5850   72.8650  221.6370 O   0  0  0  0  0  0  0  0  0  0  0  0
  140.2840   71.8940  223.3480 C   0  0  0  0  0  0  0  0  0  0  0  0
  139.6260   70.7250  223.0250 C   0  0  0  0  0  0  0  0  0  0  0  0
  139.3650   69.7440  223.9760 C   0  0  0  0  0  0  0  0  0  0  0  0
  139.7720   69.9440  225.2670 C   0  0  0  0  0  0  0  0  0  0  0  0
  139.5730   69.0510  226.2940 C   0  0  0  0  0  0  0  0  0  0  0  0
  140.0060   69.3060  227.5780 C   0  0  0  0  0  0  0  0  0  0  0  0
  140.6640   70.4800  227.8820 C   0  0  0  0  0  0  0  0  0  0  0  0
  140.8690   71.3890  226.8490 C   0  0  0  0  0  0  0  0  0  0  0  0
  140.4270   71.1220  225.5560 C   0  0  0  0  0  0  0  0  0  0  0  0
  140.6660   72.0540  224.6170 N   0  0  0  0  0  0  0  0  0  0  0  0
  142.3670   76.9320  219.6770 C   0  0  1  0  0  0  0  0  0  0  0  0
  143.2050   75.7700  219.7010 C   0  0  0  0  0  0  0  0  0  0  0  0
  144.0130   75.5560  218.7540 O   0  0  0  0  0  0  0  0  0  0  0  0
  143.1820   74.8350  220.7510 N   0  0  0  0  0  0  0  0  0  0  0  0
  144.0520   73.6940  220.6990 C   0  0  0  0  0  0  0  0  0  0  0  0
  145.5140   74.0180  220.6880 C   0  0  0  0  0  0  0  0  0  0  0  0
  146.1080   72.6250  220.4690 C   0  0  0  0  0  0  0  0  0  0  0  0
  145.0590   71.8770  219.6540 C   0  0  0  0  0  0  0  0  0  0  0  0
  143.9000   72.8420  219.4760 C   0  0  0  0  0  0  0  0  0  0  0  0
  143.1120   78.4700  217.5640 H   0  0  0  0  0  0  0  0  0  0  0  0
  143.3160   76.7720  217.2530 H   0  0  0  0  0  0  0  0  0  0  0  0
  141.0672   76.5077  217.9448 H   0  0  0  0  0  0  0  0  0  0  0  0
  141.5585   79.4519  218.6262 H   0  0  0  0  0  0  0  0  0  0  0  0
  140.0066   78.6888  218.2842 H   0  0  0  0  0  0  0  0  0  0  0  0
  141.3365   79.0889  220.9233 H   0  0  0  0  0  0  0  0  0  0  0  0
  139.6994   78.5347  220.6645 H   0  0  0  0  0  0  0  0  0  0  0  0
  138.7926   75.3696  220.9073 H   0  0  0  0  0  0  0  0  0  0  0  0
  140.2508   74.3491  220.3252 H   0  0  0  0  0  0  0  0  0  0  0  0
  138.6640   73.8870  222.7480 H   0  0  0  0  0  0  0  0  0  0  0  0
  139.2989   70.5644  221.9871 H   0  0  0  0  0  0  0  0  0  0  0  0
  138.8387   68.8202  223.6941 H   0  0  0  0  0  0  0  0  0  0  0  0
  139.0526   68.1047  226.0847 H   0  0  0  0  0  0  0  0  0  0  0  0
  139.8246   68.5643  228.3698 H   0  0  0  0  0  0  0  0  0  0  0  0
  141.0137   70.6896  228.9037 H   0  0  0  0  0  0  0  0  0  0  0  0
  141.3895   72.3354  227.0574 H   0  0  0  0  0  0  0  0  0  0  0  0
  143.1838   77.6073  219.9715 H   0  0  0  0  0  0  0  0  0  0  0  0
  142.5700   74.9200  221.6090 H   0  0  0  0  0  0  0  0  0  0  0  0
  143.7381   73.1776  221.6181 H   0  0  0  0  0  0  0  0  0  0  0  0
  145.7718   74.7029  219.8667 H   0  0  0  0  0  0  0  0  0  0  0  0
  145.8756   74.5333  221.5900 H   0  0  0  0  0  0  0  0  0  0  0  0
  147.0553   72.6908  219.9138 H   0  0  0  0  0  0  0  0  0  0  0  0
  146.3357   72.1173  221.4179 H   0  0  0  0  0  0  0  0  0  0  0  0
  145.4698   71.5885  218.6752 H   0  0  0  0  0  0  0  0  0  0  0  0
  144.7400   70.9534  220.1591 H   0  0  0  0  0  0  0  0  0  0  0  0
  144.0043   73.4341  218.5549 H   0  0  0  0  0  0  0  0  0  0  0  0
  142.9167   72.3588  219.3775 H   0  0  0  0  0  0  0  0  0  0  0  0
  1  2  1  0
  2  3  1  0
  3  4  1  0
  4  5  1  0
  5  6  1  0
  6  7  2  0
  6  8  1  0
  8  9  1  0
  9 10  1  0
 10 11  2  0
 10 12  1  0
 12 13  2  0
 13 14  1  0
 14 15  2  0
 15 16  1  0
 16 17  2  0
 17 18  1  0
 18 19  2  0
 19 20  1  0
 20 21  2  0
  5 22  1  0
 22 23  1  0
 23 24  2  0
 23 25  1  0
 25 26  1  0
 26 27  1  0
 27 28  1  0
 28 29  1  0
 29 30  1  0
 22  2  1  0
 30 26  1  0
 21 12  1  0
 20 15  1  0
  1 31  1  0
  1 32  1  0
  2 33  1  6
  3 34  1  0
  3 35  1  0
  4 36  1  0
  4 37  1  0
  8 38  1  0
  8 39  1  0
  9 40  1  0
 13 41  1  0
 14 42  1  0
 16 43  1  0
 17 44  1  0
 18 45  1  0
 19 46  1  0
 22 47  1  1
 25 48  1  0
 26 49  1  0
 27 50  1  0
 27 51  1  0
 28 52  1  0
 28 53  1  0
 29 54  1  0
 29 55  1  0
 30 56  1  0
 30 57  1  0
M  END
>  <smiles>  (49) 
N[C@@H]1CCN(C(=O)CNC(=O)c2ccc3ccccc3n2)[C@H]1C(=O)NC1CCCC1

>  <score_type>  (49) 
oracle

>  <origin>  (49) 
autodockgpu

>  <m_score__min__energy>  (49) 
-9.6600000000000001

>  <m_primary>  (49) 
energy

>  <rmsd>  (49) 
4.772376803429293

>  <m_score__min__rmsd>  (49) 
4.772376803429293

>  <meeko>  (49) 
{"free_energy": -7.89, "intermolecular_energy": -9.98, "internal_energy": -3.3, "cluster_size": 16, "cluster_id": 2, "rank_in_cluster": 5}

>  <energy>  (49) 
-7.13

>  <cluster_rmsd>  (49) 
0.0

>  <cluster>  (49) 
5

$$$$

     RDKit          3D

 57 60  0  0  0  0  0  0  0  0999 V2000
  142.0120   77.9000  221.0410 N   0  0  0  0  0  0  0  0  0  0  0  0
  140.7420   77.3210  220.7080 C   0  0  2  0  0  0  0  0  0  0  0  0
  139.5720   78.2170  221.1100 C   0  0  0  0  0  0  0  0  0  0  0  0
  138.4510   77.2380  221.5350 C   0  0  0  0  0  0  0  0  0  0  0  0
  139.0230   75.9170  221.1690 N   0  0  0  0  0  0  0  0  0  0  0  0
  138.3860   74.7950  220.6310 C   0  0  0  0  0  0  0  0  0  0  0  0
  138.4520   74.6820  219.3420 O   0  0  0  0  0  0  0  0  0  0  0  0
  137.6520   73.7250  221.2930 C   0  0  0  0  0  0  0  0  0  0  0  0
  138.2840   72.9940  222.3370 N   0  0  0  0  0  0  0  0  0  0  0  0
  137.8690   71.6260  222.5340 C   0  0  0  0  0  0  0  0  0  0  0  0
  136.9960   71.0770  221.8370 O   0  0  0  0  0  0  0  0  0  0  0  0
  138.5330   70.8830  223.6140 C   0  0  0  0  0  0  0  0  0  0  0  0
  138.5110   69.5040  223.6210 C   0  0  0  0  0  0  0  0  0  0  0  0
  139.1280   68.7660  224.6260 C   0  0  0  0  0  0  0  0  0  0  0  0
  139.7740   69.4260  225.6350 C   0  0  0  0  0  0  0  0  0  0  0  0
  140.4190   68.8090  226.6830 C   0  0  0  0  0  0  0  0  0  0  0  0
  141.0540   69.5260  227.6730 C   0  0  0  0  0  0  0  0  0  0  0  0
  141.0660   70.9060  227.6500 C   0  0  0  0  0  0  0  0  0  0  0  0
  140.4160   71.5370  226.5950 C   0  0  0  0  0  0  0  0  0  0  0  0
  139.7770   70.8040  225.5990 C   0  0  0  0  0  0  0  0  0  0  0  0
  139.1730   71.4930  224.6160 N   0  0  0  0  0  0  0  0  0  0  0  0
  140.4240   76.1100  221.5410 C   0  0  1  0  0  0  0  0  0  0  0  0
  141.3120   74.9890  221.4680 C   0  0  0  0  0  0  0  0  0  0  0  0
  140.9660   73.8770  221.9570 O   0  0  0  0  0  0  0  0  0  0  0  0
  142.5790   75.0590  220.8610 N   0  0  0  0  0  0  0  0  0  0  0  0
  143.4130   73.8900  220.8310 C   0  0  0  0  0  0  0  0  0  0  0  0
  144.8490   74.1520  220.4960 C   0  0  0  0  0  0  0  0  0  0  0  0
  145.3790   72.7200  220.3960 C   0  0  0  0  0  0  0  0  0  0  0  0
  144.1880   71.8960  219.9210 C   0  0  0  0  0  0  0  0  0  0  0  0
  143.0230   72.8650  219.8100 C   0  0  0  0  0  0  0  0  0  0  0  0
  142.5490   77.1750  221.5760 H   0  0  0  0  0  0  0  0  0  0  0  0
  142.5030   78.2010  220.1740 H   0  0  0  0  0  0  0  0  0  0  0  0
  140.8370   77.1309  219.6287 H   0  0  0  0  0  0  0  0  0  0  0  0
  139.8546   78.8700  221.9489 H   0  0  0  0  0  0  0  0  0  0  0  0
  139.2559   78.8792  220.2905 H   0  0  0  0  0  0  0  0  0  0  0  0
  138.2564   77.3014  222.6158 H   0  0  0  0  0  0  0  0  0  0  0  0
  137.4828   77.4449  221.0557 H   0  0  0  0  0  0  0  0  0  0  0  0
  136.7432   74.1745  221.7197 H   0  0  0  0  0  0  0  0  0  0  0  0
  137.5070   72.9768  220.4998 H   0  0  0  0  0  0  0  0  0  0  0  0
  139.0350   73.3920  222.9730 H   0  0  0  0  0  0  0  0  0  0  0  0
  137.9914   68.9732  222.8097 H   0  0  0  0  0  0  0  0  0  0  0  0
  139.0968   67.6666  224.6095 H   0  0  0  0  0  0  0  0  0  0  0  0
  140.4276   67.7101  226.7313 H   0  0  0  0  0  0  0  0  0  0  0  0
  141.5578   68.9921  228.4922 H   0  0  0  0  0  0  0  0  0  0  0  0
  141.5710   71.4852  228.4371 H   0  0  0  0  0  0  0  0  0  0  0  0
  140.4066   72.6359  226.5466 H   0  0  0  0  0  0  0  0  0  0  0  0
  140.5829   76.2477  222.6207 H   0  0  0  0  0  0  0  0  0  0  0  0
  142.9690   75.9250  220.3950 H   0  0  0  0  0  0  0  0  0  0  0  0
  143.2754   73.5344  221.8628 H   0  0  0  0  0  0  0  0  0  0  0  0
  144.9516   74.6903  219.5422 H   0  0  0  0  0  0  0  0  0  0  0  0
  145.3797   74.7872  221.2205 H   0  0  0  0  0  0  0  0  0  0  0  0
  146.2041   72.6620  219.6709 H   0  0  0  0  0  0  0  0  0  0  0  0
  145.7788   72.3575  221.3545 H   0  0  0  0  0  0  0  0  0  0  0  0
  144.4030   71.4436  218.9417 H   0  0  0  0  0  0  0  0  0  0  0  0
  143.9633   71.0754  220.6182 H   0  0  0  0  0  0  0  0  0  0  0  0
  142.9545   73.3022  218.8029 H   0  0  0  0  0  0  0  0  0  0  0  0
  142.0349   72.4105  219.9749 H   0  0  0  0  0  0  0  0  0  0  0  0
  1  2  1  0
  2  3  1  0
  3  4  1  0
  4  5  1  0
  5  6  1  0
  6  7  2  0
  6  8  1  0
  8  9  1  0
  9 10  1  0
 10 11  2  0
 10 12  1  0
 12 13  2  0
 13 14  1  0
 14 15  2  0
 15 16  1  0
 16 17  2  0
 17 18  1  0
 18 19  2  0
 19 20  1  0
 20 21  2  0
  5 22  1  0
 22 23  1  0
 23 24  2  0
 23 25  1  0
 25 26  1  0
 26 27  1  0
 27 28  1  0
 28 29  1  0
 29 30  1  0
 22  2  1  0
 30 26  1  0
 21 12  1  0
 20 15  1  0
  1 31  1  0
  1 32  1  0
  2 33  1  6
  3 34  1  0
  3 35  1  0
  4 36  1  0
  4 37  1  0
  8 38  1  0
  8 39  1  0
  9 40  1  0
 13 41  1  0
 14 42  1  0
 16 43  1  0
 17 44  1  0
 18 45  1  0
 19 46  1  0
 22 47  1  1
 25 48  1  0
 26 49  1  0
 27 50  1  0
 27 51  1  0
 28 52  1  0
 28 53  1  0
 29 54  1  0
 29 55  1  0
 30 56  1  0
 30 57  1  0
M  END
>  <smiles>  (50) 
N[C@@H]1CCN(C(=O)CNC(=O)c2ccc3ccccc3n2)[C@H]1C(=O)NC1CCCC1

>  <score_type>  (50) 
oracle

>  <origin>  (50) 
autodockgpu

>  <m_score__min__energy>  (50) 
-9.6600000000000001

>  <m_primary>  (50) 
energy

>  <rmsd>  (50) 
4.557676755040735

>  <m_score__min__rmsd>  (50) 
4.557676755040735

>  <meeko>  (50) 
{"free_energy": -7.82, "intermolecular_energy": -9.91, "internal_energy": -2.92, "cluster_size": 24, "cluster_id": 1, "rank_in_cluster": 21}

>  <energy>  (50) 
-6.42

>  <cluster_rmsd>  (50) 
0.0

>  <cluster>  (50) 
6

$$$$
