
     RDKit          3D

 57 61  0  0  0  0  0  0  0  0999 V2000
  141.4200   72.7690  221.7590 O   0  0  0  0  0  0  0  0  0  0  0  0
  140.4250   72.7430  222.5470 C   0  0  0  0  0  0  0  0  0  0  0  0
  139.4870   73.8330  222.3420 N   0  0  0  0  0  0  0  0  0  0  0  0
  139.8220   74.7570  221.3060 C   0  0  0  0  0  0  0  0  0  0  0  0
  140.8800   75.7210  221.4840 C   0  0  0  0  0  0  0  0  0  0  0  0
  140.9480   76.1850  222.7160 O   0  0  0  0  0  0  0  0  0  0  0  0
  141.8390   76.2550  220.6320 N   0  0  0  0  0  0  0  0  0  0  0  0
  142.7270   75.5260  219.7150 C   0  0  0  0  0  0  0  0  0  0  0  0
  142.4560   75.9370  218.3000 C   0  0  0  0  0  0  0  0  0  0  0  0
  142.0280   77.3390  218.0820 C   0  0  0  0  0  0  0  0  0  0  0  0
  141.4020   78.0750  219.2120 C   0  0  0  0  0  0  0  0  0  0  0  0
  142.0660   77.7210  220.4900 C   0  0  1  0  0  0  0  0  0  0  0  0
  141.4680   78.4900  221.6030 C   0  0  0  0  0  0  0  0  0  0  0  0
  140.3900   78.7610  222.0100 N   0  0  0  0  0  0  0  0  0  0  0  0
  140.0260   79.5210  223.0130 C   0  0  0  0  0  0  0  0  0  0  0  0
  138.6670   79.8070  223.4550 C   0  0  0  0  0  0  0  0  0  0  0  0
  138.4300   80.7930  224.4000 C   0  0  0  0  0  0  0  0  0  0  0  0
  137.1540   81.0870  224.8390 C   0  0  0  0  0  0  0  0  0  0  0  0
  136.0760   80.3690  224.3130 C   0  0  0  0  0  0  0  0  0  0  0  0
  136.2870   79.3700  223.3600 C   0  0  0  0  0  0  0  0  0  0  0  0
  137.5840   79.1330  222.9710 C   0  0  0  0  0  0  0  0  0  0  0  0
  141.1490   80.0830  223.6790 C   0  0  0  0  0  0  0  0  0  0  0  0
  142.6000   79.4290  222.7560 S   0  0  0  0  0  0  0  0  0  0  0  0
  140.2240   71.7360  223.5600 C   0  0  0  0  0  0  0  0  0  0  0  0
  139.5210   70.6020  223.2100 C   0  0  0  0  0  0  0  0  0  0  0  0
  139.3360   69.6400  224.2000 C   0  0  0  0  0  0  0  0  0  0  0  0
  139.8430   69.8200  225.4880 C   0  0  0  0  0  0  0  0  0  0  0  0
  139.6810   68.8970  226.4860 C   0  0  0  0  0  0  0  0  0  0  0  0
  140.2110   69.1400  227.7440 C   0  0  0  0  0  0  0  0  0  0  0  0
  140.0740   68.2480  228.7700 F   0  0  0  0  0  0  0  0  0  0  0  0
  140.9040   70.3200  227.9900 C   0  0  0  0  0  0  0  0  0  0  0  0
  141.0790   71.2680  226.9950 C   0  0  0  0  0  0  0  0  0  0  0  0
  140.5340   70.9770  225.7640 C   0  0  0  0  0  0  0  0  0  0  0  0
  140.7090   71.9070  224.7960 N   0  0  0  0  0  0  0  0  0  0  0  0
  138.6390   73.8800  222.9480 H   0  0  0  0  0  0  0  0  0  0  0  0
  140.0920   74.1553  220.4256 H   0  0  0  0  0  0  0  0  0  0  0  0
  138.9247   75.3906  221.2475 H   0  0  0  0  0  0  0  0  0  0  0  0
  143.7739   75.7526  219.9655 H   0  0  0  0  0  0  0  0  0  0  0  0
  142.5427   74.4464  219.8178 H   0  0  0  0  0  0  0  0  0  0  0  0
  143.3797   75.7777  217.7244 H   0  0  0  0  0  0  0  0  0  0  0  0
  141.6018   75.3221  217.9801 H   0  0  0  0  0  0  0  0  0  0  0  0
  142.9199   77.9071  217.7792 H   0  0  0  0  0  0  0  0  0  0  0  0
  141.2250   77.2615  217.3342 H   0  0  0  0  0  0  0  0  0  0  0  0
  141.5013   79.1568  219.0394 H   0  0  0  0  0  0  0  0  0  0  0  0
  140.3391   77.7982  219.2732 H   0  0  0  0  0  0  0  0  0  0  0  0
  143.1393   77.9616  220.5049 H   0  0  0  0  0  0  0  0  0  0  0  0
  139.2807   81.3562  224.8111 H   0  0  0  0  0  0  0  0  0  0  0  0
  136.9886   81.8733  225.5903 H   0  0  0  0  0  0  0  0  0  0  0  0
  135.0538   80.5925  224.6523 H   0  0  0  0  0  0  0  0  0  0  0  0
  135.4491   78.7960  222.9377 H   0  0  0  0  0  0  0  0  0  0  0  0
  137.7602   78.3485  222.2203 H   0  0  0  0  0  0  0  0  0  0  0  0
  141.1502   80.7562  224.5489 H   0  0  0  0  0  0  0  0  0  0  0  0
  139.1239   70.4635  222.1936 H   0  0  0  0  0  0  0  0  0  0  0  0
  138.7799   68.7211  223.9624 H   0  0  0  0  0  0  0  0  0  0  0  0
  139.1315   67.9644  226.2903 H   0  0  0  0  0  0  0  0  0  0  0  0
  141.3203   70.5039  228.9914 H   0  0  0  0  0  0  0  0  0  0  0  0
  141.6252   72.2050  227.1787 H   0  0  0  0  0  0  0  0  0  0  0  0
  1  2  2  0
  2  3  1  0
  3  4  1  0
  4  5  1  0
  5  6  2  0
  5  7  1  0
  7  8  1  0
  8  9  1  0
  9 10  1  0
 10 11  1  0
 11 12  1  0
 12 13  1  0
 13 14  2  0
 14 15  1  0
 15 16  1  0
 16 17  2  0
 17 18  1  0
 18 19  2  0
 19 20  1  0
 20 21  2  0
 15 22  2  0
 22 23  1  0
  2 24  1  0
 24 25  2  0
 25 26  1  0
 26 27  2  0
 27 28  1  0
 28 29  2  0
 29 30  1  0
 29 31  1  0
 31 32  2  0
 32 33  1  0
 33 34  2  0
 12  7  1  0
 23 13  1  0
 34 24  1  0
 21 16  1  0
 33 27  1  0
  3 35  1  0
  4 36  1  0
  4 37  1  0
  8 38  1  0
  8 39  1  0
  9 40  1  0
  9 41  1  0
 10 42  1  0
 10 43  1  0
 11 44  1  0
 11 45  1  0
 12 46  1  6
 17 47  1  0
 18 48  1  0
 19 49  1  0
 20 50  1  0
 21 51  1  0
 22 52  1  0
 25 53  1  0
 26 54  1  0
 28 55  1  0
 31 56  1  0
 32 57  1  0
M  END
>  <smiles>  (1) 
O=C(NCC(=O)N1CCCC[C@H]1c1nc(-c2ccccc2)cs1)c1ccc2cc(F)ccc2n1

>  <score_type>  (1) 
oracle

>  <origin>  (1) 
autodockgpu

>  <m_score__min__energy>  (1) 
-10

>  <m_primary>  (1) 
energy

>  <rmsd>  (1) 
2.705039087433401

>  <m_score__min__rmsd>  (1) 
2.705039087433401

>  <meeko>  (1) 
{"free_energy": -9.51, "intermolecular_energy": -11.3, "internal_energy": -1.5, "cluster_size": 2, "cluster_id": 2, "rank_in_cluster": 2}

>  <energy>  (1) 
-10.0

>  <cluster_rmsd>  (1) 
0.0

>  <cluster>  (1) 
1

$$$$

     RDKit          3D

 57 61  0  0  0  0  0  0  0  0999 V2000
  139.6320   74.5760  222.1810 O   0  0  0  0  0  0  0  0  0  0  0  0
  140.7700   74.8590  221.6950 C   0  0  0  0  0  0  0  0  0  0  0  0
  141.0570   76.2830  221.6690 N   0  0  0  0  0  0  0  0  0  0  0  0
  140.0320   77.1350  222.1800 C   0  0  0  0  0  0  0  0  0  0  0  0
  139.7880   78.4340  221.6010 C   0  0  0  0  0  0  0  0  0  0  0  0
  138.8960   78.4030  220.6320 O   0  0  0  0  0  0  0  0  0  0  0  0
  140.2930   79.7020  221.8560 N   0  0  0  0  0  0  0  0  0  0  0  0
  139.7980   80.6850  222.8310 C   0  0  0  0  0  0  0  0  0  0  0  0
  140.8560   80.9770  223.8500 C   0  0  0  0  0  0  0  0  0  0  0  0
  142.2620   80.9220  223.3880 C   0  0  0  0  0  0  0  0  0  0  0  0
  142.5840   80.1140  222.1830 C   0  0  0  0  0  0  0  0  0  0  0  0
  141.5050   80.2410  221.1730 C   0  0  1  0  0  0  0  0  0  0  0  0
  141.8520   79.4700  219.9590 C   0  0  0  0  0  0  0  0  0  0  0  0
  141.9640   78.3380  219.6340 N   0  0  0  0  0  0  0  0  0  0  0  0
  142.3410   77.8140  218.4950 C   0  0  0  0  0  0  0  0  0  0  0  0
  142.4530   76.3970  218.1700 C   0  0  0  0  0  0  0  0  0  0  0  0
  141.3400   75.5740  218.2260 C   0  0  0  0  0  0  0  0  0  0  0  0
  141.4140   74.2280  217.9240 C   0  0  0  0  0  0  0  0  0  0  0  0
  142.6470   73.6870  217.5510 C   0  0  0  0  0  0  0  0  0  0  0  0
  143.7850   74.4940  217.4850 C   0  0  0  0  0  0  0  0  0  0  0  0
  143.6350   75.8240  217.8000 C   0  0  0  0  0  0  0  0  0  0  0  0
  142.6530   78.8140  217.5350 C   0  0  0  0  0  0  0  0  0  0  0  0
  142.3560   80.4000  218.4190 S   0  0  0  0  0  0  0  0  0  0  0  0
  141.7060   73.8770  221.2070 C   0  0  0  0  0  0  0  0  0  0  0  0
  141.2270   72.6130  220.9280 C   0  0  0  0  0  0  0  0  0  0  0  0
  142.1450   71.6770  220.4580 C   0  0  0  0  0  0  0  0  0  0  0  0
  143.4890   72.0080  220.2780 C   0  0  0  0  0  0  0  0  0  0  0  0
  144.4190   71.1150  219.8180 C   0  0  0  0  0  0  0  0  0  0  0  0
  145.7390   71.5100  219.6630 C   0  0  0  0  0  0  0  0  0  0  0  0
  146.7010   70.6540  219.2080 F   0  0  0  0  0  0  0  0  0  0  0  0
  146.1150   72.8120  219.9750 C   0  0  0  0  0  0  0  0  0  0  0  0
  145.1910   73.7320  220.4420 C   0  0  0  0  0  0  0  0  0  0  0  0
  143.8950   73.2880  220.5780 C   0  0  0  0  0  0  0  0  0  0  0  0
  142.9960   74.1920  221.0340 N   0  0  0  0  0  0  0  0  0  0  0  0
  141.9760   76.5980  221.2880 H   0  0  0  0  0  0  0  0  0  0  0  0
  139.0893   76.5740  222.0980 H   0  0  0  0  0  0  0  0  0  0  0  0
  140.4033   77.3841  223.1850 H   0  0  0  0  0  0  0  0  0  0  0  0
  139.5312   81.6146  222.3069 H   0  0  0  0  0  0  0  0  0  0  0  0
  138.9128   80.2742  223.3387 H   0  0  0  0  0  0  0  0  0  0  0  0
  140.6730   81.9896  224.2389 H   0  0  0  0  0  0  0  0  0  0  0  0
  140.7667   80.1734  224.5958 H   0  0  0  0  0  0  0  0  0  0  0  0
  142.5751   81.9555  223.1785 H   0  0  0  0  0  0  0  0  0  0  0  0
  142.7924   80.4094  224.2040 H   0  0  0  0  0  0  0  0  0  0  0  0
  143.5301   80.4704  221.7496 H   0  0  0  0  0  0  0  0  0  0  0  0
  142.6770   79.0577  222.4755 H   0  0  0  0  0  0  0  0  0  0  0  0
  141.3452   81.2750  220.8333 H   0  0  0  0  0  0  0  0  0  0  0  0
  140.3709   76.0040  218.5189 H   0  0  0  0  0  0  0  0  0  0  0  0
  140.5174   73.5929  217.9763 H   0  0  0  0  0  0  0  0  0  0  0  0
  142.7221   72.6169  217.3074 H   0  0  0  0  0  0  0  0  0  0  0  0
  144.7622   74.0821  217.1927 H   0  0  0  0  0  0  0  0  0  0  0  0
  144.5255   76.4679  217.7506 H   0  0  0  0  0  0  0  0  0  0  0  0
  142.9944   78.6722  216.4990 H   0  0  0  0  0  0  0  0  0  0  0  0
  140.1669   72.3562  221.0706 H   0  0  0  0  0  0  0  0  0  0  0  0
  141.8044   70.6575  220.2242 H   0  0  0  0  0  0  0  0  0  0  0  0
  144.1195   70.0856  219.5717 H   0  0  0  0  0  0  0  0  0  0  0  0
  147.1645   73.1165  219.8487 H   0  0  0  0  0  0  0  0  0  0  0  0
  145.4779   74.7642  220.6914 H   0  0  0  0  0  0  0  0  0  0  0  0
  1  2  2  0
  2  3  1  0
  3  4  1  0
  4  5  1  0
  5  6  2  0
  5  7  1  0
  7  8  1  0
  8  9  1  0
  9 10  1  0
 10 11  1  0
 11 12  1  0
 12 13  1  0
 13 14  2  0
 14 15  1  0
 15 16  1  0
 16 17  2  0
 17 18  1  0
 18 19  2  0
 19 20  1  0
 20 21  2  0
 15 22  2  0
 22 23  1  0
  2 24  1  0
 24 25  2  0
 25 26  1  0
 26 27  2  0
 27 28  1  0
 28 29  2  0
 29 30  1  0
 29 31  1  0
 31 32  2  0
 32 33  1  0
 33 34  2  0
 12  7  1  0
 23 13  1  0
 34 24  1  0
 21 16  1  0
 33 27  1  0
  3 35  1  0
  4 36  1  0
  4 37  1  0
  8 38  1  0
  8 39  1  0
  9 40  1  0
  9 41  1  0
 10 42  1  0
 10 43  1  0
 11 44  1  0
 11 45  1  0
 12 46  1  6
 17 47  1  0
 18 48  1  0
 19 49  1  0
 20 50  1  0
 21 51  1  0
 22 52  1  0
 25 53  1  0
 26 54  1  0
 28 55  1  0
 31 56  1  0
 32 57  1  0
M  END
>  <smiles>  (2) 
O=C(NCC(=O)N1CCCC[C@H]1c1nc(-c2ccccc2)cs1)c1ccc2cc(F)ccc2n1

>  <score_type>  (2) 
oracle

>  <origin>  (2) 
autodockgpu

>  <m_score__min__energy>  (2) 
-10

>  <m_primary>  (2) 
energy

>  <rmsd>  (2) 
6.923422846040793

>  <m_score__min__rmsd>  (2) 
6.923422846040793

>  <meeko>  (2) 
{"free_energy": -7.26, "intermolecular_energy": -9.05, "internal_energy": -3.86, "cluster_size": 15, "cluster_id": 7, "rank_in_cluster": 2}

>  <energy>  (2) 
-10.0

>  <cluster_rmsd>  (2) 
0.2

>  <cluster>  (2) 
1

$$$$

     RDKit          3D

 57 61  0  0  0  0  0  0  0  0999 V2000
  141.0550   73.4630  222.3270 O   0  0  0  0  0  0  0  0  0  0  0  0
  140.3140   72.4320  222.3160 C   0  0  0  0  0  0  0  0  0  0  0  0
  139.7050   72.1620  221.0250 N   0  0  0  0  0  0  0  0  0  0  0  0
  140.0200   73.0850  219.9820 C   0  0  0  0  0  0  0  0  0  0  0  0
  139.1020   74.1370  219.6180 C   0  0  0  0  0  0  0  0  0  0  0  0
  138.5700   73.9630  218.4250 O   0  0  0  0  0  0  0  0  0  0  0  0
  138.6640   75.2860  220.2630 N   0  0  0  0  0  0  0  0  0  0  0  0
  137.2740   75.7080  220.4960 C   0  0  0  0  0  0  0  0  0  0  0  0
  137.0010   75.7910  221.9660 C   0  0  0  0  0  0  0  0  0  0  0  0
  138.1330   76.1910  222.8350 C   0  0  0  0  0  0  0  0  0  0  0  0
  139.5180   75.9810  222.3390 C   0  0  0  0  0  0  0  0  0  0  0  0
  139.5970   76.2680  220.8860 C   0  0  1  0  0  0  0  0  0  0  0  0
  140.9870   76.1000  220.4090 C   0  0  0  0  0  0  0  0  0  0  0  0
  141.8530   75.2970  220.4810 N   0  0  0  0  0  0  0  0  0  0  0  0
  143.0810   75.3300  220.0280 C   0  0  0  0  0  0  0  0  0  0  0  0
  144.0980   74.2930  220.1570 C   0  0  0  0  0  0  0  0  0  0  0  0
  143.8860   73.0320  219.6210 C   0  0  0  0  0  0  0  0  0  0  0  0
  144.8290   72.0290  219.7280 C   0  0  0  0  0  0  0  0  0  0  0  0
  146.0280   72.2970  220.3940 C   0  0  0  0  0  0  0  0  0  0  0  0
  146.2670   73.5580  220.9430 C   0  0  0  0  0  0  0  0  0  0  0  0
  145.2830   74.5070  220.7980 C   0  0  0  0  0  0  0  0  0  0  0  0
  143.3590   76.5490  219.3510 C   0  0  0  0  0  0  0  0  0  0  0  0
  141.7860   77.4970  219.4620 S   0  0  0  0  0  0  0  0  0  0  0  0
  140.0840   71.5920  223.4650 C   0  0  0  0  0  0  0  0  0  0  0  0
  139.2800   70.4830  223.3020 C   0  0  0  0  0  0  0  0  0  0  0  0
  139.0690   69.6820  224.4220 C   0  0  0  0  0  0  0  0  0  0  0  0
  139.6480   69.9930  225.6530 C   0  0  0  0  0  0  0  0  0  0  0  0
  139.4630   69.2310  226.7750 C   0  0  0  0  0  0  0  0  0  0  0  0
  140.0670   69.5980  227.9670 C   0  0  0  0  0  0  0  0  0  0  0  0
  139.9100   68.8680  229.1110 F   0  0  0  0  0  0  0  0  0  0  0  0
  140.8590   70.7390  228.0220 C   0  0  0  0  0  0  0  0  0  0  0  0
  141.0600   71.5250  226.9000 C   0  0  0  0  0  0  0  0  0  0  0  0
  140.4380   71.1170  225.7410 C   0  0  0  0  0  0  0  0  0  0  0  0
  140.6380   71.8880  224.6470 N   0  0  0  0  0  0  0  0  0  0  0  0
  139.0840   71.3280  220.9320 H   0  0  0  0  0  0  0  0  0  0  0  0
  140.9598   73.5770  220.2731 H   0  0  0  0  0  0  0  0  0  0  0  0
  140.0230   72.4461  219.0865 H   0  0  0  0  0  0  0  0  0  0  0  0
  137.1123   76.6957  220.0396 H   0  0  0  0  0  0  0  0  0  0  0  0
  136.5935   74.9711  220.0445 H   0  0  0  0  0  0  0  0  0  0  0  0
  136.1935   76.5232  222.1135 H   0  0  0  0  0  0  0  0  0  0  0  0
  136.7535   74.7635  222.2710 H   0  0  0  0  0  0  0  0  0  0  0  0
  138.0210   77.2660  223.0393 H   0  0  0  0  0  0  0  0  0  0  0  0
  138.0544   75.5211  223.7040 H   0  0  0  0  0  0  0  0  0  0  0  0
  140.2018   76.6527  222.8786 H   0  0  0  0  0  0  0  0  0  0  0  0
  139.8031   74.9326  222.5112 H   0  0  0  0  0  0  0  0  0  0  0  0
  139.3182   77.3008  220.6301 H   0  0  0  0  0  0  0  0  0  0  0  0
  142.9415   72.8251  219.0966 H   0  0  0  0  0  0  0  0  0  0  0  0
  144.6395   71.0353  219.2961 H   0  0  0  0  0  0  0  0  0  0  0  0
  146.7892   71.5083  220.4863 H   0  0  0  0  0  0  0  0  0  0  0  0
  147.2055   73.7834  221.4707 H   0  0  0  0  0  0  0  0  0  0  0  0
  145.4629   75.5039  221.2268 H   0  0  0  0  0  0  0  0  0  0  0  0
  144.2999   76.8554  218.8705 H   0  0  0  0  0  0  0  0  0  0  0  0
  138.8253   70.2417  222.3299 H   0  0  0  0  0  0  0  0  0  0  0  0
  138.4343   68.7879  224.3344 H   0  0  0  0  0  0  0  0  0  0  0  0
  138.8357   68.3285  226.7305 H   0  0  0  0  0  0  0  0  0  0  0  0
  141.3340   71.0222  228.9729 H   0  0  0  0  0  0  0  0  0  0  0  0
  141.6849   72.4296  226.9327 H   0  0  0  0  0  0  0  0  0  0  0  0
  1  2  2  0
  2  3  1  0
  3  4  1  0
  4  5  1  0
  5  6  2  0
  5  7  1  0
  7  8  1  0
  8  9  1  0
  9 10  1  0
 10 11  1  0
 11 12  1  0
 12 13  1  0
 13 14  2  0
 14 15  1  0
 15 16  1  0
 16 17  2  0
 17 18  1  0
 18 19  2  0
 19 20  1  0
 20 21  2  0
 15 22  2  0
 22 23  1  0
  2 24  1  0
 24 25  2  0
 25 26  1  0
 26 27  2  0
 27 28  1  0
 28 29  2  0
 29 30  1  0
 29 31  1  0
 31 32  2  0
 32 33  1  0
 33 34  2  0
 12  7  1  0
 23 13  1  0
 34 24  1  0
 21 16  1  0
 33 27  1  0
  3 35  1  0
  4 36  1  0
  4 37  1  0
  8 38  1  0
  8 39  1  0
  9 40  1  0
  9 41  1  0
 10 42  1  0
 10 43  1  0
 11 44  1  0
 11 45  1  0
 12 46  1  1
 17 47  1  0
 18 48  1  0
 19 49  1  0
 20 50  1  0
 21 51  1  0
 22 52  1  0
 25 53  1  0
 26 54  1  0
 28 55  1  0
 31 56  1  0
 32 57  1  0
M  END
>  <smiles>  (3) 
O=C(NCC(=O)N1CCCC[C@H]1c1nc(-c2ccccc2)cs1)c1ccc2cc(F)ccc2n1

>  <score_type>  (3) 
oracle

>  <origin>  (3) 
autodockgpu

>  <m_score__min__energy>  (3) 
-10

>  <m_primary>  (3) 
energy

>  <rmsd>  (3) 
5.292813596701947

>  <m_score__min__rmsd>  (3) 
5.292813596701947

>  <meeko>  (3) 
{"free_energy": -8.67, "intermolecular_energy": -10.46, "internal_energy": -2.29, "cluster_size": 20, "cluster_id": 1, "rank_in_cluster": 19}

>  <energy>  (3) 
-9.78

>  <cluster_rmsd>  (3) 
0.14

>  <cluster>  (3) 
1

$$$$

     RDKit          3D

 57 61  0  0  0  0  0  0  0  0999 V2000
  139.1900   75.2530  222.1590 O   0  0  0  0  0  0  0  0  0  0  0  0
  140.3900   75.5260  221.8450 C   0  0  0  0  0  0  0  0  0  0  0  0
  140.6970   76.9450  221.8900 N   0  0  0  0  0  0  0  0  0  0  0  0
  139.6210   77.8050  222.2690 C   0  0  0  0  0  0  0  0  0  0  0  0
  139.6850   79.2260  222.0260 C   0  0  0  0  0  0  0  0  0  0  0  0
  138.5860   79.7000  221.4740 O   0  0  0  0  0  0  0  0  0  0  0  0
  140.6560   80.1910  222.2550 N   0  0  0  0  0  0  0  0  0  0  0  0
  140.6620   81.2260  223.3000 C   0  0  0  0  0  0  0  0  0  0  0  0
  141.8360   81.0330  224.2090 C   0  0  0  0  0  0  0  0  0  0  0  0
  143.0690   80.4800  223.6010 C   0  0  0  0  0  0  0  0  0  0  0  0
  142.9490   79.6860  222.3500 C   0  0  0  0  0  0  0  0  0  0  0  0
  141.9160   80.2730  221.4620 C   0  0  1  0  0  0  0  0  0  0  0  0
  141.8340   79.5040  220.2010 C   0  0  0  0  0  0  0  0  0  0  0  0
  142.0130   78.3950  219.8300 N   0  0  0  0  0  0  0  0  0  0  0  0
  141.9410   77.8780  218.6290 C   0  0  0  0  0  0  0  0  0  0  0  0
  142.1770   76.4900  218.2490 C   0  0  0  0  0  0  0  0  0  0  0  0
  143.4210   76.0920  217.7870 C   0  0  0  0  0  0  0  0  0  0  0  0
  143.6760   74.7850  217.4200 C   0  0  0  0  0  0  0  0  0  0  0  0
  142.6490   73.8430  217.5200 C   0  0  0  0  0  0  0  0  0  0  0  0
  141.3860   74.2170  217.9830 C   0  0  0  0  0  0  0  0  0  0  0  0
  141.2060   75.5350  218.3300 C   0  0  0  0  0  0  0  0  0  0  0  0
  141.5880   78.8550  217.6580 C   0  0  0  0  0  0  0  0  0  0  0  0
  141.4050   80.4100  218.6240 S   0  0  0  0  0  0  0  0  0  0  0  0
  141.3720   74.5380  221.4730 C   0  0  0  0  0  0  0  0  0  0  0  0
  140.9820   73.2150  221.4650 C   0  0  0  0  0  0  0  0  0  0  0  0
  141.9430   72.2730  221.1040 C   0  0  0  0  0  0  0  0  0  0  0  0
  143.2420   72.6580  220.7660 C   0  0  0  0  0  0  0  0  0  0  0  0
  144.2120   71.7620  220.4060 C   0  0  0  0  0  0  0  0  0  0  0  0
  145.4830   72.2120  220.0820 C   0  0  0  0  0  0  0  0  0  0  0  0
  146.4820   71.3550  219.7180 F   0  0  0  0  0  0  0  0  0  0  0  0
  145.7690   73.5720  220.1240 C   0  0  0  0  0  0  0  0  0  0  0  0
  144.8030   74.4960  220.4850 C   0  0  0  0  0  0  0  0  0  0  0  0
  143.5580   73.9970  220.7970 C   0  0  0  0  0  0  0  0  0  0  0  0
  142.6180   74.9040  221.1490 N   0  0  0  0  0  0  0  0  0  0  0  0
  141.6650   77.2530  221.6490 H   0  0  0  0  0  0  0  0  0  0  0  0
  138.7271   77.4377  221.7437 H   0  0  0  0  0  0  0  0  0  0  0  0
  139.6393   77.7461  223.3673 H   0  0  0  0  0  0  0  0  0  0  0  0
  140.7258   82.2180  222.8291 H   0  0  0  0  0  0  0  0  0  0  0  0
  139.7353   81.1494  223.8877 H   0  0  0  0  0  0  0  0  0  0  0  0
  142.0882   82.0134  224.6393 H   0  0  0  0  0  0  0  0  0  0  0  0
  141.5123   80.2776  224.9401 H   0  0  0  0  0  0  0  0  0  0  0  0
  143.7331   81.3296  223.3838 H   0  0  0  0  0  0  0  0  0  0  0  0
  143.4347   79.7567  224.3447 H   0  0  0  0  0  0  0  0  0  0  0  0
  143.9171   79.6839  221.8278 H   0  0  0  0  0  0  0  0  0  0  0  0
  142.6559   78.6574  222.6070 H   0  0  0  0  0  0  0  0  0  0  0  0
  142.1339   81.3095  221.1651 H   0  0  0  0  0  0  0  0  0  0  0  0
  144.2271   76.8366  217.7104 H   0  0  0  0  0  0  0  0  0  0  0  0
  144.6711   74.4907  217.0551 H   0  0  0  0  0  0  0  0  0  0  0  0
  142.8370   72.7983  217.2316 H   0  0  0  0  0  0  0  0  0  0  0  0
  140.5679   73.4865  218.0668 H   0  0  0  0  0  0  0  0  0  0  0  0
  140.2146   75.8394  218.6968 H   0  0  0  0  0  0  0  0  0  0  0  0
  141.4547   78.7133  216.5754 H   0  0  0  0  0  0  0  0  0  0  0  0
  139.9574   72.9168  221.7319 H   0  0  0  0  0  0  0  0  0  0  0  0
  141.6735   71.2067  221.0849 H   0  0  0  0  0  0  0  0  0  0  0  0
  143.9837   70.6864  220.3737 H   0  0  0  0  0  0  0  0  0  0  0  0
  146.7801   73.9199  219.8660 H   0  0  0  0  0  0  0  0  0  0  0  0
  145.0191   75.5740  220.5208 H   0  0  0  0  0  0  0  0  0  0  0  0
  1  2  2  0
  2  3  1  0
  3  4  1  0
  4  5  1  0
  5  6  2  0
  5  7  1  0
  7  8  1  0
  8  9  1  0
  9 10  1  0
 10 11  1  0
 11 12  1  0
 12 13  1  0
 13 14  2  0
 14 15  1  0
 15 16  1  0
 16 17  2  0
 17 18  1  0
 18 19  2  0
 19 20  1  0
 20 21  2  0
 15 22  2  0
 22 23  1  0
  2 24  1  0
 24 25  2  0
 25 26  1  0
 26 27  2  0
 27 28  1  0
 28 29  2  0
 29 30  1  0
 29 31  1  0
 31 32  2  0
 32 33  1  0
 33 34  2  0
 12  7  1  0
 23 13  1  0
 34 24  1  0
 21 16  1  0
 33 27  1  0
  3 35  1  0
  4 36  1  0
  4 37  1  0
  8 38  1  0
  8 39  1  0
  9 40  1  0
  9 41  1  0
 10 42  1  0
 10 43  1  0
 11 44  1  0
 11 45  1  0
 12 46  1  6
 17 47  1  0
 18 48  1  0
 19 49  1  0
 20 50  1  0
 21 51  1  0
 22 52  1  0
 25 53  1  0
 26 54  1  0
 28 55  1  0
 31 56  1  0
 32 57  1  0
M  END
>  <smiles>  (4) 
O=C(NCC(=O)N1CCCC[C@H]1c1nc(-c2ccccc2)cs1)c1ccc2cc(F)ccc2n1

>  <score_type>  (4) 
oracle

>  <origin>  (4) 
autodockgpu

>  <m_score__min__energy>  (4) 
-10

>  <m_primary>  (4) 
energy

>  <rmsd>  (4) 
7.072111034711995

>  <m_score__min__rmsd>  (4) 
7.072111034711995

>  <meeko>  (4) 
{"free_energy": -6.8, "intermolecular_energy": -8.59, "internal_energy": -4.36, "cluster_size": 15, "cluster_id": 7, "rank_in_cluster": 14}

>  <energy>  (4) 
-9.6

>  <cluster_rmsd>  (4) 
0.79

>  <cluster>  (4) 
1

$$$$

     RDKit          3D

 57 61  0  0  0  0  0  0  0  0999 V2000
  141.3240   72.3990  221.5150 O   0  0  0  0  0  0  0  0  0  0  0  0
  140.4780   72.5780  222.4440 C   0  0  0  0  0  0  0  0  0  0  0  0
  139.7310   73.8180  222.3240 N   0  0  0  0  0  0  0  0  0  0  0  0
  140.0590   74.6380  221.2020 C   0  0  0  0  0  0  0  0  0  0  0  0
  139.3160   75.8420  220.9190 C   0  0  0  0  0  0  0  0  0  0  0  0
  138.2050   75.6130  220.2490 O   0  0  0  0  0  0  0  0  0  0  0  0
  139.5270   77.1830  221.2100 N   0  0  0  0  0  0  0  0  0  0  0  0
  138.5550   78.1480  221.7450 C   0  0  0  0  0  0  0  0  0  0  0  0
  139.0120   78.6550  223.0780 C   0  0  0  0  0  0  0  0  0  0  0  0
  140.4750   78.7700  223.2830 C   0  0  0  0  0  0  0  0  0  0  0  0
  141.3780   77.9380  222.4460 C   0  0  0  0  0  0  0  0  0  0  0  0
  140.8560   77.8420  221.0610 C   0  0  1  0  0  0  0  0  0  0  0  0
  141.7820   77.0500  220.2230 C   0  0  0  0  0  0  0  0  0  0  0  0
  142.5330   76.1440  220.3500 N   0  0  0  0  0  0  0  0  0  0  0  0
  143.3400   75.5810  219.4860 C   0  0  0  0  0  0  0  0  0  0  0  0
  144.2410   74.4590  219.7220 C   0  0  0  0  0  0  0  0  0  0  0  0
  144.3000   73.4060  218.8230 C   0  0  0  0  0  0  0  0  0  0  0  0
  145.1430   72.3300  219.0180 C   0  0  0  0  0  0  0  0  0  0  0  0
  145.9570   72.3070  220.1540 C   0  0  0  0  0  0  0  0  0  0  0  0
  145.9180   73.3550  221.0760 C   0  0  0  0  0  0  0  0  0  0  0  0
  145.0540   74.3920  220.8150 C   0  0  0  0  0  0  0  0  0  0  0  0
  143.2560   76.2000  218.2090 C   0  0  0  0  0  0  0  0  0  0  0  0
  142.0060   77.5310  218.4310 S   0  0  0  0  0  0  0  0  0  0  0  0
  140.2620   71.6510  223.5280 C   0  0  0  0  0  0  0  0  0  0  0  0
  139.5860   70.4810  223.2500 C   0  0  0  0  0  0  0  0  0  0  0  0
  139.3870   69.5980  224.3080 C   0  0  0  0  0  0  0  0  0  0  0  0
  139.8520   69.8890  225.5910 C   0  0  0  0  0  0  0  0  0  0  0  0
  139.6750   69.0460  226.6550 C   0  0  0  0  0  0  0  0  0  0  0  0
  140.1620   69.3970  227.9040 C   0  0  0  0  0  0  0  0  0  0  0  0
  140.0080   68.5880  228.9940 F   0  0  0  0  0  0  0  0  0  0  0  0
  140.8300   70.6040  228.0750 C   0  0  0  0  0  0  0  0  0  0  0  0
  141.0210   71.4730  227.0130 C   0  0  0  0  0  0  0  0  0  0  0  0
  140.5170   71.0760  225.7940 C   0  0  0  0  0  0  0  0  0  0  0  0
  140.7080   71.9280  224.7600 N   0  0  0  0  0  0  0  0  0  0  0  0
  139.0120   74.0380  223.0480 H   0  0  0  0  0  0  0  0  0  0  0  0
  141.1083   74.9414  221.3325 H   0  0  0  0  0  0  0  0  0  0  0  0
  139.8068   73.9919  220.3482 H   0  0  0  0  0  0  0  0  0  0  0  0
  138.4601   78.9933  221.0475 H   0  0  0  0  0  0  0  0  0  0  0  0
  137.5817   77.6495  221.8643 H   0  0  0  0  0  0  0  0  0  0  0  0
  138.5763   79.6548  223.2210 H   0  0  0  0  0  0  0  0  0  0  0  0
  138.6781   77.8987  223.8036 H   0  0  0  0  0  0  0  0  0  0  0  0
  140.7456   79.8213  223.1056 H   0  0  0  0  0  0  0  0  0  0  0  0
  140.6332   78.3933  224.3043 H   0  0  0  0  0  0  0  0  0  0  0  0
  142.3778   78.3962  222.4256 H   0  0  0  0  0  0  0  0  0  0  0  0
  141.4342   76.9276  222.8772 H   0  0  0  0  0  0  0  0  0  0  0  0
  140.7633   78.8178  220.5617 H   0  0  0  0  0  0  0  0  0  0  0  0
  143.6580   73.4280  217.9301 H   0  0  0  0  0  0  0  0  0  0  0  0
  145.1735   71.5047  218.2915 H   0  0  0  0  0  0  0  0  0  0  0  0
  146.6338   71.4565  220.3231 H   0  0  0  0  0  0  0  0  0  0  0  0
  146.5527   73.3510  221.9744 H   0  0  0  0  0  0  0  0  0  0  0  0
  145.0159   75.2225  221.5353 H   0  0  0  0  0  0  0  0  0  0  0  0
  143.8121   75.9417  217.2957 H   0  0  0  0  0  0  0  0  0  0  0  0
  139.2204   70.2557  222.2373 H   0  0  0  0  0  0  0  0  0  0  0  0
  138.8531   68.6531  224.1290 H   0  0  0  0  0  0  0  0  0  0  0  0
  139.1467   68.0909  226.5186 H   0  0  0  0  0  0  0  0  0  0  0  0
  141.2134   70.8737  229.0701 H   0  0  0  0  0  0  0  0  0  0  0  0
  141.5479   72.4306  227.1368 H   0  0  0  0  0  0  0  0  0  0  0  0
  1  2  2  0
  2  3  1  0
  3  4  1  0
  4  5  1  0
  5  6  2  0
  5  7  1  0
  7  8  1  0
  8  9  1  0
  9 10  1  0
 10 11  1  0
 11 12  1  0
 12 13  1  0
 13 14  2  0
 14 15  1  0
 15 16  1  0
 16 17  2  0
 17 18  1  0
 18 19  2  0
 19 20  1  0
 20 21  2  0
 15 22  2  0
 22 23  1  0
  2 24  1  0
 24 25  2  0
 25 26  1  0
 26 27  2  0
 27 28  1  0
 28 29  2  0
 29 30  1  0
 29 31  1  0
 31 32  2  0
 32 33  1  0
 33 34  2  0
 12  7  1  0
 23 13  1  0
 34 24  1  0
 21 16  1  0
 33 27  1  0
  3 35  1  0
  4 36  1  0
  4 37  1  0
  8 38  1  0
  8 39  1  0
  9 40  1  0
  9 41  1  0
 10 42  1  0
 10 43  1  0
 11 44  1  0
 11 45  1  0
 12 46  1  6
 17 47  1  0
 18 48  1  0
 19 49  1  0
 20 50  1  0
 21 51  1  0
 22 52  1  0
 25 53  1  0
 26 54  1  0
 28 55  1  0
 31 56  1  0
 32 57  1  0
M  END
>  <smiles>  (5) 
O=C(NCC(=O)N1CCCC[C@H]1c1nc(-c2ccccc2)cs1)c1ccc2cc(F)ccc2n1

>  <score_type>  (5) 
oracle

>  <origin>  (5) 
autodockgpu

>  <m_score__min__energy>  (5) 
-10

>  <m_primary>  (5) 
energy

>  <rmsd>  (5) 
5.460629648875227

>  <m_score__min__rmsd>  (5) 
5.460629648875227

>  <meeko>  (5) 
{"free_energy": -9.6, "intermolecular_energy": -11.39, "internal_energy": -1.9, "cluster_size": 20, "cluster_id": 1, "rank_in_cluster": 5}

>  <energy>  (5) 
-9.6

>  <cluster_rmsd>  (5) 
0.8

>  <cluster>  (5) 
1

$$$$

     RDKit          3D

 57 61  0  0  0  0  0  0  0  0999 V2000
  139.4740   74.8430  222.1380 O   0  0  0  0  0  0  0  0  0  0  0  0
  140.5990   75.1350  221.6270 C   0  0  0  0  0  0  0  0  0  0  0  0
  140.8230   76.5630  221.4850 N   0  0  0  0  0  0  0  0  0  0  0  0
  139.7610   77.4090  221.9270 C   0  0  0  0  0  0  0  0  0  0  0  0
  139.6600   78.7750  221.4730 C   0  0  0  0  0  0  0  0  0  0  0  0
  138.7260   78.9430  220.5590 O   0  0  0  0  0  0  0  0  0  0  0  0
  140.3380   79.9420  221.8010 N   0  0  0  0  0  0  0  0  0  0  0  0
  139.9640   80.9410  222.8120 C   0  0  0  0  0  0  0  0  0  0  0  0
  141.0230   81.0270  223.8670 C   0  0  0  0  0  0  0  0  0  0  0  0
  142.4190   80.7870  223.4340 C   0  0  0  0  0  0  0  0  0  0  0  0
  142.6530   79.9960  222.1970 C   0  0  0  0  0  0  0  0  0  0  0  0
  141.6340   80.3270  221.1720 C   0  0  1  0  0  0  0  0  0  0  0  0
  141.9000   79.5690  219.9290 C   0  0  0  0  0  0  0  0  0  0  0  0
  142.0090   78.4410  219.5890 N   0  0  0  0  0  0  0  0  0  0  0  0
  142.3050   77.9310  218.4200 C   0  0  0  0  0  0  0  0  0  0  0  0
  142.4220   76.5180  218.0780 C   0  0  0  0  0  0  0  0  0  0  0  0
  143.6290   76.0010  217.6370 C   0  0  0  0  0  0  0  0  0  0  0  0
  143.7710   74.6680  217.3050 C   0  0  0  0  0  0  0  0  0  0  0  0
  142.6650   73.8220  217.4200 C   0  0  0  0  0  0  0  0  0  0  0  0
  141.4360   74.3170  217.8620 C   0  0  0  0  0  0  0  0  0  0  0  0
  141.3700   75.6540  218.1740 C   0  0  0  0  0  0  0  0  0  0  0  0
  142.5190   78.9430  217.4450 C   0  0  0  0  0  0  0  0  0  0  0  0
  142.2600   80.5170  218.3600 S   0  0  0  0  0  0  0  0  0  0  0  0
  141.5780   74.1580  221.2190 C   0  0  0  0  0  0  0  0  0  0  0  0
  141.1690   72.8460  221.1070 C   0  0  0  0  0  0  0  0  0  0  0  0
  142.1270   71.9150  220.7120 C   0  0  0  0  0  0  0  0  0  0  0  0
  143.4410   72.3000  220.4420 C   0  0  0  0  0  0  0  0  0  0  0  0
  144.4100   71.4140  220.0510 C   0  0  0  0  0  0  0  0  0  0  0  0
  145.6970   71.8640  219.8000 C   0  0  0  0  0  0  0  0  0  0  0  0
  146.6950   71.0170  219.4090 F   0  0  0  0  0  0  0  0  0  0  0  0
  146.0020   73.2130  219.9450 C   0  0  0  0  0  0  0  0  0  0  0  0
  145.0380   74.1270  220.3390 C   0  0  0  0  0  0  0  0  0  0  0  0
  143.7770   73.6280  220.5760 C   0  0  0  0  0  0  0  0  0  0  0  0
  142.8390   74.5250  220.9600 N   0  0  0  0  0  0  0  0  0  0  0  0
  141.7280   76.8870  221.0760 H   0  0  0  0  0  0  0  0  0  0  0  0
  138.8238   76.9125  221.6352 H   0  0  0  0  0  0  0  0  0  0  0  0
  139.9759   77.5262  222.9994 H   0  0  0  0  0  0  0  0  0  0  0  0
  139.8512   81.9228  222.3289 H   0  0  0  0  0  0  0  0  0  0  0  0
  139.0140   80.6422  223.2791 H   0  0  0  0  0  0  0  0  0  0  0  0
  140.9784   82.0365  224.3016 H   0  0  0  0  0  0  0  0  0  0  0  0
  140.7957   80.2118  224.5697 H   0  0  0  0  0  0  0  0  0  0  0  0
  142.8857   81.7715  223.2828 H   0  0  0  0  0  0  0  0  0  0  0  0
  142.8459   80.1658  224.2351 H   0  0  0  0  0  0  0  0  0  0  0  0
  143.6531   80.2280  221.8021 H   0  0  0  0  0  0  0  0  0  0  0  0
  142.5814   78.9253  222.4389 H   0  0  0  0  0  0  0  0  0  0  0  0
  141.6363   81.3876  220.8803 H   0  0  0  0  0  0  0  0  0  0  0  0
  144.4977   76.6701  217.5489 H   0  0  0  0  0  0  0  0  0  0  0  0
  144.7388   74.2788  216.9558 H   0  0  0  0  0  0  0  0  0  0  0  0
  142.7629   72.7576  217.1604 H   0  0  0  0  0  0  0  0  0  0  0  0
  140.5564   73.6632  217.9566 H   0  0  0  0  0  0  0  0  0  0  0  0
  140.4066   76.0535  218.5238 H   0  0  0  0  0  0  0  0  0  0  0  0
  142.7802   78.8140  216.3843 H   0  0  0  0  0  0  0  0  0  0  0  0
  140.1319   72.5476  221.3202 H   0  0  0  0  0  0  0  0  0  0  0  0
  141.8426   70.8572  220.6111 H   0  0  0  0  0  0  0  0  0  0  0  0
  144.1672   70.3473  219.9364 H   0  0  0  0  0  0  0  0  0  0  0  0
  147.0261   73.5604  219.7435 H   0  0  0  0  0  0  0  0  0  0  0  0
  145.2684   75.1962  220.4564 H   0  0  0  0  0  0  0  0  0  0  0  0
  1  2  2  0
  2  3  1  0
  3  4  1  0
  4  5  1  0
  5  6  2  0
  5  7  1  0
  7  8  1  0
  8  9  1  0
  9 10  1  0
 10 11  1  0
 11 12  1  0
 12 13  1  0
 13 14  2  0
 14 15  1  0
 15 16  1  0
 16 17  2  0
 17 18  1  0
 18 19  2  0
 19 20  1  0
 20 21  2  0
 15 22  2  0
 22 23  1  0
  2 24  1  0
 24 25  2  0
 25 26  1  0
 26 27  2  0
 27 28  1  0
 28 29  2  0
 29 30  1  0
 29 31  1  0
 31 32  2  0
 32 33  1  0
 33 34  2  0
 12  7  1  0
 23 13  1  0
 34 24  1  0
 21 16  1  0
 33 27  1  0
  3 35  1  0
  4 36  1  0
  4 37  1  0
  8 38  1  0
  8 39  1  0
  9 40  1  0
  9 41  1  0
 10 42  1  0
 10 43  1  0
 11 44  1  0
 11 45  1  0
 12 46  1  6
 17 47  1  0
 18 48  1  0
 19 49  1  0
 20 50  1  0
 21 51  1  0
 22 52  1  0
 25 53  1  0
 26 54  1  0
 28 55  1  0
 31 56  1  0
 32 57  1  0
M  END
>  <smiles>  (6) 
O=C(NCC(=O)N1CCCC[C@H]1c1nc(-c2ccccc2)cs1)c1ccc2cc(F)ccc2n1

>  <score_type>  (6) 
oracle

>  <origin>  (6) 
autodockgpu

>  <m_score__min__energy>  (6) 
-10

>  <m_primary>  (6) 
energy

>  <rmsd>  (6) 
7.023798808149978

>  <m_score__min__rmsd>  (6) 
7.023798808149978

>  <meeko>  (6) 
{"free_energy": -7.01, "intermolecular_energy": -8.8, "internal_energy": -4.2, "cluster_size": 15, "cluster_id": 7, "rank_in_cluster": 10}

>  <energy>  (6) 
-9.59

>  <cluster_rmsd>  (6) 
0.8

>  <cluster>  (6) 
1

$$$$

     RDKit          3D

 57 61  0  0  0  0  0  0  0  0999 V2000
  140.7220   71.9530  221.1170 O   0  0  0  0  0  0  0  0  0  0  0  0
  140.2740   72.3500  222.2370 C   0  0  0  0  0  0  0  0  0  0  0  0
  139.9020   73.7540  222.2530 N   0  0  0  0  0  0  0  0  0  0  0  0
  140.0980   74.4660  221.0300 C   0  0  0  0  0  0  0  0  0  0  0  0
  139.2980   75.6220  220.7070 C   0  0  0  0  0  0  0  0  0  0  0  0
  138.2410   75.3260  219.9770 O   0  0  0  0  0  0  0  0  0  0  0  0
  139.4080   76.9730  221.0090 N   0  0  0  0  0  0  0  0  0  0  0  0
  138.3510   77.8700  221.5010 C   0  0  0  0  0  0  0  0  0  0  0  0
  138.7140   78.4000  222.8530 C   0  0  0  0  0  0  0  0  0  0  0  0
  140.1550   78.6100  223.1250 C   0  0  0  0  0  0  0  0  0  0  0  0
  141.1480   77.8410  222.3290 C   0  0  0  0  0  0  0  0  0  0  0  0
  140.6970   77.7180  220.9210 C   0  0  1  0  0  0  0  0  0  0  0  0
  141.7100   76.9900  220.1260 C   0  0  0  0  0  0  0  0  0  0  0  0
  142.4580   76.0850  220.2650 N   0  0  0  0  0  0  0  0  0  0  0  0
  143.3510   75.5860  219.4470 C   0  0  0  0  0  0  0  0  0  0  0  0
  144.2430   74.4590  219.6940 C   0  0  0  0  0  0  0  0  0  0  0  0
  145.1540   74.5020  220.7370 C   0  0  0  0  0  0  0  0  0  0  0  0
  146.0110   73.4510  220.9960 C   0  0  0  0  0  0  0  0  0  0  0  0
  145.9540   72.3160  220.1820 C   0  0  0  0  0  0  0  0  0  0  0  0
  145.0450   72.2470  219.1250 C   0  0  0  0  0  0  0  0  0  0  0  0
  144.2230   73.3310  218.9270 C   0  0  0  0  0  0  0  0  0  0  0  0
  143.3790   76.2870  218.2100 C   0  0  0  0  0  0  0  0  0  0  0  0
  142.0940   77.5900  218.3980 S   0  0  0  0  0  0  0  0  0  0  0  0
  140.1390   71.5050  223.3970 C   0  0  0  0  0  0  0  0  0  0  0  0
  139.5230   70.2810  223.2350 C   0  0  0  0  0  0  0  0  0  0  0  0
  139.4010   69.4780  224.3660 C   0  0  0  0  0  0  0  0  0  0  0  0
  139.8830   69.8970  225.6070 C   0  0  0  0  0  0  0  0  0  0  0  0
  139.7810   69.1350  226.7400 C   0  0  0  0  0  0  0  0  0  0  0  0
  140.2810   69.6130  227.9410 C   0  0  0  0  0  0  0  0  0  0  0  0
  140.2010   68.8880  229.0960 F   0  0  0  0  0  0  0  0  0  0  0  0
  140.8850   70.8650  227.9930 C   0  0  0  0  0  0  0  0  0  0  0  0
  140.9980   71.6530  226.8600 C   0  0  0  0  0  0  0  0  0  0  0  0
  140.4860   71.1310  225.6930 C   0  0  0  0  0  0  0  0  0  0  0  0
  140.6000   71.9050  224.5890 N   0  0  0  0  0  0  0  0  0  0  0  0
  139.5210   74.1580  223.1370 H   0  0  0  0  0  0  0  0  0  0  0  0
  141.1460   74.8002  221.0272 H   0  0  0  0  0  0  0  0  0  0  0  0
  139.7835   73.7345  220.2711 H   0  0  0  0  0  0  0  0  0  0  0  0
  138.2317   78.7101  220.8009 H   0  0  0  0  0  0  0  0  0  0  0  0
  137.4082   77.3083  221.5758 H   0  0  0  0  0  0  0  0  0  0  0  0
  138.2076   79.3686  222.9774 H   0  0  0  0  0  0  0  0  0  0  0  0
  138.3989   77.6197  223.5614 H   0  0  0  0  0  0  0  0  0  0  0  0
  140.3640   79.6774  222.9607 H   0  0  0  0  0  0  0  0  0  0  0  0
  140.2910   78.2415  224.1525 H   0  0  0  0  0  0  0  0  0  0  0  0
  142.1161   78.3626  222.3554 H   0  0  0  0  0  0  0  0  0  0  0  0
  141.2496   76.8344  222.7608 H   0  0  0  0  0  0  0  0  0  0  0  0
  140.5642   78.6876  220.4189 H   0  0  0  0  0  0  0  0  0  0  0  0
  145.1956   75.3969  221.3754 H   0  0  0  0  0  0  0  0  0  0  0  0
  146.7270   73.5059  221.8293 H   0  0  0  0  0  0  0  0  0  0  0  0
  146.6307   71.4707  220.3760 H   0  0  0  0  0  0  0  0  0  0  0  0
  144.9886   71.3605  218.4762 H   0  0  0  0  0  0  0  0  0  0  0  0
  143.5029   73.2859  218.0967 H   0  0  0  0  0  0  0  0  0  0  0  0
  144.0225   76.0940  217.3390 H   0  0  0  0  0  0  0  0  0  0  0  0
  139.1448   69.9539  222.2552 H   0  0  0  0  0  0  0  0  0  0  0  0
  138.9155   68.4947  224.2798 H   0  0  0  0  0  0  0  0  0  0  0  0
  139.3031   68.1452  226.6971 H   0  0  0  0  0  0  0  0  0  0  0  0
  141.2796   71.2354  228.9506 H   0  0  0  0  0  0  0  0  0  0  0  0
  141.4724   72.6450  226.8905 H   0  0  0  0  0  0  0  0  0  0  0  0
  1  2  2  0
  2  3  1  0
  3  4  1  0
  4  5  1  0
  5  6  2  0
  5  7  1  0
  7  8  1  0
  8  9  1  0
  9 10  1  0
 10 11  1  0
 11 12  1  0
 12 13  1  0
 13 14  2  0
 14 15  1  0
 15 16  1  0
 16 17  2  0
 17 18  1  0
 18 19  2  0
 19 20  1  0
 20 21  2  0
 15 22  2  0
 22 23  1  0
  2 24  1  0
 24 25  2  0
 25 26  1  0
 26 27  2  0
 27 28  1  0
 28 29  2  0
 29 30  1  0
 29 31  1  0
 31 32  2  0
 32 33  1  0
 33 34  2  0
 12  7  1  0
 23 13  1  0
 34 24  1  0
 21 16  1  0
 33 27  1  0
  3 35  1  0
  4 36  1  0
  4 37  1  0
  8 38  1  0
  8 39  1  0
  9 40  1  0
  9 41  1  0
 10 42  1  0
 10 43  1  0
 11 44  1  0
 11 45  1  0
 12 46  1  6
 17 47  1  0
 18 48  1  0
 19 49  1  0
 20 50  1  0
 21 51  1  0
 22 52  1  0
 25 53  1  0
 26 54  1  0
 28 55  1  0
 31 56  1  0
 32 57  1  0
M  END
>  <smiles>  (7) 
O=C(NCC(=O)N1CCCC[C@H]1c1nc(-c2ccccc2)cs1)c1ccc2cc(F)ccc2n1

>  <score_type>  (7) 
oracle

>  <origin>  (7) 
autodockgpu

>  <m_score__min__energy>  (7) 
-10

>  <m_primary>  (7) 
energy

>  <rmsd>  (7) 
5.398584654522213

>  <m_score__min__rmsd>  (7) 
5.398584654522213

>  <meeko>  (7) 
{"free_energy": -9.4, "intermolecular_energy": -11.19, "internal_energy": -1.87, "cluster_size": 20, "cluster_id": 1, "rank_in_cluster": 9}

>  <energy>  (7) 
-9.52

>  <cluster_rmsd>  (7) 
0.79

>  <cluster>  (7) 
1

$$$$

     RDKit          3D

 57 61  0  0  0  0  0  0  0  0999 V2000
  141.4380   73.0580  221.5130 O   0  0  0  0  0  0  0  0  0  0  0  0
  140.4920   72.9620  222.3540 C   0  0  0  0  0  0  0  0  0  0  0  0
  139.5950   74.1050  222.3580 N   0  0  0  0  0  0  0  0  0  0  0  0
  139.9110   75.1500  221.4370 C   0  0  0  0  0  0  0  0  0  0  0  0
  139.3660   76.4750  221.6010 C   0  0  0  0  0  0  0  0  0  0  0  0
  138.2980   76.4980  222.3740 O   0  0  0  0  0  0  0  0  0  0  0  0
  139.7350   77.7250  221.1210 N   0  0  0  0  0  0  0  0  0  0  0  0
  139.0170   78.9970  221.2900 C   0  0  0  0  0  0  0  0  0  0  0  0
  139.8660   79.9700  222.0490 C   0  0  0  0  0  0  0  0  0  0  0  0
  141.3310   79.8790  221.8470 C   0  0  0  0  0  0  0  0  0  0  0  0
  141.9040   78.5920  221.3730 C   0  0  0  0  0  0  0  0  0  0  0  0
  141.0050   77.9610  220.3770 C   0  0  1  0  0  0  0  0  0  0  0  0
  141.6020   76.7030  219.8770 C   0  0  0  0  0  0  0  0  0  0  0  0
  142.5280   76.0080  220.1220 N   0  0  0  0  0  0  0  0  0  0  0  0
  142.9540   74.9210  219.5280 C   0  0  0  0  0  0  0  0  0  0  0  0
  144.1120   74.1130  219.8930 C   0  0  0  0  0  0  0  0  0  0  0  0
  144.3150   72.8730  219.3070 C   0  0  0  0  0  0  0  0  0  0  0  0
  145.4010   72.0850  219.6310 C   0  0  0  0  0  0  0  0  0  0  0  0
  146.3180   72.5540  220.5750 C   0  0  0  0  0  0  0  0  0  0  0  0
  146.1380   73.7990  221.1810 C   0  0  0  0  0  0  0  0  0  0  0  0
  145.0330   74.5280  220.8080 C   0  0  0  0  0  0  0  0  0  0  0  0
  142.1340   74.5710  218.4210 C   0  0  0  0  0  0  0  0  0  0  0  0
  140.8390   75.8780  218.3850 S   0  0  0  0  0  0  0  0  0  0  0  0
  140.3050   71.8340  223.2320 C   0  0  0  0  0  0  0  0  0  0  0  0
  139.7190   70.7000  222.7080 C   0  0  0  0  0  0  0  0  0  0  0  0
  139.5460   69.6200  223.5710 C   0  0  0  0  0  0  0  0  0  0  0  0
  139.9500   69.6880  224.9050 C   0  0  0  0  0  0  0  0  0  0  0  0
  139.7960   68.6470  225.7820 C   0  0  0  0  0  0  0  0  0  0  0  0
  140.2190   68.7820  227.0950 C   0  0  0  0  0  0  0  0  0  0  0  0
  140.0850   67.7710  228.0040 F   0  0  0  0  0  0  0  0  0  0  0  0
  140.7970   69.9730  227.5200 C   0  0  0  0  0  0  0  0  0  0  0  0
  140.9630   71.0380  226.6510 C   0  0  0  0  0  0  0  0  0  0  0  0
  140.5260   70.8530  225.3580 C   0  0  0  0  0  0  0  0  0  0  0  0
  140.6910   71.8970  224.5120 N   0  0  0  0  0  0  0  0  0  0  0  0
  138.7880   74.1010  223.0190 H   0  0  0  0  0  0  0  0  0  0  0  0
  141.0056   75.2583  221.4505 H   0  0  0  0  0  0  0  0  0  0  0  0
  139.4337   74.8057  220.5077 H   0  0  0  0  0  0  0  0  0  0  0  0
  138.7801   79.4153  220.3006 H   0  0  0  0  0  0  0  0  0  0  0  0
  138.0887   78.8148  221.8512 H   0  0  0  0  0  0  0  0  0  0  0  0
  139.5523   80.9832  221.7574 H   0  0  0  0  0  0  0  0  0  0  0  0
  139.7063   79.7247  223.1093 H   0  0  0  0  0  0  0  0  0  0  0  0
  141.6052   80.6476  221.1094 H   0  0  0  0  0  0  0  0  0  0  0  0
  141.7498   80.0041  222.8564 H   0  0  0  0  0  0  0  0  0  0  0  0
  142.8834   78.7805  220.9090 H   0  0  0  0  0  0  0  0  0  0  0  0
  142.0165   77.9140  222.2318 H   0  0  0  0  0  0  0  0  0  0  0  0
  140.8362   78.5843  219.4865 H   0  0  0  0  0  0  0  0  0  0  0  0
  143.5911   72.5073  218.5639 H   0  0  0  0  0  0  0  0  0  0  0  0
  145.5421   71.1040  219.1538 H   0  0  0  0  0  0  0  0  0  0  0  0
  147.1887   71.9375  220.8430 H   0  0  0  0  0  0  0  0  0  0  0  0
  146.8510   74.1812  221.9264 H   0  0  0  0  0  0  0  0  0  0  0  0
  144.8827   75.5106  221.2791 H   0  0  0  0  0  0  0  0  0  0  0  0
  142.2476   73.7141  217.7408 H   0  0  0  0  0  0  0  0  0  0  0  0
  139.4025   70.6508  221.6557 H   0  0  0  0  0  0  0  0  0  0  0  0
  139.0824   68.6965  223.1938 H   0  0  0  0  0  0  0  0  0  0  0  0
  139.3375   67.7057  225.4448 H   0  0  0  0  0  0  0  0  0  0  0  0
  141.1280   70.0708  228.5644 H   0  0  0  0  0  0  0  0  0  0  0  0
  141.4206   71.9838  226.9767 H   0  0  0  0  0  0  0  0  0  0  0  0
  1  2  2  0
  2  3  1  0
  3  4  1  0
  4  5  1  0
  5  6  2  0
  5  7  1  0
  7  8  1  0
  8  9  1  0
  9 10  1  0
 10 11  1  0
 11 12  1  0
 12 13  1  0
 13 14  2  0
 14 15  1  0
 15 16  1  0
 16 17  2  0
 17 18  1  0
 18 19  2  0
 19 20  1  0
 20 21  2  0
 15 22  2  0
 22 23  1  0
  2 24  1  0
 24 25  2  0
 25 26  1  0
 26 27  2  0
 27 28  1  0
 28 29  2  0
 29 30  1  0
 29 31  1  0
 31 32  2  0
 32 33  1  0
 33 34  2  0
 12  7  1  0
 23 13  1  0
 34 24  1  0
 21 16  1  0
 33 27  1  0
  3 35  1  0
  4 36  1  0
  4 37  1  0
  8 38  1  0
  8 39  1  0
  9 40  1  0
  9 41  1  0
 10 42  1  0
 10 43  1  0
 11 44  1  0
 11 45  1  0
 12 46  1  6
 17 47  1  0
 18 48  1  0
 19 49  1  0
 20 50  1  0
 21 51  1  0
 22 52  1  0
 25 53  1  0
 26 54  1  0
 28 55  1  0
 31 56  1  0
 32 57  1  0
M  END
>  <smiles>  (8) 
O=C(NCC(=O)N1CCCC[C@H]1c1nc(-c2ccccc2)cs1)c1ccc2cc(F)ccc2n1

>  <score_type>  (8) 
oracle

>  <origin>  (8) 
autodockgpu

>  <m_score__min__energy>  (8) 
-10

>  <m_primary>  (8) 
energy

>  <rmsd>  (8) 
5.504903555018494

>  <m_score__min__rmsd>  (8) 
5.504903555018494

>  <meeko>  (8) 
{"free_energy": -8.86, "intermolecular_energy": -10.65, "internal_energy": -1.91, "cluster_size": 20, "cluster_id": 1, "rank_in_cluster": 17}

>  <energy>  (8) 
-9.41

>  <cluster_rmsd>  (8) 
0.78

>  <cluster>  (8) 
1

$$$$

     RDKit          3D

 57 61  0  0  0  0  0  0  0  0999 V2000
  140.8350   72.2070  221.2470 O   0  0  0  0  0  0  0  0  0  0  0  0
  140.1050   72.5010  222.2430 C   0  0  0  0  0  0  0  0  0  0  0  0
  139.4500   73.7920  222.1260 N   0  0  0  0  0  0  0  0  0  0  0  0
  139.7260   74.5270  220.9330 C   0  0  0  0  0  0  0  0  0  0  0  0
  139.6300   75.9660  220.9070 C   0  0  0  0  0  0  0  0  0  0  0  0
  139.1890   76.4300  219.7550 O   0  0  0  0  0  0  0  0  0  0  0  0
  139.9000   76.9570  221.8420 N   0  0  0  0  0  0  0  0  0  0  0  0
  141.1890   77.6140  222.1040 C   0  0  0  0  0  0  0  0  0  0  0  0
  141.0860   79.0810  221.8230 C   0  0  0  0  0  0  0  0  0  0  0  0
  139.7750   79.7210  222.0850 C   0  0  0  0  0  0  0  0  0  0  0  0
  138.5570   78.8690  222.0890 C   0  0  0  0  0  0  0  0  0  0  0  0
  138.8470   77.5550  222.7120 C   0  0  1  0  0  0  0  0  0  0  0  0
  137.6200   76.7300  222.7530 C   0  0  0  0  0  0  0  0  0  0  0  0
  137.2930   75.6520  223.1130 N   0  0  0  0  0  0  0  0  0  0  0  0
  136.1380   75.0410  223.0250 C   0  0  0  0  0  0  0  0  0  0  0  0
  135.8100   73.7010  223.4980 C   0  0  0  0  0  0  0  0  0  0  0  0
  136.3300   72.5860  222.8610 C   0  0  0  0  0  0  0  0  0  0  0  0
  136.0390   71.3040  223.2840 C   0  0  0  0  0  0  0  0  0  0  0  0
  135.1980   71.1320  224.3870 C   0  0  0  0  0  0  0  0  0  0  0  0
  134.6610   72.2390  225.0480 C   0  0  0  0  0  0  0  0  0  0  0  0
  134.9950   73.4830  224.5700 C   0  0  0  0  0  0  0  0  0  0  0  0
  135.1620   75.8510  222.3840 C   0  0  0  0  0  0  0  0  0  0  0  0
  136.0560   77.4100  221.9890 S   0  0  0  0  0  0  0  0  0  0  0  0
  139.9270   71.6500  223.3930 C   0  0  0  0  0  0  0  0  0  0  0  0
  139.1840   70.4980  223.2330 C   0  0  0  0  0  0  0  0  0  0  0  0
  139.0230   69.6870  224.3530 C   0  0  0  0  0  0  0  0  0  0  0  0
  139.5900   70.0290  225.5820 C   0  0  0  0  0  0  0  0  0  0  0  0
  139.4530   69.2570  226.7050 C   0  0  0  0  0  0  0  0  0  0  0  0
  140.0420   69.6570  227.8940 C   0  0  0  0  0  0  0  0  0  0  0  0
  139.9320   68.9190  229.0380 F   0  0  0  0  0  0  0  0  0  0  0  0
  140.7710   70.8400  227.9450 C   0  0  0  0  0  0  0  0  0  0  0  0
  140.9230   71.6360  226.8220 C   0  0  0  0  0  0  0  0  0  0  0  0
  140.3180   71.1940  225.6670 C   0  0  0  0  0  0  0  0  0  0  0  0
  140.4700   71.9760  224.5720 N   0  0  0  0  0  0  0  0  0  0  0  0
  138.8270   74.1070  222.9030 H   0  0  0  0  0  0  0  0  0  0  0  0
  140.7575   74.2773  220.6436 H   0  0  0  0  0  0  0  0  0  0  0  0
  138.9086   74.2184  220.2647 H   0  0  0  0  0  0  0  0  0  0  0  0
  141.4660   77.4641  223.1580 H   0  0  0  0  0  0  0  0  0  0  0  0
  141.9561   77.1752  221.4490 H   0  0  0  0  0  0  0  0  0  0  0  0
  141.8361   79.5923  222.4442 H   0  0  0  0  0  0  0  0  0  0  0  0
  141.2422   79.1781  220.7385 H   0  0  0  0  0  0  0  0  0  0  0  0
  139.8393   80.1998  223.0732 H   0  0  0  0  0  0  0  0  0  0  0  0
  139.6288   80.3950  221.2281 H   0  0  0  0  0  0  0  0  0  0  0  0
  137.7637   79.3736  222.6600 H   0  0  0  0  0  0  0  0  0  0  0  0
  138.2313   78.7074  221.0508 H   0  0  0  0  0  0  0  0  0  0  0  0
  139.1878   77.6327  223.7550 H   0  0  0  0  0  0  0  0  0  0  0  0
  136.9929   72.7257  221.9944 H   0  0  0  0  0  0  0  0  0  0  0  0
  136.4619   70.4331  222.7618 H   0  0  0  0  0  0  0  0  0  0  0  0
  134.9573   70.1174  224.7371 H   0  0  0  0  0  0  0  0  0  0  0  0
  133.9970   72.1196  225.9168 H   0  0  0  0  0  0  0  0  0  0  0  0
  134.5779   74.3607  225.0855 H   0  0  0  0  0  0  0  0  0  0  0  0
  134.1115   75.6026  222.1723 H   0  0  0  0  0  0  0  0  0  0  0  0
  138.7385   70.2323  222.2630 H   0  0  0  0  0  0  0  0  0  0  0  0
  138.4380   68.7593  224.2680 H   0  0  0  0  0  0  0  0  0  0  0  0
  138.8765   68.3211  226.6633 H   0  0  0  0  0  0  0  0  0  0  0  0
  141.2348   71.1488  228.8934 H   0  0  0  0  0  0  0  0  0  0  0  0
  141.4977   72.5735  226.8513 H   0  0  0  0  0  0  0  0  0  0  0  0
  1  2  2  0
  2  3  1  0
  3  4  1  0
  4  5  1  0
  5  6  2  0
  5  7  1  0
  7  8  1  0
  8  9  1  0
  9 10  1  0
 10 11  1  0
 11 12  1  0
 12 13  1  0
 13 14  2  0
 14 15  1  0
 15 16  1  0
 16 17  2  0
 17 18  1  0
 18 19  2  0
 19 20  1  0
 20 21  2  0
 15 22  2  0
 22 23  1  0
  2 24  1  0
 24 25  2  0
 25 26  1  0
 26 27  2  0
 27 28  1  0
 28 29  2  0
 29 30  1  0
 29 31  1  0
 31 32  2  0
 32 33  1  0
 33 34  2  0
 12  7  1  0
 23 13  1  0
 34 24  1  0
 21 16  1  0
 33 27  1  0
  3 35  1  0
  4 36  1  0
  4 37  1  0
  8 38  1  0
  8 39  1  0
  9 40  1  0
  9 41  1  0
 10 42  1  0
 10 43  1  0
 11 44  1  0
 11 45  1  0
 12 46  1  1
 17 47  1  0
 18 48  1  0
 19 49  1  0
 20 50  1  0
 21 51  1  0
 22 52  1  0
 25 53  1  0
 26 54  1  0
 28 55  1  0
 31 56  1  0
 32 57  1  0
M  END
>  <smiles>  (9) 
O=C(NCC(=O)N1CCCC[C@H]1c1nc(-c2ccccc2)cs1)c1ccc2cc(F)ccc2n1

>  <score_type>  (9) 
oracle

>  <origin>  (9) 
autodockgpu

>  <m_score__min__energy>  (9) 
-10

>  <m_primary>  (9) 
energy

>  <rmsd>  (9) 
5.971026124084577

>  <m_score__min__rmsd>  (9) 
5.971026124084577

>  <meeko>  (9) 
{"free_energy": -7.68, "intermolecular_energy": -9.47, "internal_energy": -3.3, "cluster_size": 5, "cluster_id": 6, "rank_in_cluster": 3}

>  <energy>  (9) 
-9.4

>  <cluster_rmsd>  (9) 
0.9

>  <cluster>  (9) 
1

$$$$

     RDKit          3D

 57 61  0  0  0  0  0  0  0  0999 V2000
  141.4640   72.6800  221.9080 O   0  0  0  0  0  0  0  0  0  0  0  0
  140.4290   72.5650  222.6340 C   0  0  0  0  0  0  0  0  0  0  0  0
  139.3960   73.5430  222.3380 N   0  0  0  0  0  0  0  0  0  0  0  0
  139.6970   74.4730  221.2980 C   0  0  0  0  0  0  0  0  0  0  0  0
  140.3150   75.7430  221.5930 C   0  0  0  0  0  0  0  0  0  0  0  0
  141.4140   75.6230  222.3110 O   0  0  0  0  0  0  0  0  0  0  0  0
  139.9970   77.0570  221.2750 N   0  0  0  0  0  0  0  0  0  0  0  0
  138.8080   77.8160  221.6900 C   0  0  0  0  0  0  0  0  0  0  0  0
  139.2140   79.0000  222.5120 C   0  0  0  0  0  0  0  0  0  0  0  0
  140.5120   79.6320  222.1770 C   0  0  0  0  0  0  0  0  0  0  0  0
  141.5370   78.8200  221.4710 C   0  0  0  0  0  0  0  0  0  0  0  0
  140.8950   77.9340  220.4700 C   0  0  1  0  0  0  0  0  0  0  0  0
  141.9250   77.1610  219.7420 C   0  0  0  0  0  0  0  0  0  0  0  0
  142.6280   76.2290  219.9320 N   0  0  0  0  0  0  0  0  0  0  0  0
  143.5490   75.6900  219.1720 C   0  0  0  0  0  0  0  0  0  0  0  0
  144.3800   74.5310  219.4800 C   0  0  0  0  0  0  0  0  0  0  0  0
  145.1580   74.5110  220.6260 C   0  0  0  0  0  0  0  0  0  0  0  0
  145.9550   73.4300  220.9450 C   0  0  0  0  0  0  0  0  0  0  0  0
  145.9730   72.3280  220.0850 C   0  0  0  0  0  0  0  0  0  0  0  0
  145.1990   72.3220  218.9240 C   0  0  0  0  0  0  0  0  0  0  0  0
  144.4300   73.4340  218.6720 C   0  0  0  0  0  0  0  0  0  0  0  0
  143.6780   76.3780  217.9350 C   0  0  0  0  0  0  0  0  0  0  0  0
  142.4350   77.7310  218.0370 S   0  0  0  0  0  0  0  0  0  0  0  0
  140.2710   71.5660  223.6620 C   0  0  0  0  0  0  0  0  0  0  0  0
  139.6330   70.3910  223.3240 C   0  0  0  0  0  0  0  0  0  0  0  0
  139.4890   69.4370  224.3290 C   0  0  0  0  0  0  0  0  0  0  0  0
  139.9710   69.6650  225.6180 C   0  0  0  0  0  0  0  0  0  0  0  0
  139.8490   68.7520  226.6310 C   0  0  0  0  0  0  0  0  0  0  0  0
  140.3500   69.0440  227.8900 C   0  0  0  0  0  0  0  0  0  0  0  0
  140.2500   68.1630  228.9290 F   0  0  0  0  0  0  0  0  0  0  0  0
  140.9770   70.2630  228.1220 C   0  0  0  0  0  0  0  0  0  0  0  0
  141.1130   71.2020  227.1130 C   0  0  0  0  0  0  0  0  0  0  0  0
  140.5970   70.8630  225.8820 C   0  0  0  0  0  0  0  0  0  0  0  0
  140.7330   71.7830  224.8990 N   0  0  0  0  0  0  0  0  0  0  0  0
  138.5100   73.5120  222.8890 H   0  0  0  0  0  0  0  0  0  0  0  0
  140.3684   73.9535  220.5985 H   0  0  0  0  0  0  0  0  0  0  0  0
  138.6993   74.7668  220.9398 H   0  0  0  0  0  0  0  0  0  0  0  0
  138.2670   78.1616  220.7968 H   0  0  0  0  0  0  0  0  0  0  0  0
  138.1579   77.1651  222.2930 H   0  0  0  0  0  0  0  0  0  0  0  0
  138.4324   79.7660  222.4011 H   0  0  0  0  0  0  0  0  0  0  0  0
  139.3376   78.6124  223.5340 H   0  0  0  0  0  0  0  0  0  0  0  0
  140.2942   80.5031  221.5416 H   0  0  0  0  0  0  0  0  0  0  0  0
  140.9666   79.8462  223.1555 H   0  0  0  0  0  0  0  0  0  0  0  0
  142.2431   79.4916  220.9607 H   0  0  0  0  0  0  0  0  0  0  0  0
  142.0699   78.1998  222.2068 H   0  0  0  0  0  0  0  0  0  0  0  0
  140.3329   78.4814  219.6991 H   0  0  0  0  0  0  0  0  0  0  0  0
  145.1402   75.3801  221.3001 H   0  0  0  0  0  0  0  0  0  0  0  0
  146.5654   73.4356  221.8601 H   0  0  0  0  0  0  0  0  0  0  0  0
  146.6025   71.4586  220.3255 H   0  0  0  0  0  0  0  0  0  0  0  0
  145.2037   71.4623  218.2378 H   0  0  0  0  0  0  0  0  0  0  0  0
  143.8156   73.4386  217.7596 H   0  0  0  0  0  0  0  0  0  0  0  0
  144.3645   76.1529  217.1055 H   0  0  0  0  0  0  0  0  0  0  0  0
  139.2547   70.2149  222.3062 H   0  0  0  0  0  0  0  0  0  0  0  0
  138.9856   68.4857  224.1017 H   0  0  0  0  0  0  0  0  0  0  0  0
  139.3537   67.7874  226.4459 H   0  0  0  0  0  0  0  0  0  0  0  0
  141.3719   70.4856  229.1243 H   0  0  0  0  0  0  0  0  0  0  0  0
  141.6079   72.1691  227.2861 H   0  0  0  0  0  0  0  0  0  0  0  0
  1  2  2  0
  2  3  1  0
  3  4  1  0
  4  5  1  0
  5  6  2  0
  5  7  1  0
  7  8  1  0
  8  9  1  0
  9 10  1  0
 10 11  1  0
 11 12  1  0
 12 13  1  0
 13 14  2  0
 14 15  1  0
 15 16  1  0
 16 17  2  0
 17 18  1  0
 18 19  2  0
 19 20  1  0
 20 21  2  0
 15 22  2  0
 22 23  1  0
  2 24  1  0
 24 25  2  0
 25 26  1  0
 26 27  2  0
 27 28  1  0
 28 29  2  0
 29 30  1  0
 29 31  1  0
 31 32  2  0
 32 33  1  0
 33 34  2  0
 12  7  1  0
 23 13  1  0
 34 24  1  0
 21 16  1  0
 33 27  1  0
  3 35  1  0
  4 36  1  0
  4 37  1  0
  8 38  1  0
  8 39  1  0
  9 40  1  0
  9 41  1  0
 10 42  1  0
 10 43  1  0
 11 44  1  0
 11 45  1  0
 12 46  1  6
 17 47  1  0
 18 48  1  0
 19 49  1  0
 20 50  1  0
 21 51  1  0
 22 52  1  0
 25 53  1  0
 26 54  1  0
 28 55  1  0
 31 56  1  0
 32 57  1  0
M  END
>  <smiles>  (10) 
O=C(NCC(=O)N1CCCC[C@H]1c1nc(-c2ccccc2)cs1)c1ccc2cc(F)ccc2n1

>  <score_type>  (10) 
oracle

>  <origin>  (10) 
autodockgpu

>  <m_score__min__energy>  (10) 
-10

>  <m_primary>  (10) 
energy

>  <rmsd>  (10) 
5.351502268176435

>  <m_score__min__rmsd>  (10) 
5.351502268176435

>  <meeko>  (10) 
{"free_energy": -9.78, "intermolecular_energy": -11.57, "internal_energy": -1.79, "cluster_size": 20, "cluster_id": 1, "rank_in_cluster": 3}

>  <energy>  (10) 
-9.39

>  <cluster_rmsd>  (10) 
0.74

>  <cluster>  (10) 
1

$$$$

     RDKit          3D

 57 61  0  0  0  0  0  0  0  0999 V2000
  141.2520   73.0040  221.8830 O   0  0  0  0  0  0  0  0  0  0  0  0
  140.2220   72.7770  222.5900 C   0  0  0  0  0  0  0  0  0  0  0  0
  139.1240   73.6940  222.3340 N   0  0  0  0  0  0  0  0  0  0  0  0
  139.3660   74.6980  221.3480 C   0  0  0  0  0  0  0  0  0  0  0  0
  140.1730   75.8560  221.6490 C   0  0  0  0  0  0  0  0  0  0  0  0
  141.2710   75.5560  222.3140 O   0  0  0  0  0  0  0  0  0  0  0  0
  140.0350   77.2110  221.3800 N   0  0  0  0  0  0  0  0  0  0  0  0
  138.9490   78.1040  221.8110 C   0  0  0  0  0  0  0  0  0  0  0  0
  139.4930   79.1920  222.6850 C   0  0  0  0  0  0  0  0  0  0  0  0
  140.8680   79.6600  222.3930 C   0  0  0  0  0  0  0  0  0  0  0  0
  141.7900   78.7470  221.6680 C   0  0  0  0  0  0  0  0  0  0  0  0
  141.0550   77.9920  220.6240 C   0  0  1  0  0  0  0  0  0  0  0  0
  141.9880   77.1190  219.8770 C   0  0  0  0  0  0  0  0  0  0  0  0
  142.7120   76.2100  220.0960 N   0  0  0  0  0  0  0  0  0  0  0  0
  143.5310   75.5660  219.3030 C   0  0  0  0  0  0  0  0  0  0  0  0
  144.3980   74.4460  219.6510 C   0  0  0  0  0  0  0  0  0  0  0  0
  145.1300   74.4640  220.8280 C   0  0  0  0  0  0  0  0  0  0  0  0
  145.9590   73.4190  221.1850 C   0  0  0  0  0  0  0  0  0  0  0  0
  146.0590   72.3160  220.3330 C   0  0  0  0  0  0  0  0  0  0  0  0
  145.3330   72.2710  219.1420 C   0  0  0  0  0  0  0  0  0  0  0  0
  144.5280   73.3480  218.8520 C   0  0  0  0  0  0  0  0  0  0  0  0
  143.5020   76.0880  217.9810 C   0  0  0  0  0  0  0  0  0  0  0  0
  142.2770   77.4590  218.0630 S   0  0  0  0  0  0  0  0  0  0  0  0
  140.1280   71.7160  223.5610 C   0  0  0  0  0  0  0  0  0  0  0  0
  139.5550   70.5270  223.1620 C   0  0  0  0  0  0  0  0  0  0  0  0
  139.4720   69.5120  224.1130 C   0  0  0  0  0  0  0  0  0  0  0  0
  139.9500   69.6970  225.4110 C   0  0  0  0  0  0  0  0  0  0  0  0
  139.8860   68.7230  226.3720 C   0  0  0  0  0  0  0  0  0  0  0  0
  140.3790   68.9740  227.6430 C   0  0  0  0  0  0  0  0  0  0  0  0
  140.3360   68.0330  228.6330 F   0  0  0  0  0  0  0  0  0  0  0  0
  140.9370   70.2120  227.9400 C   0  0  0  0  0  0  0  0  0  0  0  0
  141.0130   71.2110  226.9840 C   0  0  0  0  0  0  0  0  0  0  0  0
  140.5080   70.9110  225.7380 C   0  0  0  0  0  0  0  0  0  0  0  0
  140.5850   71.8910  224.8070 N   0  0  0  0  0  0  0  0  0  0  0  0
  138.2390   73.5720  222.8730 H   0  0  0  0  0  0  0  0  0  0  0  0
  139.8489   74.1924  220.4988 H   0  0  0  0  0  0  0  0  0  0  0  0
  138.3671   75.1324  221.1948 H   0  0  0  0  0  0  0  0  0  0  0  0
  138.4735   78.5519  220.9260 H   0  0  0  0  0  0  0  0  0  0  0  0
  138.2088   77.5220  222.3796 H   0  0  0  0  0  0  0  0  0  0  0  0
  138.8208   80.0581  222.5952 H   0  0  0  0  0  0  0  0  0  0  0  0
  139.5469   78.7520  223.6917 H   0  0  0  0  0  0  0  0  0  0  0  0
  140.7780   80.5759  221.7905 H   0  0  0  0  0  0  0  0  0  0  0  0
  141.3290   79.7754  223.3850 H   0  0  0  0  0  0  0  0  0  0  0  0
  142.5872   79.3384  221.1940 H   0  0  0  0  0  0  0  0  0  0  0  0
  142.2235   78.0344  222.3851 H   0  0  0  0  0  0  0  0  0  0  0  0
  140.5831   78.6383  219.8692 H   0  0  0  0  0  0  0  0  0  0  0  0
  145.0483   75.3343  221.4957 H   0  0  0  0  0  0  0  0  0  0  0  0
  146.5309   73.4542  222.1240 H   0  0  0  0  0  0  0  0  0  0  0  0
  146.7156   71.4759  220.6034 H   0  0  0  0  0  0  0  0  0  0  0  0
  145.4017   71.4088  218.4624 H   0  0  0  0  0  0  0  0  0  0  0  0
  143.9519   73.3222  217.9153 H   0  0  0  0  0  0  0  0  0  0  0  0
  144.0798   75.7497  217.1083 H   0  0  0  0  0  0  0  0  0  0  0  0
  139.1798   70.3859  222.1376 H   0  0  0  0  0  0  0  0  0  0  0  0
  139.0216   68.5475  223.8357 H   0  0  0  0  0  0  0  0  0  0  0  0
  139.4443   67.7437  226.1356 H   0  0  0  0  0  0  0  0  0  0  0  0
  141.3249   70.4014  228.9518 H   0  0  0  0  0  0  0  0  0  0  0  0
  141.4539   72.1935  227.2081 H   0  0  0  0  0  0  0  0  0  0  0  0
  1  2  2  0
  2  3  1  0
  3  4  1  0
  4  5  1  0
  5  6  2  0
  5  7  1  0
  7  8  1  0
  8  9  1  0
  9 10  1  0
 10 11  1  0
 11 12  1  0
 12 13  1  0
 13 14  2  0
 14 15  1  0
 15 16  1  0
 16 17  2  0
 17 18  1  0
 18 19  2  0
 19 20  1  0
 20 21  2  0
 15 22  2  0
 22 23  1  0
  2 24  1  0
 24 25  2  0
 25 26  1  0
 26 27  2  0
 27 28  1  0
 28 29  2  0
 29 30  1  0
 29 31  1  0
 31 32  2  0
 32 33  1  0
 33 34  2  0
 12  7  1  0
 23 13  1  0
 34 24  1  0
 21 16  1  0
 33 27  1  0
  3 35  1  0
  4 36  1  0
  4 37  1  0
  8 38  1  0
  8 39  1  0
  9 40  1  0
  9 41  1  0
 10 42  1  0
 10 43  1  0
 11 44  1  0
 11 45  1  0
 12 46  1  6
 17 47  1  0
 18 48  1  0
 19 49  1  0
 20 50  1  0
 21 51  1  0
 22 52  1  0
 25 53  1  0
 26 54  1  0
 28 55  1  0
 31 56  1  0
 32 57  1  0
M  END
>  <smiles>  (11) 
O=C(NCC(=O)N1CCCC[C@H]1c1nc(-c2ccccc2)cs1)c1ccc2cc(F)ccc2n1

>  <score_type>  (11) 
oracle

>  <origin>  (11) 
autodockgpu

>  <m_score__min__energy>  (11) 
-10

>  <m_primary>  (11) 
energy

>  <rmsd>  (11) 
5.411696626227508

>  <m_score__min__rmsd>  (11) 
5.411696626227508

>  <meeko>  (11) 
{"free_energy": -10.0, "intermolecular_energy": -11.78, "internal_energy": -1.77, "cluster_size": 20, "cluster_id": 1, "rank_in_cluster": 2}

>  <energy>  (11) 
-9.36

>  <cluster_rmsd>  (11) 
0.92

>  <cluster>  (11) 
1

$$$$

     RDKit          3D

 57 61  0  0  0  0  0  0  0  0999 V2000
  139.7070   74.4900  222.1200 O   0  0  0  0  0  0  0  0  0  0  0  0
  140.8630   74.7320  221.6540 C   0  0  0  0  0  0  0  0  0  0  0  0
  141.2370   76.1340  221.7180 N   0  0  0  0  0  0  0  0  0  0  0  0
  140.2630   77.0150  222.2790 C   0  0  0  0  0  0  0  0  0  0  0  0
  139.9420   78.2700  221.6440 C   0  0  0  0  0  0  0  0  0  0  0  0
  139.1080   78.1340  220.6330 O   0  0  0  0  0  0  0  0  0  0  0  0
  140.3250   79.5840  221.8800 N   0  0  0  0  0  0  0  0  0  0  0  0
  139.7570   80.5200  222.8620 C   0  0  0  0  0  0  0  0  0  0  0  0
  140.8050   80.9230  223.8540 C   0  0  0  0  0  0  0  0  0  0  0  0
  142.1990   81.0040  223.3580 C   0  0  0  0  0  0  0  0  0  0  0  0
  142.5700   80.2230  222.1490 C   0  0  0  0  0  0  0  0  0  0  0  0
  141.4600   80.2350  221.1650 C   0  0  1  0  0  0  0  0  0  0  0  0
  141.8540   79.4930  219.9480 C   0  0  0  0  0  0  0  0  0  0  0  0
  141.9660   78.3680  219.5970 N   0  0  0  0  0  0  0  0  0  0  0  0
  142.3890   77.8710  218.4620 C   0  0  0  0  0  0  0  0  0  0  0  0
  142.4990   76.4620  218.1020 C   0  0  0  0  0  0  0  0  0  0  0  0
  141.3930   75.6310  218.1770 C   0  0  0  0  0  0  0  0  0  0  0  0
  141.4650   74.2920  217.8440 C   0  0  0  0  0  0  0  0  0  0  0  0
  142.6890   73.7670  217.4200 C   0  0  0  0  0  0  0  0  0  0  0  0
  143.8190   74.5820  217.3350 C   0  0  0  0  0  0  0  0  0  0  0  0
  143.6720   75.9040  217.6830 C   0  0  0  0  0  0  0  0  0  0  0  0
  142.7570   78.8930  217.5450 C   0  0  0  0  0  0  0  0  0  0  0  0
  142.4390   80.4580  218.4580 S   0  0  0  0  0  0  0  0  0  0  0  0
  141.7400   73.7270  221.1070 C   0  0  0  0  0  0  0  0  0  0  0  0
  141.1940   72.5000  220.7910 C   0  0  0  0  0  0  0  0  0  0  0  0
  142.0550   71.5400  220.2640 C   0  0  0  0  0  0  0  0  0  0  0  0
  143.4090   71.8130  220.0660 C   0  0  0  0  0  0  0  0  0  0  0  0
  144.2850   70.8960  219.5510 C   0  0  0  0  0  0  0  0  0  0  0  0
  145.6190   71.2330  219.3810 C   0  0  0  0  0  0  0  0  0  0  0  0
  146.5280   70.3500  218.8710 F   0  0  0  0  0  0  0  0  0  0  0  0
  146.0650   72.5020  219.7350 C   0  0  0  0  0  0  0  0  0  0  0  0
  145.1970   73.4460  220.2580 C   0  0  0  0  0  0  0  0  0  0  0  0
  143.8830   73.0600  220.4060 C   0  0  0  0  0  0  0  0  0  0  0  0
  143.0390   73.9860  220.9170 N   0  0  0  0  0  0  0  0  0  0  0  0
  142.1750   76.4160  221.3580 H   0  0  0  0  0  0  0  0  0  0  0  0
  139.3238   76.4455  222.3384 H   0  0  0  0  0  0  0  0  0  0  0  0
  140.7384   77.3341  223.2182 H   0  0  0  0  0  0  0  0  0  0  0  0
  139.3866   81.4147  222.3401 H   0  0  0  0  0  0  0  0  0  0  0  0
  138.9291   80.0271  223.3926 H   0  0  0  0  0  0  0  0  0  0  0  0
  140.5317   81.9153  224.2421 H   0  0  0  0  0  0  0  0  0  0  0  0
  140.8134   80.1201  224.6058 H   0  0  0  0  0  0  0  0  0  0  0  0
  142.4034   82.0618  223.1361 H   0  0  0  0  0  0  0  0  0  0  0  0
  142.7971   80.5524  224.1632 H   0  0  0  0  0  0  0  0  0  0  0  0
  143.4655   80.6680  221.6907 H   0  0  0  0  0  0  0  0  0  0  0  0
  142.7737   79.1832  222.4445 H   0  0  0  0  0  0  0  0  0  0  0  0
  141.1895   81.2451  220.8236 H   0  0  0  0  0  0  0  0  0  0  0  0
  140.4316   76.0485  218.5107 H   0  0  0  0  0  0  0  0  0  0  0  0
  140.5742   73.6501  217.9114 H   0  0  0  0  0  0  0  0  0  0  0  0
  142.7624   72.7029  217.1511 H   0  0  0  0  0  0  0  0  0  0  0  0
  144.7886   74.1825  217.0028 H   0  0  0  0  0  0  0  0  0  0  0  0
  144.5571   76.5541  217.6196 H   0  0  0  0  0  0  0  0  0  0  0  0
  143.1439   78.7749  216.5221 H   0  0  0  0  0  0  0  0  0  0  0  0
  140.1259   72.2891  220.9483 H   0  0  0  0  0  0  0  0  0  0  0  0
  141.6601   70.5481  219.9990 H   0  0  0  0  0  0  0  0  0  0  0  0
  143.9309   69.8926  219.2722 H   0  0  0  0  0  0  0  0  0  0  0  0
  147.1253   72.7603  219.5972 H   0  0  0  0  0  0  0  0  0  0  0  0
  145.5393   74.4524  220.5407 H   0  0  0  0  0  0  0  0  0  0  0  0
  1  2  2  0
  2  3  1  0
  3  4  1  0
  4  5  1  0
  5  6  2  0
  5  7  1  0
  7  8  1  0
  8  9  1  0
  9 10  1  0
 10 11  1  0
 11 12  1  0
 12 13  1  0
 13 14  2  0
 14 15  1  0
 15 16  1  0
 16 17  2  0
 17 18  1  0
 18 19  2  0
 19 20  1  0
 20 21  2  0
 15 22  2  0
 22 23  1  0
  2 24  1  0
 24 25  2  0
 25 26  1  0
 26 27  2  0
 27 28  1  0
 28 29  2  0
 29 30  1  0
 29 31  1  0
 31 32  2  0
 32 33  1  0
 33 34  2  0
 12  7  1  0
 23 13  1  0
 34 24  1  0
 21 16  1  0
 33 27  1  0
  3 35  1  0
  4 36  1  0
  4 37  1  0
  8 38  1  0
  8 39  1  0
  9 40  1  0
  9 41  1  0
 10 42  1  0
 10 43  1  0
 11 44  1  0
 11 45  1  0
 12 46  1  6
 17 47  1  0
 18 48  1  0
 19 49  1  0
 20 50  1  0
 21 51  1  0
 22 52  1  0
 25 53  1  0
 26 54  1  0
 28 55  1  0
 31 56  1  0
 32 57  1  0
M  END
>  <smiles>  (12) 
O=C(NCC(=O)N1CCCC[C@H]1c1nc(-c2ccccc2)cs1)c1ccc2cc(F)ccc2n1

>  <score_type>  (12) 
oracle

>  <origin>  (12) 
autodockgpu

>  <m_score__min__energy>  (12) 
-10

>  <m_primary>  (12) 
energy

>  <rmsd>  (12) 
6.929180487458014

>  <m_score__min__rmsd>  (12) 
6.929180487458014

>  <meeko>  (12) 
{"free_energy": -7.29, "intermolecular_energy": -9.08, "internal_energy": -3.61, "cluster_size": 15, "cluster_id": 7, "rank_in_cluster": 1}

>  <energy>  (12) 
-9.35

>  <cluster_rmsd>  (12) 
0.91

>  <cluster>  (12) 
1

$$$$

     RDKit          3D

 57 61  0  0  0  0  0  0  0  0999 V2000
  139.5740   74.6440  222.2090 O   0  0  0  0  0  0  0  0  0  0  0  0
  140.6790   74.9390  221.6570 C   0  0  0  0  0  0  0  0  0  0  0  0
  140.9040   76.3690  221.5290 N   0  0  0  0  0  0  0  0  0  0  0  0
  139.8650   77.2120  222.0280 C   0  0  0  0  0  0  0  0  0  0  0  0
  139.6820   78.5480  221.5160 C   0  0  0  0  0  0  0  0  0  0  0  0
  138.7620   78.6150  220.5750 O   0  0  0  0  0  0  0  0  0  0  0  0
  140.2690   79.7720  221.8120 N   0  0  0  0  0  0  0  0  0  0  0  0
  139.8230   80.7620  222.8030 C   0  0  0  0  0  0  0  0  0  0  0  0
  140.8790   80.9560  223.8480 C   0  0  0  0  0  0  0  0  0  0  0  0
  142.2870   80.8140  223.4100 C   0  0  0  0  0  0  0  0  0  0  0  0
  142.5750   80.0150  222.1900 C   0  0  0  0  0  0  0  0  0  0  0  0
  141.5270   80.2410  221.1650 C   0  0  1  0  0  0  0  0  0  0  0  0
  141.8440   79.4770  219.9380 C   0  0  0  0  0  0  0  0  0  0  0  0
  141.9590   78.3480  219.6070 N   0  0  0  0  0  0  0  0  0  0  0  0
  142.3050   77.8310  218.4540 C   0  0  0  0  0  0  0  0  0  0  0  0
  142.4250   76.4160  218.1210 C   0  0  0  0  0  0  0  0  0  0  0  0
  141.3190   75.5840  218.1900 C   0  0  0  0  0  0  0  0  0  0  0  0
  141.4000   74.2400  217.8810 C   0  0  0  0  0  0  0  0  0  0  0  0
  142.6320   73.7110  217.4890 C   0  0  0  0  0  0  0  0  0  0  0  0
  143.7620   74.5270  217.4120 C   0  0  0  0  0  0  0  0  0  0  0  0
  143.6060   75.8540  217.7340 C   0  0  0  0  0  0  0  0  0  0  0  0
  142.5730   78.8380  217.4870 C   0  0  0  0  0  0  0  0  0  0  0  0
  142.2850   80.4180  218.3850 S   0  0  0  0  0  0  0  0  0  0  0  0
  141.6360   73.9650  221.1940 C   0  0  0  0  0  0  0  0  0  0  0  0
  141.1850   72.6830  220.9560 C   0  0  0  0  0  0  0  0  0  0  0  0
  142.1220   71.7550  220.5080 C   0  0  0  0  0  0  0  0  0  0  0  0
  143.4570   72.1120  220.3100 C   0  0  0  0  0  0  0  0  0  0  0  0
  144.4060   71.2280  219.8720 C   0  0  0  0  0  0  0  0  0  0  0  0
  145.7150   71.6490  219.6970 C   0  0  0  0  0  0  0  0  0  0  0  0
  146.6940   70.8020  219.2620 F   0  0  0  0  0  0  0  0  0  0  0  0
  146.0620   72.9680  219.9680 C   0  0  0  0  0  0  0  0  0  0  0  0
  145.1190   73.8790  220.4130 C   0  0  0  0  0  0  0  0  0  0  0  0
  143.8340   73.4100  220.5690 C   0  0  0  0  0  0  0  0  0  0  0  0
  142.9160   74.3050  221.0040 N   0  0  0  0  0  0  0  0  0  0  0  0
  141.7930   76.6950  221.0890 H   0  0  0  0  0  0  0  0  0  0  0  0
  138.9189   76.6783  221.8546 H   0  0  0  0  0  0  0  0  0  0  0  0
  140.1777   77.3919  223.0672 H   0  0  0  0  0  0  0  0  0  0  0  0
  139.6299   81.7203  222.2985 H   0  0  0  0  0  0  0  0  0  0  0  0
  138.9024   80.4003  223.2842 H   0  0  0  0  0  0  0  0  0  0  0  0
  140.7588   81.9695  224.2582 H   0  0  0  0  0  0  0  0  0  0  0  0
  140.7197   80.1434  224.5721 H   0  0  0  0  0  0  0  0  0  0  0  0
  142.6754   81.8278  223.2330 H   0  0  0  0  0  0  0  0  0  0  0  0
  142.7647   80.2459  224.2219 H   0  0  0  0  0  0  0  0  0  0  0  0
  143.5516   80.3151  221.7823 H   0  0  0  0  0  0  0  0  0  0  0  0
  142.5889   78.9480  222.4571 H   0  0  0  0  0  0  0  0  0  0  0  0
  141.4451   81.2914  220.8488 H   0  0  0  0  0  0  0  0  0  0  0  0
  140.3508   76.0049  218.4990 H   0  0  0  0  0  0  0  0  0  0  0  0
  140.5094   73.5973  217.9426 H   0  0  0  0  0  0  0  0  0  0  0  0
  142.7124   72.6428  217.2390 H   0  0  0  0  0  0  0  0  0  0  0  0
  144.7386   74.1239  217.1058 H   0  0  0  0  0  0  0  0  0  0  0  0
  144.4908   76.5049  217.6758 H   0  0  0  0  0  0  0  0  0  0  0  0
  142.8822   78.7033  216.4400 H   0  0  0  0  0  0  0  0  0  0  0  0
  140.1321   72.4061  221.1131 H   0  0  0  0  0  0  0  0  0  0  0  0
  141.8041   70.7214  220.3064 H   0  0  0  0  0  0  0  0  0  0  0  0
  144.1301   70.1847  219.6591 H   0  0  0  0  0  0  0  0  0  0  0  0
  147.1033   73.2932  219.8265 H   0  0  0  0  0  0  0  0  0  0  0  0
  145.3831   74.9244  220.6308 H   0  0  0  0  0  0  0  0  0  0  0  0
  1  2  2  0
  2  3  1  0
  3  4  1  0
  4  5  1  0
  5  6  2  0
  5  7  1  0
  7  8  1  0
  8  9  1  0
  9 10  1  0
 10 11  1  0
 11 12  1  0
 12 13  1  0
 13 14  2  0
 14 15  1  0
 15 16  1  0
 16 17  2  0
 17 18  1  0
 18 19  2  0
 19 20  1  0
 20 21  2  0
 15 22  2  0
 22 23  1  0
  2 24  1  0
 24 25  2  0
 25 26  1  0
 26 27  2  0
 27 28  1  0
 28 29  2  0
 29 30  1  0
 29 31  1  0
 31 32  2  0
 32 33  1  0
 33 34  2  0
 12  7  1  0
 23 13  1  0
 34 24  1  0
 21 16  1  0
 33 27  1  0
  3 35  1  0
  4 36  1  0
  4 37  1  0
  8 38  1  0
  8 39  1  0
  9 40  1  0
  9 41  1  0
 10 42  1  0
 10 43  1  0
 11 44  1  0
 11 45  1  0
 12 46  1  6
 17 47  1  0
 18 48  1  0
 19 49  1  0
 20 50  1  0
 21 51  1  0
 22 52  1  0
 25 53  1  0
 26 54  1  0
 28 55  1  0
 31 56  1  0
 32 57  1  0
M  END
>  <smiles>  (13) 
O=C(NCC(=O)N1CCCC[C@H]1c1nc(-c2ccccc2)cs1)c1ccc2cc(F)ccc2n1

>  <score_type>  (13) 
oracle

>  <origin>  (13) 
autodockgpu

>  <m_score__min__energy>  (13) 
-10

>  <m_primary>  (13) 
energy

>  <rmsd>  (13) 
6.92949397738213

>  <m_score__min__rmsd>  (13) 
6.92949397738213

>  <meeko>  (13) 
{"free_energy": -7.13, "intermolecular_energy": -8.92, "internal_energy": -4.09, "cluster_size": 15, "cluster_id": 7, "rank_in_cluster": 7}

>  <energy>  (13) 
-9.34

>  <cluster_rmsd>  (13) 
0.92

>  <cluster>  (13) 
1

$$$$

     RDKit          3D

 57 61  0  0  0  0  0  0  0  0999 V2000
  139.1980   75.2760  222.1850 O   0  0  0  0  0  0  0  0  0  0  0  0
  140.3940   75.5490  221.8570 C   0  0  0  0  0  0  0  0  0  0  0  0
  140.7000   76.9690  221.8900 N   0  0  0  0  0  0  0  0  0  0  0  0
  139.6270   77.8290  222.2730 C   0  0  0  0  0  0  0  0  0  0  0  0
  139.6890   79.2500  222.0250 C   0  0  0  0  0  0  0  0  0  0  0  0
  138.5920   79.7200  221.4670 O   0  0  0  0  0  0  0  0  0  0  0  0
  140.6580   80.2170  222.2570 N   0  0  0  0  0  0  0  0  0  0  0  0
  140.6590   81.2510  223.3030 C   0  0  0  0  0  0  0  0  0  0  0  0
  141.8330   81.0610  224.2130 C   0  0  0  0  0  0  0  0  0  0  0  0
  143.0680   80.5110  223.6060 C   0  0  0  0  0  0  0  0  0  0  0  0
  142.9520   79.7180  222.3540 C   0  0  0  0  0  0  0  0  0  0  0  0
  141.9180   80.3030  221.4650 C   0  0  1  0  0  0  0  0  0  0  0  0
  141.8400   79.5350  220.2040 C   0  0  0  0  0  0  0  0  0  0  0  0
  142.0220   78.4270  219.8320 N   0  0  0  0  0  0  0  0  0  0  0  0
  141.9530   77.9110  218.6300 C   0  0  0  0  0  0  0  0  0  0  0  0
  142.1930   76.5240  218.2490 C   0  0  0  0  0  0  0  0  0  0  0  0
  143.4370   76.1320  217.7800 C   0  0  0  0  0  0  0  0  0  0  0  0
  143.6960   74.8260  217.4110 C   0  0  0  0  0  0  0  0  0  0  0  0
  142.6740   73.8790  217.5180 C   0  0  0  0  0  0  0  0  0  0  0  0
  141.4120   74.2470  217.9880 C   0  0  0  0  0  0  0  0  0  0  0  0
  141.2280   75.5650  218.3360 C   0  0  0  0  0  0  0  0  0  0  0  0
  141.5980   78.8870  217.6590 C   0  0  0  0  0  0  0  0  0  0  0  0
  141.4090   80.4410  218.6270 S   0  0  0  0  0  0  0  0  0  0  0  0
  141.3740   74.5590  221.4840 C   0  0  0  0  0  0  0  0  0  0  0  0
  140.9830   73.2360  221.4770 C   0  0  0  0  0  0  0  0  0  0  0  0
  141.9420   72.2940  221.1130 C   0  0  0  0  0  0  0  0  0  0  0  0
  143.2400   72.6770  220.7720 C   0  0  0  0  0  0  0  0  0  0  0  0
  144.2090   71.7800  220.4100 C   0  0  0  0  0  0  0  0  0  0  0  0
  145.4790   72.2280  220.0840 C   0  0  0  0  0  0  0  0  0  0  0  0
  146.4760   71.3700  219.7170 F   0  0  0  0  0  0  0  0  0  0  0  0
  145.7670   73.5880  220.1250 C   0  0  0  0  0  0  0  0  0  0  0  0
  144.8030   74.5140  220.4880 C   0  0  0  0  0  0  0  0  0  0  0  0
  143.5580   74.0150  220.8030 C   0  0  0  0  0  0  0  0  0  0  0  0
  142.6200   74.9240  221.1560 N   0  0  0  0  0  0  0  0  0  0  0  0
  141.6650   77.2760  221.6370 H   0  0  0  0  0  0  0  0  0  0  0  0
  138.7298   77.4598  221.7546 H   0  0  0  0  0  0  0  0  0  0  0  0
  139.6523   77.7735  223.3713 H   0  0  0  0  0  0  0  0  0  0  0  0
  140.7197   82.2438  222.8332 H   0  0  0  0  0  0  0  0  0  0  0  0
  139.7319   81.1707  223.8896 H   0  0  0  0  0  0  0  0  0  0  0  0
  142.0824   82.0421  224.6434 H   0  0  0  0  0  0  0  0  0  0  0  0
  141.5106   80.3048  224.9439 H   0  0  0  0  0  0  0  0  0  0  0  0
  143.7306   81.3622  223.3907 H   0  0  0  0  0  0  0  0  0  0  0  0
  143.4336   79.7874  224.3495 H   0  0  0  0  0  0  0  0  0  0  0  0
  143.9208   79.7194  221.8330 H   0  0  0  0  0  0  0  0  0  0  0  0
  142.6617   78.6882  222.6095 H   0  0  0  0  0  0  0  0  0  0  0  0
  142.1328   81.3403  221.1686 H   0  0  0  0  0  0  0  0  0  0  0  0
  144.2391   76.8804  217.6995 H   0  0  0  0  0  0  0  0  0  0  0  0
  144.6900   74.5365  217.0392 H   0  0  0  0  0  0  0  0  0  0  0  0
  142.8655   72.8349  217.2295 H   0  0  0  0  0  0  0  0  0  0  0  0
  140.5978   73.5127  218.0765 H   0  0  0  0  0  0  0  0  0  0  0  0
  140.2375   75.8648  218.7089 H   0  0  0  0  0  0  0  0  0  0  0  0
  141.4663   78.7456  216.5761 H   0  0  0  0  0  0  0  0  0  0  0  0
  139.9590   72.9383  221.7470 H   0  0  0  0  0  0  0  0  0  0  0  0
  141.6713   71.2280  221.0939 H   0  0  0  0  0  0  0  0  0  0  0  0
  143.9795   70.7047  220.3780 H   0  0  0  0  0  0  0  0  0  0  0  0
  146.7781   73.9343  219.8646 H   0  0  0  0  0  0  0  0  0  0  0  0
  145.0201   75.5918  220.5230 H   0  0  0  0  0  0  0  0  0  0  0  0
  1  2  2  0
  2  3  1  0
  3  4  1  0
  4  5  1  0
  5  6  2  0
  5  7  1  0
  7  8  1  0
  8  9  1  0
  9 10  1  0
 10 11  1  0
 11 12  1  0
 12 13  1  0
 13 14  2  0
 14 15  1  0
 15 16  1  0
 16 17  2  0
 17 18  1  0
 18 19  2  0
 19 20  1  0
 20 21  2  0
 15 22  2  0
 22 23  1  0
  2 24  1  0
 24 25  2  0
 25 26  1  0
 26 27  2  0
 27 28  1  0
 28 29  2  0
 29 30  1  0
 29 31  1  0
 31 32  2  0
 32 33  1  0
 33 34  2  0
 12  7  1  0
 23 13  1  0
 34 24  1  0
 21 16  1  0
 33 27  1  0
  3 35  1  0
  4 36  1  0
  4 37  1  0
  8 38  1  0
  8 39  1  0
  9 40  1  0
  9 41  1  0
 10 42  1  0
 10 43  1  0
 11 44  1  0
 11 45  1  0
 12 46  1  6
 17 47  1  0
 18 48  1  0
 19 49  1  0
 20 50  1  0
 21 51  1  0
 22 52  1  0
 25 53  1  0
 26 54  1  0
 28 55  1  0
 31 56  1  0
 32 57  1  0
M  END
>  <smiles>  (14) 
O=C(NCC(=O)N1CCCC[C@H]1c1nc(-c2ccccc2)cs1)c1ccc2cc(F)ccc2n1

>  <score_type>  (14) 
oracle

>  <origin>  (14) 
autodockgpu

>  <m_score__min__energy>  (14) 
-10

>  <m_primary>  (14) 
energy

>  <rmsd>  (14) 
7.076965894801578

>  <m_score__min__rmsd>  (14) 
7.076965894801578

>  <meeko>  (14) 
{"free_energy": -6.81, "intermolecular_energy": -8.6, "internal_energy": -4.36, "cluster_size": 15, "cluster_id": 7, "rank_in_cluster": 13}

>  <energy>  (14) 
-9.3

>  <cluster_rmsd>  (14) 
0.75

>  <cluster>  (14) 
1

$$$$

     RDKit          3D

 57 61  0  0  0  0  0  0  0  0999 V2000
  139.6940   75.7310  222.4650 O   0  0  0  0  0  0  0  0  0  0  0  0
  140.3370   75.6620  221.3720 C   0  0  0  0  0  0  0  0  0  0  0  0
  139.9720   76.6900  220.4130 N   0  0  0  0  0  0  0  0  0  0  0  0
  138.9590   77.6050  220.8340 C   0  0  0  0  0  0  0  0  0  0  0  0
  139.2060   79.0260  220.8600 C   0  0  0  0  0  0  0  0  0  0  0  0
  138.3670   79.7060  220.1030 O   0  0  0  0  0  0  0  0  0  0  0  0
  140.1350   79.8210  221.5180 N   0  0  0  0  0  0  0  0  0  0  0  0
  139.8930   80.7430  222.6380 C   0  0  0  0  0  0  0  0  0  0  0  0
  140.6690   80.3050  223.8410 C   0  0  0  0  0  0  0  0  0  0  0  0
  141.9720   79.6450  223.5930 C   0  0  0  0  0  0  0  0  0  0  0  0
  142.2010   78.9960  222.2750 C   0  0  0  0  0  0  0  0  0  0  0  0
  141.5900   79.8010  221.1900 C   0  0  1  0  0  0  0  0  0  0  0  0
  141.8590   79.1730  219.8780 C   0  0  0  0  0  0  0  0  0  0  0  0
  142.0880   78.0960  219.4450 N   0  0  0  0  0  0  0  0  0  0  0  0
  142.3610   77.7110  218.2240 C   0  0  0  0  0  0  0  0  0  0  0  0
  142.6330   76.3540  217.7660 C   0  0  0  0  0  0  0  0  0  0  0  0
  143.8760   76.0240  217.2500 C   0  0  0  0  0  0  0  0  0  0  0  0
  144.1640   74.7470  216.8080 C   0  0  0  0  0  0  0  0  0  0  0  0
  143.1720   73.7650  216.8870 C   0  0  0  0  0  0  0  0  0  0  0  0
  141.9120   74.0710  217.4040 C   0  0  0  0  0  0  0  0  0  0  0  0
  141.6970   75.3630  217.8230 C   0  0  0  0  0  0  0  0  0  0  0  0
  142.3700   78.8070  217.3180 C   0  0  0  0  0  0  0  0  0  0  0  0
  141.9780   80.2660  218.3670 S   0  0  0  0  0  0  0  0  0  0  0  0
  141.3380   74.6650  221.0870 C   0  0  0  0  0  0  0  0  0  0  0  0
  140.9420   73.3440  221.0580 C   0  0  0  0  0  0  0  0  0  0  0  0
  141.9220   72.3940  220.7810 C   0  0  0  0  0  0  0  0  0  0  0  0
  143.2450   72.7680  220.5430 C   0  0  0  0  0  0  0  0  0  0  0  0
  144.2360   71.8630  220.2670 C   0  0  0  0  0  0  0  0  0  0  0  0
  145.5300   72.3030  220.0420 C   0  0  0  0  0  0  0  0  0  0  0  0
  146.5500   71.4370  219.7640 F   0  0  0  0  0  0  0  0  0  0  0  0
  145.8220   73.6620  220.0950 C   0  0  0  0  0  0  0  0  0  0  0  0
  144.8360   74.5950  220.3720 C   0  0  0  0  0  0  0  0  0  0  0  0
  143.5680   74.1050  220.5890 C   0  0  0  0  0  0  0  0  0  0  0  0
  142.6080   75.0210  220.8590 N   0  0  0  0  0  0  0  0  0  0  0  0
  140.4580   76.7050  219.4890 H   0  0  0  0  0  0  0  0  0  0  0  0
  138.0993   77.4491  220.1656 H   0  0  0  0  0  0  0  0  0  0  0  0
  138.8399   77.3605  221.8998 H   0  0  0  0  0  0  0  0  0  0  0  0
  140.2094   81.7564  222.3500 H   0  0  0  0  0  0  0  0  0  0  0  0
  138.8202   80.7410  222.8810 H   0  0  0  0  0  0  0  0  0  0  0  0
  140.8597   81.1966  224.4564 H   0  0  0  0  0  0  0  0  0  0  0  0
  140.0449   79.5371  224.3215 H   0  0  0  0  0  0  0  0  0  0  0  0
  142.7522   80.4103  223.7176 H   0  0  0  0  0  0  0  0  0  0  0  0
  141.9912   78.8109  224.3099 H   0  0  0  0  0  0  0  0  0  0  0  0
  143.2830   78.9092  222.0967 H   0  0  0  0  0  0  0  0  0  0  0  0
  141.7383   77.9981  222.2832 H   0  0  0  0  0  0  0  0  0  0  0  0
  141.9976   80.8204  221.1209 H   0  0  0  0  0  0  0  0  0  0  0  0
  144.6541   76.7993  217.1907 H   0  0  0  0  0  0  0  0  0  0  0  0
  145.1572   74.5070  216.4007 H   0  0  0  0  0  0  0  0  0  0  0  0
  143.3860   72.7436  216.5391 H   0  0  0  0  0  0  0  0  0  0  0  0
  141.1221   73.3086  217.4735 H   0  0  0  0  0  0  0  0  0  0  0  0
  140.7065   75.6137  218.2304 H   0  0  0  0  0  0  0  0  0  0  0  0
  142.5667   78.7868  216.2359 H   0  0  0  0  0  0  0  0  0  0  0  0
  139.8977   73.0536  221.2455 H   0  0  0  0  0  0  0  0  0  0  0  0
  141.6480   71.3291  220.7493 H   0  0  0  0  0  0  0  0  0  0  0  0
  144.0043   70.7885  220.2241 H   0  0  0  0  0  0  0  0  0  0  0  0
  146.8526   74.0014  219.9140 H   0  0  0  0  0  0  0  0  0  0  0  0
  145.0551   75.6720  220.4162 H   0  0  0  0  0  0  0  0  0  0  0  0
  1  2  2  0
  2  3  1  0
  3  4  1  0
  4  5  1  0
  5  6  2  0
  5  7  1  0
  7  8  1  0
  8  9  1  0
  9 10  1  0
 10 11  1  0
 11 12  1  0
 12 13  1  0
 13 14  2  0
 14 15  1  0
 15 16  1  0
 16 17  2  0
 17 18  1  0
 18 19  2  0
 19 20  1  0
 20 21  2  0
 15 22  2  0
 22 23  1  0
  2 24  1  0
 24 25  2  0
 25 26  1  0
 26 27  2  0
 27 28  1  0
 28 29  2  0
 29 30  1  0
 29 31  1  0
 31 32  2  0
 32 33  1  0
 33 34  2  0
 12  7  1  0
 23 13  1  0
 34 24  1  0
 21 16  1  0
 33 27  1  0
  3 35  1  0
  4 36  1  0
  4 37  1  0
  8 38  1  0
  8 39  1  0
  9 40  1  0
  9 41  1  0
 10 42  1  0
 10 43  1  0
 11 44  1  0
 11 45  1  0
 12 46  1  6
 17 47  1  0
 18 48  1  0
 19 49  1  0
 20 50  1  0
 21 51  1  0
 22 52  1  0
 25 53  1  0
 26 54  1  0
 28 55  1  0
 31 56  1  0
 32 57  1  0
M  END
>  <smiles>  (15) 
O=C(NCC(=O)N1CCCC[C@H]1c1nc(-c2ccccc2)cs1)c1ccc2cc(F)ccc2n1

>  <score_type>  (15) 
oracle

>  <origin>  (15) 
autodockgpu

>  <m_score__min__energy>  (15) 
-10

>  <m_primary>  (15) 
energy

>  <rmsd>  (15) 
7.064565087884239

>  <m_score__min__rmsd>  (15) 
7.064565087884239

>  <meeko>  (15) 
{"free_energy": -6.4, "intermolecular_energy": -8.19, "internal_energy": -4.44, "cluster_size": 15, "cluster_id": 7, "rank_in_cluster": 15}

>  <energy>  (15) 
-9.18

>  <cluster_rmsd>  (15) 
0.93

>  <cluster>  (15) 
1

$$$$

     RDKit          3D

 57 61  0  0  0  0  0  0  0  0999 V2000
  136.5340   77.2840  223.0210 O   0  0  0  0  0  0  0  0  0  0  0  0
  136.7000   76.0510  223.2740 C   0  0  0  0  0  0  0  0  0  0  0  0
  137.8750   75.4770  222.6410 N   0  0  0  0  0  0  0  0  0  0  0  0
  138.6490   76.3690  221.8380 C   0  0  0  0  0  0  0  0  0  0  0  0
  140.0580   76.1420  221.6220 C   0  0  0  0  0  0  0  0  0  0  0  0
  140.7970   76.4930  222.6550 O   0  0  0  0  0  0  0  0  0  0  0  0
  140.7890   75.6280  220.5590 N   0  0  0  0  0  0  0  0  0  0  0  0
  141.3550   76.3670  219.4210 C   0  0  0  0  0  0  0  0  0  0  0  0
  142.8470   76.2390  219.4150 C   0  0  0  0  0  0  0  0  0  0  0  0
  143.4110   74.9670  219.9250 C   0  0  0  0  0  0  0  0  0  0  0  0
  142.5900   74.1490  220.8560 C   0  0  0  0  0  0  0  0  0  0  0  0
  141.1620   74.1880  220.4570 C   0  0  1  0  0  0  0  0  0  0  0  0
  140.3590   73.3370  221.3610 C   0  0  0  0  0  0  0  0  0  0  0  0
  140.4820   72.7980  222.4080 N   0  0  0  0  0  0  0  0  0  0  0  0
  139.6610   72.0150  223.0620 C   0  0  0  0  0  0  0  0  0  0  0  0
  139.8870   71.3850  224.3580 C   0  0  0  0  0  0  0  0  0  0  0  0
  140.8450   71.8880  225.2240 C   0  0  0  0  0  0  0  0  0  0  0  0
  141.0830   71.3140  226.4570 C   0  0  0  0  0  0  0  0  0  0  0  0
  140.3340   70.1970  226.8380 C   0  0  0  0  0  0  0  0  0  0  0  0
  139.3620   69.6710  225.9850 C   0  0  0  0  0  0  0  0  0  0  0  0
  139.1810   70.2940  224.7730 C   0  0  0  0  0  0  0  0  0  0  0  0
  138.4460   71.8170  222.3520 C   0  0  0  0  0  0  0  0  0  0  0  0
  138.6540   72.8030  220.8130 S   0  0  0  0  0  0  0  0  0  0  0  0
  135.8190   75.2720  224.1090 C   0  0  0  0  0  0  0  0  0  0  0  0
  134.9730   75.9520  224.9610 C   0  0  0  0  0  0  0  0  0  0  0  0
  134.1290   75.1840  225.7600 C   0  0  0  0  0  0  0  0  0  0  0  0
  134.1420   73.7900  225.6970 C   0  0  0  0  0  0  0  0  0  0  0  0
  133.3270   73.0030  226.4670 C   0  0  0  0  0  0  0  0  0  0  0  0
  133.3920   71.6230  226.3540 C   0  0  0  0  0  0  0  0  0  0  0  0
  132.6000   70.8000  227.1020 F   0  0  0  0  0  0  0  0  0  0  0  0
  134.2850   71.0410  225.4610 C   0  0  0  0  0  0  0  0  0  0  0  0
  135.1190   71.8170  224.6730 C   0  0  0  0  0  0  0  0  0  0  0  0
  135.0140   73.1820  224.8240 C   0  0  0  0  0  0  0  0  0  0  0  0
  135.8300   73.9350  224.0510 N   0  0  0  0  0  0  0  0  0  0  0  0
  138.0850   74.4680  222.8040 H   0  0  0  0  0  0  0  0  0  0  0  0
  138.1785   76.3831  220.8438 H   0  0  0  0  0  0  0  0  0  0  0  0
  138.6413   77.2961  222.4300 H   0  0  0  0  0  0  0  0  0  0  0  0
  140.9509   75.9569  218.4837 H   0  0  0  0  0  0  0  0  0  0  0  0
  141.0852   77.4295  219.5117 H   0  0  0  0  0  0  0  0  0  0  0  0
  143.1872   76.3609  218.3760 H   0  0  0  0  0  0  0  0  0  0  0  0
  143.2048   77.0119  220.1112 H   0  0  0  0  0  0  0  0  0  0  0  0
  143.6347   74.3376  219.0510 H   0  0  0  0  0  0  0  0  0  0  0  0
  144.2741   75.2794  220.5312 H   0  0  0  0  0  0  0  0  0  0  0  0
  142.9445   73.1080  220.8326 H   0  0  0  0  0  0  0  0  0  0  0  0
  142.6878   74.5590  221.8720 H   0  0  0  0  0  0  0  0  0  0  0  0
  140.9810   73.7994  219.4440 H   0  0  0  0  0  0  0  0  0  0  0  0
  141.4314   72.7680  224.9210 H   0  0  0  0  0  0  0  0  0  0  0  0
  141.8493   71.7288  227.1283 H   0  0  0  0  0  0  0  0  0  0  0  0
  140.5118   69.7288  227.8174 H   0  0  0  0  0  0  0  0  0  0  0  0
  138.7646   68.7928  226.2714 H   0  0  0  0  0  0  0  0  0  0  0  0
  138.4176   69.8864  224.0940 H   0  0  0  0  0  0  0  0  0  0  0  0
  137.5785   71.2118  222.6540 H   0  0  0  0  0  0  0  0  0  0  0  0
  134.9654   77.0510  225.0072 H   0  0  0  0  0  0  0  0  0  0  0  0
  133.4389   75.6861  226.4540 H   0  0  0  0  0  0  0  0  0  0  0  0
  132.6222   73.4653  227.1737 H   0  0  0  0  0  0  0  0  0  0  0  0
  134.3299   69.9450  225.3789 H   0  0  0  0  0  0  0  0  0  0  0  0
  135.8285   71.3664  223.9633 H   0  0  0  0  0  0  0  0  0  0  0  0
  1  2  2  0
  2  3  1  0
  3  4  1  0
  4  5  1  0
  5  6  2  0
  5  7  1  0
  7  8  1  0
  8  9  1  0
  9 10  1  0
 10 11  1  0
 11 12  1  0
 12 13  1  0
 13 14  2  0
 14 15  1  0
 15 16  1  0
 16 17  2  0
 17 18  1  0
 18 19  2  0
 19 20  1  0
 20 21  2  0
 15 22  2  0
 22 23  1  0
  2 24  1  0
 24 25  2  0
 25 26  1  0
 26 27  2  0
 27 28  1  0
 28 29  2  0
 29 30  1  0
 29 31  1  0
 31 32  2  0
 32 33  1  0
 33 34  2  0
 12  7  1  0
 23 13  1  0
 34 24  1  0
 21 16  1  0
 33 27  1  0
  3 35  1  0
  4 36  1  0
  4 37  1  0
  8 38  1  0
  8 39  1  0
  9 40  1  0
  9 41  1  0
 10 42  1  0
 10 43  1  0
 11 44  1  0
 11 45  1  0
 12 46  1  6
 17 47  1  0
 18 48  1  0
 19 49  1  0
 20 50  1  0
 21 51  1  0
 22 52  1  0
 25 53  1  0
 26 54  1  0
 28 55  1  0
 31 56  1  0
 32 57  1  0
M  END
>  <smiles>  (16) 
O=C(NCC(=O)N1CCCC[C@H]1c1nc(-c2ccccc2)cs1)c1ccc2cc(F)ccc2n1

>  <score_type>  (16) 
oracle

>  <origin>  (16) 
autodockgpu

>  <m_score__min__energy>  (16) 
-10

>  <m_primary>  (16) 
energy

>  <rmsd>  (16) 
7.6095859082807396

>  <m_score__min__rmsd>  (16) 
7.6095859082807396

>  <meeko>  (16) 
{"free_energy": -8.18, "intermolecular_energy": -9.97, "internal_energy": -2.66, "cluster_size": 4, "cluster_id": 5, "rank_in_cluster": 2}

>  <energy>  (16) 
-9.15

>  <cluster_rmsd>  (16) 
1.12

>  <cluster>  (16) 
1

$$$$

     RDKit          3D

 57 61  0  0  0  0  0  0  0  0999 V2000
  141.0650   72.3130  221.4520 O   0  0  0  0  0  0  0  0  0  0  0  0
  140.2560   72.5550  222.4000 C   0  0  0  0  0  0  0  0  0  0  0  0
  139.5450   73.8140  222.2550 N   0  0  0  0  0  0  0  0  0  0  0  0
  139.8620   74.5800  221.0920 C   0  0  0  0  0  0  0  0  0  0  0  0
  139.6050   75.9990  221.0440 C   0  0  0  0  0  0  0  0  0  0  0  0
  139.0040   76.3730  219.9320 O   0  0  0  0  0  0  0  0  0  0  0  0
  139.8550   77.0440  221.9230 N   0  0  0  0  0  0  0  0  0  0  0  0
  141.1250   77.7540  222.1340 C   0  0  0  0  0  0  0  0  0  0  0  0
  140.9710   79.2010  221.7820 C   0  0  0  0  0  0  0  0  0  0  0  0
  139.6440   79.8110  222.0280 C   0  0  0  0  0  0  0  0  0  0  0  0
  138.4530   78.9230  222.0920 C   0  0  0  0  0  0  0  0  0  0  0  0
  138.7940   77.6520  222.7770 C   0  0  1  0  0  0  0  0  0  0  0  0
  137.5940   76.7910  222.8760 C   0  0  0  0  0  0  0  0  0  0  0  0
  137.3360   75.6590  223.1000 N   0  0  0  0  0  0  0  0  0  0  0  0
  136.1860   75.0320  223.0980 C   0  0  0  0  0  0  0  0  0  0  0  0
  135.9480   73.6230  223.3870 C   0  0  0  0  0  0  0  0  0  0  0  0
  135.2690   73.2480  224.5350 C   0  0  0  0  0  0  0  0  0  0  0  0
  135.0280   71.9220  224.8360 C   0  0  0  0  0  0  0  0  0  0  0  0
  135.4830   70.9360  223.9560 C   0  0  0  0  0  0  0  0  0  0  0  0
  136.1700   71.2860  222.7920 C   0  0  0  0  0  0  0  0  0  0  0  0
  136.3730   72.6260  222.5580 C   0  0  0  0  0  0  0  0  0  0  0  0
  135.1140   75.9050  222.7660 C   0  0  0  0  0  0  0  0  0  0  0  0
  135.9220   77.5360  222.4980 S   0  0  0  0  0  0  0  0  0  0  0  0
  140.0460   71.6780  223.5250 C   0  0  0  0  0  0  0  0  0  0  0  0
  139.2520   70.5660  223.3350 C   0  0  0  0  0  0  0  0  0  0  0  0
  139.0600   69.7300  224.4320 C   0  0  0  0  0  0  0  0  0  0  0  0
  139.6480   70.0090  225.6660 C   0  0  0  0  0  0  0  0  0  0  0  0
  139.4820   69.2110  226.7660 C   0  0  0  0  0  0  0  0  0  0  0  0
  140.0940   69.5470  227.9630 C   0  0  0  0  0  0  0  0  0  0  0  0
  139.9560   68.7810  229.0860 F   0  0  0  0  0  0  0  0  0  0  0  0
  140.8750   70.6950  228.0450 C   0  0  0  0  0  0  0  0  0  0  0  0
  141.0570   71.5170  226.9460 C   0  0  0  0  0  0  0  0  0  0  0  0
  140.4270   71.1380  225.7820 C   0  0  0  0  0  0  0  0  0  0  0  0
  140.6090   71.9440  224.7100 N   0  0  0  0  0  0  0  0  0  0  0  0
  138.8580   74.0850  222.9920 H   0  0  0  0  0  0  0  0  0  0  0  0
  140.9404   74.4514  220.9172 H   0  0  0  0  0  0  0  0  0  0  0  0
  139.1625   74.1820  220.3421 H   0  0  0  0  0  0  0  0  0  0  0  0
  141.4197   77.6660  223.1901 H   0  0  0  0  0  0  0  0  0  0  0  0
  141.8978   77.3076  221.4909 H   0  0  0  0  0  0  0  0  0  0  0  0
  141.7108   79.7664  222.3677 H   0  0  0  0  0  0  0  0  0  0  0  0
  141.1117   79.2484  220.6921 H   0  0  0  0  0  0  0  0  0  0  0  0
  139.7045   80.3420  222.9894 H   0  0  0  0  0  0  0  0  0  0  0  0
  139.4664   80.4340  221.1390 H   0  0  0  0  0  0  0  0  0  0  0  0
  137.6512   79.4310  222.6480 H   0  0  0  0  0  0  0  0  0  0  0  0
  138.1186   78.6990  221.0683 H   0  0  0  0  0  0  0  0  0  0  0  0
  139.1454   77.7935  223.8097 H   0  0  0  0  0  0  0  0  0  0  0  0
  134.9125   74.0271  225.2249 H   0  0  0  0  0  0  0  0  0  0  0  0
  134.4869   71.6463  225.7532 H   0  0  0  0  0  0  0  0  0  0  0  0
  135.2983   69.8755  224.1824 H   0  0  0  0  0  0  0  0  0  0  0  0
  136.5342   70.5210  222.0905 H   0  0  0  0  0  0  0  0  0  0  0  0
  136.9129   72.9125  221.6434 H   0  0  0  0  0  0  0  0  0  0  0  0
  134.0444   75.6607  222.6873 H   0  0  0  0  0  0  0  0  0  0  0  0
  138.7909   70.3493  222.3601 H   0  0  0  0  0  0  0  0  0  0  0  0
  138.4329   68.8328  224.3235 H   0  0  0  0  0  0  0  0  0  0  0  0
  138.8633   68.3039  226.6997 H   0  0  0  0  0  0  0  0  0  0  0  0
  141.3563   70.9542  228.9995 H   0  0  0  0  0  0  0  0  0  0  0  0
  141.6735   72.4264  227.0000 H   0  0  0  0  0  0  0  0  0  0  0  0
  1  2  2  0
  2  3  1  0
  3  4  1  0
  4  5  1  0
  5  6  2  0
  5  7  1  0
  7  8  1  0
  8  9  1  0
  9 10  1  0
 10 11  1  0
 11 12  1  0
 12 13  1  0
 13 14  2  0
 14 15  1  0
 15 16  1  0
 16 17  2  0
 17 18  1  0
 18 19  2  0
 19 20  1  0
 20 21  2  0
 15 22  2  0
 22 23  1  0
  2 24  1  0
 24 25  2  0
 25 26  1  0
 26 27  2  0
 27 28  1  0
 28 29  2  0
 29 30  1  0
 29 31  1  0
 31 32  2  0
 32 33  1  0
 33 34  2  0
 12  7  1  0
 23 13  1  0
 34 24  1  0
 21 16  1  0
 33 27  1  0
  3 35  1  0
  4 36  1  0
  4 37  1  0
  8 38  1  0
  8 39  1  0
  9 40  1  0
  9 41  1  0
 10 42  1  0
 10 43  1  0
 11 44  1  0
 11 45  1  0
 12 46  1  1
 17 47  1  0
 18 48  1  0
 19 49  1  0
 20 50  1  0
 21 51  1  0
 22 52  1  0
 25 53  1  0
 26 54  1  0
 28 55  1  0
 31 56  1  0
 32 57  1  0
M  END
>  <smiles>  (17) 
O=C(NCC(=O)N1CCCC[C@H]1c1nc(-c2ccccc2)cs1)c1ccc2cc(F)ccc2n1

>  <score_type>  (17) 
oracle

>  <origin>  (17) 
autodockgpu

>  <m_score__min__energy>  (17) 
-10

>  <m_primary>  (17) 
energy

>  <rmsd>  (17) 
5.844520755972333

>  <m_score__min__rmsd>  (17) 
5.844520755972333

>  <meeko>  (17) 
{"free_energy": -7.67, "intermolecular_energy": -9.46, "internal_energy": -3.29, "cluster_size": 5, "cluster_id": 6, "rank_in_cluster": 4}

>  <energy>  (17) 
-8.86

>  <cluster_rmsd>  (17) 
1.01

>  <cluster>  (17) 
1

$$$$

     RDKit          3D

 57 61  0  0  0  0  0  0  0  0999 V2000
  140.4240   74.4300  221.9410 O   0  0  0  0  0  0  0  0  0  0  0  0
  141.4610   74.9450  221.4190 C   0  0  0  0  0  0  0  0  0  0  0  0
  141.4470   76.3980  221.4030 N   0  0  0  0  0  0  0  0  0  0  0  0
  140.2880   77.0170  221.9610 C   0  0  0  0  0  0  0  0  0  0  0  0
  139.8590   78.3230  221.5230 C   0  0  0  0  0  0  0  0  0  0  0  0
  138.8480   78.2740  220.6790 O   0  0  0  0  0  0  0  0  0  0  0  0
  140.2870   79.6130  221.8070 N   0  0  0  0  0  0  0  0  0  0  0  0
  139.7640   80.5240  222.8370 C   0  0  0  0  0  0  0  0  0  0  0  0
  140.8370   80.8520  223.8280 C   0  0  0  0  0  0  0  0  0  0  0  0
  142.2260   80.9100  223.3140 C   0  0  0  0  0  0  0  0  0  0  0  0
  142.5550   80.1700  222.0680 C   0  0  0  0  0  0  0  0  0  0  0  0
  141.4320   80.2580  221.1030 C   0  0  1  0  0  0  0  0  0  0  0  0
  141.7840   79.5570  219.8490 C   0  0  0  0  0  0  0  0  0  0  0  0
  141.9260   78.4450  219.4690 N   0  0  0  0  0  0  0  0  0  0  0  0
  142.3010   77.9880  218.3010 C   0  0  0  0  0  0  0  0  0  0  0  0
  142.4520   76.5920  217.9070 C   0  0  0  0  0  0  0  0  0  0  0  0
  141.4060   75.6990  218.0750 C   0  0  0  0  0  0  0  0  0  0  0  0
  141.5180   74.3710  217.7120 C   0  0  0  0  0  0  0  0  0  0  0  0
  142.7200   73.9210  217.1590 C   0  0  0  0  0  0  0  0  0  0  0  0
  143.7900   74.8000  216.9790 C   0  0  0  0  0  0  0  0  0  0  0  0
  143.6050   76.1070  217.3640 C   0  0  0  0  0  0  0  0  0  0  0  0
  142.5680   79.0420  217.3850 C   0  0  0  0  0  0  0  0  0  0  0  0
  142.2360   80.5740  218.3480 S   0  0  0  0  0  0  0  0  0  0  0  0
  142.5600   74.1800  220.8860 C   0  0  0  0  0  0  0  0  0  0  0  0
  143.7160   74.8580  220.5570 C   0  0  0  0  0  0  0  0  0  0  0  0
  144.7680   74.1040  220.0430 C   0  0  0  0  0  0  0  0  0  0  0  0
  144.6530   72.7240  219.8710 C   0  0  0  0  0  0  0  0  0  0  0  0
  145.6660   71.9500  219.3700 C   0  0  0  0  0  0  0  0  0  0  0  0
  145.4840   70.5840  219.2250 C   0  0  0  0  0  0  0  0  0  0  0  0
  146.4650   69.7730  218.7280 F   0  0  0  0  0  0  0  0  0  0  0  0
  144.2750   70.0010  219.5880 C   0  0  0  0  0  0  0  0  0  0  0  0
  143.2370   70.7640  220.0970 C   0  0  0  0  0  0  0  0  0  0  0  0
  143.4690   72.1160  220.2210 C   0  0  0  0  0  0  0  0  0  0  0  0
  142.4520   72.8560  220.7200 N   0  0  0  0  0  0  0  0  0  0  0  0
  142.2670   76.8990  220.9940 H   0  0  0  0  0  0  0  0  0  0  0  0
  139.4473   76.3327  221.7739 H   0  0  0  0  0  0  0  0  0  0  0  0
  140.5890   77.1984  223.0033 H   0  0  0  0  0  0  0  0  0  0  0  0
  139.4147   81.4511  222.3590 H   0  0  0  0  0  0  0  0  0  0  0  0
  138.9292   80.0343  223.3598 H   0  0  0  0  0  0  0  0  0  0  0  0
  140.6010   81.8353  224.2609 H   0  0  0  0  0  0  0  0  0  0  0  0
  140.8303   80.0187  224.5461 H   0  0  0  0  0  0  0  0  0  0  0  0
  142.4610   81.9694  223.1336 H   0  0  0  0  0  0  0  0  0  0  0  0
  142.8204   80.4058  224.0902 H   0  0  0  0  0  0  0  0  0  0  0  0
  143.4574   80.6062  221.6148 H   0  0  0  0  0  0  0  0  0  0  0  0
  142.7302   79.1128  222.3164 H   0  0  0  0  0  0  0  0  0  0  0  0
  141.1894   81.2899  220.8092 H   0  0  0  0  0  0  0  0  0  0  0  0
  140.4609   76.0573  218.5091 H   0  0  0  0  0  0  0  0  0  0  0  0
  140.6751   73.6791  217.8558 H   0  0  0  0  0  0  0  0  0  0  0  0
  142.8240   72.8666  216.8633 H   0  0  0  0  0  0  0  0  0  0  0  0
  144.7427   74.4604  216.5465 H   0  0  0  0  0  0  0  0  0  0  0  0
  144.4419   76.8072  217.2249 H   0  0  0  0  0  0  0  0  0  0  0  0
  142.8979   78.9601  216.3388 H   0  0  0  0  0  0  0  0  0  0  0  0
  143.8027   75.9459  220.6947 H   0  0  0  0  0  0  0  0  0  0  0  0
  145.7073   74.6057  219.7674 H   0  0  0  0  0  0  0  0  0  0  0  0
  146.6222   72.4120  219.0833 H   0  0  0  0  0  0  0  0  0  0  0  0
  144.1406   68.9157  219.4690 H   0  0  0  0  0  0  0  0  0  0  0  0
  142.2765   70.3132  220.3873 H   0  0  0  0  0  0  0  0  0  0  0  0
  1  2  2  0
  2  3  1  0
  3  4  1  0
  4  5  1  0
  5  6  2  0
  5  7  1  0
  7  8  1  0
  8  9  1  0
  9 10  1  0
 10 11  1  0
 11 12  1  0
 12 13  1  0
 13 14  2  0
 14 15  1  0
 15 16  1  0
 16 17  2  0
 17 18  1  0
 18 19  2  0
 19 20  1  0
 20 21  2  0
 15 22  2  0
 22 23  1  0
  2 24  1  0
 24 25  2  0
 25 26  1  0
 26 27  2  0
 27 28  1  0
 28 29  2  0
 29 30  1  0
 29 31  1  0
 31 32  2  0
 32 33  1  0
 33 34  2  0
 12  7  1  0
 23 13  1  0
 34 24  1  0
 21 16  1  0
 33 27  1  0
  3 35  1  0
  4 36  1  0
  4 37  1  0
  8 38  1  0
  8 39  1  0
  9 40  1  0
  9 41  1  0
 10 42  1  0
 10 43  1  0
 11 44  1  0
 11 45  1  0
 12 46  1  6
 17 47  1  0
 18 48  1  0
 19 49  1  0
 20 50  1  0
 21 51  1  0
 22 52  1  0
 25 53  1  0
 26 54  1  0
 28 55  1  0
 31 56  1  0
 32 57  1  0
M  END
>  <smiles>  (18) 
O=C(NCC(=O)N1CCCC[C@H]1c1nc(-c2ccccc2)cs1)c1ccc2cc(F)ccc2n1

>  <score_type>  (18) 
oracle

>  <origin>  (18) 
autodockgpu

>  <m_score__min__energy>  (18) 
-10

>  <m_primary>  (18) 
energy

>  <rmsd>  (18) 
7.275907686352174

>  <m_score__min__rmsd>  (18) 
7.275907686352174

>  <meeko>  (18) 
{"free_energy": -7.18, "intermolecular_energy": -8.97, "internal_energy": -3.79, "cluster_size": 15, "cluster_id": 7, "rank_in_cluster": 5}

>  <energy>  (18) 
-8.83

>  <cluster_rmsd>  (18) 
1.16

>  <cluster>  (18) 
1

$$$$

     RDKit          3D

 57 61  0  0  0  0  0  0  0  0999 V2000
  139.1630   71.3670  221.1230 O   0  0  0  0  0  0  0  0  0  0  0  0
  139.3720   71.8210  222.2900 C   0  0  0  0  0  0  0  0  0  0  0  0
  139.4160   73.2710  222.3550 N   0  0  0  0  0  0  0  0  0  0  0  0
  139.2260   73.9570  221.1170 C   0  0  0  0  0  0  0  0  0  0  0  0
  140.2780   74.0160  220.1300 C   0  0  0  0  0  0  0  0  0  0  0  0
  139.9200   74.6610  219.0380 O   0  0  0  0  0  0  0  0  0  0  0  0
  141.5820   73.5400  220.0970 N   0  0  0  0  0  0  0  0  0  0  0  0
  142.0410   72.1670  220.3550 C   0  0  0  0  0  0  0  0  0  0  0  0
  142.6970   71.6050  219.1320 C   0  0  0  0  0  0  0  0  0  0  0  0
  143.4250   72.5610  218.2650 C   0  0  0  0  0  0  0  0  0  0  0  0
  143.0550   73.9990  218.3250 C   0  0  0  0  0  0  0  0  0  0  0  0
  142.7440   74.3950  219.7200 C   0  0  1  0  0  0  0  0  0  0  0  0
  142.4190   75.8370  219.7790 C   0  0  0  0  0  0  0  0  0  0  0  0
  142.2200   76.6640  220.6010 N   0  0  0  0  0  0  0  0  0  0  0  0
  141.8850   77.9240  220.4740 C   0  0  0  0  0  0  0  0  0  0  0  0
  141.6550   78.8870  221.5450 C   0  0  0  0  0  0  0  0  0  0  0  0
  141.8400   80.2420  221.3200 C   0  0  0  0  0  0  0  0  0  0  0  0
  141.6300   81.1790  222.3130 C   0  0  0  0  0  0  0  0  0  0  0  0
  141.2210   80.7440  223.5770 C   0  0  0  0  0  0  0  0  0  0  0  0
  141.0270   79.3840  223.8300 C   0  0  0  0  0  0  0  0  0  0  0  0
  141.2550   78.5100  222.7930 C   0  0  0  0  0  0  0  0  0  0  0  0
  141.7550   78.2990  219.1090 C   0  0  0  0  0  0  0  0  0  0  0  0
  142.1400   76.7590  218.1780 S   0  0  0  0  0  0  0  0  0  0  0  0
  139.5540   70.9930  223.4570 C   0  0  0  0  0  0  0  0  0  0  0  0
  139.1580   69.6740  223.3780 C   0  0  0  0  0  0  0  0  0  0  0  0
  139.3400   68.8890  224.5140 C   0  0  0  0  0  0  0  0  0  0  0  0
  139.9000   69.4180  225.6770 C   0  0  0  0  0  0  0  0  0  0  0  0
  140.0940   68.6770  226.8120 C   0  0  0  0  0  0  0  0  0  0  0  0
  140.6550   69.2670  227.9350 C   0  0  0  0  0  0  0  0  0  0  0  0
  140.8670   68.5670  229.0880 F   0  0  0  0  0  0  0  0  0  0  0  0
  141.0190   70.6090  227.9060 C   0  0  0  0  0  0  0  0  0  0  0  0
  140.8310   71.3770  226.7690 C   0  0  0  0  0  0  0  0  0  0  0  0
  140.2700   70.7440  225.6830 C   0  0  0  0  0  0  0  0  0  0  0  0
  140.0900   71.4990  224.5740 N   0  0  0  0  0  0  0  0  0  0  0  0
  139.5810   73.7230  223.2810 H   0  0  0  0  0  0  0  0  0  0  0  0
  138.3631   73.4832  220.6262 H   0  0  0  0  0  0  0  0  0  0  0  0
  139.1329   75.0062  221.4339 H   0  0  0  0  0  0  0  0  0  0  0  0
  142.7636   72.1748  221.1843 H   0  0  0  0  0  0  0  0  0  0  0  0
  141.1752   71.5417  220.6185 H   0  0  0  0  0  0  0  0  0  0  0  0
  143.4161   70.8406  219.4616 H   0  0  0  0  0  0  0  0  0  0  0  0
  141.8719   71.2249  218.5118 H   0  0  0  0  0  0  0  0  0  0  0  0
  144.4910   72.4892  218.5266 H   0  0  0  0  0  0  0  0  0  0  0  0
  143.1542   72.2566  217.2432 H   0  0  0  0  0  0  0  0  0  0  0  0
  143.8950   74.6051  217.9548 H   0  0  0  0  0  0  0  0  0  0  0  0
  142.1650   74.1648  217.7001 H   0  0  0  0  0  0  0  0  0  0  0  0
  143.5870   74.2515  220.4120 H   0  0  0  0  0  0  0  0  0  0  0  0
  142.1626   80.5802  220.3243 H   0  0  0  0  0  0  0  0  0  0  0  0
  141.7821   82.2498  222.1124 H   0  0  0  0  0  0  0  0  0  0  0  0
  141.0507   81.4781  224.3783 H   0  0  0  0  0  0  0  0  0  0  0  0
  140.7047   79.0264  224.8191 H   0  0  0  0  0  0  0  0  0  0  0  0
  141.1050   77.4369  222.9826 H   0  0  0  0  0  0  0  0  0  0  0  0
  141.4857   79.2848  218.7021 H   0  0  0  0  0  0  0  0  0  0  0  0
  138.7180   69.2605  222.4586 H   0  0  0  0  0  0  0  0  0  0  0  0
  139.0364   67.8319  224.4938 H   0  0  0  0  0  0  0  0  0  0  0  0
  139.8055   67.6157  226.8332 H   0  0  0  0  0  0  0  0  0  0  0  0
  141.4637   71.0681  228.8012 H   0  0  0  0  0  0  0  0  0  0  0  0
  141.1155   72.4390  226.7354 H   0  0  0  0  0  0  0  0  0  0  0  0
  1  2  2  0
  2  3  1  0
  3  4  1  0
  4  5  1  0
  5  6  2  0
  5  7  1  0
  7  8  1  0
  8  9  1  0
  9 10  1  0
 10 11  1  0
 11 12  1  0
 12 13  1  0
 13 14  2  0
 14 15  1  0
 15 16  1  0
 16 17  2  0
 17 18  1  0
 18 19  2  0
 19 20  1  0
 20 21  2  0
 15 22  2  0
 22 23  1  0
  2 24  1  0
 24 25  2  0
 25 26  1  0
 26 27  2  0
 27 28  1  0
 28 29  2  0
 29 30  1  0
 29 31  1  0
 31 32  2  0
 32 33  1  0
 33 34  2  0
 12  7  1  0
 23 13  1  0
 34 24  1  0
 21 16  1  0
 33 27  1  0
  3 35  1  0
  4 36  1  0
  4 37  1  0
  8 38  1  0
  8 39  1  0
  9 40  1  0
  9 41  1  0
 10 42  1  0
 10 43  1  0
 11 44  1  0
 11 45  1  0
 12 46  1  1
 17 47  1  0
 18 48  1  0
 19 49  1  0
 20 50  1  0
 21 51  1  0
 22 52  1  0
 25 53  1  0
 26 54  1  0
 28 55  1  0
 31 56  1  0
 32 57  1  0
M  END
>  <smiles>  (19) 
O=C(NCC(=O)N1CCCC[C@H]1c1nc(-c2ccccc2)cs1)c1ccc2cc(F)ccc2n1

>  <score_type>  (19) 
oracle

>  <origin>  (19) 
autodockgpu

>  <m_score__min__energy>  (19) 
-10

>  <m_primary>  (19) 
energy

>  <rmsd>  (19) 
3.0476519733055105

>  <m_score__min__rmsd>  (19) 
3.0476519733055105

>  <meeko>  (19) 
{"free_energy": -8.56, "intermolecular_energy": -10.35, "internal_energy": -2.04, "cluster_size": 1, "cluster_id": 4, "rank_in_cluster": 1}

>  <energy>  (19) 
-8.67

>  <cluster_rmsd>  (19) 
1.54

>  <cluster>  (19) 
1

$$$$

     RDKit          3D

 57 61  0  0  0  0  0  0  0  0999 V2000
  141.3170   72.8000  221.9580 O   0  0  0  0  0  0  0  0  0  0  0  0
  140.2700   72.6380  222.6580 C   0  0  0  0  0  0  0  0  0  0  0  0
  139.2080   73.5800  222.3480 N   0  0  0  0  0  0  0  0  0  0  0  0
  139.4980   74.5340  221.3250 C   0  0  0  0  0  0  0  0  0  0  0  0
  140.2170   75.7490  221.6240 C   0  0  0  0  0  0  0  0  0  0  0  0
  141.3420   75.5310  222.2760 O   0  0  0  0  0  0  0  0  0  0  0  0
  139.9720   77.0910  221.3650 N   0  0  0  0  0  0  0  0  0  0  0  0
  138.8150   77.8900  221.7960 C   0  0  0  0  0  0  0  0  0  0  0  0
  139.2650   79.0100  222.6810 C   0  0  0  0  0  0  0  0  0  0  0  0
  140.5990   79.5900  222.4010 C   0  0  0  0  0  0  0  0  0  0  0  0
  141.5960   78.7600  221.6740 C   0  0  0  0  0  0  0  0  0  0  0  0
  140.9300   77.9570  220.6200 C   0  0  1  0  0  0  0  0  0  0  0  0
  141.9330   77.1680  219.8730 C   0  0  0  0  0  0  0  0  0  0  0  0
  142.6270   76.2260  220.0510 N   0  0  0  0  0  0  0  0  0  0  0  0
  143.5230   75.6720  219.2740 C   0  0  0  0  0  0  0  0  0  0  0  0
  144.3440   74.5020  219.5680 C   0  0  0  0  0  0  0  0  0  0  0  0
  145.1120   74.4560  220.7200 C   0  0  0  0  0  0  0  0  0  0  0  0
  145.8990   73.3630  221.0260 C   0  0  0  0  0  0  0  0  0  0  0  0
  145.9160   72.2760  220.1470 C   0  0  0  0  0  0  0  0  0  0  0  0
  145.1510   72.2960  218.9800 C   0  0  0  0  0  0  0  0  0  0  0  0
  144.3930   73.4180  218.7410 C   0  0  0  0  0  0  0  0  0  0  0  0
  143.6380   76.3550  218.0330 C   0  0  0  0  0  0  0  0  0  0  0  0
  142.4170   77.7260  218.1560 S   0  0  0  0  0  0  0  0  0  0  0  0
  140.1260   71.6220  223.6700 C   0  0  0  0  0  0  0  0  0  0  0  0
  139.5080   70.4410  223.3140 C   0  0  0  0  0  0  0  0  0  0  0  0
  139.3770   69.4710  224.3050 C   0  0  0  0  0  0  0  0  0  0  0  0
  139.8520   69.6890  225.5990 C   0  0  0  0  0  0  0  0  0  0  0  0
  139.7420   68.7590  226.5980 C   0  0  0  0  0  0  0  0  0  0  0  0
  140.2350   69.0410  227.8620 C   0  0  0  0  0  0  0  0  0  0  0  0
  140.1470   68.1440  228.8880 F   0  0  0  0  0  0  0  0  0  0  0  0
  140.8410   70.2670  228.1130 C   0  0  0  0  0  0  0  0  0  0  0  0
  140.9640   71.2220  227.1180 C   0  0  0  0  0  0  0  0  0  0  0  0
  140.4570   70.8920  225.8810 C   0  0  0  0  0  0  0  0  0  0  0  0
  140.5810   71.8290  224.9120 N   0  0  0  0  0  0  0  0  0  0  0  0
  138.3110   73.5110  222.8770 H   0  0  0  0  0  0  0  0  0  0  0  0
  140.0843   74.0038  220.5601 H   0  0  0  0  0  0  0  0  0  0  0  0
  138.4996   74.9051  221.0503 H   0  0  0  0  0  0  0  0  0  0  0  0
  138.3099   78.3055  220.9116 H   0  0  0  0  0  0  0  0  0  0  0  0
  138.1205   77.2458  222.3552 H   0  0  0  0  0  0  0  0  0  0  0  0
  138.5256   79.8198  222.5944 H   0  0  0  0  0  0  0  0  0  0  0  0
  139.3495   78.5669  223.6843 H   0  0  0  0  0  0  0  0  0  0  0  0
  140.4384   80.5006  221.8051 H   0  0  0  0  0  0  0  0  0  0  0  0
  141.0439   79.7342  223.3966 H   0  0  0  0  0  0  0  0  0  0  0  0
  142.3454   79.4177  221.2094 H   0  0  0  0  0  0  0  0  0  0  0  0
  142.0818   78.0788  222.3881 H   0  0  0  0  0  0  0  0  0  0  0  0
  140.4122   78.5690  219.8667 H   0  0  0  0  0  0  0  0  0  0  0  0
  145.0946   75.3129  221.4095 H   0  0  0  0  0  0  0  0  0  0  0  0
  146.5022   73.3480  221.9457 H   0  0  0  0  0  0  0  0  0  0  0  0
  146.5373   71.3979  220.3771 H   0  0  0  0  0  0  0  0  0  0  0  0
  145.1543   71.4480  218.2793 H   0  0  0  0  0  0  0  0  0  0  0  0
  143.7868   73.4433  217.8235 H   0  0  0  0  0  0  0  0  0  0  0  0
  144.3049   76.1181  217.1909 H   0  0  0  0  0  0  0  0  0  0  0  0
  139.1352   70.2729  222.2928 H   0  0  0  0  0  0  0  0  0  0  0  0
  138.8898   68.5149  224.0630 H   0  0  0  0  0  0  0  0  0  0  0  0
  139.2629   67.7893  226.3974 H   0  0  0  0  0  0  0  0  0  0  0  0
  141.2294   70.4819  229.1195 H   0  0  0  0  0  0  0  0  0  0  0  0
  141.4423   72.1946  227.3061 H   0  0  0  0  0  0  0  0  0  0  0  0
  1  2  2  0
  2  3  1  0
  3  4  1  0
  4  5  1  0
  5  6  2  0
  5  7  1  0
  7  8  1  0
  8  9  1  0
  9 10  1  0
 10 11  1  0
 11 12  1  0
 12 13  1  0
 13 14  2  0
 14 15  1  0
 15 16  1  0
 16 17  2  0
 17 18  1  0
 18 19  2  0
 19 20  1  0
 20 21  2  0
 15 22  2  0
 22 23  1  0
  2 24  1  0
 24 25  2  0
 25 26  1  0
 26 27  2  0
 27 28  1  0
 28 29  2  0
 29 30  1  0
 29 31  1  0
 31 32  2  0
 32 33  1  0
 33 34  2  0
 12  7  1  0
 23 13  1  0
 34 24  1  0
 21 16  1  0
 33 27  1  0
  3 35  1  0
  4 36  1  0
  4 37  1  0
  8 38  1  0
  8 39  1  0
  9 40  1  0
  9 41  1  0
 10 42  1  0
 10 43  1  0
 11 44  1  0
 11 45  1  0
 12 46  1  6
 17 47  1  0
 18 48  1  0
 19 49  1  0
 20 50  1  0
 21 51  1  0
 22 52  1  0
 25 53  1  0
 26 54  1  0
 28 55  1  0
 31 56  1  0
 32 57  1  0
M  END
>  <smiles>  (20) 
O=C(NCC(=O)N1CCCC[C@H]1c1nc(-c2ccccc2)cs1)c1ccc2cc(F)ccc2n1

>  <score_type>  (20) 
oracle

>  <origin>  (20) 
autodockgpu

>  <m_score__min__energy>  (20) 
-10

>  <m_primary>  (20) 
energy

>  <rmsd>  (20) 
5.365540089601078

>  <m_score__min__rmsd>  (20) 
5.365540089601078

>  <meeko>  (20) 
{"free_energy": -10.0, "intermolecular_energy": -11.79, "internal_energy": -1.74, "cluster_size": 20, "cluster_id": 1, "rank_in_cluster": 1}

>  <energy>  (20) 
-8.64

>  <cluster_rmsd>  (20) 
1.49

>  <cluster>  (20) 
1

$$$$

     RDKit          3D

 57 61  0  0  0  0  0  0  0  0999 V2000
  140.7030   74.0090  221.1220 O   0  0  0  0  0  0  0  0  0  0  0  0
  139.8220   73.7100  221.9850 C   0  0  0  0  0  0  0  0  0  0  0  0
  138.8720   74.7770  222.2450 N   0  0  0  0  0  0  0  0  0  0  0  0
  139.0720   75.9840  221.5070 C   0  0  0  0  0  0  0  0  0  0  0  0
  140.0290   76.9710  221.9440 C   0  0  0  0  0  0  0  0  0  0  0  0
  140.9450   76.4740  222.7510 O   0  0  0  0  0  0  0  0  0  0  0  0
  140.1870   78.3270  221.6870 N   0  0  0  0  0  0  0  0  0  0  0  0
  139.3290   79.4310  222.1440 C   0  0  0  0  0  0  0  0  0  0  0  0
  140.1110   80.3640  223.0150 C   0  0  0  0  0  0  0  0  0  0  0  0
  141.5500   80.5240  222.7010 C   0  0  0  0  0  0  0  0  0  0  0  0
  142.2390   79.4390  221.9530 C   0  0  0  0  0  0  0  0  0  0  0  0
  141.3400   78.8740  220.9170 C   0  0  1  0  0  0  0  0  0  0  0  0
  142.0470   77.8270  220.1480 C   0  0  0  0  0  0  0  0  0  0  0  0
  142.5540   76.7760  220.3470 N   0  0  0  0  0  0  0  0  0  0  0  0
  143.2000   75.9780  219.5350 C   0  0  0  0  0  0  0  0  0  0  0  0
  143.8000   74.6880  219.8580 C   0  0  0  0  0  0  0  0  0  0  0  0
  143.1500   73.5100  219.5280 C   0  0  0  0  0  0  0  0  0  0  0  0
  143.6920   72.2740  219.8200 C   0  0  0  0  0  0  0  0  0  0  0  0
  144.9300   72.2150  220.4650 C   0  0  0  0  0  0  0  0  0  0  0  0
  145.6070   73.3870  220.8090 C   0  0  0  0  0  0  0  0  0  0  0  0
  145.0060   74.5810  220.4860 C   0  0  0  0  0  0  0  0  0  0  0  0
  143.2730   76.5120  218.2200 C   0  0  0  0  0  0  0  0  0  0  0  0
  142.3850   78.1200  218.3340 S   0  0  0  0  0  0  0  0  0  0  0  0
  139.7510   72.4370  222.6580 C   0  0  0  0  0  0  0  0  0  0  0  0
  139.0220   71.4310  222.0570 C   0  0  0  0  0  0  0  0  0  0  0  0
  138.9640   70.2080  222.7210 C   0  0  0  0  0  0  0  0  0  0  0  0
  139.6170   70.0130  223.9390 C   0  0  0  0  0  0  0  0  0  0  0  0
  139.5830   68.8250  224.6190 C   0  0  0  0  0  0  0  0  0  0  0  0
  140.2540   68.7010  225.8260 C   0  0  0  0  0  0  0  0  0  0  0  0
  140.2470   67.5360  226.5390 F   0  0  0  0  0  0  0  0  0  0  0  0
  140.9600   69.7810  226.3430 C   0  0  0  0  0  0  0  0  0  0  0  0
  141.0090   70.9920  225.6720 C   0  0  0  0  0  0  0  0  0  0  0  0
  140.3250   71.0630  224.4780 C   0  0  0  0  0  0  0  0  0  0  0  0
  140.3760   72.2480  223.8260 N   0  0  0  0  0  0  0  0  0  0  0  0
  138.1120   74.6090  222.9400 H   0  0  0  0  0  0  0  0  0  0  0  0
  139.3728   75.6842  220.4923 H   0  0  0  0  0  0  0  0  0  0  0  0
  138.1117   76.5059  221.6311 H   0  0  0  0  0  0  0  0  0  0  0  0
  138.9485   79.9814  221.2709 H   0  0  0  0  0  0  0  0  0  0  0  0
  138.4888   79.0184  222.7218 H   0  0  0  0  0  0  0  0  0  0  0  0
  139.6426   81.3567  222.9437 H   0  0  0  0  0  0  0  0  0  0  0  0
  140.0840   79.9119  224.0175 H   0  0  0  0  0  0  0  0  0  0  0  0
  141.6521   81.4437  222.1062 H   0  0  0  0  0  0  0  0  0  0  0  0
  142.0413   80.5259  223.6852 H   0  0  0  0  0  0  0  0  0  0  0  0
  143.1385   79.8471  221.4689 H   0  0  0  0  0  0  0  0  0  0  0  0
  142.5178   78.6413  222.6572 H   0  0  0  0  0  0  0  0  0  0  0  0
  141.0085   79.6151  220.1748 H   0  0  0  0  0  0  0  0  0  0  0  0
  142.1758   73.5606  219.0196 H   0  0  0  0  0  0  0  0  0  0  0  0
  143.1580   71.3512  219.5493 H   0  0  0  0  0  0  0  0  0  0  0  0
  145.3749   71.2377  220.7037 H   0  0  0  0  0  0  0  0  0  0  0  0
  146.5817   73.3563  221.3179 H   0  0  0  0  0  0  0  0  0  0  0  0
  145.5320   75.5100  220.7513 H   0  0  0  0  0  0  0  0  0  0  0  0
  143.7513   76.0659  217.3356 H   0  0  0  0  0  0  0  0  0  0  0  0
  138.5096   71.5881  221.0964 H   0  0  0  0  0  0  0  0  0  0  0  0
  138.3925   69.3797  222.2768 H   0  0  0  0  0  0  0  0  0  0  0  0
  139.0245   67.9708  224.2086 H   0  0  0  0  0  0  0  0  0  0  0  0
  141.4889   69.6722  227.3014 H   0  0  0  0  0  0  0  0  0  0  0  0
  141.5653   71.8526  226.0718 H   0  0  0  0  0  0  0  0  0  0  0  0
  1  2  2  0
  2  3  1  0
  3  4  1  0
  4  5  1  0
  5  6  2  0
  5  7  1  0
  7  8  1  0
  8  9  1  0
  9 10  1  0
 10 11  1  0
 11 12  1  0
 12 13  1  0
 13 14  2  0
 14 15  1  0
 15 16  1  0
 16 17  2  0
 17 18  1  0
 18 19  2  0
 19 20  1  0
 20 21  2  0
 15 22  2  0
 22 23  1  0
  2 24  1  0
 24 25  2  0
 25 26  1  0
 26 27  2  0
 27 28  1  0
 28 29  2  0
 29 30  1  0
 29 31  1  0
 31 32  2  0
 32 33  1  0
 33 34  2  0
 12  7  1  0
 23 13  1  0
 34 24  1  0
 21 16  1  0
 33 27  1  0
  3 35  1  0
  4 36  1  0
  4 37  1  0
  8 38  1  0
  8 39  1  0
  9 40  1  0
  9 41  1  0
 10 42  1  0
 10 43  1  0
 11 44  1  0
 11 45  1  0
 12 46  1  6
 17 47  1  0
 18 48  1  0
 19 49  1  0
 20 50  1  0
 21 51  1  0
 22 52  1  0
 25 53  1  0
 26 54  1  0
 28 55  1  0
 31 56  1  0
 32 57  1  0
M  END
>  <smiles>  (21) 
O=C(NCC(=O)N1CCCC[C@H]1c1nc(-c2ccccc2)cs1)c1ccc2cc(F)ccc2n1

>  <score_type>  (21) 
oracle

>  <origin>  (21) 
autodockgpu

>  <m_score__min__energy>  (21) 
-10

>  <m_primary>  (21) 
energy

>  <rmsd>  (21) 
5.5306563840179805

>  <m_score__min__rmsd>  (21) 
5.5306563840179805

>  <meeko>  (21) 
{"free_energy": -9.15, "intermolecular_energy": -10.94, "internal_energy": -2.21, "cluster_size": 20, "cluster_id": 1, "rank_in_cluster": 16}

>  <energy>  (21) 
-9.56

>  <cluster_rmsd>  (21) 
0.0

>  <cluster>  (21) 
2

$$$$

     RDKit          3D

 57 61  0  0  0  0  0  0  0  0999 V2000
  139.2220   75.2480  222.2880 O   0  0  0  0  0  0  0  0  0  0  0  0
  140.3990   75.5210  221.8990 C   0  0  0  0  0  0  0  0  0  0  0  0
  140.6920   76.9440  221.8740 N   0  0  0  0  0  0  0  0  0  0  0  0
  139.6290   77.8070  222.2790 C   0  0  0  0  0  0  0  0  0  0  0  0
  139.6770   79.2230  222.0080 C   0  0  0  0  0  0  0  0  0  0  0  0
  138.5870   79.6690  221.4160 O   0  0  0  0  0  0  0  0  0  0  0  0
  140.6280   80.2080  222.2430 N   0  0  0  0  0  0  0  0  0  0  0  0
  140.6060   81.2420  223.2890 C   0  0  0  0  0  0  0  0  0  0  0  0
  141.7790   81.0730  224.2040 C   0  0  0  0  0  0  0  0  0  0  0  0
  143.0260   80.5460  223.6020 C   0  0  0  0  0  0  0  0  0  0  0  0
  142.9300   79.7510  222.3490 C   0  0  0  0  0  0  0  0  0  0  0  0
  141.8900   80.3170  221.4570 C   0  0  1  0  0  0  0  0  0  0  0  0
  141.8300   79.5480  220.1950 C   0  0  0  0  0  0  0  0  0  0  0  0
  142.0160   78.4390  219.8270 N   0  0  0  0  0  0  0  0  0  0  0  0
  141.9650   77.9220  218.6250 C   0  0  0  0  0  0  0  0  0  0  0  0
  142.2080   76.5340  218.2500 C   0  0  0  0  0  0  0  0  0  0  0  0
  143.4520   76.1420  217.7800 C   0  0  0  0  0  0  0  0  0  0  0  0
  143.7130   74.8360  217.4170 C   0  0  0  0  0  0  0  0  0  0  0  0
  142.6930   73.8870  217.5290 C   0  0  0  0  0  0  0  0  0  0  0  0
  141.4310   74.2550  218.0000 C   0  0  0  0  0  0  0  0  0  0  0  0
  141.2450   75.5730  218.3420 C   0  0  0  0  0  0  0  0  0  0  0  0
  141.6300   78.8980  217.6470 C   0  0  0  0  0  0  0  0  0  0  0  0
  141.4290   80.4540  218.6100 S   0  0  0  0  0  0  0  0  0  0  0  0
  141.3710   74.5290  221.5120 C   0  0  0  0  0  0  0  0  0  0  0  0
  140.9670   73.2100  221.4780 C   0  0  0  0  0  0  0  0  0  0  0  0
  141.9190   72.2650  221.1020 C   0  0  0  0  0  0  0  0  0  0  0  0
  143.2220   72.6410  220.7740 C   0  0  0  0  0  0  0  0  0  0  0  0
  144.1830   71.7410  220.4000 C   0  0  0  0  0  0  0  0  0  0  0  0
  145.4600   72.1830  220.0870 C   0  0  0  0  0  0  0  0  0  0  0  0
  146.4500   71.3220  219.7100 F   0  0  0  0  0  0  0  0  0  0  0  0
  145.7610   73.5390  220.1550 C   0  0  0  0  0  0  0  0  0  0  0  0
  144.8050   74.4670  220.5310 C   0  0  0  0  0  0  0  0  0  0  0  0
  143.5530   73.9760  220.8310 C   0  0  0  0  0  0  0  0  0  0  0  0
  142.6220   74.8870  221.1970 N   0  0  0  0  0  0  0  0  0  0  0  0
  141.6420   77.2510  221.5690 H   0  0  0  0  0  0  0  0  0  0  0  0
  138.7166   77.4270  221.7962 H   0  0  0  0  0  0  0  0  0  0  0  0
  139.6914   77.7687  223.3766 H   0  0  0  0  0  0  0  0  0  0  0  0
  140.6511   82.2357  222.8194 H   0  0  0  0  0  0  0  0  0  0  0  0
  139.6780   81.1452  223.8716 H   0  0  0  0  0  0  0  0  0  0  0  0
  142.0086   82.0582  224.6359 H   0  0  0  0  0  0  0  0  0  0  0  0
  141.4673   80.3108  224.9334 H   0  0  0  0  0  0  0  0  0  0  0  0
  143.6737   81.4093  223.3896 H   0  0  0  0  0  0  0  0  0  0  0  0
  143.4016   79.8290  224.3468 H   0  0  0  0  0  0  0  0  0  0  0  0
  143.9008   79.7704  221.8320 H   0  0  0  0  0  0  0  0  0  0  0  0
  142.6579   78.7159  222.6028 H   0  0  0  0  0  0  0  0  0  0  0  0
  142.0882   81.3582  221.1625 H   0  0  0  0  0  0  0  0  0  0  0  0
  144.2524   76.8917  217.6941 H   0  0  0  0  0  0  0  0  0  0  0  0
  144.7073   74.5469  217.0457 H   0  0  0  0  0  0  0  0  0  0  0  0
  142.8859   72.8422  217.2439 H   0  0  0  0  0  0  0  0  0  0  0  0
  140.6184   73.5195  218.0935 H   0  0  0  0  0  0  0  0  0  0  0  0
  140.2542   75.8724  218.7144 H   0  0  0  0  0  0  0  0  0  0  0  0
  141.5167   78.7558  216.5621 H   0  0  0  0  0  0  0  0  0  0  0  0
  139.9385   72.9176  221.7364 H   0  0  0  0  0  0  0  0  0  0  0  0
  141.6381   71.2022  221.0630 H   0  0  0  0  0  0  0  0  0  0  0  0
  143.9430   70.6688  220.3477 H   0  0  0  0  0  0  0  0  0  0  0  0
  146.7766   73.8802  219.9056 H   0  0  0  0  0  0  0  0  0  0  0  0
  145.0332   75.5416  220.5874 H   0  0  0  0  0  0  0  0  0  0  0  0
  1  2  2  0
  2  3  1  0
  3  4  1  0
  4  5  1  0
  5  6  2  0
  5  7  1  0
  7  8  1  0
  8  9  1  0
  9 10  1  0
 10 11  1  0
 11 12  1  0
 12 13  1  0
 13 14  2  0
 14 15  1  0
 15 16  1  0
 16 17  2  0
 17 18  1  0
 18 19  2  0
 19 20  1  0
 20 21  2  0
 15 22  2  0
 22 23  1  0
  2 24  1  0
 24 25  2  0
 25 26  1  0
 26 27  2  0
 27 28  1  0
 28 29  2  0
 29 30  1  0
 29 31  1  0
 31 32  2  0
 32 33  1  0
 33 34  2  0
 12  7  1  0
 23 13  1  0
 34 24  1  0
 21 16  1  0
 33 27  1  0
  3 35  1  0
  4 36  1  0
  4 37  1  0
  8 38  1  0
  8 39  1  0
  9 40  1  0
  9 41  1  0
 10 42  1  0
 10 43  1  0
 11 44  1  0
 11 45  1  0
 12 46  1  6
 17 47  1  0
 18 48  1  0
 19 49  1  0
 20 50  1  0
 21 51  1  0
 22 52  1  0
 25 53  1  0
 26 54  1  0
 28 55  1  0
 31 56  1  0
 32 57  1  0
M  END
>  <smiles>  (22) 
O=C(NCC(=O)N1CCCC[C@H]1c1nc(-c2ccccc2)cs1)c1ccc2cc(F)ccc2n1

>  <score_type>  (22) 
oracle

>  <origin>  (22) 
autodockgpu

>  <m_score__min__energy>  (22) 
-10

>  <m_primary>  (22) 
energy

>  <rmsd>  (22) 
7.06128303272272

>  <m_score__min__rmsd>  (22) 
7.06128303272272

>  <meeko>  (22) 
{"free_energy": -6.82, "intermolecular_energy": -8.61, "internal_energy": -4.36, "cluster_size": 15, "cluster_id": 7, "rank_in_cluster": 11}

>  <energy>  (22) 
-9.51

>  <cluster_rmsd>  (22) 
0.13

>  <cluster>  (22) 
2

$$$$

     RDKit          3D

 57 61  0  0  0  0  0  0  0  0999 V2000
  141.3200   72.4660  221.4960 O   0  0  0  0  0  0  0  0  0  0  0  0
  140.4630   72.6140  222.4210 C   0  0  0  0  0  0  0  0  0  0  0  0
  139.6960   73.8430  222.3170 N   0  0  0  0  0  0  0  0  0  0  0  0
  140.0180   74.6880  221.2120 C   0  0  0  0  0  0  0  0  0  0  0  0
  139.2880   75.9100  220.9730 C   0  0  0  0  0  0  0  0  0  0  0  0
  138.1300   75.7050  220.3770 O   0  0  0  0  0  0  0  0  0  0  0  0
  139.5490   77.2460  221.2440 N   0  0  0  0  0  0  0  0  0  0  0  0
  138.6180   78.2510  221.7780 C   0  0  0  0  0  0  0  0  0  0  0  0
  139.1100   78.7590  223.0980 C   0  0  0  0  0  0  0  0  0  0  0  0
  140.5780   78.8250  223.2840 C   0  0  0  0  0  0  0  0  0  0  0  0
  141.4410   77.9510  222.4470 C   0  0  0  0  0  0  0  0  0  0  0  0
  140.8990   77.8560  221.0690 C   0  0  1  0  0  0  0  0  0  0  0  0
  141.7860   77.0210  220.2310 C   0  0  0  0  0  0  0  0  0  0  0  0
  142.5510   76.1300  220.3710 N   0  0  0  0  0  0  0  0  0  0  0  0
  143.3160   75.5200  219.4990 C   0  0  0  0  0  0  0  0  0  0  0  0
  144.2390   74.4210  219.7520 C   0  0  0  0  0  0  0  0  0  0  0  0
  144.2940   73.3390  218.8880 C   0  0  0  0  0  0  0  0  0  0  0  0
  145.1580   72.2820  219.1000 C   0  0  0  0  0  0  0  0  0  0  0  0
  145.9970   72.3100  220.2170 C   0  0  0  0  0  0  0  0  0  0  0  0
  145.9620   73.3880  221.1030 C   0  0  0  0  0  0  0  0  0  0  0  0
  145.0770   74.4030  220.8280 C   0  0  0  0  0  0  0  0  0  0  0  0
  143.1570   76.0610  218.1940 C   0  0  0  0  0  0  0  0  0  0  0  0
  141.9080   77.3950  218.4040 S   0  0  0  0  0  0  0  0  0  0  0  0
  140.2540   71.6650  223.4860 C   0  0  0  0  0  0  0  0  0  0  0  0
  139.5700   70.5040  223.1890 C   0  0  0  0  0  0  0  0  0  0  0  0
  139.3770   69.5980  224.2300 C   0  0  0  0  0  0  0  0  0  0  0  0
  139.8580   69.8580  225.5140 C   0  0  0  0  0  0  0  0  0  0  0  0
  139.6870   68.9920  226.5610 C   0  0  0  0  0  0  0  0  0  0  0  0
  140.1900   69.3130  227.8120 C   0  0  0  0  0  0  0  0  0  0  0  0
  140.0440   68.4800  228.8850 F   0  0  0  0  0  0  0  0  0  0  0  0
  140.8660   70.5130  228.0020 C   0  0  0  0  0  0  0  0  0  0  0  0
  141.0500   71.4050  226.9580 C   0  0  0  0  0  0  0  0  0  0  0  0
  140.5310   71.0380  225.7360 C   0  0  0  0  0  0  0  0  0  0  0  0
  140.7140   71.9120  224.7190 N   0  0  0  0  0  0  0  0  0  0  0  0
  138.9670   74.0370  223.0390 H   0  0  0  0  0  0  0  0  0  0  0  0
  141.0735   74.9729  221.3334 H   0  0  0  0  0  0  0  0  0  0  0  0
  139.7428   74.0686  220.3456 H   0  0  0  0  0  0  0  0  0  0  0  0
  138.5432   79.0899  221.0704 H   0  0  0  0  0  0  0  0  0  0  0  0
  137.6296   77.7884  221.9162 H   0  0  0  0  0  0  0  0  0  0  0  0
  138.7116   79.7755  223.2326 H   0  0  0  0  0  0  0  0  0  0  0  0
  138.7593   78.0242  223.8376 H   0  0  0  0  0  0  0  0  0  0  0  0
  140.8831   79.8638  223.0897 H   0  0  0  0  0  0  0  0  0  0  0  0
  140.7355   78.4559  224.3082 H   0  0  0  0  0  0  0  0  0  0  0  0
  142.4560   78.3732  222.4090 H   0  0  0  0  0  0  0  0  0  0  0  0
  141.4667   76.9447  222.8905 H   0  0  0  0  0  0  0  0  0  0  0  0
  140.8347   78.8275  220.5571 H   0  0  0  0  0  0  0  0  0  0  0  0
  143.6319   73.3212  218.0097 H   0  0  0  0  0  0  0  0  0  0  0  0
  145.1850   71.4328  218.4013 H   0  0  0  0  0  0  0  0  0  0  0  0
  146.6905   71.4759  220.3996 H   0  0  0  0  0  0  0  0  0  0  0  0
  146.6167   73.4238  221.9862 H   0  0  0  0  0  0  0  0  0  0  0  0
  145.0423   75.2566  221.5210 H   0  0  0  0  0  0  0  0  0  0  0  0
  143.6654   75.7520  217.2688 H   0  0  0  0  0  0  0  0  0  0  0  0
  139.1937   70.3025  222.1752 H   0  0  0  0  0  0  0  0  0  0  0  0
  138.8354   68.6604  224.0361 H   0  0  0  0  0  0  0  0  0  0  0  0
  139.1514   68.0433  226.4094 H   0  0  0  0  0  0  0  0  0  0  0  0
  141.2616   70.7585  228.9986 H   0  0  0  0  0  0  0  0  0  0  0  0
  141.5830   72.3570  227.0977 H   0  0  0  0  0  0  0  0  0  0  0  0
  1  2  2  0
  2  3  1  0
  3  4  1  0
  4  5  1  0
  5  6  2  0
  5  7  1  0
  7  8  1  0
  8  9  1  0
  9 10  1  0
 10 11  1  0
 11 12  1  0
 12 13  1  0
 13 14  2  0
 14 15  1  0
 15 16  1  0
 16 17  2  0
 17 18  1  0
 18 19  2  0
 19 20  1  0
 20 21  2  0
 15 22  2  0
 22 23  1  0
  2 24  1  0
 24 25  2  0
 25 26  1  0
 26 27  2  0
 27 28  1  0
 28 29  2  0
 29 30  1  0
 29 31  1  0
 31 32  2  0
 32 33  1  0
 33 34  2  0
 12  7  1  0
 23 13  1  0
 34 24  1  0
 21 16  1  0
 33 27  1  0
  3 35  1  0
  4 36  1  0
  4 37  1  0
  8 38  1  0
  8 39  1  0
  9 40  1  0
  9 41  1  0
 10 42  1  0
 10 43  1  0
 11 44  1  0
 11 45  1  0
 12 46  1  6
 17 47  1  0
 18 48  1  0
 19 49  1  0
 20 50  1  0
 21 51  1  0
 22 52  1  0
 25 53  1  0
 26 54  1  0
 28 55  1  0
 31 56  1  0
 32 57  1  0
M  END
>  <smiles>  (23) 
O=C(NCC(=O)N1CCCC[C@H]1c1nc(-c2ccccc2)cs1)c1ccc2cc(F)ccc2n1

>  <score_type>  (23) 
oracle

>  <origin>  (23) 
autodockgpu

>  <m_score__min__energy>  (23) 
-10

>  <m_primary>  (23) 
energy

>  <rmsd>  (23) 
5.478344380414996

>  <m_score__min__rmsd>  (23) 
5.478344380414996

>  <meeko>  (23) 
{"free_energy": -9.59, "intermolecular_energy": -11.38, "internal_energy": -1.91, "cluster_size": 20, "cluster_id": 1, "rank_in_cluster": 6}

>  <energy>  (23) 
-8.84

>  <cluster_rmsd>  (23) 
0.0

>  <cluster>  (23) 
3

$$$$

     RDKit          3D

 57 61  0  0  0  0  0  0  0  0999 V2000
  136.7640   76.2300  222.4690 O   0  0  0  0  0  0  0  0  0  0  0  0
  136.4450   75.0670  222.8680 C   0  0  0  0  0  0  0  0  0  0  0  0
  137.1220   73.9980  222.1540 N   0  0  0  0  0  0  0  0  0  0  0  0
  138.0240   74.4080  221.1260 C   0  0  0  0  0  0  0  0  0  0  0  0
  139.4390   74.1480  221.2320 C   0  0  0  0  0  0  0  0  0  0  0  0
  139.9670   74.6350  222.3370 O   0  0  0  0  0  0  0  0  0  0  0  0
  140.3520   73.4910  220.4180 N   0  0  0  0  0  0  0  0  0  0  0  0
  140.7860   73.8760  219.0660 C   0  0  0  0  0  0  0  0  0  0  0  0
  142.2570   74.1580  219.0590 C   0  0  0  0  0  0  0  0  0  0  0  0
  143.0940   73.3680  219.9920 C   0  0  0  0  0  0  0  0  0  0  0  0
  142.4500   72.7680  221.1900 C   0  0  0  0  0  0  0  0  0  0  0  0
  141.0930   72.2730  220.8540 C   0  0  1  0  0  0  0  0  0  0  0  0
  140.4760   71.6380  222.0390 C   0  0  0  0  0  0  0  0  0  0  0  0
  140.6350   71.6150  223.2120 N   0  0  0  0  0  0  0  0  0  0  0  0
  140.0090   70.9370  224.1410 C   0  0  0  0  0  0  0  0  0  0  0  0
  140.2650   70.9630  225.5760 C   0  0  0  0  0  0  0  0  0  0  0  0
  139.7010   70.0090  226.4070 C   0  0  0  0  0  0  0  0  0  0  0  0
  139.9240   70.0070  227.7700 C   0  0  0  0  0  0  0  0  0  0  0  0
  140.7440   70.9960  228.3210 C   0  0  0  0  0  0  0  0  0  0  0  0
  141.3250   71.9700  227.5070 C   0  0  0  0  0  0  0  0  0  0  0  0
  141.0570   71.9080  226.1590 C   0  0  0  0  0  0  0  0  0  0  0  0
  138.9870   70.1150  223.5930 C   0  0  0  0  0  0  0  0  0  0  0  0
  139.0680   70.4370  221.7830 S   0  0  0  0  0  0  0  0  0  0  0  0
  135.5010   74.8090  223.9270 C   0  0  0  0  0  0  0  0  0  0  0  0
  134.9850   75.8910  224.6080 C   0  0  0  0  0  0  0  0  0  0  0  0
  134.0760   75.6230  225.6280 C   0  0  0  0  0  0  0  0  0  0  0  0
  133.7060   74.3150  225.9430 C   0  0  0  0  0  0  0  0  0  0  0  0
  132.8150   74.0130  226.9380 C   0  0  0  0  0  0  0  0  0  0  0  0
  132.4920   72.6900  227.1990 C   0  0  0  0  0  0  0  0  0  0  0  0
  131.6100   72.3420  228.1820 F   0  0  0  0  0  0  0  0  0  0  0  0
  133.0740   71.6730  226.4500 C   0  0  0  0  0  0  0  0  0  0  0  0
  133.9770   71.9550  225.4390 C   0  0  0  0  0  0  0  0  0  0  0  0
  134.2630   73.2840  225.2210 C   0  0  0  0  0  0  0  0  0  0  0  0
  135.1460   73.5540  224.2310 N   0  0  0  0  0  0  0  0  0  0  0  0
  136.9170   73.0110  222.4260 H   0  0  0  0  0  0  0  0  0  0  0  0
  137.6850   73.9208  220.1999 H   0  0  0  0  0  0  0  0  0  0  0  0
  137.9747   75.5053  221.1844 H   0  0  0  0  0  0  0  0  0  0  0  0
  140.5695   73.0550  218.3667 H   0  0  0  0  0  0  0  0  0  0  0  0
  140.2440   74.7823  218.7580 H   0  0  0  0  0  0  0  0  0  0  0  0
  142.6268   73.9703  218.0402 H   0  0  0  0  0  0  0  0  0  0  0  0
  142.3516   75.1996  219.3997 H   0  0  0  0  0  0  0  0  0  0  0  0
  143.5349   72.5430  219.4132 H   0  0  0  0  0  0  0  0  0  0  0  0
  143.8008   74.1021  220.4062 H   0  0  0  0  0  0  0  0  0  0  0  0
  143.0634   71.9285  221.5491 H   0  0  0  0  0  0  0  0  0  0  0  0
  142.3659   73.5365  221.9725 H   0  0  0  0  0  0  0  0  0  0  0  0
  141.0921   71.5026  220.0689 H   0  0  0  0  0  0  0  0  0  0  0  0
  139.0577   69.2315  225.9692 H   0  0  0  0  0  0  0  0  0  0  0  0
  139.4642   69.2403  228.4110 H   0  0  0  0  0  0  0  0  0  0  0  0
  140.9330   71.0068  229.4046 H   0  0  0  0  0  0  0  0  0  0  0  0
  141.9710   72.7553  227.9265 H   0  0  0  0  0  0  0  0  0  0  0  0
  141.5112   72.6704  225.5090 H   0  0  0  0  0  0  0  0  0  0  0  0
  138.3034   69.4401  224.1289 H   0  0  0  0  0  0  0  0  0  0  0  0
  135.2786   76.9208  224.3565 H   0  0  0  0  0  0  0  0  0  0  0  0
  133.6412   76.4584  226.1964 H   0  0  0  0  0  0  0  0  0  0  0  0
  132.3561   74.8189  227.5295 H   0  0  0  0  0  0  0  0  0  0  0  0
  132.8124   70.6263  226.6645 H   0  0  0  0  0  0  0  0  0  0  0  0
  134.4422   71.1579  224.8405 H   0  0  0  0  0  0  0  0  0  0  0  0
  1  2  2  0
  2  3  1  0
  3  4  1  0
  4  5  1  0
  5  6  2  0
  5  7  1  0
  7  8  1  0
  8  9  1  0
  9 10  1  0
 10 11  1  0
 11 12  1  0
 12 13  1  0
 13 14  2  0
 14 15  1  0
 15 16  1  0
 16 17  2  0
 17 18  1  0
 18 19  2  0
 19 20  1  0
 20 21  2  0
 15 22  2  0
 22 23  1  0
  2 24  1  0
 24 25  2  0
 25 26  1  0
 26 27  2  0
 27 28  1  0
 28 29  2  0
 29 30  1  0
 29 31  1  0
 31 32  2  0
 32 33  1  0
 33 34  2  0
 12  7  1  0
 23 13  1  0
 34 24  1  0
 21 16  1  0
 33 27  1  0
  3 35  1  0
  4 36  1  0
  4 37  1  0
  8 38  1  0
  8 39  1  0
  9 40  1  0
  9 41  1  0
 10 42  1  0
 10 43  1  0
 11 44  1  0
 11 45  1  0
 12 46  1  6
 17 47  1  0
 18 48  1  0
 19 49  1  0
 20 50  1  0
 21 51  1  0
 22 52  1  0
 25 53  1  0
 26 54  1  0
 28 55  1  0
 31 56  1  0
 32 57  1  0
M  END
>  <smiles>  (24) 
O=C(NCC(=O)N1CCCC[C@H]1c1nc(-c2ccccc2)cs1)c1ccc2cc(F)ccc2n1

>  <score_type>  (24) 
oracle

>  <origin>  (24) 
autodockgpu

>  <m_score__min__energy>  (24) 
-10

>  <m_primary>  (24) 
energy

>  <rmsd>  (24) 
7.929972078415735

>  <m_score__min__rmsd>  (24) 
7.929972078415735

>  <meeko>  (24) 
{"free_energy": -8.3, "intermolecular_energy": -10.09, "internal_energy": -2.13, "cluster_size": 4, "cluster_id": 5, "rank_in_cluster": 1}

>  <energy>  (24) 
-8.56

>  <cluster_rmsd>  (24) 
0.0

>  <cluster>  (24) 
4

$$$$

     RDKit          3D

 57 61  0  0  0  0  0  0  0  0999 V2000
  141.1050   73.1160  222.0640 O   0  0  0  0  0  0  0  0  0  0  0  0
  140.0480   72.7810  222.6830 C   0  0  0  0  0  0  0  0  0  0  0  0
  138.8880   73.5840  222.3340 N   0  0  0  0  0  0  0  0  0  0  0  0
  139.1090   74.6140  221.3700 C   0  0  0  0  0  0  0  0  0  0  0  0
  139.5380   75.9310  221.7750 C   0  0  0  0  0  0  0  0  0  0  0  0
  140.4660   75.9010  222.7110 O   0  0  0  0  0  0  0  0  0  0  0  0
  139.1810   77.2140  221.3820 N   0  0  0  0  0  0  0  0  0  0  0  0
  137.9090   77.9070  221.6340 C   0  0  0  0  0  0  0  0  0  0  0  0
  138.1460   79.1330  222.4600 C   0  0  0  0  0  0  0  0  0  0  0  0
  139.4330   79.8370  222.2570 C   0  0  0  0  0  0  0  0  0  0  0  0
  140.5810   79.0740  221.7000 C   0  0  0  0  0  0  0  0  0  0  0  0
  140.1140   78.1260  220.6600 C   0  0  1  0  0  0  0  0  0  0  0  0
  141.2660   77.4020  220.0790 C   0  0  0  0  0  0  0  0  0  0  0  0
  141.8800   76.4120  220.2830 N   0  0  0  0  0  0  0  0  0  0  0  0
  142.9390   75.9300  219.6820 C   0  0  0  0  0  0  0  0  0  0  0  0
  143.6440   74.6920  219.9940 C   0  0  0  0  0  0  0  0  0  0  0  0
  143.0320   73.4660  219.7910 C   0  0  0  0  0  0  0  0  0  0  0  0
  143.6730   72.2770  220.0770 C   0  0  0  0  0  0  0  0  0  0  0  0
  144.9750   72.3160  220.5840 C   0  0  0  0  0  0  0  0  0  0  0  0
  145.6150   73.5380  220.7990 C   0  0  0  0  0  0  0  0  0  0  0  0
  144.9150   74.6810  220.4910 C   0  0  0  0  0  0  0  0  0  0  0  0
  143.3740   76.7750  218.6250 C   0  0  0  0  0  0  0  0  0  0  0  0
  142.1770   78.1730  218.6410 S   0  0  0  0  0  0  0  0  0  0  0  0
  139.9800   71.7100  223.6450 C   0  0  0  0  0  0  0  0  0  0  0  0
  139.3720   70.5340  223.2570 C   0  0  0  0  0  0  0  0  0  0  0  0
  139.3150   69.5090  224.1980 C   0  0  0  0  0  0  0  0  0  0  0  0
  139.8540   69.6700  225.4760 C   0  0  0  0  0  0  0  0  0  0  0  0
  139.8170   68.6850  226.4270 C   0  0  0  0  0  0  0  0  0  0  0  0
  140.3700   68.9120  227.6780 C   0  0  0  0  0  0  0  0  0  0  0  0
  140.3570   67.9600  228.6570 F   0  0  0  0  0  0  0  0  0  0  0  0
  140.9610   70.1380  227.9640 C   0  0  0  0  0  0  0  0  0  0  0  0
  141.0090   71.1480  227.0180 C   0  0  0  0  0  0  0  0  0  0  0  0
  140.4450   70.8710  225.7920 C   0  0  0  0  0  0  0  0  0  0  0  0
  140.4960   71.8610  224.8710 N   0  0  0  0  0  0  0  0  0  0  0  0
  137.9770   73.3690  222.7970 H   0  0  0  0  0  0  0  0  0  0  0  0
  139.8747   74.2349  220.6771 H   0  0  0  0  0  0  0  0  0  0  0  0
  138.0983   74.7988  220.9772 H   0  0  0  0  0  0  0  0  0  0  0  0
  137.4562   78.1968  220.6743 H   0  0  0  0  0  0  0  0  0  0  0  0
  137.2326   77.2315  222.1781 H   0  0  0  0  0  0  0  0  0  0  0  0
  137.3382   79.8456  222.2371 H   0  0  0  0  0  0  0  0  0  0  0  0
  138.1735   78.7777  223.5007 H   0  0  0  0  0  0  0  0  0  0  0  0
  139.2391   80.6765  221.5731 H   0  0  0  0  0  0  0  0  0  0  0  0
  139.7563   80.1038  223.2740 H   0  0  0  0  0  0  0  0  0  0  0  0
  141.3008   79.7760  221.2539 H   0  0  0  0  0  0  0  0  0  0  0  0
  141.0604   78.5067  222.5113 H   0  0  0  0  0  0  0  0  0  0  0  0
  139.6142   78.6190  219.8131 H   0  0  0  0  0  0  0  0  0  0  0  0
  142.0076   73.4390  219.3911 H   0  0  0  0  0  0  0  0  0  0  0  0
  143.1673   71.3148  219.9086 H   0  0  0  0  0  0  0  0  0  0  0  0
  145.4992   71.3770  220.8153 H   0  0  0  0  0  0  0  0  0  0  0  0
  146.6387   73.5847  221.1989 H   0  0  0  0  0  0  0  0  0  0  0  0
  145.4115   75.6486  220.6558 H   0  0  0  0  0  0  0  0  0  0  0  0
  144.2307   76.6271  217.9511 H   0  0  0  0  0  0  0  0  0  0  0  0
  138.9506   70.4113  222.2484 H   0  0  0  0  0  0  0  0  0  0  0  0
  138.8368   68.5554  223.9297 H   0  0  0  0  0  0  0  0  0  0  0  0
  139.3495   67.7158  226.1987 H   0  0  0  0  0  0  0  0  0  0  0  0
  141.3979   70.3083  228.9590 H   0  0  0  0  0  0  0  0  0  0  0  0
  141.4735   72.1214  227.2343 H   0  0  0  0  0  0  0  0  0  0  0  0
  1  2  2  0
  2  3  1  0
  3  4  1  0
  4  5  1  0
  5  6  2  0
  5  7  1  0
  7  8  1  0
  8  9  1  0
  9 10  1  0
 10 11  1  0
 11 12  1  0
 12 13  1  0
 13 14  2  0
 14 15  1  0
 15 16  1  0
 16 17  2  0
 17 18  1  0
 18 19  2  0
 19 20  1  0
 20 21  2  0
 15 22  2  0
 22 23  1  0
  2 24  1  0
 24 25  2  0
 25 26  1  0
 26 27  2  0
 27 28  1  0
 28 29  2  0
 29 30  1  0
 29 31  1  0
 31 32  2  0
 32 33  1  0
 33 34  2  0
 12  7  1  0
 23 13  1  0
 34 24  1  0
 21 16  1  0
 33 27  1  0
  3 35  1  0
  4 36  1  0
  4 37  1  0
  8 38  1  0
  8 39  1  0
  9 40  1  0
  9 41  1  0
 10 42  1  0
 10 43  1  0
 11 44  1  0
 11 45  1  0
 12 46  1  6
 17 47  1  0
 18 48  1  0
 19 49  1  0
 20 50  1  0
 21 51  1  0
 22 52  1  0
 25 53  1  0
 26 54  1  0
 28 55  1  0
 31 56  1  0
 32 57  1  0
M  END
>  <smiles>  (25) 
O=C(NCC(=O)N1CCCC[C@H]1c1nc(-c2ccccc2)cs1)c1ccc2cc(F)ccc2n1

>  <score_type>  (25) 
oracle

>  <origin>  (25) 
autodockgpu

>  <m_score__min__energy>  (25) 
-10

>  <m_primary>  (25) 
energy

>  <rmsd>  (25) 
5.1115852917470805

>  <m_score__min__rmsd>  (25) 
5.1115852917470805

>  <meeko>  (25) 
{"free_energy": -9.39, "intermolecular_energy": -11.18, "internal_energy": -1.98, "cluster_size": 20, "cluster_id": 1, "rank_in_cluster": 10}

>  <energy>  (25) 
-8.3

>  <cluster_rmsd>  (25) 
0.0

>  <cluster>  (25) 
5

$$$$

     RDKit          3D

 57 61  0  0  0  0  0  0  0  0999 V2000
  139.5780   74.6210  222.2080 O   0  0  0  0  0  0  0  0  0  0  0  0
  140.6960   74.9120  221.6810 C   0  0  0  0  0  0  0  0  0  0  0  0
  140.9440   76.3400  221.5850 N   0  0  0  0  0  0  0  0  0  0  0  0
  139.9090   77.1880  222.0830 C   0  0  0  0  0  0  0  0  0  0  0  0
  139.7090   78.5120  221.5460 C   0  0  0  0  0  0  0  0  0  0  0  0
  138.7910   78.5480  220.6010 O   0  0  0  0  0  0  0  0  0  0  0  0
  140.2790   79.7480  221.8190 N   0  0  0  0  0  0  0  0  0  0  0  0
  139.8260   80.7450  222.8010 C   0  0  0  0  0  0  0  0  0  0  0  0
  140.8880   80.9700  223.8330 C   0  0  0  0  0  0  0  0  0  0  0  0
  142.2940   80.8450  223.3840 C   0  0  0  0  0  0  0  0  0  0  0  0
  142.5840   80.0340  222.1720 C   0  0  0  0  0  0  0  0  0  0  0  0
  141.5240   80.2290  221.1540 C   0  0  1  0  0  0  0  0  0  0  0  0
  141.8410   79.4540  219.9350 C   0  0  0  0  0  0  0  0  0  0  0  0
  141.9490   78.3210  219.6120 N   0  0  0  0  0  0  0  0  0  0  0  0
  142.2980   77.7930  218.4660 C   0  0  0  0  0  0  0  0  0  0  0  0
  142.4070   76.3750  218.1440 C   0  0  0  0  0  0  0  0  0  0  0  0
  143.6250   75.8340  217.7640 C   0  0  0  0  0  0  0  0  0  0  0  0
  143.7610   74.4960  217.4530 C   0  0  0  0  0  0  0  0  0  0  0  0
  142.6380   73.6680  217.5260 C   0  0  0  0  0  0  0  0  0  0  0  0
  141.3980   74.1870  217.9070 C   0  0  0  0  0  0  0  0  0  0  0  0
  141.3390   75.5280  218.2010 C   0  0  0  0  0  0  0  0  0  0  0  0
  142.5800   78.7900  217.4930 C   0  0  0  0  0  0  0  0  0  0  0  0
  142.3000   80.3790  218.3770 S   0  0  0  0  0  0  0  0  0  0  0  0
  141.6470   73.9330  221.2140 C   0  0  0  0  0  0  0  0  0  0  0  0
  141.1870   72.6560  220.9660 C   0  0  0  0  0  0  0  0  0  0  0  0
  142.1180   71.7240  220.5150 C   0  0  0  0  0  0  0  0  0  0  0  0
  143.4560   72.0710  220.3250 C   0  0  0  0  0  0  0  0  0  0  0  0
  144.3990   71.1820  219.8830 C   0  0  0  0  0  0  0  0  0  0  0  0
  145.7120   71.5940  219.7160 C   0  0  0  0  0  0  0  0  0  0  0  0
  146.6860   70.7420  219.2790 F   0  0  0  0  0  0  0  0  0  0  0  0
  146.0690   72.9080  219.9970 C   0  0  0  0  0  0  0  0  0  0  0  0
  145.1320   73.8240  220.4450 C   0  0  0  0  0  0  0  0  0  0  0  0
  143.8430   73.3640  220.5940 C   0  0  0  0  0  0  0  0  0  0  0  0
  142.9310   74.2640  221.0310 N   0  0  0  0  0  0  0  0  0  0  0  0
  141.8450   76.6610  221.1660 H   0  0  0  0  0  0  0  0  0  0  0  0
  138.9633   76.6455  221.9372 H   0  0  0  0  0  0  0  0  0  0  0  0
  140.2387   77.3923  223.1123 H   0  0  0  0  0  0  0  0  0  0  0  0
  139.6131   81.6930  222.2853 H   0  0  0  0  0  0  0  0  0  0  0  0
  138.9156   80.3755  223.2957 H   0  0  0  0  0  0  0  0  0  0  0  0
  140.7551   81.9869  224.2308 H   0  0  0  0  0  0  0  0  0  0  0  0
  140.7487   80.1646  224.5691 H   0  0  0  0  0  0  0  0  0  0  0  0
  142.6641   81.8625  223.1897 H   0  0  0  0  0  0  0  0  0  0  0  0
  142.7883   80.2960  224.1990 H   0  0  0  0  0  0  0  0  0  0  0  0
  143.5519   80.3441  221.7514 H   0  0  0  0  0  0  0  0  0  0  0  0
  142.6173   78.9711  222.4534 H   0  0  0  0  0  0  0  0  0  0  0  0
  141.4231   81.2737  220.8247 H   0  0  0  0  0  0  0  0  0  0  0  0
  144.5073   76.4886  217.7087 H   0  0  0  0  0  0  0  0  0  0  0  0
  144.7375   74.0884  217.1526 H   0  0  0  0  0  0  0  0  0  0  0  0
  142.7308   72.5995  217.2817 H   0  0  0  0  0  0  0  0  0  0  0  0
  140.5049   73.5478  217.9691 H   0  0  0  0  0  0  0  0  0  0  0  0
  140.3670   75.9459  218.5020 H   0  0  0  0  0  0  0  0  0  0  0  0
  142.8942   78.6446  216.4489 H   0  0  0  0  0  0  0  0  0  0  0  0
  140.1315   72.3862  221.1179 H   0  0  0  0  0  0  0  0  0  0  0  0
  141.7924   70.6946  220.3045 H   0  0  0  0  0  0  0  0  0  0  0  0
  144.1152   70.1427  219.6608 H   0  0  0  0  0  0  0  0  0  0  0  0
  147.1134   73.2254  219.8611 H   0  0  0  0  0  0  0  0  0  0  0  0
  145.4037   74.8658  220.6703 H   0  0  0  0  0  0  0  0  0  0  0  0
  1  2  2  0
  2  3  1  0
  3  4  1  0
  4  5  1  0
  5  6  2  0
  5  7  1  0
  7  8  1  0
  8  9  1  0
  9 10  1  0
 10 11  1  0
 11 12  1  0
 12 13  1  0
 13 14  2  0
 14 15  1  0
 15 16  1  0
 16 17  2  0
 17 18  1  0
 18 19  2  0
 19 20  1  0
 20 21  2  0
 15 22  2  0
 22 23  1  0
  2 24  1  0
 24 25  2  0
 25 26  1  0
 26 27  2  0
 27 28  1  0
 28 29  2  0
 29 30  1  0
 29 31  1  0
 31 32  2  0
 32 33  1  0
 33 34  2  0
 12  7  1  0
 23 13  1  0
 34 24  1  0
 21 16  1  0
 33 27  1  0
  3 35  1  0
  4 36  1  0
  4 37  1  0
  8 38  1  0
  8 39  1  0
  9 40  1  0
  9 41  1  0
 10 42  1  0
 10 43  1  0
 11 44  1  0
 11 45  1  0
 12 46  1  6
 17 47  1  0
 18 48  1  0
 19 49  1  0
 20 50  1  0
 21 51  1  0
 22 52  1  0
 25 53  1  0
 26 54  1  0
 28 55  1  0
 31 56  1  0
 32 57  1  0
M  END
>  <smiles>  (26) 
O=C(NCC(=O)N1CCCC[C@H]1c1nc(-c2ccccc2)cs1)c1ccc2cc(F)ccc2n1

>  <score_type>  (26) 
oracle

>  <origin>  (26) 
autodockgpu

>  <m_score__min__energy>  (26) 
-10

>  <m_primary>  (26) 
energy

>  <rmsd>  (26) 
6.985844497518877

>  <m_score__min__rmsd>  (26) 
6.985844497518877

>  <meeko>  (26) 
{"free_energy": -7.19, "intermolecular_energy": -8.98, "internal_energy": -4.02, "cluster_size": 15, "cluster_id": 7, "rank_in_cluster": 4}

>  <energy>  (26) 
-8.18

>  <cluster_rmsd>  (26) 
1.5

>  <cluster>  (26) 
5

$$$$

     RDKit          3D

 57 61  0  0  0  0  0  0  0  0999 V2000
  136.4470   77.2410  222.7730 O   0  0  0  0  0  0  0  0  0  0  0  0
  136.7620   76.0750  223.1670 C   0  0  0  0  0  0  0  0  0  0  0  0
  138.0900   75.6570  222.7530 N   0  0  0  0  0  0  0  0  0  0  0  0
  138.8270   76.6000  221.9740 C   0  0  0  0  0  0  0  0  0  0  0  0
  140.2280   76.3990  221.6940 C   0  0  0  0  0  0  0  0  0  0  0  0
  141.0090   76.7920  222.6810 O   0  0  0  0  0  0  0  0  0  0  0  0
  140.9190   75.8770  220.6090 N   0  0  0  0  0  0  0  0  0  0  0  0
  141.5290   76.6180  219.4950 C   0  0  0  0  0  0  0  0  0  0  0  0
  143.0090   76.3900  219.4740 C   0  0  0  0  0  0  0  0  0  0  0  0
  143.4880   75.0650  219.9340 C   0  0  0  0  0  0  0  0  0  0  0  0
  142.6180   74.2700  220.8400 C   0  0  0  0  0  0  0  0  0  0  0  0
  141.1950   74.4200  220.4520 C   0  0  1  0  0  0  0  0  0  0  0  0
  140.3400   73.5920  221.3300 C   0  0  0  0  0  0  0  0  0  0  0  0
  140.4360   72.9910  222.3450 N   0  0  0  0  0  0  0  0  0  0  0  0
  139.5650   72.2450  222.9780 C   0  0  0  0  0  0  0  0  0  0  0  0
  139.7610   71.5330  224.2350 C   0  0  0  0  0  0  0  0  0  0  0  0
  138.9620   70.4480  224.5580 C   0  0  0  0  0  0  0  0  0  0  0  0
  139.1220   69.7530  225.7410 C   0  0  0  0  0  0  0  0  0  0  0  0
  140.1200   70.1580  226.6310 C   0  0  0  0  0  0  0  0  0  0  0  0
  140.9400   71.2480  226.3300 C   0  0  0  0  0  0  0  0  0  0  0  0
  140.7210   71.8910  225.1350 C   0  0  0  0  0  0  0  0  0  0  0  0
  138.3250   72.1850  222.2860 C   0  0  0  0  0  0  0  0  0  0  0  0
  138.5870   73.2290  220.7930 S   0  0  0  0  0  0  0  0  0  0  0  0
  135.8980   75.2290  223.9520 C   0  0  0  0  0  0  0  0  0  0  0  0
  135.0230   75.8370  224.8280 C   0  0  0  0  0  0  0  0  0  0  0  0
  134.1970   75.0040  225.5780 C   0  0  0  0  0  0  0  0  0  0  0  0
  134.2550   73.6160  225.4450 C   0  0  0  0  0  0  0  0  0  0  0  0
  133.4580   72.7660  226.1650 C   0  0  0  0  0  0  0  0  0  0  0  0
  133.5690   71.3960  225.9840 C   0  0  0  0  0  0  0  0  0  0  0  0
  132.7960   70.5110  226.6800 F   0  0  0  0  0  0  0  0  0  0  0  0
  134.4870   70.8880  225.0730 C   0  0  0  0  0  0  0  0  0  0  0  0
  135.3030   71.7280  224.3340 C   0  0  0  0  0  0  0  0  0  0  0  0
  135.1540   73.0800  224.5510 C   0  0  0  0  0  0  0  0  0  0  0  0
  135.9530   73.8970  223.8260 N   0  0  0  0  0  0  0  0  0  0  0  0
  138.4260   74.7110  223.0400 H   0  0  0  0  0  0  0  0  0  0  0  0
  138.3197   76.6656  221.0002 H   0  0  0  0  0  0  0  0  0  0  0  0
  138.8345   77.4921  222.6175 H   0  0  0  0  0  0  0  0  0  0  0  0
  141.0940   76.2712  218.5460 H   0  0  0  0  0  0  0  0  0  0  0  0
  141.3322   77.6922  219.6267 H   0  0  0  0  0  0  0  0  0  0  0  0
  143.3520   76.5264  218.4378 H   0  0  0  0  0  0  0  0  0  0  0  0
  143.4214   77.1112  220.1950 H   0  0  0  0  0  0  0  0  0  0  0  0
  143.6653   74.4545  219.0363 H   0  0  0  0  0  0  0  0  0  0  0  0
  144.3723   75.2967  220.5458 H   0  0  0  0  0  0  0  0  0  0  0  0
  142.9014   73.2090  220.7760 H   0  0  0  0  0  0  0  0  0  0  0  0
  142.7476   74.6341  221.8699 H   0  0  0  0  0  0  0  0  0  0  0  0
  140.9850   74.0825  219.4263 H   0  0  0  0  0  0  0  0  0  0  0  0
  138.1790   70.1315  223.8532 H   0  0  0  0  0  0  0  0  0  0  0  0
  138.4750   68.8956  225.9782 H   0  0  0  0  0  0  0  0  0  0  0  0
  140.2611   69.6140  227.5766 H   0  0  0  0  0  0  0  0  0  0  0  0
  141.7292   71.5785  227.0214 H   0  0  0  0  0  0  0  0  0  0  0  0
  141.3619   72.7504  224.8886 H   0  0  0  0  0  0  0  0  0  0  0  0
  137.4155   71.6388  222.5766 H   0  0  0  0  0  0  0  0  0  0  0  0
  134.9797   76.9314  224.9296 H   0  0  0  0  0  0  0  0  0  0  0  0
  133.4850   75.4485  226.2890 H   0  0  0  0  0  0  0  0  0  0  0  0
  132.7313   73.1696  226.8854 H   0  0  0  0  0  0  0  0  0  0  0  0
  134.5669   69.7994  224.9364 H   0  0  0  0  0  0  0  0  0  0  0  0
  136.0329   71.3356  223.6106 H   0  0  0  0  0  0  0  0  0  0  0  0
  1  2  2  0
  2  3  1  0
  3  4  1  0
  4  5  1  0
  5  6  2  0
  5  7  1  0
  7  8  1  0
  8  9  1  0
  9 10  1  0
 10 11  1  0
 11 12  1  0
 12 13  1  0
 13 14  2  0
 14 15  1  0
 15 16  1  0
 16 17  2  0
 17 18  1  0
 18 19  2  0
 19 20  1  0
 20 21  2  0
 15 22  2  0
 22 23  1  0
  2 24  1  0
 24 25  2  0
 25 26  1  0
 26 27  2  0
 27 28  1  0
 28 29  2  0
 29 30  1  0
 29 31  1  0
 31 32  2  0
 32 33  1  0
 33 34  2  0
 12  7  1  0
 23 13  1  0
 34 24  1  0
 21 16  1  0
 33 27  1  0
  3 35  1  0
  4 36  1  0
  4 37  1  0
  8 38  1  0
  8 39  1  0
  9 40  1  0
  9 41  1  0
 10 42  1  0
 10 43  1  0
 11 44  1  0
 11 45  1  0
 12 46  1  6
 17 47  1  0
 18 48  1  0
 19 49  1  0
 20 50  1  0
 21 51  1  0
 22 52  1  0
 25 53  1  0
 26 54  1  0
 28 55  1  0
 31 56  1  0
 32 57  1  0
M  END
>  <smiles>  (27) 
O=C(NCC(=O)N1CCCC[C@H]1c1nc(-c2ccccc2)cs1)c1ccc2cc(F)ccc2n1

>  <score_type>  (27) 
oracle

>  <origin>  (27) 
autodockgpu

>  <m_score__min__energy>  (27) 
-10

>  <m_primary>  (27) 
energy

>  <rmsd>  (27) 
7.425052863218818

>  <m_score__min__rmsd>  (27) 
7.425052863218818

>  <meeko>  (27) 
{"free_energy": -8.06, "intermolecular_energy": -9.85, "internal_energy": -2.87, "cluster_size": 4, "cluster_id": 5, "rank_in_cluster": 4}

>  <energy>  (27) 
-8.12

>  <cluster_rmsd>  (27) 
1.63

>  <cluster>  (27) 
5

$$$$

     RDKit          3D

 57 61  0  0  0  0  0  0  0  0999 V2000
  141.4740   72.4400  221.6530 O   0  0  0  0  0  0  0  0  0  0  0  0
  140.5500   72.5660  222.5150 C   0  0  0  0  0  0  0  0  0  0  0  0
  139.7420   73.7600  222.3350 N   0  0  0  0  0  0  0  0  0  0  0  0
  140.1060   74.6010  221.2400 C   0  0  0  0  0  0  0  0  0  0  0  0
  139.3230   75.7660  220.9050 C   0  0  0  0  0  0  0  0  0  0  0  0
  138.2400   75.4730  220.2130 O   0  0  0  0  0  0  0  0  0  0  0  0
  139.4710   77.1220  221.1640 N   0  0  0  0  0  0  0  0  0  0  0  0
  138.4520   78.0540  221.6700 C   0  0  0  0  0  0  0  0  0  0  0  0
  138.8780   78.6130  222.9920 C   0  0  0  0  0  0  0  0  0  0  0  0
  140.3330   78.8000  223.2020 C   0  0  0  0  0  0  0  0  0  0  0  0
  141.2780   77.9890  222.3910 C   0  0  0  0  0  0  0  0  0  0  0  0
  140.7700   77.8370  221.0050 C   0  0  1  0  0  0  0  0  0  0  0  0
  141.7370   77.0670  220.1920 C   0  0  0  0  0  0  0  0  0  0  0  0
  142.4690   76.1470  220.3270 N   0  0  0  0  0  0  0  0  0  0  0  0
  143.3200   75.6090  219.4900 C   0  0  0  0  0  0  0  0  0  0  0  0
  144.1930   74.4660  219.7330 C   0  0  0  0  0  0  0  0  0  0  0  0
  144.1300   73.3490  218.9160 C   0  0  0  0  0  0  0  0  0  0  0  0
  144.9430   72.2520  219.1200 C   0  0  0  0  0  0  0  0  0  0  0  0
  145.8550   72.2750  220.1790 C   0  0  0  0  0  0  0  0  0  0  0  0
  145.9400   73.3880  221.0170 C   0  0  0  0  0  0  0  0  0  0  0  0
  145.0980   74.4430  220.7530 C   0  0  0  0  0  0  0  0  0  0  0  0
  143.3200   76.2790  218.2370 C   0  0  0  0  0  0  0  0  0  0  0  0
  142.0730   77.6170  218.4380 S   0  0  0  0  0  0  0  0  0  0  0  0
  140.3060   71.6250  223.5800 C   0  0  0  0  0  0  0  0  0  0  0  0
  139.6140   70.4720  223.2750 C   0  0  0  0  0  0  0  0  0  0  0  0
  139.3880   69.5740  224.3160 C   0  0  0  0  0  0  0  0  0  0  0  0
  139.8440   69.8360  225.6090 C   0  0  0  0  0  0  0  0  0  0  0  0
  139.6400   68.9780  226.6560 C   0  0  0  0  0  0  0  0  0  0  0  0
  140.1200   69.3000  227.9160 C   0  0  0  0  0  0  0  0  0  0  0  0
  139.9400   68.4750  228.9900 F   0  0  0  0  0  0  0  0  0  0  0  0
  140.8060   70.4930  228.1140 C   0  0  0  0  0  0  0  0  0  0  0  0
  141.0240   71.3760  227.0700 C   0  0  0  0  0  0  0  0  0  0  0  0
  140.5270   71.0080  225.8390 C   0  0  0  0  0  0  0  0  0  0  0  0
  140.7420   71.8740  224.8210 N   0  0  0  0  0  0  0  0  0  0  0  0
  138.9580   73.9350  223.0010 H   0  0  0  0  0  0  0  0  0  0  0  0
  141.1258   74.9583  221.4457 H   0  0  0  0  0  0  0  0  0  0  0  0
  139.9497   73.9463  220.3700 H   0  0  0  0  0  0  0  0  0  0  0  0
  138.3226   78.8769  220.9516 H   0  0  0  0  0  0  0  0  0  0  0  0
  137.5015   77.5148  221.7962 H   0  0  0  0  0  0  0  0  0  0  0  0
  138.3962   79.5950  223.1087 H   0  0  0  0  0  0  0  0  0  0  0  0
  138.5752   77.8592  223.7337 H   0  0  0  0  0  0  0  0  0  0  0  0
  140.5567   79.8578  222.9993 H   0  0  0  0  0  0  0  0  0  0  0  0
  140.5017   78.4572  224.2335 H   0  0  0  0  0  0  0  0  0  0  0  0
  142.2567   78.4904  222.3656 H   0  0  0  0  0  0  0  0  0  0  0  0
  141.3760   76.9927  222.8469 H   0  0  0  0  0  0  0  0  0  0  0  0
  140.6368   78.7949  220.4809 H   0  0  0  0  0  0  0  0  0  0  0  0
  143.4128   73.3358  218.0821 H   0  0  0  0  0  0  0  0  0  0  0  0
  144.8742   71.3745  218.4602 H   0  0  0  0  0  0  0  0  0  0  0  0
  146.5108   71.4093  220.3533 H   0  0  0  0  0  0  0  0  0  0  0  0
  146.6519   73.4201  221.8550 H   0  0  0  0  0  0  0  0  0  0  0  0
  145.1585   75.3254  221.4070 H   0  0  0  0  0  0  0  0  0  0  0  0
  143.9273   76.0499  217.3489 H   0  0  0  0  0  0  0  0  0  0  0  0
  139.2561   70.2701  222.2546 H   0  0  0  0  0  0  0  0  0  0  0  0
  138.8402   68.6415  224.1153 H   0  0  0  0  0  0  0  0  0  0  0  0
  139.0963   68.0349  226.4978 H   0  0  0  0  0  0  0  0  0  0  0  0
  141.1822   70.7397  229.1178 H   0  0  0  0  0  0  0  0  0  0  0  0
  141.5658   72.3221  227.2160 H   0  0  0  0  0  0  0  0  0  0  0  0
  1  2  2  0
  2  3  1  0
  3  4  1  0
  4  5  1  0
  5  6  2  0
  5  7  1  0
  7  8  1  0
  8  9  1  0
  9 10  1  0
 10 11  1  0
 11 12  1  0
 12 13  1  0
 13 14  2  0
 14 15  1  0
 15 16  1  0
 16 17  2  0
 17 18  1  0
 18 19  2  0
 19 20  1  0
 20 21  2  0
 15 22  2  0
 22 23  1  0
  2 24  1  0
 24 25  2  0
 25 26  1  0
 26 27  2  0
 27 28  1  0
 28 29  2  0
 29 30  1  0
 29 31  1  0
 31 32  2  0
 32 33  1  0
 33 34  2  0
 12  7  1  0
 23 13  1  0
 34 24  1  0
 21 16  1  0
 33 27  1  0
  3 35  1  0
  4 36  1  0
  4 37  1  0
  8 38  1  0
  8 39  1  0
  9 40  1  0
  9 41  1  0
 10 42  1  0
 10 43  1  0
 11 44  1  0
 11 45  1  0
 12 46  1  6
 17 47  1  0
 18 48  1  0
 19 49  1  0
 20 50  1  0
 21 51  1  0
 22 52  1  0
 25 53  1  0
 26 54  1  0
 28 55  1  0
 31 56  1  0
 32 57  1  0
M  END
>  <smiles>  (28) 
O=C(NCC(=O)N1CCCC[C@H]1c1nc(-c2ccccc2)cs1)c1ccc2cc(F)ccc2n1

>  <score_type>  (28) 
oracle

>  <origin>  (28) 
autodockgpu

>  <m_score__min__energy>  (28) 
-10

>  <m_primary>  (28) 
energy

>  <rmsd>  (28) 
5.428883494510607

>  <m_score__min__rmsd>  (28) 
5.428883494510607

>  <meeko>  (28) 
{"free_energy": -9.6, "intermolecular_energy": -11.39, "internal_energy": -1.9, "cluster_size": 20, "cluster_id": 1, "rank_in_cluster": 4}

>  <energy>  (28) 
-8.06

>  <cluster_rmsd>  (28) 
1.69

>  <cluster>  (28) 
5

$$$$

     RDKit          3D

 57 61  0  0  0  0  0  0  0  0999 V2000
  141.3890   75.8560  218.6580 O   0  0  0  0  0  0  0  0  0  0  0  0
  142.5630   75.9350  219.1350 C   0  0  0  0  0  0  0  0  0  0  0  0
  142.9530   77.2840  219.5090 N   0  0  0  0  0  0  0  0  0  0  0  0
  141.9760   78.3010  219.2830 C   0  0  0  0  0  0  0  0  0  0  0  0
  141.2810   78.9220  220.3840 C   0  0  0  0  0  0  0  0  0  0  0  0
  140.0510   79.2810  220.0760 O   0  0  0  0  0  0  0  0  0  0  0  0
  141.6370   79.2130  221.6950 N   0  0  0  0  0  0  0  0  0  0  0  0
  142.5580   80.2610  222.1610 C   0  0  0  0  0  0  0  0  0  0  0  0
  141.8280   81.2370  223.0310 C   0  0  0  0  0  0  0  0  0  0  0  0
  140.7170   80.7010  223.8520 C   0  0  0  0  0  0  0  0  0  0  0  0
  140.0570   79.4410  223.4180 C   0  0  0  0  0  0  0  0  0  0  0  0
  141.0590   78.4970  222.8670 C   0  0  1  0  0  0  0  0  0  0  0  0
  140.4020   77.2290  222.4790 C   0  0  0  0  0  0  0  0  0  0  0  0
  140.7090   76.1710  222.0500 N   0  0  0  0  0  0  0  0  0  0  0  0
  139.9700   75.1460  221.7050 C   0  0  0  0  0  0  0  0  0  0  0  0
  140.4280   73.8650  221.1800 C   0  0  0  0  0  0  0  0  0  0  0  0
  141.1830   73.0130  221.9700 C   0  0  0  0  0  0  0  0  0  0  0  0
  141.6310   71.7930  221.5020 C   0  0  0  0  0  0  0  0  0  0  0  0
  141.3110   71.4120  220.1960 C   0  0  0  0  0  0  0  0  0  0  0  0
  140.5520   72.2520  219.3780 C   0  0  0  0  0  0  0  0  0  0  0  0
  140.1410   73.4500  219.9120 C   0  0  0  0  0  0  0  0  0  0  0  0
  138.5860   75.4080  221.8990 C   0  0  0  0  0  0  0  0  0  0  0  0
  138.5380   77.1230  222.5630 S   0  0  0  0  0  0  0  0  0  0  0  0
  143.4460   74.8060  219.2990 C   0  0  0  0  0  0  0  0  0  0  0  0
  144.4090   74.8800  220.2830 C   0  0  0  0  0  0  0  0  0  0  0  0
  145.2520   73.7810  220.4280 C   0  0  0  0  0  0  0  0  0  0  0  0
  145.1230   72.6570  219.6100 C   0  0  0  0  0  0  0  0  0  0  0  0
  145.9330   71.5590  219.7230 C   0  0  0  0  0  0  0  0  0  0  0  0
  145.7510   70.4760  218.8770 C   0  0  0  0  0  0  0  0  0  0  0  0
  146.5350   69.3600  218.9530 F   0  0  0  0  0  0  0  0  0  0  0  0
  144.7470   70.5070  217.9160 C   0  0  0  0  0  0  0  0  0  0  0  0
  143.9160   71.6070  217.7840 C   0  0  0  0  0  0  0  0  0  0  0  0
  144.1390   72.6560  218.6480 C   0  0  0  0  0  0  0  0  0  0  0  0
  143.3240   73.7280  218.5150 N   0  0  0  0  0  0  0  0  0  0  0  0
  143.9040   77.4330  219.9140 H   0  0  0  0  0  0  0  0  0  0  0  0
  142.4865   79.1097  218.7395 H   0  0  0  0  0  0  0  0  0  0  0  0
  141.1726   77.7541  218.7677 H   0  0  0  0  0  0  0  0  0  0  0  0
  143.3734   79.7991  222.7369 H   0  0  0  0  0  0  0  0  0  0  0  0
  142.9696   80.7923  221.2901 H   0  0  0  0  0  0  0  0  0  0  0  0
  142.5622   81.6850  223.7168 H   0  0  0  0  0  0  0  0  0  0  0  0
  141.3550   81.9449  222.3345 H   0  0  0  0  0  0  0  0  0  0  0  0
  141.1147   80.5276  224.8628 H   0  0  0  0  0  0  0  0  0  0  0  0
  139.9273   81.4619  223.7656 H   0  0  0  0  0  0  0  0  0  0  0  0
  139.5580   78.9769  224.2815 H   0  0  0  0  0  0  0  0  0  0  0  0
  139.3191   79.6751  222.6365 H   0  0  0  0  0  0  0  0  0  0  0  0
  141.8402   78.2191  223.5898 H   0  0  0  0  0  0  0  0  0  0  0  0
  141.4323   73.3163  222.9975 H   0  0  0  0  0  0  0  0  0  0  0  0
  142.2296   71.1324  222.1465 H   0  0  0  0  0  0  0  0  0  0  0  0
  141.6596   70.4430  219.8093 H   0  0  0  0  0  0  0  0  0  0  0  0
  140.2935   71.9663  218.3477 H   0  0  0  0  0  0  0  0  0  0  0  0
  139.5416   74.1178  219.2758 H   0  0  0  0  0  0  0  0  0  0  0  0
  137.7372   74.7378  221.6979 H   0  0  0  0  0  0  0  0  0  0  0  0
  144.5071   75.7678  220.9251 H   0  0  0  0  0  0  0  0  0  0  0  0
  146.0340   73.7989  221.2014 H   0  0  0  0  0  0  0  0  0  0  0  0
  146.7270   71.5362  220.4840 H   0  0  0  0  0  0  0  0  0  0  0  0
  144.6102   69.6430  217.2490 H   0  0  0  0  0  0  0  0  0  0  0  0
  143.1183   71.6411  217.0274 H   0  0  0  0  0  0  0  0  0  0  0  0
  1  2  2  0
  2  3  1  0
  3  4  1  0
  4  5  1  0
  5  6  2  0
  5  7  1  0
  7  8  1  0
  8  9  1  0
  9 10  1  0
 10 11  1  0
 11 12  1  0
 12 13  1  0
 13 14  2  0
 14 15  1  0
 15 16  1  0
 16 17  2  0
 17 18  1  0
 18 19  2  0
 19 20  1  0
 20 21  2  0
 15 22  2  0
 22 23  1  0
  2 24  1  0
 24 25  2  0
 25 26  1  0
 26 27  2  0
 27 28  1  0
 28 29  2  0
 29 30  1  0
 29 31  1  0
 31 32  2  0
 32 33  1  0
 33 34  2  0
 12  7  1  0
 23 13  1  0
 34 24  1  0
 21 16  1  0
 33 27  1  0
  3 35  1  0
  4 36  1  0
  4 37  1  0
  8 38  1  0
  8 39  1  0
  9 40  1  0
  9 41  1  0
 10 42  1  0
 10 43  1  0
 11 44  1  0
 11 45  1  0
 12 46  1  1
 17 47  1  0
 18 48  1  0
 19 49  1  0
 20 50  1  0
 21 51  1  0
 22 52  1  0
 25 53  1  0
 26 54  1  0
 28 55  1  0
 31 56  1  0
 32 57  1  0
M  END
>  <smiles>  (29) 
O=C(NCC(=O)N1CCCC[C@H]1c1nc(-c2ccccc2)cs1)c1ccc2cc(F)ccc2n1

>  <score_type>  (29) 
oracle

>  <origin>  (29) 
autodockgpu

>  <m_score__min__energy>  (29) 
-10

>  <m_primary>  (29) 
energy

>  <rmsd>  (29) 
8.098609310857777

>  <m_score__min__rmsd>  (29) 
8.098609310857777

>  <meeko>  (29) 
{"free_energy": -7.09, "intermolecular_energy": -8.88, "internal_energy": -3.51, "cluster_size": 1, "cluster_id": 8, "rank_in_cluster": 1}

>  <energy>  (29) 
-7.85

>  <cluster_rmsd>  (29) 
0.0

>  <cluster>  (29) 
6

$$$$

     RDKit          3D

 57 61  0  0  0  0  0  0  0  0999 V2000
  141.0900   72.0840  221.2860 O   0  0  0  0  0  0  0  0  0  0  0  0
  140.4360   72.4110  222.3240 C   0  0  0  0  0  0  0  0  0  0  0  0
  139.9090   73.7640  222.2800 N   0  0  0  0  0  0  0  0  0  0  0  0
  140.2070   74.5120  221.1010 C   0  0  0  0  0  0  0  0  0  0  0  0
  139.8950   75.9180  221.0140 C   0  0  0  0  0  0  0  0  0  0  0  0
  139.4310   76.2680  219.8320 O   0  0  0  0  0  0  0  0  0  0  0  0
  139.9800   76.9710  221.9150 N   0  0  0  0  0  0  0  0  0  0  0  0
  141.1490   77.8170  222.1980 C   0  0  0  0  0  0  0  0  0  0  0  0
  140.8480   79.2430  221.8520 C   0  0  0  0  0  0  0  0  0  0  0  0
  139.4500   79.6950  222.0360 C   0  0  0  0  0  0  0  0  0  0  0  0
  138.3670   78.6760  222.0310 C   0  0  0  0  0  0  0  0  0  0  0  0
  138.8150   77.4410  222.7190 C   0  0  1  0  0  0  0  0  0  0  0  0
  137.7190   76.4490  222.7490 C   0  0  0  0  0  0  0  0  0  0  0  0
  137.5910   75.2730  222.7250 N   0  0  0  0  0  0  0  0  0  0  0  0
  136.5090   74.5360  222.7070 C   0  0  0  0  0  0  0  0  0  0  0  0
  136.4340   73.0800  222.6780 C   0  0  0  0  0  0  0  0  0  0  0  0
  136.1420   72.3700  223.8320 C   0  0  0  0  0  0  0  0  0  0  0  0
  136.0630   70.9920  223.8380 C   0  0  0  0  0  0  0  0  0  0  0  0
  136.2850   70.2980  222.6450 C   0  0  0  0  0  0  0  0  0  0  0  0
  136.5810   70.9880  221.4680 C   0  0  0  0  0  0  0  0  0  0  0  0
  136.6420   72.3600  221.5390 C   0  0  0  0  0  0  0  0  0  0  0  0
  135.3310   75.3320  222.7170 C   0  0  0  0  0  0  0  0  0  0  0  0
  135.9540   77.0630  222.7530 S   0  0  0  0  0  0  0  0  0  0  0  0
  140.2230   71.5390  223.4520 C   0  0  0  0  0  0  0  0  0  0  0  0
  139.5710   70.3430  223.2280 C   0  0  0  0  0  0  0  0  0  0  0  0
  139.3740   69.5130  224.3280 C   0  0  0  0  0  0  0  0  0  0  0  0
  139.8180   69.8790  225.6000 C   0  0  0  0  0  0  0  0  0  0  0  0
  139.6420   69.0890  226.7040 C   0  0  0  0  0  0  0  0  0  0  0  0
  140.1080   69.5140  227.9390 C   0  0  0  0  0  0  0  0  0  0  0  0
  139.9540   68.7590  229.0670 F   0  0  0  0  0  0  0  0  0  0  0  0
  140.7520   70.7410  228.0530 C   0  0  0  0  0  0  0  0  0  0  0  0
  140.9410   71.5560  226.9500 C   0  0  0  0  0  0  0  0  0  0  0  0
  140.4590   71.0870  225.7480 C   0  0  0  0  0  0  0  0  0  0  0  0
  140.6470   71.8880  224.6730 N   0  0  0  0  0  0  0  0  0  0  0  0
  139.3550   74.1090  223.0950 H   0  0  0  0  0  0  0  0  0  0  0  0
  141.2913   74.4217  220.9391 H   0  0  0  0  0  0  0  0  0  0  0  0
  139.5310   74.0678  220.3555 H   0  0  0  0  0  0  0  0  0  0  0  0
  141.3987   77.7469  223.2670 H   0  0  0  0  0  0  0  0  0  0  0  0
  141.9991   77.4711  221.5917 H   0  0  0  0  0  0  0  0  0  0  0  0
  141.4887   79.8798  222.4796 H   0  0  0  0  0  0  0  0  0  0  0  0
  141.0356   79.3221  220.7710 H   0  0  0  0  0  0  0  0  0  0  0  0
  139.4019   80.2149  223.0042 H   0  0  0  0  0  0  0  0  0  0  0  0
  139.2464   80.3078  221.1455 H   0  0  0  0  0  0  0  0  0  0  0  0
  137.4861   79.0810  222.5506 H   0  0  0  0  0  0  0  0  0  0  0  0
  138.1125   78.4314  220.9892 H   0  0  0  0  0  0  0  0  0  0  0  0
  139.0955   77.6049  223.7699 H   0  0  0  0  0  0  0  0  0  0  0  0
  135.9684   72.9198  224.7688 H   0  0  0  0  0  0  0  0  0  0  0  0
  135.8293   70.4491  224.7657 H   0  0  0  0  0  0  0  0  0  0  0  0
  136.2260   69.1996  222.6335 H   0  0  0  0  0  0  0  0  0  0  0  0
  136.7583   70.4556  220.5219 H   0  0  0  0  0  0  0  0  0  0  0  0
  136.8737   72.9127  220.6166 H   0  0  0  0  0  0  0  0  0  0  0  0
  134.2853   74.9908  222.7058 H   0  0  0  0  0  0  0  0  0  0  0  0
  139.2224   70.0584  222.2243 H   0  0  0  0  0  0  0  0  0  0  0  0
  138.8588   68.5506  224.1925 H   0  0  0  0  0  0  0  0  0  0  0  0
  139.1319   68.1188  226.6117 H   0  0  0  0  0  0  0  0  0  0  0  0
  141.1177   71.0699  229.0369 H   0  0  0  0  0  0  0  0  0  0  0  0
  141.4498   72.5280  227.0294 H   0  0  0  0  0  0  0  0  0  0  0  0
  1  2  2  0
  2  3  1  0
  3  4  1  0
  4  5  1  0
  5  6  2  0
  5  7  1  0
  7  8  1  0
  8  9  1  0
  9 10  1  0
 10 11  1  0
 11 12  1  0
 12 13  1  0
 13 14  2  0
 14 15  1  0
 15 16  1  0
 16 17  2  0
 17 18  1  0
 18 19  2  0
 19 20  1  0
 20 21  2  0
 15 22  2  0
 22 23  1  0
  2 24  1  0
 24 25  2  0
 25 26  1  0
 26 27  2  0
 27 28  1  0
 28 29  2  0
 29 30  1  0
 29 31  1  0
 31 32  2  0
 32 33  1  0
 33 34  2  0
 12  7  1  0
 23 13  1  0
 34 24  1  0
 21 16  1  0
 33 27  1  0
  3 35  1  0
  4 36  1  0
  4 37  1  0
  8 38  1  0
  8 39  1  0
  9 40  1  0
  9 41  1  0
 10 42  1  0
 10 43  1  0
 11 44  1  0
 11 45  1  0
 12 46  1  1
 17 47  1  0
 18 48  1  0
 19 49  1  0
 20 50  1  0
 21 51  1  0
 22 52  1  0
 25 53  1  0
 26 54  1  0
 28 55  1  0
 31 56  1  0
 32 57  1  0
M  END
>  <smiles>  (30) 
O=C(NCC(=O)N1CCCC[C@H]1c1nc(-c2ccccc2)cs1)c1ccc2cc(F)ccc2n1

>  <score_type>  (30) 
oracle

>  <origin>  (30) 
autodockgpu

>  <m_score__min__energy>  (30) 
-10

>  <m_primary>  (30) 
energy

>  <rmsd>  (30) 
5.894315956151699

>  <m_score__min__rmsd>  (30) 
5.894315956151699

>  <meeko>  (30) 
{"free_energy": -7.41, "intermolecular_energy": -9.2, "internal_energy": -3.5, "cluster_size": 5, "cluster_id": 6, "rank_in_cluster": 5}

>  <energy>  (30) 
-7.78

>  <cluster_rmsd>  (30) 
1.29

>  <cluster>  (30) 
6

$$$$

     RDKit          3D

 57 61  0  0  0  0  0  0  0  0999 V2000
  143.4980   76.0980  217.8150 O   0  0  0  0  0  0  0  0  0  0  0  0
  142.4960   76.3240  218.5610 C   0  0  0  0  0  0  0  0  0  0  0  0
  141.5370   75.2340  218.5980 N   0  0  0  0  0  0  0  0  0  0  0  0
  141.8560   74.0940  217.7990 C   0  0  0  0  0  0  0  0  0  0  0  0
  142.2790   72.8550  218.4070 C   0  0  0  0  0  0  0  0  0  0  0  0
  141.6260   71.8090  217.9430 O   0  0  0  0  0  0  0  0  0  0  0  0
  143.2280   72.5400  219.3700 N   0  0  0  0  0  0  0  0  0  0  0  0
  144.4600   71.7570  219.1910 C   0  0  0  0  0  0  0  0  0  0  0  0
  145.6560   72.6040  219.4980 C   0  0  0  0  0  0  0  0  0  0  0  0
  145.4910   73.6410  220.5430 C   0  0  0  0  0  0  0  0  0  0  0  0
  144.1230   74.1390  220.8410 C   0  0  0  0  0  0  0  0  0  0  0  0
  143.1430   73.0270  220.7770 C   0  0  1  0  0  0  0  0  0  0  0  0
  141.7910   73.5220  221.1170 C   0  0  0  0  0  0  0  0  0  0  0  0
  141.2120   74.5530  221.1570 N   0  0  0  0  0  0  0  0  0  0  0  0
  139.9910   74.8280  221.5420 C   0  0  0  0  0  0  0  0  0  0  0  0
  139.3450   76.1350  221.5610 C   0  0  0  0  0  0  0  0  0  0  0  0
  139.1030   76.8150  220.3780 C   0  0  0  0  0  0  0  0  0  0  0  0
  138.4930   78.0540  220.3630 C   0  0  0  0  0  0  0  0  0  0  0  0
  138.1110   78.6330  221.5760 C   0  0  0  0  0  0  0  0  0  0  0  0
  138.3430   77.9700  222.7820 C   0  0  0  0  0  0  0  0  0  0  0  0
  138.9540   76.7400  222.7190 C   0  0  0  0  0  0  0  0  0  0  0  0
  139.3010   73.6620  221.9710 C   0  0  0  0  0  0  0  0  0  0  0  0
  140.5250   72.3050  221.7570 S   0  0  0  0  0  0  0  0  0  0  0  0
  142.3060   77.5410  219.3100 C   0  0  0  0  0  0  0  0  0  0  0  0
  142.2980   78.7320  218.6140 C   0  0  0  0  0  0  0  0  0  0  0  0
  142.1140   79.8980  219.3530 C   0  0  0  0  0  0  0  0  0  0  0  0
  141.9440   79.8570  220.7380 C   0  0  0  0  0  0  0  0  0  0  0  0
  141.7600   80.9820  221.4970 C   0  0  0  0  0  0  0  0  0  0  0  0
  141.5990   80.8700  222.8690 C   0  0  0  0  0  0  0  0  0  0  0  0
  141.4130   81.9630  223.6660 F   0  0  0  0  0  0  0  0  0  0  0  0
  141.6240   79.6170  223.4720 C   0  0  0  0  0  0  0  0  0  0  0  0
  141.8090   78.4660  222.7240 C   0  0  0  0  0  0  0  0  0  0  0  0
  141.9640   78.6330  221.3650 C   0  0  0  0  0  0  0  0  0  0  0  0
  142.1440   77.5050  220.6390 N   0  0  0  0  0  0  0  0  0  0  0  0
  140.6850   75.3400  219.1930 H   0  0  0  0  0  0  0  0  0  0  0  0
  140.9557   73.8624  217.2109 H   0  0  0  0  0  0  0  0  0  0  0  0
  142.7585   74.4202  217.2614 H   0  0  0  0  0  0  0  0  0  0  0  0
  144.4430   70.8915  219.8696 H   0  0  0  0  0  0  0  0  0  0  0  0
  144.5201   71.4130  218.1479 H   0  0  0  0  0  0  0  0  0  0  0  0
  146.4651   71.9324  219.8208 H   0  0  0  0  0  0  0  0  0  0  0  0
  145.8598   73.1601  218.5711 H   0  0  0  0  0  0  0  0  0  0  0  0
  145.8960   73.2265  221.4780 H   0  0  0  0  0  0  0  0  0  0  0  0
  146.0130   74.5189  220.1345 H   0  0  0  0  0  0  0  0  0  0  0  0
  144.1085   74.5774  221.8498 H   0  0  0  0  0  0  0  0  0  0  0  0
  143.8494   74.8994  220.0947 H   0  0  0  0  0  0  0  0  0  0  0  0
  143.3526   72.2184  221.4927 H   0  0  0  0  0  0  0  0  0  0  0  0
  139.4049   76.3556  219.4252 H   0  0  0  0  0  0  0  0  0  0  0  0
  138.3109   78.5762  219.4122 H   0  0  0  0  0  0  0  0  0  0  0  0
  137.6236   79.6191  221.5804 H   0  0  0  0  0  0  0  0  0  0  0  0
  138.0488   78.4138  223.7445 H   0  0  0  0  0  0  0  0  0  0  0  0
  139.1396   76.2092  223.6644 H   0  0  0  0  0  0  0  0  0  0  0  0
  138.2695   73.5877  222.3458 H   0  0  0  0  0  0  0  0  0  0  0  0
  142.4312   78.7596  217.5224 H   0  0  0  0  0  0  0  0  0  0  0  0
  142.1024   80.8689  218.8360 H   0  0  0  0  0  0  0  0  0  0  0  0
  141.7400   81.9724  221.0187 H   0  0  0  0  0  0  0  0  0  0  0  0
  141.4946   79.5387  224.5616 H   0  0  0  0  0  0  0  0  0  0  0  0
  141.8311   77.4701  223.1907 H   0  0  0  0  0  0  0  0  0  0  0  0
  1  2  2  0
  2  3  1  0
  3  4  1  0
  4  5  1  0
  5  6  2  0
  5  7  1  0
  7  8  1  0
  8  9  1  0
  9 10  1  0
 10 11  1  0
 11 12  1  0
 12 13  1  0
 13 14  2  0
 14 15  1  0
 15 16  1  0
 16 17  2  0
 17 18  1  0
 18 19  2  0
 19 20  1  0
 20 21  2  0
 15 22  2  0
 22 23  1  0
  2 24  1  0
 24 25  2  0
 25 26  1  0
 26 27  2  0
 27 28  1  0
 28 29  2  0
 29 30  1  0
 29 31  1  0
 31 32  2  0
 32 33  1  0
 33 34  2  0
 12  7  1  0
 23 13  1  0
 34 24  1  0
 21 16  1  0
 33 27  1  0
  3 35  1  0
  4 36  1  0
  4 37  1  0
  8 38  1  0
  8 39  1  0
  9 40  1  0
  9 41  1  0
 10 42  1  0
 10 43  1  0
 11 44  1  0
 11 45  1  0
 12 46  1  1
 17 47  1  0
 18 48  1  0
 19 49  1  0
 20 50  1  0
 21 51  1  0
 22 52  1  0
 25 53  1  0
 26 54  1  0
 28 55  1  0
 31 56  1  0
 32 57  1  0
M  END
>  <smiles>  (31) 
O=C(NCC(=O)N1CCCC[C@H]1c1nc(-c2ccccc2)cs1)c1ccc2cc(F)ccc2n1

>  <score_type>  (31) 
oracle

>  <origin>  (31) 
autodockgpu

>  <m_score__min__energy>  (31) 
-10

>  <m_primary>  (31) 
energy

>  <rmsd>  (31) 
7.959552199369992

>  <m_score__min__rmsd>  (31) 
7.959552199369992

>  <meeko>  (31) 
{"free_energy": -6.09, "intermolecular_energy": -7.88, "internal_energy": -4.49, "cluster_size": 1, "cluster_id": 9, "rank_in_cluster": 1}

>  <energy>  (31) 
-7.68

>  <cluster_rmsd>  (31) 
0.62

>  <cluster>  (31) 
6

$$$$

     RDKit          3D

 57 61  0  0  0  0  0  0  0  0999 V2000
  137.6630   76.1610  220.5160 O   0  0  0  0  0  0  0  0  0  0  0  0
  138.2560   76.2390  221.6350 C   0  0  0  0  0  0  0  0  0  0  0  0
  138.3070   74.9810  222.3590 N   0  0  0  0  0  0  0  0  0  0  0  0
  137.6880   73.8650  221.7170 C   0  0  0  0  0  0  0  0  0  0  0  0
  138.3230   73.2020  220.6040 C   0  0  0  0  0  0  0  0  0  0  0  0
  137.4870   72.4610  219.9050 O   0  0  0  0  0  0  0  0  0  0  0  0
  139.6230   73.1880  220.1170 N   0  0  0  0  0  0  0  0  0  0  0  0
  140.1010   73.6940  218.8220 C   0  0  0  0  0  0  0  0  0  0  0  0
  141.0880   74.8000  219.0340 C   0  0  0  0  0  0  0  0  0  0  0  0
  141.9410   74.7130  220.2420 C   0  0  0  0  0  0  0  0  0  0  0  0
  141.4630   73.9020  221.3930 C   0  0  0  0  0  0  0  0  0  0  0  0
  140.7770   72.6780  220.9130 C   0  0  1  0  0  0  0  0  0  0  0  0
  140.3430   71.8550  222.0630 C   0  0  0  0  0  0  0  0  0  0  0  0
  140.5140   71.8130  223.2330 N   0  0  0  0  0  0  0  0  0  0  0  0
  140.0790   70.9580  224.1250 C   0  0  0  0  0  0  0  0  0  0  0  0
  140.3350   70.9750  225.5610 C   0  0  0  0  0  0  0  0  0  0  0  0
  139.8220   69.9780  226.3750 C   0  0  0  0  0  0  0  0  0  0  0  0
  140.0460   69.9660  227.7380 C   0  0  0  0  0  0  0  0  0  0  0  0
  140.8130   70.9890  228.3050 C   0  0  0  0  0  0  0  0  0  0  0  0
  141.3410   72.0050  227.5070 C   0  0  0  0  0  0  0  0  0  0  0  0
  141.0760   71.9510  226.1590 C   0  0  0  0  0  0  0  0  0  0  0  0
  139.2810   69.9420  223.5330 C   0  0  0  0  0  0  0  0  0  0  0  0
  139.2650   70.3620  221.7420 S   0  0  0  0  0  0  0  0  0  0  0  0
  138.8330   77.4520  222.1600 C   0  0  0  0  0  0  0  0  0  0  0  0
  137.9780   78.4910  222.4660 C   0  0  0  0  0  0  0  0  0  0  0  0
  138.5520   79.6550  222.9710 C   0  0  0  0  0  0  0  0  0  0  0  0
  139.9310   79.7600  223.1590 C   0  0  0  0  0  0  0  0  0  0  0  0
  140.5300   80.8880  223.6530 C   0  0  0  0  0  0  0  0  0  0  0  0
  141.9070   80.9250  223.8140 C   0  0  0  0  0  0  0  0  0  0  0  0
  142.5470   82.0280  224.3030 F   0  0  0  0  0  0  0  0  0  0  0  0
  142.6760   79.8180  223.4720 C   0  0  0  0  0  0  0  0  0  0  0  0
  142.0910   78.6670  222.9700 C   0  0  0  0  0  0  0  0  0  0  0  0
  140.7210   78.6830  222.8300 C   0  0  0  0  0  0  0  0  0  0  0  0
  140.1550   77.5550  222.3400 N   0  0  0  0  0  0  0  0  0  0  0  0
  138.7830   74.9600  223.2880 H   0  0  0  0  0  0  0  0  0  0  0  0
  137.5399   73.1001  222.4935 H   0  0  0  0  0  0  0  0  0  0  0  0
  136.7975   74.3154  221.2542 H   0  0  0  0  0  0  0  0  0  0  0  0
  140.5847   72.8760  218.2679 H   0  0  0  0  0  0  0  0  0  0  0  0
  139.2455   74.0801  218.2485 H   0  0  0  0  0  0  0  0  0  0  0  0
  141.7532   74.8245  218.1583 H   0  0  0  0  0  0  0  0  0  0  0  0
  140.4792   75.7050  219.1767 H   0  0  0  0  0  0  0  0  0  0  0  0
  142.9071   74.2917  219.9273 H   0  0  0  0  0  0  0  0  0  0  0  0
  141.9634   75.7422  220.6296 H   0  0  0  0  0  0  0  0  0  0  0  0
  142.3228   73.6150  222.0162 H   0  0  0  0  0  0  0  0  0  0  0  0
  140.7531   74.5015  221.9818 H   0  0  0  0  0  0  0  0  0  0  0  0
  141.4225   72.0255  220.3068 H   0  0  0  0  0  0  0  0  0  0  0  0
  139.2206   69.1750  225.9240 H   0  0  0  0  0  0  0  0  0  0  0  0
  139.6284   69.1657  228.3666 H   0  0  0  0  0  0  0  0  0  0  0  0
  141.0016   70.9928  229.3887 H   0  0  0  0  0  0  0  0  0  0  0  0
  141.9450   72.8164  227.9392 H   0  0  0  0  0  0  0  0  0  0  0  0
  141.4886   72.7468  225.5215 H   0  0  0  0  0  0  0  0  0  0  0  0
  138.7854   69.0964  224.0323 H   0  0  0  0  0  0  0  0  0  0  0  0
  136.8915   78.4037  222.3177 H   0  0  0  0  0  0  0  0  0  0  0  0
  137.9062   80.5080  223.2266 H   0  0  0  0  0  0  0  0  0  0  0  0
  139.9201   81.7631  223.9216 H   0  0  0  0  0  0  0  0  0  0  0  0
  143.7676   79.8570  223.6023 H   0  0  0  0  0  0  0  0  0  0  0  0
  142.6899   77.7856  222.6972 H   0  0  0  0  0  0  0  0  0  0  0  0
  1  2  2  0
  2  3  1  0
  3  4  1  0
  4  5  1  0
  5  6  2  0
  5  7  1  0
  7  8  1  0
  8  9  1  0
  9 10  1  0
 10 11  1  0
 11 12  1  0
 12 13  1  0
 13 14  2  0
 14 15  1  0
 15 16  1  0
 16 17  2  0
 17 18  1  0
 18 19  2  0
 19 20  1  0
 20 21  2  0
 15 22  2  0
 22 23  1  0
  2 24  1  0
 24 25  2  0
 25 26  1  0
 26 27  2  0
 27 28  1  0
 28 29  2  0
 29 30  1  0
 29 31  1  0
 31 32  2  0
 32 33  1  0
 33 34  2  0
 12  7  1  0
 23 13  1  0
 34 24  1  0
 21 16  1  0
 33 27  1  0
  3 35  1  0
  4 36  1  0
  4 37  1  0
  8 38  1  0
  8 39  1  0
  9 40  1  0
  9 41  1  0
 10 42  1  0
 10 43  1  0
 11 44  1  0
 11 45  1  0
 12 46  1  6
 17 47  1  0
 18 48  1  0
 19 49  1  0
 20 50  1  0
 21 51  1  0
 22 52  1  0
 25 53  1  0
 26 54  1  0
 28 55  1  0
 31 56  1  0
 32 57  1  0
M  END
>  <smiles>  (32) 
O=C(NCC(=O)N1CCCC[C@H]1c1nc(-c2ccccc2)cs1)c1ccc2cc(F)ccc2n1

>  <score_type>  (32) 
oracle

>  <origin>  (32) 
autodockgpu

>  <m_score__min__energy>  (32) 
-10

>  <m_primary>  (32) 
energy

>  <rmsd>  (32) 
8.767462295154298

>  <m_score__min__rmsd>  (32) 
8.767462295154298

>  <meeko>  (32) 
{"free_energy": -8.84, "intermolecular_energy": -10.63, "internal_energy": -2.32, "cluster_size": 1, "cluster_id": 3, "rank_in_cluster": 1}

>  <energy>  (32) 
-7.67

>  <cluster_rmsd>  (32) 
0.71

>  <cluster>  (32) 
6

$$$$

     RDKit          3D

 57 61  0  0  0  0  0  0  0  0999 V2000
  139.3590   74.9400  222.1560 O   0  0  0  0  0  0  0  0  0  0  0  0
  140.4570   75.2340  221.5900 C   0  0  0  0  0  0  0  0  0  0  0  0
  140.6130   76.6520  221.3180 N   0  0  0  0  0  0  0  0  0  0  0  0
  139.5250   77.4870  221.7160 C   0  0  0  0  0  0  0  0  0  0  0  0
  139.4990   78.8880  221.3720 C   0  0  0  0  0  0  0  0  0  0  0  0
  138.5230   79.1930  220.5390 O   0  0  0  0  0  0  0  0  0  0  0  0
  140.2820   79.9750  221.7380 N   0  0  0  0  0  0  0  0  0  0  0  0
  139.9880   80.9860  222.7650 C   0  0  0  0  0  0  0  0  0  0  0  0
  141.0300   80.9450  223.8400 C   0  0  0  0  0  0  0  0  0  0  0  0
  142.4040   80.5760  223.4260 C   0  0  0  0  0  0  0  0  0  0  0  0
  142.5830   79.7920  222.1760 C   0  0  0  0  0  0  0  0  0  0  0  0
  141.6220   80.2430  221.1400 C   0  0  1  0  0  0  0  0  0  0  0  0
  141.8350   79.4880  219.8860 C   0  0  0  0  0  0  0  0  0  0  0  0
  142.0110   78.3680  219.5480 N   0  0  0  0  0  0  0  0  0  0  0  0
  142.2400   77.8640  218.3620 C   0  0  0  0  0  0  0  0  0  0  0  0
  142.4480   76.4610  218.0240 C   0  0  0  0  0  0  0  0  0  0  0  0
  143.6920   76.0160  217.6080 C   0  0  0  0  0  0  0  0  0  0  0  0
  143.9200   74.6940  217.2820 C   0  0  0  0  0  0  0  0  0  0  0  0
  142.8640   73.7830  217.3760 C   0  0  0  0  0  0  0  0  0  0  0  0
  141.6000   74.2040  217.7920 C   0  0  0  0  0  0  0  0  0  0  0  0
  141.4480   75.5360  218.1000 C   0  0  0  0  0  0  0  0  0  0  0  0
  142.2720   78.8720  217.3600 C   0  0  0  0  0  0  0  0  0  0  0  0
  141.9620   80.4350  218.2800 S   0  0  0  0  0  0  0  0  0  0  0  0
  141.4680   74.2680  221.2390 C   0  0  0  0  0  0  0  0  0  0  0  0
  141.0910   72.9440  221.1530 C   0  0  0  0  0  0  0  0  0  0  0  0
  142.0800   72.0240  220.8130 C   0  0  0  0  0  0  0  0  0  0  0  0
  143.3940   72.4300  220.5710 C   0  0  0  0  0  0  0  0  0  0  0  0
  144.3920   71.5550  220.2350 C   0  0  0  0  0  0  0  0  0  0  0  0
  145.6760   72.0260  220.0090 C   0  0  0  0  0  0  0  0  0  0  0  0
  146.7030   71.1910  219.6720 F   0  0  0  0  0  0  0  0  0  0  0  0
  145.9480   73.3850  220.1240 C   0  0  0  0  0  0  0  0  0  0  0  0
  144.9540   74.2880  220.4630 C   0  0  0  0  0  0  0  0  0  0  0  0
  143.6960   73.7680  220.6770 C   0  0  0  0  0  0  0  0  0  0  0  0
  142.7280   74.6550  221.0070 N   0  0  0  0  0  0  0  0  0  0  0  0
  141.4910   76.9770  220.8570 H   0  0  0  0  0  0  0  0  0  0  0  0
  138.6157   77.0423  221.2854 H   0  0  0  0  0  0  0  0  0  0  0  0
  139.6248   77.5087  222.8113 H   0  0  0  0  0  0  0  0  0  0  0  0
  139.9818   81.9838  222.3021 H   0  0  0  0  0  0  0  0  0  0  0  0
  139.0042   80.7733  223.2086 H   0  0  0  0  0  0  0  0  0  0  0  0
  141.0772   81.9450  224.2958 H   0  0  0  0  0  0  0  0  0  0  0  0
  140.7095   80.1424  224.5205 H   0  0  0  0  0  0  0  0  0  0  0  0
  142.9690   81.5121  223.3056 H   0  0  0  0  0  0  0  0  0  0  0  0
  142.7510   79.8985  224.2201 H   0  0  0  0  0  0  0  0  0  0  0  0
  143.6088   79.9320  221.8042 H   0  0  0  0  0  0  0  0  0  0  0  0
  142.4009   78.7290  222.3926 H   0  0  0  0  0  0  0  0  0  0  0  0
  141.7356   81.3037  220.8716 H   0  0  0  0  0  0  0  0  0  0  0  0
  144.5208   76.7356  217.5354 H   0  0  0  0  0  0  0  0  0  0  0  0
  144.9163   74.3630  216.9537 H   0  0  0  0  0  0  0  0  0  0  0  0
  143.0305   72.7262  217.1202 H   0  0  0  0  0  0  0  0  0  0  0  0
  140.7592   73.4991  217.8704 H   0  0  0  0  0  0  0  0  0  0  0  0
  140.4555   75.8776  218.4290 H   0  0  0  0  0  0  0  0  0  0  0  0
  142.4431   78.7462  216.2807 H   0  0  0  0  0  0  0  0  0  0  0  0
  140.0548   72.6285  221.3445 H   0  0  0  0  0  0  0  0  0  0  0  0
  141.8212   70.9578  220.7337 H   0  0  0  0  0  0  0  0  0  0  0  0
  144.1753   70.4803  220.1446 H   0  0  0  0  0  0  0  0  0  0  0  0
  146.9701   73.7490  219.9426 H   0  0  0  0  0  0  0  0  0  0  0  0
  145.1583   75.3648  220.5566 H   0  0  0  0  0  0  0  0  0  0  0  0
  1  2  2  0
  2  3  1  0
  3  4  1  0
  4  5  1  0
  5  6  2  0
  5  7  1  0
  7  8  1  0
  8  9  1  0
  9 10  1  0
 10 11  1  0
 11 12  1  0
 12 13  1  0
 13 14  2  0
 14 15  1  0
 15 16  1  0
 16 17  2  0
 17 18  1  0
 18 19  2  0
 19 20  1  0
 20 21  2  0
 15 22  2  0
 22 23  1  0
  2 24  1  0
 24 25  2  0
 25 26  1  0
 26 27  2  0
 27 28  1  0
 28 29  2  0
 29 30  1  0
 29 31  1  0
 31 32  2  0
 32 33  1  0
 33 34  2  0
 12  7  1  0
 23 13  1  0
 34 24  1  0
 21 16  1  0
 33 27  1  0
  3 35  1  0
  4 36  1  0
  4 37  1  0
  8 38  1  0
  8 39  1  0
  9 40  1  0
  9 41  1  0
 10 42  1  0
 10 43  1  0
 11 44  1  0
 11 45  1  0
 12 46  1  6
 17 47  1  0
 18 48  1  0
 19 49  1  0
 20 50  1  0
 21 51  1  0
 22 52  1  0
 25 53  1  0
 26 54  1  0
 28 55  1  0
 31 56  1  0
 32 57  1  0
M  END
>  <smiles>  (33) 
O=C(NCC(=O)N1CCCC[C@H]1c1nc(-c2ccccc2)cs1)c1ccc2cc(F)ccc2n1

>  <score_type>  (33) 
oracle

>  <origin>  (33) 
autodockgpu

>  <m_score__min__energy>  (33) 
-10

>  <m_primary>  (33) 
energy

>  <rmsd>  (33) 
7.013972892829337

>  <m_score__min__rmsd>  (33) 
7.013972892829337

>  <meeko>  (33) 
{"free_energy": -6.82, "intermolecular_energy": -8.61, "internal_energy": -4.27, "cluster_size": 15, "cluster_id": 7, "rank_in_cluster": 12}

>  <energy>  (33) 
-7.41

>  <cluster_rmsd>  (33) 
0.84

>  <cluster>  (33) 
6

$$$$

     RDKit          3D

 57 61  0  0  0  0  0  0  0  0999 V2000
  139.1860   71.5840  220.8300 O   0  0  0  0  0  0  0  0  0  0  0  0
  138.9950   72.0550  221.9940 C   0  0  0  0  0  0  0  0  0  0  0  0
  138.5680   73.4430  222.0010 N   0  0  0  0  0  0  0  0  0  0  0  0
  138.4350   74.0610  220.7200 C   0  0  0  0  0  0  0  0  0  0  0  0
  139.2400   75.2030  220.3590 C   0  0  0  0  0  0  0  0  0  0  0  0
  138.9900   75.6410  219.1410 O   0  0  0  0  0  0  0  0  0  0  0  0
  140.2140   75.9330  221.0270 N   0  0  0  0  0  0  0  0  0  0  0  0
  141.6690   75.8860  220.8200 C   0  0  0  0  0  0  0  0  0  0  0  0
  142.1690   77.2240  220.3700 C   0  0  0  0  0  0  0  0  0  0  0  0
  141.4560   78.4130  220.8920 C   0  0  0  0  0  0  0  0  0  0  0  0
  140.0540   78.2540  221.3600 C   0  0  0  0  0  0  0  0  0  0  0  0
  139.8880   76.9570  222.0600 C   0  0  1  0  0  0  0  0  0  0  0  0
  138.5020   76.8250  222.5610 C   0  0  0  0  0  0  0  0  0  0  0  0
  137.8270   76.0070  223.0840 N   0  0  0  0  0  0  0  0  0  0  0  0
  136.5630   76.0400  223.4250 C   0  0  0  0  0  0  0  0  0  0  0  0
  135.7960   74.9810  224.0730 C   0  0  0  0  0  0  0  0  0  0  0  0
  135.8220   73.6900  223.5710 C   0  0  0  0  0  0  0  0  0  0  0  0
  135.1070   72.6660  224.1610 C   0  0  0  0  0  0  0  0  0  0  0  0
  134.3380   72.9460  225.2950 C   0  0  0  0  0  0  0  0  0  0  0  0
  134.2950   74.2380  225.8210 C   0  0  0  0  0  0  0  0  0  0  0  0
  135.0320   75.2060  225.1800 C   0  0  0  0  0  0  0  0  0  0  0  0
  135.9590   77.2810  223.0870 C   0  0  0  0  0  0  0  0  0  0  0  0
  137.3180   78.2490  222.3110 S   0  0  0  0  0  0  0  0  0  0  0  0
  139.1800   71.3010  223.2090 C   0  0  0  0  0  0  0  0  0  0  0  0
  138.5800   70.0610  223.2950 C   0  0  0  0  0  0  0  0  0  0  0  0
  138.7690   69.3460  224.4750 C   0  0  0  0  0  0  0  0  0  0  0  0
  139.5320   69.8660  225.5220 C   0  0  0  0  0  0  0  0  0  0  0  0
  139.7390   69.1930  226.6960 C   0  0  0  0  0  0  0  0  0  0  0  0
  140.5080   69.7690  227.6960 C   0  0  0  0  0  0  0  0  0  0  0  0
  140.7400   69.1350  228.8840 F   0  0  0  0  0  0  0  0  0  0  0  0
  141.0660   71.0270  227.5050 C   0  0  0  0  0  0  0  0  0  0  0  0
  140.8700   71.7260  226.3260 C   0  0  0  0  0  0  0  0  0  0  0  0
  140.0990   71.1100  225.3650 C   0  0  0  0  0  0  0  0  0  0  0  0
  139.9110   71.7970  224.2150 N   0  0  0  0  0  0  0  0  0  0  0  0
  138.3860   73.9030  222.9200 H   0  0  0  0  0  0  0  0  0  0  0  0
  138.6454   73.2813  219.9732 H   0  0  0  0  0  0  0  0  0  0  0  0
  137.4199   74.4830  220.7590 H   0  0  0  0  0  0  0  0  0  0  0  0
  142.1621   75.6123  221.7645 H   0  0  0  0  0  0  0  0  0  0  0  0
  141.8984   75.1377  220.0471 H   0  0  0  0  0  0  0  0  0  0  0  0
  143.2222   77.3062  220.6767 H   0  0  0  0  0  0  0  0  0  0  0  0
  142.0030   77.2428  219.2828 H   0  0  0  0  0  0  0  0  0  0  0  0
  142.0404   78.7939  221.7425 H   0  0  0  0  0  0  0  0  0  0  0  0
  141.3737   79.0799  220.0211 H   0  0  0  0  0  0  0  0  0  0  0  0
  139.8072   79.0734  222.0512 H   0  0  0  0  0  0  0  0  0  0  0  0
  139.3817   78.2791  220.4897 H   0  0  0  0  0  0  0  0  0  0  0  0
  140.5356   76.8520  222.9430 H   0  0  0  0  0  0  0  0  0  0  0  0
  136.4282   73.4747  222.6787 H   0  0  0  0  0  0  0  0  0  0  0  0
  135.1419   71.6479  223.7460 H   0  0  0  0  0  0  0  0  0  0  0  0
  133.7624   72.1415  225.7762 H   0  0  0  0  0  0  0  0  0  0  0  0
  133.6954   74.4727  226.7129 H   0  0  0  0  0  0  0  0  0  0  0  0
  135.0034   76.2278  225.5864 H   0  0  0  0  0  0  0  0  0  0  0  0
  134.9168   77.5921  223.2517 H   0  0  0  0  0  0  0  0  0  0  0  0
  137.9790   69.6553  222.4678 H   0  0  0  0  0  0  0  0  0  0  0  0
  138.3085   68.3530  224.5841 H   0  0  0  0  0  0  0  0  0  0  0  0
  139.2962   68.1973  226.8458 H   0  0  0  0  0  0  0  0  0  0  0  0
  141.6741   71.4755  228.3044 H   0  0  0  0  0  0  0  0  0  0  0  0
  141.3076   72.7223  226.1650 H   0  0  0  0  0  0  0  0  0  0  0  0
  1  2  2  0
  2  3  1  0
  3  4  1  0
  4  5  1  0
  5  6  2  0
  5  7  1  0
  7  8  1  0
  8  9  1  0
  9 10  1  0
 10 11  1  0
 11 12  1  0
 12 13  1  0
 13 14  2  0
 14 15  1  0
 15 16  1  0
 16 17  2  0
 17 18  1  0
 18 19  2  0
 19 20  1  0
 20 21  2  0
 15 22  2  0
 22 23  1  0
  2 24  1  0
 24 25  2  0
 25 26  1  0
 26 27  2  0
 27 28  1  0
 28 29  2  0
 29 30  1  0
 29 31  1  0
 31 32  2  0
 32 33  1  0
 33 34  2  0
 12  7  1  0
 23 13  1  0
 34 24  1  0
 21 16  1  0
 33 27  1  0
  3 35  1  0
  4 36  1  0
  4 37  1  0
  8 38  1  0
  8 39  1  0
  9 40  1  0
  9 41  1  0
 10 42  1  0
 10 43  1  0
 11 44  1  0
 11 45  1  0
 12 46  1  1
 17 47  1  0
 18 48  1  0
 19 49  1  0
 20 50  1  0
 21 51  1  0
 22 52  1  0
 25 53  1  0
 26 54  1  0
 28 55  1  0
 31 56  1  0
 32 57  1  0
M  END
>  <smiles>  (34) 
O=C(NCC(=O)N1CCCC[C@H]1c1nc(-c2ccccc2)cs1)c1ccc2cc(F)ccc2n1

>  <score_type>  (34) 
oracle

>  <origin>  (34) 
autodockgpu

>  <m_score__min__energy>  (34) 
-10

>  <m_primary>  (34) 
energy

>  <rmsd>  (34) 
5.197087239551436

>  <m_score__min__rmsd>  (34) 
5.197087239551436

>  <meeko>  (34) 
{"free_energy": -7.78, "intermolecular_energy": -9.57, "internal_energy": -3.08, "cluster_size": 5, "cluster_id": 6, "rank_in_cluster": 2}

>  <energy>  (34) 
-7.29

>  <cluster_rmsd>  (34) 
0.0

>  <cluster>  (34) 
7

$$$$

     RDKit          3D

 57 61  0  0  0  0  0  0  0  0999 V2000
  140.7680   71.9080  221.1400 O   0  0  0  0  0  0  0  0  0  0  0  0
  140.3090   72.3200  222.2500 C   0  0  0  0  0  0  0  0  0  0  0  0
  139.9470   73.7260  222.2480 N   0  0  0  0  0  0  0  0  0  0  0  0
  140.1630   74.4250  221.0210 C   0  0  0  0  0  0  0  0  0  0  0  0
  139.3480   75.5590  220.6590 C   0  0  0  0  0  0  0  0  0  0  0  0
  138.3360   75.2350  219.8790 O   0  0  0  0  0  0  0  0  0  0  0  0
  139.4070   76.9130  220.9640 N   0  0  0  0  0  0  0  0  0  0  0  0
  138.3130   77.7730  221.4380 C   0  0  0  0  0  0  0  0  0  0  0  0
  138.6340   78.3130  222.7980 C   0  0  0  0  0  0  0  0  0  0  0  0
  140.0620   78.5700  223.0940 C   0  0  0  0  0  0  0  0  0  0  0  0
  141.0940   77.8370  222.3150 C   0  0  0  0  0  0  0  0  0  0  0  0
  140.6720   77.7000  220.8990 C   0  0  1  0  0  0  0  0  0  0  0  0
  141.7220   77.0090  220.1200 C   0  0  0  0  0  0  0  0  0  0  0  0
  142.4490   76.0840  220.2450 N   0  0  0  0  0  0  0  0  0  0  0  0
  143.3840   75.6240  219.4520 C   0  0  0  0  0  0  0  0  0  0  0  0
  144.2440   74.4680  219.6780 C   0  0  0  0  0  0  0  0  0  0  0  0
  145.2360   74.5110  220.6440 C   0  0  0  0  0  0  0  0  0  0  0  0
  146.0660   73.4340  220.8820 C   0  0  0  0  0  0  0  0  0  0  0  0
  145.8960   72.2700  220.1250 C   0  0  0  0  0  0  0  0  0  0  0  0
  144.9040   72.2000  219.1460 C   0  0  0  0  0  0  0  0  0  0  0  0
  144.1160   73.3120  218.9650 C   0  0  0  0  0  0  0  0  0  0  0  0
  143.4980   76.4030  218.2680 C   0  0  0  0  0  0  0  0  0  0  0  0
  142.2200   77.7130  218.4630 S   0  0  0  0  0  0  0  0  0  0  0  0
  140.1540   71.4870  223.4170 C   0  0  0  0  0  0  0  0  0  0  0  0
  139.5320   70.2660  223.2590 C   0  0  0  0  0  0  0  0  0  0  0  0
  139.3910   69.4750  224.3960 C   0  0  0  0  0  0  0  0  0  0  0  0
  139.8600   69.9030  225.6390 C   0  0  0  0  0  0  0  0  0  0  0  0
  139.7400   69.1530  226.7780 C   0  0  0  0  0  0  0  0  0  0  0  0
  140.2280   69.6390  227.9810 C   0  0  0  0  0  0  0  0  0  0  0  0
  140.1290   68.9260  229.1420 F   0  0  0  0  0  0  0  0  0  0  0  0
  140.8390   70.8870  228.0280 C   0  0  0  0  0  0  0  0  0  0  0  0
  140.9720   71.6630  226.8890 C   0  0  0  0  0  0  0  0  0  0  0  0
  140.4700   71.1340  225.7210 C   0  0  0  0  0  0  0  0  0  0  0  0
  140.6040   71.8960  224.6100 N   0  0  0  0  0  0  0  0  0  0  0  0
  139.5580   74.1410  223.1240 H   0  0  0  0  0  0  0  0  0  0  0  0
  141.2033   74.7818  221.0431 H   0  0  0  0  0  0  0  0  0  0  0  0
  139.8863   73.6765  220.2640 H   0  0  0  0  0  0  0  0  0  0  0  0
  138.1784   78.6099  220.7369 H   0  0  0  0  0  0  0  0  0  0  0  0
  137.3883   77.1800  221.4955 H   0  0  0  0  0  0  0  0  0  0  0  0
  138.0935   79.2639  222.9146 H   0  0  0  0  0  0  0  0  0  0  0  0
  138.3321   77.5222  223.5005 H   0  0  0  0  0  0  0  0  0  0  0  0
  140.2378   79.6441  222.9346 H   0  0  0  0  0  0  0  0  0  0  0  0
  140.1924   78.2033  224.1228 H   0  0  0  0  0  0  0  0  0  0  0  0
  142.0429   78.3916  222.3585 H   0  0  0  0  0  0  0  0  0  0  0  0
  141.2226   76.8340  222.7479 H   0  0  0  0  0  0  0  0  0  0  0  0
  140.5157   78.6653  220.3953 H   0  0  0  0  0  0  0  0  0  0  0  0
  145.3658   75.4281  221.2374 H   0  0  0  0  0  0  0  0  0  0  0  0
  146.8478   73.4901  221.6538 H   0  0  0  0  0  0  0  0  0  0  0  0
  146.5494   71.4031  220.3028 H   0  0  0  0  0  0  0  0  0  0  0  0
  144.7584   71.2915  218.5432 H   0  0  0  0  0  0  0  0  0  0  0  0
  143.3314   73.2666  218.1953 H   0  0  0  0  0  0  0  0  0  0  0  0
  144.1918   76.2562  217.4272 H   0  0  0  0  0  0  0  0  0  0  0  0
  139.1636   69.9320  222.2778 H   0  0  0  0  0  0  0  0  0  0  0  0
  138.9006   68.4939  224.3131 H   0  0  0  0  0  0  0  0  0  0  0  0
  139.2568   68.1656  226.7386 H   0  0  0  0  0  0  0  0  0  0  0  0
  141.2235   71.2646  228.9870 H   0  0  0  0  0  0  0  0  0  0  0  0
  141.4540   72.6514  226.9158 H   0  0  0  0  0  0  0  0  0  0  0  0
  1  2  2  0
  2  3  1  0
  3  4  1  0
  4  5  1  0
  5  6  2  0
  5  7  1  0
  7  8  1  0
  8  9  1  0
  9 10  1  0
 10 11  1  0
 11 12  1  0
 12 13  1  0
 13 14  2  0
 14 15  1  0
 15 16  1  0
 16 17  2  0
 17 18  1  0
 18 19  2  0
 19 20  1  0
 20 21  2  0
 15 22  2  0
 22 23  1  0
  2 24  1  0
 24 25  2  0
 25 26  1  0
 26 27  2  0
 27 28  1  0
 28 29  2  0
 29 30  1  0
 29 31  1  0
 31 32  2  0
 32 33  1  0
 33 34  2  0
 12  7  1  0
 23 13  1  0
 34 24  1  0
 21 16  1  0
 33 27  1  0
  3 35  1  0
  4 36  1  0
  4 37  1  0
  8 38  1  0
  8 39  1  0
  9 40  1  0
  9 41  1  0
 10 42  1  0
 10 43  1  0
 11 44  1  0
 11 45  1  0
 12 46  1  6
 17 47  1  0
 18 48  1  0
 19 49  1  0
 20 50  1  0
 21 51  1  0
 22 52  1  0
 25 53  1  0
 26 54  1  0
 28 55  1  0
 31 56  1  0
 32 57  1  0
M  END
>  <smiles>  (35) 
O=C(NCC(=O)N1CCCC[C@H]1c1nc(-c2ccccc2)cs1)c1ccc2cc(F)ccc2n1

>  <score_type>  (35) 
oracle

>  <origin>  (35) 
autodockgpu

>  <m_score__min__energy>  (35) 
-10

>  <m_primary>  (35) 
energy

>  <rmsd>  (35) 
5.390281445797027

>  <m_score__min__rmsd>  (35) 
5.390281445797027

>  <meeko>  (35) 
{"free_energy": -9.35, "intermolecular_energy": -11.14, "internal_energy": -1.87, "cluster_size": 20, "cluster_id": 1, "rank_in_cluster": 12}

>  <energy>  (35) 
-7.26

>  <cluster_rmsd>  (35) 
0.23

>  <cluster>  (35) 
7

$$$$

     RDKit          3D

 57 61  0  0  0  0  0  0  0  0999 V2000
  141.0290   73.6270  221.6160 O   0  0  0  0  0  0  0  0  0  0  0  0
  140.0220   73.3190  222.3260 C   0  0  0  0  0  0  0  0  0  0  0  0
  138.9510   74.3000  222.2780 N   0  0  0  0  0  0  0  0  0  0  0  0
  139.1900   75.4450  221.4600 C   0  0  0  0  0  0  0  0  0  0  0  0
  140.0290   76.5250  221.9200 C   0  0  0  0  0  0  0  0  0  0  0  0
  140.9920   76.1190  222.7230 O   0  0  0  0  0  0  0  0  0  0  0  0
  140.0340   77.8950  221.6890 N   0  0  0  0  0  0  0  0  0  0  0  0
  139.0610   78.8870  222.1690 C   0  0  0  0  0  0  0  0  0  0  0  0
  139.7380   79.8850  223.0570 C   0  0  0  0  0  0  0  0  0  0  0  0
  141.1490   80.2090  222.7440 C   0  0  0  0  0  0  0  0  0  0  0  0
  141.9510   79.2230  221.9730 C   0  0  0  0  0  0  0  0  0  0  0  0
  141.1170   78.5810  220.9280 C   0  0  1  0  0  0  0  0  0  0  0  0
  141.9320   77.6340  220.1380 C   0  0  0  0  0  0  0  0  0  0  0  0
  142.5220   76.6220  220.3070 N   0  0  0  0  0  0  0  0  0  0  0  0
  143.2580   75.9200  219.4820 C   0  0  0  0  0  0  0  0  0  0  0  0
  143.9580   74.6720  219.7680 C   0  0  0  0  0  0  0  0  0  0  0  0
  143.4710   73.4690  219.2840 C   0  0  0  0  0  0  0  0  0  0  0  0
  144.1100   72.2710  219.5380 C   0  0  0  0  0  0  0  0  0  0  0  0
  145.2800   72.2790  220.3020 C   0  0  0  0  0  0  0  0  0  0  0  0
  145.7930   73.4780  220.8020 C   0  0  0  0  0  0  0  0  0  0  0  0
  145.1020   74.6300  220.5090 C   0  0  0  0  0  0  0  0  0  0  0  0
  143.3210   76.5180  218.1940 C   0  0  0  0  0  0  0  0  0  0  0  0
  142.2940   78.0370  218.3490 S   0  0  0  0  0  0  0  0  0  0  0  0
  139.9280   72.1150  223.1130 C   0  0  0  0  0  0  0  0  0  0  0  0
  139.2370   71.0480  222.5770 C   0  0  0  0  0  0  0  0  0  0  0  0
  139.1560   69.8930  223.3510 C   0  0  0  0  0  0  0  0  0  0  0  0
  139.7500   69.8230  224.6120 C   0  0  0  0  0  0  0  0  0  0  0  0
  139.6910   68.7060  225.4010 C   0  0  0  0  0  0  0  0  0  0  0  0
  140.3030   68.7050  226.6450 C   0  0  0  0  0  0  0  0  0  0  0  0
  140.2690   67.6130  227.4660 F   0  0  0  0  0  0  0  0  0  0  0  0
  140.9740   69.8380  227.0900 C   0  0  0  0  0  0  0  0  0  0  0  0
  141.0460   70.9800  226.3090 C   0  0  0  0  0  0  0  0  0  0  0  0
  140.4220   70.9280  225.0820 C   0  0  0  0  0  0  0  0  0  0  0  0
  140.4960   72.0460  224.3230 N   0  0  0  0  0  0  0  0  0  0  0  0
  138.0850   74.1180  222.8320 H   0  0  0  0  0  0  0  0  0  0  0  0
  139.6405   75.0745  220.5274 H   0  0  0  0  0  0  0  0  0  0  0  0
  138.1972   75.9158  221.4069 H   0  0  0  0  0  0  0  0  0  0  0  0
  138.6179   79.4082  221.3076 H   0  0  0  0  0  0  0  0  0  0  0  0
  138.2745   78.3722  222.7404 H   0  0  0  0  0  0  0  0  0  0  0  0
  139.1623   80.8209  223.0052 H   0  0  0  0  0  0  0  0  0  0  0  0
  139.7646   79.4143  224.0509 H   0  0  0  0  0  0  0  0  0  0  0  0
  141.1465   81.1462  222.1681 H   0  0  0  0  0  0  0  0  0  0  0  0
  141.6407   80.2445  223.7274 H   0  0  0  0  0  0  0  0  0  0  0  0
  142.7971   79.7386  221.4952 H   0  0  0  0  0  0  0  0  0  0  0  0
  142.3198   78.4478  222.6608 H   0  0  0  0  0  0  0  0  0  0  0  0
  140.7032   79.2949  220.2006 H   0  0  0  0  0  0  0  0  0  0  0  0
  142.5508   73.4676  218.6813 H   0  0  0  0  0  0  0  0  0  0  0  0
  143.7047   71.3267  219.1455 H   0  0  0  0  0  0  0  0  0  0  0  0
  145.8013   71.3332  220.5114 H   0  0  0  0  0  0  0  0  0  0  0  0
  146.7124   73.4998  221.4056 H   0  0  0  0  0  0  0  0  0  0  0  0
  145.4979   75.5798  220.8977 H   0  0  0  0  0  0  0  0  0  0  0  0
  143.8607   76.1554  217.3068 H   0  0  0  0  0  0  0  0  0  0  0  0
  138.7707   71.1069  221.5825 H   0  0  0  0  0  0  0  0  0  0  0  0
  138.6135   69.0192  222.9610 H   0  0  0  0  0  0  0  0  0  0  0  0
  139.1587   67.8103  225.0485 H   0  0  0  0  0  0  0  0  0  0  0  0
  141.4559   69.8277  228.0788 H   0  0  0  0  0  0  0  0  0  0  0  0
  141.5744   71.8821  226.6512 H   0  0  0  0  0  0  0  0  0  0  0  0
  1  2  2  0
  2  3  1  0
  3  4  1  0
  4  5  1  0
  5  6  2  0
  5  7  1  0
  7  8  1  0
  8  9  1  0
  9 10  1  0
 10 11  1  0
 11 12  1  0
 12 13  1  0
 13 14  2  0
 14 15  1  0
 15 16  1  0
 16 17  2  0
 17 18  1  0
 18 19  2  0
 19 20  1  0
 20 21  2  0
 15 22  2  0
 22 23  1  0
  2 24  1  0
 24 25  2  0
 25 26  1  0
 26 27  2  0
 27 28  1  0
 28 29  2  0
 29 30  1  0
 29 31  1  0
 31 32  2  0
 32 33  1  0
 33 34  2  0
 12  7  1  0
 23 13  1  0
 34 24  1  0
 21 16  1  0
 33 27  1  0
  3 35  1  0
  4 36  1  0
  4 37  1  0
  8 38  1  0
  8 39  1  0
  9 40  1  0
  9 41  1  0
 10 42  1  0
 10 43  1  0
 11 44  1  0
 11 45  1  0
 12 46  1  6
 17 47  1  0
 18 48  1  0
 19 49  1  0
 20 50  1  0
 21 51  1  0
 22 52  1  0
 25 53  1  0
 26 54  1  0
 28 55  1  0
 31 56  1  0
 32 57  1  0
M  END
>  <smiles>  (36) 
O=C(NCC(=O)N1CCCC[C@H]1c1nc(-c2ccccc2)cs1)c1ccc2cc(F)ccc2n1

>  <score_type>  (36) 
oracle

>  <origin>  (36) 
autodockgpu

>  <m_score__min__energy>  (36) 
-10

>  <m_primary>  (36) 
energy

>  <rmsd>  (36) 
5.426716166623879

>  <m_score__min__rmsd>  (36) 
5.426716166623879

>  <meeko>  (36) 
{"free_energy": -9.52, "intermolecular_energy": -11.31, "internal_energy": -2.03, "cluster_size": 20, "cluster_id": 1, "rank_in_cluster": 7}

>  <energy>  (36) 
-7.23

>  <cluster_rmsd>  (36) 
0.3

>  <cluster>  (36) 
7

$$$$

     RDKit          3D

 57 61  0  0  0  0  0  0  0  0999 V2000
  141.1580   73.5890  221.5020 O   0  0  0  0  0  0  0  0  0  0  0  0
  140.1540   73.3250  222.2330 C   0  0  0  0  0  0  0  0  0  0  0  0
  139.1130   74.3370  222.1840 N   0  0  0  0  0  0  0  0  0  0  0  0
  139.3740   75.4600  221.3410 C   0  0  0  0  0  0  0  0  0  0  0  0
  140.1460   76.5830  221.8160 C   0  0  0  0  0  0  0  0  0  0  0  0
  141.0490   76.2400  222.7130 O   0  0  0  0  0  0  0  0  0  0  0  0
  140.1360   77.9400  221.5230 N   0  0  0  0  0  0  0  0  0  0  0  0
  139.1710   78.9490  221.9830 C   0  0  0  0  0  0  0  0  0  0  0  0
  139.8660   79.9900  222.8050 C   0  0  0  0  0  0  0  0  0  0  0  0
  141.2670   80.3060  222.4390 C   0  0  0  0  0  0  0  0  0  0  0  0
  142.0530   79.2880  221.6930 C   0  0  0  0  0  0  0  0  0  0  0  0
  141.1940   78.5960  220.7020 C   0  0  1  0  0  0  0  0  0  0  0  0
  141.9930   77.6160  219.9340 C   0  0  0  0  0  0  0  0  0  0  0  0
  142.5770   76.6060  220.1290 N   0  0  0  0  0  0  0  0  0  0  0  0
  143.2980   75.8700  219.3200 C   0  0  0  0  0  0  0  0  0  0  0  0
  143.9900   74.6270  219.6380 C   0  0  0  0  0  0  0  0  0  0  0  0
  145.0970   74.6350  220.4710 C   0  0  0  0  0  0  0  0  0  0  0  0
  145.7750   73.4750  220.7920 C   0  0  0  0  0  0  0  0  0  0  0  0
  145.3260   72.2620  220.2600 C   0  0  0  0  0  0  0  0  0  0  0  0
  144.2130   72.2260  219.4180 C   0  0  0  0  0  0  0  0  0  0  0  0
  143.5900   73.4210  219.1440 C   0  0  0  0  0  0  0  0  0  0  0  0
  143.3520   76.4270  218.0130 C   0  0  0  0  0  0  0  0  0  0  0  0
  142.3390   77.9590  218.1290 S   0  0  0  0  0  0  0  0  0  0  0  0
  140.0350   72.1390  223.0440 C   0  0  0  0  0  0  0  0  0  0  0  0
  139.3310   71.0720  222.5250 C   0  0  0  0  0  0  0  0  0  0  0  0
  139.2260   69.9340  223.3220 C   0  0  0  0  0  0  0  0  0  0  0  0
  139.8110   69.8810  224.5880 C   0  0  0  0  0  0  0  0  0  0  0  0
  139.7290   68.7810  225.3990 C   0  0  0  0  0  0  0  0  0  0  0  0
  140.3330   68.7950  226.6460 C   0  0  0  0  0  0  0  0  0  0  0  0
  140.2770   67.7210  227.4890 F   0  0  0  0  0  0  0  0  0  0  0  0
  141.0200   69.9270  227.0720 C   0  0  0  0  0  0  0  0  0  0  0  0
  141.1150   71.0510  226.2690 C   0  0  0  0  0  0  0  0  0  0  0  0
  140.4980   70.9840  225.0400 C   0  0  0  0  0  0  0  0  0  0  0  0
  140.5950   72.0850  224.2590 N   0  0  0  0  0  0  0  0  0  0  0  0
  138.2510   74.1930  222.7550 H   0  0  0  0  0  0  0  0  0  0  0  0
  139.8994   75.0713  220.4562 H   0  0  0  0  0  0  0  0  0  0  0  0
  138.3736   75.8958  221.2024 H   0  0  0  0  0  0  0  0  0  0  0  0
  138.7019   79.4278  221.1108 H   0  0  0  0  0  0  0  0  0  0  0  0
  138.4033   78.4579  222.5990 H   0  0  0  0  0  0  0  0  0  0  0  0
  139.2837   80.9198  222.7257 H   0  0  0  0  0  0  0  0  0  0  0  0
  139.9223   79.5658  223.8183 H   0  0  0  0  0  0  0  0  0  0  0  0
  141.2437   81.2153  221.8204 H   0  0  0  0  0  0  0  0  0  0  0  0
  141.7850   80.3903  223.4057 H   0  0  0  0  0  0  0  0  0  0  0  0
  142.8836   79.7838  221.1692 H   0  0  0  0  0  0  0  0  0  0  0  0
  142.4441   78.5468  222.4054 H   0  0  0  0  0  0  0  0  0  0  0  0
  140.7564   79.2746  219.9550 H   0  0  0  0  0  0  0  0  0  0  0  0
  145.4456   75.5912  220.8882 H   0  0  0  0  0  0  0  0  0  0  0  0
  146.6526   73.5048  221.4545 H   0  0  0  0  0  0  0  0  0  0  0  0
  145.8539   71.3291  220.5069 H   0  0  0  0  0  0  0  0  0  0  0  0
  143.8490   71.2799  218.9909 H   0  0  0  0  0  0  0  0  0  0  0  0
  142.7111   73.4025  218.4827 H   0  0  0  0  0  0  0  0  0  0  0  0
  143.8796   76.0319  217.1323 H   0  0  0  0  0  0  0  0  0  0  0  0
  138.8728   71.1177  221.5260 H   0  0  0  0  0  0  0  0  0  0  0  0
  138.6718   69.0612  222.9465 H   0  0  0  0  0  0  0  0  0  0  0  0
  139.1843   67.8871  225.0610 H   0  0  0  0  0  0  0  0  0  0  0  0
  141.4959   69.9293  228.0637 H   0  0  0  0  0  0  0  0  0  0  0  0
  141.6557   71.9513  226.5962 H   0  0  0  0  0  0  0  0  0  0  0  0
  1  2  2  0
  2  3  1  0
  3  4  1  0
  4  5  1  0
  5  6  2  0
  5  7  1  0
  7  8  1  0
  8  9  1  0
  9 10  1  0
 10 11  1  0
 11 12  1  0
 12 13  1  0
 13 14  2  0
 14 15  1  0
 15 16  1  0
 16 17  2  0
 17 18  1  0
 18 19  2  0
 19 20  1  0
 20 21  2  0
 15 22  2  0
 22 23  1  0
  2 24  1  0
 24 25  2  0
 25 26  1  0
 26 27  2  0
 27 28  1  0
 28 29  2  0
 29 30  1  0
 29 31  1  0
 31 32  2  0
 32 33  1  0
 33 34  2  0
 12  7  1  0
 23 13  1  0
 34 24  1  0
 21 16  1  0
 33 27  1  0
  3 35  1  0
  4 36  1  0
  4 37  1  0
  8 38  1  0
  8 39  1  0
  9 40  1  0
  9 41  1  0
 10 42  1  0
 10 43  1  0
 11 44  1  0
 11 45  1  0
 12 46  1  6
 17 47  1  0
 18 48  1  0
 19 49  1  0
 20 50  1  0
 21 51  1  0
 22 52  1  0
 25 53  1  0
 26 54  1  0
 28 55  1  0
 31 56  1  0
 32 57  1  0
M  END
>  <smiles>  (37) 
O=C(NCC(=O)N1CCCC[C@H]1c1nc(-c2ccccc2)cs1)c1ccc2cc(F)ccc2n1

>  <score_type>  (37) 
oracle

>  <origin>  (37) 
autodockgpu

>  <m_score__min__energy>  (37) 
-10

>  <m_primary>  (37) 
energy

>  <rmsd>  (37) 
5.476218540046426

>  <m_score__min__rmsd>  (37) 
5.476218540046426

>  <meeko>  (37) 
{"free_energy": -9.41, "intermolecular_energy": -11.2, "internal_energy": -2.08, "cluster_size": 20, "cluster_id": 1, "rank_in_cluster": 8}

>  <energy>  (37) 
-7.19

>  <cluster_rmsd>  (37) 
0.3

>  <cluster>  (37) 
7

$$$$

     RDKit          3D

 57 61  0  0  0  0  0  0  0  0999 V2000
  139.4190   75.1110  222.3460 O   0  0  0  0  0  0  0  0  0  0  0  0
  140.5710   75.3620  221.8740 C   0  0  0  0  0  0  0  0  0  0  0  0
  140.8940   76.7790  221.8450 N   0  0  0  0  0  0  0  0  0  0  0  0
  139.8830   77.6600  222.3360 C   0  0  0  0  0  0  0  0  0  0  0  0
  139.8210   79.0350  221.9030 C   0  0  0  0  0  0  0  0  0  0  0  0
  138.8180   79.2680  221.0800 O   0  0  0  0  0  0  0  0  0  0  0  0
  140.5930   80.1560  222.1760 N   0  0  0  0  0  0  0  0  0  0  0  0
  140.3640   81.1690  223.2170 C   0  0  0  0  0  0  0  0  0  0  0  0
  141.5100   81.1840  224.1810 C   0  0  0  0  0  0  0  0  0  0  0  0
  142.8490   80.8640  223.6320 C   0  0  0  0  0  0  0  0  0  0  0  0
  142.9320   80.0690  222.3790 C   0  0  0  0  0  0  0  0  0  0  0  0
  141.8530   80.4670  221.4420 C   0  0  1  0  0  0  0  0  0  0  0  0
  141.9690   79.7040  220.1810 C   0  0  0  0  0  0  0  0  0  0  0  0
  142.0120   78.5740  219.8330 N   0  0  0  0  0  0  0  0  0  0  0  0
  142.1730   78.0570  218.6410 C   0  0  0  0  0  0  0  0  0  0  0  0
  142.2150   76.6420  218.2910 C   0  0  0  0  0  0  0  0  0  0  0  0
  141.0800   75.8560  218.4100 C   0  0  0  0  0  0  0  0  0  0  0  0
  141.0880   74.5130  218.0870 C   0  0  0  0  0  0  0  0  0  0  0  0
  142.2750   73.9360  217.6270 C   0  0  0  0  0  0  0  0  0  0  0  0
  143.4330   74.7050  217.4970 C   0  0  0  0  0  0  0  0  0  0  0  0
  143.3490   76.0350  217.8380 C   0  0  0  0  0  0  0  0  0  0  0  0
  142.3120   79.0630  217.6460 C   0  0  0  0  0  0  0  0  0  0  0  0
  142.1910   80.6430  218.5800 S   0  0  0  0  0  0  0  0  0  0  0  0
  141.4890   74.3540  221.4060 C   0  0  0  0  0  0  0  0  0  0  0  0
  141.0090   73.0700  221.2490 C   0  0  0  0  0  0  0  0  0  0  0  0
  141.9090   72.1090  220.7950 C   0  0  0  0  0  0  0  0  0  0  0  0
  143.2370   72.4360  220.5130 C   0  0  0  0  0  0  0  0  0  0  0  0
  144.1490   71.5180  220.0660 C   0  0  0  0  0  0  0  0  0  0  0  0
  145.4530   71.9110  219.8060 C   0  0  0  0  0  0  0  0  0  0  0  0
  146.3970   71.0310  219.3590 F   0  0  0  0  0  0  0  0  0  0  0  0
  145.8320   73.2350  220.0000 C   0  0  0  0  0  0  0  0  0  0  0  0
  144.9250   74.1800  220.4510 C   0  0  0  0  0  0  0  0  0  0  0  0
  143.6440   73.7380  220.6950 C   0  0  0  0  0  0  0  0  0  0  0  0
  142.7620   74.6650  221.1350 N   0  0  0  0  0  0  0  0  0  0  0  0
  141.8250   77.0690  221.4740 H   0  0  0  0  0  0  0  0  0  0  0  0
  138.9168   77.2052  222.0721 H   0  0  0  0  0  0  0  0  0  0  0  0
  140.1402   77.7534  223.4014 H   0  0  0  0  0  0  0  0  0  0  0  0
  140.2709   82.1592  222.7470 H   0  0  0  0  0  0  0  0  0  0  0  0
  139.4394   80.9244  223.7604 H   0  0  0  0  0  0  0  0  0  0  0  0
  141.5623   82.1912  224.6201 H   0  0  0  0  0  0  0  0  0  0  0  0
  141.2931   80.3790  224.8986 H   0  0  0  0  0  0  0  0  0  0  0  0
  143.3595   81.8201  223.4440 H   0  0  0  0  0  0  0  0  0  0  0  0
  143.3029   80.2129  224.3936 H   0  0  0  0  0  0  0  0  0  0  0  0
  143.9082   80.2435  221.9029 H   0  0  0  0  0  0  0  0  0  0  0  0
  142.8165   79.0029  222.6243 H   0  0  0  0  0  0  0  0  0  0  0  0
  141.8949   81.5274  221.1526 H   0  0  0  0  0  0  0  0  0  0  0  0
  140.1474   76.3139  218.7715 H   0  0  0  0  0  0  0  0  0  0  0  0
  140.1753   73.9077  218.1901 H   0  0  0  0  0  0  0  0  0  0  0  0
  142.2970   72.8678  217.3654 H   0  0  0  0  0  0  0  0  0  0  0  0
  144.3745   74.2651  217.1364 H   0  0  0  0  0  0  0  0  0  0  0  0
  144.2561   76.6492  217.7388 H   0  0  0  0  0  0  0  0  0  0  0  0
  142.4585   78.9274  216.5643 H   0  0  0  0  0  0  0  0  0  0  0  0
  139.9622   72.8167  221.4724 H   0  0  0  0  0  0  0  0  0  0  0  0
  141.5673   71.0727  220.6559 H   0  0  0  0  0  0  0  0  0  0  0  0
  143.8480   70.4710  219.9135 H   0  0  0  0  0  0  0  0  0  0  0  0
  146.8691   73.5368  219.7919 H   0  0  0  0  0  0  0  0  0  0  0  0
  145.2135   75.2301  220.6063 H   0  0  0  0  0  0  0  0  0  0  0  0
  1  2  2  0
  2  3  1  0
  3  4  1  0
  4  5  1  0
  5  6  2  0
  5  7  1  0
  7  8  1  0
  8  9  1  0
  9 10  1  0
 10 11  1  0
 11 12  1  0
 12 13  1  0
 13 14  2  0
 14 15  1  0
 15 16  1  0
 16 17  2  0
 17 18  1  0
 18 19  2  0
 19 20  1  0
 20 21  2  0
 15 22  2  0
 22 23  1  0
  2 24  1  0
 24 25  2  0
 25 26  1  0
 26 27  2  0
 27 28  1  0
 28 29  2  0
 29 30  1  0
 29 31  1  0
 31 32  2  0
 32 33  1  0
 33 34  2  0
 12  7  1  0
 23 13  1  0
 34 24  1  0
 21 16  1  0
 33 27  1  0
  3 35  1  0
  4 36  1  0
  4 37  1  0
  8 38  1  0
  8 39  1  0
  9 40  1  0
  9 41  1  0
 10 42  1  0
 10 43  1  0
 11 44  1  0
 11 45  1  0
 12 46  1  6
 17 47  1  0
 18 48  1  0
 19 49  1  0
 20 50  1  0
 21 51  1  0
 22 52  1  0
 25 53  1  0
 26 54  1  0
 28 55  1  0
 31 56  1  0
 32 57  1  0
M  END
>  <smiles>  (38) 
O=C(NCC(=O)N1CCCC[C@H]1c1nc(-c2ccccc2)cs1)c1ccc2cc(F)ccc2n1

>  <score_type>  (38) 
oracle

>  <origin>  (38) 
autodockgpu

>  <m_score__min__energy>  (38) 
-10

>  <m_primary>  (38) 
energy

>  <rmsd>  (38) 
6.973660075753631

>  <m_score__min__rmsd>  (38) 
6.973660075753631

>  <meeko>  (38) 
{"free_energy": -7.13, "intermolecular_energy": -8.92, "internal_energy": -4.2, "cluster_size": 15, "cluster_id": 7, "rank_in_cluster": 8}

>  <energy>  (38) 
-7.18

>  <cluster_rmsd>  (38) 
0.62

>  <cluster>  (38) 
7

$$$$

     RDKit          3D

 57 61  0  0  0  0  0  0  0  0999 V2000
  140.6620   72.3540  221.0310 O   0  0  0  0  0  0  0  0  0  0  0  0
  140.1840   72.6410  222.1710 C   0  0  0  0  0  0  0  0  0  0  0  0
  139.6780   73.9990  222.2690 N   0  0  0  0  0  0  0  0  0  0  0  0
  139.7970   74.7960  221.0890 C   0  0  0  0  0  0  0  0  0  0  0  0
  139.1170   76.0630  220.9770 C   0  0  0  0  0  0  0  0  0  0  0  0
  137.8850   75.9440  220.5250 O   0  0  0  0  0  0  0  0  0  0  0  0
  139.4890   77.3730  221.2490 N   0  0  0  0  0  0  0  0  0  0  0  0
  138.6480   78.4470  221.7980 C   0  0  0  0  0  0  0  0  0  0  0  0
  139.1960   78.9080  223.1130 C   0  0  0  0  0  0  0  0  0  0  0  0
  140.6670   78.8550  223.2810 C   0  0  0  0  0  0  0  0  0  0  0  0
  141.4460   77.9170  222.4300 C   0  0  0  0  0  0  0  0  0  0  0  0
  140.8810   77.8730  221.0600 C   0  0  1  0  0  0  0  0  0  0  0  0
  141.6880   76.9720  220.2070 C   0  0  0  0  0  0  0  0  0  0  0  0
  142.4830   76.1070  220.3420 N   0  0  0  0  0  0  0  0  0  0  0  0
  143.1590   75.4270  219.4500 C   0  0  0  0  0  0  0  0  0  0  0  0
  144.1290   74.3660  219.6970 C   0  0  0  0  0  0  0  0  0  0  0  0
  145.0120   74.4590  220.7610 C   0  0  0  0  0  0  0  0  0  0  0  0
  145.9420   73.4710  221.0220 C   0  0  0  0  0  0  0  0  0  0  0  0
  145.9890   72.3510  220.1880 C   0  0  0  0  0  0  0  0  0  0  0  0
  145.1100   72.2330  219.1090 C   0  0  0  0  0  0  0  0  0  0  0  0
  144.2120   73.2550  218.9110 C   0  0  0  0  0  0  0  0  0  0  0  0
  142.8450   75.8400  218.1270 C   0  0  0  0  0  0  0  0  0  0  0  0
  141.5970   77.1740  218.3520 S   0  0  0  0  0  0  0  0  0  0  0  0
  140.1380   71.7210  223.2810 C   0  0  0  0  0  0  0  0  0  0  0  0
  139.6070   70.4680  223.0570 C   0  0  0  0  0  0  0  0  0  0  0  0
  139.5700   69.5920  224.1390 C   0  0  0  0  0  0  0  0  0  0  0  0
  140.0500   69.9710  225.3930 C   0  0  0  0  0  0  0  0  0  0  0  0
  140.0300   69.1380  226.4800 C   0  0  0  0  0  0  0  0  0  0  0  0
  140.5230   69.5800  227.6980 C   0  0  0  0  0  0  0  0  0  0  0  0
  140.5220   68.7840  228.8080 F   0  0  0  0  0  0  0  0  0  0  0  0
  141.0360   70.8670  227.8150 C   0  0  0  0  0  0  0  0  0  0  0  0
  141.0660   71.7260  226.7290 C   0  0  0  0  0  0  0  0  0  0  0  0
  140.5650   71.2390  225.5430 C   0  0  0  0  0  0  0  0  0  0  0  0
  140.5970   72.0830  224.4850 N   0  0  0  0  0  0  0  0  0  0  0  0
  139.2640   74.3120  223.1740 H   0  0  0  0  0  0  0  0  0  0  0  0
  140.8693   75.0039  220.9588 H   0  0  0  0  0  0  0  0  0  0  0  0
  139.2907   74.1816  220.3299 H   0  0  0  0  0  0  0  0  0  0  0  0
  138.6317   79.2922  221.0942 H   0  0  0  0  0  0  0  0  0  0  0  0
  137.6274   78.0646  221.9473 H   0  0  0  0  0  0  0  0  0  0  0  0
  138.8825   79.9526  223.2560 H   0  0  0  0  0  0  0  0  0  0  0  0
  138.7967   78.2003  223.8544 H   0  0  0  0  0  0  0  0  0  0  0  0
  141.0526   79.8666  223.0859 H   0  0  0  0  0  0  0  0  0  0  0  0
  140.8072   78.4710  224.3022 H   0  0  0  0  0  0  0  0  0  0  0  0
  142.4915   78.2554  222.3804 H   0  0  0  0  0  0  0  0  0  0  0  0
  141.3957   76.9100  222.8697 H   0  0  0  0  0  0  0  0  0  0  0  0
  140.8887   78.8493  220.5534 H   0  0  0  0  0  0  0  0  0  0  0  0
  144.9714   75.3426  221.4150 H   0  0  0  0  0  0  0  0  0  0  0  0
  146.6338   73.5646  221.8721 H   0  0  0  0  0  0  0  0  0  0  0  0
  146.7239   71.5560  220.3827 H   0  0  0  0  0  0  0  0  0  0  0  0
  145.1352   71.3571  218.4440 H   0  0  0  0  0  0  0  0  0  0  0  0
  143.5155   73.1710  218.0637 H   0  0  0  0  0  0  0  0  0  0  0  0
  143.2546   75.4509  217.1832 H   0  0  0  0  0  0  0  0  0  0  0  0
  139.2291   70.1734  222.0668 H   0  0  0  0  0  0  0  0  0  0  0  0
  139.1547   68.5826  224.0024 H   0  0  0  0  0  0  0  0  0  0  0  0
  139.6235   68.1201  226.3867 H   0  0  0  0  0  0  0  0  0  0  0  0
  141.4243   71.2085  228.7859 H   0  0  0  0  0  0  0  0  0  0  0  0
  141.4698   72.7460  226.8101 H   0  0  0  0  0  0  0  0  0  0  0  0
  1  2  2  0
  2  3  1  0
  3  4  1  0
  4  5  1  0
  5  6  2  0
  5  7  1  0
  7  8  1  0
  8  9  1  0
  9 10  1  0
 10 11  1  0
 11 12  1  0
 12 13  1  0
 13 14  2  0
 14 15  1  0
 15 16  1  0
 16 17  2  0
 17 18  1  0
 18 19  2  0
 19 20  1  0
 20 21  2  0
 15 22  2  0
 22 23  1  0
  2 24  1  0
 24 25  2  0
 25 26  1  0
 26 27  2  0
 27 28  1  0
 28 29  2  0
 29 30  1  0
 29 31  1  0
 31 32  2  0
 32 33  1  0
 33 34  2  0
 12  7  1  0
 23 13  1  0
 34 24  1  0
 21 16  1  0
 33 27  1  0
  3 35  1  0
  4 36  1  0
  4 37  1  0
  8 38  1  0
  8 39  1  0
  9 40  1  0
  9 41  1  0
 10 42  1  0
 10 43  1  0
 11 44  1  0
 11 45  1  0
 12 46  1  6
 17 47  1  0
 18 48  1  0
 19 49  1  0
 20 50  1  0
 21 51  1  0
 22 52  1  0
 25 53  1  0
 26 54  1  0
 28 55  1  0
 31 56  1  0
 32 57  1  0
M  END
>  <smiles>  (39) 
O=C(NCC(=O)N1CCCC[C@H]1c1nc(-c2ccccc2)cs1)c1ccc2cc(F)ccc2n1

>  <score_type>  (39) 
oracle

>  <origin>  (39) 
autodockgpu

>  <m_score__min__energy>  (39) 
-10

>  <m_primary>  (39) 
energy

>  <rmsd>  (39) 
5.486645658429056

>  <m_score__min__rmsd>  (39) 
5.486645658429056

>  <meeko>  (39) 
{"free_energy": -9.18, "intermolecular_energy": -10.97, "internal_energy": -1.91, "cluster_size": 20, "cluster_id": 1, "rank_in_cluster": 15}

>  <energy>  (39) 
-7.14

>  <cluster_rmsd>  (39) 
0.67

>  <cluster>  (39) 
7

$$$$

     RDKit          3D

 57 61  0  0  0  0  0  0  0  0999 V2000
  141.0740   73.4630  222.3210 O   0  0  0  0  0  0  0  0  0  0  0  0
  140.3100   72.4490  222.3170 C   0  0  0  0  0  0  0  0  0  0  0  0
  139.6570   72.2140  221.0410 N   0  0  0  0  0  0  0  0  0  0  0  0
  139.9630   73.1450  220.0020 C   0  0  0  0  0  0  0  0  0  0  0  0
  139.0570   74.2200  219.6770 C   0  0  0  0  0  0  0  0  0  0  0  0
  138.4470   74.0430  218.5230 O   0  0  0  0  0  0  0  0  0  0  0  0
  138.6960   75.3920  220.3280 N   0  0  0  0  0  0  0  0  0  0  0  0
  137.3370   75.8700  220.6230 C   0  0  0  0  0  0  0  0  0  0  0  0
  137.1410   75.9810  222.1040 C   0  0  0  0  0  0  0  0  0  0  0  0
  138.3290   76.3470  222.9100 C   0  0  0  0  0  0  0  0  0  0  0  0
  139.6790   76.0770  222.3490 C   0  0  0  0  0  0  0  0  0  0  0  0
  139.6950   76.3450  220.8910 C   0  0  1  0  0  0  0  0  0  0  0  0
  141.0520   76.1160  220.3480 C   0  0  0  0  0  0  0  0  0  0  0  0
  141.9270   75.3280  220.4600 N   0  0  0  0  0  0  0  0  0  0  0  0
  143.1230   75.3030  219.9270 C   0  0  0  0  0  0  0  0  0  0  0  0
  144.1520   74.2870  220.1150 C   0  0  0  0  0  0  0  0  0  0  0  0
  144.0020   73.0260  219.5620 C   0  0  0  0  0  0  0  0  0  0  0  0
  144.9590   72.0430  219.7220 C   0  0  0  0  0  0  0  0  0  0  0  0
  146.1080   72.3330  220.4630 C   0  0  0  0  0  0  0  0  0  0  0  0
  146.2840   73.5960  221.0310 C   0  0  0  0  0  0  0  0  0  0  0  0
  145.2900   74.5240  220.8290 C   0  0  0  0  0  0  0  0  0  0  0  0
  143.3480   76.4290  219.0890 C   0  0  0  0  0  0  0  0  0  0  0  0
  141.7800   77.3870  219.1860 S   0  0  0  0  0  0  0  0  0  0  0  0
  140.0940   71.5970  223.4600 C   0  0  0  0  0  0  0  0  0  0  0  0
  139.3180   70.4700  223.2860 C   0  0  0  0  0  0  0  0  0  0  0  0
  139.1190   69.6580  224.4000 C   0  0  0  0  0  0  0  0  0  0  0  0
  139.6840   69.9760  225.6360 C   0  0  0  0  0  0  0  0  0  0  0  0
  139.5110   69.2030  226.7530 C   0  0  0  0  0  0  0  0  0  0  0  0
  140.1000   69.5770  227.9510 C   0  0  0  0  0  0  0  0  0  0  0  0
  139.9540   68.8370  229.0890 F   0  0  0  0  0  0  0  0  0  0  0  0
  140.8640   70.7370  228.0160 C   0  0  0  0  0  0  0  0  0  0  0  0
  141.0520   71.5340  226.8990 C   0  0  0  0  0  0  0  0  0  0  0  0
  140.4460   71.1170  225.7350 C   0  0  0  0  0  0  0  0  0  0  0  0
  140.6340   71.9000  224.6470 N   0  0  0  0  0  0  0  0  0  0  0  0
  139.0140   71.3960  220.9540 H   0  0  0  0  0  0  0  0  0  0  0  0
  140.9200   73.6140  220.2742 H   0  0  0  0  0  0  0  0  0  0  0  0
  139.9294   72.5187  219.0983 H   0  0  0  0  0  0  0  0  0  0  0  0
  137.1905   76.8577  220.1615 H   0  0  0  0  0  0  0  0  0  0  0  0
  136.6072   75.1548  220.2157 H   0  0  0  0  0  0  0  0  0  0  0  0
  136.3704   76.7457  222.2812 H   0  0  0  0  0  0  0  0  0  0  0  0
  136.8700   74.9676  222.4350 H   0  0  0  0  0  0  0  0  0  0  0  0
  138.2687   77.4280  223.1044 H   0  0  0  0  0  0  0  0  0  0  0  0
  138.2682   75.6914  223.7912 H   0  0  0  0  0  0  0  0  0  0  0  0
  140.4145   76.7272  222.8453 H   0  0  0  0  0  0  0  0  0  0  0  0
  139.9323   75.0204  222.5207 H   0  0  0  0  0  0  0  0  0  0  0  0
  139.4428   77.3849  220.6362 H   0  0  0  0  0  0  0  0  0  0  0  0
  143.0962   72.8013  218.9796 H   0  0  0  0  0  0  0  0  0  0  0  0
  144.8192   71.0483  219.2736 H   0  0  0  0  0  0  0  0  0  0  0  0
  146.8791   71.5605  220.5996 H   0  0  0  0  0  0  0  0  0  0  0  0
  147.1826   73.8391  221.6171 H   0  0  0  0  0  0  0  0  0  0  0  0
  145.4208   75.5224  221.2718 H   0  0  0  0  0  0  0  0  0  0  0  0
  144.2534   76.6722  218.5136 H   0  0  0  0  0  0  0  0  0  0  0  0
  138.8754   70.2232  222.3097 H   0  0  0  0  0  0  0  0  0  0  0  0
  138.5057   68.7499  224.3040 H   0  0  0  0  0  0  0  0  0  0  0  0
  138.9053   68.2863  226.6998 H   0  0  0  0  0  0  0  0  0  0  0  0
  141.3270   71.0266  228.9709 H   0  0  0  0  0  0  0  0  0  0  0  0
  141.6547   72.4533  226.9397 H   0  0  0  0  0  0  0  0  0  0  0  0
  1  2  2  0
  2  3  1  0
  3  4  1  0
  4  5  1  0
  5  6  2  0
  5  7  1  0
  7  8  1  0
  8  9  1  0
  9 10  1  0
 10 11  1  0
 11 12  1  0
 12 13  1  0
 13 14  2  0
 14 15  1  0
 15 16  1  0
 16 17  2  0
 17 18  1  0
 18 19  2  0
 19 20  1  0
 20 21  2  0
 15 22  2  0
 22 23  1  0
  2 24  1  0
 24 25  2  0
 25 26  1  0
 26 27  2  0
 27 28  1  0
 28 29  2  0
 29 30  1  0
 29 31  1  0
 31 32  2  0
 32 33  1  0
 33 34  2  0
 12  7  1  0
 23 13  1  0
 34 24  1  0
 21 16  1  0
 33 27  1  0
  3 35  1  0
  4 36  1  0
  4 37  1  0
  8 38  1  0
  8 39  1  0
  9 40  1  0
  9 41  1  0
 10 42  1  0
 10 43  1  0
 11 44  1  0
 11 45  1  0
 12 46  1  1
 17 47  1  0
 18 48  1  0
 19 49  1  0
 20 50  1  0
 21 51  1  0
 22 52  1  0
 25 53  1  0
 26 54  1  0
 28 55  1  0
 31 56  1  0
 32 57  1  0
M  END
>  <smiles>  (40) 
O=C(NCC(=O)N1CCCC[C@H]1c1nc(-c2ccccc2)cs1)c1ccc2cc(F)ccc2n1

>  <score_type>  (40) 
oracle

>  <origin>  (40) 
autodockgpu

>  <m_score__min__energy>  (40) 
-10

>  <m_primary>  (40) 
energy

>  <rmsd>  (40) 
5.313073422435749

>  <m_score__min__rmsd>  (40) 
5.313073422435749

>  <meeko>  (40) 
{"free_energy": -8.64, "intermolecular_energy": -10.43, "internal_energy": -2.29, "cluster_size": 20, "cluster_id": 1, "rank_in_cluster": 20}

>  <energy>  (40) 
-7.13

>  <cluster_rmsd>  (40) 
0.33

>  <cluster>  (40) 
7

$$$$

     RDKit          3D

 57 61  0  0  0  0  0  0  0  0999 V2000
  136.3880   77.2650  223.0000 O   0  0  0  0  0  0  0  0  0  0  0  0
  136.6390   76.0480  223.2610 C   0  0  0  0  0  0  0  0  0  0  0  0
  137.8670   75.5620  222.6570 N   0  0  0  0  0  0  0  0  0  0  0  0
  138.5920   76.5070  221.8700 C   0  0  0  0  0  0  0  0  0  0  0  0
  140.0090   76.3520  221.6410 C   0  0  0  0  0  0  0  0  0  0  0  0
  140.7380   76.7440  222.6660 O   0  0  0  0  0  0  0  0  0  0  0  0
  140.7560   75.8750  220.5720 N   0  0  0  0  0  0  0  0  0  0  0  0
  141.3440   76.6530  219.4720 C   0  0  0  0  0  0  0  0  0  0  0  0
  142.8360   76.5190  219.4860 C   0  0  0  0  0  0  0  0  0  0  0  0
  143.3860   75.2270  219.9580 C   0  0  0  0  0  0  0  0  0  0  0  0
  142.5470   74.3780  220.8440 C   0  0  0  0  0  0  0  0  0  0  0  0
  141.1260   74.4380  220.4240 C   0  0  1  0  0  0  0  0  0  0  0  0
  140.3040   73.5570  221.2820 C   0  0  0  0  0  0  0  0  0  0  0  0
  140.4140   72.9650  222.3010 N   0  0  0  0  0  0  0  0  0  0  0  0
  139.5770   72.1650  222.9130 C   0  0  0  0  0  0  0  0  0  0  0  0
  139.7880   71.4680  224.1760 C   0  0  0  0  0  0  0  0  0  0  0  0
  140.7730   71.8900  225.0550 C   0  0  0  0  0  0  0  0  0  0  0  0
  140.9970   71.2500  226.2580 C   0  0  0  0  0  0  0  0  0  0  0  0
  140.2050   70.1490  226.5950 C   0  0  0  0  0  0  0  0  0  0  0  0
  139.2050   69.7030  225.7280 C   0  0  0  0  0  0  0  0  0  0  0  0
  139.0400   70.3890  224.5480 C   0  0  0  0  0  0  0  0  0  0  0  0
  138.3610   72.0250  222.1910 C   0  0  0  0  0  0  0  0  0  0  0  0
  138.5920   73.0820  220.7030 S   0  0  0  0  0  0  0  0  0  0  0  0
  135.7980   75.2090  224.0780 C   0  0  0  0  0  0  0  0  0  0  0  0
  134.9630   75.8240  224.9880 C   0  0  0  0  0  0  0  0  0  0  0  0
  134.1580   74.9980  225.7680 C   0  0  0  0  0  0  0  0  0  0  0  0
  134.1970   73.6100  225.6310 C   0  0  0  0  0  0  0  0  0  0  0  0
  133.4210   72.7670  226.3800 C   0  0  0  0  0  0  0  0  0  0  0  0
  133.5110   71.3960  226.1930 C   0  0  0  0  0  0  0  0  0  0  0  0
  132.7560   70.5180  226.9180 F   0  0  0  0  0  0  0  0  0  0  0  0
  134.3880   70.8800  225.2470 C   0  0  0  0  0  0  0  0  0  0  0  0
  135.1830   71.7140  224.4780 C   0  0  0  0  0  0  0  0  0  0  0  0
  135.0560   73.0670  224.7030 C   0  0  0  0  0  0  0  0  0  0  0  0
  135.8340   73.8770  223.9490 N   0  0  0  0  0  0  0  0  0  0  0  0
  138.1470   74.5710  222.8280 H   0  0  0  0  0  0  0  0  0  0  0  0
  138.1146   76.5205  220.8791 H   0  0  0  0  0  0  0  0  0  0  0  0
  138.5442   77.4194  222.4825 H   0  0  0  0  0  0  0  0  0  0  0  0
  140.9543   76.2796  218.5135 H   0  0  0  0  0  0  0  0  0  0  0  0
  141.0767   77.7126  219.5978 H   0  0  0  0  0  0  0  0  0  0  0  0
  143.1940   76.6775  218.4580 H   0  0  0  0  0  0  0  0  0  0  0  0
  143.1852   77.2644  220.2157 H   0  0  0  0  0  0  0  0  0  0  0  0
  143.6223   74.6295  219.0651 H   0  0  0  0  0  0  0  0  0  0  0  0
  144.2392   75.5136  220.5904 H   0  0  0  0  0  0  0  0  0  0  0  0
  142.8981   73.3371  220.7870 H   0  0  0  0  0  0  0  0  0  0  0  0
  142.6297   74.7490  221.8762 H   0  0  0  0  0  0  0  0  0  0  0  0
  140.9609   74.0876  219.3944 H   0  0  0  0  0  0  0  0  0  0  0  0
  141.3931   72.7582  224.7871 H   0  0  0  0  0  0  0  0  0  0  0  0
  141.7857   71.6010  226.9397 H   0  0  0  0  0  0  0  0  0  0  0  0
  140.3705   69.6297  227.5505 H   0  0  0  0  0  0  0  0  0  0  0  0
  138.5745   68.8373  225.9792 H   0  0  0  0  0  0  0  0  0  0  0  0
  138.2541   70.0458  223.8591 H   0  0  0  0  0  0  0  0  0  0  0  0
  137.4815   71.4218  222.4605 H   0  0  0  0  0  0  0  0  0  0  0  0
  134.9345   76.9186  225.0927 H   0  0  0  0  0  0  0  0  0  0  0  0
  133.4783   75.4483  226.5064 H   0  0  0  0  0  0  0  0  0  0  0  0
  132.7272   73.1765  227.1290 H   0  0  0  0  0  0  0  0  0  0  0  0
  134.4521   69.7909  225.1063 H   0  0  0  0  0  0  0  0  0  0  0  0
  135.8802   71.3160  223.7260 H   0  0  0  0  0  0  0  0  0  0  0  0
  1  2  2  0
  2  3  1  0
  3  4  1  0
  4  5  1  0
  5  6  2  0
  5  7  1  0
  7  8  1  0
  8  9  1  0
  9 10  1  0
 10 11  1  0
 11 12  1  0
 12 13  1  0
 13 14  2  0
 14 15  1  0
 15 16  1  0
 16 17  2  0
 17 18  1  0
 18 19  2  0
 19 20  1  0
 20 21  2  0
 15 22  2  0
 22 23  1  0
  2 24  1  0
 24 25  2  0
 25 26  1  0
 26 27  2  0
 27 28  1  0
 28 29  2  0
 29 30  1  0
 29 31  1  0
 31 32  2  0
 32 33  1  0
 33 34  2  0
 12  7  1  0
 23 13  1  0
 34 24  1  0
 21 16  1  0
 33 27  1  0
  3 35  1  0
  4 36  1  0
  4 37  1  0
  8 38  1  0
  8 39  1  0
  9 40  1  0
  9 41  1  0
 10 42  1  0
 10 43  1  0
 11 44  1  0
 11 45  1  0
 12 46  1  6
 17 47  1  0
 18 48  1  0
 19 49  1  0
 20 50  1  0
 21 51  1  0
 22 52  1  0
 25 53  1  0
 26 54  1  0
 28 55  1  0
 31 56  1  0
 32 57  1  0
M  END
>  <smiles>  (41) 
O=C(NCC(=O)N1CCCC[C@H]1c1nc(-c2ccccc2)cs1)c1ccc2cc(F)ccc2n1

>  <score_type>  (41) 
oracle

>  <origin>  (41) 
autodockgpu

>  <m_score__min__energy>  (41) 
-10

>  <m_primary>  (41) 
energy

>  <rmsd>  (41) 
7.536543576884821

>  <m_score__min__rmsd>  (41) 
7.536543576884821

>  <meeko>  (41) 
{"free_energy": -8.12, "intermolecular_energy": -9.91, "internal_energy": -2.78, "cluster_size": 4, "cluster_id": 5, "rank_in_cluster": 3}

>  <energy>  (41) 
-7.13

>  <cluster_rmsd>  (41) 
0.68

>  <cluster>  (41) 
7

$$$$

     RDKit          3D

 57 61  0  0  0  0  0  0  0  0999 V2000
  141.1280   73.0820  222.0330 O   0  0  0  0  0  0  0  0  0  0  0  0
  140.0700   72.7740  222.6640 C   0  0  0  0  0  0  0  0  0  0  0  0
  138.9220   73.5920  222.3140 N   0  0  0  0  0  0  0  0  0  0  0  0
  139.1530   74.6060  221.3350 C   0  0  0  0  0  0  0  0  0  0  0  0
  139.5270   75.9440  221.7260 C   0  0  0  0  0  0  0  0  0  0  0  0
  140.4190   75.9630  222.6960 O   0  0  0  0  0  0  0  0  0  0  0  0
  139.1470   77.2060  221.2900 N   0  0  0  0  0  0  0  0  0  0  0  0
  137.8630   77.8850  221.5200 C   0  0  0  0  0  0  0  0  0  0  0  0
  138.0780   79.1420  222.3040 C   0  0  0  0  0  0  0  0  0  0  0  0
  139.3520   79.8620  222.0770 C   0  0  0  0  0  0  0  0  0  0  0  0
  140.5130   79.1010  221.5440 C   0  0  0  0  0  0  0  0  0  0  0  0
  140.0630   78.1100  220.5370 C   0  0  1  0  0  0  0  0  0  0  0  0
  141.2280   77.3880  219.9800 C   0  0  0  0  0  0  0  0  0  0  0  0
  141.8360   76.3960  220.1930 N   0  0  0  0  0  0  0  0  0  0  0  0
  142.9090   75.9160  219.6150 C   0  0  0  0  0  0  0  0  0  0  0  0
  143.6050   74.6760  219.9380 C   0  0  0  0  0  0  0  0  0  0  0  0
  144.8870   74.7080  220.4620 C   0  0  0  0  0  0  0  0  0  0  0  0
  145.5730   73.5510  220.7780 C   0  0  0  0  0  0  0  0  0  0  0  0
  144.9510   72.3180  220.5620 C   0  0  0  0  0  0  0  0  0  0  0  0
  143.6600   72.2570  220.0350 C   0  0  0  0  0  0  0  0  0  0  0  0
  143.0400   73.4490  219.7450 C   0  0  0  0  0  0  0  0  0  0  0  0
  143.3690   76.7660  218.5730 C   0  0  0  0  0  0  0  0  0  0  0  0
  142.1740   78.1650  218.5680 S   0  0  0  0  0  0  0  0  0  0  0  0
  139.9920   71.7150  223.6400 C   0  0  0  0  0  0  0  0  0  0  0  0
  139.3850   70.5350  223.2620 C   0  0  0  0  0  0  0  0  0  0  0  0
  139.3180   69.5240  224.2170 C   0  0  0  0  0  0  0  0  0  0  0  0
  139.8440   69.7010  225.4980 C   0  0  0  0  0  0  0  0  0  0  0  0
  139.7970   68.7300  226.4620 C   0  0  0  0  0  0  0  0  0  0  0  0
  140.3380   68.9730  227.7150 C   0  0  0  0  0  0  0  0  0  0  0  0
  140.3140   68.0350  228.7070 F   0  0  0  0  0  0  0  0  0  0  0  0
  140.9280   70.2020  227.9900 C   0  0  0  0  0  0  0  0  0  0  0  0
  140.9870   71.1990  227.0300 C   0  0  0  0  0  0  0  0  0  0  0  0
  140.4340   70.9060  225.8030 C   0  0  0  0  0  0  0  0  0  0  0  0
  140.4950   71.8840  224.8690 N   0  0  0  0  0  0  0  0  0  0  0  0
  138.0110   73.3990  222.7860 H   0  0  0  0  0  0  0  0  0  0  0  0
  139.9572   74.2342  220.6831 H   0  0  0  0  0  0  0  0  0  0  0  0
  138.1546   74.7517  220.8968 H   0  0  0  0  0  0  0  0  0  0  0  0
  137.4049   78.1343  220.5515 H   0  0  0  0  0  0  0  0  0  0  0  0
  137.1991   77.2163  222.0875 H   0  0  0  0  0  0  0  0  0  0  0  0
  137.2575   79.8320  222.0577 H   0  0  0  0  0  0  0  0  0  0  0  0
  138.1121   78.8223  223.3560 H   0  0  0  0  0  0  0  0  0  0  0  0
  139.1430   80.6751  221.3662 H   0  0  0  0  0  0  0  0  0  0  0  0
  139.6709   80.1682  223.0843 H   0  0  0  0  0  0  0  0  0  0  0  0
  141.2197   79.8004  221.0736 H   0  0  0  0  0  0  0  0  0  0  0  0
  141.0026   78.5698  222.3735 H   0  0  0  0  0  0  0  0  0  0  0  0
  139.5540   78.5649  219.6745 H   0  0  0  0  0  0  0  0  0  0  0  0
  145.3719   75.6808  220.6311 H   0  0  0  0  0  0  0  0  0  0  0  0
  146.5908   73.5994  221.1923 H   0  0  0  0  0  0  0  0  0  0  0  0
  145.4835   71.3878  220.8094 H   0  0  0  0  0  0  0  0  0  0  0  0
  143.1589   71.2938  219.8588 H   0  0  0  0  0  0  0  0  0  0  0  0
  142.0219   73.4113  219.3302 H   0  0  0  0  0  0  0  0  0  0  0  0
  144.2410   76.6206  217.9185 H   0  0  0  0  0  0  0  0  0  0  0  0
  138.9725   70.3991  222.2514 H   0  0  0  0  0  0  0  0  0  0  0  0
  138.8414   68.5673  223.9571 H   0  0  0  0  0  0  0  0  0  0  0  0
  139.3305   67.7583  226.2426 H   0  0  0  0  0  0  0  0  0  0  0  0
  141.3551   70.3856  228.9869 H   0  0  0  0  0  0  0  0  0  0  0  0
  141.4515   72.1744  227.2369 H   0  0  0  0  0  0  0  0  0  0  0  0
  1  2  2  0
  2  3  1  0
  3  4  1  0
  4  5  1  0
  5  6  2  0
  5  7  1  0
  7  8  1  0
  8  9  1  0
  9 10  1  0
 10 11  1  0
 11 12  1  0
 12 13  1  0
 13 14  2  0
 14 15  1  0
 15 16  1  0
 16 17  2  0
 17 18  1  0
 18 19  2  0
 19 20  1  0
 20 21  2  0
 15 22  2  0
 22 23  1  0
  2 24  1  0
 24 25  2  0
 25 26  1  0
 26 27  2  0
 27 28  1  0
 28 29  2  0
 29 30  1  0
 29 31  1  0
 31 32  2  0
 32 33  1  0
 33 34  2  0
 12  7  1  0
 23 13  1  0
 34 24  1  0
 21 16  1  0
 33 27  1  0
  3 35  1  0
  4 36  1  0
  4 37  1  0
  8 38  1  0
  8 39  1  0
  9 40  1  0
  9 41  1  0
 10 42  1  0
 10 43  1  0
 11 44  1  0
 11 45  1  0
 12 46  1  6
 17 47  1  0
 18 48  1  0
 19 49  1  0
 20 50  1  0
 21 51  1  0
 22 52  1  0
 25 53  1  0
 26 54  1  0
 28 55  1  0
 31 56  1  0
 32 57  1  0
M  END
>  <smiles>  (42) 
O=C(NCC(=O)N1CCCC[C@H]1c1nc(-c2ccccc2)cs1)c1ccc2cc(F)ccc2n1

>  <score_type>  (42) 
oracle

>  <origin>  (42) 
autodockgpu

>  <m_score__min__energy>  (42) 
-10

>  <m_primary>  (42) 
energy

>  <rmsd>  (42) 
5.1649287412594

>  <m_score__min__rmsd>  (42) 
5.1649287412594

>  <meeko>  (42) 
{"free_energy": -9.3, "intermolecular_energy": -11.09, "internal_energy": -1.99, "cluster_size": 20, "cluster_id": 1, "rank_in_cluster": 14}

>  <energy>  (42) 
-7.05

>  <cluster_rmsd>  (42) 
0.68

>  <cluster>  (42) 
7

$$$$

     RDKit          3D

 57 61  0  0  0  0  0  0  0  0999 V2000
  141.2220   72.7420  221.5330 O   0  0  0  0  0  0  0  0  0  0  0  0
  140.3250   72.7480  222.4310 C   0  0  0  0  0  0  0  0  0  0  0  0
  139.4040   73.8660  222.3310 N   0  0  0  0  0  0  0  0  0  0  0  0
  139.6450   74.7790  221.2590 C   0  0  0  0  0  0  0  0  0  0  0  0
  138.9760   76.0560  221.2060 C   0  0  0  0  0  0  0  0  0  0  0  0
  137.6960   75.9520  220.9090 O   0  0  0  0  0  0  0  0  0  0  0  0
  139.3980   77.3640  221.4070 N   0  0  0  0  0  0  0  0  0  0  0  0
  138.6110   78.4880  221.9350 C   0  0  0  0  0  0  0  0  0  0  0  0
  139.2170   78.9870  223.2100 C   0  0  0  0  0  0  0  0  0  0  0  0
  140.6910   78.8920  223.3320 C   0  0  0  0  0  0  0  0  0  0  0  0
  141.4100   77.8930  222.4990 C   0  0  0  0  0  0  0  0  0  0  0  0
  140.7980   77.8080  221.1510 C   0  0  1  0  0  0  0  0  0  0  0  0
  141.5470   76.8450  220.3140 C   0  0  0  0  0  0  0  0  0  0  0  0
  142.3910   76.0270  220.4500 N   0  0  0  0  0  0  0  0  0  0  0  0
  142.9950   75.2740  219.5640 C   0  0  0  0  0  0  0  0  0  0  0  0
  144.0330   74.2810  219.8120 C   0  0  0  0  0  0  0  0  0  0  0  0
  145.0010   74.5050  220.7780 C   0  0  0  0  0  0  0  0  0  0  0  0
  145.9980   73.5840  221.0360 C   0  0  0  0  0  0  0  0  0  0  0  0
  146.0260   72.3960  220.3010 C   0  0  0  0  0  0  0  0  0  0  0  0
  145.0620   72.1450  219.3220 C   0  0  0  0  0  0  0  0  0  0  0  0
  144.1010   73.1070  219.1210 C   0  0  0  0  0  0  0  0  0  0  0  0
  142.5180   75.5250  218.2490 C   0  0  0  0  0  0  0  0  0  0  0  0
  141.2430   76.8330  218.4700 S   0  0  0  0  0  0  0  0  0  0  0  0
  140.2110   71.7480  223.4650 C   0  0  0  0  0  0  0  0  0  0  0  0
  139.6250   70.5440  223.1340 C   0  0  0  0  0  0  0  0  0  0  0  0
  139.5240   69.5900  224.1440 C   0  0  0  0  0  0  0  0  0  0  0  0
  139.9970   69.8470  225.4320 C   0  0  0  0  0  0  0  0  0  0  0  0
  139.9150   68.9340  226.4500 C   0  0  0  0  0  0  0  0  0  0  0  0
  140.4040   69.2550  227.7060 C   0  0  0  0  0  0  0  0  0  0  0  0
  140.3430   68.3770  228.7510 F   0  0  0  0  0  0  0  0  0  0  0  0
  140.9770   70.5020  227.9310 C   0  0  0  0  0  0  0  0  0  0  0  0
  141.0700   71.4400  226.9170 C   0  0  0  0  0  0  0  0  0  0  0  0
  140.5690   71.0720  225.6880 C   0  0  0  0  0  0  0  0  0  0  0  0
  140.6640   71.9920  224.7010 N   0  0  0  0  0  0  0  0  0  0  0  0
  138.6330   73.9410  223.0310 H   0  0  0  0  0  0  0  0  0  0  0  0
  140.7243   74.9914  221.2658 H   0  0  0  0  0  0  0  0  0  0  0  0
  139.2246   74.2495  220.3913 H   0  0  0  0  0  0  0  0  0  0  0  0
  138.5980   79.3021  221.1954 H   0  0  0  0  0  0  0  0  0  0  0  0
  137.5845   78.1464  222.1340 H   0  0  0  0  0  0  0  0  0  0  0  0
  138.9420   80.0467  223.3166 H   0  0  0  0  0  0  0  0  0  0  0  0
  138.8203   78.3262  223.9949 H   0  0  0  0  0  0  0  0  0  0  0  0
  141.1018   79.8807  223.0797 H   0  0  0  0  0  0  0  0  0  0  0  0
  140.8535   78.5479  224.3641 H   0  0  0  0  0  0  0  0  0  0  0  0
  142.4634   78.1940  222.4005 H   0  0  0  0  0  0  0  0  0  0  0  0
  141.3422   76.9083  222.9845 H   0  0  0  0  0  0  0  0  0  0  0  0
  140.8195   78.7603  220.6008 H   0  0  0  0  0  0  0  0  0  0  0  0
  144.9749   75.4412  221.3549 H   0  0  0  0  0  0  0  0  0  0  0  0
  146.7570   73.7826  221.8071 H   0  0  0  0  0  0  0  0  0  0  0  0
  146.8133   71.6527  220.4949 H   0  0  0  0  0  0  0  0  0  0  0  0
  145.0714   71.2146  218.7353 H   0  0  0  0  0  0  0  0  0  0  0  0
  143.3369   72.9177  218.3527 H   0  0  0  0  0  0  0  0  0  0  0  0
  142.8383   75.0461  217.3119 H   0  0  0  0  0  0  0  0  0  0  0  0
  139.2539   70.3460  222.1176 H   0  0  0  0  0  0  0  0  0  0  0  0
  139.0630   68.6161  223.9225 H   0  0  0  0  0  0  0  0  0  0  0  0
  139.4618   67.9479  226.2706 H   0  0  0  0  0  0  0  0  0  0  0  0
  141.3628   70.7472  228.9315 H   0  0  0  0  0  0  0  0  0  0  0  0
  141.5212   72.4291  227.0844 H   0  0  0  0  0  0  0  0  0  0  0  0
  1  2  2  0
  2  3  1  0
  3  4  1  0
  4  5  1  0
  5  6  2  0
  5  7  1  0
  7  8  1  0
  8  9  1  0
  9 10  1  0
 10 11  1  0
 11 12  1  0
 12 13  1  0
 13 14  2  0
 14 15  1  0
 15 16  1  0
 16 17  2  0
 17 18  1  0
 18 19  2  0
 19 20  1  0
 20 21  2  0
 15 22  2  0
 22 23  1  0
  2 24  1  0
 24 25  2  0
 25 26  1  0
 26 27  2  0
 27 28  1  0
 28 29  2  0
 29 30  1  0
 29 31  1  0
 31 32  2  0
 32 33  1  0
 33 34  2  0
 12  7  1  0
 23 13  1  0
 34 24  1  0
 21 16  1  0
 33 27  1  0
  3 35  1  0
  4 36  1  0
  4 37  1  0
  8 38  1  0
  8 39  1  0
  9 40  1  0
  9 41  1  0
 10 42  1  0
 10 43  1  0
 11 44  1  0
 11 45  1  0
 12 46  1  6
 17 47  1  0
 18 48  1  0
 19 49  1  0
 20 50  1  0
 21 51  1  0
 22 52  1  0
 25 53  1  0
 26 54  1  0
 28 55  1  0
 31 56  1  0
 32 57  1  0
M  END
>  <smiles>  (43) 
O=C(NCC(=O)N1CCCC[C@H]1c1nc(-c2ccccc2)cs1)c1ccc2cc(F)ccc2n1

>  <score_type>  (43) 
oracle

>  <origin>  (43) 
autodockgpu

>  <m_score__min__energy>  (43) 
-10

>  <m_primary>  (43) 
energy

>  <rmsd>  (43) 
5.517517055102742

>  <m_score__min__rmsd>  (43) 
5.517517055102742

>  <meeko>  (43) 
{"free_energy": -9.34, "intermolecular_energy": -11.13, "internal_energy": -1.93, "cluster_size": 20, "cluster_id": 1, "rank_in_cluster": 13}

>  <energy>  (43) 
-7.01

>  <cluster_rmsd>  (43) 
0.5

>  <cluster>  (43) 
7

$$$$

     RDKit          3D

 57 61  0  0  0  0  0  0  0  0999 V2000
  140.3820   74.0210  221.7910 O   0  0  0  0  0  0  0  0  0  0  0  0
  141.4490   74.5680  221.3720 C   0  0  0  0  0  0  0  0  0  0  0  0
  141.4180   76.0190  221.4150 N   0  0  0  0  0  0  0  0  0  0  0  0
  140.2120   76.6040  221.9080 C   0  0  0  0  0  0  0  0  0  0  0  0
  139.8130   77.9320  221.5100 C   0  0  0  0  0  0  0  0  0  0  0  0
  138.7820   77.9320  220.6890 O   0  0  0  0  0  0  0  0  0  0  0  0
  140.2860   79.2020  221.8150 N   0  0  0  0  0  0  0  0  0  0  0  0
  139.7770   80.1250  222.8400 C   0  0  0  0  0  0  0  0  0  0  0  0
  140.8410   80.4020  223.8570 C   0  0  0  0  0  0  0  0  0  0  0  0
  142.2410   80.4090  223.3740 C   0  0  0  0  0  0  0  0  0  0  0  0
  142.5680   79.6650  222.1290 C   0  0  0  0  0  0  0  0  0  0  0  0
  141.4710   79.8060  221.1410 C   0  0  1  0  0  0  0  0  0  0  0  0
  141.8220   79.1000  219.8890 C   0  0  0  0  0  0  0  0  0  0  0  0
  141.9650   77.9870  219.5130 N   0  0  0  0  0  0  0  0  0  0  0  0
  142.3400   77.5260  218.3460 C   0  0  0  0  0  0  0  0  0  0  0  0
  142.4930   76.1290  217.9570 C   0  0  0  0  0  0  0  0  0  0  0  0
  143.7110   75.6610  217.4910 C   0  0  0  0  0  0  0  0  0  0  0  0
  143.8880   74.3440  217.1150 C   0  0  0  0  0  0  0  0  0  0  0  0
  142.8060   73.4630  217.2100 C   0  0  0  0  0  0  0  0  0  0  0  0
  141.5680   73.9090  217.6760 C   0  0  0  0  0  0  0  0  0  0  0  0
  141.4670   75.2340  218.0320 C   0  0  0  0  0  0  0  0  0  0  0  0
  142.6030   78.5770  217.4260 C   0  0  0  0  0  0  0  0  0  0  0  0
  142.2690   80.1130  218.3830 S   0  0  0  0  0  0  0  0  0  0  0  0
  142.5950   73.8360  220.8920 C   0  0  0  0  0  0  0  0  0  0  0  0
  143.7910   74.5160  220.7780 C   0  0  0  0  0  0  0  0  0  0  0  0
  144.8880   73.7950  220.3130 C   0  0  0  0  0  0  0  0  0  0  0  0
  144.7770   72.4440  219.9800 C   0  0  0  0  0  0  0  0  0  0  0  0
  145.8330   71.7020  219.5210 C   0  0  0  0  0  0  0  0  0  0  0  0
  145.6530   70.3640  219.2080 C   0  0  0  0  0  0  0  0  0  0  0  0
  146.6770   69.5870  218.7460 F   0  0  0  0  0  0  0  0  0  0  0  0
  144.4020   69.7770  219.3600 C   0  0  0  0  0  0  0  0  0  0  0  0
  143.3200   70.5070  219.8230 C   0  0  0  0  0  0  0  0  0  0  0  0
  143.5520   71.8320  220.1200 C   0  0  0  0  0  0  0  0  0  0  0  0
  142.4920   72.5410  220.5720 N   0  0  0  0  0  0  0  0  0  0  0  0
  142.2600   76.5450  221.0910 H   0  0  0  0  0  0  0  0  0  0  0  0
  139.3942   75.9302  221.6127 H   0  0  0  0  0  0  0  0  0  0  0  0
  140.4237   76.7265  222.9805 H   0  0  0  0  0  0  0  0  0  0  0  0
  139.4757   81.0689  222.3623 H   0  0  0  0  0  0  0  0  0  0  0  0
  138.9116   79.6658  223.3402 H   0  0  0  0  0  0  0  0  0  0  0  0
  140.6347   81.3903  224.2936 H   0  0  0  0  0  0  0  0  0  0  0  0
  140.7857   79.5636  224.5669 H   0  0  0  0  0  0  0  0  0  0  0  0
  142.5211   81.4595  223.2070 H   0  0  0  0  0  0  0  0  0  0  0  0
  142.7981   79.8765  224.1588 H   0  0  0  0  0  0  0  0  0  0  0  0
  143.4971   80.0676  221.6993 H   0  0  0  0  0  0  0  0  0  0  0  0
  142.6954   78.5998  222.3721 H   0  0  0  0  0  0  0  0  0  0  0  0
  141.2765   80.8490  220.8507 H   0  0  0  0  0  0  0  0  0  0  0  0
  144.5597   76.3571  217.4186 H   0  0  0  0  0  0  0  0  0  0  0  0
  144.8637   73.9938  216.7470 H   0  0  0  0  0  0  0  0  0  0  0  0
  142.9314   72.4107  216.9153 H   0  0  0  0  0  0  0  0  0  0  0  0
  140.7076   73.2282  217.7554 H   0  0  0  0  0  0  0  0  0  0  0  0
  140.4956   75.5948  218.4011 H   0  0  0  0  0  0  0  0  0  0  0  0
  142.9315   78.4917  216.3797 H   0  0  0  0  0  0  0  0  0  0  0  0
  143.8739   75.5804  221.0428 H   0  0  0  0  0  0  0  0  0  0  0  0
  145.8597   74.2994  220.2062 H   0  0  0  0  0  0  0  0  0  0  0  0
  146.8224   72.1675  219.4010 H   0  0  0  0  0  0  0  0  0  0  0  0
  144.2693   68.7145  219.1082 H   0  0  0  0  0  0  0  0  0  0  0  0
  142.3262   70.0521  219.9472 H   0  0  0  0  0  0  0  0  0  0  0  0
  1  2  2  0
  2  3  1  0
  3  4  1  0
  4  5  1  0
  5  6  2  0
  5  7  1  0
  7  8  1  0
  8  9  1  0
  9 10  1  0
 10 11  1  0
 11 12  1  0
 12 13  1  0
 13 14  2  0
 14 15  1  0
 15 16  1  0
 16 17  2  0
 17 18  1  0
 18 19  2  0
 19 20  1  0
 20 21  2  0
 15 22  2  0
 22 23  1  0
  2 24  1  0
 24 25  2  0
 25 26  1  0
 26 27  2  0
 27 28  1  0
 28 29  2  0
 29 30  1  0
 29 31  1  0
 31 32  2  0
 32 33  1  0
 33 34  2  0
 12  7  1  0
 23 13  1  0
 34 24  1  0
 21 16  1  0
 33 27  1  0
  3 35  1  0
  4 36  1  0
  4 37  1  0
  8 38  1  0
  8 39  1  0
  9 40  1  0
  9 41  1  0
 10 42  1  0
 10 43  1  0
 11 44  1  0
 11 45  1  0
 12 46  1  6
 17 47  1  0
 18 48  1  0
 19 49  1  0
 20 50  1  0
 21 51  1  0
 22 52  1  0
 25 53  1  0
 26 54  1  0
 28 55  1  0
 31 56  1  0
 32 57  1  0
M  END
>  <smiles>  (44) 
O=C(NCC(=O)N1CCCC[C@H]1c1nc(-c2ccccc2)cs1)c1ccc2cc(F)ccc2n1

>  <score_type>  (44) 
oracle

>  <origin>  (44) 
autodockgpu

>  <m_score__min__energy>  (44) 
-10

>  <m_primary>  (44) 
energy

>  <rmsd>  (44) 
7.326538219059288

>  <m_score__min__rmsd>  (44) 
7.326538219059288

>  <meeko>  (44) 
{"free_energy": -7.05, "intermolecular_energy": -8.84, "internal_energy": -3.92, "cluster_size": 15, "cluster_id": 7, "rank_in_cluster": 9}

>  <energy>  (44) 
-6.82

>  <cluster_rmsd>  (44) 
0.86

>  <cluster>  (44) 
7

$$$$

     RDKit          3D

 57 61  0  0  0  0  0  0  0  0999 V2000
  141.4090   72.8950  221.7700 O   0  0  0  0  0  0  0  0  0  0  0  0
  140.4030   72.7730  222.5340 C   0  0  0  0  0  0  0  0  0  0  0  0
  139.3880   73.7930  222.3320 N   0  0  0  0  0  0  0  0  0  0  0  0
  139.6730   74.7660  221.3250 C   0  0  0  0  0  0  0  0  0  0  0  0
  138.9850   76.0340  221.3020 C   0  0  0  0  0  0  0  0  0  0  0  0
  137.6870   75.9080  221.1140 O   0  0  0  0  0  0  0  0  0  0  0  0
  139.4050   77.3500  221.4400 N   0  0  0  0  0  0  0  0  0  0  0  0
  138.6260   78.4910  221.9420 C   0  0  0  0  0  0  0  0  0  0  0  0
  139.2620   79.0430  223.1810 C   0  0  0  0  0  0  0  0  0  0  0  0
  140.7390   78.9610  223.2680 C   0  0  0  0  0  0  0  0  0  0  0  0
  141.4420   77.9330  222.4560 C   0  0  0  0  0  0  0  0  0  0  0  0
  140.7960   77.7910  221.1290 C   0  0  1  0  0  0  0  0  0  0  0  0
  141.5270   76.7980  220.3110 C   0  0  0  0  0  0  0  0  0  0  0  0
  142.3650   75.9770  220.4610 N   0  0  0  0  0  0  0  0  0  0  0  0
  142.9540   75.1950  219.5900 C   0  0  0  0  0  0  0  0  0  0  0  0
  143.9860   74.2000  219.8550 C   0  0  0  0  0  0  0  0  0  0  0  0
  145.0980   74.5280  220.6140 C   0  0  0  0  0  0  0  0  0  0  0  0
  146.0930   73.6080  220.8820 C   0  0  0  0  0  0  0  0  0  0  0  0
  145.9700   72.3130  220.3720 C   0  0  0  0  0  0  0  0  0  0  0  0
  144.8590   71.9550  219.6050 C   0  0  0  0  0  0  0  0  0  0  0  0
  143.9100   72.9240  219.3800 C   0  0  0  0  0  0  0  0  0  0  0  0
  142.4660   75.4140  218.2730 C   0  0  0  0  0  0  0  0  0  0  0  0
  141.2050   76.7390  218.4710 S   0  0  0  0  0  0  0  0  0  0  0  0
  140.2580   71.7290  223.5180 C   0  0  0  0  0  0  0  0  0  0  0  0
  139.6510   70.5550  223.1260 C   0  0  0  0  0  0  0  0  0  0  0  0
  139.5200   69.5570  224.0890 C   0  0  0  0  0  0  0  0  0  0  0  0
  139.9840   69.7430  225.3910 C   0  0  0  0  0  0  0  0  0  0  0  0
  139.8730   68.7850  226.3640 C   0  0  0  0  0  0  0  0  0  0  0  0
  140.3560   69.0360  227.6390 C   0  0  0  0  0  0  0  0  0  0  0  0
  140.2660   68.1120  228.6400 F   0  0  0  0  0  0  0  0  0  0  0  0
  140.9520   70.2590  227.9280 C   0  0  0  0  0  0  0  0  0  0  0  0
  141.0750   71.2420  226.9600 C   0  0  0  0  0  0  0  0  0  0  0  0
  140.5790   70.9420  225.7110 C   0  0  0  0  0  0  0  0  0  0  0  0
  140.7030   71.9060  224.7680 N   0  0  0  0  0  0  0  0  0  0  0  0
  138.5260   73.7610  222.9190 H   0  0  0  0  0  0  0  0  0  0  0  0
  140.7462   74.9937  221.4048 H   0  0  0  0  0  0  0  0  0  0  0  0
  139.3122   74.2780  220.4076 H   0  0  0  0  0  0  0  0  0  0  0  0
  138.5906   79.2748  221.1710 H   0  0  0  0  0  0  0  0  0  0  0  0
  137.6063   78.1540  222.1801 H   0  0  0  0  0  0  0  0  0  0  0  0
  138.9829   80.1045  223.2535 H   0  0  0  0  0  0  0  0  0  0  0  0
  138.8901   78.4111  224.0010 H   0  0  0  0  0  0  0  0  0  0  0  0
  141.1369   79.9411  222.9660 H   0  0  0  0  0  0  0  0  0  0  0  0
  140.9309   78.6595  224.3083 H   0  0  0  0  0  0  0  0  0  0  0  0
  142.4907   78.2351  222.3180 H   0  0  0  0  0  0  0  0  0  0  0  0
  141.3923   76.9681  222.9818 H   0  0  0  0  0  0  0  0  0  0  0  0
  140.7988   78.7208  220.5412 H   0  0  0  0  0  0  0  0  0  0  0  0
  145.1909   75.5485  221.0139 H   0  0  0  0  0  0  0  0  0  0  0  0
  146.9674   73.8902  221.4868 H   0  0  0  0  0  0  0  0  0  0  0  0
  146.7545   71.5694  220.5762 H   0  0  0  0  0  0  0  0  0  0  0  0
  144.7478   70.9393  219.1976 H   0  0  0  0  0  0  0  0  0  0  0  0
  143.0312   72.6520  218.7769 H   0  0  0  0  0  0  0  0  0  0  0  0
  142.7725   74.9067  217.3463 H   0  0  0  0  0  0  0  0  0  0  0  0
  139.2862   70.4126  222.0981 H   0  0  0  0  0  0  0  0  0  0  0  0
  139.0417   68.6044  223.8174 H   0  0  0  0  0  0  0  0  0  0  0  0
  139.4014   67.8182  226.1340 H   0  0  0  0  0  0  0  0  0  0  0  0
  141.3322   70.4488  228.9426 H   0  0  0  0  0  0  0  0  0  0  0  0
  141.5448   72.2125  227.1778 H   0  0  0  0  0  0  0  0  0  0  0  0
  1  2  2  0
  2  3  1  0
  3  4  1  0
  4  5  1  0
  5  6  2  0
  5  7  1  0
  7  8  1  0
  8  9  1  0
  9 10  1  0
 10 11  1  0
 11 12  1  0
 12 13  1  0
 13 14  2  0
 14 15  1  0
 15 16  1  0
 16 17  2  0
 17 18  1  0
 18 19  2  0
 19 20  1  0
 20 21  2  0
 15 22  2  0
 22 23  1  0
  2 24  1  0
 24 25  2  0
 25 26  1  0
 26 27  2  0
 27 28  1  0
 28 29  2  0
 29 30  1  0
 29 31  1  0
 31 32  2  0
 32 33  1  0
 33 34  2  0
 12  7  1  0
 23 13  1  0
 34 24  1  0
 21 16  1  0
 33 27  1  0
  3 35  1  0
  4 36  1  0
  4 37  1  0
  8 38  1  0
  8 39  1  0
  9 40  1  0
  9 41  1  0
 10 42  1  0
 10 43  1  0
 11 44  1  0
 11 45  1  0
 12 46  1  6
 17 47  1  0
 18 48  1  0
 19 49  1  0
 20 50  1  0
 21 51  1  0
 22 52  1  0
 25 53  1  0
 26 54  1  0
 28 55  1  0
 31 56  1  0
 32 57  1  0
M  END
>  <smiles>  (45) 
O=C(NCC(=O)N1CCCC[C@H]1c1nc(-c2ccccc2)cs1)c1ccc2cc(F)ccc2n1

>  <score_type>  (45) 
oracle

>  <origin>  (45) 
autodockgpu

>  <m_score__min__energy>  (45) 
-10

>  <m_primary>  (45) 
energy

>  <rmsd>  (45) 
5.549899077869247

>  <m_score__min__rmsd>  (45) 
5.549899077869247

>  <meeko>  (45) 
{"free_energy": -9.36, "intermolecular_energy": -11.15, "internal_energy": -1.94, "cluster_size": 20, "cluster_id": 1, "rank_in_cluster": 11}

>  <energy>  (45) 
-6.82

>  <cluster_rmsd>  (45) 
0.64

>  <cluster>  (45) 
7

$$$$

     RDKit          3D

 57 61  0  0  0  0  0  0  0  0999 V2000
  140.4350   73.5180  220.6300 O   0  0  0  0  0  0  0  0  0  0  0  0
  139.9790   73.4770  221.8140 C   0  0  0  0  0  0  0  0  0  0  0  0
  139.5750   74.7740  222.3300 N   0  0  0  0  0  0  0  0  0  0  0  0
  139.7530   75.8810  221.4460 C   0  0  0  0  0  0  0  0  0  0  0  0
  140.2480   77.1460  221.9300 C   0  0  0  0  0  0  0  0  0  0  0  0
  140.8700   77.0440  223.0880 O   0  0  0  0  0  0  0  0  0  0  0  0
  140.2080   78.4410  221.4300 N   0  0  0  0  0  0  0  0  0  0  0  0
  139.2730   79.5150  221.7970 C   0  0  0  0  0  0  0  0  0  0  0  0
  140.0210   80.6680  222.3920 C   0  0  0  0  0  0  0  0  0  0  0  0
  141.3880   80.9150  221.8780 C   0  0  0  0  0  0  0  0  0  0  0  0
  142.1230   79.7900  221.2440 C   0  0  0  0  0  0  0  0  0  0  0  0
  141.1980   78.9550  220.4400 C   0  0  1  0  0  0  0  0  0  0  0  0
  141.9440   77.8630  219.7770 C   0  0  0  0  0  0  0  0  0  0  0  0
  142.4490   76.8340  220.0700 N   0  0  0  0  0  0  0  0  0  0  0  0
  143.1360   75.9880  219.3450 C   0  0  0  0  0  0  0  0  0  0  0  0
  143.7300   74.7300  219.7820 C   0  0  0  0  0  0  0  0  0  0  0  0
  144.9300   74.7250  220.4750 C   0  0  0  0  0  0  0  0  0  0  0  0
  145.5180   73.5510  220.9030 C   0  0  0  0  0  0  0  0  0  0  0  0
  144.8810   72.3370  220.6270 C   0  0  0  0  0  0  0  0  0  0  0  0
  143.6710   72.3140  219.9310 C   0  0  0  0  0  0  0  0  0  0  0  0
  143.1450   73.5220  219.5370 C   0  0  0  0  0  0  0  0  0  0  0  0
  143.2620   76.4300  218.0000 C   0  0  0  0  0  0  0  0  0  0  0  0
  142.3580   78.0320  217.9630 S   0  0  0  0  0  0  0  0  0  0  0  0
  139.8650   72.2690  222.5940 C   0  0  0  0  0  0  0  0  0  0  0  0
  139.2240   71.1910  222.0190 C   0  0  0  0  0  0  0  0  0  0  0  0
  139.1220   70.0330  222.7860 C   0  0  0  0  0  0  0  0  0  0  0  0
  139.6480   69.9710  224.0770 C   0  0  0  0  0  0  0  0  0  0  0  0
  139.5670   68.8500  224.8600 C   0  0  0  0  0  0  0  0  0  0  0  0
  140.1100   68.8570  226.1350 C   0  0  0  0  0  0  0  0  0  0  0  0
  140.0520   67.7630  226.9510 F   0  0  0  0  0  0  0  0  0  0  0  0
  140.7350   70.0020  226.6170 C   0  0  0  0  0  0  0  0  0  0  0  0
  140.8290   71.1470  225.8440 C   0  0  0  0  0  0  0  0  0  0  0  0
  140.2730   71.0870  224.5850 C   0  0  0  0  0  0  0  0  0  0  0  0
  140.3680   72.2080  223.8330 N   0  0  0  0  0  0  0  0  0  0  0  0
  139.1850   74.8250  223.2970 H   0  0  0  0  0  0  0  0  0  0  0  0
  140.4538   75.5487  220.6660 H   0  0  0  0  0  0  0  0  0  0  0  0
  138.7215   76.1223  221.1499 H   0  0  0  0  0  0  0  0  0  0  0  0
  138.7373   79.8539  220.8980 H   0  0  0  0  0  0  0  0  0  0  0  0
  138.5561   79.1306  222.5374 H   0  0  0  0  0  0  0  0  0  0  0  0
  139.4286   81.5772  222.2119 H   0  0  0  0  0  0  0  0  0  0  0  0
  140.1553   80.4071  223.4521 H   0  0  0  0  0  0  0  0  0  0  0  0
  141.3128   81.7166  221.1285 H   0  0  0  0  0  0  0  0  0  0  0  0
  141.9758   81.1459  222.7787 H   0  0  0  0  0  0  0  0  0  0  0  0
  142.9087   80.1941  220.5887 H   0  0  0  0  0  0  0  0  0  0  0  0
  142.5711   79.1675  222.0325 H   0  0  0  0  0  0  0  0  0  0  0  0
  140.7020   79.5103  219.6303 H   0  0  0  0  0  0  0  0  0  0  0  0
  145.4277   75.6821  220.6900 H   0  0  0  0  0  0  0  0  0  0  0  0
  146.4712   73.5705  221.4517 H   0  0  0  0  0  0  0  0  0  0  0  0
  145.3367   71.3931  220.9608 H   0  0  0  0  0  0  0  0  0  0  0  0
  143.1585   71.3669  219.7066 H   0  0  0  0  0  0  0  0  0  0  0  0
  142.1912   73.5138  218.9891 H   0  0  0  0  0  0  0  0  0  0  0  0
  143.7816   75.9285  217.1702 H   0  0  0  0  0  0  0  0  0  0  0  0
  138.8120   71.2438  221.0004 H   0  0  0  0  0  0  0  0  0  0  0  0
  138.6172   69.1505  222.3661 H   0  0  0  0  0  0  0  0  0  0  0  0
  139.0716   67.9455  224.4773 H   0  0  0  0  0  0  0  0  0  0  0  0
  141.1624   69.9980  227.6306 H   0  0  0  0  0  0  0  0  0  0  0  0
  141.3220   72.0573  226.2159 H   0  0  0  0  0  0  0  0  0  0  0  0
  1  2  2  0
  2  3  1  0
  3  4  1  0
  4  5  1  0
  5  6  2  0
  5  7  1  0
  7  8  1  0
  8  9  1  0
  9 10  1  0
 10 11  1  0
 11 12  1  0
 12 13  1  0
 13 14  2  0
 14 15  1  0
 15 16  1  0
 16 17  2  0
 17 18  1  0
 18 19  2  0
 19 20  1  0
 20 21  2  0
 15 22  2  0
 22 23  1  0
  2 24  1  0
 24 25  2  0
 25 26  1  0
 26 27  2  0
 27 28  1  0
 28 29  2  0
 29 30  1  0
 29 31  1  0
 31 32  2  0
 32 33  1  0
 33 34  2  0
 12  7  1  0
 23 13  1  0
 34 24  1  0
 21 16  1  0
 33 27  1  0
  3 35  1  0
  4 36  1  0
  4 37  1  0
  8 38  1  0
  8 39  1  0
  9 40  1  0
  9 41  1  0
 10 42  1  0
 10 43  1  0
 11 44  1  0
 11 45  1  0
 12 46  1  6
 17 47  1  0
 18 48  1  0
 19 49  1  0
 20 50  1  0
 21 51  1  0
 22 52  1  0
 25 53  1  0
 26 54  1  0
 28 55  1  0
 31 56  1  0
 32 57  1  0
M  END
>  <smiles>  (46) 
O=C(NCC(=O)N1CCCC[C@H]1c1nc(-c2ccccc2)cs1)c1ccc2cc(F)ccc2n1

>  <score_type>  (46) 
oracle

>  <origin>  (46) 
autodockgpu

>  <m_score__min__energy>  (46) 
-10

>  <m_primary>  (46) 
energy

>  <rmsd>  (46) 
5.4889784640282

>  <m_score__min__rmsd>  (46) 
5.4889784640282

>  <meeko>  (46) 
{"free_energy": -8.83, "intermolecular_energy": -10.62, "internal_energy": -2.3, "cluster_size": 20, "cluster_id": 1, "rank_in_cluster": 18}

>  <energy>  (46) 
-6.81

>  <cluster_rmsd>  (46) 
0.87

>  <cluster>  (46) 
7

$$$$

     RDKit          3D

 57 61  0  0  0  0  0  0  0  0999 V2000
  141.3350   72.6270  221.5960 O   0  0  0  0  0  0  0  0  0  0  0  0
  140.4180   72.6860  222.4720 C   0  0  0  0  0  0  0  0  0  0  0  0
  139.5760   73.8640  222.3590 N   0  0  0  0  0  0  0  0  0  0  0  0
  139.9030   74.7660  221.3010 C   0  0  0  0  0  0  0  0  0  0  0  0
  140.9230   75.7720  221.4730 C   0  0  0  0  0  0  0  0  0  0  0  0
  141.0010   76.2160  222.7110 O   0  0  0  0  0  0  0  0  0  0  0  0
  141.8350   76.3630  220.6080 N   0  0  0  0  0  0  0  0  0  0  0  0
  142.7160   75.6920  219.6410 C   0  0  0  0  0  0  0  0  0  0  0  0
  142.3860   76.1380  218.2490 C   0  0  0  0  0  0  0  0  0  0  0  0
  141.9070   77.5300  218.0890 C   0  0  0  0  0  0  0  0  0  0  0  0
  141.2950   78.2110  219.2610 C   0  0  0  0  0  0  0  0  0  0  0  0
  142.0110   77.8400  220.5060 C   0  0  1  0  0  0  0  0  0  0  0  0
  141.4240   78.5550  221.6610 C   0  0  0  0  0  0  0  0  0  0  0  0
  140.3510   78.8290  222.0770 N   0  0  0  0  0  0  0  0  0  0  0  0
  140.0000   79.5350  223.1230 C   0  0  0  0  0  0  0  0  0  0  0  0
  138.6450   79.8300  223.5730 C   0  0  0  0  0  0  0  0  0  0  0  0
  138.4220   80.8080  224.5300 C   0  0  0  0  0  0  0  0  0  0  0  0
  137.1510   81.1110  224.9770 C   0  0  0  0  0  0  0  0  0  0  0  0
  136.0640   80.4100  224.4470 C   0  0  0  0  0  0  0  0  0  0  0  0
  136.2610   79.4200  223.4820 C   0  0  0  0  0  0  0  0  0  0  0  0
  137.5540   79.1730  223.0860 C   0  0  0  0  0  0  0  0  0  0  0  0
  141.1320   80.0230  223.8310 C   0  0  0  0  0  0  0  0  0  0  0  0
  142.5720   79.3880  222.8780 S   0  0  0  0  0  0  0  0  0  0  0  0
  140.2130   71.6890  223.4940 C   0  0  0  0  0  0  0  0  0  0  0  0
  139.5190   70.5480  223.1500 C   0  0  0  0  0  0  0  0  0  0  0  0
  139.3300   69.5950  224.1490 C   0  0  0  0  0  0  0  0  0  0  0  0
  139.8240   69.7920  225.4390 C   0  0  0  0  0  0  0  0  0  0  0  0
  139.6580   68.8790  226.4460 C   0  0  0  0  0  0  0  0  0  0  0  0
  140.1750   69.1390  227.7060 C   0  0  0  0  0  0  0  0  0  0  0  0
  140.0330   68.2580  228.7400 F   0  0  0  0  0  0  0  0  0  0  0  0
  140.8590   70.3250  227.9450 C   0  0  0  0  0  0  0  0  0  0  0  0
  141.0390   71.2630  226.9420 C   0  0  0  0  0  0  0  0  0  0  0  0
  140.5070   70.9560  225.7090 C   0  0  0  0  0  0  0  0  0  0  0  0
  140.6860   71.8760  224.7330 N   0  0  0  0  0  0  0  0  0  0  0  0
  138.7950   73.9840  223.0410 H   0  0  0  0  0  0  0  0  0  0  0  0
  140.2147   74.1469  220.4468 H   0  0  0  0  0  0  0  0  0  0  0  0
  138.9858   75.3649  221.2004 H   0  0  0  0  0  0  0  0  0  0  0  0
  143.7627   75.9450  219.8657 H   0  0  0  0  0  0  0  0  0  0  0  0
  142.5700   74.6042  219.7150 H   0  0  0  0  0  0  0  0  0  0  0  0
  143.2952   76.0270  217.6398 H   0  0  0  0  0  0  0  0  0  0  0  0
  141.5416   75.5058  217.9371 H   0  0  0  0  0  0  0  0  0  0  0  0
  142.7700   78.1360  217.7760 H   0  0  0  0  0  0  0  0  0  0  0  0
  141.0826   77.4486  217.3653 H   0  0  0  0  0  0  0  0  0  0  0  0
  141.3547   79.3002  219.1193 H   0  0  0  0  0  0  0  0  0  0  0  0
  140.2439   77.8983  219.3469 H   0  0  0  0  0  0  0  0  0  0  0  0
  143.0761   78.1148  220.4957 H   0  0  0  0  0  0  0  0  0  0  0  0
  139.2803   81.3572  224.9443 H   0  0  0  0  0  0  0  0  0  0  0  0
  136.9966   81.8908  225.7373 H   0  0  0  0  0  0  0  0  0  0  0  0
  135.0454   80.6400  224.7928 H   0  0  0  0  0  0  0  0  0  0  0  0
  135.4154   78.8603  223.0558 H   0  0  0  0  0  0  0  0  0  0  0  0
  137.7193   78.3945  222.3267 H   0  0  0  0  0  0  0  0  0  0  0  0
  141.1442   80.6400  224.7416 H   0  0  0  0  0  0  0  0  0  0  0  0
  139.1316   70.3968  222.1316 H   0  0  0  0  0  0  0  0  0  0  0  0
  138.7813   68.6705  223.9163 H   0  0  0  0  0  0  0  0  0  0  0  0
  139.1156   67.9412  226.2557 H   0  0  0  0  0  0  0  0  0  0  0  0
  141.2645   70.5222  228.9483 H   0  0  0  0  0  0  0  0  0  0  0  0
  141.5789   72.2046  227.1208 H   0  0  0  0  0  0  0  0  0  0  0  0
  1  2  2  0
  2  3  1  0
  3  4  1  0
  4  5  1  0
  5  6  2  0
  5  7  1  0
  7  8  1  0
  8  9  1  0
  9 10  1  0
 10 11  1  0
 11 12  1  0
 12 13  1  0
 13 14  2  0
 14 15  1  0
 15 16  1  0
 16 17  2  0
 17 18  1  0
 18 19  2  0
 19 20  1  0
 20 21  2  0
 15 22  2  0
 22 23  1  0
  2 24  1  0
 24 25  2  0
 25 26  1  0
 26 27  2  0
 27 28  1  0
 28 29  2  0
 29 30  1  0
 29 31  1  0
 31 32  2  0
 32 33  1  0
 33 34  2  0
 12  7  1  0
 23 13  1  0
 34 24  1  0
 21 16  1  0
 33 27  1  0
  3 35  1  0
  4 36  1  0
  4 37  1  0
  8 38  1  0
  8 39  1  0
  9 40  1  0
  9 41  1  0
 10 42  1  0
 10 43  1  0
 11 44  1  0
 11 45  1  0
 12 46  1  6
 17 47  1  0
 18 48  1  0
 19 49  1  0
 20 50  1  0
 21 51  1  0
 22 52  1  0
 25 53  1  0
 26 54  1  0
 28 55  1  0
 31 56  1  0
 32 57  1  0
M  END
>  <smiles>  (47) 
O=C(NCC(=O)N1CCCC[C@H]1c1nc(-c2ccccc2)cs1)c1ccc2cc(F)ccc2n1

>  <score_type>  (47) 
oracle

>  <origin>  (47) 
autodockgpu

>  <m_score__min__energy>  (47) 
-10

>  <m_primary>  (47) 
energy

>  <rmsd>  (47) 
2.734487469080288

>  <m_score__min__rmsd>  (47) 
2.734487469080288

>  <meeko>  (47) 
{"free_energy": -9.56, "intermolecular_energy": -11.35, "internal_energy": -1.49, "cluster_size": 2, "cluster_id": 2, "rank_in_cluster": 1}

>  <energy>  (47) 
-6.8

>  <cluster_rmsd>  (47) 
0.87

>  <cluster>  (47) 
7

$$$$

     RDKit          3D

 57 61  0  0  0  0  0  0  0  0999 V2000
  140.8130   72.3070  221.2620 O   0  0  0  0  0  0  0  0  0  0  0  0
  140.1730   72.6480  222.3030 C   0  0  0  0  0  0  0  0  0  0  0  0
  139.6550   74.0050  222.2530 N   0  0  0  0  0  0  0  0  0  0  0  0
  139.9440   74.7390  221.0630 C   0  0  0  0  0  0  0  0  0  0  0  0
  140.3630   76.1190  221.1250 C   0  0  0  0  0  0  0  0  0  0  0  0
  140.9350   76.5300  220.0110 O   0  0  0  0  0  0  0  0  0  0  0  0
  140.2860   77.0960  222.1080 N   0  0  0  0  0  0  0  0  0  0  0  0
  141.3880   77.8930  222.6680 C   0  0  0  0  0  0  0  0  0  0  0  0
  141.1650   79.3470  222.3880 C   0  0  0  0  0  0  0  0  0  0  0  0
  139.7590   79.8130  222.3480 C   0  0  0  0  0  0  0  0  0  0  0  0
  138.6900   78.8200  222.0610 C   0  0  0  0  0  0  0  0  0  0  0  0
  138.9960   77.5270  222.7190 C   0  0  1  0  0  0  0  0  0  0  0  0
  137.9070   76.5580  222.4660 C   0  0  0  0  0  0  0  0  0  0  0  0
  137.3860   75.6500  223.0180 N   0  0  0  0  0  0  0  0  0  0  0  0
  136.4380   74.8420  222.6160 C   0  0  0  0  0  0  0  0  0  0  0  0
  135.8440   73.7380  223.3620 C   0  0  0  0  0  0  0  0  0  0  0  0
  134.9540   73.9870  224.3950 C   0  0  0  0  0  0  0  0  0  0  0  0
  134.3760   72.9640  225.1190 C   0  0  0  0  0  0  0  0  0  0  0  0
  134.7000   71.6430  224.7980 C   0  0  0  0  0  0  0  0  0  0  0  0
  135.5930   71.3630  223.7620 C   0  0  0  0  0  0  0  0  0  0  0  0
  136.1290   72.4330  223.0850 C   0  0  0  0  0  0  0  0  0  0  0  0
  136.0050   75.1540  221.2990 C   0  0  0  0  0  0  0  0  0  0  0  0
  137.0410   76.5940  220.8100 S   0  0  0  0  0  0  0  0  0  0  0  0
  139.9660   71.7880  223.4420 C   0  0  0  0  0  0  0  0  0  0  0  0
  139.1230   70.7070  223.2880 C   0  0  0  0  0  0  0  0  0  0  0  0
  138.9350   69.8860  224.3970 C   0  0  0  0  0  0  0  0  0  0  0  0
  139.5750   70.1500  225.6090 C   0  0  0  0  0  0  0  0  0  0  0  0
  139.4150   69.3660  226.7200 C   0  0  0  0  0  0  0  0  0  0  0  0
  140.0800   69.6860  227.8930 C   0  0  0  0  0  0  0  0  0  0  0  0
  139.9500   68.9340  229.0260 F   0  0  0  0  0  0  0  0  0  0  0  0
  140.9080   70.8020  227.9400 C   0  0  0  0  0  0  0  0  0  0  0  0
  141.0850   71.6090  226.8280 C   0  0  0  0  0  0  0  0  0  0  0  0
  140.4020   71.2470  225.6890 C   0  0  0  0  0  0  0  0  0  0  0  0
  140.5790   72.0390  224.6060 N   0  0  0  0  0  0  0  0  0  0  0  0
  139.1120   74.3610  223.0710 H   0  0  0  0  0  0  0  0  0  0  0  0
  140.7451   74.1917  220.5446 H   0  0  0  0  0  0  0  0  0  0  0  0
  138.9606   74.8060  220.5748 H   0  0  0  0  0  0  0  0  0  0  0  0
  141.4353   77.7349  223.7556 H   0  0  0  0  0  0  0  0  0  0  0  0
  142.3334   77.5774  222.2026 H   0  0  0  0  0  0  0  0  0  0  0  0
  141.6830   79.9197  223.1714 H   0  0  0  0  0  0  0  0  0  0  0  0
  141.5492   79.5056  221.3696 H   0  0  0  0  0  0  0  0  0  0  0  0
  139.5357   80.2558  223.3299 H   0  0  0  0  0  0  0  0  0  0  0  0
  139.7271   80.4988  221.4885 H   0  0  0  0  0  0  0  0  0  0  0  0
  137.7301   79.2011  222.4395 H   0  0  0  0  0  0  0  0  0  0  0  0
  138.6317   78.6624  220.9739 H   0  0  0  0  0  0  0  0  0  0  0  0
  139.0785   77.6039  223.8132 H   0  0  0  0  0  0  0  0  0  0  0  0
  134.7015   75.0282  224.6445 H   0  0  0  0  0  0  0  0  0  0  0  0
  133.6721   73.1847  225.9350 H   0  0  0  0  0  0  0  0  0  0  0  0
  134.2476   70.8169  225.3663 H   0  0  0  0  0  0  0  0  0  0  0  0
  135.8571   70.3283  223.4980 H   0  0  0  0  0  0  0  0  0  0  0  0
  136.8335   72.2231  222.2667 H   0  0  0  0  0  0  0  0  0  0  0  0
  135.2275   74.6495  220.7066 H   0  0  0  0  0  0  0  0  0  0  0  0
  138.6211   70.5024  222.3308 H   0  0  0  0  0  0  0  0  0  0  0  0
  138.2700   69.0135  224.3164 H   0  0  0  0  0  0  0  0  0  0  0  0
  138.7596   68.4834  226.6816 H   0  0  0  0  0  0  0  0  0  0  0  0
  141.4312   71.0482  228.8757 H   0  0  0  0  0  0  0  0  0  0  0  0
  141.7380   72.4938  226.8539 H   0  0  0  0  0  0  0  0  0  0  0  0
  1  2  2  0
  2  3  1  0
  3  4  1  0
  4  5  1  0
  5  6  2  0
  5  7  1  0
  7  8  1  0
  8  9  1  0
  9 10  1  0
 10 11  1  0
 11 12  1  0
 12 13  1  0
 13 14  2  0
 14 15  1  0
 15 16  1  0
 16 17  2  0
 17 18  1  0
 18 19  2  0
 19 20  1  0
 20 21  2  0
 15 22  2  0
 22 23  1  0
  2 24  1  0
 24 25  2  0
 25 26  1  0
 26 27  2  0
 27 28  1  0
 28 29  2  0
 29 30  1  0
 29 31  1  0
 31 32  2  0
 32 33  1  0
 33 34  2  0
 12  7  1  0
 23 13  1  0
 34 24  1  0
 21 16  1  0
 33 27  1  0
  3 35  1  0
  4 36  1  0
  4 37  1  0
  8 38  1  0
  8 39  1  0
  9 40  1  0
  9 41  1  0
 10 42  1  0
 10 43  1  0
 11 44  1  0
 11 45  1  0
 12 46  1  1
 17 47  1  0
 18 48  1  0
 19 49  1  0
 20 50  1  0
 21 51  1  0
 22 52  1  0
 25 53  1  0
 26 54  1  0
 28 55  1  0
 31 56  1  0
 32 57  1  0
M  END
>  <smiles>  (48) 
O=C(NCC(=O)N1CCCC[C@H]1c1nc(-c2ccccc2)cs1)c1ccc2cc(F)ccc2n1

>  <score_type>  (48) 
oracle

>  <origin>  (48) 
autodockgpu

>  <m_score__min__energy>  (48) 
-10

>  <m_primary>  (48) 
energy

>  <rmsd>  (48) 
5.893237783844156

>  <m_score__min__rmsd>  (48) 
5.893237783844156

>  <meeko>  (48) 
{"free_energy": -7.85, "intermolecular_energy": -9.64, "internal_energy": -3.14, "cluster_size": 5, "cluster_id": 6, "rank_in_cluster": 1}

>  <energy>  (48) 
-6.4

>  <cluster_rmsd>  (48) 
1.04

>  <cluster>  (48) 
7

$$$$

     RDKit          3D

 57 61  0  0  0  0  0  0  0  0999 V2000
  139.5760   74.6460  222.1900 O   0  0  0  0  0  0  0  0  0  0  0  0
  140.7090   74.9320  221.6910 C   0  0  0  0  0  0  0  0  0  0  0  0
  140.9770   76.3580  221.6280 N   0  0  0  0  0  0  0  0  0  0  0  0
  139.9430   77.2100  222.1220 C   0  0  0  0  0  0  0  0  0  0  0  0
  139.7420   78.5290  221.5720 C   0  0  0  0  0  0  0  0  0  0  0  0
  138.8320   78.5540  220.6190 O   0  0  0  0  0  0  0  0  0  0  0  0
  140.3020   79.7710  221.8420 N   0  0  0  0  0  0  0  0  0  0  0  0
  139.8490   80.7630  222.8280 C   0  0  0  0  0  0  0  0  0  0  0  0
  140.9160   80.9960  223.8520 C   0  0  0  0  0  0  0  0  0  0  0  0
  142.3200   80.8840  223.3930 C   0  0  0  0  0  0  0  0  0  0  0  0
  142.6080   80.0760  222.1790 C   0  0  0  0  0  0  0  0  0  0  0  0
  141.5380   80.2620  221.1680 C   0  0  1  0  0  0  0  0  0  0  0  0
  141.8540   79.4900  219.9470 C   0  0  0  0  0  0  0  0  0  0  0  0
  141.9630   78.3580  219.6220 N   0  0  0  0  0  0  0  0  0  0  0  0
  142.3090   77.8330  218.4730 C   0  0  0  0  0  0  0  0  0  0  0  0
  142.4210   76.4160  218.1480 C   0  0  0  0  0  0  0  0  0  0  0  0
  141.3110   75.5890  218.2260 C   0  0  0  0  0  0  0  0  0  0  0  0
  141.3850   74.2430  217.9250 C   0  0  0  0  0  0  0  0  0  0  0  0
  142.6130   73.7050  217.5310 C   0  0  0  0  0  0  0  0  0  0  0  0
  143.7470   74.5160  217.4430 C   0  0  0  0  0  0  0  0  0  0  0  0
  143.5970   75.8460  217.7580 C   0  0  0  0  0  0  0  0  0  0  0  0
  142.5870   78.8330  217.5010 C   0  0  0  0  0  0  0  0  0  0  0  0
  142.3060   80.4190  218.3900 S   0  0  0  0  0  0  0  0  0  0  0  0
  141.6560   73.9490  221.2250 C   0  0  0  0  0  0  0  0  0  0  0  0
  141.1930   72.6710  220.9880 C   0  0  0  0  0  0  0  0  0  0  0  0
  142.1210   71.7350  220.5380 C   0  0  0  0  0  0  0  0  0  0  0  0
  143.4590   72.0810  220.3370 C   0  0  0  0  0  0  0  0  0  0  0  0
  144.3990   71.1880  219.8960 C   0  0  0  0  0  0  0  0  0  0  0  0
  145.7110   71.5980  219.7190 C   0  0  0  0  0  0  0  0  0  0  0  0
  146.6820   70.7420  219.2810 F   0  0  0  0  0  0  0  0  0  0  0  0
  146.0710   72.9130  219.9900 C   0  0  0  0  0  0  0  0  0  0  0  0
  145.1370   73.8330  220.4370 C   0  0  0  0  0  0  0  0  0  0  0  0
  143.8480   73.3750  220.5960 C   0  0  0  0  0  0  0  0  0  0  0  0
  142.9390   74.2780  221.0330 N   0  0  0  0  0  0  0  0  0  0  0  0
  141.8900   76.6750  221.2340 H   0  0  0  0  0  0  0  0  0  0  0  0
  138.9969   76.6660  221.9844 H   0  0  0  0  0  0  0  0  0  0  0  0
  140.2747   77.4235  223.1488 H   0  0  0  0  0  0  0  0  0  0  0  0
  139.6246   81.7097  222.3147 H   0  0  0  0  0  0  0  0  0  0  0  0
  138.9457   80.3853  223.3293 H   0  0  0  0  0  0  0  0  0  0  0  0
  140.7769   82.0112  224.2520 H   0  0  0  0  0  0  0  0  0  0  0  0
  140.7891   80.1883  224.5879 H   0  0  0  0  0  0  0  0  0  0  0  0
  142.6795   81.9048  223.1962 H   0  0  0  0  0  0  0  0  0  0  0  0
  142.8255   80.3397  224.2043 H   0  0  0  0  0  0  0  0  0  0  0  0
  143.5701   80.3947  221.7513 H   0  0  0  0  0  0  0  0  0  0  0  0
  142.6526   79.0134  222.4599 H   0  0  0  0  0  0  0  0  0  0  0  0
  141.4249   81.3056  220.8392 H   0  0  0  0  0  0  0  0  0  0  0  0
  140.3458   76.0161  218.5358 H   0  0  0  0  0  0  0  0  0  0  0  0
  140.4917   73.6049  217.9943 H   0  0  0  0  0  0  0  0  0  0  0  0
  142.6873   72.6347  217.2883 H   0  0  0  0  0  0  0  0  0  0  0  0
  144.7204   74.1072  217.1342 H   0  0  0  0  0  0  0  0  0  0  0  0
  144.4841   76.4930  217.6910 H   0  0  0  0  0  0  0  0  0  0  0  0
  142.8990   78.6907  216.4558 H   0  0  0  0  0  0  0  0  0  0  0  0
  140.1380   72.4033  221.1474 H   0  0  0  0  0  0  0  0  0  0  0  0
  141.7940   70.7041  220.3372 H   0  0  0  0  0  0  0  0  0  0  0  0
  144.1133   70.1474  219.6827 H   0  0  0  0  0  0  0  0  0  0  0  0
  147.1151   73.2283  219.8471 H   0  0  0  0  0  0  0  0  0  0  0  0
  145.4108   74.8761  220.6539 H   0  0  0  0  0  0  0  0  0  0  0  0
  1  2  2  0
  2  3  1  0
  3  4  1  0
  4  5  1  0
  5  6  2  0
  5  7  1  0
  7  8  1  0
  8  9  1  0
  9 10  1  0
 10 11  1  0
 11 12  1  0
 12 13  1  0
 13 14  2  0
 14 15  1  0
 15 16  1  0
 16 17  2  0
 17 18  1  0
 18 19  2  0
 19 20  1  0
 20 21  2  0
 15 22  2  0
 22 23  1  0
  2 24  1  0
 24 25  2  0
 25 26  1  0
 26 27  2  0
 27 28  1  0
 28 29  2  0
 29 30  1  0
 29 31  1  0
 31 32  2  0
 32 33  1  0
 33 34  2  0
 12  7  1  0
 23 13  1  0
 34 24  1  0
 21 16  1  0
 33 27  1  0
  3 35  1  0
  4 36  1  0
  4 37  1  0
  8 38  1  0
  8 39  1  0
  9 40  1  0
  9 41  1  0
 10 42  1  0
 10 43  1  0
 11 44  1  0
 11 45  1  0
 12 46  1  6
 17 47  1  0
 18 48  1  0
 19 49  1  0
 20 50  1  0
 21 51  1  0
 22 52  1  0
 25 53  1  0
 26 54  1  0
 28 55  1  0
 31 56  1  0
 32 57  1  0
M  END
>  <smiles>  (49) 
O=C(NCC(=O)N1CCCC[C@H]1c1nc(-c2ccccc2)cs1)c1ccc2cc(F)ccc2n1

>  <score_type>  (49) 
oracle

>  <origin>  (49) 
autodockgpu

>  <m_score__min__energy>  (49) 
-10

>  <m_primary>  (49) 
energy

>  <rmsd>  (49) 
6.923222016186418

>  <m_score__min__rmsd>  (49) 
6.923222016186418

>  <meeko>  (49) 
{"free_energy": -7.23, "intermolecular_energy": -9.02, "internal_energy": -3.98, "cluster_size": 15, "cluster_id": 7, "rank_in_cluster": 3}

>  <energy>  (49) 
-7.09

>  <cluster_rmsd>  (49) 
0.0

>  <cluster>  (49) 
8

$$$$

     RDKit          3D

 57 61  0  0  0  0  0  0  0  0999 V2000
  139.4000   75.0880  222.3260 O   0  0  0  0  0  0  0  0  0  0  0  0
  140.5570   75.3390  221.8660 C   0  0  0  0  0  0  0  0  0  0  0  0
  140.8860   76.7540  221.8510 N   0  0  0  0  0  0  0  0  0  0  0  0
  139.8750   77.6350  222.3420 C   0  0  0  0  0  0  0  0  0  0  0  0
  139.8130   79.0100  221.9070 C   0  0  0  0  0  0  0  0  0  0  0  0
  138.8080   79.2430  221.0880 O   0  0  0  0  0  0  0  0  0  0  0  0
  140.5870   80.1310  222.1760 N   0  0  0  0  0  0  0  0  0  0  0  0
  140.3630   81.1450  223.2170 C   0  0  0  0  0  0  0  0  0  0  0  0
  141.5120   81.1600  224.1770 C   0  0  0  0  0  0  0  0  0  0  0  0
  142.8480   80.8380  223.6250 C   0  0  0  0  0  0  0  0  0  0  0  0
  142.9270   80.0410  222.3720 C   0  0  0  0  0  0  0  0  0  0  0  0
  141.8450   80.4390  221.4390 C   0  0  1  0  0  0  0  0  0  0  0  0
  141.9560   79.6740  220.1780 C   0  0  0  0  0  0  0  0  0  0  0  0
  141.9870   78.5440  219.8310 N   0  0  0  0  0  0  0  0  0  0  0  0
  142.1450   78.0240  218.6390 C   0  0  0  0  0  0  0  0  0  0  0  0
  142.1710   76.6090  218.2900 C   0  0  0  0  0  0  0  0  0  0  0  0
  143.3390   76.0210  217.8300 C   0  0  0  0  0  0  0  0  0  0  0  0
  143.3960   74.6840  217.4910 C   0  0  0  0  0  0  0  0  0  0  0  0
  142.2420   73.9060  217.6180 C   0  0  0  0  0  0  0  0  0  0  0  0
  141.0520   74.4720  218.0790 C   0  0  0  0  0  0  0  0  0  0  0  0
  141.0710   75.8100  218.3970 C   0  0  0  0  0  0  0  0  0  0  0  0
  142.3000   79.0290  217.6450 C   0  0  0  0  0  0  0  0  0  0  0  0
  142.1950   80.6110  218.5780 S   0  0  0  0  0  0  0  0  0  0  0  0
  141.4740   74.3300  221.3960 C   0  0  0  0  0  0  0  0  0  0  0  0
  140.9960   73.0450  221.2460 C   0  0  0  0  0  0  0  0  0  0  0  0
  141.8960   72.0840  220.7910 C   0  0  0  0  0  0  0  0  0  0  0  0
  143.2200   72.4120  220.5010 C   0  0  0  0  0  0  0  0  0  0  0  0
  144.1320   71.4950  220.0520 C   0  0  0  0  0  0  0  0  0  0  0  0
  145.4340   71.8890  219.7830 C   0  0  0  0  0  0  0  0  0  0  0  0
  146.3770   71.0080  219.3340 F   0  0  0  0  0  0  0  0  0  0  0  0
  145.8110   73.2140  219.9690 C   0  0  0  0  0  0  0  0  0  0  0  0
  144.9060   74.1590  220.4220 C   0  0  0  0  0  0  0  0  0  0  0  0
  143.6260   73.7150  220.6750 C   0  0  0  0  0  0  0  0  0  0  0  0
  142.7450   74.6430  221.1170 N   0  0  0  0  0  0  0  0  0  0  0  0
  141.8220   77.0430  221.4900 H   0  0  0  0  0  0  0  0  0  0  0  0
  138.9087   77.1798  222.0792 H   0  0  0  0  0  0  0  0  0  0  0  0
  140.1322   77.7292  223.4073 H   0  0  0  0  0  0  0  0  0  0  0  0
  140.2692   82.1348  222.7464 H   0  0  0  0  0  0  0  0  0  0  0  0
  139.4402   80.9014  223.7640 H   0  0  0  0  0  0  0  0  0  0  0  0
  141.5668   82.1678  224.6145 H   0  0  0  0  0  0  0  0  0  0  0  0
  141.2965   80.3561  224.8962 H   0  0  0  0  0  0  0  0  0  0  0  0
  143.3590   81.7933  223.4345 H   0  0  0  0  0  0  0  0  0  0  0  0
  143.3030   80.1871  224.3861 H   0  0  0  0  0  0  0  0  0  0  0  0
  143.9016   80.2147  221.8925 H   0  0  0  0  0  0  0  0  0  0  0  0
  142.8125   78.9751  222.6184 H   0  0  0  0  0  0  0  0  0  0  0  0
  141.8873   81.4993  221.1493 H   0  0  0  0  0  0  0  0  0  0  0  0
  144.2453   76.6367  217.7324 H   0  0  0  0  0  0  0  0  0  0  0  0
  144.3337   74.2386  217.1271 H   0  0  0  0  0  0  0  0  0  0  0  0
  142.2716   72.8389  217.3525 H   0  0  0  0  0  0  0  0  0  0  0  0
  140.1360   73.8720  218.1837 H   0  0  0  0  0  0  0  0  0  0  0  0
  140.1383   76.2652  218.7614 H   0  0  0  0  0  0  0  0  0  0  0  0
  142.4489   78.8917  216.5638 H   0  0  0  0  0  0  0  0  0  0  0  0
  139.9508   72.7903  221.4754 H   0  0  0  0  0  0  0  0  0  0  0  0
  141.5557   71.0464  220.6579 H   0  0  0  0  0  0  0  0  0  0  0  0
  143.8323   70.4469  219.9048 H   0  0  0  0  0  0  0  0  0  0  0  0
  146.8461   73.5170  219.7526 H   0  0  0  0  0  0  0  0  0  0  0  0
  145.1938   75.2100  220.5722 H   0  0  0  0  0  0  0  0  0  0  0  0
  1  2  2  0
  2  3  1  0
  3  4  1  0
  4  5  1  0
  5  6  2  0
  5  7  1  0
  7  8  1  0
  8  9  1  0
  9 10  1  0
 10 11  1  0
 11 12  1  0
 12 13  1  0
 13 14  2  0
 14 15  1  0
 15 16  1  0
 16 17  2  0
 17 18  1  0
 18 19  2  0
 19 20  1  0
 20 21  2  0
 15 22  2  0
 22 23  1  0
  2 24  1  0
 24 25  2  0
 25 26  1  0
 26 27  2  0
 27 28  1  0
 28 29  2  0
 29 30  1  0
 29 31  1  0
 31 32  2  0
 32 33  1  0
 33 34  2  0
 12  7  1  0
 23 13  1  0
 34 24  1  0
 21 16  1  0
 33 27  1  0
  3 35  1  0
  4 36  1  0
  4 37  1  0
  8 38  1  0
  8 39  1  0
  9 40  1  0
  9 41  1  0
 10 42  1  0
 10 43  1  0
 11 44  1  0
 11 45  1  0
 12 46  1  6
 17 47  1  0
 18 48  1  0
 19 49  1  0
 20 50  1  0
 21 51  1  0
 22 52  1  0
 25 53  1  0
 26 54  1  0
 28 55  1  0
 31 56  1  0
 32 57  1  0
M  END
>  <smiles>  (50) 
O=C(NCC(=O)N1CCCC[C@H]1c1nc(-c2ccccc2)cs1)c1ccc2cc(F)ccc2n1

>  <score_type>  (50) 
oracle

>  <origin>  (50) 
autodockgpu

>  <m_score__min__energy>  (50) 
-10

>  <m_primary>  (50) 
energy

>  <rmsd>  (50) 
7.034744685695756

>  <m_score__min__rmsd>  (50) 
7.034744685695756

>  <meeko>  (50) 
{"free_energy": -7.14, "intermolecular_energy": -8.93, "internal_energy": -4.18, "cluster_size": 15, "cluster_id": 7, "rank_in_cluster": 6}

>  <energy>  (50) 
-6.09

>  <cluster_rmsd>  (50) 
0.0

>  <cluster>  (50) 
9

$$$$
