
     RDKit          3D

 55 58  0  0  0  0  0  0  0  0999 V2000
  133.1950   72.6250  227.5940 N   0  0  0  0  0  0  0  0  0  0  0  0
  133.5990   73.1760  226.0220 S   0  0  0  0  0  0  0  0  0  0  0  0
  134.4690   74.4040  226.2110 O   0  0  0  0  0  0  0  0  0  0  0  0
  132.3690   73.6680  225.3100 O   0  0  0  0  0  0  0  0  0  0  0  0
  134.4750   71.9810  225.1000 C   0  0  0  0  0  0  0  0  0  0  0  0
  134.9420   72.2660  223.8280 C   0  0  0  0  0  0  0  0  0  0  0  0
  135.6250   71.3340  223.1110 C   0  0  0  0  0  0  0  0  0  0  0  0
  135.8970   70.0490  223.5980 C   0  0  0  0  0  0  0  0  0  0  0  0
  136.6340   69.1070  222.7680 C   0  0  0  0  0  0  0  0  0  0  0  0
  137.8530   68.6870  223.0250 C   0  0  0  0  0  0  0  0  0  0  0  0
  138.6920   69.4420  223.9470 C   0  0  0  0  0  0  0  0  0  0  0  0
  138.8050   69.0200  225.2190 N   0  0  0  0  0  0  0  0  0  0  0  0
  139.5380   69.6490  226.1360 C   0  0  0  0  0  0  0  0  0  0  0  0
  139.6110   69.1590  227.4330 C   0  0  0  0  0  0  0  0  0  0  0  0
  140.3820   69.8480  228.3380 C   0  0  0  0  0  0  0  0  0  0  0  0
  141.0690   71.0020  227.9590 C   0  0  0  0  0  0  0  0  0  0  0  0
  141.8250   71.6660  228.8690 F   0  0  0  0  0  0  0  0  0  0  0  0
  140.9730   71.4560  226.6720 C   0  0  0  0  0  0  0  0  0  0  0  0
  140.2090   70.7890  225.7420 C   0  0  0  0  0  0  0  0  0  0  0  0
  140.0870   71.2100  224.4430 C   0  0  0  0  0  0  0  0  0  0  0  0
  140.7050   72.2470  224.1070 O   0  0  0  0  0  0  0  0  0  0  0  0
  139.3280   70.5460  223.5210 N   0  0  0  0  0  0  0  0  0  0  0  0
  139.2730   71.0860  222.2100 C   0  0  0  0  0  0  0  0  0  0  0  0
  138.8440   72.5150  222.0740 C   0  0  0  0  0  0  0  0  0  0  0  0
  139.8820   73.4730  221.6190 C   0  0  0  0  0  0  0  0  0  0  0  0
  139.2840   74.8560  221.5930 C   0  0  0  0  0  0  0  0  0  0  0  0
  137.8240   74.8310  221.8840 C   0  0  0  0  0  0  0  0  0  0  0  0
  137.0270   73.8180  221.1280 C   0  0  0  0  0  0  0  0  0  0  0  0
  137.7730   72.5040  220.9630 C   0  0  0  0  0  0  0  0  0  0  0  0
  135.4340   69.7750  224.8530 C   0  0  0  0  0  0  0  0  0  0  0  0
  134.7340   70.7280  225.5920 C   0  0  0  0  0  0  0  0  0  0  0  0
  132.2040   72.2770  227.5380 H   0  0  0  0  0  0  0  0  0  0  0  0
  133.2070   73.4700  228.2210 H   0  0  0  0  0  0  0  0  0  0  0  0
  134.7582   73.2590  223.3919 H   0  0  0  0  0  0  0  0  0  0  0  0
  135.9794   71.6008  222.1044 H   0  0  0  0  0  0  0  0  0  0  0  0
  136.1377   68.7208  221.8655 H   0  0  0  0  0  0  0  0  0  0  0  0
  138.2366   67.7731  222.5479 H   0  0  0  0  0  0  0  0  0  0  0  0
  139.0688   68.2481  227.7268 H   0  0  0  0  0  0  0  0  0  0  0  0
  140.4586   69.4855  229.3737 H   0  0  0  0  0  0  0  0  0  0  0  0
  141.5141   72.3670  226.3765 H   0  0  0  0  0  0  0  0  0  0  0  0
  140.2795   71.0001  221.7745 H   0  0  0  0  0  0  0  0  0  0  0  0
  138.4912   70.5060  221.6978 H   0  0  0  0  0  0  0  0  0  0  0  0
  138.5323   72.8519  223.0737 H   0  0  0  0  0  0  0  0  0  0  0  0
  140.7353   73.4515  222.3128 H   0  0  0  0  0  0  0  0  0  0  0  0
  140.2323   73.1969  220.6135 H   0  0  0  0  0  0  0  0  0  0  0  0
  139.7875   75.4762  222.3492 H   0  0  0  0  0  0  0  0  0  0  0  0
  139.4252   75.2714  220.5843 H   0  0  0  0  0  0  0  0  0  0  0  0
  137.6974   74.6272  222.9575 H   0  0  0  0  0  0  0  0  0  0  0  0
  137.4394   75.8113  221.5660 H   0  0  0  0  0  0  0  0  0  0  0  0
  136.0902   73.6271  221.6720 H   0  0  0  0  0  0  0  0  0  0  0  0
  136.8328   74.2233  220.1240 H   0  0  0  0  0  0  0  0  0  0  0  0
  137.0896   71.6518  221.0923 H   0  0  0  0  0  0  0  0  0  0  0  0
  138.2157   72.4014  219.9612 H   0  0  0  0  0  0  0  0  0  0  0  0
  135.6170   68.7822  225.2899 H   0  0  0  0  0  0  0  0  0  0  0  0
  134.3790   70.4665  226.5998 H   0  0  0  0  0  0  0  0  0  0  0  0
  1  2  1  0
  2  3  2  0
  2  4  2  0
  2  5  1  0
  5  6  2  0
  6  7  1  0
  7  8  2  0
  8  9  1  0
  9 10  2  0
 10 11  1  0
 11 12  2  0
 12 13  1  0
 13 14  2  0
 14 15  1  0
 15 16  2  0
 16 17  1  0
 16 18  1  0
 18 19  2  0
 19 20  1  0
 20 21  2  0
 20 22  1  0
 22 23  1  0
 23 24  1  0
 24 25  1  0
 25 26  1  0
 26 27  1  0
 27 28  1  0
 28 29  1  0
  8 30  1  0
 30 31  2  0
 31  5  1  0
 22 11  1  0
 29 24  1  0
 19 13  1  0
  1 32  1  0
  1 33  1  0
  6 34  1  0
  7 35  1  0
  9 36  1  0
 10 37  1  0
 14 38  1  0
 15 39  1  0
 18 40  1  0
 23 41  1  0
 23 42  1  0
 24 43  1  0
 25 44  1  0
 25 45  1  0
 26 46  1  0
 26 47  1  0
 27 48  1  0
 27 49  1  0
 28 50  1  0
 28 51  1  0
 29 52  1  0
 29 53  1  0
 30 54  1  0
 31 55  1  0
M  END
>  <smiles>  (1) 
NS(=O)(=O)c1ccc(/C=C/c2nc3ccc(F)cc3c(=O)n2CC2CCCCC2)cc1

>  <score_type>  (1) 
oracle

>  <origin>  (1) 
autodockgpu

>  <m_score__min__energy>  (1) 
-9.1300000000000008

>  <m_primary>  (1) 
energy

>  <rmsd>  (1) 
9.265522430987577

>  <m_score__min__rmsd>  (1) 
9.265522430987577

>  <meeko>  (1) 
{"free_energy": -7.46, "intermolecular_energy": -9.55, "internal_energy": -2.13, "cluster_size": 4, "cluster_id": 9, "rank_in_cluster": 4}

>  <energy>  (1) 
-9.13

>  <cluster_rmsd>  (1) 
0.0

>  <cluster>  (1) 
1

$$$$

     RDKit          3D

 55 58  0  0  0  0  0  0  0  0999 V2000
  145.9840   73.4150  218.3650 N   0  0  0  0  0  0  0  0  0  0  0  0
  145.8320   72.7820  219.9510 S   0  0  0  0  0  0  0  0  0  0  0  0
  146.5070   73.7790  220.8740 O   0  0  0  0  0  0  0  0  0  0  0  0
  146.6310   71.5150  220.0850 O   0  0  0  0  0  0  0  0  0  0  0  0
  144.1670   72.5800  220.4340 C   0  0  0  0  0  0  0  0  0  0  0  0
  143.5760   71.3280  220.4420 C   0  0  0  0  0  0  0  0  0  0  0  0
  142.2790   71.1730  220.8190 C   0  0  0  0  0  0  0  0  0  0  0  0
  141.4690   72.2440  221.2160 C   0  0  0  0  0  0  0  0  0  0  0  0
  140.0880   71.9950  221.6060 C   0  0  0  0  0  0  0  0  0  0  0  0
  139.5890   72.2730  222.7900 C   0  0  0  0  0  0  0  0  0  0  0  0
  139.6780   71.2840  223.8560 C   0  0  0  0  0  0  0  0  0  0  0  0
  140.2850   71.6230  225.0080 N   0  0  0  0  0  0  0  0  0  0  0  0
  140.4250   70.7860  226.0350 C   0  0  0  0  0  0  0  0  0  0  0  0
  141.0630   71.2000  227.1960 C   0  0  0  0  0  0  0  0  0  0  0  0
  141.1780   70.2940  228.2230 C   0  0  0  0  0  0  0  0  0  0  0  0
  140.6690   69.0020  228.0970 C   0  0  0  0  0  0  0  0  0  0  0  0
  140.7950   68.1240  229.1240 F   0  0  0  0  0  0  0  0  0  0  0  0
  140.0470   68.6280  226.9370 C   0  0  0  0  0  0  0  0  0  0  0  0
  139.9150   69.5110  225.8900 C   0  0  0  0  0  0  0  0  0  0  0  0
  139.2980   69.1780  224.7120 C   0  0  0  0  0  0  0  0  0  0  0  0
  138.8420   68.0150  224.6030 O   0  0  0  0  0  0  0  0  0  0  0  0
  139.1670   70.0560  223.6730 N   0  0  0  0  0  0  0  0  0  0  0  0
  138.5180   69.5890  222.5010 C   0  0  0  0  0  0  0  0  0  0  0  0
  137.0200   69.5980  222.4960 C   0  0  0  0  0  0  0  0  0  0  0  0
  136.3540   68.2940  222.7360 C   0  0  0  0  0  0  0  0  0  0  0  0
  134.8620   68.4890  222.6420 C   0  0  0  0  0  0  0  0  0  0  0  0
  134.5030   69.9250  222.4850 C   0  0  0  0  0  0  0  0  0  0  0  0
  135.1750   70.8710  223.4270 C   0  0  0  0  0  0  0  0  0  0  0  0
  136.6230   70.4920  223.6890 C   0  0  0  0  0  0  0  0  0  0  0  0
  142.0580   73.4760  221.2060 C   0  0  0  0  0  0  0  0  0  0  0  0
  143.3880   73.6400  220.8210 C   0  0  0  0  0  0  0  0  0  0  0  0
  146.9070   73.9180  218.3360 H   0  0  0  0  0  0  0  0  0  0  0  0
  145.2200   74.1310  218.2530 H   0  0  0  0  0  0  0  0  0  0  0  0
  144.1629   70.4481  220.1397 H   0  0  0  0  0  0  0  0  0  0  0  0
  141.8468   70.1615  220.8118 H   0  0  0  0  0  0  0  0  0  0  0  0
  139.4175   71.5440  220.8597 H   0  0  0  0  0  0  0  0  0  0  0  0
  139.1080   73.2449  222.9744 H   0  0  0  0  0  0  0  0  0  0  0  0
  141.4636   72.2201  227.2910 H   0  0  0  0  0  0  0  0  0  0  0  0
  141.6780   70.5919  229.1564 H   0  0  0  0  0  0  0  0  0  0  0  0
  139.6472   67.6078  226.8402 H   0  0  0  0  0  0  0  0  0  0  0  0
  138.8551   70.2177  221.6637 H   0  0  0  0  0  0  0  0  0  0  0  0
  138.7946   68.5268  222.4289 H   0  0  0  0  0  0  0  0  0  0  0  0
  136.7061   69.9242  221.4935 H   0  0  0  0  0  0  0  0  0  0  0  0
  136.6807   67.5665  221.9784 H   0  0  0  0  0  0  0  0  0  0  0  0
  136.6204   67.9150  223.7337 H   0  0  0  0  0  0  0  0  0  0  0  0
  134.4835   67.9300  221.7735 H   0  0  0  0  0  0  0  0  0  0  0  0
  134.4089   68.1224  223.5749 H   0  0  0  0  0  0  0  0  0  0  0  0
  134.7634   70.2277  221.4600 H   0  0  0  0  0  0  0  0  0  0  0  0
  133.4287   69.9906  222.7121 H   0  0  0  0  0  0  0  0  0  0  0  0
  135.1466   71.8817  222.9937 H   0  0  0  0  0  0  0  0  0  0  0  0
  134.6375   70.8300  224.3858 H   0  0  0  0  0  0  0  0  0  0  0  0
  137.2573   71.3898  223.7280 H   0  0  0  0  0  0  0  0  0  0  0  0
  136.7490   69.9772  224.6529 H   0  0  0  0  0  0  0  0  0  0  0  0
  141.4716   74.3564  221.5076 H   0  0  0  0  0  0  0  0  0  0  0  0
  143.8252   74.6494  220.8279 H   0  0  0  0  0  0  0  0  0  0  0  0
  1  2  1  0
  2  3  2  0
  2  4  2  0
  2  5  1  0
  5  6  2  0
  6  7  1  0
  7  8  2  0
  8  9  1  0
  9 10  2  0
 10 11  1  0
 11 12  2  0
 12 13  1  0
 13 14  2  0
 14 15  1  0
 15 16  2  0
 16 17  1  0
 16 18  1  0
 18 19  2  0
 19 20  1  0
 20 21  2  0
 20 22  1  0
 22 23  1  0
 23 24  1  0
 24 25  1  0
 25 26  1  0
 26 27  1  0
 27 28  1  0
 28 29  1  0
  8 30  1  0
 30 31  2  0
 31  5  1  0
 22 11  1  0
 29 24  1  0
 19 13  1  0
  1 32  1  0
  1 33  1  0
  6 34  1  0
  7 35  1  0
  9 36  1  0
 10 37  1  0
 14 38  1  0
 15 39  1  0
 18 40  1  0
 23 41  1  0
 23 42  1  0
 24 43  1  0
 25 44  1  0
 25 45  1  0
 26 46  1  0
 26 47  1  0
 27 48  1  0
 27 49  1  0
 28 50  1  0
 28 51  1  0
 29 52  1  0
 29 53  1  0
 30 54  1  0
 31 55  1  0
M  END
>  <smiles>  (2) 
NS(=O)(=O)c1ccc(/C=C/c2nc3ccc(F)cc3c(=O)n2CC2CCCCC2)cc1

>  <score_type>  (2) 
oracle

>  <origin>  (2) 
autodockgpu

>  <m_score__min__energy>  (2) 
-9.1300000000000008

>  <m_primary>  (2) 
energy

>  <rmsd>  (2) 
11.265232431551878

>  <m_score__min__rmsd>  (2) 
11.265232431551878

>  <meeko>  (2) 
{"free_energy": -8.73, "intermolecular_energy": -10.82, "internal_energy": -1.32, "cluster_size": 24, "cluster_id": 2, "rank_in_cluster": 6}

>  <energy>  (2) 
-8.97

>  <cluster_rmsd>  (2) 
0.56

>  <cluster>  (2) 
1

$$$$

     RDKit          3D

 55 58  0  0  0  0  0  0  0  0999 V2000
  146.4500   71.1840  219.7390 N   0  0  0  0  0  0  0  0  0  0  0  0
  145.6130   72.6670  219.9260 S   0  0  0  0  0  0  0  0  0  0  0  0
  145.6990   73.3790  218.5900 O   0  0  0  0  0  0  0  0  0  0  0  0
  146.3400   73.5580  220.8960 O   0  0  0  0  0  0  0  0  0  0  0  0
  143.9360   72.4390  220.3530 C   0  0  0  0  0  0  0  0  0  0  0  0
  143.3250   71.2050  220.2040 C   0  0  0  0  0  0  0  0  0  0  0  0
  142.0180   71.0300  220.5370 C   0  0  0  0  0  0  0  0  0  0  0  0
  141.2170   72.0610  221.0440 C   0  0  0  0  0  0  0  0  0  0  0  0
  139.8250   71.7920  221.3770 C   0  0  0  0  0  0  0  0  0  0  0  0
  139.2720   72.0730  222.5360 C   0  0  0  0  0  0  0  0  0  0  0  0
  139.4660   71.1670  223.6610 C   0  0  0  0  0  0  0  0  0  0  0  0
  140.0600   71.6320  224.7740 N   0  0  0  0  0  0  0  0  0  0  0  0
  140.2910   70.8790  225.8490 C   0  0  0  0  0  0  0  0  0  0  0  0
  140.9100   71.4220  226.9670 C   0  0  0  0  0  0  0  0  0  0  0  0
  141.1220   70.5990  228.0470 C   0  0  0  0  0  0  0  0  0  0  0  0
  140.7260   69.2620  228.0150 C   0  0  0  0  0  0  0  0  0  0  0  0
  140.9450   68.4670  229.0930 F   0  0  0  0  0  0  0  0  0  0  0  0
  140.1190   68.7610  226.8960 C   0  0  0  0  0  0  0  0  0  0  0  0
  139.8920   69.5580  225.7980 C   0  0  0  0  0  0  0  0  0  0  0  0
  139.2870   69.0960  224.6570 C   0  0  0  0  0  0  0  0  0  0  0  0
  138.9330   67.8940  224.6330 O   0  0  0  0  0  0  0  0  0  0  0  0
  139.0620   69.8900  223.5690 N   0  0  0  0  0  0  0  0  0  0  0  0
  138.4370   69.2930  222.4440 C   0  0  0  0  0  0  0  0  0  0  0  0
  139.2590   68.3490  221.6220 C   0  0  0  0  0  0  0  0  0  0  0  0
  138.8980   66.9120  221.7120 C   0  0  0  0  0  0  0  0  0  0  0  0
  139.8600   66.1180  220.8660 C   0  0  0  0  0  0  0  0  0  0  0  0
  140.7740   67.0030  220.0940 C   0  0  0  0  0  0  0  0  0  0  0  0
  140.1240   68.1340  219.3640 C   0  0  0  0  0  0  0  0  0  0  0  0
  138.9870   68.7540  220.1580 C   0  0  0  0  0  0  0  0  0  0  0  0
  141.8260   73.2750  221.1890 C   0  0  0  0  0  0  0  0  0  0  0  0
  143.1660   73.4590  220.8490 C   0  0  0  0  0  0  0  0  0  0  0  0
  145.7270   70.4250  219.8260 H   0  0  0  0  0  0  0  0  0  0  0  0
  147.1060   71.1040  220.5590 H   0  0  0  0  0  0  0  0  0  0  0  0
  143.9039   70.3560  219.8115 H   0  0  0  0  0  0  0  0  0  0  0  0
  141.5701   70.0344  220.4021 H   0  0  0  0  0  0  0  0  0  0  0  0
  139.1945   71.3225  220.6076 H   0  0  0  0  0  0  0  0  0  0  0  0
  138.6678   72.9844  222.6557 H   0  0  0  0  0  0  0  0  0  0  0  0
  141.2207   72.4770  226.9876 H   0  0  0  0  0  0  0  0  0  0  0  0
  141.6100   70.9996  228.9478 H   0  0  0  0  0  0  0  0  0  0  0  0
  139.8081   67.7061  226.8739 H   0  0  0  0  0  0  0  0  0  0  0  0
  137.5612   68.7365  222.8092 H   0  0  0  0  0  0  0  0  0  0  0  0
  138.2105   70.1314  221.7689 H   0  0  0  0  0  0  0  0  0  0  0  0
  140.2944   68.4295  221.9846 H   0  0  0  0  0  0  0  0  0  0  0  0
  138.9633   66.5788  222.7583 H   0  0  0  0  0  0  0  0  0  0  0  0
  137.8696   66.7607  221.3521 H   0  0  0  0  0  0  0  0  0  0  0  0
  140.4605   65.4703  221.5217 H   0  0  0  0  0  0  0  0  0  0  0  0
  139.2753   65.5211  220.1505 H   0  0  0  0  0  0  0  0  0  0  0  0
  141.5033   67.4307  220.7977 H   0  0  0  0  0  0  0  0  0  0  0  0
  141.2212   66.3650  219.3175 H   0  0  0  0  0  0  0  0  0  0  0  0
  140.8800   68.9079  219.1652 H   0  0  0  0  0  0  0  0  0  0  0  0
  139.7035   67.7343  218.4294 H   0  0  0  0  0  0  0  0  0  0  0  0
  138.9926   69.8488  220.0518 H   0  0  0  0  0  0  0  0  0  0  0  0
  138.0021   68.4101  219.8091 H   0  0  0  0  0  0  0  0  0  0  0  0
  141.2480   74.1245  221.5818 H   0  0  0  0  0  0  0  0  0  0  0  0
  143.6187   74.4526  220.9829 H   0  0  0  0  0  0  0  0  0  0  0  0
  1  2  1  0
  2  3  2  0
  2  4  2  0
  2  5  1  0
  5  6  2  0
  6  7  1  0
  7  8  2  0
  8  9  1  0
  9 10  2  0
 10 11  1  0
 11 12  2  0
 12 13  1  0
 13 14  2  0
 14 15  1  0
 15 16  2  0
 16 17  1  0
 16 18  1  0
 18 19  2  0
 19 20  1  0
 20 21  2  0
 20 22  1  0
 22 23  1  0
 23 24  1  0
 24 25  1  0
 25 26  1  0
 26 27  1  0
 27 28  1  0
 28 29  1  0
  8 30  1  0
 30 31  2  0
 31  5  1  0
 22 11  1  0
 29 24  1  0
 19 13  1  0
  1 32  1  0
  1 33  1  0
  6 34  1  0
  7 35  1  0
  9 36  1  0
 10 37  1  0
 14 38  1  0
 15 39  1  0
 18 40  1  0
 23 41  1  0
 23 42  1  0
 24 43  1  0
 25 44  1  0
 25 45  1  0
 26 46  1  0
 26 47  1  0
 27 48  1  0
 27 49  1  0
 28 50  1  0
 28 51  1  0
 29 52  1  0
 29 53  1  0
 30 54  1  0
 31 55  1  0
M  END
>  <smiles>  (3) 
NS(=O)(=O)c1ccc(/C=C/c2nc3ccc(F)cc3c(=O)n2CC2CCCCC2)cc1

>  <score_type>  (3) 
oracle

>  <origin>  (3) 
autodockgpu

>  <m_score__min__energy>  (3) 
-9.1300000000000008

>  <m_primary>  (3) 
energy

>  <rmsd>  (3) 
11.289164312477787

>  <m_score__min__rmsd>  (3) 
11.289164312477787

>  <meeko>  (3) 
{"free_energy": -8.26, "intermolecular_energy": -10.35, "internal_energy": -1.69, "cluster_size": 24, "cluster_id": 2, "rank_in_cluster": 21}

>  <energy>  (3) 
-8.9

>  <cluster_rmsd>  (3) 
0.44

>  <cluster>  (3) 
1

$$$$

     RDKit          3D

 55 58  0  0  0  0  0  0  0  0999 V2000
  146.1580   73.3890  218.6850 N   0  0  0  0  0  0  0  0  0  0  0  0
  145.1990   73.1940  220.0910 S   0  0  0  0  0  0  0  0  0  0  0  0
  146.1320   73.3720  221.2740 O   0  0  0  0  0  0  0  0  0  0  0  0
  144.7010   71.7780  220.1900 O   0  0  0  0  0  0  0  0  0  0  0  0
  143.9100   74.3660  220.1890 C   0  0  0  0  0  0  0  0  0  0  0  0
  144.0550   75.6310  219.6440 C   0  0  0  0  0  0  0  0  0  0  0  0
  143.0490   76.5430  219.7210 C   0  0  0  0  0  0  0  0  0  0  0  0
  141.8240   76.2730  220.3440 C   0  0  0  0  0  0  0  0  0  0  0  0
  140.7960   77.3040  220.3850 C   0  0  0  0  0  0  0  0  0  0  0  0
  139.5410   77.1140  220.0440 C   0  0  0  0  0  0  0  0  0  0  0  0
  138.5310   76.9580  221.0830 C   0  0  0  0  0  0  0  0  0  0  0  0
  138.0080   75.7380  221.3020 N   0  0  0  0  0  0  0  0  0  0  0  0
  137.0730   75.4970  222.2210 C   0  0  0  0  0  0  0  0  0  0  0  0
  136.5750   74.2130  222.3950 C   0  0  0  0  0  0  0  0  0  0  0  0
  135.6130   74.0230  223.3570 C   0  0  0  0  0  0  0  0  0  0  0  0
  135.1560   75.0890  224.1320 C   0  0  0  0  0  0  0  0  0  0  0  0
  134.2050   74.8790  225.0770 F   0  0  0  0  0  0  0  0  0  0  0  0
  135.6690   76.3420  223.9320 C   0  0  0  0  0  0  0  0  0  0  0  0
  136.6340   76.5660  222.9760 C   0  0  0  0  0  0  0  0  0  0  0  0
  137.1750   77.8040  222.7450 C   0  0  0  0  0  0  0  0  0  0  0  0
  136.7610   78.7590  223.4420 O   0  0  0  0  0  0  0  0  0  0  0  0
  138.1330   78.0240  221.7960 N   0  0  0  0  0  0  0  0  0  0  0  0
  138.6080   79.3520  221.6430 C   0  0  0  0  0  0  0  0  0  0  0  0
  139.8170   79.7440  222.4350 C   0  0  0  0  0  0  0  0  0  0  0  0
  140.5510   78.6420  223.1040 C   0  0  0  0  0  0  0  0  0  0  0  0
  141.6950   79.2300  223.8900 C   0  0  0  0  0  0  0  0  0  0  0  0
  141.8350   80.6920  223.6490 C   0  0  0  0  0  0  0  0  0  0  0  0
  141.8040   81.1230  222.2190 C   0  0  0  0  0  0  0  0  0  0  0  0
  140.7990   80.3290  221.4000 C   0  0  0  0  0  0  0  0  0  0  0  0
  141.6870   75.0240  220.8790 C   0  0  0  0  0  0  0  0  0  0  0  0
  142.7160   74.0860  220.8020 C   0  0  0  0  0  0  0  0  0  0  0  0
  147.0110   73.9280  218.9830 H   0  0  0  0  0  0  0  0  0  0  0  0
  145.6050   73.9940  218.0250 H   0  0  0  0  0  0  0  0  0  0  0  0
  144.9959   75.9015  219.1424 H   0  0  0  0  0  0  0  0  0  0  0  0
  143.2042   77.5362  219.2744 H   0  0  0  0  0  0  0  0  0  0  0  0
  141.0895   78.3085  220.7239 H   0  0  0  0  0  0  0  0  0  0  0  0
  139.2552   77.0730  218.9826 H   0  0  0  0  0  0  0  0  0  0  0  0
  136.9389   73.3749  221.7825 H   0  0  0  0  0  0  0  0  0  0  0  0
  135.1977   73.0173  223.5183 H   0  0  0  0  0  0  0  0  0  0  0  0
  135.3055   77.1812  224.5432 H   0  0  0  0  0  0  0  0  0  0  0  0
  138.8485   79.4965  220.5794 H   0  0  0  0  0  0  0  0  0  0  0  0
  137.7983   79.9881  222.0299 H   0  0  0  0  0  0  0  0  0  0  0  0
  139.4701   80.4129  223.2364 H   0  0  0  0  0  0  0  0  0  0  0  0
  139.8729   78.1045  223.7832 H   0  0  0  0  0  0  0  0  0  0  0  0
  140.9361   77.9376  222.3520 H   0  0  0  0  0  0  0  0  0  0  0  0
  141.5149   79.0611  224.9619 H   0  0  0  0  0  0  0  0  0  0  0  0
  142.6234   78.7384  223.5638 H   0  0  0  0  0  0  0  0  0  0  0  0
  141.0117   81.2003  224.1722 H   0  0  0  0  0  0  0  0  0  0  0  0
  142.8354   80.9605  224.0194 H   0  0  0  0  0  0  0  0  0  0  0  0
  141.5328   82.1882  222.1761 H   0  0  0  0  0  0  0  0  0  0  0  0
  142.8020   80.9457  221.7918 H   0  0  0  0  0  0  0  0  0  0  0  0
  140.2706   80.9858  220.6934 H   0  0  0  0  0  0  0  0  0  0  0  0
  141.2823   79.5449  220.7987 H   0  0  0  0  0  0  0  0  0  0  0  0
  140.7464   74.7525  221.3806 H   0  0  0  0  0  0  0  0  0  0  0  0
  142.5652   73.0912  221.2466 H   0  0  0  0  0  0  0  0  0  0  0  0
  1  2  1  0
  2  3  2  0
  2  4  2  0
  2  5  1  0
  5  6  2  0
  6  7  1  0
  7  8  2  0
  8  9  1  0
  9 10  2  0
 10 11  1  0
 11 12  2  0
 12 13  1  0
 13 14  2  0
 14 15  1  0
 15 16  2  0
 16 17  1  0
 16 18  1  0
 18 19  2  0
 19 20  1  0
 20 21  2  0
 20 22  1  0
 22 23  1  0
 23 24  1  0
 24 25  1  0
 25 26  1  0
 26 27  1  0
 27 28  1  0
 28 29  1  0
  8 30  1  0
 30 31  2  0
 31  5  1  0
 22 11  1  0
 29 24  1  0
 19 13  1  0
  1 32  1  0
  1 33  1  0
  6 34  1  0
  7 35  1  0
  9 36  1  0
 10 37  1  0
 14 38  1  0
 15 39  1  0
 18 40  1  0
 23 41  1  0
 23 42  1  0
 24 43  1  0
 25 44  1  0
 25 45  1  0
 26 46  1  0
 26 47  1  0
 27 48  1  0
 27 49  1  0
 28 50  1  0
 28 51  1  0
 29 52  1  0
 29 53  1  0
 30 54  1  0
 31 55  1  0
M  END
>  <smiles>  (4) 
NS(=O)(=O)c1ccc(/C=C/c2nc3ccc(F)cc3c(=O)n2CC2CCCCC2)cc1

>  <score_type>  (4) 
oracle

>  <origin>  (4) 
autodockgpu

>  <m_score__min__energy>  (4) 
-9.1300000000000008

>  <m_primary>  (4) 
energy

>  <rmsd>  (4) 
7.179525842038533

>  <m_score__min__rmsd>  (4) 
7.179525842038533

>  <meeko>  (4) 
{"free_energy": -7.84, "intermolecular_energy": -9.93, "internal_energy": -1.58, "cluster_size": 3, "cluster_id": 8, "rank_in_cluster": 2}

>  <energy>  (4) 
-8.89

>  <cluster_rmsd>  (4) 
0.87

>  <cluster>  (4) 
1

$$$$

     RDKit          3D

 55 58  0  0  0  0  0  0  0  0999 V2000
  146.6690   74.1420  220.2780 N   0  0  0  0  0  0  0  0  0  0  0  0
  145.6780   72.9310  219.5780 S   0  0  0  0  0  0  0  0  0  0  0  0
  146.3380   71.6030  219.8950 O   0  0  0  0  0  0  0  0  0  0  0  0
  145.7030   73.0390  218.0780 O   0  0  0  0  0  0  0  0  0  0  0  0
  144.0560   72.9400  220.2240 C   0  0  0  0  0  0  0  0  0  0  0  0
  143.3160   74.1090  220.2720 C   0  0  0  0  0  0  0  0  0  0  0  0
  142.0520   74.1140  220.7750 C   0  0  0  0  0  0  0  0  0  0  0  0
  141.4260   72.9620  221.2680 C   0  0  0  0  0  0  0  0  0  0  0  0
  140.0700   73.0490  221.7920 C   0  0  0  0  0  0  0  0  0  0  0  0
  139.2800   72.0160  221.9830 C   0  0  0  0  0  0  0  0  0  0  0  0
  139.4260   71.2170  223.1930 C   0  0  0  0  0  0  0  0  0  0  0  0
  140.1160   71.7260  224.2300 N   0  0  0  0  0  0  0  0  0  0  0  0
  140.3120   71.0690  225.3720 C   0  0  0  0  0  0  0  0  0  0  0  0
  141.0340   71.6540  226.4030 C   0  0  0  0  0  0  0  0  0  0  0  0
  141.2050   70.9310  227.5580 C   0  0  0  0  0  0  0  0  0  0  0  0
  140.6690   69.6500  227.6850 C   0  0  0  0  0  0  0  0  0  0  0  0
  140.8500   68.9530  228.8360 F   0  0  0  0  0  0  0  0  0  0  0  0
  139.9630   69.1040  226.6480 C   0  0  0  0  0  0  0  0  0  0  0  0
  139.7730   69.8030  225.4780 C   0  0  0  0  0  0  0  0  0  0  0  0
  139.0720   69.2940  224.4140 C   0  0  0  0  0  0  0  0  0  0  0  0
  138.5930   68.1420  224.5320 O   0  0  0  0  0  0  0  0  0  0  0  0
  138.8850   69.9890  223.2540 N   0  0  0  0  0  0  0  0  0  0  0  0
  138.1510   69.3500  222.2210 C   0  0  0  0  0  0  0  0  0  0  0  0
  138.9290   68.5780  221.2020 C   0  0  0  0  0  0  0  0  0  0  0  0
  140.2620   69.1210  220.8420 C   0  0  0  0  0  0  0  0  0  0  0  0
  140.8680   68.2470  219.7730 C   0  0  0  0  0  0  0  0  0  0  0  0
  140.0330   67.0450  219.5060 C   0  0  0  0  0  0  0  0  0  0  0  0
  139.5740   66.2890  220.7110 C   0  0  0  0  0  0  0  0  0  0  0  0
  139.2020   67.2100  221.8610 C   0  0  0  0  0  0  0  0  0  0  0  0
  142.1620   71.8120  221.2180 C   0  0  0  0  0  0  0  0  0  0  0  0
  143.4580   71.8030  220.7020 C   0  0  0  0  0  0  0  0  0  0  0  0
  146.0380   74.9590  220.4780 H   0  0  0  0  0  0  0  0  0  0  0  0
  147.3550   74.4350  219.5350 H   0  0  0  0  0  0  0  0  0  0  0  0
  143.7556   75.0457  219.8987 H   0  0  0  0  0  0  0  0  0  0  0  0
  141.4976   75.0638  220.7954 H   0  0  0  0  0  0  0  0  0  0  0  0
  139.6808   74.0462  222.0450 H   0  0  0  0  0  0  0  0  0  0  0  0
  138.5153   71.7568  221.2360 H   0  0  0  0  0  0  0  0  0  0  0  0
  141.4558   72.6645  226.2983 H   0  0  0  0  0  0  0  0  0  0  0  0
  141.7719   71.3679  228.3934 H   0  0  0  0  0  0  0  0  0  0  0  0
  139.5418   68.0931  226.7509 H   0  0  0  0  0  0  0  0  0  0  0  0
  137.4482   68.6515  222.6987 H   0  0  0  0  0  0  0  0  0  0  0  0
  137.6844   70.1711  221.6570 H   0  0  0  0  0  0  0  0  0  0  0  0
  138.3348   68.5832  220.2763 H   0  0  0  0  0  0  0  0  0  0  0  0
  140.1532   70.1478  220.4628 H   0  0  0  0  0  0  0  0  0  0  0  0
  140.9130   69.1342  221.7286 H   0  0  0  0  0  0  0  0  0  0  0  0
  140.9597   68.8306  218.8451 H   0  0  0  0  0  0  0  0  0  0  0  0
  141.8537   67.9085  220.1249 H   0  0  0  0  0  0  0  0  0  0  0  0
  139.1402   67.3709  218.9522 H   0  0  0  0  0  0  0  0  0  0  0  0
  140.6789   66.3516  218.9474 H   0  0  0  0  0  0  0  0  0  0  0  0
  138.6929   65.6895  220.4384 H   0  0  0  0  0  0  0  0  0  0  0  0
  140.4053   65.6510  221.0455 H   0  0  0  0  0  0  0  0  0  0  0  0
  138.3023   66.8421  222.3759 H   0  0  0  0  0  0  0  0  0  0  0  0
  139.9967   67.2671  222.6194 H   0  0  0  0  0  0  0  0  0  0  0  0
  141.7240   70.8748  221.5920 H   0  0  0  0  0  0  0  0  0  0  0  0
  144.0165   70.8556  220.6780 H   0  0  0  0  0  0  0  0  0  0  0  0
  1  2  1  0
  2  3  2  0
  2  4  2  0
  2  5  1  0
  5  6  2  0
  6  7  1  0
  7  8  2  0
  8  9  1  0
  9 10  2  0
 10 11  1  0
 11 12  2  0
 12 13  1  0
 13 14  2  0
 14 15  1  0
 15 16  2  0
 16 17  1  0
 16 18  1  0
 18 19  2  0
 19 20  1  0
 20 21  2  0
 20 22  1  0
 22 23  1  0
 23 24  1  0
 24 25  1  0
 25 26  1  0
 26 27  1  0
 27 28  1  0
 28 29  1  0
  8 30  1  0
 30 31  2  0
 31  5  1  0
 22 11  1  0
 29 24  1  0
 19 13  1  0
  1 32  1  0
  1 33  1  0
  6 34  1  0
  7 35  1  0
  9 36  1  0
 10 37  1  0
 14 38  1  0
 15 39  1  0
 18 40  1  0
 23 41  1  0
 23 42  1  0
 24 43  1  0
 25 44  1  0
 25 45  1  0
 26 46  1  0
 26 47  1  0
 27 48  1  0
 27 49  1  0
 28 50  1  0
 28 51  1  0
 29 52  1  0
 29 53  1  0
 30 54  1  0
 31 55  1  0
M  END
>  <smiles>  (5) 
NS(=O)(=O)c1ccc(/C=C/c2nc3ccc(F)cc3c(=O)n2CC2CCCCC2)cc1

>  <score_type>  (5) 
oracle

>  <origin>  (5) 
autodockgpu

>  <m_score__min__energy>  (5) 
-9.1300000000000008

>  <m_primary>  (5) 
energy

>  <rmsd>  (5) 
10.37802270991928

>  <m_score__min__rmsd>  (5) 
10.37802270991928

>  <meeko>  (5) 
{"free_energy": -8.57, "intermolecular_energy": -10.65, "internal_energy": -1.71, "cluster_size": 24, "cluster_id": 2, "rank_in_cluster": 12}

>  <energy>  (5) 
-8.87

>  <cluster_rmsd>  (5) 
0.49

>  <cluster>  (5) 
1

$$$$

     RDKit          3D

 55 58  0  0  0  0  0  0  0  0999 V2000
  146.2700   72.7330  221.6200 N   0  0  0  0  0  0  0  0  0  0  0  0
  145.8600   72.9280  219.9680 S   0  0  0  0  0  0  0  0  0  0  0  0
  145.9420   71.5500  219.3410 O   0  0  0  0  0  0  0  0  0  0  0  0
  146.9080   73.7470  219.2640 O   0  0  0  0  0  0  0  0  0  0  0  0
  144.2510   73.5680  219.7500 C   0  0  0  0  0  0  0  0  0  0  0  0
  143.5830   74.1870  220.7930 C   0  0  0  0  0  0  0  0  0  0  0  0
  142.3300   74.6850  220.6210 C   0  0  0  0  0  0  0  0  0  0  0  0
  141.6420   74.6080  219.4030 C   0  0  0  0  0  0  0  0  0  0  0  0
  140.3000   75.1660  219.2990 C   0  0  0  0  0  0  0  0  0  0  0  0
  140.0390   76.4230  219.0160 C   0  0  0  0  0  0  0  0  0  0  0  0
  140.6880   77.4800  219.7810 C   0  0  0  0  0  0  0  0  0  0  0  0
  140.7190   77.3860  221.1220 N   0  0  0  0  0  0  0  0  0  0  0  0
  141.2790   78.3050  221.9080 C   0  0  0  0  0  0  0  0  0  0  0  0
  141.2760   78.1460  223.2860 C   0  0  0  0  0  0  0  0  0  0  0  0
  141.8680   79.1260  224.0470 C   0  0  0  0  0  0  0  0  0  0  0  0
  142.4510   80.2420  223.4470 C   0  0  0  0  0  0  0  0  0  0  0  0
  143.0300   81.1980  224.2170 F   0  0  0  0  0  0  0  0  0  0  0  0
  142.4340   80.3660  222.0840 C   0  0  0  0  0  0  0  0  0  0  0  0
  141.8500   79.4030  221.2950 C   0  0  0  0  0  0  0  0  0  0  0  0
  141.8120   79.4880  219.9260 C   0  0  0  0  0  0  0  0  0  0  0  0
  142.3360   80.4920  219.3920 O   0  0  0  0  0  0  0  0  0  0  0  0
  141.2320   78.5300  219.1440 N   0  0  0  0  0  0  0  0  0  0  0  0
  141.2470   78.7360  217.7400 C   0  0  0  0  0  0  0  0  0  0  0  0
  142.2250   77.9330  216.9390 C   0  0  0  0  0  0  0  0  0  0  0  0
  143.1280   77.0410  217.7060 C   0  0  0  0  0  0  0  0  0  0  0  0
  144.0670   76.3610  216.7430 C   0  0  0  0  0  0  0  0  0  0  0  0
  143.7230   76.6660  215.3290 C   0  0  0  0  0  0  0  0  0  0  0  0
  142.2810   76.5230  214.9630 C   0  0  0  0  0  0  0  0  0  0  0  0
  141.3560   76.9980  216.0720 C   0  0  0  0  0  0  0  0  0  0  0  0
  142.3060   73.9970  218.3780 C   0  0  0  0  0  0  0  0  0  0  0  0
  143.5920   73.4860  218.5500 C   0  0  0  0  0  0  0  0  0  0  0  0
  147.0840   72.0670  221.6440 H   0  0  0  0  0  0  0  0  0  0  0  0
  145.4500   72.2600  222.0800 H   0  0  0  0  0  0  0  0  0  0  0  0
  144.0728   74.2769  221.7738 H   0  0  0  0  0  0  0  0  0  0  0  0
  141.8346   75.1695  221.4753 H   0  0  0  0  0  0  0  0  0  0  0  0
  139.4486   74.4905  219.4686 H   0  0  0  0  0  0  0  0  0  0  0  0
  139.3363   76.6749  218.2081 H   0  0  0  0  0  0  0  0  0  0  0  0
  140.8148   77.2642  223.7547 H   0  0  0  0  0  0  0  0  0  0  0  0
  141.8820   79.0288  225.1426 H   0  0  0  0  0  0  0  0  0  0  0  0
  142.8936   81.2477  221.6135 H   0  0  0  0  0  0  0  0  0  0  0  0
  140.2405   78.5046  217.3612 H   0  0  0  0  0  0  0  0  0  0  0  0
  141.5662   79.7807  217.6110 H   0  0  0  0  0  0  0  0  0  0  0  0
  142.8740   78.6503  216.4152 H   0  0  0  0  0  0  0  0  0  0  0  0
  143.7059   77.6335  218.4306 H   0  0  0  0  0  0  0  0  0  0  0  0
  142.5384   76.2881  218.2496 H   0  0  0  0  0  0  0  0  0  0  0  0
  145.0925   76.7054  216.9423 H   0  0  0  0  0  0  0  0  0  0  0  0
  143.9797   75.2743  216.8897 H   0  0  0  0  0  0  0  0  0  0  0  0
  144.0208   77.7053  215.1262 H   0  0  0  0  0  0  0  0  0  0  0  0
  144.2592   75.9197  214.7244 H   0  0  0  0  0  0  0  0  0  0  0  0
  142.0845   77.1181  214.0589 H   0  0  0  0  0  0  0  0  0  0  0  0
  142.0810   75.4550  214.7914 H   0  0  0  0  0  0  0  0  0  0  0  0
  140.4982   77.5446  215.6532 H   0  0  0  0  0  0  0  0  0  0  0  0
  140.9411   76.1610  216.6527 H   0  0  0  0  0  0  0  0  0  0  0  0
  141.8166   73.9061  217.3971 H   0  0  0  0  0  0  0  0  0  0  0  0
  144.0927   73.0028  217.6980 H   0  0  0  0  0  0  0  0  0  0  0  0
  1  2  1  0
  2  3  2  0
  2  4  2  0
  2  5  1  0
  5  6  2  0
  6  7  1  0
  7  8  2  0
  8  9  1  0
  9 10  2  0
 10 11  1  0
 11 12  2  0
 12 13  1  0
 13 14  2  0
 14 15  1  0
 15 16  2  0
 16 17  1  0
 16 18  1  0
 18 19  2  0
 19 20  1  0
 20 21  2  0
 20 22  1  0
 22 23  1  0
 23 24  1  0
 24 25  1  0
 25 26  1  0
 26 27  1  0
 27 28  1  0
 28 29  1  0
  8 30  1  0
 30 31  2  0
 31  5  1  0
 22 11  1  0
 29 24  1  0
 19 13  1  0
  1 32  1  0
  1 33  1  0
  6 34  1  0
  7 35  1  0
  9 36  1  0
 10 37  1  0
 14 38  1  0
 15 39  1  0
 18 40  1  0
 23 41  1  0
 23 42  1  0
 24 43  1  0
 25 44  1  0
 25 45  1  0
 26 46  1  0
 26 47  1  0
 27 48  1  0
 27 49  1  0
 28 50  1  0
 28 51  1  0
 29 52  1  0
 29 53  1  0
 30 54  1  0
 31 55  1  0
M  END
>  <smiles>  (6) 
NS(=O)(=O)c1ccc(/C=C/c2nc3ccc(F)cc3c(=O)n2CC2CCCCC2)cc1

>  <score_type>  (6) 
oracle

>  <origin>  (6) 
autodockgpu

>  <m_score__min__energy>  (6) 
-9.1300000000000008

>  <m_primary>  (6) 
energy

>  <rmsd>  (6) 
4.354668737835151

>  <m_score__min__rmsd>  (6) 
4.354668737835151

>  <meeko>  (6) 
{"free_energy": -7.15, "intermolecular_energy": -9.24, "internal_energy": -2.33, "cluster_size": 2, "cluster_id": 6, "rank_in_cluster": 2}

>  <energy>  (6) 
-8.67

>  <cluster_rmsd>  (6) 
0.64

>  <cluster>  (6) 
1

$$$$

     RDKit          3D

 55 58  0  0  0  0  0  0  0  0999 V2000
  145.2460   73.6450  217.3590 N   0  0  0  0  0  0  0  0  0  0  0  0
  145.3660   72.7800  218.8340 S   0  0  0  0  0  0  0  0  0  0  0  0
  146.4930   73.4240  219.6170 O   0  0  0  0  0  0  0  0  0  0  0  0
  145.8190   71.3690  218.5750 O   0  0  0  0  0  0  0  0  0  0  0  0
  143.8950   72.8510  219.7720 C   0  0  0  0  0  0  0  0  0  0  0  0
  143.1510   74.0170  219.8420 C   0  0  0  0  0  0  0  0  0  0  0  0
  142.0060   74.0690  220.5720 C   0  0  0  0  0  0  0  0  0  0  0  0
  141.5100   72.9730  221.2900 C   0  0  0  0  0  0  0  0  0  0  0  0
  140.2760   73.1100  222.0500 C   0  0  0  0  0  0  0  0  0  0  0  0
  139.3870   72.1530  222.2020 C   0  0  0  0  0  0  0  0  0  0  0  0
  139.4650   71.2810  223.3660 C   0  0  0  0  0  0  0  0  0  0  0  0
  140.1400   71.7030  224.4500 N   0  0  0  0  0  0  0  0  0  0  0  0
  140.2760   70.9740  225.5580 C   0  0  0  0  0  0  0  0  0  0  0  0
  140.9870   71.4700  226.6410 C   0  0  0  0  0  0  0  0  0  0  0  0
  141.0950   70.6750  227.7570 C   0  0  0  0  0  0  0  0  0  0  0  0
  140.5050   69.4120  227.7930 C   0  0  0  0  0  0  0  0  0  0  0  0
  140.6240   68.6430  228.9060 F   0  0  0  0  0  0  0  0  0  0  0  0
  139.8120   68.9550  226.7060 C   0  0  0  0  0  0  0  0  0  0  0  0
  139.6860   69.7260  225.5740 C   0  0  0  0  0  0  0  0  0  0  0  0
  138.9990   69.3070  224.4630 C   0  0  0  0  0  0  0  0  0  0  0  0
  138.4720   68.1710  224.5000 O   0  0  0  0  0  0  0  0  0  0  0  0
  138.8750   70.0750  223.3400 N   0  0  0  0  0  0  0  0  0  0  0  0
  138.1490   69.5260  222.2510 C   0  0  0  0  0  0  0  0  0  0  0  0
  138.9290   68.7850  221.2090 C   0  0  0  0  0  0  0  0  0  0  0  0
  140.2690   69.3310  220.8800 C   0  0  0  0  0  0  0  0  0  0  0  0
  140.8750   68.4920  219.7840 C   0  0  0  0  0  0  0  0  0  0  0  0
  140.0330   67.3070  219.4660 C   0  0  0  0  0  0  0  0  0  0  0  0
  139.5600   66.5110  220.6390 C   0  0  0  0  0  0  0  0  0  0  0  0
  139.1860   67.3920  221.8200 C   0  0  0  0  0  0  0  0  0  0  0  0
  142.2490   71.8260  221.2170 C   0  0  0  0  0  0  0  0  0  0  0  0
  143.4230   71.7680  220.4670 C   0  0  0  0  0  0  0  0  0  0  0  0
  145.5730   74.6240  217.5650 H   0  0  0  0  0  0  0  0  0  0  0  0
  144.2230   73.6880  217.1180 H   0  0  0  0  0  0  0  0  0  0  0  0
  143.4910   74.9118  219.3001 H   0  0  0  0  0  0  0  0  0  0  0  0
  141.4435   75.0139  220.6005 H   0  0  0  0  0  0  0  0  0  0  0  0
  140.0736   74.0791  222.5294 H   0  0  0  0  0  0  0  0  0  0  0  0
  138.5909   72.0122  221.4561 H   0  0  0  0  0  0  0  0  0  0  0  0
  141.4495   72.4675  226.6077 H   0  0  0  0  0  0  0  0  0  0  0  0
  141.6533   71.0393  228.6320 H   0  0  0  0  0  0  0  0  0  0  0  0
  139.3493   67.9576  226.7375 H   0  0  0  0  0  0  0  0  0  0  0  0
  137.4072   68.8283  222.6667 H   0  0  0  0  0  0  0  0  0  0  0  0
  137.7296   70.3958  221.7242 H   0  0  0  0  0  0  0  0  0  0  0  0
  138.3426   68.8281  220.2793 H   0  0  0  0  0  0  0  0  0  0  0  0
  140.1712   70.3721  220.5385 H   0  0  0  0  0  0  0  0  0  0  0  0
  140.9134   69.3071  221.7712 H   0  0  0  0  0  0  0  0  0  0  0  0
  140.9781   69.1088  218.8790 H   0  0  0  0  0  0  0  0  0  0  0  0
  141.8549   68.1322  220.1308 H   0  0  0  0  0  0  0  0  0  0  0  0
  139.1468   67.6600  218.9183 H   0  0  0  0  0  0  0  0  0  0  0  0
  140.6774   66.6299  218.8861 H   0  0  0  0  0  0  0  0  0  0  0  0
  138.6767   65.9284  220.3384 H   0  0  0  0  0  0  0  0  0  0  0  0
  140.3845   65.8553  220.9557 H   0  0  0  0  0  0  0  0  0  0  0  0
  138.2794   67.0127  222.3142 H   0  0  0  0  0  0  0  0  0  0  0  0
  139.9747   67.4146  222.5864 H   0  0  0  0  0  0  0  0  0  0  0  0
  141.9112   70.9312  221.7603 H   0  0  0  0  0  0  0  0  0  0  0  0
  143.9875   70.8245  220.4320 H   0  0  0  0  0  0  0  0  0  0  0  0
  1  2  1  0
  2  3  2  0
  2  4  2  0
  2  5  1  0
  5  6  2  0
  6  7  1  0
  7  8  2  0
  8  9  1  0
  9 10  2  0
 10 11  1  0
 11 12  2  0
 12 13  1  0
 13 14  2  0
 14 15  1  0
 15 16  2  0
 16 17  1  0
 16 18  1  0
 18 19  2  0
 19 20  1  0
 20 21  2  0
 20 22  1  0
 22 23  1  0
 23 24  1  0
 24 25  1  0
 25 26  1  0
 26 27  1  0
 27 28  1  0
 28 29  1  0
  8 30  1  0
 30 31  2  0
 31  5  1  0
 22 11  1  0
 29 24  1  0
 19 13  1  0
  1 32  1  0
  1 33  1  0
  6 34  1  0
  7 35  1  0
  9 36  1  0
 10 37  1  0
 14 38  1  0
 15 39  1  0
 18 40  1  0
 23 41  1  0
 23 42  1  0
 24 43  1  0
 25 44  1  0
 25 45  1  0
 26 46  1  0
 26 47  1  0
 27 48  1  0
 27 49  1  0
 28 50  1  0
 28 51  1  0
 29 52  1  0
 29 53  1  0
 30 54  1  0
 31 55  1  0
M  END
>  <smiles>  (7) 
NS(=O)(=O)c1ccc(/C=C/c2nc3ccc(F)cc3c(=O)n2CC2CCCCC2)cc1

>  <score_type>  (7) 
oracle

>  <origin>  (7) 
autodockgpu

>  <m_score__min__energy>  (7) 
-9.1300000000000008

>  <m_primary>  (7) 
energy

>  <rmsd>  (7) 
10.386391222322027

>  <m_score__min__rmsd>  (7) 
10.386391222322027

>  <meeko>  (7) 
{"free_energy": -8.09, "intermolecular_energy": -10.18, "internal_energy": -1.68, "cluster_size": 24, "cluster_id": 2, "rank_in_cluster": 23}

>  <energy>  (7) 
-8.21

>  <cluster_rmsd>  (7) 
1.05

>  <cluster>  (7) 
1

$$$$

     RDKit          3D

 55 58  0  0  0  0  0  0  0  0999 V2000
  139.8580   69.1700  227.9010 N   0  0  0  0  0  0  0  0  0  0  0  0
  140.1460   68.5730  226.3210 S   0  0  0  0  0  0  0  0  0  0  0  0
  139.2270   67.3790  226.1410 O   0  0  0  0  0  0  0  0  0  0  0  0
  141.5400   68.0180  226.2190 O   0  0  0  0  0  0  0  0  0  0  0  0
  139.8040   69.7580  225.0850 C   0  0  0  0  0  0  0  0  0  0  0  0
  140.5580   70.9140  224.9810 C   0  0  0  0  0  0  0  0  0  0  0  0
  140.2900   71.8360  224.0170 C   0  0  0  0  0  0  0  0  0  0  0  0
  139.2560   71.6830  223.0850 C   0  0  0  0  0  0  0  0  0  0  0  0
  139.0330   72.7160  222.0830 C   0  0  0  0  0  0  0  0  0  0  0  0
  139.6040   73.9000  222.0990 C   0  0  0  0  0  0  0  0  0  0  0  0
  140.9030   74.0780  221.4630 C   0  0  0  0  0  0  0  0  0  0  0  0
  141.7420   73.0290  221.3940 N   0  0  0  0  0  0  0  0  0  0  0  0
  142.9530   73.0950  220.8430 C   0  0  0  0  0  0  0  0  0  0  0  0
  143.7700   71.9740  220.8060 C   0  0  0  0  0  0  0  0  0  0  0  0
  145.0090   72.1000  220.2250 C   0  0  0  0  0  0  0  0  0  0  0  0
  145.4270   73.3200  219.6920 C   0  0  0  0  0  0  0  0  0  0  0  0
  146.6550   73.4220  219.1230 F   0  0  0  0  0  0  0  0  0  0  0  0
  144.5960   74.4050  219.7480 C   0  0  0  0  0  0  0  0  0  0  0  0
  143.3490   74.3110  220.3220 C   0  0  0  0  0  0  0  0  0  0  0  0
  142.4850   75.3740  220.3980 C   0  0  0  0  0  0  0  0  0  0  0  0
  142.8650   76.4670  219.9190 O   0  0  0  0  0  0  0  0  0  0  0  0
  141.2470   75.2780  220.9680 N   0  0  0  0  0  0  0  0  0  0  0  0
  140.4490   76.4510  220.9960 C   0  0  0  0  0  0  0  0  0  0  0  0
  140.8280   77.5170  221.9770 C   0  0  0  0  0  0  0  0  0  0  0  0
  141.8240   78.5140  221.5130 C   0  0  0  0  0  0  0  0  0  0  0  0
  142.1170   79.4670  222.6440 C   0  0  0  0  0  0  0  0  0  0  0  0
  141.2350   79.2190  223.8150 C   0  0  0  0  0  0  0  0  0  0  0  0
  139.7780   79.0740  223.5150 C   0  0  0  0  0  0  0  0  0  0  0  0
  139.5290   78.3110  222.2240 C   0  0  0  0  0  0  0  0  0  0  0  0
  138.5170   70.5400  223.1930 C   0  0  0  0  0  0  0  0  0  0  0  0
  138.7880   69.5920  224.1790 C   0  0  0  0  0  0  0  0  0  0  0  0
  139.4470   70.1310  227.7820 H   0  0  0  0  0  0  0  0  0  0  0  0
  140.7990   69.2730  228.3590 H   0  0  0  0  0  0  0  0  0  0  0  0
  141.3838   71.0894  225.6862 H   0  0  0  0  0  0  0  0  0  0  0  0
  140.9128   72.7413  223.9675 H   0  0  0  0  0  0  0  0  0  0  0  0
  138.3410   72.4906  221.2582 H   0  0  0  0  0  0  0  0  0  0  0  0
  139.1053   74.7495  222.5885 H   0  0  0  0  0  0  0  0  0  0  0  0
  143.4364   71.0147  221.2284 H   0  0  0  0  0  0  0  0  0  0  0  0
  145.6791   71.2289  220.1796 H   0  0  0  0  0  0  0  0  0  0  0  0
  144.9291   75.3657  219.3285 H   0  0  0  0  0  0  0  0  0  0  0  0
  140.4844   76.8986  219.9918 H   0  0  0  0  0  0  0  0  0  0  0  0
  139.4555   76.1086  221.3213 H   0  0  0  0  0  0  0  0  0  0  0  0
  141.2815   77.0091  222.8409 H   0  0  0  0  0  0  0  0  0  0  0  0
  142.7493   78.0006  221.2124 H   0  0  0  0  0  0  0  0  0  0  0  0
  141.4259   79.0677  220.6499 H   0  0  0  0  0  0  0  0  0  0  0  0
  143.1649   79.3408  222.9540 H   0  0  0  0  0  0  0  0  0  0  0  0
  141.9321   80.4906  222.2863 H   0  0  0  0  0  0  0  0  0  0  0  0
  141.5730   78.2920  224.3013 H   0  0  0  0  0  0  0  0  0  0  0  0
  141.3212   80.1146  224.4479 H   0  0  0  0  0  0  0  0  0  0  0  0
  139.2981   78.5332  224.3440 H   0  0  0  0  0  0  0  0  0  0  0  0
  139.3563   80.0830  223.3968 H   0  0  0  0  0  0  0  0  0  0  0  0
  138.6735   77.6287  222.3363 H   0  0  0  0  0  0  0  0  0  0  0  0
  139.2872   78.9815  221.3862 H   0  0  0  0  0  0  0  0  0  0  0  0
  137.6913   70.3635  222.4880 H   0  0  0  0  0  0  0  0  0  0  0  0
  138.1687   68.6844  224.2317 H   0  0  0  0  0  0  0  0  0  0  0  0
  1  2  1  0
  2  3  2  0
  2  4  2  0
  2  5  1  0
  5  6  2  0
  6  7  1  0
  7  8  2  0
  8  9  1  0
  9 10  2  0
 10 11  1  0
 11 12  2  0
 12 13  1  0
 13 14  2  0
 14 15  1  0
 15 16  2  0
 16 17  1  0
 16 18  1  0
 18 19  2  0
 19 20  1  0
 20 21  2  0
 20 22  1  0
 22 23  1  0
 23 24  1  0
 24 25  1  0
 25 26  1  0
 26 27  1  0
 27 28  1  0
 28 29  1  0
  8 30  1  0
 30 31  2  0
 31  5  1  0
 22 11  1  0
 29 24  1  0
 19 13  1  0
  1 32  1  0
  1 33  1  0
  6 34  1  0
  7 35  1  0
  9 36  1  0
 10 37  1  0
 14 38  1  0
 15 39  1  0
 18 40  1  0
 23 41  1  0
 23 42  1  0
 24 43  1  0
 25 44  1  0
 25 45  1  0
 26 46  1  0
 26 47  1  0
 27 48  1  0
 27 49  1  0
 28 50  1  0
 28 51  1  0
 29 52  1  0
 29 53  1  0
 30 54  1  0
 31 55  1  0
M  END
>  <smiles>  (8) 
NS(=O)(=O)c1ccc(/C=C/c2nc3ccc(F)cc3c(=O)n2CC2CCCCC2)cc1

>  <score_type>  (8) 
oracle

>  <origin>  (8) 
autodockgpu

>  <m_score__min__energy>  (8) 
-9.1300000000000008

>  <m_primary>  (8) 
energy

>  <rmsd>  (8) 
7.4352210678132655

>  <m_score__min__rmsd>  (8) 
7.4352210678132655

>  <meeko>  (8) 
{"free_energy": -8.41, "intermolecular_energy": -10.5, "internal_energy": -1.3, "cluster_size": 2, "cluster_id": 3, "rank_in_cluster": 2}

>  <energy>  (8) 
-8.99

>  <cluster_rmsd>  (8) 
0.0

>  <cluster>  (8) 
2

$$$$

     RDKit          3D

 55 58  0  0  0  0  0  0  0  0999 V2000
  133.0590   72.5950  227.5900 N   0  0  0  0  0  0  0  0  0  0  0  0
  133.5900   73.0570  226.0280 S   0  0  0  0  0  0  0  0  0  0  0  0
  134.5130   74.2450  226.2240 O   0  0  0  0  0  0  0  0  0  0  0  0
  132.4360   73.5830  225.2190 O   0  0  0  0  0  0  0  0  0  0  0  0
  134.4550   71.7810  225.2100 C   0  0  0  0  0  0  0  0  0  0  0  0
  134.9300   71.9550  223.9210 C   0  0  0  0  0  0  0  0  0  0  0  0
  135.6040   70.9590  223.2860 C   0  0  0  0  0  0  0  0  0  0  0  0
  135.8580   69.7160  223.8780 C   0  0  0  0  0  0  0  0  0  0  0  0
  136.5870   68.7000  223.1310 C   0  0  0  0  0  0  0  0  0  0  0  0
  137.8960   68.6610  223.0150 C   0  0  0  0  0  0  0  0  0  0  0  0
  138.7220   69.4150  223.9490 C   0  0  0  0  0  0  0  0  0  0  0  0
  138.8530   68.9660  225.2100 N   0  0  0  0  0  0  0  0  0  0  0  0
  139.5770   69.5900  226.1390 C   0  0  0  0  0  0  0  0  0  0  0  0
  139.6700   69.0710  227.4230 C   0  0  0  0  0  0  0  0  0  0  0  0
  140.4300   69.7580  228.3390 C   0  0  0  0  0  0  0  0  0  0  0  0
  141.0840   70.9370  227.9840 C   0  0  0  0  0  0  0  0  0  0  0  0
  141.8300   71.5990  228.9050 F   0  0  0  0  0  0  0  0  0  0  0  0
  140.9690   71.4200  226.7090 C   0  0  0  0  0  0  0  0  0  0  0  0
  140.2160   70.7560  225.7680 C   0  0  0  0  0  0  0  0  0  0  0  0
  140.0750   71.2050  224.4790 C   0  0  0  0  0  0  0  0  0  0  0  0
  140.6640   72.2650  224.1650 O   0  0  0  0  0  0  0  0  0  0  0  0
  139.3270   70.5440  223.5460 N   0  0  0  0  0  0  0  0  0  0  0  0
  139.2500   71.1140  222.2500 C   0  0  0  0  0  0  0  0  0  0  0  0
  138.6640   72.4880  222.1370 C   0  0  0  0  0  0  0  0  0  0  0  0
  139.5920   73.5660  221.7130 C   0  0  0  0  0  0  0  0  0  0  0  0
  138.8420   74.8740  221.7090 C   0  0  0  0  0  0  0  0  0  0  0  0
  137.3930   74.6790  221.9820 C   0  0  0  0  0  0  0  0  0  0  0  0
  136.7200   73.5990  221.1980 C   0  0  0  0  0  0  0  0  0  0  0  0
  137.6110   72.3810  221.0150 C   0  0  0  0  0  0  0  0  0  0  0  0
  135.3880   69.5500  225.1500 C   0  0  0  0  0  0  0  0  0  0  0  0
  134.6970   70.5690  225.8050 C   0  0  0  0  0  0  0  0  0  0  0  0
  132.6420   73.4560  228.0260 H   0  0  0  0  0  0  0  0  0  0  0  0
  133.9210   72.3390  228.1370 H   0  0  0  0  0  0  0  0  0  0  0  0
  134.7600   72.9110  223.4041 H   0  0  0  0  0  0  0  0  0  0  0  0
  135.9654   71.1378  222.2626 H   0  0  0  0  0  0  0  0  0  0  0  0
  136.0035   67.9131  222.6307 H   0  0  0  0  0  0  0  0  0  0  0  0
  138.3642   68.0636  222.2188 H   0  0  0  0  0  0  0  0  0  0  0  0
  139.1523   68.1403  227.6983 H   0  0  0  0  0  0  0  0  0  0  0  0
  140.5235   69.3729  229.3651 H   0  0  0  0  0  0  0  0  0  0  0  0
  141.4852   72.3512  226.4326 H   0  0  0  0  0  0  0  0  0  0  0  0
  140.2725   71.1568  221.8467 H   0  0  0  0  0  0  0  0  0  0  0  0
  138.5554   70.4646  221.6969 H   0  0  0  0  0  0  0  0  0  0  0  0
  138.3072   72.7663  223.1396 H   0  0  0  0  0  0  0  0  0  0  0  0
  140.4364   73.6254  222.4155 H   0  0  0  0  0  0  0  0  0  0  0  0
  139.9799   73.3527  220.7060 H   0  0  0  0  0  0  0  0  0  0  0  0
  139.2655   75.5299  222.4839 H   0  0  0  0  0  0  0  0  0  0  0  0
  138.9449   75.3248  220.7109 H   0  0  0  0  0  0  0  0  0  0  0  0
  137.2805   74.4402  223.0499 H   0  0  0  0  0  0  0  0  0  0  0  0
  136.9042   75.6162  221.6775 H   0  0  0  0  0  0  0  0  0  0  0  0
  135.8064   73.2929  221.7288 H   0  0  0  0  0  0  0  0  0  0  0  0
  136.4884   74.0005  220.2004 H   0  0  0  0  0  0  0  0  0  0  0  0
  137.0268   71.4548  221.1195 H   0  0  0  0  0  0  0  0  0  0  0  0
  138.0713   72.3507  220.0164 H   0  0  0  0  0  0  0  0  0  0  0  0
  135.5579   68.5943  225.6674 H   0  0  0  0  0  0  0  0  0  0  0  0
  134.3353   70.3957  226.8293 H   0  0  0  0  0  0  0  0  0  0  0  0
  1  2  1  0
  2  3  2  0
  2  4  2  0
  2  5  1  0
  5  6  2  0
  6  7  1  0
  7  8  2  0
  8  9  1  0
  9 10  2  0
 10 11  1  0
 11 12  2  0
 12 13  1  0
 13 14  2  0
 14 15  1  0
 15 16  2  0
 16 17  1  0
 16 18  1  0
 18 19  2  0
 19 20  1  0
 20 21  2  0
 20 22  1  0
 22 23  1  0
 23 24  1  0
 24 25  1  0
 25 26  1  0
 26 27  1  0
 27 28  1  0
 28 29  1  0
  8 30  1  0
 30 31  2  0
 31  5  1  0
 22 11  1  0
 29 24  1  0
 19 13  1  0
  1 32  1  0
  1 33  1  0
  6 34  1  0
  7 35  1  0
  9 36  1  0
 10 37  1  0
 14 38  1  0
 15 39  1  0
 18 40  1  0
 23 41  1  0
 23 42  1  0
 24 43  1  0
 25 44  1  0
 25 45  1  0
 26 46  1  0
 26 47  1  0
 27 48  1  0
 27 49  1  0
 28 50  1  0
 28 51  1  0
 29 52  1  0
 29 53  1  0
 30 54  1  0
 31 55  1  0
M  END
>  <smiles>  (9) 
NS(=O)(=O)c1ccc(/C=C/c2nc3ccc(F)cc3c(=O)n2CC2CCCCC2)cc1

>  <score_type>  (9) 
oracle

>  <origin>  (9) 
autodockgpu

>  <m_score__min__energy>  (9) 
-9.1300000000000008

>  <m_primary>  (9) 
energy

>  <rmsd>  (9) 
9.336674270112248

>  <m_score__min__rmsd>  (9) 
9.336674270112248

>  <meeko>  (9) 
{"free_energy": -7.5, "intermolecular_energy": -9.58, "internal_energy": -2.24, "cluster_size": 4, "cluster_id": 9, "rank_in_cluster": 2}

>  <energy>  (9) 
-8.99

>  <cluster_rmsd>  (9) 
1.33

>  <cluster>  (9) 
2

$$$$

     RDKit          3D

 55 58  0  0  0  0  0  0  0  0999 V2000
  146.1660   74.1580  220.5180 N   0  0  0  0  0  0  0  0  0  0  0  0
  145.6060   72.7650  219.6930 S   0  0  0  0  0  0  0  0  0  0  0  0
  146.5440   71.6360  220.0760 O   0  0  0  0  0  0  0  0  0  0  0  0
  145.7770   72.9350  218.2080 O   0  0  0  0  0  0  0  0  0  0  0  0
  143.9730   72.3370  220.1350 C   0  0  0  0  0  0  0  0  0  0  0  0
  143.1730   73.2180  220.8430 C   0  0  0  0  0  0  0  0  0  0  0  0
  141.9010   72.8830  221.1860 C   0  0  0  0  0  0  0  0  0  0  0  0
  141.3240   71.6500  220.8560 C   0  0  0  0  0  0  0  0  0  0  0  0
  139.9540   71.3660  221.2610 C   0  0  0  0  0  0  0  0  0  0  0  0
  139.4270   71.7370  222.4070 C   0  0  0  0  0  0  0  0  0  0  0  0
  139.6050   70.8960  223.5830 C   0  0  0  0  0  0  0  0  0  0  0  0
  140.1340   71.4370  224.6950 N   0  0  0  0  0  0  0  0  0  0  0  0
  140.3450   70.7480  225.8160 C   0  0  0  0  0  0  0  0  0  0  0  0
  140.8950   71.3690  226.9290 C   0  0  0  0  0  0  0  0  0  0  0  0
  141.0900   70.6100  228.0570 C   0  0  0  0  0  0  0  0  0  0  0  0
  140.7450   69.2580  228.0770 C   0  0  0  0  0  0  0  0  0  0  0  0
  140.9460   68.5270  229.2030 F   0  0  0  0  0  0  0  0  0  0  0  0
  140.2050   68.6790  226.9610 C   0  0  0  0  0  0  0  0  0  0  0  0
  139.9970   69.4120  225.8160 C   0  0  0  0  0  0  0  0  0  0  0  0
  139.4580   68.8710  224.6760 C   0  0  0  0  0  0  0  0  0  0  0  0
  139.1500   67.6570  224.6990 O   0  0  0  0  0  0  0  0  0  0  0  0
  139.2520   69.6010  223.5400 N   0  0  0  0  0  0  0  0  0  0  0  0
  138.6980   68.9250  222.4220 C   0  0  0  0  0  0  0  0  0  0  0  0
  137.2530   68.5370  222.5020 C   0  0  0  0  0  0  0  0  0  0  0  0
  136.3940   69.3750  223.3740 C   0  0  0  0  0  0  0  0  0  0  0  0
  134.9990   68.8050  223.3690 C   0  0  0  0  0  0  0  0  0  0  0  0
  134.8650   67.6840  222.4000 C   0  0  0  0  0  0  0  0  0  0  0  0
  135.4160   67.9350  221.0330 C   0  0  0  0  0  0  0  0  0  0  0  0
  136.7090   68.7330  221.0710 C   0  0  0  0  0  0  0  0  0  0  0  0
  142.1180   70.7850  220.1570 C   0  0  0  0  0  0  0  0  0  0  0  0
  143.4230   71.1260  219.8030 C   0  0  0  0  0  0  0  0  0  0  0  0
  145.3820   74.8580  220.4810 H   0  0  0  0  0  0  0  0  0  0  0  0
  146.9690   74.5400  219.9540 H   0  0  0  0  0  0  0  0  0  0  0  0
  143.5720   74.2016  221.1316 H   0  0  0  0  0  0  0  0  0  0  0  0
  141.2984   73.6122  221.7473 H   0  0  0  0  0  0  0  0  0  0  0  0
  139.3179   70.8037  220.5615 H   0  0  0  0  0  0  0  0  0  0  0  0
  138.8564   72.6748  222.4772 H   0  0  0  0  0  0  0  0  0  0  0  0
  141.1660   72.4349  226.9083 H   0  0  0  0  0  0  0  0  0  0  0  0
  141.5234   71.0735  228.9555 H   0  0  0  0  0  0  0  0  0  0  0  0
  139.9337   67.6132  226.9799 H   0  0  0  0  0  0  0  0  0  0  0  0
  138.8163   69.5810  221.5470 H   0  0  0  0  0  0  0  0  0  0  0  0
  139.2444   67.9718  222.3684 H   0  0  0  0  0  0  0  0  0  0  0  0
  137.2179   67.5208  222.9217 H   0  0  0  0  0  0  0  0  0  0  0  0
  136.7919   69.3710  224.3995 H   0  0  0  0  0  0  0  0  0  0  0  0
  136.3775   70.4098  223.0011 H   0  0  0  0  0  0  0  0  0  0  0  0
  134.7618   68.4347  224.3773 H   0  0  0  0  0  0  0  0  0  0  0  0
  134.3041   69.6028  223.0680 H   0  0  0  0  0  0  0  0  0  0  0  0
  135.3874   66.8115  222.8193 H   0  0  0  0  0  0  0  0  0  0  0  0
  133.7837   67.5356  222.2632 H   0  0  0  0  0  0  0  0  0  0  0  0
  135.6112   66.9677  220.5470 H   0  0  0  0  0  0  0  0  0  0  0  0
  134.6736   68.5227  220.4731 H   0  0  0  0  0  0  0  0  0  0  0  0
  137.4237   68.3478  220.3288 H   0  0  0  0  0  0  0  0  0  0  0  0
  136.5485   69.7942  220.8301 H   0  0  0  0  0  0  0  0  0  0  0  0
  141.7202   69.8010  219.8681 H   0  0  0  0  0  0  0  0  0  0  0  0
  144.0296   70.4012  219.2402 H   0  0  0  0  0  0  0  0  0  0  0  0
  1  2  1  0
  2  3  2  0
  2  4  2  0
  2  5  1  0
  5  6  2  0
  6  7  1  0
  7  8  2  0
  8  9  1  0
  9 10  2  0
 10 11  1  0
 11 12  2  0
 12 13  1  0
 13 14  2  0
 14 15  1  0
 15 16  2  0
 16 17  1  0
 16 18  1  0
 18 19  2  0
 19 20  1  0
 20 21  2  0
 20 22  1  0
 22 23  1  0
 23 24  1  0
 24 25  1  0
 25 26  1  0
 26 27  1  0
 27 28  1  0
 28 29  1  0
  8 30  1  0
 30 31  2  0
 31  5  1  0
 22 11  1  0
 29 24  1  0
 19 13  1  0
  1 32  1  0
  1 33  1  0
  6 34  1  0
  7 35  1  0
  9 36  1  0
 10 37  1  0
 14 38  1  0
 15 39  1  0
 18 40  1  0
 23 41  1  0
 23 42  1  0
 24 43  1  0
 25 44  1  0
 25 45  1  0
 26 46  1  0
 26 47  1  0
 27 48  1  0
 27 49  1  0
 28 50  1  0
 28 51  1  0
 29 52  1  0
 29 53  1  0
 30 54  1  0
 31 55  1  0
M  END
>  <smiles>  (10) 
NS(=O)(=O)c1ccc(/C=C/c2nc3ccc(F)cc3c(=O)n2CC2CCCCC2)cc1

>  <score_type>  (10) 
oracle

>  <origin>  (10) 
autodockgpu

>  <m_score__min__energy>  (10) 
-9.1300000000000008

>  <m_primary>  (10) 
energy

>  <rmsd>  (10) 
11.437873588427442

>  <m_score__min__rmsd>  (10) 
11.437873588427442

>  <meeko>  (10) 
{"free_energy": -8.4, "intermolecular_energy": -10.49, "internal_energy": -1.33, "cluster_size": 24, "cluster_id": 2, "rank_in_cluster": 17}

>  <energy>  (10) 
-8.85

>  <cluster_rmsd>  (10) 
0.37

>  <cluster>  (10) 
2

$$$$

     RDKit          3D

 55 58  0  0  0  0  0  0  0  0999 V2000
  144.9090   73.8940  217.3580 N   0  0  0  0  0  0  0  0  0  0  0  0
  145.1660   72.8470  218.6900 S   0  0  0  0  0  0  0  0  0  0  0  0
  146.3730   73.3880  219.4310 O   0  0  0  0  0  0  0  0  0  0  0  0
  145.5760   71.4820  218.2090 O   0  0  0  0  0  0  0  0  0  0  0  0
  143.7980   72.7930  219.7720 C   0  0  0  0  0  0  0  0  0  0  0  0
  143.4080   71.6060  220.3680 C   0  0  0  0  0  0  0  0  0  0  0  0
  142.3420   71.5660  221.2110 C   0  0  0  0  0  0  0  0  0  0  0  0
  141.5820   72.6990  221.5290 C   0  0  0  0  0  0  0  0  0  0  0  0
  140.4530   72.5740  222.4420 C   0  0  0  0  0  0  0  0  0  0  0  0
  139.6850   71.5110  222.5300 C   0  0  0  0  0  0  0  0  0  0  0  0
  139.7930   70.6440  223.6960 C   0  0  0  0  0  0  0  0  0  0  0  0
  140.2870   71.1510  224.8400 N   0  0  0  0  0  0  0  0  0  0  0  0
  140.4340   70.4360  225.9550 C   0  0  0  0  0  0  0  0  0  0  0  0
  140.9510   71.0220  227.1020 C   0  0  0  0  0  0  0  0  0  0  0  0
  141.0810   70.2370  228.2220 C   0  0  0  0  0  0  0  0  0  0  0  0
  140.7020   68.8940  228.2010 C   0  0  0  0  0  0  0  0  0  0  0  0
  140.8390   68.1370  229.3190 F   0  0  0  0  0  0  0  0  0  0  0  0
  140.1970   68.3500  227.0520 C   0  0  0  0  0  0  0  0  0  0  0  0
  140.0540   69.1090  225.9140 C   0  0  0  0  0  0  0  0  0  0  0  0
  139.5520   68.6030  224.7420 C   0  0  0  0  0  0  0  0  0  0  0  0
  139.2140   67.3970  224.7280 O   0  0  0  0  0  0  0  0  0  0  0  0
  139.4110   69.3590  223.6130 N   0  0  0  0  0  0  0  0  0  0  0  0
  138.8880   68.7180  222.4600 C   0  0  0  0  0  0  0  0  0  0  0  0
  137.4080   68.7930  222.2450 C   0  0  0  0  0  0  0  0  0  0  0  0
  136.7220   67.5140  221.9370 C   0  0  0  0  0  0  0  0  0  0  0  0
  135.2600   67.7930  221.7020 C   0  0  0  0  0  0  0  0  0  0  0  0
  134.9180   69.2130  221.9860 C   0  0  0  0  0  0  0  0  0  0  0  0
  135.4350   69.7630  223.2760 C   0  0  0  0  0  0  0  0  0  0  0  0
  136.8320   69.2580  223.5980 C   0  0  0  0  0  0  0  0  0  0  0  0
  141.9720   73.8670  220.9390 C   0  0  0  0  0  0  0  0  0  0  0  0
  143.0650   73.9120  220.0740 C   0  0  0  0  0  0  0  0  0  0  0  0
  145.2590   73.3810  216.5090 H   0  0  0  0  0  0  0  0  0  0  0  0
  145.5270   74.7310  217.5100 H   0  0  0  0  0  0  0  0  0  0  0  0
  143.9679   70.6830  220.1568 H   0  0  0  0  0  0  0  0  0  0  0  0
  142.0643   70.6023  221.6628 H   0  0  0  0  0  0  0  0  0  0  0  0
  140.2287   73.4256  223.1011 H   0  0  0  0  0  0  0  0  0  0  0  0
  138.9668   71.2779  221.7301 H   0  0  0  0  0  0  0  0  0  0  0  0
  141.2473   72.0813  227.1140 H   0  0  0  0  0  0  0  0  0  0  0  0
  141.4887   70.6722  229.1463 H   0  0  0  0  0  0  0  0  0  0  0  0
  139.9011   67.2906  227.0380 H   0  0  0  0  0  0  0  0  0  0  0  0
  139.3729   69.1699  221.5821 H   0  0  0  0  0  0  0  0  0  0  0  0
  139.0978   67.6489  222.6114 H   0  0  0  0  0  0  0  0  0  0  0  0
  137.2449   69.4462  221.3751 H   0  0  0  0  0  0  0  0  0  0  0  0
  137.1628   67.0658  221.0344 H   0  0  0  0  0  0  0  0  0  0  0  0
  136.8391   66.8145  222.7778 H   0  0  0  0  0  0  0  0  0  0  0  0
  135.0192   67.5715  220.6518 H   0  0  0  0  0  0  0  0  0  0  0  0
  134.6757   67.1568  222.3831 H   0  0  0  0  0  0  0  0  0  0  0  0
  135.3257   69.8277  221.1699 H   0  0  0  0  0  0  0  0  0  0  0  0
  133.8214   69.2449  222.0667 H   0  0  0  0  0  0  0  0  0  0  0  0
  135.4624   70.8605  223.2073 H   0  0  0  0  0  0  0  0  0  0  0  0
  134.7620   69.4282  224.0791 H   0  0  0  0  0  0  0  0  0  0  0  0
  137.4467   70.0650  224.0234 H   0  0  0  0  0  0  0  0  0  0  0  0
  136.8181   68.4481  224.3422 H   0  0  0  0  0  0  0  0  0  0  0  0
  141.4131   74.7906  221.1501 H   0  0  0  0  0  0  0  0  0  0  0  0
  143.3475   74.8735  219.6205 H   0  0  0  0  0  0  0  0  0  0  0  0
  1  2  1  0
  2  3  2  0
  2  4  2  0
  2  5  1  0
  5  6  2  0
  6  7  1  0
  7  8  2  0
  8  9  1  0
  9 10  2  0
 10 11  1  0
 11 12  2  0
 12 13  1  0
 13 14  2  0
 14 15  1  0
 15 16  2  0
 16 17  1  0
 16 18  1  0
 18 19  2  0
 19 20  1  0
 20 21  2  0
 20 22  1  0
 22 23  1  0
 23 24  1  0
 24 25  1  0
 25 26  1  0
 26 27  1  0
 27 28  1  0
 28 29  1  0
  8 30  1  0
 30 31  2  0
 31  5  1  0
 22 11  1  0
 29 24  1  0
 19 13  1  0
  1 32  1  0
  1 33  1  0
  6 34  1  0
  7 35  1  0
  9 36  1  0
 10 37  1  0
 14 38  1  0
 15 39  1  0
 18 40  1  0
 23 41  1  0
 23 42  1  0
 24 43  1  0
 25 44  1  0
 25 45  1  0
 26 46  1  0
 26 47  1  0
 27 48  1  0
 27 49  1  0
 28 50  1  0
 28 51  1  0
 29 52  1  0
 29 53  1  0
 30 54  1  0
 31 55  1  0
M  END
>  <smiles>  (11) 
NS(=O)(=O)c1ccc(/C=C/c2nc3ccc(F)cc3c(=O)n2CC2CCCCC2)cc1

>  <score_type>  (11) 
oracle

>  <origin>  (11) 
autodockgpu

>  <m_score__min__energy>  (11) 
-9.1300000000000008

>  <m_primary>  (11) 
energy

>  <rmsd>  (11) 
11.44771102274291

>  <m_score__min__rmsd>  (11) 
11.44771102274291

>  <meeko>  (11) 
{"free_energy": -8.38, "intermolecular_energy": -10.47, "internal_energy": -1.31, "cluster_size": 24, "cluster_id": 2, "rank_in_cluster": 18}

>  <energy>  (11) 
-8.85

>  <cluster_rmsd>  (11) 
1.2

>  <cluster>  (11) 
2

$$$$

     RDKit          3D

 55 58  0  0  0  0  0  0  0  0999 V2000
  146.7030   74.0560  220.1580 N   0  0  0  0  0  0  0  0  0  0  0  0
  145.6480   72.8840  219.4890 S   0  0  0  0  0  0  0  0  0  0  0  0
  146.3020   71.5350  219.7250 O   0  0  0  0  0  0  0  0  0  0  0  0
  145.5810   73.0340  217.9940 O   0  0  0  0  0  0  0  0  0  0  0  0
  144.0700   72.9010  220.2350 C   0  0  0  0  0  0  0  0  0  0  0  0
  143.5260   71.7480  220.7770 C   0  0  0  0  0  0  0  0  0  0  0  0
  142.2970   71.7640  221.3580 C   0  0  0  0  0  0  0  0  0  0  0  0
  141.5130   72.9210  221.4480 C   0  0  0  0  0  0  0  0  0  0  0  0
  140.2060   72.8550  222.0860 C   0  0  0  0  0  0  0  0  0  0  0  0
  139.5020   71.7540  222.2250 C   0  0  0  0  0  0  0  0  0  0  0  0
  139.6580   70.9500  223.4310 C   0  0  0  0  0  0  0  0  0  0  0  0
  140.1640   71.5270  224.5350 N   0  0  0  0  0  0  0  0  0  0  0  0
  140.3540   70.8740  225.6810 C   0  0  0  0  0  0  0  0  0  0  0  0
  140.8810   71.5310  226.7840 C   0  0  0  0  0  0  0  0  0  0  0  0
  141.0550   70.8080  227.9400 C   0  0  0  0  0  0  0  0  0  0  0  0
  140.7110   69.4570  227.9950 C   0  0  0  0  0  0  0  0  0  0  0  0
  140.8920   68.7620  229.1470 F   0  0  0  0  0  0  0  0  0  0  0  0
  140.1950   68.8420  226.8880 C   0  0  0  0  0  0  0  0  0  0  0  0
  140.0080   69.5380  225.7160 C   0  0  0  0  0  0  0  0  0  0  0  0
  139.4930   68.9610  224.5840 C   0  0  0  0  0  0  0  0  0  0  0  0
  139.1860   67.7470  224.6380 O   0  0  0  0  0  0  0  0  0  0  0  0
  139.3080   69.6540  223.4210 N   0  0  0  0  0  0  0  0  0  0  0  0
  138.7770   68.9430  222.3140 C   0  0  0  0  0  0  0  0  0  0  0  0
  137.3530   68.4870  222.4110 C   0  0  0  0  0  0  0  0  0  0  0  0
  136.4530   69.3150  223.2500 C   0  0  0  0  0  0  0  0  0  0  0  0
  135.0870   68.6770  223.2690 C   0  0  0  0  0  0  0  0  0  0  0  0
  135.0100   67.5130  222.3450 C   0  0  0  0  0  0  0  0  0  0  0  0
  135.5490   67.7360  220.9690 C   0  0  0  0  0  0  0  0  0  0  0  0
  136.8010   68.5980  220.9740 C   0  0  0  0  0  0  0  0  0  0  0  0
  142.0550   74.0550  220.9120 C   0  0  0  0  0  0  0  0  0  0  0  0
  143.3160   74.0430  220.3160 C   0  0  0  0  0  0  0  0  0  0  0  0
  146.1060   74.8890  220.3940 H   0  0  0  0  0  0  0  0  0  0  0  0
  147.3650   74.3380  219.3890 H   0  0  0  0  0  0  0  0  0  0  0  0
  144.0955   70.8078  220.7368 H   0  0  0  0  0  0  0  0  0  0  0  0
  141.9009   70.8268  221.7759 H   0  0  0  0  0  0  0  0  0  0  0  0
  139.7789   73.7898  222.4782 H   0  0  0  0  0  0  0  0  0  0  0  0
  138.8005   71.4415  221.4375 H   0  0  0  0  0  0  0  0  0  0  0  0
  141.1508   72.5963  226.7347 H   0  0  0  0  0  0  0  0  0  0  0  0
  141.4702   71.3001  228.8319 H   0  0  0  0  0  0  0  0  0  0  0  0
  139.9258   67.7765  226.9352 H   0  0  0  0  0  0  0  0  0  0  0  0
  138.8557   69.5965  221.4327 H   0  0  0  0  0  0  0  0  0  0  0  0
  139.3680   68.0167  222.2627 H   0  0  0  0  0  0  0  0  0  0  0  0
  137.3681   67.4878  222.8708 H   0  0  0  0  0  0  0  0  0  0  0  0
  136.8496   69.3710  224.2745 H   0  0  0  0  0  0  0  0  0  0  0  0
  136.3858   70.3321  222.8366 H   0  0  0  0  0  0  0  0  0  0  0  0
  134.8672   68.3357  224.2913 H   0  0  0  0  0  0  0  0  0  0  0  0
  134.3538   69.4270  222.9374 H   0  0  0  0  0  0  0  0  0  0  0  0
  135.5746   66.6848  222.7982 H   0  0  0  0  0  0  0  0  0  0  0  0
  133.9375   67.3062  222.2150 H   0  0  0  0  0  0  0  0  0  0  0  0
  135.7924   66.7609  220.5218 H   0  0  0  0  0  0  0  0  0  0  0  0
  134.7790   68.2633  220.3867 H   0  0  0  0  0  0  0  0  0  0  0  0
  137.5347   68.2193  220.2471 H   0  0  0  0  0  0  0  0  0  0  0  0
  136.5881   69.6395  220.6912 H   0  0  0  0  0  0  0  0  0  0  0  0
  141.4859   74.9955  220.9513 H   0  0  0  0  0  0  0  0  0  0  0  0
  143.7175   74.9781  219.8984 H   0  0  0  0  0  0  0  0  0  0  0  0
  1  2  1  0
  2  3  2  0
  2  4  2  0
  2  5  1  0
  5  6  2  0
  6  7  1  0
  7  8  2  0
  8  9  1  0
  9 10  2  0
 10 11  1  0
 11 12  2  0
 12 13  1  0
 13 14  2  0
 14 15  1  0
 15 16  2  0
 16 17  1  0
 16 18  1  0
 18 19  2  0
 19 20  1  0
 20 21  2  0
 20 22  1  0
 22 23  1  0
 23 24  1  0
 24 25  1  0
 25 26  1  0
 26 27  1  0
 27 28  1  0
 28 29  1  0
  8 30  1  0
 30 31  2  0
 31  5  1  0
 22 11  1  0
 29 24  1  0
 19 13  1  0
  1 32  1  0
  1 33  1  0
  6 34  1  0
  7 35  1  0
  9 36  1  0
 10 37  1  0
 14 38  1  0
 15 39  1  0
 18 40  1  0
 23 41  1  0
 23 42  1  0
 24 43  1  0
 25 44  1  0
 25 45  1  0
 26 46  1  0
 26 47  1  0
 27 48  1  0
 27 49  1  0
 28 50  1  0
 28 51  1  0
 29 52  1  0
 29 53  1  0
 30 54  1  0
 31 55  1  0
M  END
>  <smiles>  (12) 
NS(=O)(=O)c1ccc(/C=C/c2nc3ccc(F)cc3c(=O)n2CC2CCCCC2)cc1

>  <score_type>  (12) 
oracle

>  <origin>  (12) 
autodockgpu

>  <m_score__min__energy>  (12) 
-9.1300000000000008

>  <m_primary>  (12) 
energy

>  <rmsd>  (12) 
11.336833856697117

>  <m_score__min__rmsd>  (12) 
11.336833856697117

>  <meeko>  (12) 
{"free_energy": -8.77, "intermolecular_energy": -10.86, "internal_energy": -1.41, "cluster_size": 24, "cluster_id": 2, "rank_in_cluster": 5}

>  <energy>  (12) 
-8.77

>  <cluster_rmsd>  (12) 
0.85

>  <cluster>  (12) 
2

$$$$

     RDKit          3D

 55 58  0  0  0  0  0  0  0  0999 V2000
  145.9000   73.4310  218.2620 N   0  0  0  0  0  0  0  0  0  0  0  0
  145.7910   72.6700  219.7940 S   0  0  0  0  0  0  0  0  0  0  0  0
  146.7070   73.4460  220.7220 O   0  0  0  0  0  0  0  0  0  0  0  0
  146.3730   71.2850  219.7310 O   0  0  0  0  0  0  0  0  0  0  0  0
  144.1680   72.6880  220.4360 C   0  0  0  0  0  0  0  0  0  0  0  0
  143.4640   73.8740  220.5600 C   0  0  0  0  0  0  0  0  0  0  0  0
  142.2000   73.8850  221.0590 C   0  0  0  0  0  0  0  0  0  0  0  0
  141.5360   72.7240  221.4740 C   0  0  0  0  0  0  0  0  0  0  0  0
  140.1810   72.8190  221.9990 C   0  0  0  0  0  0  0  0  0  0  0  0
  139.3950   71.7880  222.2180 C   0  0  0  0  0  0  0  0  0  0  0  0
  139.5850   70.9840  223.4170 C   0  0  0  0  0  0  0  0  0  0  0  0
  140.0980   71.5660  224.5160 N   0  0  0  0  0  0  0  0  0  0  0  0
  140.3190   70.9120  225.6560 C   0  0  0  0  0  0  0  0  0  0  0  0
  140.8520   71.5740  226.7530 C   0  0  0  0  0  0  0  0  0  0  0  0
  141.0580   70.8500  227.9030 C   0  0  0  0  0  0  0  0  0  0  0  0
  140.7390   69.4930  227.9590 C   0  0  0  0  0  0  0  0  0  0  0  0
  140.9510   68.7970  229.1050 F   0  0  0  0  0  0  0  0  0  0  0  0
  140.2160   68.8730  226.8570 C   0  0  0  0  0  0  0  0  0  0  0  0
  139.9970   69.5700  225.6910 C   0  0  0  0  0  0  0  0  0  0  0  0
  139.4740   68.9870  224.5650 C   0  0  0  0  0  0  0  0  0  0  0  0
  139.1900   67.7680  224.6200 O   0  0  0  0  0  0  0  0  0  0  0  0
  139.2580   69.6810  223.4090 N   0  0  0  0  0  0  0  0  0  0  0  0
  138.7210   68.9640  222.3080 C   0  0  0  0  0  0  0  0  0  0  0  0
  137.3010   68.5020  222.4170 C   0  0  0  0  0  0  0  0  0  0  0  0
  136.4030   69.3270  223.2630 C   0  0  0  0  0  0  0  0  0  0  0  0
  135.0410   68.6810  223.2950 C   0  0  0  0  0  0  0  0  0  0  0  0
  134.9620   67.5160  222.3730 C   0  0  0  0  0  0  0  0  0  0  0  0
  135.4880   67.7410  220.9920 C   0  0  0  0  0  0  0  0  0  0  0  0
  136.7360   68.6090  220.9850 C   0  0  0  0  0  0  0  0  0  0  0  0
  142.2350   71.5570  221.3490 C   0  0  0  0  0  0  0  0  0  0  0  0
  143.5320   71.5410  220.8360 C   0  0  0  0  0  0  0  0  0  0  0  0
  146.8460   73.8900  218.2280 H   0  0  0  0  0  0  0  0  0  0  0  0
  145.1700   74.1890  218.2510 H   0  0  0  0  0  0  0  0  0  0  0  0
  143.9339   74.8193  220.2506 H   0  0  0  0  0  0  0  0  0  0  0  0
  141.6753   74.8484  221.1405 H   0  0  0  0  0  0  0  0  0  0  0  0
  139.7886   73.8209  222.2277 H   0  0  0  0  0  0  0  0  0  0  0  0
  138.6001   71.5348  221.5010 H   0  0  0  0  0  0  0  0  0  0  0  0
  141.1017   72.6442  226.7038 H   0  0  0  0  0  0  0  0  0  0  0  0
  141.4793   71.3463  228.7896 H   0  0  0  0  0  0  0  0  0  0  0  0
  139.9672   67.8025  226.9039 H   0  0  0  0  0  0  0  0  0  0  0  0
  138.7898   69.6153  221.4242 H   0  0  0  0  0  0  0  0  0  0  0  0
  139.3156   68.0401  222.2552 H   0  0  0  0  0  0  0  0  0  0  0  0
  137.3254   67.5034  222.8777 H   0  0  0  0  0  0  0  0  0  0  0  0
  136.8082   69.3872  224.2839 H   0  0  0  0  0  0  0  0  0  0  0  0
  136.3263   70.3430  222.8485 H   0  0  0  0  0  0  0  0  0  0  0  0
  134.8326   68.3393  224.3196 H   0  0  0  0  0  0  0  0  0  0  0  0
  134.3005   69.4264  222.9694 H   0  0  0  0  0  0  0  0  0  0  0  0
  135.5349   66.6912  222.8219 H   0  0  0  0  0  0  0  0  0  0  0  0
  133.8895   67.3032  222.2526 H   0  0  0  0  0  0  0  0  0  0  0  0
  135.7320   66.7668  220.5432 H   0  0  0  0  0  0  0  0  0  0  0  0
  134.7104   68.2646  220.4166 H   0  0  0  0  0  0  0  0  0  0  0  0
  137.4650   68.2330  220.2521 H   0  0  0  0  0  0  0  0  0  0  0  0
  136.5158   69.6492  220.7030 H   0  0  0  0  0  0  0  0  0  0  0  0
  141.7659   70.6115  221.6589 H   0  0  0  0  0  0  0  0  0  0  0  0
  144.0601   70.5799  220.7498 H   0  0  0  0  0  0  0  0  0  0  0  0
  1  2  1  0
  2  3  2  0
  2  4  2  0
  2  5  1  0
  5  6  2  0
  6  7  1  0
  7  8  2  0
  8  9  1  0
  9 10  2  0
 10 11  1  0
 11 12  2  0
 12 13  1  0
 13 14  2  0
 14 15  1  0
 15 16  2  0
 16 17  1  0
 16 18  1  0
 18 19  2  0
 19 20  1  0
 20 21  2  0
 20 22  1  0
 22 23  1  0
 23 24  1  0
 24 25  1  0
 25 26  1  0
 26 27  1  0
 27 28  1  0
 28 29  1  0
  8 30  1  0
 30 31  2  0
 31  5  1  0
 22 11  1  0
 29 24  1  0
 19 13  1  0
  1 32  1  0
  1 33  1  0
  6 34  1  0
  7 35  1  0
  9 36  1  0
 10 37  1  0
 14 38  1  0
 15 39  1  0
 18 40  1  0
 23 41  1  0
 23 42  1  0
 24 43  1  0
 25 44  1  0
 25 45  1  0
 26 46  1  0
 26 47  1  0
 27 48  1  0
 27 49  1  0
 28 50  1  0
 28 51  1  0
 29 52  1  0
 29 53  1  0
 30 54  1  0
 31 55  1  0
M  END
>  <smiles>  (13) 
NS(=O)(=O)c1ccc(/C=C/c2nc3ccc(F)cc3c(=O)n2CC2CCCCC2)cc1

>  <score_type>  (13) 
oracle

>  <origin>  (13) 
autodockgpu

>  <m_score__min__energy>  (13) 
-9.1300000000000008

>  <m_primary>  (13) 
energy

>  <rmsd>  (13) 
11.322512955702235

>  <m_score__min__rmsd>  (13) 
11.322512955702235

>  <meeko>  (13) 
{"free_energy": -8.85, "intermolecular_energy": -10.94, "internal_energy": -1.45, "cluster_size": 24, "cluster_id": 2, "rank_in_cluster": 3}

>  <energy>  (13) 
-8.73

>  <cluster_rmsd>  (13) 
0.67

>  <cluster>  (13) 
2

$$$$

     RDKit          3D

 55 58  0  0  0  0  0  0  0  0999 V2000
  133.5350   72.6170  227.2300 N   0  0  0  0  0  0  0  0  0  0  0  0
  133.0800   74.0750  226.4550 S   0  0  0  0  0  0  0  0  0  0  0  0
  132.9620   75.1210  227.5470 O   0  0  0  0  0  0  0  0  0  0  0  0
  131.6970   73.9490  225.8770 O   0  0  0  0  0  0  0  0  0  0  0  0
  134.2540   74.6010  225.2750 C   0  0  0  0  0  0  0  0  0  0  0  0
  134.9200   73.6860  224.4770 C   0  0  0  0  0  0  0  0  0  0  0  0
  135.8340   74.0980  223.5580 C   0  0  0  0  0  0  0  0  0  0  0  0
  136.1580   75.4460  223.3590 C   0  0  0  0  0  0  0  0  0  0  0  0
  137.1490   75.8060  222.3550 C   0  0  0  0  0  0  0  0  0  0  0  0
  138.3190   76.3400  222.6250 C   0  0  0  0  0  0  0  0  0  0  0  0
  139.5150   75.8080  221.9850 C   0  0  0  0  0  0  0  0  0  0  0  0
  139.8070   74.5040  222.1340 N   0  0  0  0  0  0  0  0  0  0  0  0
  140.8820   73.9280  221.5970 C   0  0  0  0  0  0  0  0  0  0  0  0
  141.1230   72.5750  221.7900 C   0  0  0  0  0  0  0  0  0  0  0  0
  142.2470   72.0340  221.2130 C   0  0  0  0  0  0  0  0  0  0  0  0
  143.1130   72.8250  220.4590 C   0  0  0  0  0  0  0  0  0  0  0  0
  144.2180   72.2700  219.8970 F   0  0  0  0  0  0  0  0  0  0  0  0
  142.8440   74.1550  220.2900 C   0  0  0  0  0  0  0  0  0  0  0  0
  141.7270   74.7270  220.8540 C   0  0  0  0  0  0  0  0  0  0  0  0
  141.4200   76.0560  220.7090 C   0  0  0  0  0  0  0  0  0  0  0  0
  142.2010   76.7630  220.0310 O   0  0  0  0  0  0  0  0  0  0  0  0
  140.3100   76.6220  221.2700 N   0  0  0  0  0  0  0  0  0  0  0  0
  140.1060   78.0090  221.0570 C   0  0  0  0  0  0  0  0  0  0  0  0
  140.7300   78.9540  222.0380 C   0  0  0  0  0  0  0  0  0  0  0  0
  141.4300   78.3360  223.1910 C   0  0  0  0  0  0  0  0  0  0  0  0
  141.9430   79.4330  224.0890 C   0  0  0  0  0  0  0  0  0  0  0  0
  141.7270   80.7790  223.4920 C   0  0  0  0  0  0  0  0  0  0  0  0
  142.1370   80.9320  222.0630 C   0  0  0  0  0  0  0  0  0  0  0  0
  141.8210   79.6950  221.2380 C   0  0  0  0  0  0  0  0  0  0  0  0
  135.4970   76.3430  224.1490 C   0  0  0  0  0  0  0  0  0  0  0  0
  134.5580   75.9250  225.0920 C   0  0  0  0  0  0  0  0  0  0  0  0
  133.1110   72.6500  228.1920 H   0  0  0  0  0  0  0  0  0  0  0  0
  134.5820   72.6470  227.3350 H   0  0  0  0  0  0  0  0  0  0  0  0
  134.7071   72.6125  224.5878 H   0  0  0  0  0  0  0  0  0  0  0  0
  136.3411   73.3392  222.9440 H   0  0  0  0  0  0  0  0  0  0  0  0
  136.9018   75.6184  221.2997 H   0  0  0  0  0  0  0  0  0  0  0  0
  138.3948   77.1821  223.3287 H   0  0  0  0  0  0  0  0  0  0  0  0
  140.4365   71.9554  222.3857 H   0  0  0  0  0  0  0  0  0  0  0  0
  142.4659   70.9644  221.3476 H   0  0  0  0  0  0  0  0  0  0  0  0
  143.5299   74.7760  219.6951 H   0  0  0  0  0  0  0  0  0  0  0  0
  140.5071   78.2530  220.0622 H   0  0  0  0  0  0  0  0  0  0  0  0
  139.0221   78.1561  221.1735 H   0  0  0  0  0  0  0  0  0  0  0  0
  139.9152   79.5597  222.4614 H   0  0  0  0  0  0  0  0  0  0  0  0
  140.7303   77.6970  223.7497 H   0  0  0  0  0  0  0  0  0  0  0  0
  142.2689   77.7204  222.8342 H   0  0  0  0  0  0  0  0  0  0  0  0
  141.4147   79.3814  225.0524 H   0  0  0  0  0  0  0  0  0  0  0  0
  143.0249   79.2875  224.2245 H   0  0  0  0  0  0  0  0  0  0  0  0
  140.6539   81.0104  223.5615 H   0  0  0  0  0  0  0  0  0  0  0  0
  142.3714   81.4646  224.0619 H   0  0  0  0  0  0  0  0  0  0  0  0
  141.6027   81.7913  221.6315 H   0  0  0  0  0  0  0  0  0  0  0  0
  143.2262   81.0839  222.0392 H   0  0  0  0  0  0  0  0  0  0  0  0
  141.4466   79.9783  220.2432 H   0  0  0  0  0  0  0  0  0  0  0  0
  142.7103   79.0692  221.0718 H   0  0  0  0  0  0  0  0  0  0  0  0
  135.7094   77.4167  224.0394 H   0  0  0  0  0  0  0  0  0  0  0  0
  134.0464   76.6801  225.7069 H   0  0  0  0  0  0  0  0  0  0  0  0
  1  2  1  0
  2  3  2  0
  2  4  2  0
  2  5  1  0
  5  6  2  0
  6  7  1  0
  7  8  2  0
  8  9  1  0
  9 10  2  0
 10 11  1  0
 11 12  2  0
 12 13  1  0
 13 14  2  0
 14 15  1  0
 15 16  2  0
 16 17  1  0
 16 18  1  0
 18 19  2  0
 19 20  1  0
 20 21  2  0
 20 22  1  0
 22 23  1  0
 23 24  1  0
 24 25  1  0
 25 26  1  0
 26 27  1  0
 27 28  1  0
 28 29  1  0
  8 30  1  0
 30 31  2  0
 31  5  1  0
 22 11  1  0
 29 24  1  0
 19 13  1  0
  1 32  1  0
  1 33  1  0
  6 34  1  0
  7 35  1  0
  9 36  1  0
 10 37  1  0
 14 38  1  0
 15 39  1  0
 18 40  1  0
 23 41  1  0
 23 42  1  0
 24 43  1  0
 25 44  1  0
 25 45  1  0
 26 46  1  0
 26 47  1  0
 27 48  1  0
 27 49  1  0
 28 50  1  0
 28 51  1  0
 29 52  1  0
 29 53  1  0
 30 54  1  0
 31 55  1  0
M  END
>  <smiles>  (14) 
NS(=O)(=O)c1ccc(/C=C/c2nc3ccc(F)cc3c(=O)n2CC2CCCCC2)cc1

>  <score_type>  (14) 
oracle

>  <origin>  (14) 
autodockgpu

>  <m_score__min__energy>  (14) 
-9.1300000000000008

>  <m_primary>  (14) 
energy

>  <rmsd>  (14) 
7.341881969053741

>  <m_score__min__rmsd>  (14) 
7.341881969053741

>  <meeko>  (14) 
{"free_energy": -8.18, "intermolecular_energy": -10.27, "internal_energy": -1.31, "cluster_size": 4, "cluster_id": 4, "rank_in_cluster": 2}

>  <energy>  (14) 
-8.73

>  <cluster_rmsd>  (14) 
1.4

>  <cluster>  (14) 
2

$$$$

     RDKit          3D

 55 58  0  0  0  0  0  0  0  0999 V2000
  146.5830   74.0810  220.5470 N   0  0  0  0  0  0  0  0  0  0  0  0
  145.6230   72.9250  219.7220 S   0  0  0  0  0  0  0  0  0  0  0  0
  146.3070   71.5860  219.9150 O   0  0  0  0  0  0  0  0  0  0  0  0
  145.6600   73.1800  218.2400 O   0  0  0  0  0  0  0  0  0  0  0  0
  143.9960   72.8390  220.3480 C   0  0  0  0  0  0  0  0  0  0  0  0
  143.2200   73.9800  220.4740 C   0  0  0  0  0  0  0  0  0  0  0  0
  141.9530   73.9100  220.9610 C   0  0  0  0  0  0  0  0  0  0  0  0
  141.3560   72.7070  221.3600 C   0  0  0  0  0  0  0  0  0  0  0  0
  139.9930   72.7170  221.8720 C   0  0  0  0  0  0  0  0  0  0  0  0
  139.2860   71.6360  222.1190 C   0  0  0  0  0  0  0  0  0  0  0  0
  139.5200   70.8920  223.3500 C   0  0  0  0  0  0  0  0  0  0  0  0
  140.0620   71.5310  224.4030 N   0  0  0  0  0  0  0  0  0  0  0  0
  140.3230   70.9350  225.5650 C   0  0  0  0  0  0  0  0  0  0  0  0
  140.8840   71.6530  226.6120 C   0  0  0  0  0  0  0  0  0  0  0  0
  141.1320   70.9870  227.7880 C   0  0  0  0  0  0  0  0  0  0  0  0
  140.8270   69.6320  227.9200 C   0  0  0  0  0  0  0  0  0  0  0  0
  141.0800   68.9940  229.0910 F   0  0  0  0  0  0  0  0  0  0  0  0
  140.2750   68.9560  226.8660 C   0  0  0  0  0  0  0  0  0  0  0  0
  140.0150   69.5940  225.6760 C   0  0  0  0  0  0  0  0  0  0  0  0
  139.4620   68.9530  224.5960 C   0  0  0  0  0  0  0  0  0  0  0  0
  139.1910   67.7360  224.7180 O   0  0  0  0  0  0  0  0  0  0  0  0
  139.2040   69.5880  223.4140 N   0  0  0  0  0  0  0  0  0  0  0  0
  138.6400   68.8150  222.3670 C   0  0  0  0  0  0  0  0  0  0  0  0
  137.1940   68.4460  222.4890 C   0  0  0  0  0  0  0  0  0  0  0  0
  136.3700   69.2990  223.3800 C   0  0  0  0  0  0  0  0  0  0  0  0
  134.9680   68.7470  223.4170 C   0  0  0  0  0  0  0  0  0  0  0  0
  134.7930   67.6230  222.4570 C   0  0  0  0  0  0  0  0  0  0  0  0
  135.3090   67.8610  221.0750 C   0  0  0  0  0  0  0  0  0  0  0  0
  136.6130   68.6420  221.0730 C   0  0  0  0  0  0  0  0  0  0  0  0
  142.1260   71.5860  221.2330 C   0  0  0  0  0  0  0  0  0  0  0  0
  143.4260   71.6530  220.7330 C   0  0  0  0  0  0  0  0  0  0  0  0
  147.1200   74.6000  219.8060 H   0  0  0  0  0  0  0  0  0  0  0  0
  147.2730   73.5380  221.1280 H   0  0  0  0  0  0  0  0  0  0  0  0
  143.6345   74.9545  220.1762 H   0  0  0  0  0  0  0  0  0  0  0  0
  141.3704   74.8392  221.0456 H   0  0  0  0  0  0  0  0  0  0  0  0
  139.5238   73.6930  222.0649 H   0  0  0  0  0  0  0  0  0  0  0  0
  138.5241   71.2961  221.4021 H   0  0  0  0  0  0  0  0  0  0  0  0
  141.1225   72.7214  226.5038 H   0  0  0  0  0  0  0  0  0  0  0  0
  141.5765   71.5289  228.6358 H   0  0  0  0  0  0  0  0  0  0  0  0
  140.0360   67.8875  226.9722 H   0  0  0  0  0  0  0  0  0  0  0  0
  138.7579   69.3859  221.4342 H   0  0  0  0  0  0  0  0  0  0  0  0
  139.1800   67.8572  222.4003 H   0  0  0  0  0  0  0  0  0  0  0  0
  137.1580   67.4324  222.9148 H   0  0  0  0  0  0  0  0  0  0  0  0
  136.7962   69.2950  224.3941 H   0  0  0  0  0  0  0  0  0  0  0  0
  136.3561   70.3319  223.0020 H   0  0  0  0  0  0  0  0  0  0  0  0
  134.7545   68.3842  224.4333 H   0  0  0  0  0  0  0  0  0  0  0  0
  134.2750   69.5523  223.1320 H   0  0  0  0  0  0  0  0  0  0  0  0
  135.3156   66.7457  222.8658 H   0  0  0  0  0  0  0  0  0  0  0  0
  133.7065   67.4877  222.3507 H   0  0  0  0  0  0  0  0  0  0  0  0
  135.4779   66.8892  220.5882 H   0  0  0  0  0  0  0  0  0  0  0  0
  134.5591   68.4564  220.5336 H   0  0  0  0  0  0  0  0  0  0  0  0
  137.3017   68.2437  220.3133 H   0  0  0  0  0  0  0  0  0  0  0  0
  136.4597   69.7041  220.8311 H   0  0  0  0  0  0  0  0  0  0  0  0
  141.7125   70.6112  221.5310 H   0  0  0  0  0  0  0  0  0  0  0  0
  144.0119   70.7262  220.6448 H   0  0  0  0  0  0  0  0  0  0  0  0
  1  2  1  0
  2  3  2  0
  2  4  2  0
  2  5  1  0
  5  6  2  0
  6  7  1  0
  7  8  2  0
  8  9  1  0
  9 10  2  0
 10 11  1  0
 11 12  2  0
 12 13  1  0
 13 14  2  0
 14 15  1  0
 15 16  2  0
 16 17  1  0
 16 18  1  0
 18 19  2  0
 19 20  1  0
 20 21  2  0
 20 22  1  0
 22 23  1  0
 23 24  1  0
 24 25  1  0
 25 26  1  0
 26 27  1  0
 27 28  1  0
 28 29  1  0
  8 30  1  0
 30 31  2  0
 31  5  1  0
 22 11  1  0
 29 24  1  0
 19 13  1  0
  1 32  1  0
  1 33  1  0
  6 34  1  0
  7 35  1  0
  9 36  1  0
 10 37  1  0
 14 38  1  0
 15 39  1  0
 18 40  1  0
 23 41  1  0
 23 42  1  0
 24 43  1  0
 25 44  1  0
 25 45  1  0
 26 46  1  0
 26 47  1  0
 27 48  1  0
 27 49  1  0
 28 50  1  0
 28 51  1  0
 29 52  1  0
 29 53  1  0
 30 54  1  0
 31 55  1  0
M  END
>  <smiles>  (15) 
NS(=O)(=O)c1ccc(/C=C/c2nc3ccc(F)cc3c(=O)n2CC2CCCCC2)cc1

>  <score_type>  (15) 
oracle

>  <origin>  (15) 
autodockgpu

>  <m_score__min__energy>  (15) 
-9.1300000000000008

>  <m_primary>  (15) 
energy

>  <rmsd>  (15) 
11.32588672596816

>  <m_score__min__rmsd>  (15) 
11.32588672596816

>  <meeko>  (15) 
{"free_energy": -8.37, "intermolecular_energy": -10.45, "internal_energy": -1.46, "cluster_size": 24, "cluster_id": 2, "rank_in_cluster": 19}

>  <energy>  (15) 
-8.72

>  <cluster_rmsd>  (15) 
1.29

>  <cluster>  (15) 
2

$$$$

     RDKit          3D

 55 58  0  0  0  0  0  0  0  0999 V2000
  145.7430   73.3570  218.0710 N   0  0  0  0  0  0  0  0  0  0  0  0
  145.6650   72.7760  219.6810 S   0  0  0  0  0  0  0  0  0  0  0  0
  146.4900   73.7330  220.5210 O   0  0  0  0  0  0  0  0  0  0  0  0
  146.3650   71.4490  219.7910 O   0  0  0  0  0  0  0  0  0  0  0  0
  144.0320   72.7260  220.2950 C   0  0  0  0  0  0  0  0  0  0  0  0
  143.3670   73.8900  220.6430 C   0  0  0  0  0  0  0  0  0  0  0  0
  142.0950   73.8480  221.1210 C   0  0  0  0  0  0  0  0  0  0  0  0
  141.3850   72.6530  221.2910 C   0  0  0  0  0  0  0  0  0  0  0  0
  140.0240   72.6930  221.8100 C   0  0  0  0  0  0  0  0  0  0  0  0
  139.3060   71.6280  222.0920 C   0  0  0  0  0  0  0  0  0  0  0  0
  139.5490   70.9090  223.3360 C   0  0  0  0  0  0  0  0  0  0  0  0
  140.1260   71.5600  224.3620 N   0  0  0  0  0  0  0  0  0  0  0  0
  140.3980   70.9870  225.5330 C   0  0  0  0  0  0  0  0  0  0  0  0
  140.9950   71.7180  226.5510 C   0  0  0  0  0  0  0  0  0  0  0  0
  141.2530   71.0750  227.7370 C   0  0  0  0  0  0  0  0  0  0  0  0
  140.9220   69.7300  227.9080 C   0  0  0  0  0  0  0  0  0  0  0  0
  141.1860   69.1150  229.0890 F   0  0  0  0  0  0  0  0  0  0  0  0
  140.3350   69.0410  226.8820 C   0  0  0  0  0  0  0  0  0  0  0  0
  140.0640   69.6560  225.6820 C   0  0  0  0  0  0  0  0  0  0  0  0
  139.4760   69.0020  224.6290 C   0  0  0  0  0  0  0  0  0  0  0  0
  139.1820   67.7940  224.7860 O   0  0  0  0  0  0  0  0  0  0  0  0
  139.2080   69.6140  223.4380 N   0  0  0  0  0  0  0  0  0  0  0  0
  138.6060   68.8280  222.4210 C   0  0  0  0  0  0  0  0  0  0  0  0
  137.1550   68.4960  222.5790 C   0  0  0  0  0  0  0  0  0  0  0  0
  136.3670   69.3890  223.4640 C   0  0  0  0  0  0  0  0  0  0  0  0
  134.9540   68.8700  223.5410 C   0  0  0  0  0  0  0  0  0  0  0  0
  134.7360   67.7270  222.6130 C   0  0  0  0  0  0  0  0  0  0  0  0
  135.2300   67.9180  221.2160 C   0  0  0  0  0  0  0  0  0  0  0  0
  136.5510   68.6690  221.1700 C   0  0  0  0  0  0  0  0  0  0  0  0
  142.0460   71.5090  220.9460 C   0  0  0  0  0  0  0  0  0  0  0  0
  143.3510   71.5470  220.4550 C   0  0  0  0  0  0  0  0  0  0  0  0
  145.6390   74.4020  218.1290 H   0  0  0  0  0  0  0  0  0  0  0  0
  144.9000   72.9730  217.5710 H   0  0  0  0  0  0  0  0  0  0  0  0
  143.8740   74.8598  220.5313 H   0  0  0  0  0  0  0  0  0  0  0  0
  141.6016   74.7947  221.3860 H   0  0  0  0  0  0  0  0  0  0  0  0
  139.5669   73.6795  221.9770 H   0  0  0  0  0  0  0  0  0  0  0  0
  138.5285   71.2828  221.3947 H   0  0  0  0  0  0  0  0  0  0  0  0
  141.2532   72.7782  226.4123 H   0  0  0  0  0  0  0  0  0  0  0  0
  141.7264   71.6270  228.5623 H   0  0  0  0  0  0  0  0  0  0  0  0
  140.0763   67.9806  227.0187 H   0  0  0  0  0  0  0  0  0  0  0  0
  138.7190   69.3726  221.4720 H   0  0  0  0  0  0  0  0  0  0  0  0
  139.1244   67.8590  222.4687 H   0  0  0  0  0  0  0  0  0  0  0  0
  137.1049   67.4945  223.0311 H   0  0  0  0  0  0  0  0  0  0  0  0
  136.8124   69.4001  224.4697 H   0  0  0  0  0  0  0  0  0  0  0  0
  136.3686   70.4124  223.0607 H   0  0  0  0  0  0  0  0  0  0  0  0
  134.7520   68.5374  224.5699 H   0  0  0  0  0  0  0  0  0  0  0  0
  134.2736   69.6834  223.2489 H   0  0  0  0  0  0  0  0  0  0  0  0
  135.2470   66.8486  223.0342 H   0  0  0  0  0  0  0  0  0  0  0  0
  133.6449   67.6143  222.5304 H   0  0  0  0  0  0  0  0  0  0  0  0
  135.3678   66.9306  220.7512 H   0  0  0  0  0  0  0  0  0  0  0  0
  134.4832   68.5161  220.6733 H   0  0  0  0  0  0  0  0  0  0  0  0
  137.2159   68.2362  220.4080 H   0  0  0  0  0  0  0  0  0  0  0  0
  136.4164   69.7279  220.9042 H   0  0  0  0  0  0  0  0  0  0  0  0
  141.5396   70.5389  221.0574 H   0  0  0  0  0  0  0  0  0  0  0  0
  143.8485   70.6029  220.1882 H   0  0  0  0  0  0  0  0  0  0  0  0
  1  2  1  0
  2  3  2  0
  2  4  2  0
  2  5  1  0
  5  6  2  0
  6  7  1  0
  7  8  2  0
  8  9  1  0
  9 10  2  0
 10 11  1  0
 11 12  2  0
 12 13  1  0
 13 14  2  0
 14 15  1  0
 15 16  2  0
 16 17  1  0
 16 18  1  0
 18 19  2  0
 19 20  1  0
 20 21  2  0
 20 22  1  0
 22 23  1  0
 23 24  1  0
 24 25  1  0
 25 26  1  0
 26 27  1  0
 27 28  1  0
 28 29  1  0
  8 30  1  0
 30 31  2  0
 31  5  1  0
 22 11  1  0
 29 24  1  0
 19 13  1  0
  1 32  1  0
  1 33  1  0
  6 34  1  0
  7 35  1  0
  9 36  1  0
 10 37  1  0
 14 38  1  0
 15 39  1  0
 18 40  1  0
 23 41  1  0
 23 42  1  0
 24 43  1  0
 25 44  1  0
 25 45  1  0
 26 46  1  0
 26 47  1  0
 27 48  1  0
 27 49  1  0
 28 50  1  0
 28 51  1  0
 29 52  1  0
 29 53  1  0
 30 54  1  0
 31 55  1  0
M  END
>  <smiles>  (16) 
NS(=O)(=O)c1ccc(/C=C/c2nc3ccc(F)cc3c(=O)n2CC2CCCCC2)cc1

>  <score_type>  (16) 
oracle

>  <origin>  (16) 
autodockgpu

>  <m_score__min__energy>  (16) 
-9.1300000000000008

>  <m_primary>  (16) 
energy

>  <rmsd>  (16) 
11.291758751733685

>  <m_score__min__rmsd>  (16) 
11.291758751733685

>  <meeko>  (16) 
{"free_energy": -8.45, "intermolecular_energy": -10.54, "internal_energy": -1.47, "cluster_size": 24, "cluster_id": 2, "rank_in_cluster": 15}

>  <energy>  (16) 
-8.69

>  <cluster_rmsd>  (16) 
1.35

>  <cluster>  (16) 
2

$$$$

     RDKit          3D

 55 58  0  0  0  0  0  0  0  0999 V2000
  145.8390   71.5530  220.0830 N   0  0  0  0  0  0  0  0  0  0  0  0
  145.7160   73.2250  219.7250 S   0  0  0  0  0  0  0  0  0  0  0  0
  145.9850   73.3640  218.2390 O   0  0  0  0  0  0  0  0  0  0  0  0
  146.8230   73.9860  220.4010 O   0  0  0  0  0  0  0  0  0  0  0  0
  144.1370   73.8720  220.0900 C   0  0  0  0  0  0  0  0  0  0  0  0
  143.0970   73.0410  220.4700 C   0  0  0  0  0  0  0  0  0  0  0  0
  141.8680   73.5480  220.7550 C   0  0  0  0  0  0  0  0  0  0  0  0
  141.5740   74.9160  220.6830 C   0  0  0  0  0  0  0  0  0  0  0  0
  140.2310   75.3800  221.0030 C   0  0  0  0  0  0  0  0  0  0  0  0
  139.7440   76.5470  220.6440 C   0  0  0  0  0  0  0  0  0  0  0  0
  140.0110   77.7190  221.4670 C   0  0  0  0  0  0  0  0  0  0  0  0
  141.2870   78.0390  221.7500 N   0  0  0  0  0  0  0  0  0  0  0  0
  141.6300   79.0830  222.5020 C   0  0  0  0  0  0  0  0  0  0  0  0
  142.9680   79.3560  222.7560 C   0  0  0  0  0  0  0  0  0  0  0  0
  143.2630   80.4470  223.5380 C   0  0  0  0  0  0  0  0  0  0  0  0
  142.2480   81.2500  224.0570 C   0  0  0  0  0  0  0  0  0  0  0  0
  142.5630   82.3220  224.8270 F   0  0  0  0  0  0  0  0  0  0  0  0
  140.9410   80.9500  223.7870 C   0  0  0  0  0  0  0  0  0  0  0  0
  140.6110   79.8660  223.0080 C   0  0  0  0  0  0  0  0  0  0  0  0
  139.3150   79.5310  222.7120 C   0  0  0  0  0  0  0  0  0  0  0  0
  138.4060   80.2550  223.1810 O   0  0  0  0  0  0  0  0  0  0  0  0
  138.9890   78.4540  221.9380 N   0  0  0  0  0  0  0  0  0  0  0  0
  137.6110   78.2040  221.7120 C   0  0  0  0  0  0  0  0  0  0  0  0
  136.9200   77.2670  222.6530 C   0  0  0  0  0  0  0  0  0  0  0  0
  135.5760   77.6820  223.1270 C   0  0  0  0  0  0  0  0  0  0  0  0
  135.0660   76.6490  224.0980 C   0  0  0  0  0  0  0  0  0  0  0  0
  135.9740   75.4730  224.1800 C   0  0  0  0  0  0  0  0  0  0  0  0
  136.4200   74.9010  222.8730 C   0  0  0  0  0  0  0  0  0  0  0  0
  136.6920   75.9780  221.8360 C   0  0  0  0  0  0  0  0  0  0  0  0
  142.6040   75.7300  220.3070 C   0  0  0  0  0  0  0  0  0  0  0  0
  143.8660   75.2150  220.0160 C   0  0  0  0  0  0  0  0  0  0  0  0
  145.0640   71.3400  220.7620 H   0  0  0  0  0  0  0  0  0  0  0  0
  146.7550   71.4200  220.5840 H   0  0  0  0  0  0  0  0  0  0  0  0
  143.2671   71.9566  220.5423 H   0  0  0  0  0  0  0  0  0  0  0  0
  141.0694   72.8536  221.0553 H   0  0  0  0  0  0  0  0  0  0  0  0
  139.5809   74.7092  221.5838 H   0  0  0  0  0  0  0  0  0  0  0  0
  139.1397   76.6379  219.7294 H   0  0  0  0  0  0  0  0  0  0  0  0
  143.7655   78.7197  222.3447 H   0  0  0  0  0  0  0  0  0  0  0  0
  144.3132   80.6899  223.7573 H   0  0  0  0  0  0  0  0  0  0  0  0
  140.1427   81.5849  224.1989 H   0  0  0  0  0  0  0  0  0  0  0  0
  137.0871   79.1699  221.7634 H   0  0  0  0  0  0  0  0  0  0  0  0
  137.5717   77.7021  220.7340 H   0  0  0  0  0  0  0  0  0  0  0  0
  137.5526   77.1920  223.5498 H   0  0  0  0  0  0  0  0  0  0  0  0
  135.6456   78.6587  223.6282 H   0  0  0  0  0  0  0  0  0  0  0  0
  134.8872   77.7665  222.2735 H   0  0  0  0  0  0  0  0  0  0  0  0
  134.9849   77.1066  225.0950 H   0  0  0  0  0  0  0  0  0  0  0  0
  134.0852   76.3000  223.7427 H   0  0  0  0  0  0  0  0  0  0  0  0
  136.8713   75.7782  224.7382 H   0  0  0  0  0  0  0  0  0  0  0  0
  135.3901   74.6792  224.6689 H   0  0  0  0  0  0  0  0  0  0  0  0
  137.3429   74.3248  223.0353 H   0  0  0  0  0  0  0  0  0  0  0  0
  135.6101   74.2622  222.4909 H   0  0  0  0  0  0  0  0  0  0  0  0
  137.5868   75.7302  221.2462 H   0  0  0  0  0  0  0  0  0  0  0  0
  135.8633   76.0825  221.1202 H   0  0  0  0  0  0  0  0  0  0  0  0
  142.4342   76.8142  220.2323 H   0  0  0  0  0  0  0  0  0  0  0  0
  144.6686   75.9058  219.7182 H   0  0  0  0  0  0  0  0  0  0  0  0
  1  2  1  0
  2  3  2  0
  2  4  2  0
  2  5  1  0
  5  6  2  0
  6  7  1  0
  7  8  2  0
  8  9  1  0
  9 10  2  0
 10 11  1  0
 11 12  2  0
 12 13  1  0
 13 14  2  0
 14 15  1  0
 15 16  2  0
 16 17  1  0
 16 18  1  0
 18 19  2  0
 19 20  1  0
 20 21  2  0
 20 22  1  0
 22 23  1  0
 23 24  1  0
 24 25  1  0
 25 26  1  0
 26 27  1  0
 27 28  1  0
 28 29  1  0
  8 30  1  0
 30 31  2  0
 31  5  1  0
 22 11  1  0
 29 24  1  0
 19 13  1  0
  1 32  1  0
  1 33  1  0
  6 34  1  0
  7 35  1  0
  9 36  1  0
 10 37  1  0
 14 38  1  0
 15 39  1  0
 18 40  1  0
 23 41  1  0
 23 42  1  0
 24 43  1  0
 25 44  1  0
 25 45  1  0
 26 46  1  0
 26 47  1  0
 27 48  1  0
 27 49  1  0
 28 50  1  0
 28 51  1  0
 29 52  1  0
 29 53  1  0
 30 54  1  0
 31 55  1  0
M  END
>  <smiles>  (17) 
NS(=O)(=O)c1ccc(/C=C/c2nc3ccc(F)cc3c(=O)n2CC2CCCCC2)cc1

>  <score_type>  (17) 
oracle

>  <origin>  (17) 
autodockgpu

>  <m_score__min__energy>  (17) 
-9.1300000000000008

>  <m_primary>  (17) 
energy

>  <rmsd>  (17) 
5.857350884099161

>  <m_score__min__rmsd>  (17) 
5.857350884099161

>  <meeko>  (17) 
{"free_energy": -7.97, "intermolecular_energy": -10.05, "internal_energy": -1.47, "cluster_size": 2, "cluster_id": 5, "rank_in_cluster": 2}

>  <energy>  (17) 
-8.62

>  <cluster_rmsd>  (17) 
0.44

>  <cluster>  (17) 
2

$$$$

     RDKit          3D

 55 58  0  0  0  0  0  0  0  0999 V2000
  145.7870   73.3710  218.1000 N   0  0  0  0  0  0  0  0  0  0  0  0
  145.6900   72.8280  219.7220 S   0  0  0  0  0  0  0  0  0  0  0  0
  146.5350   73.7830  220.5430 O   0  0  0  0  0  0  0  0  0  0  0  0
  146.3560   71.4870  219.8630 O   0  0  0  0  0  0  0  0  0  0  0  0
  144.0540   72.8320  220.3320 C   0  0  0  0  0  0  0  0  0  0  0  0
  143.4140   71.6490  220.6590 C   0  0  0  0  0  0  0  0  0  0  0  0
  142.1400   71.6540  221.1350 C   0  0  0  0  0  0  0  0  0  0  0  0
  141.4030   72.8310  221.3210 C   0  0  0  0  0  0  0  0  0  0  0  0
  140.0420   72.7520  221.8350 C   0  0  0  0  0  0  0  0  0  0  0  0
  139.3880   71.6300  222.0350 C   0  0  0  0  0  0  0  0  0  0  0  0
  139.5900   70.8940  223.2760 C   0  0  0  0  0  0  0  0  0  0  0  0
  140.1180   71.5360  224.3340 N   0  0  0  0  0  0  0  0  0  0  0  0
  140.3500   70.9470  225.5070 C   0  0  0  0  0  0  0  0  0  0  0  0
  140.8980   71.6690  226.5580 C   0  0  0  0  0  0  0  0  0  0  0  0
  141.1150   71.0100  227.7440 C   0  0  0  0  0  0  0  0  0  0  0  0
  140.7940   69.6600  227.8810 C   0  0  0  0  0  0  0  0  0  0  0  0
  141.0170   69.0290  229.0620 F   0  0  0  0  0  0  0  0  0  0  0  0
  140.2560   68.9800  226.8230 C   0  0  0  0  0  0  0  0  0  0  0  0
  140.0250   69.6100  225.6220 C   0  0  0  0  0  0  0  0  0  0  0  0
  139.4880   68.9660  224.5370 C   0  0  0  0  0  0  0  0  0  0  0  0
  139.2010   67.7530  224.6640 O   0  0  0  0  0  0  0  0  0  0  0  0
  139.2590   69.5940  223.3450 N   0  0  0  0  0  0  0  0  0  0  0  0
  138.7080   68.8180  222.2940 C   0  0  0  0  0  0  0  0  0  0  0  0
  137.2630   68.4410  222.4030 C   0  0  0  0  0  0  0  0  0  0  0  0
  136.4160   69.3210  223.2460 C   0  0  0  0  0  0  0  0  0  0  0  0
  135.0180   68.7590  223.2790 C   0  0  0  0  0  0  0  0  0  0  0  0
  134.8690   67.5970  222.3610 C   0  0  0  0  0  0  0  0  0  0  0  0
  135.4080   67.7860  220.9790 C   0  0  0  0  0  0  0  0  0  0  0  0
  136.7060   68.5770  220.9710 C   0  0  0  0  0  0  0  0  0  0  0  0
  142.0400   73.9940  220.9960 C   0  0  0  0  0  0  0  0  0  0  0  0
  143.3470   73.9930  220.5090 C   0  0  0  0  0  0  0  0  0  0  0  0
  145.6070   74.4080  218.1250 H   0  0  0  0  0  0  0  0  0  0  0  0
  144.9910   72.9160  217.5820 H   0  0  0  0  0  0  0  0  0  0  0  0
  143.9426   70.6927  220.5323 H   0  0  0  0  0  0  0  0  0  0  0  0
  141.6678   70.6924  221.3847 H   0  0  0  0  0  0  0  0  0  0  0  0
  139.5274   73.6950  222.0715 H   0  0  0  0  0  0  0  0  0  0  0  0
  138.6935   71.2495  221.2715 H   0  0  0  0  0  0  0  0  0  0  0  0
  141.1503   72.7337  226.4452 H   0  0  0  0  0  0  0  0  0  0  0  0
  141.5475   71.5544  228.5964 H   0  0  0  0  0  0  0  0  0  0  0  0
  140.0046   67.9149  226.9340 H   0  0  0  0  0  0  0  0  0  0  0  0
  138.8310   69.3893  221.3621 H   0  0  0  0  0  0  0  0  0  0  0  0
  139.2525   67.8630  222.3329 H   0  0  0  0  0  0  0  0  0  0  0  0
  137.2275   67.4438  222.8660 H   0  0  0  0  0  0  0  0  0  0  0  0
  136.8236   69.3595  224.2670 H   0  0  0  0  0  0  0  0  0  0  0  0
  136.4010   70.3385  222.8284 H   0  0  0  0  0  0  0  0  0  0  0  0
  134.7886   68.4345  224.3047 H   0  0  0  0  0  0  0  0  0  0  0  0
  134.3244   69.5467  222.9498 H   0  0  0  0  0  0  0  0  0  0  0  0
  135.3914   66.7408  222.8128 H   0  0  0  0  0  0  0  0  0  0  0  0
  133.7858   67.4479  222.2413 H   0  0  0  0  0  0  0  0  0  0  0  0
  135.5929   66.7977  220.5329 H   0  0  0  0  0  0  0  0  0  0  0  0
  134.6636   68.3537  220.4014 H   0  0  0  0  0  0  0  0  0  0  0  0
  137.4115   68.1555  220.2398 H   0  0  0  0  0  0  0  0  0  0  0  0
  136.5486   69.6278  220.6861 H   0  0  0  0  0  0  0  0  0  0  0  0
  141.5119   74.9509  221.1207 H   0  0  0  0  0  0  0  0  0  0  0  0
  143.8245   74.9521  220.2596 H   0  0  0  0  0  0  0  0  0  0  0  0
  1  2  1  0
  2  3  2  0
  2  4  2  0
  2  5  1  0
  5  6  2  0
  6  7  1  0
  7  8  2  0
  8  9  1  0
  9 10  2  0
 10 11  1  0
 11 12  2  0
 12 13  1  0
 13 14  2  0
 14 15  1  0
 15 16  2  0
 16 17  1  0
 16 18  1  0
 18 19  2  0
 19 20  1  0
 20 21  2  0
 20 22  1  0
 22 23  1  0
 23 24  1  0
 24 25  1  0
 25 26  1  0
 26 27  1  0
 27 28  1  0
 28 29  1  0
  8 30  1  0
 30 31  2  0
 31  5  1  0
 22 11  1  0
 29 24  1  0
 19 13  1  0
  1 32  1  0
  1 33  1  0
  6 34  1  0
  7 35  1  0
  9 36  1  0
 10 37  1  0
 14 38  1  0
 15 39  1  0
 18 40  1  0
 23 41  1  0
 23 42  1  0
 24 43  1  0
 25 44  1  0
 25 45  1  0
 26 46  1  0
 26 47  1  0
 27 48  1  0
 27 49  1  0
 28 50  1  0
 28 51  1  0
 29 52  1  0
 29 53  1  0
 30 54  1  0
 31 55  1  0
M  END
>  <smiles>  (18) 
NS(=O)(=O)c1ccc(/C=C/c2nc3ccc(F)cc3c(=O)n2CC2CCCCC2)cc1

>  <score_type>  (18) 
oracle

>  <origin>  (18) 
autodockgpu

>  <m_score__min__energy>  (18) 
-9.1300000000000008

>  <m_primary>  (18) 
energy

>  <rmsd>  (18) 
11.269436090792572

>  <m_score__min__rmsd>  (18) 
11.269436090792572

>  <meeko>  (18) 
{"free_energy": -8.56, "intermolecular_energy": -10.65, "internal_energy": -1.46, "cluster_size": 24, "cluster_id": 2, "rank_in_cluster": 13}

>  <energy>  (18) 
-8.57

>  <cluster_rmsd>  (18) 
1.41

>  <cluster>  (18) 
2

$$$$

     RDKit          3D

 55 58  0  0  0  0  0  0  0  0999 V2000
  146.2460   73.0240  221.9110 N   0  0  0  0  0  0  0  0  0  0  0  0
  145.2760   73.4130  220.5530 S   0  0  0  0  0  0  0  0  0  0  0  0
  146.0850   73.0340  219.3270 O   0  0  0  0  0  0  0  0  0  0  0  0
  145.0870   74.9020  220.4570 O   0  0  0  0  0  0  0  0  0  0  0  0
  143.7640   72.5420  220.5400 C   0  0  0  0  0  0  0  0  0  0  0  0
  143.6640   71.2990  219.9390 C   0  0  0  0  0  0  0  0  0  0  0  0
  142.4840   70.6220  219.9310 C   0  0  0  0  0  0  0  0  0  0  0  0
  141.3150   71.1240  220.5160 C   0  0  0  0  0  0  0  0  0  0  0  0
  140.0910   70.3370  220.4650 C   0  0  0  0  0  0  0  0  0  0  0  0
  139.1320   70.3970  221.3620 C   0  0  0  0  0  0  0  0  0  0  0  0
  139.4230   70.0500  222.7470 C   0  0  0  0  0  0  0  0  0  0  0  0
  139.9930   70.9730  223.5420 N   0  0  0  0  0  0  0  0  0  0  0  0
  140.3070   70.7480  224.8170 C   0  0  0  0  0  0  0  0  0  0  0  0
  140.8950   71.7450  225.5820 C   0  0  0  0  0  0  0  0  0  0  0  0
  141.1970   71.4570  226.8910 C   0  0  0  0  0  0  0  0  0  0  0  0
  140.9180   70.2000  227.4280 C   0  0  0  0  0  0  0  0  0  0  0  0
  141.2240   69.9370  228.7240 F   0  0  0  0  0  0  0  0  0  0  0  0
  140.3380   69.2410  226.6440 C   0  0  0  0  0  0  0  0  0  0  0  0
  140.0240   69.4980  225.3300 C   0  0  0  0  0  0  0  0  0  0  0  0
  139.4410   68.5650  224.5100 C   0  0  0  0  0  0  0  0  0  0  0  0
  139.1940   67.4370  224.9960 O   0  0  0  0  0  0  0  0  0  0  0  0
  139.1300   68.8220  223.2050 N   0  0  0  0  0  0  0  0  0  0  0  0
  138.5390   67.7720  222.4560 C   0  0  0  0  0  0  0  0  0  0  0  0
  137.0450   67.7600  222.3510 C   0  0  0  0  0  0  0  0  0  0  0  0
  136.3280   68.8620  223.0380 C   0  0  0  0  0  0  0  0  0  0  0  0
  134.8450   68.6540  222.8680 C   0  0  0  0  0  0  0  0  0  0  0  0
  134.5500   67.5120  221.9600 C   0  0  0  0  0  0  0  0  0  0  0  0
  135.3100   67.4880  220.6740 C   0  0  0  0  0  0  0  0  0  0  0  0
  136.7500   67.9450  220.8480 C   0  0  0  0  0  0  0  0  0  0  0  0
  141.4210   72.3500  221.1080 C   0  0  0  0  0  0  0  0  0  0  0  0
  142.6280   73.0470  221.1190 C   0  0  0  0  0  0  0  0  0  0  0  0
  147.1990   73.4260  221.7160 H   0  0  0  0  0  0  0  0  0  0  0  0
  146.3330   71.9760  221.9280 H   0  0  0  0  0  0  0  0  0  0  0  0
  144.5494   70.8533  219.4621 H   0  0  0  0  0  0  0  0  0  0  0  0
  142.4465   69.6367  219.4434 H   0  0  0  0  0  0  0  0  0  0  0  0
  139.9601   69.6460  219.6192 H   0  0  0  0  0  0  0  0  0  0  0  0
  138.1179   70.7067  221.0694 H   0  0  0  0  0  0  0  0  0  0  0  0
  141.1125   72.7347  225.1540 H   0  0  0  0  0  0  0  0  0  0  0  0
  141.6643   72.2266  227.5230 H   0  0  0  0  0  0  0  0  0  0  0  0
  140.1197   68.2507  227.0703 H   0  0  0  0  0  0  0  0  0  0  0  0
  138.9417   67.8280  221.4339 H   0  0  0  0  0  0  0  0  0  0  0  0
  138.7908   66.8546  223.0083 H   0  0  0  0  0  0  0  0  0  0  0  0
  136.6995   66.8283  222.8228 H   0  0  0  0  0  0  0  0  0  0  0  0
  136.5820   68.8582  224.1083 H   0  0  0  0  0  0  0  0  0  0  0  0
  136.6229   69.8288  222.6039 H   0  0  0  0  0  0  0  0  0  0  0  0
  134.3982   68.4513  223.8525 H   0  0  0  0  0  0  0  0  0  0  0  0
  134.4197   69.5653  222.4223 H   0  0  0  0  0  0  0  0  0  0  0  0
  134.7766   66.5825  222.5029 H   0  0  0  0  0  0  0  0  0  0  0  0
  133.4921   67.6208  221.6788 H   0  0  0  0  0  0  0  0  0  0  0  0
  135.3096   66.4604  220.2816 H   0  0  0  0  0  0  0  0  0  0  0  0
  134.8173   68.1830  219.9781 H   0  0  0  0  0  0  0  0  0  0  0  0
  137.4283   67.3271  220.2413 H   0  0  0  0  0  0  0  0  0  0  0  0
  136.8972   68.9851  220.5216 H   0  0  0  0  0  0  0  0  0  0  0  0
  140.5363   72.7963  221.5856 H   0  0  0  0  0  0  0  0  0  0  0  0
  142.6707   74.0320  221.6069 H   0  0  0  0  0  0  0  0  0  0  0  0
  1  2  1  0
  2  3  2  0
  2  4  2  0
  2  5  1  0
  5  6  2  0
  6  7  1  0
  7  8  2  0
  8  9  1  0
  9 10  2  0
 10 11  1  0
 11 12  2  0
 12 13  1  0
 13 14  2  0
 14 15  1  0
 15 16  2  0
 16 17  1  0
 16 18  1  0
 18 19  2  0
 19 20  1  0
 20 21  2  0
 20 22  1  0
 22 23  1  0
 23 24  1  0
 24 25  1  0
 25 26  1  0
 26 27  1  0
 27 28  1  0
 28 29  1  0
  8 30  1  0
 30 31  2  0
 31  5  1  0
 22 11  1  0
 29 24  1  0
 19 13  1  0
  1 32  1  0
  1 33  1  0
  6 34  1  0
  7 35  1  0
  9 36  1  0
 10 37  1  0
 14 38  1  0
 15 39  1  0
 18 40  1  0
 23 41  1  0
 23 42  1  0
 24 43  1  0
 25 44  1  0
 25 45  1  0
 26 46  1  0
 26 47  1  0
 27 48  1  0
 27 49  1  0
 28 50  1  0
 28 51  1  0
 29 52  1  0
 29 53  1  0
 30 54  1  0
 31 55  1  0
M  END
>  <smiles>  (19) 
NS(=O)(=O)c1ccc(/C=C/c2nc3ccc(F)cc3c(=O)n2CC2CCCCC2)cc1

>  <score_type>  (19) 
oracle

>  <origin>  (19) 
autodockgpu

>  <m_score__min__energy>  (19) 
-9.1300000000000008

>  <m_primary>  (19) 
energy

>  <rmsd>  (19) 
11.294308784990173

>  <m_score__min__rmsd>  (19) 
11.294308784990173

>  <meeko>  (19) 
{"free_energy": -7.61, "intermolecular_energy": -9.7, "internal_energy": -1.61, "cluster_size": 24, "cluster_id": 2, "rank_in_cluster": 24}

>  <energy>  (19) 
-8.57

>  <cluster_rmsd>  (19) 
1.41

>  <cluster>  (19) 
2

$$$$

     RDKit          3D

 55 58  0  0  0  0  0  0  0  0999 V2000
  132.8100   74.2540  227.4510 N   0  0  0  0  0  0  0  0  0  0  0  0
  133.5260   73.1800  226.3240 S   0  0  0  0  0  0  0  0  0  0  0  0
  132.3820   72.5000  225.5960 O   0  0  0  0  0  0  0  0  0  0  0  0
  134.2490   72.0750  227.0440 O   0  0  0  0  0  0  0  0  0  0  0  0
  134.5400   74.0040  225.1670 C   0  0  0  0  0  0  0  0  0  0  0  0
  134.6660   75.3830  225.1860 C   0  0  0  0  0  0  0  0  0  0  0  0
  135.4580   76.0230  224.2840 C   0  0  0  0  0  0  0  0  0  0  0  0
  136.1830   75.3470  223.2950 C   0  0  0  0  0  0  0  0  0  0  0  0
  137.0090   76.1050  222.3650 C   0  0  0  0  0  0  0  0  0  0  0  0
  138.2140   76.5530  222.6380 C   0  0  0  0  0  0  0  0  0  0  0  0
  139.3730   75.8990  222.0440 C   0  0  0  0  0  0  0  0  0  0  0  0
  139.5610   74.5850  222.2630 N   0  0  0  0  0  0  0  0  0  0  0  0
  140.5940   73.9010  221.7730 C   0  0  0  0  0  0  0  0  0  0  0  0
  140.7280   72.5450  222.0380 C   0  0  0  0  0  0  0  0  0  0  0  0
  141.8140   71.8910  221.5070 C   0  0  0  0  0  0  0  0  0  0  0  0
  142.7480   72.5730  220.7280 C   0  0  0  0  0  0  0  0  0  0  0  0
  143.8120   71.9070  220.2130 F   0  0  0  0  0  0  0  0  0  0  0  0
  142.5840   73.9100  220.4880 C   0  0  0  0  0  0  0  0  0  0  0  0
  141.5080   74.5940  221.0050 C   0  0  0  0  0  0  0  0  0  0  0  0
  141.3060   75.9330  220.7880 C   0  0  0  0  0  0  0  0  0  0  0  0
  142.1480   76.5420  220.0880 O   0  0  0  0  0  0  0  0  0  0  0  0
  140.2370   76.6110  221.3020 N   0  0  0  0  0  0  0  0  0  0  0  0
  140.1440   77.9970  221.0160 C   0  0  0  0  0  0  0  0  0  0  0  0
  141.1160   78.9070  221.7030 C   0  0  0  0  0  0  0  0  0  0  0  0
  140.8770   80.3630  221.5460 C   0  0  0  0  0  0  0  0  0  0  0  0
  141.9770   81.1110  222.2550 C   0  0  0  0  0  0  0  0  0  0  0  0
  142.8740   80.1920  223.0070 C   0  0  0  0  0  0  0  0  0  0  0  0
  142.1930   79.1730  223.8630 C   0  0  0  0  0  0  0  0  0  0  0  0
  140.9390   78.6160  223.2070 C   0  0  0  0  0  0  0  0  0  0  0  0
  136.0550   73.9870  223.2820 C   0  0  0  0  0  0  0  0  0  0  0  0
  135.2450   73.3270  224.2060 C   0  0  0  0  0  0  0  0  0  0  0  0
  133.4930   75.0430  227.5800 H   0  0  0  0  0  0  0  0  0  0  0  0
  132.7420   73.7310  228.3630 H   0  0  0  0  0  0  0  0  0  0  0  0
  134.1189   75.9681  225.9399 H   0  0  0  0  0  0  0  0  0  0  0  0
  135.5321   77.1194  224.3337 H   0  0  0  0  0  0  0  0  0  0  0  0
  136.5966   76.3166  221.3674 H   0  0  0  0  0  0  0  0  0  0  0  0
  138.3466   77.4143  223.3092 H   0  0  0  0  0  0  0  0  0  0  0  0
  139.9888   72.0110  222.6532 H   0  0  0  0  0  0  0  0  0  0  0  0
  141.9480   70.8162  221.6990 H   0  0  0  0  0  0  0  0  0  0  0  0
  143.3226   74.4454  219.8733 H   0  0  0  0  0  0  0  0  0  0  0  0
  140.2847   78.1209  219.9321 H   0  0  0  0  0  0  0  0  0  0  0  0
  139.1571   78.2984  221.3970 H   0  0  0  0  0  0  0  0  0  0  0  0
  142.1047   78.7090  221.2635 H   0  0  0  0  0  0  0  0  0  0  0  0
  140.8793   80.6257  220.4778 H   0  0  0  0  0  0  0  0  0  0  0  0
  139.9015   80.6320  221.9774 H   0  0  0  0  0  0  0  0  0  0  0  0
  142.5724   81.6592  221.5100 H   0  0  0  0  0  0  0  0  0  0  0  0
  141.5126   81.8009  222.9750 H   0  0  0  0  0  0  0  0  0  0  0  0
  143.4975   79.6562  222.2761 H   0  0  0  0  0  0  0  0  0  0  0  0
  143.4432   80.8304  223.6987 H   0  0  0  0  0  0  0  0  0  0  0  0
  142.8919   78.3447  224.0513 H   0  0  0  0  0  0  0  0  0  0  0  0
  141.8933   79.6654  224.7999 H   0  0  0  0  0  0  0  0  0  0  0  0
  140.8573   77.5336  223.3849 H   0  0  0  0  0  0  0  0  0  0  0  0
  140.0228   79.0705  223.6119 H   0  0  0  0  0  0  0  0  0  0  0  0
  136.6013   73.4010  222.5282 H   0  0  0  0  0  0  0  0  0  0  0  0
  135.1697   72.2305  224.1622 H   0  0  0  0  0  0  0  0  0  0  0  0
  1  2  1  0
  2  3  2  0
  2  4  2  0
  2  5  1  0
  5  6  2  0
  6  7  1  0
  7  8  2  0
  8  9  1  0
  9 10  2  0
 10 11  1  0
 11 12  2  0
 12 13  1  0
 13 14  2  0
 14 15  1  0
 15 16  2  0
 16 17  1  0
 16 18  1  0
 18 19  2  0
 19 20  1  0
 20 21  2  0
 20 22  1  0
 22 23  1  0
 23 24  1  0
 24 25  1  0
 25 26  1  0
 26 27  1  0
 27 28  1  0
 28 29  1  0
  8 30  1  0
 30 31  2  0
 31  5  1  0
 22 11  1  0
 29 24  1  0
 19 13  1  0
  1 32  1  0
  1 33  1  0
  6 34  1  0
  7 35  1  0
  9 36  1  0
 10 37  1  0
 14 38  1  0
 15 39  1  0
 18 40  1  0
 23 41  1  0
 23 42  1  0
 24 43  1  0
 25 44  1  0
 25 45  1  0
 26 46  1  0
 26 47  1  0
 27 48  1  0
 27 49  1  0
 28 50  1  0
 28 51  1  0
 29 52  1  0
 29 53  1  0
 30 54  1  0
 31 55  1  0
M  END
>  <smiles>  (20) 
NS(=O)(=O)c1ccc(/C=C/c2nc3ccc(F)cc3c(=O)n2CC2CCCCC2)cc1

>  <score_type>  (20) 
oracle

>  <origin>  (20) 
autodockgpu

>  <m_score__min__energy>  (20) 
-9.1300000000000008

>  <m_primary>  (20) 
energy

>  <rmsd>  (20) 
7.108785375984389

>  <m_score__min__rmsd>  (20) 
7.108785375984389

>  <meeko>  (20) 
{"free_energy": -8.05, "intermolecular_energy": -10.14, "internal_energy": -1.36, "cluster_size": 4, "cluster_id": 4, "rank_in_cluster": 4}

>  <energy>  (20) 
-8.56

>  <cluster_rmsd>  (20) 
0.47

>  <cluster>  (20) 
2

$$$$

     RDKit          3D

 55 58  0  0  0  0  0  0  0  0999 V2000
  146.0980   73.3360  217.8270 N   0  0  0  0  0  0  0  0  0  0  0  0
  145.9250   72.9420  219.4850 S   0  0  0  0  0  0  0  0  0  0  0  0
  146.9500   73.7730  220.2320 O   0  0  0  0  0  0  0  0  0  0  0  0
  146.3240   71.5120  219.7260 O   0  0  0  0  0  0  0  0  0  0  0  0
  144.3300   73.3050  220.0960 C   0  0  0  0  0  0  0  0  0  0  0  0
  143.9370   74.6120  220.3270 C   0  0  0  0  0  0  0  0  0  0  0  0
  142.6940   74.8920  220.8020 C   0  0  0  0  0  0  0  0  0  0  0  0
  141.7470   73.9000  221.0840 C   0  0  0  0  0  0  0  0  0  0  0  0
  140.4360   74.2820  221.5920 C   0  0  0  0  0  0  0  0  0  0  0  0
  139.7030   75.2550  221.0960 C   0  0  0  0  0  0  0  0  0  0  0  0
  140.2000   76.6230  221.1440 C   0  0  0  0  0  0  0  0  0  0  0  0
  140.3700   77.2120  222.3420 N   0  0  0  0  0  0  0  0  0  0  0  0
  140.8090   78.4610  222.4880 C   0  0  0  0  0  0  0  0  0  0  0  0
  140.9610   79.0080  223.7550 C   0  0  0  0  0  0  0  0  0  0  0  0
  141.4180   80.3010  223.8450 C   0  0  0  0  0  0  0  0  0  0  0  0
  141.7170   81.0350  222.6980 C   0  0  0  0  0  0  0  0  0  0  0  0
  142.1660   82.3110  222.8110 F   0  0  0  0  0  0  0  0  0  0  0  0
  141.5540   80.4640  221.4650 C   0  0  0  0  0  0  0  0  0  0  0  0
  141.0990   79.1720  221.3400 C   0  0  0  0  0  0  0  0  0  0  0  0
  140.9220   78.5610  220.1250 C   0  0  0  0  0  0  0  0  0  0  0  0
  141.1910   79.2250  219.0970 O   0  0  0  0  0  0  0  0  0  0  0  0
  140.4710   77.2780  220.0030 N   0  0  0  0  0  0  0  0  0  0  0  0
  140.3190   76.7610  218.6900 C   0  0  0  0  0  0  0  0  0  0  0  0
  141.5260   76.1440  218.0520 C   0  0  0  0  0  0  0  0  0  0  0  0
  141.3020   74.8780  217.3110 C   0  0  0  0  0  0  0  0  0  0  0  0
  142.6270   74.3840  216.7880 C   0  0  0  0  0  0  0  0  0  0  0  0
  143.7190   75.3640  217.0400 C   0  0  0  0  0  0  0  0  0  0  0  0
  143.4200   76.7810  216.6730 C   0  0  0  0  0  0  0  0  0  0  0  0
  141.9860   77.1690  216.9950 C   0  0  0  0  0  0  0  0  0  0  0  0
  142.1400   72.6130  220.8540 C   0  0  0  0  0  0  0  0  0  0  0  0
  143.4140   72.3210  220.3660 C   0  0  0  0  0  0  0  0  0  0  0  0
  146.0290   74.3840  217.7650 H   0  0  0  0  0  0  0  0  0  0  0  0
  145.2650   72.9250  217.3310 H   0  0  0  0  0  0  0  0  0  0  0  0
  144.6388   75.4343  220.1238 H   0  0  0  0  0  0  0  0  0  0  0  0
  142.4205   75.9438  220.9721 H   0  0  0  0  0  0  0  0  0  0  0  0
  140.0325   73.7195  222.4469 H   0  0  0  0  0  0  0  0  0  0  0  0
  138.7221   75.0371  220.6484 H   0  0  0  0  0  0  0  0  0  0  0  0
  140.7234   78.4255  224.6574 H   0  0  0  0  0  0  0  0  0  0  0  0
  141.5496   80.7627  224.8347 H   0  0  0  0  0  0  0  0  0  0  0  0
  141.7900   81.0460  220.5619 H   0  0  0  0  0  0  0  0  0  0  0  0
  139.5342   75.9911  218.7265 H   0  0  0  0  0  0  0  0  0  0  0  0
  140.0856   77.6365  218.0663 H   0  0  0  0  0  0  0  0  0  0  0  0
  142.2298   75.9054  218.8630 H   0  0  0  0  0  0  0  0  0  0  0  0
  140.8666   74.1261  217.9856 H   0  0  0  0  0  0  0  0  0  0  0  0
  140.6092   75.0507  216.4742 H   0  0  0  0  0  0  0  0  0  0  0  0
  142.8764   73.4363  217.2876 H   0  0  0  0  0  0  0  0  0  0  0  0
  142.5358   74.2447  215.7007 H   0  0  0  0  0  0  0  0  0  0  0  0
  143.9557   75.3365  218.1139 H   0  0  0  0  0  0  0  0  0  0  0  0
  144.5513   75.0568  216.3897 H   0  0  0  0  0  0  0  0  0  0  0  0
  144.0993   77.4420  217.2311 H   0  0  0  0  0  0  0  0  0  0  0  0
  143.5614   76.8848  215.5871 H   0  0  0  0  0  0  0  0  0  0  0  0
  141.9432   78.1902  217.4017 H   0  0  0  0  0  0  0  0  0  0  0  0
  141.3438   77.1599  216.1020 H   0  0  0  0  0  0  0  0  0  0  0  0
  141.4387   71.7903  221.0574 H   0  0  0  0  0  0  0  0  0  0  0  0
  143.6917   71.2708  220.1928 H   0  0  0  0  0  0  0  0  0  0  0  0
  1  2  1  0
  2  3  2  0
  2  4  2  0
  2  5  1  0
  5  6  2  0
  6  7  1  0
  7  8  2  0
  8  9  1  0
  9 10  2  0
 10 11  1  0
 11 12  2  0
 12 13  1  0
 13 14  2  0
 14 15  1  0
 15 16  2  0
 16 17  1  0
 16 18  1  0
 18 19  2  0
 19 20  1  0
 20 21  2  0
 20 22  1  0
 22 23  1  0
 23 24  1  0
 24 25  1  0
 25 26  1  0
 26 27  1  0
 27 28  1  0
 28 29  1  0
  8 30  1  0
 30 31  2  0
 31  5  1  0
 22 11  1  0
 29 24  1  0
 19 13  1  0
  1 32  1  0
  1 33  1  0
  6 34  1  0
  7 35  1  0
  9 36  1  0
 10 37  1  0
 14 38  1  0
 15 39  1  0
 18 40  1  0
 23 41  1  0
 23 42  1  0
 24 43  1  0
 25 44  1  0
 25 45  1  0
 26 46  1  0
 26 47  1  0
 27 48  1  0
 27 49  1  0
 28 50  1  0
 28 51  1  0
 29 52  1  0
 29 53  1  0
 30 54  1  0
 31 55  1  0
M  END
>  <smiles>  (21) 
NS(=O)(=O)c1ccc(/C=C/c2nc3ccc(F)cc3c(=O)n2CC2CCCCC2)cc1

>  <score_type>  (21) 
oracle

>  <origin>  (21) 
autodockgpu

>  <m_score__min__energy>  (21) 
-9.1300000000000008

>  <m_primary>  (21) 
energy

>  <rmsd>  (21) 
3.548041779911213

>  <m_score__min__rmsd>  (21) 
3.548041779911213

>  <meeko>  (21) 
{"free_energy": -6.96, "intermolecular_energy": -9.05, "internal_energy": -2.45, "cluster_size": 1, "cluster_id": 10, "rank_in_cluster": 1}

>  <energy>  (21) 
-8.47

>  <cluster_rmsd>  (21) 
1.36

>  <cluster>  (21) 
2

$$$$

     RDKit          3D

 55 58  0  0  0  0  0  0  0  0999 V2000
  145.7230   73.3790  218.0170 N   0  0  0  0  0  0  0  0  0  0  0  0
  145.6900   72.8150  219.6340 S   0  0  0  0  0  0  0  0  0  0  0  0
  146.6080   73.7290  220.4240 O   0  0  0  0  0  0  0  0  0  0  0  0
  146.3180   71.4510  219.7230 O   0  0  0  0  0  0  0  0  0  0  0  0
  144.0890   72.8630  220.3270 C   0  0  0  0  0  0  0  0  0  0  0  0
  143.4610   71.7040  220.7500 C   0  0  0  0  0  0  0  0  0  0  0  0
  142.2140   71.7440  221.2900 C   0  0  0  0  0  0  0  0  0  0  0  0
  141.4930   72.9340  221.4520 C   0  0  0  0  0  0  0  0  0  0  0  0
  140.1610   72.8930  222.0380 C   0  0  0  0  0  0  0  0  0  0  0  0
  139.4490   71.7970  222.1890 C   0  0  0  0  0  0  0  0  0  0  0  0
  139.6190   70.9930  223.3920 C   0  0  0  0  0  0  0  0  0  0  0  0
  140.1300   71.5700  224.4940 N   0  0  0  0  0  0  0  0  0  0  0  0
  140.3320   70.9160  225.6370 C   0  0  0  0  0  0  0  0  0  0  0  0
  140.8640   71.5730  226.7370 C   0  0  0  0  0  0  0  0  0  0  0  0
  141.0510   70.8480  227.8900 C   0  0  0  0  0  0  0  0  0  0  0  0
  140.7140   69.4960  227.9450 C   0  0  0  0  0  0  0  0  0  0  0  0
  140.9070   68.7990  229.0940 F   0  0  0  0  0  0  0  0  0  0  0  0
  140.1920   68.8800  226.8410 C   0  0  0  0  0  0  0  0  0  0  0  0
  139.9930   69.5780  225.6720 C   0  0  0  0  0  0  0  0  0  0  0  0
  139.4720   69.0000  224.5420 C   0  0  0  0  0  0  0  0  0  0  0  0
  139.1720   67.7850  224.5970 O   0  0  0  0  0  0  0  0  0  0  0  0
  139.2750   69.6940  223.3820 N   0  0  0  0  0  0  0  0  0  0  0  0
  138.7390   68.9830  222.2780 C   0  0  0  0  0  0  0  0  0  0  0  0
  139.7090   68.4460  221.2710 C   0  0  0  0  0  0  0  0  0  0  0  0
  139.4720   67.0580  220.8040 C   0  0  0  0  0  0  0  0  0  0  0  0
  140.5690   66.6780  219.8430 C   0  0  0  0  0  0  0  0  0  0  0  0
  141.4620   67.8300  219.5420 C   0  0  0  0  0  0  0  0  0  0  0  0
  140.7760   69.1120  219.1940 C   0  0  0  0  0  0  0  0  0  0  0  0
  139.5250   69.3400  220.0270 C   0  0  0  0  0  0  0  0  0  0  0  0
  142.1180   74.0740  221.0330 C   0  0  0  0  0  0  0  0  0  0  0  0
  143.3970   74.0370  220.4790 C   0  0  0  0  0  0  0  0  0  0  0  0
  145.8700   74.4200  218.0710 H   0  0  0  0  0  0  0  0  0  0  0  0
  144.7640   73.2070  217.6180 H   0  0  0  0  0  0  0  0  0  0  0  0
  143.9777   70.7383  220.6479 H   0  0  0  0  0  0  0  0  0  0  0  0
  141.7508   70.8003  221.6140 H   0  0  0  0  0  0  0  0  0  0  0  0
  139.7203   73.8420  222.3773 H   0  0  0  0  0  0  0  0  0  0  0  0
  138.7315   71.4903  221.4136 H   0  0  0  0  0  0  0  0  0  0  0  0
  141.1277   72.6398  226.6882 H   0  0  0  0  0  0  0  0  0  0  0  0
  141.4713   71.3401  228.7795 H   0  0  0  0  0  0  0  0  0  0  0  0
  139.9280   67.8132  226.8882 H   0  0  0  0  0  0  0  0  0  0  0  0
  138.1718   68.1297  222.6783 H   0  0  0  0  0  0  0  0  0  0  0  0
  138.1416   69.7246  221.7274 H   0  0  0  0  0  0  0  0  0  0  0  0
  140.6990   68.4435  221.7504 H   0  0  0  0  0  0  0  0  0  0  0  0
  139.4789   66.3719  221.6638 H   0  0  0  0  0  0  0  0  0  0  0  0
  138.4951   66.9927  220.3027 H   0  0  0  0  0  0  0  0  0  0  0  0
  141.1679   65.8696  220.2876 H   0  0  0  0  0  0  0  0  0  0  0  0
  140.1021   66.3516  218.9020 H   0  0  0  0  0  0  0  0  0  0  0  0
  142.0881   68.0120  220.4279 H   0  0  0  0  0  0  0  0  0  0  0  0
  142.0291   67.5417  218.6446 H   0  0  0  0  0  0  0  0  0  0  0  0
  141.4733   69.9449  219.3672 H   0  0  0  0  0  0  0  0  0  0  0  0
  140.4724   69.0560  218.1382 H   0  0  0  0  0  0  0  0  0  0  0  0
  139.4416   70.3973  220.3189 H   0  0  0  0  0  0  0  0  0  0  0  0
  138.6073   69.0945  219.4723 H   0  0  0  0  0  0  0  0  0  0  0  0
  141.6022   75.0402  221.1346 H   0  0  0  0  0  0  0  0  0  0  0  0
  143.8650   74.9780  220.1541 H   0  0  0  0  0  0  0  0  0  0  0  0
  1  2  1  0
  2  3  2  0
  2  4  2  0
  2  5  1  0
  5  6  2  0
  6  7  1  0
  7  8  2  0
  8  9  1  0
  9 10  2  0
 10 11  1  0
 11 12  2  0
 12 13  1  0
 13 14  2  0
 14 15  1  0
 15 16  2  0
 16 17  1  0
 16 18  1  0
 18 19  2  0
 19 20  1  0
 20 21  2  0
 20 22  1  0
 22 23  1  0
 23 24  1  0
 24 25  1  0
 25 26  1  0
 26 27  1  0
 27 28  1  0
 28 29  1  0
  8 30  1  0
 30 31  2  0
 31  5  1  0
 22 11  1  0
 29 24  1  0
 19 13  1  0
  1 32  1  0
  1 33  1  0
  6 34  1  0
  7 35  1  0
  9 36  1  0
 10 37  1  0
 14 38  1  0
 15 39  1  0
 18 40  1  0
 23 41  1  0
 23 42  1  0
 24 43  1  0
 25 44  1  0
 25 45  1  0
 26 46  1  0
 26 47  1  0
 27 48  1  0
 27 49  1  0
 28 50  1  0
 28 51  1  0
 29 52  1  0
 29 53  1  0
 30 54  1  0
 31 55  1  0
M  END
>  <smiles>  (22) 
NS(=O)(=O)c1ccc(/C=C/c2nc3ccc(F)cc3c(=O)n2CC2CCCCC2)cc1

>  <score_type>  (22) 
oracle

>  <origin>  (22) 
autodockgpu

>  <m_score__min__energy>  (22) 
-9.1300000000000008

>  <m_primary>  (22) 
energy

>  <rmsd>  (22) 
11.00201178832132

>  <m_score__min__rmsd>  (22) 
11.00201178832132

>  <meeko>  (22) 
{"free_energy": -8.69, "intermolecular_energy": -10.78, "internal_energy": -1.82, "cluster_size": 24, "cluster_id": 2, "rank_in_cluster": 9}

>  <energy>  (22) 
-8.45

>  <cluster_rmsd>  (22) 
0.49

>  <cluster>  (22) 
2

$$$$

     RDKit          3D

 55 58  0  0  0  0  0  0  0  0999 V2000
  142.1990   78.4730  220.9270 N   0  0  0  0  0  0  0  0  0  0  0  0
  140.8560   78.2710  221.9720 S   0  0  0  0  0  0  0  0  0  0  0  0
  139.7740   79.2040  221.4640 O   0  0  0  0  0  0  0  0  0  0  0  0
  141.1910   78.7670  223.3530 O   0  0  0  0  0  0  0  0  0  0  0  0
  140.2520   76.6330  221.9760 C   0  0  0  0  0  0  0  0  0  0  0  0
  141.0750   75.5710  221.6410 C   0  0  0  0  0  0  0  0  0  0  0  0
  140.6030   74.2960  221.6450 C   0  0  0  0  0  0  0  0  0  0  0  0
  139.2810   73.9750  221.9810 C   0  0  0  0  0  0  0  0  0  0  0  0
  138.8520   72.5840  221.9600 C   0  0  0  0  0  0  0  0  0  0  0  0
  139.6670   71.5540  222.0240 C   0  0  0  0  0  0  0  0  0  0  0  0
  139.7740   70.8000  223.2650 C   0  0  0  0  0  0  0  0  0  0  0  0
  140.2830   71.4060  224.3530 N   0  0  0  0  0  0  0  0  0  0  0  0
  140.4300   70.7970  225.5290 C   0  0  0  0  0  0  0  0  0  0  0  0
  140.9630   71.4820  226.6120 C   0  0  0  0  0  0  0  0  0  0  0  0
  141.0920   70.8040  227.8000 C   0  0  0  0  0  0  0  0  0  0  0  0
  140.6980   69.4700  227.9080 C   0  0  0  0  0  0  0  0  0  0  0  0
  140.8340   68.8200  229.0920 F   0  0  0  0  0  0  0  0  0  0  0  0
  140.1770   68.8260  226.8190 C   0  0  0  0  0  0  0  0  0  0  0  0
  140.0350   69.4770  225.6150 C   0  0  0  0  0  0  0  0  0  0  0  0
  139.5170   68.8690  224.5000 C   0  0  0  0  0  0  0  0  0  0  0  0
  139.1660   67.6710  224.6010 O   0  0  0  0  0  0  0  0  0  0  0  0
  139.3770   69.5170  223.3060 N   0  0  0  0  0  0  0  0  0  0  0  0
  138.8380   68.7780  222.2220 C   0  0  0  0  0  0  0  0  0  0  0  0
  137.3520   68.8180  222.0340 C   0  0  0  0  0  0  0  0  0  0  0  0
  136.6610   67.5070  221.9710 C   0  0  0  0  0  0  0  0  0  0  0  0
  135.1930   67.7460  221.7280 C   0  0  0  0  0  0  0  0  0  0  0  0
  134.8560   69.1950  221.7680 C   0  0  0  0  0  0  0  0  0  0  0  0
  135.4050   69.9590  222.9290 C   0  0  0  0  0  0  0  0  0  0  0  0
  136.8100   69.5130  223.3000 C   0  0  0  0  0  0  0  0  0  0  0  0
  138.4750   75.0270  222.3110 C   0  0  0  0  0  0  0  0  0  0  0  0
  138.9560   76.3360  222.3090 C   0  0  0  0  0  0  0  0  0  0  0  0
  142.8520   77.6740  221.1290 H   0  0  0  0  0  0  0  0  0  0  0  0
  142.6760   79.3640  221.2200 H   0  0  0  0  0  0  0  0  0  0  0  0
  142.1235   75.7613  221.3683 H   0  0  0  0  0  0  0  0  0  0  0  0
  141.2891   73.4805  221.3725 H   0  0  0  0  0  0  0  0  0  0  0  0
  137.7735   72.3809  221.8856 H   0  0  0  0  0  0  0  0  0  0  0  0
  140.2635   71.2642  221.1464 H   0  0  0  0  0  0  0  0  0  0  0  0
  141.2722   72.5338  226.5221 H   0  0  0  0  0  0  0  0  0  0  0  0
  141.5111   71.3193  228.6768 H   0  0  0  0  0  0  0  0  0  0  0  0
  139.8676   67.7741  226.9071 H   0  0  0  0  0  0  0  0  0  0  0  0
  139.2981   69.1616  221.2994 H   0  0  0  0  0  0  0  0  0  0  0  0
  139.0647   67.7274  222.4563 H   0  0  0  0  0  0  0  0  0  0  0  0
  137.1654   69.3098  221.0679 H   0  0  0  0  0  0  0  0  0  0  0  0
  137.0794   66.9071  221.1493 H   0  0  0  0  0  0  0  0  0  0  0  0
  136.8008   66.9637  222.9172 H   0  0  0  0  0  0  0  0  0  0  0  0
  134.9257   67.3452  220.7391 H   0  0  0  0  0  0  0  0  0  0  0  0
  134.6274   67.2408  222.5248 H   0  0  0  0  0  0  0  0  0  0  0  0
  135.2421   69.6568  220.8473 H   0  0  0  0  0  0  0  0  0  0  0  0
  133.7617   69.2443  221.8687 H   0  0  0  0  0  0  0  0  0  0  0  0
  135.4300   71.0276  222.6694 H   0  0  0  0  0  0  0  0  0  0  0  0
  134.7526   69.7712  223.7945 H   0  0  0  0  0  0  0  0  0  0  0  0
  137.4344   70.3795  223.5634 H   0  0  0  0  0  0  0  0  0  0  0  0
  136.8156   68.8452  224.1741 H   0  0  0  0  0  0  0  0  0  0  0  0
  137.4262   74.8382  222.5836 H   0  0  0  0  0  0  0  0  0  0  0  0
  138.2747   77.1550  222.5830 H   0  0  0  0  0  0  0  0  0  0  0  0
  1  2  1  0
  2  3  2  0
  2  4  2  0
  2  5  1  0
  5  6  2  0
  6  7  1  0
  7  8  2  0
  8  9  1  0
  9 10  2  0
 10 11  1  0
 11 12  2  0
 12 13  1  0
 13 14  2  0
 14 15  1  0
 15 16  2  0
 16 17  1  0
 16 18  1  0
 18 19  2  0
 19 20  1  0
 20 21  2  0
 20 22  1  0
 22 23  1  0
 23 24  1  0
 24 25  1  0
 25 26  1  0
 26 27  1  0
 27 28  1  0
 28 29  1  0
  8 30  1  0
 30 31  2  0
 31  5  1  0
 22 11  1  0
 29 24  1  0
 19 13  1  0
  1 32  1  0
  1 33  1  0
  6 34  1  0
  7 35  1  0
  9 36  1  0
 10 37  1  0
 14 38  1  0
 15 39  1  0
 18 40  1  0
 23 41  1  0
 23 42  1  0
 24 43  1  0
 25 44  1  0
 25 45  1  0
 26 46  1  0
 26 47  1  0
 27 48  1  0
 27 49  1  0
 28 50  1  0
 28 51  1  0
 29 52  1  0
 29 53  1  0
 30 54  1  0
 31 55  1  0
M  END
>  <smiles>  (23) 
NS(=O)(=O)c1ccc(/C=C/c2nc3ccc(F)cc3c(=O)n2CC2CCCCC2)cc1

>  <score_type>  (23) 
oracle

>  <origin>  (23) 
autodockgpu

>  <m_score__min__energy>  (23) 
-9.1300000000000008

>  <m_primary>  (23) 
energy

>  <rmsd>  (23) 
11.191325686946481

>  <m_score__min__rmsd>  (23) 
11.191325686946481

>  <meeko>  (23) 
{"free_energy": -7.89, "intermolecular_energy": -9.98, "internal_energy": -1.4, "cluster_size": 1, "cluster_id": 7, "rank_in_cluster": 1}

>  <energy>  (23) 
-8.42

>  <cluster_rmsd>  (23) 
1.72

>  <cluster>  (23) 
2

$$$$

     RDKit          3D

 55 58  0  0  0  0  0  0  0  0999 V2000
  145.1480   73.9610  217.6020 N   0  0  0  0  0  0  0  0  0  0  0  0
  145.2330   72.9230  218.9630 S   0  0  0  0  0  0  0  0  0  0  0  0
  146.3960   73.4150  219.8030 O   0  0  0  0  0  0  0  0  0  0  0  0
  145.6150   71.5320  218.5340 O   0  0  0  0  0  0  0  0  0  0  0  0
  143.7730   72.9530  219.9190 C   0  0  0  0  0  0  0  0  0  0  0  0
  143.2580   71.7910  220.4690 C   0  0  0  0  0  0  0  0  0  0  0  0
  142.1210   71.8170  221.2140 C   0  0  0  0  0  0  0  0  0  0  0  0
  141.4080   72.9950  221.4720 C   0  0  0  0  0  0  0  0  0  0  0  0
  140.1970   72.9390  222.2790 C   0  0  0  0  0  0  0  0  0  0  0  0
  139.4310   71.8770  222.3960 C   0  0  0  0  0  0  0  0  0  0  0  0
  139.5910   71.0010  223.5490 C   0  0  0  0  0  0  0  0  0  0  0  0
  140.1180   71.5040  224.6800 N   0  0  0  0  0  0  0  0  0  0  0  0
  140.3130   70.7810  225.7820 C   0  0  0  0  0  0  0  0  0  0  0  0
  140.8620   71.3640  226.9160 C   0  0  0  0  0  0  0  0  0  0  0  0
  141.0410   70.5700  228.0230 C   0  0  0  0  0  0  0  0  0  0  0  0
  140.6790   69.2230  228.0030 C   0  0  0  0  0  0  0  0  0  0  0  0
  140.8650   68.4580  229.1080 F   0  0  0  0  0  0  0  0  0  0  0  0
  140.1410   68.6820  226.8670 C   0  0  0  0  0  0  0  0  0  0  0  0
  139.9500   69.4500  225.7420 C   0  0  0  0  0  0  0  0  0  0  0  0
  139.4130   68.9480  224.5830 C   0  0  0  0  0  0  0  0  0  0  0  0
  139.0900   67.7370  224.5690 O   0  0  0  0  0  0  0  0  0  0  0  0
  139.2230   69.7120  223.4670 N   0  0  0  0  0  0  0  0  0  0  0  0
  138.6690   69.0750  222.3270 C   0  0  0  0  0  0  0  0  0  0  0  0
  139.6260   68.5150  221.3200 C   0  0  0  0  0  0  0  0  0  0  0  0
  139.3100   67.1640  220.7930 C   0  0  0  0  0  0  0  0  0  0  0  0
  140.4030   66.7490  219.8420 C   0  0  0  0  0  0  0  0  0  0  0  0
  141.3770   67.8500  219.6070 C   0  0  0  0  0  0  0  0  0  0  0  0
  140.7860   69.1870  219.2960 C   0  0  0  0  0  0  0  0  0  0  0  0
  139.5330   69.4660  220.1090 C   0  0  0  0  0  0  0  0  0  0  0  0
  141.9210   74.1370  220.9270 C   0  0  0  0  0  0  0  0  0  0  0  0
  143.0870   74.1150  220.1630 C   0  0  0  0  0  0  0  0  0  0  0  0
  146.1410   74.1260  217.2960 H   0  0  0  0  0  0  0  0  0  0  0  0
  144.7570   74.8760  217.9460 H   0  0  0  0  0  0  0  0  0  0  0  0
  143.7754   70.8349  220.3009 H   0  0  0  0  0  0  0  0  0  0  0  0
  141.7445   70.8719  221.6324 H   0  0  0  0  0  0  0  0  0  0  0  0
  139.9035   73.8462  222.8275 H   0  0  0  0  0  0  0  0  0  0  0  0
  138.6751   71.6516  221.6293 H   0  0  0  0  0  0  0  0  0  0  0  0
  141.1445   72.4270  226.9279 H   0  0  0  0  0  0  0  0  0  0  0  0
  141.4753   71.0020  228.9366 H   0  0  0  0  0  0  0  0  0  0  0  0
  139.8576   67.6192  226.8534 H   0  0  0  0  0  0  0  0  0  0  0  0
  138.0421   68.2448  222.6844 H   0  0  0  0  0  0  0  0  0  0  0  0
  138.1305   69.8713  221.7924 H   0  0  0  0  0  0  0  0  0  0  0  0
  140.6018   68.4293  221.8205 H   0  0  0  0  0  0  0  0  0  0  0  0
  139.2509   66.4466  221.6248 H   0  0  0  0  0  0  0  0  0  0  0  0
  138.3435   67.1829  220.2682 H   0  0  0  0  0  0  0  0  0  0  0  0
  140.9365   65.8860  220.2671 H   0  0  0  0  0  0  0  0  0  0  0  0
  139.9390   66.4907  218.8787 H   0  0  0  0  0  0  0  0  0  0  0  0
  141.9919   67.9555  220.5129 H   0  0  0  0  0  0  0  0  0  0  0  0
  141.9454   67.5594  218.7112 H   0  0  0  0  0  0  0  0  0  0  0  0
  141.5322   69.9641  219.5180 H   0  0  0  0  0  0  0  0  0  0  0  0
  140.5055   69.1921  218.2324 H   0  0  0  0  0  0  0  0  0  0  0  0
  139.5125   70.5145  220.4409 H   0  0  0  0  0  0  0  0  0  0  0  0
  138.6154   69.3038  219.5245 H   0  0  0  0  0  0  0  0  0  0  0  0
  141.4040   75.0935  221.0941 H   0  0  0  0  0  0  0  0  0  0  0  0
  143.4680   75.0578  219.7435 H   0  0  0  0  0  0  0  0  0  0  0  0
  1  2  1  0
  2  3  2  0
  2  4  2  0
  2  5  1  0
  5  6  2  0
  6  7  1  0
  7  8  2  0
  8  9  1  0
  9 10  2  0
 10 11  1  0
 11 12  2  0
 12 13  1  0
 13 14  2  0
 14 15  1  0
 15 16  2  0
 16 17  1  0
 16 18  1  0
 18 19  2  0
 19 20  1  0
 20 21  2  0
 20 22  1  0
 22 23  1  0
 23 24  1  0
 24 25  1  0
 25 26  1  0
 26 27  1  0
 27 28  1  0
 28 29  1  0
  8 30  1  0
 30 31  2  0
 31  5  1  0
 22 11  1  0
 29 24  1  0
 19 13  1  0
  1 32  1  0
  1 33  1  0
  6 34  1  0
  7 35  1  0
  9 36  1  0
 10 37  1  0
 14 38  1  0
 15 39  1  0
 18 40  1  0
 23 41  1  0
 23 42  1  0
 24 43  1  0
 25 44  1  0
 25 45  1  0
 26 46  1  0
 26 47  1  0
 27 48  1  0
 27 49  1  0
 28 50  1  0
 28 51  1  0
 29 52  1  0
 29 53  1  0
 30 54  1  0
 31 55  1  0
M  END
>  <smiles>  (24) 
NS(=O)(=O)c1ccc(/C=C/c2nc3ccc(F)cc3c(=O)n2CC2CCCCC2)cc1

>  <score_type>  (24) 
oracle

>  <origin>  (24) 
autodockgpu

>  <m_score__min__energy>  (24) 
-9.1300000000000008

>  <m_primary>  (24) 
energy

>  <rmsd>  (24) 
11.083269694350786

>  <m_score__min__rmsd>  (24) 
11.083269694350786

>  <meeko>  (24) 
{"free_energy": -8.73, "intermolecular_energy": -10.82, "internal_energy": -1.83, "cluster_size": 24, "cluster_id": 2, "rank_in_cluster": 7}

>  <energy>  (24) 
-8.4

>  <cluster_rmsd>  (24) 
0.98

>  <cluster>  (24) 
2

$$$$

     RDKit          3D

 55 58  0  0  0  0  0  0  0  0999 V2000
  132.9620   72.9640  227.5880 N   0  0  0  0  0  0  0  0  0  0  0  0
  133.6240   73.4830  226.0950 S   0  0  0  0  0  0  0  0  0  0  0  0
  134.6580   74.5400  226.4300 O   0  0  0  0  0  0  0  0  0  0  0  0
  132.5790   74.1950  225.2810 O   0  0  0  0  0  0  0  0  0  0  0  0
  134.3890   72.1830  225.2150 C   0  0  0  0  0  0  0  0  0  0  0  0
  134.4600   70.9080  225.7490 C   0  0  0  0  0  0  0  0  0  0  0  0
  135.0560   69.8970  225.0620 C   0  0  0  0  0  0  0  0  0  0  0  0
  135.6260   70.0720  223.7950 C   0  0  0  0  0  0  0  0  0  0  0  0
  136.2470   68.9380  223.1240 C   0  0  0  0  0  0  0  0  0  0  0  0
  137.5320   68.6620  223.1680 C   0  0  0  0  0  0  0  0  0  0  0  0
  138.4040   69.4470  224.0310 C   0  0  0  0  0  0  0  0  0  0  0  0
  138.5690   69.0650  225.3100 N   0  0  0  0  0  0  0  0  0  0  0  0
  139.3370   69.7230  226.1770 C   0  0  0  0  0  0  0  0  0  0  0  0
  139.4630   69.2740  227.4850 C   0  0  0  0  0  0  0  0  0  0  0  0
  140.2680   69.9920  228.3360 C   0  0  0  0  0  0  0  0  0  0  0  0
  140.9350   71.1350  227.8940 C   0  0  0  0  0  0  0  0  0  0  0  0
  141.7250   71.8290  228.7520 F   0  0  0  0  0  0  0  0  0  0  0  0
  140.7870   71.5490  226.5980 C   0  0  0  0  0  0  0  0  0  0  0  0
  139.9880   70.8520  225.7210 C   0  0  0  0  0  0  0  0  0  0  0  0
  139.8130   71.2310  224.4150 C   0  0  0  0  0  0  0  0  0  0  0  0
  140.4130   72.2590  224.0230 O   0  0  0  0  0  0  0  0  0  0  0  0
  139.0200   70.5380  223.5450 N   0  0  0  0  0  0  0  0  0  0  0  0
  138.9100   71.0370  222.2220 C   0  0  0  0  0  0  0  0  0  0  0  0
  138.4560   72.4550  222.0580 C   0  0  0  0  0  0  0  0  0  0  0  0
  139.4870   73.4290  221.6220 C   0  0  0  0  0  0  0  0  0  0  0  0
  138.8620   74.8000  221.5650 C   0  0  0  0  0  0  0  0  0  0  0  0
  137.3960   74.7480  221.8140 C   0  0  0  0  0  0  0  0  0  0  0  0
  136.6410   73.7110  221.0480 C   0  0  0  0  0  0  0  0  0  0  0  0
  137.4180   72.4110  220.9180 C   0  0  0  0  0  0  0  0  0  0  0  0
  135.5520   71.3320  223.2740 C   0  0  0  0  0  0  0  0  0  0  0  0
  134.9410   72.3710  223.9750 C   0  0  0  0  0  0  0  0  0  0  0  0
  133.0220   73.7890  228.2380 H   0  0  0  0  0  0  0  0  0  0  0  0
  133.6010   72.2130  227.9550 H   0  0  0  0  0  0  0  0  0  0  0  0
  134.0290   70.7100  226.7415 H   0  0  0  0  0  0  0  0  0  0  0  0
  135.0919   68.8983  225.5216 H   0  0  0  0  0  0  0  0  0  0  0  0
  135.5977   68.2678  222.5416 H   0  0  0  0  0  0  0  0  0  0  0  0
  137.9449   67.8450  222.5581 H   0  0  0  0  0  0  0  0  0  0  0  0
  138.9351   68.3723  227.8288 H   0  0  0  0  0  0  0  0  0  0  0  0
  140.3881   69.6617  229.3783 H   0  0  0  0  0  0  0  0  0  0  0  0
  141.3137   72.4509  226.2529 H   0  0  0  0  0  0  0  0  0  0  0  0
  139.9013   70.9511  221.7530 H   0  0  0  0  0  0  0  0  0  0  0  0
  138.1182   70.4315  221.7568 H   0  0  0  0  0  0  0  0  0  0  0  0
  138.1088   72.7956  223.0446 H   0  0  0  0  0  0  0  0  0  0  0  0
  140.3209   73.4317  222.3394 H   0  0  0  0  0  0  0  0  0  0  0  0
  139.8708   73.1501  220.6296 H   0  0  0  0  0  0  0  0  0  0  0  0
  139.3309   75.4374  222.3291 H   0  0  0  0  0  0  0  0  0  0  0  0
  139.0240   75.2087  220.5567 H   0  0  0  0  0  0  0  0  0  0  0  0
  137.2427   74.5536  222.8858 H   0  0  0  0  0  0  0  0  0  0  0  0
  137.0013   75.7165  221.4730 H   0  0  0  0  0  0  0  0  0  0  0  0
  135.6937   73.5065  221.5684 H   0  0  0  0  0  0  0  0  0  0  0  0
  136.4662   74.1016  220.0347 H   0  0  0  0  0  0  0  0  0  0  0  0
  136.7486   71.5462  221.0369 H   0  0  0  0  0  0  0  0  0  0  0  0
  137.8910   72.3077  219.9303 H   0  0  0  0  0  0  0  0  0  0  0  0
  135.9829   71.5313  222.2817 H   0  0  0  0  0  0  0  0  0  0  0  0
  134.9009   73.3713  223.5191 H   0  0  0  0  0  0  0  0  0  0  0  0
  1  2  1  0
  2  3  2  0
  2  4  2  0
  2  5  1  0
  5  6  2  0
  6  7  1  0
  7  8  2  0
  8  9  1  0
  9 10  2  0
 10 11  1  0
 11 12  2  0
 12 13  1  0
 13 14  2  0
 14 15  1  0
 15 16  2  0
 16 17  1  0
 16 18  1  0
 18 19  2  0
 19 20  1  0
 20 21  2  0
 20 22  1  0
 22 23  1  0
 23 24  1  0
 24 25  1  0
 25 26  1  0
 26 27  1  0
 27 28  1  0
 28 29  1  0
  8 30  1  0
 30 31  2  0
 31  5  1  0
 22 11  1  0
 29 24  1  0
 19 13  1  0
  1 32  1  0
  1 33  1  0
  6 34  1  0
  7 35  1  0
  9 36  1  0
 10 37  1  0
 14 38  1  0
 15 39  1  0
 18 40  1  0
 23 41  1  0
 23 42  1  0
 24 43  1  0
 25 44  1  0
 25 45  1  0
 26 46  1  0
 26 47  1  0
 27 48  1  0
 27 49  1  0
 28 50  1  0
 28 51  1  0
 29 52  1  0
 29 53  1  0
 30 54  1  0
 31 55  1  0
M  END
>  <smiles>  (25) 
NS(=O)(=O)c1ccc(/C=C/c2nc3ccc(F)cc3c(=O)n2CC2CCCCC2)cc1

>  <score_type>  (25) 
oracle

>  <origin>  (25) 
autodockgpu

>  <m_score__min__energy>  (25) 
-9.1300000000000008

>  <m_primary>  (25) 
energy

>  <rmsd>  (25) 
9.247413863939409

>  <m_score__min__rmsd>  (25) 
9.247413863939409

>  <meeko>  (25) 
{"free_energy": -7.48, "intermolecular_energy": -9.56, "internal_energy": -2.14, "cluster_size": 4, "cluster_id": 9, "rank_in_cluster": 3}

>  <energy>  (25) 
-8.38

>  <cluster_rmsd>  (25) 
0.76

>  <cluster>  (25) 
2

$$$$

     RDKit          3D

 55 58  0  0  0  0  0  0  0  0999 V2000
  146.6970   73.0050  221.2180 N   0  0  0  0  0  0  0  0  0  0  0  0
  145.5810   72.5670  219.9950 S   0  0  0  0  0  0  0  0  0  0  0  0
  145.9150   71.1410  219.6020 O   0  0  0  0  0  0  0  0  0  0  0  0
  145.8190   73.3850  218.7550 O   0  0  0  0  0  0  0  0  0  0  0  0
  143.9250   72.6450  220.5410 C   0  0  0  0  0  0  0  0  0  0  0  0
  143.2250   71.4930  220.8580 C   0  0  0  0  0  0  0  0  0  0  0  0
  141.9360   71.5550  221.2840 C   0  0  0  0  0  0  0  0  0  0  0  0
  141.2410   72.7630  221.4290 C   0  0  0  0  0  0  0  0  0  0  0  0
  139.8590   72.7460  221.8910 C   0  0  0  0  0  0  0  0  0  0  0  0
  139.1720   71.6520  222.1350 C   0  0  0  0  0  0  0  0  0  0  0  0
  139.4320   70.8990  223.3550 C   0  0  0  0  0  0  0  0  0  0  0  0
  139.9700   71.5360  224.4100 N   0  0  0  0  0  0  0  0  0  0  0  0
  140.2540   70.9330  225.5630 C   0  0  0  0  0  0  0  0  0  0  0  0
  140.8090   71.6500  226.6130 C   0  0  0  0  0  0  0  0  0  0  0  0
  141.0810   70.9760  227.7800 C   0  0  0  0  0  0  0  0  0  0  0  0
  140.8060   69.6140  227.8980 C   0  0  0  0  0  0  0  0  0  0  0  0
  141.0830   68.9680  229.0590 F   0  0  0  0  0  0  0  0  0  0  0  0
  140.2590   68.9380  226.8410 C   0  0  0  0  0  0  0  0  0  0  0  0
  139.9750   69.5840  225.6600 C   0  0  0  0  0  0  0  0  0  0  0  0
  139.4260   68.9450  224.5780 C   0  0  0  0  0  0  0  0  0  0  0  0
  139.1820   67.7210  224.6880 O   0  0  0  0  0  0  0  0  0  0  0  0
  139.1450   69.5880  223.4060 N   0  0  0  0  0  0  0  0  0  0  0  0
  138.5880   68.8150  222.3550 C   0  0  0  0  0  0  0  0  0  0  0  0
  139.5400   68.2030  221.3750 C   0  0  0  0  0  0  0  0  0  0  0  0
  139.2770   66.7920  220.9960 C   0  0  0  0  0  0  0  0  0  0  0  0
  140.3600   66.3360  220.0510 C   0  0  0  0  0  0  0  0  0  0  0  0
  141.2680   67.4530  219.6730 C   0  0  0  0  0  0  0  0  0  0  0  0
  140.6000   68.7220  219.2530 C   0  0  0  0  0  0  0  0  0  0  0  0
  139.3600   69.0210  220.0790 C   0  0  0  0  0  0  0  0  0  0  0  0
  141.9360   73.8950  221.1150 C   0  0  0  0  0  0  0  0  0  0  0  0
  143.2590   73.8350  220.6790 C   0  0  0  0  0  0  0  0  0  0  0  0
  146.6760   72.2290  221.9280 H   0  0  0  0  0  0  0  0  0  0  0  0
  146.3170   73.8740  221.6750 H   0  0  0  0  0  0  0  0  0  0  0  0
  143.7189   70.5146  220.7637 H   0  0  0  0  0  0  0  0  0  0  0  0
  141.4158   70.6163  221.5254 H   0  0  0  0  0  0  0  0  0  0  0  0
  139.3574   73.7126  222.0459 H   0  0  0  0  0  0  0  0  0  0  0  0
  138.4068   71.3078  221.4236 H   0  0  0  0  0  0  0  0  0  0  0  0
  141.0247   72.7242  226.5149 H   0  0  0  0  0  0  0  0  0  0  0  0
  141.5207   71.5174  228.6306 H   0  0  0  0  0  0  0  0  0  0  0  0
  140.0435   67.8636  226.9371 H   0  0  0  0  0  0  0  0  0  0  0  0
  138.0149   67.9963  222.8146 H   0  0  0  0  0  0  0  0  0  0  0  0
  137.9934   69.5275  221.7644 H   0  0  0  0  0  0  0  0  0  0  0  0
  140.5340   68.2154  221.8460 H   0  0  0  0  0  0  0  0  0  0  0  0
  139.2809   66.1599  221.8963 H   0  0  0  0  0  0  0  0  0  0  0  0
  138.2947   66.7117  220.5075 H   0  0  0  0  0  0  0  0  0  0  0  0
  140.9502   65.5468  220.5396 H   0  0  0  0  0  0  0  0  0  0  0  0
  139.8798   65.9601  219.1355 H   0  0  0  0  0  0  0  0  0  0  0  0
  141.9049   67.6784  220.5411 H   0  0  0  0  0  0  0  0  0  0  0  0
  141.8219   67.1013  218.7901 H   0  0  0  0  0  0  0  0  0  0  0  0
  141.3120   69.5523  219.3703 H   0  0  0  0  0  0  0  0  0  0  0  0
  140.2868   68.6068  218.2049 H   0  0  0  0  0  0  0  0  0  0  0  0
  139.2955   70.0955  220.3053 H   0  0  0  0  0  0  0  0  0  0  0  0
  138.4342   68.7562  219.5472 H   0  0  0  0  0  0  0  0  0  0  0  0
  141.4427   74.8738  221.2078 H   0  0  0  0  0  0  0  0  0  0  0  0
  143.7842   74.7711  220.4385 H   0  0  0  0  0  0  0  0  0  0  0  0
  1  2  1  0
  2  3  2  0
  2  4  2  0
  2  5  1  0
  5  6  2  0
  6  7  1  0
  7  8  2  0
  8  9  1  0
  9 10  2  0
 10 11  1  0
 11 12  2  0
 12 13  1  0
 13 14  2  0
 14 15  1  0
 15 16  2  0
 16 17  1  0
 16 18  1  0
 18 19  2  0
 19 20  1  0
 20 21  2  0
 20 22  1  0
 22 23  1  0
 23 24  1  0
 24 25  1  0
 25 26  1  0
 26 27  1  0
 27 28  1  0
 28 29  1  0
  8 30  1  0
 30 31  2  0
 31  5  1  0
 22 11  1  0
 29 24  1  0
 19 13  1  0
  1 32  1  0
  1 33  1  0
  6 34  1  0
  7 35  1  0
  9 36  1  0
 10 37  1  0
 14 38  1  0
 15 39  1  0
 18 40  1  0
 23 41  1  0
 23 42  1  0
 24 43  1  0
 25 44  1  0
 25 45  1  0
 26 46  1  0
 26 47  1  0
 27 48  1  0
 27 49  1  0
 28 50  1  0
 28 51  1  0
 29 52  1  0
 29 53  1  0
 30 54  1  0
 31 55  1  0
M  END
>  <smiles>  (26) 
NS(=O)(=O)c1ccc(/C=C/c2nc3ccc(F)cc3c(=O)n2CC2CCCCC2)cc1

>  <score_type>  (26) 
oracle

>  <origin>  (26) 
autodockgpu

>  <m_score__min__energy>  (26) 
-9.1300000000000008

>  <m_primary>  (26) 
energy

>  <rmsd>  (26) 
11.107514986817431

>  <m_score__min__rmsd>  (26) 
11.107514986817431

>  <meeko>  (26) 
{"free_energy": -8.42, "intermolecular_energy": -10.51, "internal_energy": -1.84, "cluster_size": 24, "cluster_id": 2, "rank_in_cluster": 16}

>  <energy>  (26) 
-8.37

>  <cluster_rmsd>  (26) 
0.93

>  <cluster>  (26) 
2

$$$$

     RDKit          3D

 55 58  0  0  0  0  0  0  0  0999 V2000
  145.9280   73.4180  218.2730 N   0  0  0  0  0  0  0  0  0  0  0  0
  145.7670   72.6410  219.7920 S   0  0  0  0  0  0  0  0  0  0  0  0
  146.6890   73.3740  220.7470 O   0  0  0  0  0  0  0  0  0  0  0  0
  146.3050   71.2380  219.7190 O   0  0  0  0  0  0  0  0  0  0  0  0
  144.1330   72.7010  220.4040 C   0  0  0  0  0  0  0  0  0  0  0  0
  143.4970   71.5540  220.8470 C   0  0  0  0  0  0  0  0  0  0  0  0
  142.2240   71.6030  221.3240 C   0  0  0  0  0  0  0  0  0  0  0  0
  141.4850   72.7910  221.3970 C   0  0  0  0  0  0  0  0  0  0  0  0
  140.1260   72.7600  221.9200 C   0  0  0  0  0  0  0  0  0  0  0  0
  139.4260   71.6630  222.1020 C   0  0  0  0  0  0  0  0  0  0  0  0
  139.6030   70.8940  223.3280 C   0  0  0  0  0  0  0  0  0  0  0  0
  140.1120   71.5070  224.4120 N   0  0  0  0  0  0  0  0  0  0  0  0
  140.3210   70.8870  225.5720 C   0  0  0  0  0  0  0  0  0  0  0  0
  140.8500   71.5800  226.6530 C   0  0  0  0  0  0  0  0  0  0  0  0
  141.0440   70.8900  227.8250 C   0  0  0  0  0  0  0  0  0  0  0  0
  140.7190   69.5370  227.9200 C   0  0  0  0  0  0  0  0  0  0  0  0
  140.9190   68.8750  229.0880 F   0  0  0  0  0  0  0  0  0  0  0  0
  140.2000   68.8860  226.8340 C   0  0  0  0  0  0  0  0  0  0  0  0
  139.9930   69.5480  225.6460 C   0  0  0  0  0  0  0  0  0  0  0  0
  139.4750   68.9340  224.5340 C   0  0  0  0  0  0  0  0  0  0  0  0
  139.1840   67.7190  224.6240 O   0  0  0  0  0  0  0  0  0  0  0  0
  139.2700   69.5930  223.3560 N   0  0  0  0  0  0  0  0  0  0  0  0
  138.7370   68.8460  222.2740 C   0  0  0  0  0  0  0  0  0  0  0  0
  137.2470   68.8100  222.1320 C   0  0  0  0  0  0  0  0  0  0  0  0
  136.6340   67.4680  221.9740 C   0  0  0  0  0  0  0  0  0  0  0  0
  135.1460   67.6350  221.7940 C   0  0  0  0  0  0  0  0  0  0  0  0
  134.7250   69.0510  221.9700 C   0  0  0  0  0  0  0  0  0  0  0  0
  135.2660   69.7460  223.1780 C   0  0  0  0  0  0  0  0  0  0  0  0
  136.7060   69.3580  223.4690 C   0  0  0  0  0  0  0  0  0  0  0  0
  142.1190   73.9190  220.9590 C   0  0  0  0  0  0  0  0  0  0  0  0
  143.4240   73.8720  220.4700 C   0  0  0  0  0  0  0  0  0  0  0  0
  146.8660   73.8960  218.2860 H   0  0  0  0  0  0  0  0  0  0  0  0
  145.1850   74.1630  218.2360 H   0  0  0  0  0  0  0  0  0  0  0  0
  144.0276   70.5910  220.8129 H   0  0  0  0  0  0  0  0  0  0  0  0
  141.7545   70.6694  221.6673 H   0  0  0  0  0  0  0  0  0  0  0  0
  139.6541   73.7190  222.1800 H   0  0  0  0  0  0  0  0  0  0  0  0
  138.7120   71.3275  221.3354 H   0  0  0  0  0  0  0  0  0  0  0  0
  141.1054   72.6470  226.5734 H   0  0  0  0  0  0  0  0  0  0  0  0
  141.4609   71.4111  228.6994 H   0  0  0  0  0  0  0  0  0  0  0  0
  139.9449   67.8188  226.9120 H   0  0  0  0  0  0  0  0  0  0  0  0
  139.1471   69.2705  221.3458 H   0  0  0  0  0  0  0  0  0  0  0  0
  139.0261   67.8049  222.4803 H   0  0  0  0  0  0  0  0  0  0  0  0
  136.9997   69.3711  221.2187 H   0  0  0  0  0  0  0  0  0  0  0  0
  137.0599   66.9680  221.0916 H   0  0  0  0  0  0  0  0  0  0  0  0
  136.8377   66.8554  222.8646 H   0  0  0  0  0  0  0  0  0  0  0  0
  134.8702   67.3045  220.7817 H   0  0  0  0  0  0  0  0  0  0  0  0
  134.6383   67.0292  222.5590 H   0  0  0  0  0  0  0  0  0  0  0  0
  135.0521   69.6130  221.0827 H   0  0  0  0  0  0  0  0  0  0  0  0
  133.6337   69.0233  222.1054 H   0  0  0  0  0  0  0  0  0  0  0  0
  135.2188   70.8324  223.0120 H   0  0  0  0  0  0  0  0  0  0  0  0
  134.6549   69.4451  224.0417 H   0  0  0  0  0  0  0  0  0  0  0  0
  137.2859   70.2356  223.7906 H   0  0  0  0  0  0  0  0  0  0  0  0
  136.7800   68.6186  224.2800 H   0  0  0  0  0  0  0  0  0  0  0  0
  141.5899   74.8828  220.9927 H   0  0  0  0  0  0  0  0  0  0  0  0
  143.8988   74.8030  220.1268 H   0  0  0  0  0  0  0  0  0  0  0  0
  1  2  1  0
  2  3  2  0
  2  4  2  0
  2  5  1  0
  5  6  2  0
  6  7  1  0
  7  8  2  0
  8  9  1  0
  9 10  2  0
 10 11  1  0
 11 12  2  0
 12 13  1  0
 13 14  2  0
 14 15  1  0
 15 16  2  0
 16 17  1  0
 16 18  1  0
 18 19  2  0
 19 20  1  0
 20 21  2  0
 20 22  1  0
 22 23  1  0
 23 24  1  0
 24 25  1  0
 25 26  1  0
 26 27  1  0
 27 28  1  0
 28 29  1  0
  8 30  1  0
 30 31  2  0
 31  5  1  0
 22 11  1  0
 29 24  1  0
 19 13  1  0
  1 32  1  0
  1 33  1  0
  6 34  1  0
  7 35  1  0
  9 36  1  0
 10 37  1  0
 14 38  1  0
 15 39  1  0
 18 40  1  0
 23 41  1  0
 23 42  1  0
 24 43  1  0
 25 44  1  0
 25 45  1  0
 26 46  1  0
 26 47  1  0
 27 48  1  0
 27 49  1  0
 28 50  1  0
 28 51  1  0
 29 52  1  0
 29 53  1  0
 30 54  1  0
 31 55  1  0
M  END
>  <smiles>  (27) 
NS(=O)(=O)c1ccc(/C=C/c2nc3ccc(F)cc3c(=O)n2CC2CCCCC2)cc1

>  <score_type>  (27) 
oracle

>  <origin>  (27) 
autodockgpu

>  <m_score__min__energy>  (27) 
-9.1300000000000008

>  <m_primary>  (27) 
energy

>  <rmsd>  (27) 
11.199106071641559

>  <m_score__min__rmsd>  (27) 
11.199106071641559

>  <meeko>  (27) 
{"free_energy": -8.99, "intermolecular_energy": -11.08, "internal_energy": -1.38, "cluster_size": 24, "cluster_id": 2, "rank_in_cluster": 1}

>  <energy>  (27) 
-8.27

>  <cluster_rmsd>  (27) 
0.82

>  <cluster>  (27) 
2

$$$$

     RDKit          3D

 55 58  0  0  0  0  0  0  0  0999 V2000
  132.8670   73.5040  227.3610 N   0  0  0  0  0  0  0  0  0  0  0  0
  132.8300   74.9970  226.5210 S   0  0  0  0  0  0  0  0  0  0  0  0
  132.9960   76.0810  227.5680 O   0  0  0  0  0  0  0  0  0  0  0  0
  131.4680   75.2270  225.9250 O   0  0  0  0  0  0  0  0  0  0  0  0
  134.1090   75.1320  225.3410 C   0  0  0  0  0  0  0  0  0  0  0  0
  134.7860   74.0090  224.8940 C   0  0  0  0  0  0  0  0  0  0  0  0
  135.7820   74.1160  223.9740 C   0  0  0  0  0  0  0  0  0  0  0  0
  136.1840   75.3420  223.4270 C   0  0  0  0  0  0  0  0  0  0  0  0
  137.2600   75.3730  222.4470 C   0  0  0  0  0  0  0  0  0  0  0  0
  138.2680   76.2170  222.4780 C   0  0  0  0  0  0  0  0  0  0  0  0
  139.5450   75.8290  221.8940 C   0  0  0  0  0  0  0  0  0  0  0  0
  139.9360   74.5440  221.9770 N   0  0  0  0  0  0  0  0  0  0  0  0
  141.0890   74.0960  221.4840 C   0  0  0  0  0  0  0  0  0  0  0  0
  141.4310   72.7560  221.6060 C   0  0  0  0  0  0  0  0  0  0  0  0
  142.6330   72.3500  221.0780 C   0  0  0  0  0  0  0  0  0  0  0  0
  143.4780   73.2590  220.4430 C   0  0  0  0  0  0  0  0  0  0  0  0
  144.6610   72.8360  219.9290 F   0  0  0  0  0  0  0  0  0  0  0  0
  143.1090   74.5730  220.3420 C   0  0  0  0  0  0  0  0  0  0  0  0
  141.9120   75.0110  220.8600 C   0  0  0  0  0  0  0  0  0  0  0  0
  141.5040   76.3180  220.7800 C   0  0  0  0  0  0  0  0  0  0  0  0
  142.2670   77.1320  220.2090 O   0  0  0  0  0  0  0  0  0  0  0  0
  140.3150   76.7520  221.2940 N   0  0  0  0  0  0  0  0  0  0  0  0
  140.0090   78.1310  221.1580 C   0  0  0  0  0  0  0  0  0  0  0  0
  140.9150   79.1060  221.8450 C   0  0  0  0  0  0  0  0  0  0  0  0
  140.4510   80.5150  221.8910 C   0  0  0  0  0  0  0  0  0  0  0  0
  141.5090   81.3490  222.5670 C   0  0  0  0  0  0  0  0  0  0  0  0
  142.6120   80.5100  223.1070 C   0  0  0  0  0  0  0  0  0  0  0  0
  142.1930   79.3130  223.8990 C   0  0  0  0  0  0  0  0  0  0  0  0
  140.9640   78.6370  223.3140 C   0  0  0  0  0  0  0  0  0  0  0  0
  135.5120   76.4450  223.8720 C   0  0  0  0  0  0  0  0  0  0  0  0
  134.4900   76.3390  224.8150 C   0  0  0  0  0  0  0  0  0  0  0  0
  132.7110   73.7340  228.3760 H   0  0  0  0  0  0  0  0  0  0  0  0
  133.8440   73.1260  227.2600 H   0  0  0  0  0  0  0  0  0  0  0  0
  134.5146   73.0185  225.2880 H   0  0  0  0  0  0  0  0  0  0  0  0
  136.2945   73.2000  223.6448 H   0  0  0  0  0  0  0  0  0  0  0  0
  137.2277   74.6418  221.6259 H   0  0  0  0  0  0  0  0  0  0  0  0
  138.1480   77.2076  222.9410 H   0  0  0  0  0  0  0  0  0  0  0  0
  140.7616   72.0425  222.1089 H   0  0  0  0  0  0  0  0  0  0  0  0
  142.9322   71.2945  221.1574 H   0  0  0  0  0  0  0  0  0  0  0  0
  143.7778   75.2879  219.8404 H   0  0  0  0  0  0  0  0  0  0  0  0
  140.0218   78.3681  220.0839 H   0  0  0  0  0  0  0  0  0  0  0  0
  139.0341   78.2543  221.6523 H   0  0  0  0  0  0  0  0  0  0  0  0
  141.8615   79.1120  221.2846 H   0  0  0  0  0  0  0  0  0  0  0  0
  140.2859   80.8842  220.8680 H   0  0  0  0  0  0  0  0  0  0  0  0
  139.5065   80.5810  222.4509 H   0  0  0  0  0  0  0  0  0  0  0  0
  141.9256   82.0571  221.8355 H   0  0  0  0  0  0  0  0  0  0  0  0
  141.0400   81.8801  223.4084 H   0  0  0  0  0  0  0  0  0  0  0  0
  143.2149   80.1578  222.2570 H   0  0  0  0  0  0  0  0  0  0  0  0
  143.1608   81.1549  223.8091 H   0  0  0  0  0  0  0  0  0  0  0  0
  143.0218   78.5899  223.9128 H   0  0  0  0  0  0  0  0  0  0  0  0
  141.9397   79.6524  224.9142 H   0  0  0  0  0  0  0  0  0  0  0  0
  141.0616   77.5427  223.3679 H   0  0  0  0  0  0  0  0  0  0  0  0
  140.0471   78.8976  223.8629 H   0  0  0  0  0  0  0  0  0  0  0  0
  135.7823   77.4361  223.4788 H   0  0  0  0  0  0  0  0  0  0  0  0
  133.9739   77.2520  225.1468 H   0  0  0  0  0  0  0  0  0  0  0  0
  1  2  1  0
  2  3  2  0
  2  4  2  0
  2  5  1  0
  5  6  2  0
  6  7  1  0
  7  8  2  0
  8  9  1  0
  9 10  2  0
 10 11  1  0
 11 12  2  0
 12 13  1  0
 13 14  2  0
 14 15  1  0
 15 16  2  0
 16 17  1  0
 16 18  1  0
 18 19  2  0
 19 20  1  0
 20 21  2  0
 20 22  1  0
 22 23  1  0
 23 24  1  0
 24 25  1  0
 25 26  1  0
 26 27  1  0
 27 28  1  0
 28 29  1  0
  8 30  1  0
 30 31  2  0
 31  5  1  0
 22 11  1  0
 29 24  1  0
 19 13  1  0
  1 32  1  0
  1 33  1  0
  6 34  1  0
  7 35  1  0
  9 36  1  0
 10 37  1  0
 14 38  1  0
 15 39  1  0
 18 40  1  0
 23 41  1  0
 23 42  1  0
 24 43  1  0
 25 44  1  0
 25 45  1  0
 26 46  1  0
 26 47  1  0
 27 48  1  0
 27 49  1  0
 28 50  1  0
 28 51  1  0
 29 52  1  0
 29 53  1  0
 30 54  1  0
 31 55  1  0
M  END
>  <smiles>  (28) 
NS(=O)(=O)c1ccc(/C=C/c2nc3ccc(F)cc3c(=O)n2CC2CCCCC2)cc1

>  <score_type>  (28) 
oracle

>  <origin>  (28) 
autodockgpu

>  <m_score__min__energy>  (28) 
-9.1300000000000008

>  <m_primary>  (28) 
energy

>  <rmsd>  (28) 
7.101990972853619

>  <m_score__min__rmsd>  (28) 
7.101990972853619

>  <meeko>  (28) 
{"free_energy": -8.12, "intermolecular_energy": -10.21, "internal_energy": -1.26, "cluster_size": 4, "cluster_id": 4, "rank_in_cluster": 3}

>  <energy>  (28) 
-8.26

>  <cluster_rmsd>  (28) 
1.66

>  <cluster>  (28) 
2

$$$$

     RDKit          3D

 55 58  0  0  0  0  0  0  0  0999 V2000
  145.9090   73.4050  218.3670 N   0  0  0  0  0  0  0  0  0  0  0  0
  145.7260   72.7930  219.9570 S   0  0  0  0  0  0  0  0  0  0  0  0
  146.4680   73.7490  220.8710 O   0  0  0  0  0  0  0  0  0  0  0  0
  146.4410   71.4770  220.0950 O   0  0  0  0  0  0  0  0  0  0  0  0
  144.0540   72.7030  220.4500 C   0  0  0  0  0  0  0  0  0  0  0  0
  143.3540   73.8430  220.8050 C   0  0  0  0  0  0  0  0  0  0  0  0
  142.0510   73.7700  221.1880 C   0  0  0  0  0  0  0  0  0  0  0  0
  141.3430   72.5630  221.2490 C   0  0  0  0  0  0  0  0  0  0  0  0
  139.9480   72.5690  221.6700 C   0  0  0  0  0  0  0  0  0  0  0  0
  139.2630   71.4910  221.9810 C   0  0  0  0  0  0  0  0  0  0  0  0
  139.5120   70.8250  223.2540 C   0  0  0  0  0  0  0  0  0  0  0  0
  140.0660   71.5280  224.2580 N   0  0  0  0  0  0  0  0  0  0  0  0
  140.3420   71.0060  225.4520 C   0  0  0  0  0  0  0  0  0  0  0  0
  140.9150   71.7890  226.4450 C   0  0  0  0  0  0  0  0  0  0  0  0
  141.1770   71.1980  227.6570 C   0  0  0  0  0  0  0  0  0  0  0  0
  140.8740   69.8540  227.8770 C   0  0  0  0  0  0  0  0  0  0  0  0
  141.1410   69.2900  229.0830 F   0  0  0  0  0  0  0  0  0  0  0  0
  140.3100   69.1130  226.8750 C   0  0  0  0  0  0  0  0  0  0  0  0
  140.0350   69.6750  225.6500 C   0  0  0  0  0  0  0  0  0  0  0  0
  139.4700   68.9680  224.6190 C   0  0  0  0  0  0  0  0  0  0  0  0
  139.2000   67.7620  224.8210 O   0  0  0  0  0  0  0  0  0  0  0  0
  139.1970   69.5280  223.4030 N   0  0  0  0  0  0  0  0  0  0  0  0
  138.6210   68.6910  222.4140 C   0  0  0  0  0  0  0  0  0  0  0  0
  137.1460   68.4450  222.4970 C   0  0  0  0  0  0  0  0  0  0  0  0
  136.2680   69.5510  222.0400 C   0  0  0  0  0  0  0  0  0  0  0  0
  134.8310   69.1440  222.2470 C   0  0  0  0  0  0  0  0  0  0  0  0
  134.7190   67.7310  222.6990 C   0  0  0  0  0  0  0  0  0  0  0  0
  135.5210   66.7330  221.9280 C   0  0  0  0  0  0  0  0  0  0  0  0
  136.8820   67.2770  221.5240 C   0  0  0  0  0  0  0  0  0  0  0  0
  142.0390   71.4420  220.8970 C   0  0  0  0  0  0  0  0  0  0  0  0
  143.3750   71.5130  220.5030 C   0  0  0  0  0  0  0  0  0  0  0  0
  146.8450   73.8860  218.3430 H   0  0  0  0  0  0  0  0  0  0  0  0
  145.1640   74.1370  218.2390 H   0  0  0  0  0  0  0  0  0  0  0  0
  143.8579   74.8204  220.7770 H   0  0  0  0  0  0  0  0  0  0  0  0
  141.5304   74.6995  221.4618 H   0  0  0  0  0  0  0  0  0  0  0  0
  139.4342   73.5397  221.7316 H   0  0  0  0  0  0  0  0  0  0  0  0
  138.5079   71.0945  221.2863 H   0  0  0  0  0  0  0  0  0  0  0  0
  141.1515   72.8484  226.2670 H   0  0  0  0  0  0  0  0  0  0  0  0
  141.6313   71.7916  228.4640 H   0  0  0  0  0  0  0  0  0  0  0  0
  140.0732   68.0534  227.0513 H   0  0  0  0  0  0  0  0  0  0  0  0
  138.8252   69.1480  221.4345 H   0  0  0  0  0  0  0  0  0  0  0  0
  139.0814   67.7051  222.5752 H   0  0  0  0  0  0  0  0  0  0  0  0
  136.9086   68.2822  223.5587 H   0  0  0  0  0  0  0  0  0  0  0  0
  136.4831   70.4592  222.6222 H   0  0  0  0  0  0  0  0  0  0  0  0
  136.4494   69.7581  220.9750 H   0  0  0  0  0  0  0  0  0  0  0  0
  134.3812   69.7985  223.0081 H   0  0  0  0  0  0  0  0  0  0  0  0
  134.3057   69.2390  221.2852 H   0  0  0  0  0  0  0  0  0  0  0  0
  135.0446   67.6862  223.7488 H   0  0  0  0  0  0  0  0  0  0  0  0
  133.6666   67.4513  222.5430 H   0  0  0  0  0  0  0  0  0  0  0  0
  135.6680   65.8390  222.5519 H   0  0  0  0  0  0  0  0  0  0  0  0
  134.9671   66.4935  221.0083 H   0  0  0  0  0  0  0  0  0  0  0  0
  137.6557   66.5023  221.6300 H   0  0  0  0  0  0  0  0  0  0  0  0
  136.9040   67.6001  220.4727 H   0  0  0  0  0  0  0  0  0  0  0  0
  141.5361   70.4641  220.9248 H   0  0  0  0  0  0  0  0  0  0  0  0
  143.8997   70.5866  220.2265 H   0  0  0  0  0  0  0  0  0  0  0  0
  1  2  1  0
  2  3  2  0
  2  4  2  0
  2  5  1  0
  5  6  2  0
  6  7  1  0
  7  8  2  0
  8  9  1  0
  9 10  2  0
 10 11  1  0
 11 12  2  0
 12 13  1  0
 13 14  2  0
 14 15  1  0
 15 16  2  0
 16 17  1  0
 16 18  1  0
 18 19  2  0
 19 20  1  0
 20 21  2  0
 20 22  1  0
 22 23  1  0
 23 24  1  0
 24 25  1  0
 25 26  1  0
 26 27  1  0
 27 28  1  0
 28 29  1  0
  8 30  1  0
 30 31  2  0
 31  5  1  0
 22 11  1  0
 29 24  1  0
 19 13  1  0
  1 32  1  0
  1 33  1  0
  6 34  1  0
  7 35  1  0
  9 36  1  0
 10 37  1  0
 14 38  1  0
 15 39  1  0
 18 40  1  0
 23 41  1  0
 23 42  1  0
 24 43  1  0
 25 44  1  0
 25 45  1  0
 26 46  1  0
 26 47  1  0
 27 48  1  0
 27 49  1  0
 28 50  1  0
 28 51  1  0
 29 52  1  0
 29 53  1  0
 30 54  1  0
 31 55  1  0
M  END
>  <smiles>  (29) 
NS(=O)(=O)c1ccc(/C=C/c2nc3ccc(F)cc3c(=O)n2CC2CCCCC2)cc1

>  <score_type>  (29) 
oracle

>  <origin>  (29) 
autodockgpu

>  <m_score__min__energy>  (29) 
-9.1300000000000008

>  <m_primary>  (29) 
energy

>  <rmsd>  (29) 
11.017651414364504

>  <m_score__min__rmsd>  (29) 
11.017651414364504

>  <meeko>  (29) 
{"free_energy": -8.62, "intermolecular_energy": -10.71, "internal_energy": -1.44, "cluster_size": 24, "cluster_id": 2, "rank_in_cluster": 10}

>  <energy>  (29) 
-8.16

>  <cluster_rmsd>  (29) 
1.22

>  <cluster>  (29) 
2

$$$$

     RDKit          3D

 55 58  0  0  0  0  0  0  0  0999 V2000
  139.3750   67.2440  226.1380 N   0  0  0  0  0  0  0  0  0  0  0  0
  139.9620   68.7840  226.6070 S   0  0  0  0  0  0  0  0  0  0  0  0
  141.4320   68.5990  226.9320 O   0  0  0  0  0  0  0  0  0  0  0  0
  139.3220   69.2150  227.8980 O   0  0  0  0  0  0  0  0  0  0  0  0
  139.7940   69.9760  225.3440 C   0  0  0  0  0  0  0  0  0  0  0  0
  140.8710   70.7540  224.9520 C   0  0  0  0  0  0  0  0  0  0  0  0
  140.7380   71.6820  223.9670 C   0  0  0  0  0  0  0  0  0  0  0  0
  139.5300   71.9110  223.2960 C   0  0  0  0  0  0  0  0  0  0  0  0
  139.4690   72.9250  222.2520 C   0  0  0  0  0  0  0  0  0  0  0  0
  140.4470   73.1870  221.4140 C   0  0  0  0  0  0  0  0  0  0  0  0
  140.8460   74.5700  221.1870 C   0  0  0  0  0  0  0  0  0  0  0  0
  140.3910   75.5230  222.0210 N   0  0  0  0  0  0  0  0  0  0  0  0
  140.6900   76.8150  221.8900 C   0  0  0  0  0  0  0  0  0  0  0  0
  140.1850   77.7470  222.7860 C   0  0  0  0  0  0  0  0  0  0  0  0
  140.5270   79.0650  222.6020 C   0  0  0  0  0  0  0  0  0  0  0  0
  141.3560   79.4480  221.5470 C   0  0  0  0  0  0  0  0  0  0  0  0
  141.6810   80.7550  221.3840 F   0  0  0  0  0  0  0  0  0  0  0  0
  141.8340   78.5020  220.6820 C   0  0  0  0  0  0  0  0  0  0  0  0
  141.5110   77.1740  220.8390 C   0  0  0  0  0  0  0  0  0  0  0  0
  141.9690   76.1940  219.9960 C   0  0  0  0  0  0  0  0  0  0  0  0
  142.7120   76.5420  219.0490 O   0  0  0  0  0  0  0  0  0  0  0  0
  141.6470   74.8750  220.1530 N   0  0  0  0  0  0  0  0  0  0  0  0
  142.1750   73.9570  219.2090 C   0  0  0  0  0  0  0  0  0  0  0  0
  143.5420   73.4070  219.4780 C   0  0  0  0  0  0  0  0  0  0  0  0
  144.3660   74.1460  220.4660 C   0  0  0  0  0  0  0  0  0  0  0  0
  145.7150   73.4810  220.5640 C   0  0  0  0  0  0  0  0  0  0  0  0
  145.7690   72.2240  219.7680 C   0  0  0  0  0  0  0  0  0  0  0  0
  144.6210   71.2850  219.9550 C   0  0  0  0  0  0  0  0  0  0  0  0
  143.2970   72.0160  220.0990 C   0  0  0  0  0  0  0  0  0  0  0  0
  138.4720   71.1410  223.6870 C   0  0  0  0  0  0  0  0  0  0  0  0
  138.6050   70.1870  224.6960 C   0  0  0  0  0  0  0  0  0  0  0  0
  139.7110   66.5660  226.8690 H   0  0  0  0  0  0  0  0  0  0  0  0
  139.8500   67.0040  225.2300 H   0  0  0  0  0  0  0  0  0  0  0  0
  141.8458   70.6195  225.4436 H   0  0  0  0  0  0  0  0  0  0  0  0
  141.6177   72.2791  223.6848 H   0  0  0  0  0  0  0  0  0  0  0  0
  138.5425   73.5106  222.1587 H   0  0  0  0  0  0  0  0  0  0  0  0
  140.9604   72.3686  220.8881 H   0  0  0  0  0  0  0  0  0  0  0  0
  139.5321   77.4404  223.6165 H   0  0  0  0  0  0  0  0  0  0  0  0
  140.1424   79.8278  223.2951 H   0  0  0  0  0  0  0  0  0  0  0  0
  142.4853   78.8073  219.8498 H   0  0  0  0  0  0  0  0  0  0  0  0
  141.4812   73.1053  219.1522 H   0  0  0  0  0  0  0  0  0  0  0  0
  142.2808   74.5361  218.2797 H   0  0  0  0  0  0  0  0  0  0  0  0
  144.0940   73.4458  218.5273 H   0  0  0  0  0  0  0  0  0  0  0  0
  144.4902   75.1887  220.1383 H   0  0  0  0  0  0  0  0  0  0  0  0
  143.8713   74.1366  221.4484 H   0  0  0  0  0  0  0  0  0  0  0  0
  146.4821   74.1740  220.1882 H   0  0  0  0  0  0  0  0  0  0  0  0
  145.8959   73.2267  221.6188 H   0  0  0  0  0  0  0  0  0  0  0  0
  145.8093   72.5000  218.7039 H   0  0  0  0  0  0  0  0  0  0  0  0
  146.6581   71.6831  220.1243 H   0  0  0  0  0  0  0  0  0  0  0  0
  144.5638   70.6177  219.0824 H   0  0  0  0  0  0  0  0  0  0  0  0
  144.7960   70.7192  220.8820 H   0  0  0  0  0  0  0  0  0  0  0  0
  142.5007   71.4849  219.5569 H   0  0  0  0  0  0  0  0  0  0  0  0
  142.9724   72.0821  221.1479 H   0  0  0  0  0  0  0  0  0  0  0  0
  137.4964   71.2756  223.1970 H   0  0  0  0  0  0  0  0  0  0  0  0
  137.7288   69.5857  224.9802 H   0  0  0  0  0  0  0  0  0  0  0  0
  1  2  1  0
  2  3  2  0
  2  4  2  0
  2  5  1  0
  5  6  2  0
  6  7  1  0
  7  8  2  0
  8  9  1  0
  9 10  2  0
 10 11  1  0
 11 12  2  0
 12 13  1  0
 13 14  2  0
 14 15  1  0
 15 16  2  0
 16 17  1  0
 16 18  1  0
 18 19  2  0
 19 20  1  0
 20 21  2  0
 20 22  1  0
 22 23  1  0
 23 24  1  0
 24 25  1  0
 25 26  1  0
 26 27  1  0
 27 28  1  0
 28 29  1  0
  8 30  1  0
 30 31  2  0
 31  5  1  0
 22 11  1  0
 29 24  1  0
 19 13  1  0
  1 32  1  0
  1 33  1  0
  6 34  1  0
  7 35  1  0
  9 36  1  0
 10 37  1  0
 14 38  1  0
 15 39  1  0
 18 40  1  0
 23 41  1  0
 23 42  1  0
 24 43  1  0
 25 44  1  0
 25 45  1  0
 26 46  1  0
 26 47  1  0
 27 48  1  0
 27 49  1  0
 28 50  1  0
 28 51  1  0
 29 52  1  0
 29 53  1  0
 30 54  1  0
 31 55  1  0
M  END
>  <smiles>  (30) 
NS(=O)(=O)c1ccc(/C=C/c2nc3ccc(F)cc3c(=O)n2CC2CCCCC2)cc1

>  <score_type>  (30) 
oracle

>  <origin>  (30) 
autodockgpu

>  <m_score__min__energy>  (30) 
-9.1300000000000008

>  <m_primary>  (30) 
energy

>  <rmsd>  (30) 
5.26171316833033

>  <m_score__min__rmsd>  (30) 
5.26171316833033

>  <meeko>  (30) 
{"free_energy": -8.67, "intermolecular_energy": -10.76, "internal_energy": -1.42, "cluster_size": 7, "cluster_id": 1, "rank_in_cluster": 6}

>  <energy>  (30) 
-8.09

>  <cluster_rmsd>  (30) 
1.27

>  <cluster>  (30) 
2

$$$$

     RDKit          3D

 55 58  0  0  0  0  0  0  0  0999 V2000
  145.9490   73.1540  218.8800 N   0  0  0  0  0  0  0  0  0  0  0  0
  145.4350   73.3970  220.4960 S   0  0  0  0  0  0  0  0  0  0  0  0
  145.6110   74.8760  220.7830 O   0  0  0  0  0  0  0  0  0  0  0  0
  146.3630   72.6950  221.4500 O   0  0  0  0  0  0  0  0  0  0  0  0
  143.7640   72.9560  220.7390 C   0  0  0  0  0  0  0  0  0  0  0  0
  143.3830   71.6270  220.8230 C   0  0  0  0  0  0  0  0  0  0  0  0
  142.0810   71.2850  221.0130 C   0  0  0  0  0  0  0  0  0  0  0  0
  141.0560   72.2330  221.1350 C   0  0  0  0  0  0  0  0  0  0  0  0
  139.6850   71.7860  221.3360 C   0  0  0  0  0  0  0  0  0  0  0  0
  139.0170   71.9240  222.4600 C   0  0  0  0  0  0  0  0  0  0  0  0
  139.3100   71.0400  223.5810 C   0  0  0  0  0  0  0  0  0  0  0  0
  139.8760   71.5570  224.6860 N   0  0  0  0  0  0  0  0  0  0  0  0
  140.1910   70.8290  225.7570 C   0  0  0  0  0  0  0  0  0  0  0  0
  140.7740   71.4260  226.8660 C   0  0  0  0  0  0  0  0  0  0  0  0
  141.0770   70.6260  227.9410 C   0  0  0  0  0  0  0  0  0  0  0  0
  140.8050   69.2590  227.9140 C   0  0  0  0  0  0  0  0  0  0  0  0
  141.1130   68.4880  228.9870 F   0  0  0  0  0  0  0  0  0  0  0  0
  140.2300   68.7040  226.8030 C   0  0  0  0  0  0  0  0  0  0  0  0
  139.9140   69.4770  225.7100 C   0  0  0  0  0  0  0  0  0  0  0  0
  139.3370   68.9610  224.5780 C   0  0  0  0  0  0  0  0  0  0  0  0
  139.0950   67.7320  224.5570 O   0  0  0  0  0  0  0  0  0  0  0  0
  139.0240   69.7300  223.4930 N   0  0  0  0  0  0  0  0  0  0  0  0
  138.4390   69.0780  222.3770 C   0  0  0  0  0  0  0  0  0  0  0  0
  139.3590   68.3430  221.4530 C   0  0  0  0  0  0  0  0  0  0  0  0
  139.1900   66.8700  221.3910 C   0  0  0  0  0  0  0  0  0  0  0  0
  140.2280   66.3030  220.4570 C   0  0  0  0  0  0  0  0  0  0  0  0
  141.0030   67.3760  219.7770 C   0  0  0  0  0  0  0  0  0  0  0  0
  140.1960   68.4820  219.1780 C   0  0  0  0  0  0  0  0  0  0  0  0
  139.0050   68.8610  220.0430 C   0  0  0  0  0  0  0  0  0  0  0  0
  141.4380   73.5410  221.0520 C   0  0  0  0  0  0  0  0  0  0  0  0
  142.7730   73.8960  220.8580 C   0  0  0  0  0  0  0  0  0  0  0  0
  146.3360   74.0760  218.5520 H   0  0  0  0  0  0  0  0  0  0  0  0
  145.0840   72.9460  218.3170 H   0  0  0  0  0  0  0  0  0  0  0  0
  144.1441   70.8377  220.7348 H   0  0  0  0  0  0  0  0  0  0  0  0
  141.8207   70.2180  221.0736 H   0  0  0  0  0  0  0  0  0  0  0  0
  139.1741   71.3006  220.4914 H   0  0  0  0  0  0  0  0  0  0  0  0
  138.2433   72.7003  222.5535 H   0  0  0  0  0  0  0  0  0  0  0  0
  140.9867   72.5051  226.8837 H   0  0  0  0  0  0  0  0  0  0  0  0
  141.5402   71.0698  228.8346 H   0  0  0  0  0  0  0  0  0  0  0  0
  140.0176   67.6249  226.7838 H   0  0  0  0  0  0  0  0  0  0  0  0
  137.7090   68.3516  222.7637 H   0  0  0  0  0  0  0  0  0  0  0  0
  138.0134   69.8884  221.7670 H   0  0  0  0  0  0  0  0  0  0  0  0
  140.3827   68.5203  221.8143 H   0  0  0  0  0  0  0  0  0  0  0  0
  139.3211   66.4399  222.3949 H   0  0  0  0  0  0  0  0  0  0  0  0
  138.1823   66.6236  221.0251 H   0  0  0  0  0  0  0  0  0  0  0  0
  140.9214   65.6741  221.0346 H   0  0  0  0  0  0  0  0  0  0  0  0
  139.7097   65.7140  219.6861 H   0  0  0  0  0  0  0  0  0  0  0  0
  141.6862   67.8191  220.5165 H   0  0  0  0  0  0  0  0  0  0  0  0
  141.5123   66.8874  218.9333 H   0  0  0  0  0  0  0  0  0  0  0  0
  140.8407   69.3650  219.0573 H   0  0  0  0  0  0  0  0  0  0  0  0
  139.8103   68.1307  218.2096 H   0  0  0  0  0  0  0  0  0  0  0  0
  138.8666   69.9522  220.0548 H   0  0  0  0  0  0  0  0  0  0  0  0
  138.0655   68.4300  219.6668 H   0  0  0  0  0  0  0  0  0  0  0  0
  140.6777   74.3310  221.1399 H   0  0  0  0  0  0  0  0  0  0  0  0
  143.0385   74.9618  220.7987 H   0  0  0  0  0  0  0  0  0  0  0  0
  1  2  1  0
  2  3  2  0
  2  4  2  0
  2  5  1  0
  5  6  2  0
  6  7  1  0
  7  8  2  0
  8  9  1  0
  9 10  2  0
 10 11  1  0
 11 12  2  0
 12 13  1  0
 13 14  2  0
 14 15  1  0
 15 16  2  0
 16 17  1  0
 16 18  1  0
 18 19  2  0
 19 20  1  0
 20 21  2  0
 20 22  1  0
 22 23  1  0
 23 24  1  0
 24 25  1  0
 25 26  1  0
 26 27  1  0
 27 28  1  0
 28 29  1  0
  8 30  1  0
 30 31  2  0
 31  5  1  0
 22 11  1  0
 29 24  1  0
 19 13  1  0
  1 32  1  0
  1 33  1  0
  6 34  1  0
  7 35  1  0
  9 36  1  0
 10 37  1  0
 14 38  1  0
 15 39  1  0
 18 40  1  0
 23 41  1  0
 23 42  1  0
 24 43  1  0
 25 44  1  0
 25 45  1  0
 26 46  1  0
 26 47  1  0
 27 48  1  0
 27 49  1  0
 28 50  1  0
 28 51  1  0
 29 52  1  0
 29 53  1  0
 30 54  1  0
 31 55  1  0
M  END
>  <smiles>  (31) 
NS(=O)(=O)c1ccc(/C=C/c2nc3ccc(F)cc3c(=O)n2CC2CCCCC2)cc1

>  <score_type>  (31) 
oracle

>  <origin>  (31) 
autodockgpu

>  <m_score__min__energy>  (31) 
-9.1300000000000008

>  <m_primary>  (31) 
energy

>  <rmsd>  (31) 
11.205702911858047

>  <m_score__min__rmsd>  (31) 
11.205702911858047

>  <meeko>  (31) 
{"free_energy": -8.47, "intermolecular_energy": -10.56, "internal_energy": -1.79, "cluster_size": 24, "cluster_id": 2, "rank_in_cluster": 14}

>  <energy>  (31) 
-7.61

>  <cluster_rmsd>  (31) 
1.55

>  <cluster>  (31) 
2

$$$$

     RDKit          3D

 55 58  0  0  0  0  0  0  0  0999 V2000
  145.8510   73.3810  218.2010 N   0  0  0  0  0  0  0  0  0  0  0  0
  145.7420   72.6620  219.7530 S   0  0  0  0  0  0  0  0  0  0  0  0
  146.6640   73.4560  220.6580 O   0  0  0  0  0  0  0  0  0  0  0  0
  146.3150   71.2720  219.7240 O   0  0  0  0  0  0  0  0  0  0  0  0
  144.1200   72.7060  220.3970 C   0  0  0  0  0  0  0  0  0  0  0  0
  143.4540   73.9080  220.5660 C   0  0  0  0  0  0  0  0  0  0  0  0
  142.1900   73.9390  221.0680 C   0  0  0  0  0  0  0  0  0  0  0  0
  141.4910   72.7840  221.4410 C   0  0  0  0  0  0  0  0  0  0  0  0
  140.1400   72.9020  221.9710 C   0  0  0  0  0  0  0  0  0  0  0  0
  139.3420   71.8830  222.2030 C   0  0  0  0  0  0  0  0  0  0  0  0
  139.5400   71.0760  223.4000 C   0  0  0  0  0  0  0  0  0  0  0  0
  140.0690   71.6540  224.4940 N   0  0  0  0  0  0  0  0  0  0  0  0
  140.2970   70.9980  225.6310 C   0  0  0  0  0  0  0  0  0  0  0  0
  140.8470   71.6550  226.7220 C   0  0  0  0  0  0  0  0  0  0  0  0
  141.0610   70.9290  227.8690 C   0  0  0  0  0  0  0  0  0  0  0  0
  140.7340   69.5740  227.9270 C   0  0  0  0  0  0  0  0  0  0  0  0
  140.9530   68.8750  229.0700 F   0  0  0  0  0  0  0  0  0  0  0  0
  140.1940   68.9580  226.8310 C   0  0  0  0  0  0  0  0  0  0  0  0
  139.9680   69.6580  225.6680 C   0  0  0  0  0  0  0  0  0  0  0  0
  139.4290   69.0800  224.5480 C   0  0  0  0  0  0  0  0  0  0  0  0
  139.1370   67.8620  224.6050 O   0  0  0  0  0  0  0  0  0  0  0  0
  139.2040   69.7760  223.3940 N   0  0  0  0  0  0  0  0  0  0  0  0
  138.6510   69.0630  222.2990 C   0  0  0  0  0  0  0  0  0  0  0  0
  139.6100   68.4420  221.3290 C   0  0  0  0  0  0  0  0  0  0  0  0
  139.2890   67.0660  220.8780 C   0  0  0  0  0  0  0  0  0  0  0  0
  140.3840   66.5920  219.9570 C   0  0  0  0  0  0  0  0  0  0  0  0
  141.3640   67.6730  219.6640 C   0  0  0  0  0  0  0  0  0  0  0  0
  140.7800   68.9940  219.2750 C   0  0  0  0  0  0  0  0  0  0  0  0
  139.5250   69.3240  220.0660 C   0  0  0  0  0  0  0  0  0  0  0  0
  142.1540   71.6020  221.2710 C   0  0  0  0  0  0  0  0  0  0  0  0
  143.4490   71.5650  220.7560 C   0  0  0  0  0  0  0  0  0  0  0  0
  146.5350   74.1750  218.2920 H   0  0  0  0  0  0  0  0  0  0  0  0
  144.9040   73.7900  217.9920 H   0  0  0  0  0  0  0  0  0  0  0  0
  143.9528   74.8491  220.2911 H   0  0  0  0  0  0  0  0  0  0  0  0
  141.6951   74.9142  221.1862 H   0  0  0  0  0  0  0  0  0  0  0  0
  139.7617   73.9110  222.1921 H   0  0  0  0  0  0  0  0  0  0  0  0
  138.5317   71.6418  221.4993 H   0  0  0  0  0  0  0  0  0  0  0  0
  141.1037   72.7234  226.6706 H   0  0  0  0  0  0  0  0  0  0  0  0
  141.4951   71.4219  228.7514 H   0  0  0  0  0  0  0  0  0  0  0  0
  139.9373   67.8895  226.8802 H   0  0  0  0  0  0  0  0  0  0  0  0
  138.0283   68.2553  222.7111 H   0  0  0  0  0  0  0  0  0  0  0  0
  138.1079   69.8200  221.7141 H   0  0  0  0  0  0  0  0  0  0  0  0
  140.5837   68.3797  221.8370 H   0  0  0  0  0  0  0  0  0  0  0  0
  139.2222   66.3971  221.7487 H   0  0  0  0  0  0  0  0  0  0  0  0
  138.3249   67.0603  220.3484 H   0  0  0  0  0  0  0  0  0  0  0  0
  140.9114   65.7523  220.4330 H   0  0  0  0  0  0  0  0  0  0  0  0
  139.9228   66.2811  219.0080 H   0  0  0  0  0  0  0  0  0  0  0  0
  141.9760   67.8269  220.5650 H   0  0  0  0  0  0  0  0  0  0  0  0
  141.9345   67.3294  218.7885 H   0  0  0  0  0  0  0  0  0  0  0  0
  141.5290   69.7791  219.4557 H   0  0  0  0  0  0  0  0  0  0  0  0
  140.5037   68.9403  218.2116 H   0  0  0  0  0  0  0  0  0  0  0  0
  139.5079   70.3896  220.3383 H   0  0  0  0  0  0  0  0  0  0  0  0
  138.6086   69.1334  219.4881 H   0  0  0  0  0  0  0  0  0  0  0  0
  141.6562   70.6604  221.5459 H   0  0  0  0  0  0  0  0  0  0  0  0
  143.9473   70.5920  220.6340 H   0  0  0  0  0  0  0  0  0  0  0  0
  1  2  1  0
  2  3  2  0
  2  4  2  0
  2  5  1  0
  5  6  2  0
  6  7  1  0
  7  8  2  0
  8  9  1  0
  9 10  2  0
 10 11  1  0
 11 12  2  0
 12 13  1  0
 13 14  2  0
 14 15  1  0
 15 16  2  0
 16 17  1  0
 16 18  1  0
 18 19  2  0
 19 20  1  0
 20 21  2  0
 20 22  1  0
 22 23  1  0
 23 24  1  0
 24 25  1  0
 25 26  1  0
 26 27  1  0
 27 28  1  0
 28 29  1  0
  8 30  1  0
 30 31  2  0
 31  5  1  0
 22 11  1  0
 29 24  1  0
 19 13  1  0
  1 32  1  0
  1 33  1  0
  6 34  1  0
  7 35  1  0
  9 36  1  0
 10 37  1  0
 14 38  1  0
 15 39  1  0
 18 40  1  0
 23 41  1  0
 23 42  1  0
 24 43  1  0
 25 44  1  0
 25 45  1  0
 26 46  1  0
 26 47  1  0
 27 48  1  0
 27 49  1  0
 28 50  1  0
 28 51  1  0
 29 52  1  0
 29 53  1  0
 30 54  1  0
 31 55  1  0
M  END
>  <smiles>  (32) 
NS(=O)(=O)c1ccc(/C=C/c2nc3ccc(F)cc3c(=O)n2CC2CCCCC2)cc1

>  <score_type>  (32) 
oracle

>  <origin>  (32) 
autodockgpu

>  <m_score__min__energy>  (32) 
-9.1300000000000008

>  <m_primary>  (32) 
energy

>  <rmsd>  (32) 
10.991460993081517

>  <m_score__min__rmsd>  (32) 
10.991460993081517

>  <meeko>  (32) 
{"free_energy": -8.72, "intermolecular_energy": -10.81, "internal_energy": -1.86, "cluster_size": 24, "cluster_id": 2, "rank_in_cluster": 8}

>  <energy>  (32) 
-8.85

>  <cluster_rmsd>  (32) 
0.0

>  <cluster>  (32) 
3

$$$$

     RDKit          3D

 55 58  0  0  0  0  0  0  0  0999 V2000
  146.6690   74.1080  220.2730 N   0  0  0  0  0  0  0  0  0  0  0  0
  145.6690   72.9110  219.5620 S   0  0  0  0  0  0  0  0  0  0  0  0
  146.3220   71.5760  219.8630 O   0  0  0  0  0  0  0  0  0  0  0  0
  145.6930   73.0350  218.0630 O   0  0  0  0  0  0  0  0  0  0  0  0
  144.0490   72.9230  220.2100 C   0  0  0  0  0  0  0  0  0  0  0  0
  143.3140   74.0950  220.2700 C   0  0  0  0  0  0  0  0  0  0  0  0
  142.0510   74.1010  220.7740 C   0  0  0  0  0  0  0  0  0  0  0  0
  141.4200   72.9480  221.2590 C   0  0  0  0  0  0  0  0  0  0  0  0
  140.0650   73.0380  221.7840 C   0  0  0  0  0  0  0  0  0  0  0  0
  139.2750   72.0050  221.9800 C   0  0  0  0  0  0  0  0  0  0  0  0
  139.4210   71.2100  223.1920 C   0  0  0  0  0  0  0  0  0  0  0  0
  140.1110   71.7220  224.2260 N   0  0  0  0  0  0  0  0  0  0  0  0
  140.3070   71.0690  225.3710 C   0  0  0  0  0  0  0  0  0  0  0  0
  141.0300   71.6570  226.4000 C   0  0  0  0  0  0  0  0  0  0  0  0
  141.2020   70.9370  227.5570 C   0  0  0  0  0  0  0  0  0  0  0  0
  140.6640   69.6560  227.6880 C   0  0  0  0  0  0  0  0  0  0  0  0
  140.8450   68.9630  228.8410 F   0  0  0  0  0  0  0  0  0  0  0  0
  139.9570   69.1080  226.6530 C   0  0  0  0  0  0  0  0  0  0  0  0
  139.7680   69.8030  225.4810 C   0  0  0  0  0  0  0  0  0  0  0  0
  139.0660   69.2910  224.4200 C   0  0  0  0  0  0  0  0  0  0  0  0
  138.5850   68.1410  224.5420 O   0  0  0  0  0  0  0  0  0  0  0  0
  138.8790   69.9830  223.2570 N   0  0  0  0  0  0  0  0  0  0  0  0
  138.1430   69.3420  222.2270 C   0  0  0  0  0  0  0  0  0  0  0  0
  138.9210   68.5620  221.2110 C   0  0  0  0  0  0  0  0  0  0  0  0
  140.2550   69.1010  220.8500 C   0  0  0  0  0  0  0  0  0  0  0  0
  140.8590   68.2210  219.7850 C   0  0  0  0  0  0  0  0  0  0  0  0
  140.0210   67.0190  219.5230 C   0  0  0  0  0  0  0  0  0  0  0  0
  139.5610   66.2700  220.7310 C   0  0  0  0  0  0  0  0  0  0  0  0
  139.1900   67.1970  221.8770 C   0  0  0  0  0  0  0  0  0  0  0  0
  142.1500   71.7950  221.1970 C   0  0  0  0  0  0  0  0  0  0  0  0
  143.4450   71.7840  220.6790 C   0  0  0  0  0  0  0  0  0  0  0  0
  146.0450   74.9320  220.4720 H   0  0  0  0  0  0  0  0  0  0  0  0
  147.3620   74.3970  219.5360 H   0  0  0  0  0  0  0  0  0  0  0  0
  143.7575   75.0332  219.9053 H   0  0  0  0  0  0  0  0  0  0  0  0
  141.5006   75.0530  220.8021 H   0  0  0  0  0  0  0  0  0  0  0  0
  139.6762   74.0363  222.0333 H   0  0  0  0  0  0  0  0  0  0  0  0
  138.5098   71.7432  221.2344 H   0  0  0  0  0  0  0  0  0  0  0  0
  141.4517   72.6672  226.2922 H   0  0  0  0  0  0  0  0  0  0  0  0
  141.7706   71.3754  228.3904 H   0  0  0  0  0  0  0  0  0  0  0  0
  139.5340   68.0982  226.7593 H   0  0  0  0  0  0  0  0  0  0  0  0
  137.4377   68.6479  222.7074 H   0  0  0  0  0  0  0  0  0  0  0  0
  137.6784   70.1616  221.6592 H   0  0  0  0  0  0  0  0  0  0  0  0
  138.3280   68.5632  220.2845 H   0  0  0  0  0  0  0  0  0  0  0  0
  140.1487   70.1265  220.4666 H   0  0  0  0  0  0  0  0  0  0  0  0
  140.9056   69.1171  221.7368 H   0  0  0  0  0  0  0  0  0  0  0  0
  140.9521   68.8003  218.8545 H   0  0  0  0  0  0  0  0  0  0  0  0
  141.8438   67.8818  220.1386 H   0  0  0  0  0  0  0  0  0  0  0  0
  139.1288   67.3443  218.9678 H   0  0  0  0  0  0  0  0  0  0  0  0
  140.6651   66.3218  218.9671 H   0  0  0  0  0  0  0  0  0  0  0  0
  138.6791   65.6705  220.4611 H   0  0  0  0  0  0  0  0  0  0  0  0
  140.3916   65.6327  221.0687 H   0  0  0  0  0  0  0  0  0  0  0  0
  138.2889   66.8336  222.3928 H   0  0  0  0  0  0  0  0  0  0  0  0
  139.9838   67.2556  222.6363 H   0  0  0  0  0  0  0  0  0  0  0  0
  141.7077   70.8566  221.5629 H   0  0  0  0  0  0  0  0  0  0  0  0
  143.9984   70.8339  220.6455 H   0  0  0  0  0  0  0  0  0  0  0  0
  1  2  1  0
  2  3  2  0
  2  4  2  0
  2  5  1  0
  5  6  2  0
  6  7  1  0
  7  8  2  0
  8  9  1  0
  9 10  2  0
 10 11  1  0
 11 12  2  0
 12 13  1  0
 13 14  2  0
 14 15  1  0
 15 16  2  0
 16 17  1  0
 16 18  1  0
 18 19  2  0
 19 20  1  0
 20 21  2  0
 20 22  1  0
 22 23  1  0
 23 24  1  0
 24 25  1  0
 25 26  1  0
 26 27  1  0
 27 28  1  0
 28 29  1  0
  8 30  1  0
 30 31  2  0
 31  5  1  0
 22 11  1  0
 29 24  1  0
 19 13  1  0
  1 32  1  0
  1 33  1  0
  6 34  1  0
  7 35  1  0
  9 36  1  0
 10 37  1  0
 14 38  1  0
 15 39  1  0
 18 40  1  0
 23 41  1  0
 23 42  1  0
 24 43  1  0
 25 44  1  0
 25 45  1  0
 26 46  1  0
 26 47  1  0
 27 48  1  0
 27 49  1  0
 28 50  1  0
 28 51  1  0
 29 52  1  0
 29 53  1  0
 30 54  1  0
 31 55  1  0
M  END
>  <smiles>  (33) 
NS(=O)(=O)c1ccc(/C=C/c2nc3ccc(F)cc3c(=O)n2CC2CCCCC2)cc1

>  <score_type>  (33) 
oracle

>  <origin>  (33) 
autodockgpu

>  <m_score__min__energy>  (33) 
-9.1300000000000008

>  <m_primary>  (33) 
energy

>  <rmsd>  (33) 
10.38680310248749

>  <m_score__min__rmsd>  (33) 
10.38680310248749

>  <meeko>  (33) 
{"free_energy": -8.57, "intermolecular_energy": -10.66, "internal_energy": -1.71, "cluster_size": 24, "cluster_id": 2, "rank_in_cluster": 11}

>  <energy>  (33) 
-8.41

>  <cluster_rmsd>  (33) 
1.12

>  <cluster>  (33) 
3

$$$$

     RDKit          3D

 55 58  0  0  0  0  0  0  0  0999 V2000
  139.1770   67.0590  226.3910 N   0  0  0  0  0  0  0  0  0  0  0  0
  140.1470   68.4500  226.6430 S   0  0  0  0  0  0  0  0  0  0  0  0
  141.5880   67.9800  226.5960 O   0  0  0  0  0  0  0  0  0  0  0  0
  139.9480   68.9790  228.0360 O   0  0  0  0  0  0  0  0  0  0  0  0
  139.8960   69.6700  225.4200 C   0  0  0  0  0  0  0  0  0  0  0  0
  140.9000   70.5650  225.0920 C   0  0  0  0  0  0  0  0  0  0  0  0
  140.7020   71.5150  224.1380 C   0  0  0  0  0  0  0  0  0  0  0  0
  139.4970   71.6500  223.4380 C   0  0  0  0  0  0  0  0  0  0  0  0
  139.3640   72.6940  222.4310 C   0  0  0  0  0  0  0  0  0  0  0  0
  140.2490   72.9320  221.4880 C   0  0  0  0  0  0  0  0  0  0  0  0
  140.7030   74.2970  221.2590 C   0  0  0  0  0  0  0  0  0  0  0  0
  140.2140   75.2830  222.0320 N   0  0  0  0  0  0  0  0  0  0  0  0
  140.5600   76.5620  221.8940 C   0  0  0  0  0  0  0  0  0  0  0  0
  140.0170   77.5310  222.7270 C   0  0  0  0  0  0  0  0  0  0  0  0
  140.4100   78.8340  222.5380 C   0  0  0  0  0  0  0  0  0  0  0  0
  141.3250   79.1660  221.5400 C   0  0  0  0  0  0  0  0  0  0  0  0
  141.7000   80.4600  221.3710 F   0  0  0  0  0  0  0  0  0  0  0  0
  141.8400   78.1860  220.7370 C   0  0  0  0  0  0  0  0  0  0  0  0
  141.4670   76.8710  220.9000 C   0  0  0  0  0  0  0  0  0  0  0  0
  141.9590   75.8580  220.1180 C   0  0  0  0  0  0  0  0  0  0  0  0
  142.7800   76.1610  219.2220 O   0  0  0  0  0  0  0  0  0  0  0  0
  141.5880   74.5530  220.2810 N   0  0  0  0  0  0  0  0  0  0  0  0
  142.1580   73.5970  219.4030 C   0  0  0  0  0  0  0  0  0  0  0  0
  143.5820   73.2020  219.6480 C   0  0  0  0  0  0  0  0  0  0  0  0
  144.2330   73.7980  220.8410 C   0  0  0  0  0  0  0  0  0  0  0  0
  145.6650   73.3300  220.8940 C   0  0  0  0  0  0  0  0  0  0  0  0
  145.9530   72.3180  219.8420 C   0  0  0  0  0  0  0  0  0  0  0  0
  144.9620   71.2060  219.7190 C   0  0  0  0  0  0  0  0  0  0  0  0
  143.5330   71.6840  219.9170 C   0  0  0  0  0  0  0  0  0  0  0  0
  138.5110   70.7630  223.7660 C   0  0  0  0  0  0  0  0  0  0  0  0
  138.7100   69.7880  224.7420 C   0  0  0  0  0  0  0  0  0  0  0  0
  138.1830   67.3990  226.3420 H   0  0  0  0  0  0  0  0  0  0  0  0
  139.2750   66.4650  227.2540 H   0  0  0  0  0  0  0  0  0  0  0  0
  141.8694   70.5075  225.6087 H   0  0  0  0  0  0  0  0  0  0  0  0
  141.5249   72.2073  223.9066 H   0  0  0  0  0  0  0  0  0  0  0  0
  138.4636   73.3251  222.4614 H   0  0  0  0  0  0  0  0  0  0  0  0
  140.6434   72.1068  220.8769 H   0  0  0  0  0  0  0  0  0  0  0  0
  139.2953   77.2641  223.5131 H   0  0  0  0  0  0  0  0  0  0  0  0
  139.9977   79.6247  223.1820 H   0  0  0  0  0  0  0  0  0  0  0  0
  142.5617   78.4521  219.9506 H   0  0  0  0  0  0  0  0  0  0  0  0
  141.5466   72.6847  219.4659 H   0  0  0  0  0  0  0  0  0  0  0  0
  142.1665   74.0876  218.4185 H   0  0  0  0  0  0  0  0  0  0  0  0
  144.1626   73.5425  218.7780 H   0  0  0  0  0  0  0  0  0  0  0  0
  144.2045   74.8953  220.7689 H   0  0  0  0  0  0  0  0  0  0  0  0
  143.7026   73.4860  221.7528 H   0  0  0  0  0  0  0  0  0  0  0  0
  146.3283   74.1952  220.7474 H   0  0  0  0  0  0  0  0  0  0  0  0
  145.8368   72.8630  221.8750 H   0  0  0  0  0  0  0  0  0  0  0  0
  145.9961   72.8399  218.8747 H   0  0  0  0  0  0  0  0  0  0  0  0
  146.9000   71.8423  220.1370 H   0  0  0  0  0  0  0  0  0  0  0  0
  145.0510   70.7618  218.7166 H   0  0  0  0  0  0  0  0  0  0  0  0
  145.1829   70.4691  220.5053 H   0  0  0  0  0  0  0  0  0  0  0  0
  142.8565   71.1866  219.2065 H   0  0  0  0  0  0  0  0  0  0  0  0
  143.1549   71.4537  220.9240 H   0  0  0  0  0  0  0  0  0  0  0  0
  137.5413   70.8194  223.2498 H   0  0  0  0  0  0  0  0  0  0  0  0
  137.8907   69.0921  224.9754 H   0  0  0  0  0  0  0  0  0  0  0  0
  1  2  1  0
  2  3  2  0
  2  4  2  0
  2  5  1  0
  5  6  2  0
  6  7  1  0
  7  8  2  0
  8  9  1  0
  9 10  2  0
 10 11  1  0
 11 12  2  0
 12 13  1  0
 13 14  2  0
 14 15  1  0
 15 16  2  0
 16 17  1  0
 16 18  1  0
 18 19  2  0
 19 20  1  0
 20 21  2  0
 20 22  1  0
 22 23  1  0
 23 24  1  0
 24 25  1  0
 25 26  1  0
 26 27  1  0
 27 28  1  0
 28 29  1  0
  8 30  1  0
 30 31  2  0
 31  5  1  0
 22 11  1  0
 29 24  1  0
 19 13  1  0
  1 32  1  0
  1 33  1  0
  6 34  1  0
  7 35  1  0
  9 36  1  0
 10 37  1  0
 14 38  1  0
 15 39  1  0
 18 40  1  0
 23 41  1  0
 23 42  1  0
 24 43  1  0
 25 44  1  0
 25 45  1  0
 26 46  1  0
 26 47  1  0
 27 48  1  0
 27 49  1  0
 28 50  1  0
 28 51  1  0
 29 52  1  0
 29 53  1  0
 30 54  1  0
 31 55  1  0
M  END
>  <smiles>  (34) 
NS(=O)(=O)c1ccc(/C=C/c2nc3ccc(F)cc3c(=O)n2CC2CCCCC2)cc1

>  <score_type>  (34) 
oracle

>  <origin>  (34) 
autodockgpu

>  <m_score__min__energy>  (34) 
-9.1300000000000008

>  <m_primary>  (34) 
energy

>  <rmsd>  (34) 
5.441443453913409

>  <m_score__min__rmsd>  (34) 
5.441443453913409

>  <meeko>  (34) 
{"free_energy": -8.87, "intermolecular_energy": -10.96, "internal_energy": -1.37, "cluster_size": 7, "cluster_id": 1, "rank_in_cluster": 5}

>  <energy>  (34) 
-8.27

>  <cluster_rmsd>  (34) 
0.0

>  <cluster>  (34) 
4

$$$$

     RDKit          3D

 55 58  0  0  0  0  0  0  0  0999 V2000
  145.8300   73.7590  217.5510 N   0  0  0  0  0  0  0  0  0  0  0  0
  145.5370   73.0600  219.0880 S   0  0  0  0  0  0  0  0  0  0  0  0
  146.7450   73.3900  219.9440 O   0  0  0  0  0  0  0  0  0  0  0  0
  145.5240   71.5590  218.9840 O   0  0  0  0  0  0  0  0  0  0  0  0
  144.0990   73.6920  219.8480 C   0  0  0  0  0  0  0  0  0  0  0  0
  143.2120   72.8540  220.5020 C   0  0  0  0  0  0  0  0  0  0  0  0
  142.0920   73.3490  221.0930 C   0  0  0  0  0  0  0  0  0  0  0  0
  141.7650   74.7110  221.0830 C   0  0  0  0  0  0  0  0  0  0  0  0
  140.5460   75.1620  221.7400 C   0  0  0  0  0  0  0  0  0  0  0  0
  139.4070   75.3800  221.1210 C   0  0  0  0  0  0  0  0  0  0  0  0
  138.3510   76.1180  221.8020 C   0  0  0  0  0  0  0  0  0  0  0  0
  137.3710   75.4320  222.4170 N   0  0  0  0  0  0  0  0  0  0  0  0
  136.3580   76.0160  223.0560 C   0  0  0  0  0  0  0  0  0  0  0  0
  135.3790   75.2480  223.6700 C   0  0  0  0  0  0  0  0  0  0  0  0
  134.3580   75.9040  224.3150 C   0  0  0  0  0  0  0  0  0  0  0  0
  134.3130   77.2980  224.3470 C   0  0  0  0  0  0  0  0  0  0  0  0
  133.2950   77.9260  224.9890 F   0  0  0  0  0  0  0  0  0  0  0  0
  135.2950   78.0230  223.7300 C   0  0  0  0  0  0  0  0  0  0  0  0
  136.3310   77.3960  223.0760 C   0  0  0  0  0  0  0  0  0  0  0  0
  137.3360   78.0850  222.4460 C   0  0  0  0  0  0  0  0  0  0  0  0
  137.2900   79.3370  222.4760 O   0  0  0  0  0  0  0  0  0  0  0  0
  138.3640   77.4610  221.7970 N   0  0  0  0  0  0  0  0  0  0  0  0
  139.3370   78.2830  221.1740 C   0  0  0  0  0  0  0  0  0  0  0  0
  140.3000   79.0040  222.0670 C   0  0  0  0  0  0  0  0  0  0  0  0
  140.9890   78.1810  223.0920 C   0  0  0  0  0  0  0  0  0  0  0  0
  141.8690   79.0810  223.9210 C   0  0  0  0  0  0  0  0  0  0  0  0
  141.8980   80.4690  223.3860 C   0  0  0  0  0  0  0  0  0  0  0  0
  142.1270   80.5960  221.9150 C   0  0  0  0  0  0  0  0  0  0  0  0
  141.4120   79.5110  221.1250 C   0  0  0  0  0  0  0  0  0  0  0  0
  142.6440   75.5320  220.4370 C   0  0  0  0  0  0  0  0  0  0  0  0
  143.7940   75.0290  219.8300 C   0  0  0  0  0  0  0  0  0  0  0  0
  146.8140   74.1290  217.5780 H   0  0  0  0  0  0  0  0  0  0  0  0
  145.1760   74.5800  217.4650 H   0  0  0  0  0  0  0  0  0  0  0  0
  143.4160   71.7739  220.5440 H   0  0  0  0  0  0  0  0  0  0  0  0
  141.4127   72.6490  221.6014 H   0  0  0  0  0  0  0  0  0  0  0  0
  140.5807   75.3315  222.8263 H   0  0  0  0  0  0  0  0  0  0  0  0
  139.2523   75.0084  220.0973 H   0  0  0  0  0  0  0  0  0  0  0  0
  135.4188   74.1491  223.6414 H   0  0  0  0  0  0  0  0  0  0  0  0
  133.5670   75.3231  224.8119 H   0  0  0  0  0  0  0  0  0  0  0  0
  135.2562   79.1220  223.7568 H   0  0  0  0  0  0  0  0  0  0  0  0
  139.9263   77.6444  220.4995 H   0  0  0  0  0  0  0  0  0  0  0  0
  138.7603   79.0784  220.6794 H   0  0  0  0  0  0  0  0  0  0  0  0
  139.7208   79.7595  222.6181 H   0  0  0  0  0  0  0  0  0  0  0  0
  140.2438   77.6941  223.7382 H   0  0  0  0  0  0  0  0  0  0  0  0
  141.5985   77.4063  222.6037 H   0  0  0  0  0  0  0  0  0  0  0  0
  141.4846   79.1043  224.9514 H   0  0  0  0  0  0  0  0  0  0  0  0
  142.8932   78.6809  223.8906 H   0  0  0  0  0  0  0  0  0  0  0  0
  140.9317   80.9403  223.6187 H   0  0  0  0  0  0  0  0  0  0  0  0
  142.7608   80.9550  223.8649 H   0  0  0  0  0  0  0  0  0  0  0  0
  141.7577   81.5774  221.5827 H   0  0  0  0  0  0  0  0  0  0  0  0
  143.2065   80.4905  221.7316 H   0  0  0  0  0  0  0  0  0  0  0  0
  140.9791   79.9251  220.2024 H   0  0  0  0  0  0  0  0  0  0  0  0
  142.0939   78.7048  220.8166 H   0  0  0  0  0  0  0  0  0  0  0  0
  142.4408   76.6122  220.3945 H   0  0  0  0  0  0  0  0  0  0  0  0
  144.4771   75.7253  219.3215 H   0  0  0  0  0  0  0  0  0  0  0  0
  1  2  1  0
  2  3  2  0
  2  4  2  0
  2  5  1  0
  5  6  2  0
  6  7  1  0
  7  8  2  0
  8  9  1  0
  9 10  2  0
 10 11  1  0
 11 12  2  0
 12 13  1  0
 13 14  2  0
 14 15  1  0
 15 16  2  0
 16 17  1  0
 16 18  1  0
 18 19  2  0
 19 20  1  0
 20 21  2  0
 20 22  1  0
 22 23  1  0
 23 24  1  0
 24 25  1  0
 25 26  1  0
 26 27  1  0
 27 28  1  0
 28 29  1  0
  8 30  1  0
 30 31  2  0
 31  5  1  0
 22 11  1  0
 29 24  1  0
 19 13  1  0
  1 32  1  0
  1 33  1  0
  6 34  1  0
  7 35  1  0
  9 36  1  0
 10 37  1  0
 14 38  1  0
 15 39  1  0
 18 40  1  0
 23 41  1  0
 23 42  1  0
 24 43  1  0
 25 44  1  0
 25 45  1  0
 26 46  1  0
 26 47  1  0
 27 48  1  0
 27 49  1  0
 28 50  1  0
 28 51  1  0
 29 52  1  0
 29 53  1  0
 30 54  1  0
 31 55  1  0
M  END
>  <smiles>  (35) 
NS(=O)(=O)c1ccc(/C=C/c2nc3ccc(F)cc3c(=O)n2CC2CCCCC2)cc1

>  <score_type>  (35) 
oracle

>  <origin>  (35) 
autodockgpu

>  <m_score__min__energy>  (35) 
-9.1300000000000008

>  <m_primary>  (35) 
energy

>  <rmsd>  (35) 
6.778850913585044

>  <m_score__min__rmsd>  (35) 
6.778850913585044

>  <meeko>  (35) 
{"free_energy": -7.75, "intermolecular_energy": -9.83, "internal_energy": -1.57, "cluster_size": 3, "cluster_id": 8, "rank_in_cluster": 3}

>  <energy>  (35) 
-8.18

>  <cluster_rmsd>  (35) 
0.95

>  <cluster>  (35) 
4

$$$$

     RDKit          3D

 55 58  0  0  0  0  0  0  0  0999 V2000
  145.9430   73.4220  218.2960 N   0  0  0  0  0  0  0  0  0  0  0  0
  145.7580   72.6140  219.7960 S   0  0  0  0  0  0  0  0  0  0  0  0
  146.6900   73.3060  220.7720 O   0  0  0  0  0  0  0  0  0  0  0  0
  146.2680   71.2030  219.6940 O   0  0  0  0  0  0  0  0  0  0  0  0
  144.1230   72.6940  220.4020 C   0  0  0  0  0  0  0  0  0  0  0  0
  143.4690   71.5530  220.8360 C   0  0  0  0  0  0  0  0  0  0  0  0
  142.1950   71.6180  221.3080 C   0  0  0  0  0  0  0  0  0  0  0  0
  141.4720   72.8160  221.3850 C   0  0  0  0  0  0  0  0  0  0  0  0
  140.1110   72.8010  221.9030 C   0  0  0  0  0  0  0  0  0  0  0  0
  139.4010   71.7110  222.0930 C   0  0  0  0  0  0  0  0  0  0  0  0
  139.5910   70.9350  223.3110 C   0  0  0  0  0  0  0  0  0  0  0  0
  140.1130   71.5400  224.3930 N   0  0  0  0  0  0  0  0  0  0  0  0
  140.3340   70.9130  225.5480 C   0  0  0  0  0  0  0  0  0  0  0  0
  140.8770   71.5980  226.6260 C   0  0  0  0  0  0  0  0  0  0  0  0
  141.0830   70.9010  227.7920 C   0  0  0  0  0  0  0  0  0  0  0  0
  140.7560   69.5480  227.8820 C   0  0  0  0  0  0  0  0  0  0  0  0
  140.9690   68.8780  229.0440 F   0  0  0  0  0  0  0  0  0  0  0  0
  140.2240   68.9040  226.7990 C   0  0  0  0  0  0  0  0  0  0  0  0
  140.0050   69.5740  225.6170 C   0  0  0  0  0  0  0  0  0  0  0  0
  139.4730   68.9680  224.5080 C   0  0  0  0  0  0  0  0  0  0  0  0
  139.1820   67.7520  224.5930 O   0  0  0  0  0  0  0  0  0  0  0  0
  139.2560   69.6350  223.3350 N   0  0  0  0  0  0  0  0  0  0  0  0
  138.7100   68.8950  222.2550 C   0  0  0  0  0  0  0  0  0  0  0  0
  139.6720   68.3250  221.2580 C   0  0  0  0  0  0  0  0  0  0  0  0
  139.4290   66.9230  220.8370 C   0  0  0  0  0  0  0  0  0  0  0  0
  140.5190   66.5110  219.8800 C   0  0  0  0  0  0  0  0  0  0  0  0
  141.4110   67.6510  219.5370 C   0  0  0  0  0  0  0  0  0  0  0  0
  140.7260   68.9230  219.1540 C   0  0  0  0  0  0  0  0  0  0  0  0
  139.4810   69.1790  219.9880 C   0  0  0  0  0  0  0  0  0  0  0  0
  142.1240   73.9370  220.9560 C   0  0  0  0  0  0  0  0  0  0  0  0
  143.4300   73.8750  220.4720 C   0  0  0  0  0  0  0  0  0  0  0  0
  146.8790   73.9000  218.3330 H   0  0  0  0  0  0  0  0  0  0  0  0
  145.1990   74.1660  218.2620 H   0  0  0  0  0  0  0  0  0  0  0  0
  143.9859   70.5828  220.7986 H   0  0  0  0  0  0  0  0  0  0  0  0
  141.7109   70.6892  221.6441 H   0  0  0  0  0  0  0  0  0  0  0  0
  139.6459   73.7663  222.1519 H   0  0  0  0  0  0  0  0  0  0  0  0
  138.6692   71.3875  221.3381 H   0  0  0  0  0  0  0  0  0  0  0  0
  141.1342   72.6648  226.5494 H   0  0  0  0  0  0  0  0  0  0  0  0
  141.5108   71.4160  228.6648 H   0  0  0  0  0  0  0  0  0  0  0  0
  139.9679   67.8368  226.8737 H   0  0  0  0  0  0  0  0  0  0  0  0
  138.1416   68.0561  222.6830 H   0  0  0  0  0  0  0  0  0  0  0  0
  138.1122   69.6230  221.6870 H   0  0  0  0  0  0  0  0  0  0  0  0
  140.6655   68.3363  221.7300 H   0  0  0  0  0  0  0  0  0  0  0  0
  139.4412   66.2644  221.7180 H   0  0  0  0  0  0  0  0  0  0  0  0
  138.4482   66.8434  220.3454 H   0  0  0  0  0  0  0  0  0  0  0  0
  141.1199   65.7158  220.3454 H   0  0  0  0  0  0  0  0  0  0  0  0
  140.0449   66.1561  218.9531 H   0  0  0  0  0  0  0  0  0  0  0  0
  142.0437   67.8592  220.4124 H   0  0  0  0  0  0  0  0  0  0  0  0
  141.9703   67.3335  218.6446 H   0  0  0  0  0  0  0  0  0  0  0  0
  141.4262   69.7592  219.2970 H   0  0  0  0  0  0  0  0  0  0  0  0
  140.4156   68.8357  218.1023 H   0  0  0  0  0  0  0  0  0  0  0  0
  139.4010   70.2451  220.2469 H   0  0  0  0  0  0  0  0  0  0  0  0
  138.5594   68.9173  219.4476 H   0  0  0  0  0  0  0  0  0  0  0  0
  141.6084   74.9080  220.9931 H   0  0  0  0  0  0  0  0  0  0  0  0
  143.9191   74.8013  220.1362 H   0  0  0  0  0  0  0  0  0  0  0  0
  1  2  1  0
  2  3  2  0
  2  4  2  0
  2  5  1  0
  5  6  2  0
  6  7  1  0
  7  8  2  0
  8  9  1  0
  9 10  2  0
 10 11  1  0
 11 12  2  0
 12 13  1  0
 13 14  2  0
 14 15  1  0
 15 16  2  0
 16 17  1  0
 16 18  1  0
 18 19  2  0
 19 20  1  0
 20 21  2  0
 20 22  1  0
 22 23  1  0
 23 24  1  0
 24 25  1  0
 25 26  1  0
 26 27  1  0
 27 28  1  0
 28 29  1  0
  8 30  1  0
 30 31  2  0
 31  5  1  0
 22 11  1  0
 29 24  1  0
 19 13  1  0
  1 32  1  0
  1 33  1  0
  6 34  1  0
  7 35  1  0
  9 36  1  0
 10 37  1  0
 14 38  1  0
 15 39  1  0
 18 40  1  0
 23 41  1  0
 23 42  1  0
 24 43  1  0
 25 44  1  0
 25 45  1  0
 26 46  1  0
 26 47  1  0
 27 48  1  0
 27 49  1  0
 28 50  1  0
 28 51  1  0
 29 52  1  0
 29 53  1  0
 30 54  1  0
 31 55  1  0
M  END
>  <smiles>  (36) 
NS(=O)(=O)c1ccc(/C=C/c2nc3ccc(F)cc3c(=O)n2CC2CCCCC2)cc1

>  <score_type>  (36) 
oracle

>  <origin>  (36) 
autodockgpu

>  <m_score__min__energy>  (36) 
-9.1300000000000008

>  <m_primary>  (36) 
energy

>  <rmsd>  (36) 
11.04197444814344

>  <m_score__min__rmsd>  (36) 
11.04197444814344

>  <meeko>  (36) 
{"free_energy": -8.99, "intermolecular_energy": -11.08, "internal_energy": -1.83, "cluster_size": 24, "cluster_id": 2, "rank_in_cluster": 2}

>  <energy>  (36) 
-8.12

>  <cluster_rmsd>  (36) 
1.14

>  <cluster>  (36) 
4

$$$$

     RDKit          3D

 55 58  0  0  0  0  0  0  0  0999 V2000
  141.3390   67.5940  227.0640 N   0  0  0  0  0  0  0  0  0  0  0  0
  139.7860   68.2500  226.7550 S   0  0  0  0  0  0  0  0  0  0  0  0
  139.3000   68.8330  228.0680 O   0  0  0  0  0  0  0  0  0  0  0  0
  138.8130   67.1520  226.4240 O   0  0  0  0  0  0  0  0  0  0  0  0
  139.8200   69.5050  225.5420 C   0  0  0  0  0  0  0  0  0  0  0  0
  138.9800   69.4540  224.4420 C   0  0  0  0  0  0  0  0  0  0  0  0
  139.0080   70.4330  223.4990 C   0  0  0  0  0  0  0  0  0  0  0  0
  139.8690   71.5350  223.5720 C   0  0  0  0  0  0  0  0  0  0  0  0
  139.8380   72.5420  222.5190 C   0  0  0  0  0  0  0  0  0  0  0  0
  140.8780   72.8880  221.7940 C   0  0  0  0  0  0  0  0  0  0  0  0
  141.0560   74.2840  221.4170 C   0  0  0  0  0  0  0  0  0  0  0  0
  140.4330   75.2360  222.1340 N   0  0  0  0  0  0  0  0  0  0  0  0
  140.5260   76.5370  221.8620 C   0  0  0  0  0  0  0  0  0  0  0  0
  139.8550   77.4680  222.6440 C   0  0  0  0  0  0  0  0  0  0  0  0
  139.9870   78.7960  222.3170 C   0  0  0  0  0  0  0  0  0  0  0  0
  140.7710   79.1900  221.2320 C   0  0  0  0  0  0  0  0  0  0  0  0
  140.8870   80.5070  220.9270 F   0  0  0  0  0  0  0  0  0  0  0  0
  141.4160   78.2450  220.4830 C   0  0  0  0  0  0  0  0  0  0  0  0
  141.3050   76.9070  220.7840 C   0  0  0  0  0  0  0  0  0  0  0  0
  141.9360   75.9280  220.0600 C   0  0  0  0  0  0  0  0  0  0  0  0
  142.6380   76.2860  219.0860 O   0  0  0  0  0  0  0  0  0  0  0  0
  141.8250   74.6000  220.3610 N   0  0  0  0  0  0  0  0  0  0  0  0
  142.5170   73.6820  219.5310 C   0  0  0  0  0  0  0  0  0  0  0  0
  143.8650   73.2200  219.9920 C   0  0  0  0  0  0  0  0  0  0  0  0
  144.6110   72.3360  219.0630 C   0  0  0  0  0  0  0  0  0  0  0  0
  145.9090   71.9350  219.7160 C   0  0  0  0  0  0  0  0  0  0  0  0
  146.1200   72.6450  221.0070 C   0  0  0  0  0  0  0  0  0  0  0  0
  145.8900   74.1220  220.9830 C   0  0  0  0  0  0  0  0  0  0  0  0
  144.7080   74.5070  220.1080 C   0  0  0  0  0  0  0  0  0  0  0  0
  140.6940   71.5790  224.6590 C   0  0  0  0  0  0  0  0  0  0  0  0
  140.6690   70.5780  225.6290 C   0  0  0  0  0  0  0  0  0  0  0  0
  141.7590   67.3780  226.1240 H   0  0  0  0  0  0  0  0  0  0  0  0
  141.1850   66.6830  227.5680 H   0  0  0  0  0  0  0  0  0  0  0  0
  138.2818   68.6114  224.3300 H   0  0  0  0  0  0  0  0  0  0  0  0
  138.3242   70.3561  222.6408 H   0  0  0  0  0  0  0  0  0  0  0  0
  138.8810   73.0456  222.3178 H   0  0  0  0  0  0  0  0  0  0  0  0
  141.6081   72.1299  221.4744 H   0  0  0  0  0  0  0  0  0  0  0  0
  139.2376   77.1524  223.4979 H   0  0  0  0  0  0  0  0  0  0  0  0
  139.4684   79.5577  222.9177 H   0  0  0  0  0  0  0  0  0  0  0  0
  142.0324   78.5590  219.6277 H   0  0  0  0  0  0  0  0  0  0  0  0
  141.8815   72.7907  219.4226 H   0  0  0  0  0  0  0  0  0  0  0  0
  142.7112   74.2343  218.5998 H   0  0  0  0  0  0  0  0  0  0  0  0
  143.7056   72.6355  220.9101 H   0  0  0  0  0  0  0  0  0  0  0  0
  144.0132   71.4386  218.8456 H   0  0  0  0  0  0  0  0  0  0  0  0
  144.8134   72.8671  218.1212 H   0  0  0  0  0  0  0  0  0  0  0  0
  145.8933   70.8513  219.9039 H   0  0  0  0  0  0  0  0  0  0  0  0
  146.7314   72.2064  219.0378 H   0  0  0  0  0  0  0  0  0  0  0  0
  145.4340   72.2087  221.7480 H   0  0  0  0  0  0  0  0  0  0  0  0
  147.1846   72.5126  221.2500 H   0  0  0  0  0  0  0  0  0  0  0  0
  145.6975   74.4669  222.0096 H   0  0  0  0  0  0  0  0  0  0  0  0
  146.7890   74.5961  220.5623 H   0  0  0  0  0  0  0  0  0  0  0  0
  144.1237   75.3114  220.5787 H   0  0  0  0  0  0  0  0  0  0  0  0
  145.0258   74.8842  219.1248 H   0  0  0  0  0  0  0  0  0  0  0  0
  141.3925   72.4213  224.7717 H   0  0  0  0  0  0  0  0  0  0  0  0
  141.3504   70.6512  226.4894 H   0  0  0  0  0  0  0  0  0  0  0  0
  1  2  1  0
  2  3  2  0
  2  4  2  0
  2  5  1  0
  5  6  2  0
  6  7  1  0
  7  8  2  0
  8  9  1  0
  9 10  2  0
 10 11  1  0
 11 12  2  0
 12 13  1  0
 13 14  2  0
 14 15  1  0
 15 16  2  0
 16 17  1  0
 16 18  1  0
 18 19  2  0
 19 20  1  0
 20 21  2  0
 20 22  1  0
 22 23  1  0
 23 24  1  0
 24 25  1  0
 25 26  1  0
 26 27  1  0
 27 28  1  0
 28 29  1  0
  8 30  1  0
 30 31  2  0
 31  5  1  0
 22 11  1  0
 29 24  1  0
 19 13  1  0
  1 32  1  0
  1 33  1  0
  6 34  1  0
  7 35  1  0
  9 36  1  0
 10 37  1  0
 14 38  1  0
 15 39  1  0
 18 40  1  0
 23 41  1  0
 23 42  1  0
 24 43  1  0
 25 44  1  0
 25 45  1  0
 26 46  1  0
 26 47  1  0
 27 48  1  0
 27 49  1  0
 28 50  1  0
 28 51  1  0
 29 52  1  0
 29 53  1  0
 30 54  1  0
 31 55  1  0
M  END
>  <smiles>  (37) 
NS(=O)(=O)c1ccc(/C=C/c2nc3ccc(F)cc3c(=O)n2CC2CCCCC2)cc1

>  <score_type>  (37) 
oracle

>  <origin>  (37) 
autodockgpu

>  <m_score__min__energy>  (37) 
-9.1300000000000008

>  <m_primary>  (37) 
energy

>  <rmsd>  (37) 
5.717028910948635

>  <m_score__min__rmsd>  (37) 
5.717028910948635

>  <meeko>  (37) 
{"free_energy": -8.89, "intermolecular_energy": -10.97, "internal_energy": -1.19, "cluster_size": 7, "cluster_id": 1, "rank_in_cluster": 4}

>  <energy>  (37) 
-8.05

>  <cluster_rmsd>  (37) 
0.6

>  <cluster>  (37) 
4

$$$$

     RDKit          3D

 55 58  0  0  0  0  0  0  0  0999 V2000
  139.1540   67.1910  226.3990 N   0  0  0  0  0  0  0  0  0  0  0  0
  140.0280   68.6300  226.7200 S   0  0  0  0  0  0  0  0  0  0  0  0
  141.4820   68.2230  226.8650 O   0  0  0  0  0  0  0  0  0  0  0  0
  139.6380   69.1890  228.0600 O   0  0  0  0  0  0  0  0  0  0  0  0
  139.8810   69.8020  225.4350 C   0  0  0  0  0  0  0  0  0  0  0  0
  138.8710   69.7030  224.4930 C   0  0  0  0  0  0  0  0  0  0  0  0
  138.7580   70.6180  223.4940 C   0  0  0  0  0  0  0  0  0  0  0  0
  139.6360   71.7000  223.3500 C   0  0  0  0  0  0  0  0  0  0  0  0
  139.4480   72.6370  222.2510 C   0  0  0  0  0  0  0  0  0  0  0  0
  140.3640   72.9190  221.3520 C   0  0  0  0  0  0  0  0  0  0  0  0
  140.7820   74.3030  221.1630 C   0  0  0  0  0  0  0  0  0  0  0  0
  140.2670   75.2520  221.9650 N   0  0  0  0  0  0  0  0  0  0  0  0
  140.5780   76.5430  221.8650 C   0  0  0  0  0  0  0  0  0  0  0  0
  140.0100   77.4720  222.7250 C   0  0  0  0  0  0  0  0  0  0  0  0
  140.3680   78.7900  222.5750 C   0  0  0  0  0  0  0  0  0  0  0  0
  141.2740   79.1760  221.5870 C   0  0  0  0  0  0  0  0  0  0  0  0
  141.6130   80.4840  221.4570 F   0  0  0  0  0  0  0  0  0  0  0  0
  141.8140   78.2340  220.7560 C   0  0  0  0  0  0  0  0  0  0  0  0
  141.4760   76.9060  220.8800 C   0  0  0  0  0  0  0  0  0  0  0  0
  141.9950   75.9290  220.0690 C   0  0  0  0  0  0  0  0  0  0  0  0
  142.8070   76.2810  219.1820 O   0  0  0  0  0  0  0  0  0  0  0  0
  141.6590   74.6110  220.1940 N   0  0  0  0  0  0  0  0  0  0  0  0
  142.2540   73.6970  219.2870 C   0  0  0  0  0  0  0  0  0  0  0  0
  143.6520   73.2470  219.5850 C   0  0  0  0  0  0  0  0  0  0  0  0
  144.2750   73.8040  220.8100 C   0  0  0  0  0  0  0  0  0  0  0  0
  145.6860   73.2840  220.9140 C   0  0  0  0  0  0  0  0  0  0  0  0
  145.9800   72.2740  219.8610 C   0  0  0  0  0  0  0  0  0  0  0  0
  144.9550   71.2010  219.6830 C   0  0  0  0  0  0  0  0  0  0  0  0
  143.5370   71.7280  219.8310 C   0  0  0  0  0  0  0  0  0  0  0  0
  140.6300   71.7920  224.2820 C   0  0  0  0  0  0  0  0  0  0  0  0
  140.7490   70.8570  225.3090 C   0  0  0  0  0  0  0  0  0  0  0  0
  138.1360   67.4470  226.4560 H   0  0  0  0  0  0  0  0  0  0  0  0
  139.3680   66.5280  227.1870 H   0  0  0  0  0  0  0  0  0  0  0  0
  138.1511   68.8736  224.5538 H   0  0  0  0  0  0  0  0  0  0  0  0
  137.9409   70.5037  222.7665 H   0  0  0  0  0  0  0  0  0  0  0  0
  138.4744   73.1423  222.1680 H   0  0  0  0  0  0  0  0  0  0  0  0
  140.8120   72.1171  220.7467 H   0  0  0  0  0  0  0  0  0  0  0  0
  139.2956   77.1630  223.5023 H   0  0  0  0  0  0  0  0  0  0  0  0
  139.9350   79.5500  223.2420 H   0  0  0  0  0  0  0  0  0  0  0  0
  142.5281   78.5419  219.9780 H   0  0  0  0  0  0  0  0  0  0  0  0
  141.6175   72.8004  219.2558 H   0  0  0  0  0  0  0  0  0  0  0  0
  142.3303   74.2487  218.3384 H   0  0  0  0  0  0  0  0  0  0  0  0
  144.2798   73.5768  218.7441 H   0  0  0  0  0  0  0  0  0  0  0  0
  144.2887   74.9024  220.7517 H   0  0  0  0  0  0  0  0  0  0  0  0
  143.6974   73.5002  221.6955 H   0  0  0  0  0  0  0  0  0  0  0  0
  146.3851   74.1262  220.8051 H   0  0  0  0  0  0  0  0  0  0  0  0
  145.8014   72.7999  221.8950 H   0  0  0  0  0  0  0  0  0  0  0  0
  146.0819   72.8053  218.9032 H   0  0  0  0  0  0  0  0  0  0  0  0
  146.8959   71.7601  220.1881 H   0  0  0  0  0  0  0  0  0  0  0  0
  145.0681   70.7668  218.6787 H   0  0  0  0  0  0  0  0  0  0  0  0
  145.1174   70.4468  220.4671 H   0  0  0  0  0  0  0  0  0  0  0  0
  142.8720   71.2645  219.0874 H   0  0  0  0  0  0  0  0  0  0  0  0
  143.1104   71.4989  220.8187 H   0  0  0  0  0  0  0  0  0  0  0  0
  141.3511   72.6204  224.2210 H   0  0  0  0  0  0  0  0  0  0  0  0
  141.5631   70.9684  226.0403 H   0  0  0  0  0  0  0  0  0  0  0  0
  1  2  1  0
  2  3  2  0
  2  4  2  0
  2  5  1  0
  5  6  2  0
  6  7  1  0
  7  8  2  0
  8  9  1  0
  9 10  2  0
 10 11  1  0
 11 12  2  0
 12 13  1  0
 13 14  2  0
 14 15  1  0
 15 16  2  0
 16 17  1  0
 16 18  1  0
 18 19  2  0
 19 20  1  0
 20 21  2  0
 20 22  1  0
 22 23  1  0
 23 24  1  0
 24 25  1  0
 25 26  1  0
 26 27  1  0
 27 28  1  0
 28 29  1  0
  8 30  1  0
 30 31  2  0
 31  5  1  0
 22 11  1  0
 29 24  1  0
 19 13  1  0
  1 32  1  0
  1 33  1  0
  6 34  1  0
  7 35  1  0
  9 36  1  0
 10 37  1  0
 14 38  1  0
 15 39  1  0
 18 40  1  0
 23 41  1  0
 23 42  1  0
 24 43  1  0
 25 44  1  0
 25 45  1  0
 26 46  1  0
 26 47  1  0
 27 48  1  0
 27 49  1  0
 28 50  1  0
 28 51  1  0
 29 52  1  0
 29 53  1  0
 30 54  1  0
 31 55  1  0
M  END
>  <smiles>  (38) 
NS(=O)(=O)c1ccc(/C=C/c2nc3ccc(F)cc3c(=O)n2CC2CCCCC2)cc1

>  <score_type>  (38) 
oracle

>  <origin>  (38) 
autodockgpu

>  <m_score__min__energy>  (38) 
-9.1300000000000008

>  <m_primary>  (38) 
energy

>  <rmsd>  (38) 
5.467545067705791

>  <m_score__min__rmsd>  (38) 
5.467545067705791

>  <meeko>  (38) 
{"free_energy": -8.9, "intermolecular_energy": -10.99, "internal_energy": -1.4, "cluster_size": 7, "cluster_id": 1, "rank_in_cluster": 3}

>  <energy>  (38) 
-8.08

>  <cluster_rmsd>  (38) 
0.0

>  <cluster>  (38) 
5

$$$$

     RDKit          3D

 55 58  0  0  0  0  0  0  0  0999 V2000
  144.4450   71.9930  220.8980 N   0  0  0  0  0  0  0  0  0  0  0  0
  145.2050   73.3470  220.1740 S   0  0  0  0  0  0  0  0  0  0  0  0
  146.0160   72.8100  219.0100 O   0  0  0  0  0  0  0  0  0  0  0  0
  146.2130   73.9450  221.1160 O   0  0  0  0  0  0  0  0  0  0  0  0
  144.0570   74.5230  219.5860 C   0  0  0  0  0  0  0  0  0  0  0  0
  143.1500   75.1230  220.4430 C   0  0  0  0  0  0  0  0  0  0  0  0
  142.2570   76.0390  219.9830 C   0  0  0  0  0  0  0  0  0  0  0  0
  142.1930   76.4300  218.6400 C   0  0  0  0  0  0  0  0  0  0  0  0
  141.2060   77.4180  218.2250 C   0  0  0  0  0  0  0  0  0  0  0  0
  141.4570   78.6990  218.0720 C   0  0  0  0  0  0  0  0  0  0  0  0
  141.5240   79.5620  219.2450 C   0  0  0  0  0  0  0  0  0  0  0  0
  141.9100   79.0330  220.4200 N   0  0  0  0  0  0  0  0  0  0  0  0
  141.9920   79.7370  221.5480 C   0  0  0  0  0  0  0  0  0  0  0  0
  142.3980   79.1280  222.7270 C   0  0  0  0  0  0  0  0  0  0  0  0
  142.4650   79.9040  223.8600 C   0  0  0  0  0  0  0  0  0  0  0  0
  142.1330   81.2580  223.8190 C   0  0  0  0  0  0  0  0  0  0  0  0
  142.2060   82.0050  224.9510 F   0  0  0  0  0  0  0  0  0  0  0  0
  141.7360   81.8240  222.6390 C   0  0  0  0  0  0  0  0  0  0  0  0
  141.6590   81.0760  221.4870 C   0  0  0  0  0  0  0  0  0  0  0  0
  141.2670   81.6040  220.2840 C   0  0  0  0  0  0  0  0  0  0  0  0
  140.9700   82.8200  220.2520 O   0  0  0  0  0  0  0  0  0  0  0  0
  141.1920   80.8590  219.1410 N   0  0  0  0  0  0  0  0  0  0  0  0
  140.7630   81.5170  217.9600 C   0  0  0  0  0  0  0  0  0  0  0  0
  141.7390   82.4360  217.2920 C   0  0  0  0  0  0  0  0  0  0  0  0
  141.7820   83.8300  217.7990 C   0  0  0  0  0  0  0  0  0  0  0  0
  142.7760   84.6120  216.9780 C   0  0  0  0  0  0  0  0  0  0  0  0
  143.5080   83.7390  216.0210 C   0  0  0  0  0  0  0  0  0  0  0  0
  144.0630   82.4720  216.5890 C   0  0  0  0  0  0  0  0  0  0  0  0
  143.1270   81.8380  217.6040 C   0  0  0  0  0  0  0  0  0  0  0  0
  143.0890   75.8340  217.7990 C   0  0  0  0  0  0  0  0  0  0  0  0
  144.0080   74.8950  218.2670 C   0  0  0  0  0  0  0  0  0  0  0  0
  144.7830   71.9640  221.8940 H   0  0  0  0  0  0  0  0  0  0  0  0
  144.8160   71.1400  220.4050 H   0  0  0  0  0  0  0  0  0  0  0  0
  143.1520   74.8550  221.5098 H   0  0  0  0  0  0  0  0  0  0  0  0
  141.5540   76.4928  220.6970 H   0  0  0  0  0  0  0  0  0  0  0  0
  140.1821   77.0684  218.0264 H   0  0  0  0  0  0  0  0  0  0  0  0
  141.6153   79.1167  217.0668 H   0  0  0  0  0  0  0  0  0  0  0  0
  142.6577   78.0594  222.7542 H   0  0  0  0  0  0  0  0  0  0  0  0
  142.7843   79.4514  224.8104 H   0  0  0  0  0  0  0  0  0  0  0  0
  141.4746   82.8921  222.6107 H   0  0  0  0  0  0  0  0  0  0  0  0
  140.4878   80.7408  217.2308 H   0  0  0  0  0  0  0  0  0  0  0  0
  139.9380   82.1686  218.2838 H   0  0  0  0  0  0  0  0  0  0  0  0
  141.4433   82.5019  216.2345 H   0  0  0  0  0  0  0  0  0  0  0  0
  140.7858   84.2877  217.7088 H   0  0  0  0  0  0  0  0  0  0  0  0
  142.0830   83.8351  218.8570 H   0  0  0  0  0  0  0  0  0  0  0  0
  142.2392   85.3885  216.4132 H   0  0  0  0  0  0  0  0  0  0  0  0
  143.5102   85.0596  217.6640 H   0  0  0  0  0  0  0  0  0  0  0  0
  142.8141   83.4701  215.2109 H   0  0  0  0  0  0  0  0  0  0  0  0
  144.3785   84.3239  215.6890 H   0  0  0  0  0  0  0  0  0  0  0  0
  144.2300   81.7593  215.7679 H   0  0  0  0  0  0  0  0  0  0  0  0
  145.0032   82.7172  217.1047 H   0  0  0  0  0  0  0  0  0  0  0  0
  143.1125   80.7444  217.4868 H   0  0  0  0  0  0  0  0  0  0  0  0
  143.4412   82.0387  218.6389 H   0  0  0  0  0  0  0  0  0  0  0  0
  143.0858   76.0998  216.7316 H   0  0  0  0  0  0  0  0  0  0  0  0
  144.7142   74.4394  217.5572 H   0  0  0  0  0  0  0  0  0  0  0  0
  1  2  1  0
  2  3  2  0
  2  4  2  0
  2  5  1  0
  5  6  2  0
  6  7  1  0
  7  8  2  0
  8  9  1  0
  9 10  2  0
 10 11  1  0
 11 12  2  0
 12 13  1  0
 13 14  2  0
 14 15  1  0
 15 16  2  0
 16 17  1  0
 16 18  1  0
 18 19  2  0
 19 20  1  0
 20 21  2  0
 20 22  1  0
 22 23  1  0
 23 24  1  0
 24 25  1  0
 25 26  1  0
 26 27  1  0
 27 28  1  0
 28 29  1  0
  8 30  1  0
 30 31  2  0
 31  5  1  0
 22 11  1  0
 29 24  1  0
 19 13  1  0
  1 32  1  0
  1 33  1  0
  6 34  1  0
  7 35  1  0
  9 36  1  0
 10 37  1  0
 14 38  1  0
 15 39  1  0
 18 40  1  0
 23 41  1  0
 23 42  1  0
 24 43  1  0
 25 44  1  0
 25 45  1  0
 26 46  1  0
 26 47  1  0
 27 48  1  0
 27 49  1  0
 28 50  1  0
 28 51  1  0
 29 52  1  0
 29 53  1  0
 30 54  1  0
 31 55  1  0
M  END
>  <smiles>  (39) 
NS(=O)(=O)c1ccc(/C=C/c2nc3ccc(F)cc3c(=O)n2CC2CCCCC2)cc1

>  <score_type>  (39) 
oracle

>  <origin>  (39) 
autodockgpu

>  <m_score__min__energy>  (39) 
-9.1300000000000008

>  <m_primary>  (39) 
energy

>  <rmsd>  (39) 
6.6910936525484

>  <m_score__min__rmsd>  (39) 
6.6910936525484

>  <meeko>  (39) 
{"free_energy": -7.96, "intermolecular_energy": -10.05, "internal_energy": -1.44, "cluster_size": 2, "cluster_id": 6, "rank_in_cluster": 1}

>  <energy>  (39) 
-7.97

>  <cluster_rmsd>  (39) 
1.48

>  <cluster>  (39) 
5

$$$$

     RDKit          3D

 55 58  0  0  0  0  0  0  0  0999 V2000
  146.2070   73.1270  218.9290 N   0  0  0  0  0  0  0  0  0  0  0  0
  145.6380   73.3950  220.5230 S   0  0  0  0  0  0  0  0  0  0  0  0
  145.7950   74.8800  220.7890 O   0  0  0  0  0  0  0  0  0  0  0  0
  146.5400   72.7170  221.5180 O   0  0  0  0  0  0  0  0  0  0  0  0
  143.9630   72.9450  220.7190 C   0  0  0  0  0  0  0  0  0  0  0  0
  143.6000   71.6240  220.9180 C   0  0  0  0  0  0  0  0  0  0  0  0
  142.2940   71.2760  221.0710 C   0  0  0  0  0  0  0  0  0  0  0  0
  141.2500   72.2090  221.0400 C   0  0  0  0  0  0  0  0  0  0  0  0
  139.8760   71.7560  221.2110 C   0  0  0  0  0  0  0  0  0  0  0  0
  139.1420   72.0010  222.2740 C   0  0  0  0  0  0  0  0  0  0  0  0
  139.3350   71.2040  223.4780 C   0  0  0  0  0  0  0  0  0  0  0  0
  140.0610   71.7170  224.4880 N   0  0  0  0  0  0  0  0  0  0  0  0
  140.3010   71.0630  225.6230 C   0  0  0  0  0  0  0  0  0  0  0  0
  141.0600   71.6510  226.6250 C   0  0  0  0  0  0  0  0  0  0  0  0
  141.2760   70.9290  227.7750 C   0  0  0  0  0  0  0  0  0  0  0  0
  140.7470   69.6470  227.9230 C   0  0  0  0  0  0  0  0  0  0  0  0
  140.9730   68.9520  229.0670 F   0  0  0  0  0  0  0  0  0  0  0  0
  140.0050   69.0980  226.9140 C   0  0  0  0  0  0  0  0  0  0  0  0
  139.7700   69.7950  225.7500 C   0  0  0  0  0  0  0  0  0  0  0  0
  139.0310   69.2820  224.7150 C   0  0  0  0  0  0  0  0  0  0  0  0
  138.5590   68.1300  224.8520 O   0  0  0  0  0  0  0  0  0  0  0  0
  138.7990   69.9750  223.5610 N   0  0  0  0  0  0  0  0  0  0  0  0
  138.0280   69.3340  222.5580 C   0  0  0  0  0  0  0  0  0  0  0  0
  138.6860   68.2320  221.7850 C   0  0  0  0  0  0  0  0  0  0  0  0
  138.1490   66.8660  222.0000 C   0  0  0  0  0  0  0  0  0  0  0  0
  138.9640   65.8930  221.1880 C   0  0  0  0  0  0  0  0  0  0  0  0
  139.9490   66.5910  220.3180 C   0  0  0  0  0  0  0  0  0  0  0  0
  139.4180   67.7400  219.5230 C   0  0  0  0  0  0  0  0  0  0  0  0
  138.4050   68.5610  220.3050 C   0  0  0  0  0  0  0  0  0  0  0  0
  141.6150   73.5100  220.8440 C   0  0  0  0  0  0  0  0  0  0  0  0
  142.9530   73.8710  220.6870 C   0  0  0  0  0  0  0  0  0  0  0  0
  146.5550   74.0570  218.5800 H   0  0  0  0  0  0  0  0  0  0  0  0
  145.3690   72.8570  218.3520 H   0  0  0  0  0  0  0  0  0  0  0  0
  144.3772   70.8463  220.9528 H   0  0  0  0  0  0  0  0  0  0  0  0
  142.0470   70.2153  221.2259 H   0  0  0  0  0  0  0  0  0  0  0  0
  139.4229   71.1706  220.3974 H   0  0  0  0  0  0  0  0  0  0  0  0
  138.3880   72.8017  222.2543 H   0  0  0  0  0  0  0  0  0  0  0  0
  141.4755   72.6622  226.5031 H   0  0  0  0  0  0  0  0  0  0  0  0
  141.8731   71.3677  228.5880 H   0  0  0  0  0  0  0  0  0  0  0  0
  139.5904   68.0862  227.0338 H   0  0  0  0  0  0  0  0  0  0  0  0
  137.1382   68.9097  223.0460 H   0  0  0  0  0  0  0  0  0  0  0  0
  137.8243   70.1182  221.8140 H   0  0  0  0  0  0  0  0  0  0  0  0
  139.7381   68.2020  222.1048 H   0  0  0  0  0  0  0  0  0  0  0  0
  138.2163   66.6055  223.0666 H   0  0  0  0  0  0  0  0  0  0  0  0
  137.0951   66.8242  221.6876 H   0  0  0  0  0  0  0  0  0  0  0  0
  139.5049   65.2230  221.8725 H   0  0  0  0  0  0  0  0  0  0  0  0
  138.2773   65.3263  220.5420 H   0  0  0  0  0  0  0  0  0  0  0  0
  140.7570   66.9705  220.9607 H   0  0  0  0  0  0  0  0  0  0  0  0
  140.2765   65.8440  219.5799 H   0  0  0  0  0  0  0  0  0  0  0  0
  140.2573   68.3913  219.2380 H   0  0  0  0  0  0  0  0  0  0  0  0
  138.9094   67.3311  218.6375 H   0  0  0  0  0  0  0  0  0  0  0  0
  138.5466   69.6349  220.1135 H   0  0  0  0  0  0  0  0  0  0  0  0
  137.3698   68.3248  220.0174 H   0  0  0  0  0  0  0  0  0  0  0  0
  140.8387   74.2886  220.8092 H   0  0  0  0  0  0  0  0  0  0  0  0
  143.2052   74.9305  220.5329 H   0  0  0  0  0  0  0  0  0  0  0  0
  1  2  1  0
  2  3  2  0
  2  4  2  0
  2  5  1  0
  5  6  2  0
  6  7  1  0
  7  8  2  0
  8  9  1  0
  9 10  2  0
 10 11  1  0
 11 12  2  0
 12 13  1  0
 13 14  2  0
 14 15  1  0
 15 16  2  0
 16 17  1  0
 16 18  1  0
 18 19  2  0
 19 20  1  0
 20 21  2  0
 20 22  1  0
 22 23  1  0
 23 24  1  0
 24 25  1  0
 25 26  1  0
 26 27  1  0
 27 28  1  0
 28 29  1  0
  8 30  1  0
 30 31  2  0
 31  5  1  0
 22 11  1  0
 29 24  1  0
 19 13  1  0
  1 32  1  0
  1 33  1  0
  6 34  1  0
  7 35  1  0
  9 36  1  0
 10 37  1  0
 14 38  1  0
 15 39  1  0
 18 40  1  0
 23 41  1  0
 23 42  1  0
 24 43  1  0
 25 44  1  0
 25 45  1  0
 26 46  1  0
 26 47  1  0
 27 48  1  0
 27 49  1  0
 28 50  1  0
 28 51  1  0
 29 52  1  0
 29 53  1  0
 30 54  1  0
 31 55  1  0
M  END
>  <smiles>  (40) 
NS(=O)(=O)c1ccc(/C=C/c2nc3ccc(F)cc3c(=O)n2CC2CCCCC2)cc1

>  <score_type>  (40) 
oracle

>  <origin>  (40) 
autodockgpu

>  <m_score__min__energy>  (40) 
-9.1300000000000008

>  <m_primary>  (40) 
energy

>  <rmsd>  (40) 
11.285623296988778

>  <m_score__min__rmsd>  (40) 
11.285623296988778

>  <meeko>  (40) 
{"free_energy": -8.16, "intermolecular_energy": -10.24, "internal_energy": -1.65, "cluster_size": 24, "cluster_id": 2, "rank_in_cluster": 22}

>  <energy>  (40) 
-7.96

>  <cluster_rmsd>  (40) 
0.0

>  <cluster>  (40) 
6

$$$$

     RDKit          3D

 55 58  0  0  0  0  0  0  0  0999 V2000
  146.3510   73.4190  219.0170 N   0  0  0  0  0  0  0  0  0  0  0  0
  145.2660   73.2120  220.3280 S   0  0  0  0  0  0  0  0  0  0  0  0
  146.0790   73.4180  221.5920 O   0  0  0  0  0  0  0  0  0  0  0  0
  144.7900   71.7870  220.3900 O   0  0  0  0  0  0  0  0  0  0  0  0
  143.9500   74.3580  220.2940 C   0  0  0  0  0  0  0  0  0  0  0  0
  142.7170   74.0420  220.8400 C   0  0  0  0  0  0  0  0  0  0  0  0
  141.6930   74.9370  220.8130 C   0  0  0  0  0  0  0  0  0  0  0  0
  141.8110   76.2110  220.2430 C   0  0  0  0  0  0  0  0  0  0  0  0
  140.6670   77.1110  220.2530 C   0  0  0  0  0  0  0  0  0  0  0  0
  139.4310   76.7430  219.9970 C   0  0  0  0  0  0  0  0  0  0  0  0
  138.4630   76.6750  221.0840 C   0  0  0  0  0  0  0  0  0  0  0  0
  137.8950   75.4920  221.3760 N   0  0  0  0  0  0  0  0  0  0  0  0
  136.9930   75.3310  222.3430 C   0  0  0  0  0  0  0  0  0  0  0  0
  136.4450   74.0800  222.5910 C   0  0  0  0  0  0  0  0  0  0  0  0
  135.5190   73.9730  223.6010 C   0  0  0  0  0  0  0  0  0  0  0  0
  135.1470   75.0890  224.3490 C   0  0  0  0  0  0  0  0  0  0  0  0
  134.2300   74.9610  225.3430 F   0  0  0  0  0  0  0  0  0  0  0  0
  135.7070   76.3070  224.0760 C   0  0  0  0  0  0  0  0  0  0  0  0
  136.6360   76.4480  223.0720 C   0  0  0  0  0  0  0  0  0  0  0  0
  137.2230   77.6490  222.7660 C   0  0  0  0  0  0  0  0  0  0  0  0
  136.8840   78.6490  223.4400 O   0  0  0  0  0  0  0  0  0  0  0  0
  138.1460   77.7870  221.7680 N   0  0  0  0  0  0  0  0  0  0  0  0
  138.6730   79.0840  221.5410 C   0  0  0  0  0  0  0  0  0  0  0  0
  139.8480   79.5030  222.3700 C   0  0  0  0  0  0  0  0  0  0  0  0
  140.5930   78.4150  223.0510 C   0  0  0  0  0  0  0  0  0  0  0  0
  141.6980   79.0280  223.8730 C   0  0  0  0  0  0  0  0  0  0  0  0
  141.8030   80.4950  223.6480 C   0  0  0  0  0  0  0  0  0  0  0  0
  141.8010   80.9380  222.2200 C   0  0  0  0  0  0  0  0  0  0  0  0
  140.8430   80.1230  221.3670 C   0  0  0  0  0  0  0  0  0  0  0  0
  143.0290   76.5160  219.7060 C   0  0  0  0  0  0  0  0  0  0  0  0
  144.0820   75.6020  219.7320 C   0  0  0  0  0  0  0  0  0  0  0  0
  147.0660   74.1220  219.3350 H   0  0  0  0  0  0  0  0  0  0  0  0
  145.7960   73.8510  218.2340 H   0  0  0  0  0  0  0  0  0  0  0  0
  142.5639   73.0551  221.3011 H   0  0  0  0  0  0  0  0  0  0  0  0
  140.7298   74.6475  221.2585 H   0  0  0  0  0  0  0  0  0  0  0  0
  140.8487   78.1696  220.4906 H   0  0  0  0  0  0  0  0  0  0  0  0
  139.1300   76.4884  218.9701 H   0  0  0  0  0  0  0  0  0  0  0  0
  136.7423   73.2024  221.9982 H   0  0  0  0  0  0  0  0  0  0  0  0
  135.0660   72.9952  223.8217 H   0  0  0  0  0  0  0  0  0  0  0  0
  135.4101   77.1855  224.6677 H   0  0  0  0  0  0  0  0  0  0  0  0
  138.9778   79.1367  220.4854 H   0  0  0  0  0  0  0  0  0  0  0  0
  137.8644   79.7717  221.8294 H   0  0  0  0  0  0  0  0  0  0  0  0
  139.4607   80.1560  223.1659 H   0  0  0  0  0  0  0  0  0  0  0  0
  139.9113   77.8537  223.7069 H   0  0  0  0  0  0  0  0  0  0  0  0
  141.0177   77.7272  222.3050 H   0  0  0  0  0  0  0  0  0  0  0  0
  141.4936   78.8445  224.9382 H   0  0  0  0  0  0  0  0  0  0  0  0
  142.6485   78.5657  223.5684 H   0  0  0  0  0  0  0  0  0  0  0  0
  140.9507   80.9751  224.1511 H   0  0  0  0  0  0  0  0  0  0  0  0
  142.7841   80.7885  224.0495 H   0  0  0  0  0  0  0  0  0  0  0  0
  141.5009   81.9954  222.1776 H   0  0  0  0  0  0  0  0  0  0  0  0
  142.8155   80.7932  221.8203 H   0  0  0  0  0  0  0  0  0  0  0  0
  140.3169   80.7702  220.6498 H   0  0  0  0  0  0  0  0  0  0  0  0
  141.3650   79.3573  220.7744 H   0  0  0  0  0  0  0  0  0  0  0  0
  143.1826   77.5023  219.2437 H   0  0  0  0  0  0  0  0  0  0  0  0
  145.0473   75.8874  219.2885 H   0  0  0  0  0  0  0  0  0  0  0  0
  1  2  1  0
  2  3  2  0
  2  4  2  0
  2  5  1  0
  5  6  2  0
  6  7  1  0
  7  8  2  0
  8  9  1  0
  9 10  2  0
 10 11  1  0
 11 12  2  0
 12 13  1  0
 13 14  2  0
 14 15  1  0
 15 16  2  0
 16 17  1  0
 16 18  1  0
 18 19  2  0
 19 20  1  0
 20 21  2  0
 20 22  1  0
 22 23  1  0
 23 24  1  0
 24 25  1  0
 25 26  1  0
 26 27  1  0
 27 28  1  0
 28 29  1  0
  8 30  1  0
 30 31  2  0
 31  5  1  0
 22 11  1  0
 29 24  1  0
 19 13  1  0
  1 32  1  0
  1 33  1  0
  6 34  1  0
  7 35  1  0
  9 36  1  0
 10 37  1  0
 14 38  1  0
 15 39  1  0
 18 40  1  0
 23 41  1  0
 23 42  1  0
 24 43  1  0
 25 44  1  0
 25 45  1  0
 26 46  1  0
 26 47  1  0
 27 48  1  0
 27 49  1  0
 28 50  1  0
 28 51  1  0
 29 52  1  0
 29 53  1  0
 30 54  1  0
 31 55  1  0
M  END
>  <smiles>  (41) 
NS(=O)(=O)c1ccc(/C=C/c2nc3ccc(F)cc3c(=O)n2CC2CCCCC2)cc1

>  <score_type>  (41) 
oracle

>  <origin>  (41) 
autodockgpu

>  <m_score__min__energy>  (41) 
-9.1300000000000008

>  <m_primary>  (41) 
energy

>  <rmsd>  (41) 
7.166111802980571

>  <m_score__min__rmsd>  (41) 
7.166111802980571

>  <meeko>  (41) 
{"free_energy": -7.86, "intermolecular_energy": -9.95, "internal_energy": -1.6, "cluster_size": 3, "cluster_id": 8, "rank_in_cluster": 1}

>  <energy>  (41) 
-7.15

>  <cluster_rmsd>  (41) 
1.9

>  <cluster>  (41) 
6

$$$$

     RDKit          3D

 55 58  0  0  0  0  0  0  0  0999 V2000
  139.2090   67.0510  226.2820 N   0  0  0  0  0  0  0  0  0  0  0  0
  140.2920   68.3520  226.5490 S   0  0  0  0  0  0  0  0  0  0  0  0
  141.6900   67.7690  226.4660 O   0  0  0  0  0  0  0  0  0  0  0  0
  140.1580   68.8600  227.9580 O   0  0  0  0  0  0  0  0  0  0  0  0
  140.1220   69.6180  225.3600 C   0  0  0  0  0  0  0  0  0  0  0  0
  139.3180   69.4460  224.2460 C   0  0  0  0  0  0  0  0  0  0  0  0
  139.1860   70.4340  223.3220 C   0  0  0  0  0  0  0  0  0  0  0  0
  139.8410   71.6680  223.4290 C   0  0  0  0  0  0  0  0  0  0  0  0
  139.6490   72.6760  222.3950 C   0  0  0  0  0  0  0  0  0  0  0  0
  140.5290   72.9560  221.4600 C   0  0  0  0  0  0  0  0  0  0  0  0
  140.8890   74.3450  221.2070 C   0  0  0  0  0  0  0  0  0  0  0  0
  140.3910   75.3020  222.0110 N   0  0  0  0  0  0  0  0  0  0  0  0
  140.6540   76.5990  221.8540 C   0  0  0  0  0  0  0  0  0  0  0  0
  140.1060   77.5350  222.7200 C   0  0  0  0  0  0  0  0  0  0  0  0
  140.4120   78.8590  222.5110 C   0  0  0  0  0  0  0  0  0  0  0  0
  141.2470   79.2420  221.4610 C   0  0  0  0  0  0  0  0  0  0  0  0
  141.5350   80.5550  221.2740 F   0  0  0  0  0  0  0  0  0  0  0  0
  141.7680   78.2920  220.6270 C   0  0  0  0  0  0  0  0  0  0  0  0
  141.4820   76.9580  220.8090 C   0  0  0  0  0  0  0  0  0  0  0  0
  141.9840   75.9740  219.9970 C   0  0  0  0  0  0  0  0  0  0  0  0
  142.7320   76.3230  219.0550 O   0  0  0  0  0  0  0  0  0  0  0  0
  141.6990   74.6500  220.1800 N   0  0  0  0  0  0  0  0  0  0  0  0
  142.2700   73.7270  219.2670 C   0  0  0  0  0  0  0  0  0  0  0  0
  143.6590   73.2460  219.5560 C   0  0  0  0  0  0  0  0  0  0  0  0
  144.3070   73.7990  220.7710 C   0  0  0  0  0  0  0  0  0  0  0  0
  145.7050   73.2450  220.8670 C   0  0  0  0  0  0  0  0  0  0  0  0
  145.9650   72.2200  219.8200 C   0  0  0  0  0  0  0  0  0  0  0  0
  144.9140   71.1700  219.6610 C   0  0  0  0  0  0  0  0  0  0  0  0
  143.5100   71.7330  219.8160 C   0  0  0  0  0  0  0  0  0  0  0  0
  140.6330   71.8320  224.5300 C   0  0  0  0  0  0  0  0  0  0  0  0
  140.7690   70.8210  225.4810 C   0  0  0  0  0  0  0  0  0  0  0  0
  138.2520   67.4080  226.5310 H   0  0  0  0  0  0  0  0  0  0  0  0
  139.4660   66.2990  226.9730 H   0  0  0  0  0  0  0  0  0  0  0  0
  138.7790   68.4973  224.1069 H   0  0  0  0  0  0  0  0  0  0  0  0
  138.5365   70.2571  222.4521 H   0  0  0  0  0  0  0  0  0  0  0  0
  138.7047   73.2402  222.3970 H   0  0  0  0  0  0  0  0  0  0  0  0
  140.9902   72.1481  220.8730 H   0  0  0  0  0  0  0  0  0  0  0  0
  139.4484   77.2276  223.5465 H   0  0  0  0  0  0  0  0  0  0  0  0
  139.9934   79.6256  223.1797 H   0  0  0  0  0  0  0  0  0  0  0  0
  142.4247   78.5980  219.7993 H   0  0  0  0  0  0  0  0  0  0  0  0
  141.6143   72.8443  219.2357 H   0  0  0  0  0  0  0  0  0  0  0  0
  142.3538   74.2808  218.3202 H   0  0  0  0  0  0  0  0  0  0  0  0
  144.2868   73.5531  218.7065 H   0  0  0  0  0  0  0  0  0  0  0  0
  144.3474   74.8961  220.7023 H   0  0  0  0  0  0  0  0  0  0  0  0
  143.7302   73.5181  221.6645 H   0  0  0  0  0  0  0  0  0  0  0  0
  146.4238   74.0687  220.7455 H   0  0  0  0  0  0  0  0  0  0  0  0
  145.8166   72.7657  221.8508 H   0  0  0  0  0  0  0  0  0  0  0  0
  146.0698   72.7408  218.8568 H   0  0  0  0  0  0  0  0  0  0  0  0
  146.8719   71.6876  220.1426 H   0  0  0  0  0  0  0  0  0  0  0  0
  145.0080   70.7237  218.6600 H   0  0  0  0  0  0  0  0  0  0  0  0
  145.0653   70.4191  220.4505 H   0  0  0  0  0  0  0  0  0  0  0  0
  142.8278   71.2794  219.0820 H   0  0  0  0  0  0  0  0  0  0  0  0
  143.0866   71.5229  220.8093 H   0  0  0  0  0  0  0  0  0  0  0  0
  141.1738   72.7797  224.6691 H   0  0  0  0  0  0  0  0  0  0  0  0
  141.4148   70.9938  226.3546 H   0  0  0  0  0  0  0  0  0  0  0  0
  1  2  1  0
  2  3  2  0
  2  4  2  0
  2  5  1  0
  5  6  2  0
  6  7  1  0
  7  8  2  0
  8  9  1  0
  9 10  2  0
 10 11  1  0
 11 12  2  0
 12 13  1  0
 13 14  2  0
 14 15  1  0
 15 16  2  0
 16 17  1  0
 16 18  1  0
 18 19  2  0
 19 20  1  0
 20 21  2  0
 20 22  1  0
 22 23  1  0
 23 24  1  0
 24 25  1  0
 25 26  1  0
 26 27  1  0
 27 28  1  0
 28 29  1  0
  8 30  1  0
 30 31  2  0
 31  5  1  0
 22 11  1  0
 29 24  1  0
 19 13  1  0
  1 32  1  0
  1 33  1  0
  6 34  1  0
  7 35  1  0
  9 36  1  0
 10 37  1  0
 14 38  1  0
 15 39  1  0
 18 40  1  0
 23 41  1  0
 23 42  1  0
 24 43  1  0
 25 44  1  0
 25 45  1  0
 26 46  1  0
 26 47  1  0
 27 48  1  0
 27 49  1  0
 28 50  1  0
 28 51  1  0
 29 52  1  0
 29 53  1  0
 30 54  1  0
 31 55  1  0
M  END
>  <smiles>  (42) 
NS(=O)(=O)c1ccc(/C=C/c2nc3ccc(F)cc3c(=O)n2CC2CCCCC2)cc1

>  <score_type>  (42) 
oracle

>  <origin>  (42) 
autodockgpu

>  <m_score__min__energy>  (42) 
-9.1300000000000008

>  <m_primary>  (42) 
energy

>  <rmsd>  (42) 
5.455113684562902

>  <m_score__min__rmsd>  (42) 
5.455113684562902

>  <meeko>  (42) 
{"free_energy": -8.97, "intermolecular_energy": -11.06, "internal_energy": -1.41, "cluster_size": 7, "cluster_id": 1, "rank_in_cluster": 2}

>  <energy>  (42) 
-7.89

>  <cluster_rmsd>  (42) 
0.0

>  <cluster>  (42) 
7

$$$$

     RDKit          3D

 55 58  0  0  0  0  0  0  0  0999 V2000
  146.0610   73.4350  218.5350 N   0  0  0  0  0  0  0  0  0  0  0  0
  145.4140   72.6340  219.9040 S   0  0  0  0  0  0  0  0  0  0  0  0
  146.3420   72.9500  221.0620 O   0  0  0  0  0  0  0  0  0  0  0  0
  145.4980   71.1430  219.7250 O   0  0  0  0  0  0  0  0  0  0  0  0
  143.8000   73.1720  220.2930 C   0  0  0  0  0  0  0  0  0  0  0  0
  143.4660   74.5150  220.2450 C   0  0  0  0  0  0  0  0  0  0  0  0
  142.2080   74.9320  220.5470 C   0  0  0  0  0  0  0  0  0  0  0  0
  141.1850   74.0520  220.9210 C   0  0  0  0  0  0  0  0  0  0  0  0
  139.8620   74.5780  221.2310 C   0  0  0  0  0  0  0  0  0  0  0  0
  139.5680   75.2530  222.3200 C   0  0  0  0  0  0  0  0  0  0  0  0
  139.7240   76.7020  222.3300 C   0  0  0  0  0  0  0  0  0  0  0  0
  140.9330   77.2240  222.6000 N   0  0  0  0  0  0  0  0  0  0  0  0
  141.1720   78.5340  222.6420 C   0  0  0  0  0  0  0  0  0  0  0  0
  142.4460   79.0070  222.9270 C   0  0  0  0  0  0  0  0  0  0  0  0
  142.6340   80.3680  222.9570 C   0  0  0  0  0  0  0  0  0  0  0  0
  141.5750   81.2410  222.7080 C   0  0  0  0  0  0  0  0  0  0  0  0
  141.7840   82.5820  222.7430 F   0  0  0  0  0  0  0  0  0  0  0  0
  140.3330   80.7390  222.4310 C   0  0  0  0  0  0  0  0  0  0  0  0
  140.1110   79.3820  222.3930 C   0  0  0  0  0  0  0  0  0  0  0  0
  138.8830   78.8380  222.1190 C   0  0  0  0  0  0  0  0  0  0  0  0
  137.9350   79.6260  221.8970 O   0  0  0  0  0  0  0  0  0  0  0  0
  138.6650   77.4900  222.0820 N   0  0  0  0  0  0  0  0  0  0  0  0
  137.3470   77.0490  221.7970 C   0  0  0  0  0  0  0  0  0  0  0  0
  136.5540   76.4780  222.9320 C   0  0  0  0  0  0  0  0  0  0  0  0
  135.3140   77.2050  223.3000 C   0  0  0  0  0  0  0  0  0  0  0  0
  134.6850   76.5190  224.4860 C   0  0  0  0  0  0  0  0  0  0  0  0
  135.3980   75.2610  224.8360 C   0  0  0  0  0  0  0  0  0  0  0  0
  135.6930   74.3400  223.6960 C   0  0  0  0  0  0  0  0  0  0  0  0
  136.0910   75.0920  222.4370 C   0  0  0  0  0  0  0  0  0  0  0  0
  141.5200   72.7290  220.9670 C   0  0  0  0  0  0  0  0  0  0  0  0
  142.8090   72.2970  220.6570 C   0  0  0  0  0  0  0  0  0  0  0  0
  146.8960   73.9740  218.8770 H   0  0  0  0  0  0  0  0  0  0  0  0
  145.3330   74.1270  218.2200 H   0  0  0  0  0  0  0  0  0  0  0  0
  144.2287   75.2541  219.9587 H   0  0  0  0  0  0  0  0  0  0  0  0
  141.9838   76.0077  220.4953 H   0  0  0  0  0  0  0  0  0  0  0  0
  139.0553   74.3982  220.5052 H   0  0  0  0  0  0  0  0  0  0  0  0
  139.2070   74.7282  223.2168 H   0  0  0  0  0  0  0  0  0  0  0  0
  143.2781   78.3146  223.1225 H   0  0  0  0  0  0  0  0  0  0  0  0
  143.6318   80.7739  223.1801 H   0  0  0  0  0  0  0  0  0  0  0  0
  139.4999   81.4303  222.2359 H   0  0  0  0  0  0  0  0  0  0  0  0
  136.7879   77.9108  221.4037 H   0  0  0  0  0  0  0  0  0  0  0  0
  137.4744   76.2137  221.0927 H   0  0  0  0  0  0  0  0  0  0  0  0
  137.2023   76.5070  223.8202 H   0  0  0  0  0  0  0  0  0  0  0  0
  135.5585   78.2453  223.5609 H   0  0  0  0  0  0  0  0  0  0  0  0
  134.6135   77.2043  222.4518 H   0  0  0  0  0  0  0  0  0  0  0  0
  134.7174   77.1993  225.3498 H   0  0  0  0  0  0  0  0  0  0  0  0
  133.6476   76.2637  224.2240 H   0  0  0  0  0  0  0  0  0  0  0  0
  136.3548   75.5348  225.3046 H   0  0  0  0  0  0  0  0  0  0  0  0
  134.7169   74.7067  225.4985 H   0  0  0  0  0  0  0  0  0  0  0  0
  136.5177   73.6719  223.9849 H   0  0  0  0  0  0  0  0  0  0  0  0
  134.7766   73.7733  223.4747 H   0  0  0  0  0  0  0  0  0  0  0  0
  136.9105   74.5726  221.9187 H   0  0  0  0  0  0  0  0  0  0  0  0
  135.2613   75.1649  221.7185 H   0  0  0  0  0  0  0  0  0  0  0  0
  140.7580   71.9895  221.2542 H   0  0  0  0  0  0  0  0  0  0  0  0
  143.0377   71.2222  220.7059 H   0  0  0  0  0  0  0  0  0  0  0  0
  1  2  1  0
  2  3  2  0
  2  4  2  0
  2  5  1  0
  5  6  2  0
  6  7  1  0
  7  8  2  0
  8  9  1  0
  9 10  2  0
 10 11  1  0
 11 12  2  0
 12 13  1  0
 13 14  2  0
 14 15  1  0
 15 16  2  0
 16 17  1  0
 16 18  1  0
 18 19  2  0
 19 20  1  0
 20 21  2  0
 20 22  1  0
 22 23  1  0
 23 24  1  0
 24 25  1  0
 25 26  1  0
 26 27  1  0
 27 28  1  0
 28 29  1  0
  8 30  1  0
 30 31  2  0
 31  5  1  0
 22 11  1  0
 29 24  1  0
 19 13  1  0
  1 32  1  0
  1 33  1  0
  6 34  1  0
  7 35  1  0
  9 36  1  0
 10 37  1  0
 14 38  1  0
 15 39  1  0
 18 40  1  0
 23 41  1  0
 23 42  1  0
 24 43  1  0
 25 44  1  0
 25 45  1  0
 26 46  1  0
 26 47  1  0
 27 48  1  0
 27 49  1  0
 28 50  1  0
 28 51  1  0
 29 52  1  0
 29 53  1  0
 30 54  1  0
 31 55  1  0
M  END
>  <smiles>  (43) 
NS(=O)(=O)c1ccc(/C=C/c2nc3ccc(F)cc3c(=O)n2CC2CCCCC2)cc1

>  <score_type>  (43) 
oracle

>  <origin>  (43) 
autodockgpu

>  <m_score__min__energy>  (43) 
-9.1300000000000008

>  <m_primary>  (43) 
energy

>  <rmsd>  (43) 
6.009686549787346

>  <m_score__min__rmsd>  (43) 
6.009686549787346

>  <meeko>  (43) 
{"free_energy": -8.08, "intermolecular_energy": -10.17, "internal_energy": -1.44, "cluster_size": 2, "cluster_id": 5, "rank_in_cluster": 1}

>  <energy>  (43) 
-7.86

>  <cluster_rmsd>  (43) 
0.0

>  <cluster>  (43) 
8

$$$$

     RDKit          3D

 55 58  0  0  0  0  0  0  0  0999 V2000
  145.9840   73.3980  218.6500 N   0  0  0  0  0  0  0  0  0  0  0  0
  145.3650   73.4910  220.2450 S   0  0  0  0  0  0  0  0  0  0  0  0
  145.1860   74.9670  220.5470 O   0  0  0  0  0  0  0  0  0  0  0  0
  146.3920   73.0060  221.2310 O   0  0  0  0  0  0  0  0  0  0  0  0
  143.8320   72.6750  220.4160 C   0  0  0  0  0  0  0  0  0  0  0  0
  142.7180   73.3460  220.8920 C   0  0  0  0  0  0  0  0  0  0  0  0
  141.5240   72.7080  221.0240 C   0  0  0  0  0  0  0  0  0  0  0  0
  141.3430   71.3580  220.6960 C   0  0  0  0  0  0  0  0  0  0  0  0
  140.0320   70.7470  220.8670 C   0  0  0  0  0  0  0  0  0  0  0  0
  139.2170   71.0060  221.8660 C   0  0  0  0  0  0  0  0  0  0  0  0
  139.4710   70.4100  223.1710 C   0  0  0  0  0  0  0  0  0  0  0  0
  139.9990   71.1750  224.1430 N   0  0  0  0  0  0  0  0  0  0  0  0
  140.2760   70.7190  225.3640 C   0  0  0  0  0  0  0  0  0  0  0  0
  140.8210   71.5630  226.3220 C   0  0  0  0  0  0  0  0  0  0  0  0
  141.0870   71.0390  227.5640 C   0  0  0  0  0  0  0  0  0  0  0  0
  140.8160   69.7000  227.8470 C   0  0  0  0  0  0  0  0  0  0  0  0
  141.0870   69.2030  229.0810 F   0  0  0  0  0  0  0  0  0  0  0  0
  140.2800   68.8970  226.8780 C   0  0  0  0  0  0  0  0  0  0  0  0
  140.0020   69.3910  225.6240 C   0  0  0  0  0  0  0  0  0  0  0  0
  139.4640   68.6210  224.6250 C   0  0  0  0  0  0  0  0  0  0  0  0
  139.2230   67.4190  224.8840 O   0  0  0  0  0  0  0  0  0  0  0  0
  139.1880   69.1140  223.3810 N   0  0  0  0  0  0  0  0  0  0  0  0
  138.6430   68.2150  222.4290 C   0  0  0  0  0  0  0  0  0  0  0  0
  137.1540   68.0480  222.4170 C   0  0  0  0  0  0  0  0  0  0  0  0
  136.3850   68.9450  223.3140 C   0  0  0  0  0  0  0  0  0  0  0  0
  134.9220   68.5960  223.2070 C   0  0  0  0  0  0  0  0  0  0  0  0
  134.6740   67.5790  222.1490 C   0  0  0  0  0  0  0  0  0  0  0  0
  135.3290   67.8370  220.8310 C   0  0  0  0  0  0  0  0  0  0  0  0
  136.7230   68.4230  220.9850 C   0  0  0  0  0  0  0  0  0  0  0  0
  142.4460   70.7020  220.2280 C   0  0  0  0  0  0  0  0  0  0  0  0
  143.6710   71.3530  220.0900 C   0  0  0  0  0  0  0  0  0  0  0  0
  146.9450   73.8240  218.6810 H   0  0  0  0  0  0  0  0  0  0  0  0
  145.3740   74.0150  218.0540 H   0  0  0  0  0  0  0  0  0  0  0  0
  142.7998   74.4080  221.1667 H   0  0  0  0  0  0  0  0  0  0  0  0
  140.6630   73.2768  221.4049 H   0  0  0  0  0  0  0  0  0  0  0  0
  139.7016   70.0205  220.1101 H   0  0  0  0  0  0  0  0  0  0  0  0
  138.3505   71.6672  221.7176 H   0  0  0  0  0  0  0  0  0  0  0  0
  141.0332   72.6180  226.0940 H   0  0  0  0  0  0  0  0  0  0  0  0
  141.5188   71.6828  228.3444 H   0  0  0  0  0  0  0  0  0  0  0  0
  140.0682   67.8416  227.1043 H   0  0  0  0  0  0  0  0  0  0  0  0
  138.9443   68.5671  221.4314 H   0  0  0  0  0  0  0  0  0  0  0  0
  139.0361   67.2281  222.7145 H   0  0  0  0  0  0  0  0  0  0  0  0
  136.9447   67.0223  222.7550 H   0  0  0  0  0  0  0  0  0  0  0  0
  136.7231   68.8093  224.3519 H   0  0  0  0  0  0  0  0  0  0  0  0
  136.5429   69.9935  223.0212 H   0  0  0  0  0  0  0  0  0  0  0  0
  134.5794   68.1963  224.1729 H   0  0  0  0  0  0  0  0  0  0  0  0
  134.3704   69.5096  222.9401 H   0  0  0  0  0  0  0  0  0  0  0  0
  135.0362   66.6095  222.5216 H   0  0  0  0  0  0  0  0  0  0  0  0
  133.5916   67.6084  221.9549 H   0  0  0  0  0  0  0  0  0  0  0  0
  135.4032   66.8874  220.2808 H   0  0  0  0  0  0  0  0  0  0  0  0
  134.7142   68.5692  220.2870 H   0  0  0  0  0  0  0  0  0  0  0  0
  137.4108   67.9852  220.2465 H   0  0  0  0  0  0  0  0  0  0  0  0
  136.7361   69.5104  220.8196 H   0  0  0  0  0  0  0  0  0  0  0  0
  142.3661   69.6395  219.9547 H   0  0  0  0  0  0  0  0  0  0  0  0
  144.5346   70.7889  219.7080 H   0  0  0  0  0  0  0  0  0  0  0  0
  1  2  1  0
  2  3  2  0
  2  4  2  0
  2  5  1  0
  5  6  2  0
  6  7  1  0
  7  8  2  0
  8  9  1  0
  9 10  2  0
 10 11  1  0
 11 12  2  0
 12 13  1  0
 13 14  2  0
 14 15  1  0
 15 16  2  0
 16 17  1  0
 16 18  1  0
 18 19  2  0
 19 20  1  0
 20 21  2  0
 20 22  1  0
 22 23  1  0
 23 24  1  0
 24 25  1  0
 25 26  1  0
 26 27  1  0
 27 28  1  0
 28 29  1  0
  8 30  1  0
 30 31  2  0
 31  5  1  0
 22 11  1  0
 29 24  1  0
 19 13  1  0
  1 32  1  0
  1 33  1  0
  6 34  1  0
  7 35  1  0
  9 36  1  0
 10 37  1  0
 14 38  1  0
 15 39  1  0
 18 40  1  0
 23 41  1  0
 23 42  1  0
 24 43  1  0
 25 44  1  0
 25 45  1  0
 26 46  1  0
 26 47  1  0
 27 48  1  0
 27 49  1  0
 28 50  1  0
 28 51  1  0
 29 52  1  0
 29 53  1  0
 30 54  1  0
 31 55  1  0
M  END
>  <smiles>  (44) 
NS(=O)(=O)c1ccc(/C=C/c2nc3ccc(F)cc3c(=O)n2CC2CCCCC2)cc1

>  <score_type>  (44) 
oracle

>  <origin>  (44) 
autodockgpu

>  <m_score__min__energy>  (44) 
-9.1300000000000008

>  <m_primary>  (44) 
energy

>  <rmsd>  (44) 
11.446556279423486

>  <m_score__min__rmsd>  (44) 
11.446556279423486

>  <meeko>  (44) 
{"free_energy": -8.27, "intermolecular_energy": -10.36, "internal_energy": -1.52, "cluster_size": 24, "cluster_id": 2, "rank_in_cluster": 20}

>  <energy>  (44) 
-7.84

>  <cluster_rmsd>  (44) 
0.24

>  <cluster>  (44) 
8

$$$$

     RDKit          3D

 55 58  0  0  0  0  0  0  0  0999 V2000
  132.8120   74.2870  227.5240 N   0  0  0  0  0  0  0  0  0  0  0  0
  133.4850   73.1240  226.4600 S   0  0  0  0  0  0  0  0  0  0  0  0
  132.3150   72.4400  225.7790 O   0  0  0  0  0  0  0  0  0  0  0  0
  134.1770   72.0410  227.2420 O   0  0  0  0  0  0  0  0  0  0  0  0
  134.5190   73.8430  225.2510 C   0  0  0  0  0  0  0  0  0  0  0  0
  135.0650   73.0770  224.2350 C   0  0  0  0  0  0  0  0  0  0  0  0
  135.8700   73.6400  223.2940 C   0  0  0  0  0  0  0  0  0  0  0  0
  136.1950   75.0020  223.2880 C   0  0  0  0  0  0  0  0  0  0  0  0
  137.0650   75.5290  222.2450 C   0  0  0  0  0  0  0  0  0  0  0  0
  138.1420   76.2470  222.4700 C   0  0  0  0  0  0  0  0  0  0  0  0
  139.4220   75.8110  221.9260 C   0  0  0  0  0  0  0  0  0  0  0  0
  139.7520   74.5090  222.0040 N   0  0  0  0  0  0  0  0  0  0  0  0
  140.9010   74.0160  221.5450 C   0  0  0  0  0  0  0  0  0  0  0  0
  141.1790   72.6610  221.6580 C   0  0  0  0  0  0  0  0  0  0  0  0
  142.3800   72.2090  221.1680 C   0  0  0  0  0  0  0  0  0  0  0  0
  143.2870   73.0880  220.5770 C   0  0  0  0  0  0  0  0  0  0  0  0
  144.4680   72.6190  220.0990 F   0  0  0  0  0  0  0  0  0  0  0  0
  142.9810   74.4180  220.4830 C   0  0  0  0  0  0  0  0  0  0  0  0
  141.7860   74.9030  220.9640 C   0  0  0  0  0  0  0  0  0  0  0  0
  141.4390   76.2280  220.8900 C   0  0  0  0  0  0  0  0  0  0  0  0
  142.2570   77.0140  220.3590 O   0  0  0  0  0  0  0  0  0  0  0  0
  140.2530   76.7070  221.3680 N   0  0  0  0  0  0  0  0  0  0  0  0
  140.0130   78.1000  221.2430 C   0  0  0  0  0  0  0  0  0  0  0  0
  140.7190   79.0070  222.2030 C   0  0  0  0  0  0  0  0  0  0  0  0
  141.4570   78.3480  223.3090 C   0  0  0  0  0  0  0  0  0  0  0  0
  142.0530   79.4140  224.1930 C   0  0  0  0  0  0  0  0  0  0  0  0
  141.8530   80.7750  223.6280 C   0  0  0  0  0  0  0  0  0  0  0  0
  142.1930   80.9360  222.1810 C   0  0  0  0  0  0  0  0  0  0  0  0
  141.7920   79.7240  221.3570 C   0  0  0  0  0  0  0  0  0  0  0  0
  135.6530   75.7520  224.2920 C   0  0  0  0  0  0  0  0  0  0  0  0
  134.8270   75.1790  225.2590 C   0  0  0  0  0  0  0  0  0  0  0  0
  132.5490   73.7670  228.3990 H   0  0  0  0  0  0  0  0  0  0  0  0
  131.9250   74.6300  227.0710 H   0  0  0  0  0  0  0  0  0  0  0  0
  134.8452   72.0002  224.1882 H   0  0  0  0  0  0  0  0  0  0  0  0
  136.2838   72.9971  222.5031 H   0  0  0  0  0  0  0  0  0  0  0  0
  136.8026   75.3112  221.1992 H   0  0  0  0  0  0  0  0  0  0  0  0
  138.0782   77.1703  223.0645 H   0  0  0  0  0  0  0  0  0  0  0  0
  140.4606   71.9711  222.1250 H   0  0  0  0  0  0  0  0  0  0  0  0
  142.6294   71.1403  221.2427 H   0  0  0  0  0  0  0  0  0  0  0  0
  143.6992   75.1087  220.0170 H   0  0  0  0  0  0  0  0  0  0  0  0
  140.3120   78.3970  220.2269 H   0  0  0  0  0  0  0  0  0  0  0  0
  138.9441   78.2242  221.4710 H   0  0  0  0  0  0  0  0  0  0  0  0
  139.9483   79.6322  222.6775 H   0  0  0  0  0  0  0  0  0  0  0  0
  140.7662   77.7242  223.8952 H   0  0  0  0  0  0  0  0  0  0  0  0
  142.2545   77.7100  222.9004 H   0  0  0  0  0  0  0  0  0  0  0  0
  141.5742   79.3651  225.1821 H   0  0  0  0  0  0  0  0  0  0  0  0
  143.1350   79.2305  224.2682 H   0  0  0  0  0  0  0  0  0  0  0  0
  140.7937   81.0416  223.7573 H   0  0  0  0  0  0  0  0  0  0  0  0
  142.5493   81.4295  224.1728 H   0  0  0  0  0  0  0  0  0  0  0  0
  141.6670   81.8195  221.7901 H   0  0  0  0  0  0  0  0  0  0  0  0
  143.2841   81.0510  222.1021 H   0  0  0  0  0  0  0  0  0  0  0  0
  141.3762   80.0354  220.3874 H   0  0  0  0  0  0  0  0  0  0  0  0
  142.6494   79.0714  221.1355 H   0  0  0  0  0  0  0  0  0  0  0  0
  135.8720   76.8289  224.3392 H   0  0  0  0  0  0  0  0  0  0  0  0
  134.4103   75.8180  226.0515 H   0  0  0  0  0  0  0  0  0  0  0  0
  1  2  1  0
  2  3  2  0
  2  4  2  0
  2  5  1  0
  5  6  2  0
  6  7  1  0
  7  8  2  0
  8  9  1  0
  9 10  2  0
 10 11  1  0
 11 12  2  0
 12 13  1  0
 13 14  2  0
 14 15  1  0
 15 16  2  0
 16 17  1  0
 16 18  1  0
 18 19  2  0
 19 20  1  0
 20 21  2  0
 20 22  1  0
 22 23  1  0
 23 24  1  0
 24 25  1  0
 25 26  1  0
 26 27  1  0
 27 28  1  0
 28 29  1  0
  8 30  1  0
 30 31  2  0
 31  5  1  0
 22 11  1  0
 29 24  1  0
 19 13  1  0
  1 32  1  0
  1 33  1  0
  6 34  1  0
  7 35  1  0
  9 36  1  0
 10 37  1  0
 14 38  1  0
 15 39  1  0
 18 40  1  0
 23 41  1  0
 23 42  1  0
 24 43  1  0
 25 44  1  0
 25 45  1  0
 26 46  1  0
 26 47  1  0
 27 48  1  0
 27 49  1  0
 28 50  1  0
 28 51  1  0
 29 52  1  0
 29 53  1  0
 30 54  1  0
 31 55  1  0
M  END
>  <smiles>  (45) 
NS(=O)(=O)c1ccc(/C=C/c2nc3ccc(F)cc3c(=O)n2CC2CCCCC2)cc1

>  <score_type>  (45) 
oracle

>  <origin>  (45) 
autodockgpu

>  <m_score__min__energy>  (45) 
-9.1300000000000008

>  <m_primary>  (45) 
energy

>  <rmsd>  (45) 
7.333641548885317

>  <m_score__min__rmsd>  (45) 
7.333641548885317

>  <meeko>  (45) 
{"free_energy": -8.27, "intermolecular_energy": -10.35, "internal_energy": -1.28, "cluster_size": 4, "cluster_id": 4, "rank_in_cluster": 1}

>  <energy>  (45) 
-7.75

>  <cluster_rmsd>  (45) 
1.28

>  <cluster>  (45) 
8

$$$$

     RDKit          3D

 55 58  0  0  0  0  0  0  0  0999 V2000
  145.9720   73.4130  218.1880 N   0  0  0  0  0  0  0  0  0  0  0  0
  145.7670   72.6930  219.7300 S   0  0  0  0  0  0  0  0  0  0  0  0
  146.6900   73.4380  220.6750 O   0  0  0  0  0  0  0  0  0  0  0  0
  146.2750   71.2770  219.7150 O   0  0  0  0  0  0  0  0  0  0  0  0
  144.1250   72.8100  220.3100 C   0  0  0  0  0  0  0  0  0  0  0  0
  143.4330   71.6830  220.7200 C   0  0  0  0  0  0  0  0  0  0  0  0
  142.1540   71.7770  221.1730 C   0  0  0  0  0  0  0  0  0  0  0  0
  141.4640   72.9940  221.2530 C   0  0  0  0  0  0  0  0  0  0  0  0
  140.0940   73.0110  221.7490 C   0  0  0  0  0  0  0  0  0  0  0  0
  139.3440   71.9410  221.8950 C   0  0  0  0  0  0  0  0  0  0  0  0
  139.4410   71.1600  223.1210 C   0  0  0  0  0  0  0  0  0  0  0  0
  140.1110   71.6740  224.1680 N   0  0  0  0  0  0  0  0  0  0  0  0
  140.2630   71.0330  225.3260 C   0  0  0  0  0  0  0  0  0  0  0  0
  140.9680   71.6210  226.3670 C   0  0  0  0  0  0  0  0  0  0  0  0
  141.0930   70.9140  227.5390 C   0  0  0  0  0  0  0  0  0  0  0  0
  140.5280   69.6450  227.6710 C   0  0  0  0  0  0  0  0  0  0  0  0
  140.6640   68.9650  228.8380 F   0  0  0  0  0  0  0  0  0  0  0  0
  139.8410   69.0960  226.6240 C   0  0  0  0  0  0  0  0  0  0  0  0
  139.6970   69.7780  225.4370 C   0  0  0  0  0  0  0  0  0  0  0  0
  139.0160   69.2650  224.3640 C   0  0  0  0  0  0  0  0  0  0  0  0
  138.5110   68.1250  224.4870 O   0  0  0  0  0  0  0  0  0  0  0  0
  138.8750   69.9440  223.1870 N   0  0  0  0  0  0  0  0  0  0  0  0
  138.1570   69.3020  222.1450 C   0  0  0  0  0  0  0  0  0  0  0  0
  138.9470   68.4860  221.1680 C   0  0  0  0  0  0  0  0  0  0  0  0
  140.3000   68.9930  220.8300 C   0  0  0  0  0  0  0  0  0  0  0  0
  140.9160   68.0790  219.8020 C   0  0  0  0  0  0  0  0  0  0  0  0
  140.0640   66.8860  219.5450 C   0  0  0  0  0  0  0  0  0  0  0  0
  139.5590   66.1730  220.7580 C   0  0  0  0  0  0  0  0  0  0  0  0
  139.1750   67.1320  221.8720 C   0  0  0  0  0  0  0  0  0  0  0  0
  142.1520   74.1010  220.8480 C   0  0  0  0  0  0  0  0  0  0  0  0
  143.4640   74.0090  220.3840 C   0  0  0  0  0  0  0  0  0  0  0  0
  146.9000   73.9070  218.2150 H   0  0  0  0  0  0  0  0  0  0  0  0
  145.2190   74.1420  218.0950 H   0  0  0  0  0  0  0  0  0  0  0  0
  143.9237   70.6994  220.6788 H   0  0  0  0  0  0  0  0  0  0  0  0
  141.6391   70.8582  221.4902 H   0  0  0  0  0  0  0  0  0  0  0  0
  139.6581   73.9841  222.0193 H   0  0  0  0  0  0  0  0  0  0  0  0
  138.6490   71.6380  221.0980 H   0  0  0  0  0  0  0  0  0  0  0  0
  141.4126   72.6212  226.2575 H   0  0  0  0  0  0  0  0  0  0  0  0
  141.6449   71.3537  228.3828 H   0  0  0  0  0  0  0  0  0  0  0  0
  139.3972   68.0953  226.7317 H   0  0  0  0  0  0  0  0  0  0  0  0
  137.4204   68.6334  222.6145 H   0  0  0  0  0  0  0  0  0  0  0  0
  137.7309   70.1222  221.5486 H   0  0  0  0  0  0  0  0  0  0  0  0
  138.3780   68.4766  220.2266 H   0  0  0  0  0  0  0  0  0  0  0  0
  140.2222   70.0111  220.4208 H   0  0  0  0  0  0  0  0  0  0  0  0
  140.9273   69.0177  221.7333 H   0  0  0  0  0  0  0  0  0  0  0  0
  141.0438   68.6351  218.8615 H   0  0  0  0  0  0  0  0  0  0  0  0
  141.8851   67.7313  220.1892 H   0  0  0  0  0  0  0  0  0  0  0  0
  139.1926   67.2136  218.9590 H   0  0  0  0  0  0  0  0  0  0  0  0
  140.7097   66.1651  219.0222 H   0  0  0  0  0  0  0  0  0  0  0  0
  138.6739   65.5827  220.4786 H   0  0  0  0  0  0  0  0  0  0  0  0
  140.3691   65.5296  221.1320 H   0  0  0  0  0  0  0  0  0  0  0  0
  138.2547   66.7959  222.3721 H   0  0  0  0  0  0  0  0  0  0  0  0
  139.9498   67.1948  222.6502 H   0  0  0  0  0  0  0  0  0  0  0  0
  141.6621   75.0850  220.8884 H   0  0  0  0  0  0  0  0  0  0  0  0
  143.9839   74.9255  220.0681 H   0  0  0  0  0  0  0  0  0  0  0  0
  1  2  1  0
  2  3  2  0
  2  4  2  0
  2  5  1  0
  5  6  2  0
  6  7  1  0
  7  8  2  0
  8  9  1  0
  9 10  2  0
 10 11  1  0
 11 12  2  0
 12 13  1  0
 13 14  2  0
 14 15  1  0
 15 16  2  0
 16 17  1  0
 16 18  1  0
 18 19  2  0
 19 20  1  0
 20 21  2  0
 20 22  1  0
 22 23  1  0
 23 24  1  0
 24 25  1  0
 25 26  1  0
 26 27  1  0
 27 28  1  0
 28 29  1  0
  8 30  1  0
 30 31  2  0
 31  5  1  0
 22 11  1  0
 29 24  1  0
 19 13  1  0
  1 32  1  0
  1 33  1  0
  6 34  1  0
  7 35  1  0
  9 36  1  0
 10 37  1  0
 14 38  1  0
 15 39  1  0
 18 40  1  0
 23 41  1  0
 23 42  1  0
 24 43  1  0
 25 44  1  0
 25 45  1  0
 26 46  1  0
 26 47  1  0
 27 48  1  0
 27 49  1  0
 28 50  1  0
 28 51  1  0
 29 52  1  0
 29 53  1  0
 30 54  1  0
 31 55  1  0
M  END
>  <smiles>  (46) 
NS(=O)(=O)c1ccc(/C=C/c2nc3ccc(F)cc3c(=O)n2CC2CCCCC2)cc1

>  <score_type>  (46) 
oracle

>  <origin>  (46) 
autodockgpu

>  <m_score__min__energy>  (46) 
-9.1300000000000008

>  <m_primary>  (46) 
energy

>  <rmsd>  (46) 
10.435859606827979

>  <m_score__min__rmsd>  (46) 
10.435859606827979

>  <meeko>  (46) 
{"free_energy": -8.85, "intermolecular_energy": -10.94, "internal_energy": -1.7, "cluster_size": 24, "cluster_id": 2, "rank_in_cluster": 4}

>  <energy>  (46) 
-7.55

>  <cluster_rmsd>  (46) 
0.0

>  <cluster>  (46) 
9

$$$$

     RDKit          3D

 55 58  0  0  0  0  0  0  0  0999 V2000
  139.4450   67.1230  226.7680 N   0  0  0  0  0  0  0  0  0  0  0  0
  139.9780   68.7220  227.0720 S   0  0  0  0  0  0  0  0  0  0  0  0
  141.4460   68.6210  227.4400 O   0  0  0  0  0  0  0  0  0  0  0  0
  139.3000   69.2740  228.2970 O   0  0  0  0  0  0  0  0  0  0  0  0
  139.8000   69.7630  225.6820 C   0  0  0  0  0  0  0  0  0  0  0  0
  140.6480   70.8390  225.4860 C   0  0  0  0  0  0  0  0  0  0  0  0
  140.5080   71.6480  224.4010 C   0  0  0  0  0  0  0  0  0  0  0  0
  139.5170   71.4530  223.4300 C   0  0  0  0  0  0  0  0  0  0  0  0
  139.4320   72.3640  222.2970 C   0  0  0  0  0  0  0  0  0  0  0  0
  140.4340   72.6440  221.4930 C   0  0  0  0  0  0  0  0  0  0  0  0
  140.8060   74.0350  221.2690 C   0  0  0  0  0  0  0  0  0  0  0  0
  140.2340   74.9910  222.0220 N   0  0  0  0  0  0  0  0  0  0  0  0
  140.5000   76.2890  221.8850 C   0  0  0  0  0  0  0  0  0  0  0  0
  139.8730   77.2240  222.6970 C   0  0  0  0  0  0  0  0  0  0  0  0
  140.1860   78.5490  222.5110 C   0  0  0  0  0  0  0  0  0  0  0  0
  141.1050   78.9360  221.5360 C   0  0  0  0  0  0  0  0  0  0  0  0
  141.4000   80.2500  221.3690 F   0  0  0  0  0  0  0  0  0  0  0  0
  141.7040   77.9870  220.7530 C   0  0  0  0  0  0  0  0  0  0  0  0
  141.4120   76.6520  220.9140 C   0  0  0  0  0  0  0  0  0  0  0  0
  141.9890   75.6690  220.1520 C   0  0  0  0  0  0  0  0  0  0  0  0
  142.8140   76.0210  219.2770 O   0  0  0  0  0  0  0  0  0  0  0  0
  141.6980   74.3440  220.3140 N   0  0  0  0  0  0  0  0  0  0  0  0
  142.3530   73.4220  219.4560 C   0  0  0  0  0  0  0  0  0  0  0  0
  143.8270   73.2350  219.6470 C   0  0  0  0  0  0  0  0  0  0  0  0
  144.4170   73.8550  220.8590 C   0  0  0  0  0  0  0  0  0  0  0  0
  145.9040   73.6080  220.8530 C   0  0  0  0  0  0  0  0  0  0  0  0
  146.3090   72.7120  219.7360 C   0  0  0  0  0  0  0  0  0  0  0  0
  145.4940   71.4710  219.5670 C   0  0  0  0  0  0  0  0  0  0  0  0
  144.0160   71.7140  219.8250 C   0  0  0  0  0  0  0  0  0  0  0  0
  138.6840   70.3890  223.6290 C   0  0  0  0  0  0  0  0  0  0  0  0
  138.8250   69.5570  224.7390 C   0  0  0  0  0  0  0  0  0  0  0  0
  138.8030   66.8700  227.5630 H   0  0  0  0  0  0  0  0  0  0  0  0
  140.2950   66.5060  226.8280 H   0  0  0  0  0  0  0  0  0  0  0  0
  141.4450   71.0427  226.2163 H   0  0  0  0  0  0  0  0  0  0  0  0
  141.2032   72.4920  224.2810 H   0  0  0  0  0  0  0  0  0  0  0  0
  138.4651   72.8503  222.1007 H   0  0  0  0  0  0  0  0  0  0  0  0
  140.9870   71.8348  220.9935 H   0  0  0  0  0  0  0  0  0  0  0  0
  139.1488   76.9142  223.4648 H   0  0  0  0  0  0  0  0  0  0  0  0
  139.7058   79.3139  223.1389 H   0  0  0  0  0  0  0  0  0  0  0  0
  142.4284   78.2954  219.9848 H   0  0  0  0  0  0  0  0  0  0  0  0
  141.8744   72.4417  219.5970 H   0  0  0  0  0  0  0  0  0  0  0  0
  142.2506   73.8514  218.4484 H   0  0  0  0  0  0  0  0  0  0  0  0
  144.3228   73.7086  218.7868 H   0  0  0  0  0  0  0  0  0  0  0  0
  144.2216   74.9375  220.8535 H   0  0  0  0  0  0  0  0  0  0  0  0
  143.9676   73.4152  221.7616 H   0  0  0  0  0  0  0  0  0  0  0  0
  146.4248   74.5708  220.7443 H   0  0  0  0  0  0  0  0  0  0  0  0
  146.1739   73.1183  221.8003 H   0  0  0  0  0  0  0  0  0  0  0  0
  146.2438   73.2880  218.8012 H   0  0  0  0  0  0  0  0  0  0  0  0
  147.3251   72.3698  219.9820 H   0  0  0  0  0  0  0  0  0  0  0  0
  145.6180   71.1034  218.5377 H   0  0  0  0  0  0  0  0  0  0  0  0
  145.8477   70.7326  220.3017 H   0  0  0  0  0  0  0  0  0  0  0  0
  143.4005   71.1601  219.1009 H   0  0  0  0  0  0  0  0  0  0  0  0
  143.7084   71.3725  220.8244 H   0  0  0  0  0  0  0  0  0  0  0  0
  137.8865   70.1845  222.8995 H   0  0  0  0  0  0  0  0  0  0  0  0
  138.1339   68.7102  224.8623 H   0  0  0  0  0  0  0  0  0  0  0  0
  1  2  1  0
  2  3  2  0
  2  4  2  0
  2  5  1  0
  5  6  2  0
  6  7  1  0
  7  8  2  0
  8  9  1  0
  9 10  2  0
 10 11  1  0
 11 12  2  0
 12 13  1  0
 13 14  2  0
 14 15  1  0
 15 16  2  0
 16 17  1  0
 16 18  1  0
 18 19  2  0
 19 20  1  0
 20 21  2  0
 20 22  1  0
 22 23  1  0
 23 24  1  0
 24 25  1  0
 25 26  1  0
 26 27  1  0
 27 28  1  0
 28 29  1  0
  8 30  1  0
 30 31  2  0
 31  5  1  0
 22 11  1  0
 29 24  1  0
 19 13  1  0
  1 32  1  0
  1 33  1  0
  6 34  1  0
  7 35  1  0
  9 36  1  0
 10 37  1  0
 14 38  1  0
 15 39  1  0
 18 40  1  0
 23 41  1  0
 23 42  1  0
 24 43  1  0
 25 44  1  0
 25 45  1  0
 26 46  1  0
 26 47  1  0
 27 48  1  0
 27 49  1  0
 28 50  1  0
 28 51  1  0
 29 52  1  0
 29 53  1  0
 30 54  1  0
 31 55  1  0
M  END
>  <smiles>  (47) 
NS(=O)(=O)c1ccc(/C=C/c2nc3ccc(F)cc3c(=O)n2CC2CCCCC2)cc1

>  <score_type>  (47) 
oracle

>  <origin>  (47) 
autodockgpu

>  <m_score__min__energy>  (47) 
-9.1300000000000008

>  <m_primary>  (47) 
energy

>  <rmsd>  (47) 
5.583191332521114

>  <m_score__min__rmsd>  (47) 
5.583191332521114

>  <meeko>  (47) 
{"free_energy": -9.13, "intermolecular_energy": -11.22, "internal_energy": -1.29, "cluster_size": 7, "cluster_id": 1, "rank_in_cluster": 1}

>  <energy>  (47) 
-7.5

>  <cluster_rmsd>  (47) 
0.37

>  <cluster>  (47) 
9

$$$$

     RDKit          3D

 55 58  0  0  0  0  0  0  0  0999 V2000
  141.0580   68.1690  227.9570 N   0  0  0  0  0  0  0  0  0  0  0  0
  140.4060   69.7470  227.8180 S   0  0  0  0  0  0  0  0  0  0  0  0
  141.3660   70.6710  228.5420 O   0  0  0  0  0  0  0  0  0  0  0  0
  139.1120   69.8460  228.5780 O   0  0  0  0  0  0  0  0  0  0  0  0
  140.2500   70.2620  226.1570 C   0  0  0  0  0  0  0  0  0  0  0  0
  139.5570   69.4940  225.2370 C   0  0  0  0  0  0  0  0  0  0  0  0
  139.4350   69.8970  223.9440 C   0  0  0  0  0  0  0  0  0  0  0  0
  139.9910   71.0900  223.4640 C   0  0  0  0  0  0  0  0  0  0  0  0
  139.8170   71.4510  222.0630 C   0  0  0  0  0  0  0  0  0  0  0  0
  140.7430   72.0210  221.3240 C   0  0  0  0  0  0  0  0  0  0  0  0
  140.7290   73.4680  221.1480 C   0  0  0  0  0  0  0  0  0  0  0  0
  139.9550   74.2140  221.9550 N   0  0  0  0  0  0  0  0  0  0  0  0
  139.8680   75.5400  221.8660 C   0  0  0  0  0  0  0  0  0  0  0  0
  139.0480   76.2500  222.7320 C   0  0  0  0  0  0  0  0  0  0  0  0
  138.9970   77.6170  222.5930 C   0  0  0  0  0  0  0  0  0  0  0  0
  139.7480   78.2630  221.6110 C   0  0  0  0  0  0  0  0  0  0  0  0
  139.6820   79.6140  221.4920 F   0  0  0  0  0  0  0  0  0  0  0  0
  140.5450   77.5310  220.7740 C   0  0  0  0  0  0  0  0  0  0  0  0
  140.6180   76.1620  220.8870 C   0  0  0  0  0  0  0  0  0  0  0  0
  141.4040   75.3910  220.0700 C   0  0  0  0  0  0  0  0  0  0  0  0
  142.0760   75.9760  219.1890 O   0  0  0  0  0  0  0  0  0  0  0  0
  141.4760   74.0310  220.1840 N   0  0  0  0  0  0  0  0  0  0  0  0
  142.3170   73.3430  219.2720 C   0  0  0  0  0  0  0  0  0  0  0  0
  143.7830   73.3180  219.5770 C   0  0  0  0  0  0  0  0  0  0  0  0
  144.2130   74.0380  220.8010 C   0  0  0  0  0  0  0  0  0  0  0  0
  145.7140   73.9480  220.9120 C   0  0  0  0  0  0  0  0  0  0  0  0
  146.2920   73.0610  219.8670 C   0  0  0  0  0  0  0  0  0  0  0  0
  145.6220   71.7360  219.6930 C   0  0  0  0  0  0  0  0  0  0  0  0
  144.1110   71.8320  219.8330 C   0  0  0  0  0  0  0  0  0  0  0  0
  140.6730   71.8430  224.3770 C   0  0  0  0  0  0  0  0  0  0  0  0
  140.7990   71.4340  225.7040 C   0  0  0  0  0  0  0  0  0  0  0  0
  141.6950   68.0390  227.1300 H   0  0  0  0  0  0  0  0  0  0  0  0
  140.2520   67.5000  227.8530 H   0  0  0  0  0  0  0  0  0  0  0  0
  139.0993   68.5459  225.5559 H   0  0  0  0  0  0  0  0  0  0  0  0
  138.8754   69.2586  223.2445 H   0  0  0  0  0  0  0  0  0  0  0  0
  138.8470   71.2322  221.5927 H   0  0  0  0  0  0  0  0  0  0  0  0
  141.5217   71.4112  220.8426 H   0  0  0  0  0  0  0  0  0  0  0  0
  138.4579   75.7356  223.5047 H   0  0  0  0  0  0  0  0  0  0  0  0
  138.3564   78.2081  223.2641 H   0  0  0  0  0  0  0  0  0  0  0  0
  141.1353   78.0439  220.0004 H   0  0  0  0  0  0  0  0  0  0  0  0
  141.9710   72.2999  219.2254 H   0  0  0  0  0  0  0  0  0  0  0  0
  142.2332   73.9052  218.3302 H   0  0  0  0  0  0  0  0  0  0  0  0
  144.2923   73.8107  218.7357 H   0  0  0  0  0  0  0  0  0  0  0  0
  143.9092   75.0932  220.7358 H   0  0  0  0  0  0  0  0  0  0  0  0
  143.7436   73.5852  221.6868 H   0  0  0  0  0  0  0  0  0  0  0  0
  146.1406   74.9557  220.7998 H   0  0  0  0  0  0  0  0  0  0  0  0
  145.9596   73.5227  221.8963 H   0  0  0  0  0  0  0  0  0  0  0  0
  146.2403   73.5938  218.9061 H   0  0  0  0  0  0  0  0  0  0  0  0
  147.3159   72.8358  220.2001 H   0  0  0  0  0  0  0  0  0  0  0  0
  145.8608   71.3474  218.6920 H   0  0  0  0  0  0  0  0  0  0  0  0
  145.9917   71.0651  220.4824 H   0  0  0  0  0  0  0  0  0  0  0  0
  143.6119   71.1919  219.0906 H   0  0  0  0  0  0  0  0  0  0  0  0
  143.7641   71.4953  220.8211 H   0  0  0  0  0  0  0  0  0  0  0  0
  141.1319   72.7908  224.0591 H   0  0  0  0  0  0  0  0  0  0  0  0
  141.3552   72.0702  226.4082 H   0  0  0  0  0  0  0  0  0  0  0  0
  1  2  1  0
  2  3  2  0
  2  4  2  0
  2  5  1  0
  5  6  2  0
  6  7  1  0
  7  8  2  0
  8  9  1  0
  9 10  2  0
 10 11  1  0
 11 12  2  0
 12 13  1  0
 13 14  2  0
 14 15  1  0
 15 16  2  0
 16 17  1  0
 16 18  1  0
 18 19  2  0
 19 20  1  0
 20 21  2  0
 20 22  1  0
 22 23  1  0
 23 24  1  0
 24 25  1  0
 25 26  1  0
 26 27  1  0
 27 28  1  0
 28 29  1  0
  8 30  1  0
 30 31  2  0
 31  5  1  0
 22 11  1  0
 29 24  1  0
 19 13  1  0
  1 32  1  0
  1 33  1  0
  6 34  1  0
  7 35  1  0
  9 36  1  0
 10 37  1  0
 14 38  1  0
 15 39  1  0
 18 40  1  0
 23 41  1  0
 23 42  1  0
 24 43  1  0
 25 44  1  0
 25 45  1  0
 26 46  1  0
 26 47  1  0
 27 48  1  0
 27 49  1  0
 28 50  1  0
 28 51  1  0
 29 52  1  0
 29 53  1  0
 30 54  1  0
 31 55  1  0
M  END
>  <smiles>  (48) 
NS(=O)(=O)c1ccc(/C=C/c2nc3ccc(F)cc3c(=O)n2CC2CCCCC2)cc1

>  <score_type>  (48) 
oracle

>  <origin>  (48) 
autodockgpu

>  <m_score__min__energy>  (48) 
-9.1300000000000008

>  <m_primary>  (48) 
energy

>  <rmsd>  (48) 
5.719511291597466

>  <m_score__min__rmsd>  (48) 
5.719511291597466

>  <meeko>  (48) 
{"free_energy": -8.21, "intermolecular_energy": -10.3, "internal_energy": -1.46, "cluster_size": 7, "cluster_id": 1, "rank_in_cluster": 7}

>  <energy>  (48) 
-7.48

>  <cluster_rmsd>  (48) 
0.21

>  <cluster>  (48) 
9

$$$$

     RDKit          3D

 55 58  0  0  0  0  0  0  0  0999 V2000
  139.1990   67.0340  226.4620 N   0  0  0  0  0  0  0  0  0  0  0  0
  139.9920   68.5280  226.7310 S   0  0  0  0  0  0  0  0  0  0  0  0
  141.4730   68.2150  226.8270 O   0  0  0  0  0  0  0  0  0  0  0  0
  139.6170   69.0830  228.0780 O   0  0  0  0  0  0  0  0  0  0  0  0
  139.7250   69.6700  225.4370 C   0  0  0  0  0  0  0  0  0  0  0  0
  140.5110   70.8030  225.3140 C   0  0  0  0  0  0  0  0  0  0  0  0
  140.3010   71.6900  224.3060 C   0  0  0  0  0  0  0  0  0  0  0  0
  139.2970   71.5240  223.3430 C   0  0  0  0  0  0  0  0  0  0  0  0
  139.1360   72.5210  222.2930 C   0  0  0  0  0  0  0  0  0  0  0  0
  139.7010   73.7080  222.3040 C   0  0  0  0  0  0  0  0  0  0  0  0
  140.9530   73.9130  221.5860 C   0  0  0  0  0  0  0  0  0  0  0  0
  141.8270   72.8940  221.4990 N   0  0  0  0  0  0  0  0  0  0  0  0
  143.0000   72.9870  220.8740 C   0  0  0  0  0  0  0  0  0  0  0  0
  143.8560   71.8950  220.8220 C   0  0  0  0  0  0  0  0  0  0  0  0
  145.0520   72.0490  220.1640 C   0  0  0  0  0  0  0  0  0  0  0  0
  145.3900   73.2640  219.5700 C   0  0  0  0  0  0  0  0  0  0  0  0
  146.5770   73.3930  218.9250 F   0  0  0  0  0  0  0  0  0  0  0  0
  144.5220   74.3190  219.6420 C   0  0  0  0  0  0  0  0  0  0  0  0
  143.3160   74.1980  220.2930 C   0  0  0  0  0  0  0  0  0  0  0  0
  142.4170   75.2300  220.3880 C   0  0  0  0  0  0  0  0  0  0  0  0
  142.7250   76.3200  219.8530 O   0  0  0  0  0  0  0  0  0  0  0  0
  141.2200   75.1080  221.0340 N   0  0  0  0  0  0  0  0  0  0  0  0
  140.3790   76.2500  221.0730 C   0  0  0  0  0  0  0  0  0  0  0  0
  140.7770   77.3640  221.9920 C   0  0  0  0  0  0  0  0  0  0  0  0
  141.7660   78.3330  221.4610 C   0  0  0  0  0  0  0  0  0  0  0  0
  142.0800   79.3410  222.5370 C   0  0  0  0  0  0  0  0  0  0  0  0
  141.2170   79.1560  223.7340 C   0  0  0  0  0  0  0  0  0  0  0  0
  139.7550   79.0010  223.4660 C   0  0  0  0  0  0  0  0  0  0  0  0
  139.4830   78.1730  222.2200 C   0  0  0  0  0  0  0  0  0  0  0  0
  138.5260   70.4040  223.4700 C   0  0  0  0  0  0  0  0  0  0  0  0
  138.7380   69.4910  224.5020 C   0  0  0  0  0  0  0  0  0  0  0  0
  139.5970   66.3590  227.1640 H   0  0  0  0  0  0  0  0  0  0  0  0
  139.4840   66.7100  225.5020 H   0  0  0  0  0  0  0  0  0  0  0  0
  141.3155   70.9876  226.0412 H   0  0  0  0  0  0  0  0  0  0  0  0
  140.9479   72.5775  224.2434 H   0  0  0  0  0  0  0  0  0  0  0  0
  138.4993   72.2635  221.4338 H   0  0  0  0  0  0  0  0  0  0  0  0
  139.2328   74.5398  222.8506 H   0  0  0  0  0  0  0  0  0  0  0  0
  143.5854   70.9381  221.2922 H   0  0  0  0  0  0  0  0  0  0  0  0
  145.7521   71.2026  220.1051 H   0  0  0  0  0  0  0  0  0  0  0  0
  144.7919   75.2768  219.1732 H   0  0  0  0  0  0  0  0  0  0  0  0
  140.3336   76.6621  220.0541 H   0  0  0  0  0  0  0  0  0  0  0  0
  139.4217   75.8828  221.4715 H   0  0  0  0  0  0  0  0  0  0  0  0
  141.2446   76.8999  222.8729 H   0  0  0  0  0  0  0  0  0  0  0  0
  142.6850   77.8027  221.1709 H   0  0  0  0  0  0  0  0  0  0  0  0
  141.3542   78.8432  220.5778 H   0  0  0  0  0  0  0  0  0  0  0  0
  143.1326   79.2273  222.8356 H   0  0  0  0  0  0  0  0  0  0  0  0
  141.8914   80.3457  222.1307 H   0  0  0  0  0  0  0  0  0  0  0  0
  141.5606   78.2538  224.2612 H   0  0  0  0  0  0  0  0  0  0  0  0
  141.3162   80.0823  224.3189 H   0  0  0  0  0  0  0  0  0  0  0  0
  139.2874   78.5054  224.3295 H   0  0  0  0  0  0  0  0  0  0  0  0
  139.3338   80.0040  223.3030 H   0  0  0  0  0  0  0  0  0  0  0  0
  138.6286   77.4993  222.3817 H   0  0  0  0  0  0  0  0  0  0  0  0
  139.2280   78.8002  221.3530 H   0  0  0  0  0  0  0  0  0  0  0  0
  137.7214   70.2185  222.7433 H   0  0  0  0  0  0  0  0  0  0  0  0
  138.0948   68.6011  224.5682 H   0  0  0  0  0  0  0  0  0  0  0  0
  1  2  1  0
  2  3  2  0
  2  4  2  0
  2  5  1  0
  5  6  2  0
  6  7  1  0
  7  8  2  0
  8  9  1  0
  9 10  2  0
 10 11  1  0
 11 12  2  0
 12 13  1  0
 13 14  2  0
 14 15  1  0
 15 16  2  0
 16 17  1  0
 16 18  1  0
 18 19  2  0
 19 20  1  0
 20 21  2  0
 20 22  1  0
 22 23  1  0
 23 24  1  0
 24 25  1  0
 25 26  1  0
 26 27  1  0
 27 28  1  0
 28 29  1  0
  8 30  1  0
 30 31  2  0
 31  5  1  0
 22 11  1  0
 29 24  1  0
 19 13  1  0
  1 32  1  0
  1 33  1  0
  6 34  1  0
  7 35  1  0
  9 36  1  0
 10 37  1  0
 14 38  1  0
 15 39  1  0
 18 40  1  0
 23 41  1  0
 23 42  1  0
 24 43  1  0
 25 44  1  0
 25 45  1  0
 26 46  1  0
 26 47  1  0
 27 48  1  0
 27 49  1  0
 28 50  1  0
 28 51  1  0
 29 52  1  0
 29 53  1  0
 30 54  1  0
 31 55  1  0
M  END
>  <smiles>  (49) 
NS(=O)(=O)c1ccc(/C=C/c2nc3ccc(F)cc3c(=O)n2CC2CCCCC2)cc1

>  <score_type>  (49) 
oracle

>  <origin>  (49) 
autodockgpu

>  <m_score__min__energy>  (49) 
-9.1300000000000008

>  <m_primary>  (49) 
energy

>  <rmsd>  (49) 
7.448327097059332

>  <m_score__min__rmsd>  (49) 
7.448327097059332

>  <meeko>  (49) 
{"free_energy": -8.85, "intermolecular_energy": -10.94, "internal_energy": -1.23, "cluster_size": 2, "cluster_id": 3, "rank_in_cluster": 1}

>  <energy>  (49) 
-7.46

>  <cluster_rmsd>  (49) 
0.38

>  <cluster>  (49) 
9

$$$$

     RDKit          3D

 55 58  0  0  0  0  0  0  0  0999 V2000
  132.8510   72.8730  227.5850 N   0  0  0  0  0  0  0  0  0  0  0  0
  133.4580   73.4720  226.0990 S   0  0  0  0  0  0  0  0  0  0  0  0
  134.4180   74.5920  226.4500 O   0  0  0  0  0  0  0  0  0  0  0  0
  132.3560   74.1270  225.3120 O   0  0  0  0  0  0  0  0  0  0  0  0
  134.3020   72.2510  225.1810 C   0  0  0  0  0  0  0  0  0  0  0  0
  134.6530   72.4700  223.8590 C   0  0  0  0  0  0  0  0  0  0  0  0
  135.3120   71.5180  223.1460 C   0  0  0  0  0  0  0  0  0  0  0  0
  135.6720   70.2770  223.6860 C   0  0  0  0  0  0  0  0  0  0  0  0
  136.3770   69.3090  222.8560 C   0  0  0  0  0  0  0  0  0  0  0  0
  137.5530   68.7990  223.1470 C   0  0  0  0  0  0  0  0  0  0  0  0
  138.4560   69.5330  224.0230 C   0  0  0  0  0  0  0  0  0  0  0  0
  138.6050   69.1210  225.2950 N   0  0  0  0  0  0  0  0  0  0  0  0
  139.3990   69.7320  226.1740 C   0  0  0  0  0  0  0  0  0  0  0  0
  139.5060   69.2550  227.4730 C   0  0  0  0  0  0  0  0  0  0  0  0
  140.3400   69.9250  228.3360 C   0  0  0  0  0  0  0  0  0  0  0  0
  141.0520   71.0480  227.9150 C   0  0  0  0  0  0  0  0  0  0  0  0
  141.8690   71.6940  228.7840 F   0  0  0  0  0  0  0  0  0  0  0  0
  140.9200   71.4900  226.6270 C   0  0  0  0  0  0  0  0  0  0  0  0
  140.0940   70.8420  225.7380 C   0  0  0  0  0  0  0  0  0  0  0  0
  139.9350   71.2520  224.4390 C   0  0  0  0  0  0  0  0  0  0  0  0
  140.5760   72.2620  224.0650 O   0  0  0  0  0  0  0  0  0  0  0  0
  139.1140   70.6070  223.5570 N   0  0  0  0  0  0  0  0  0  0  0  0
  139.0250   71.1330  222.2430 C   0  0  0  0  0  0  0  0  0  0  0  0
  138.5950   72.5620  222.1040 C   0  0  0  0  0  0  0  0  0  0  0  0
  139.6330   73.5190  221.6480 C   0  0  0  0  0  0  0  0  0  0  0  0
  139.0340   74.9020  221.6190 C   0  0  0  0  0  0  0  0  0  0  0  0
  137.5750   74.8770  221.9080 C   0  0  0  0  0  0  0  0  0  0  0  0
  136.7780   73.8620  221.1540 C   0  0  0  0  0  0  0  0  0  0  0  0
  137.5250   72.5490  220.9920 C   0  0  0  0  0  0  0  0  0  0  0  0
  135.3240   70.0670  224.9900 C   0  0  0  0  0  0  0  0  0  0  0  0
  134.6490   71.0410  225.7250 C   0  0  0  0  0  0  0  0  0  0  0  0
  132.7370   73.7080  228.2140 H   0  0  0  0  0  0  0  0  0  0  0  0
  133.6040   72.2600  227.9920 H   0  0  0  0  0  0  0  0  0  0  0  0
  134.3954   73.4261  223.3799 H   0  0  0  0  0  0  0  0  0  0  0  0
  135.5738   71.7320  222.0992 H   0  0  0  0  0  0  0  0  0  0  0  0
  135.8928   68.9832  221.9236 H   0  0  0  0  0  0  0  0  0  0  0  0
  137.8529   67.8254  222.7322 H   0  0  0  0  0  0  0  0  0  0  0  0
  138.9417   68.3696  227.8012 H   0  0  0  0  0  0  0  0  0  0  0  0
  140.4473   69.5710  229.3719 H   0  0  0  0  0  0  0  0  0  0  0  0
  141.4823   72.3761  226.2976 H   0  0  0  0  0  0  0  0  0  0  0  0
  140.0193   71.0404  221.7816 H   0  0  0  0  0  0  0  0  0  0  0  0
  138.2289   70.5493  221.7577 H   0  0  0  0  0  0  0  0  0  0  0  0
  138.2819   72.9004  223.1027 H   0  0  0  0  0  0  0  0  0  0  0  0
  140.4858   73.4992  222.3425 H   0  0  0  0  0  0  0  0  0  0  0  0
  139.9845   73.2410  220.6434 H   0  0  0  0  0  0  0  0  0  0  0  0
  139.5363   75.5237  222.3748 H   0  0  0  0  0  0  0  0  0  0  0  0
  139.1761   75.3156  220.6097 H   0  0  0  0  0  0  0  0  0  0  0  0
  137.4474   74.6759  222.9819 H   0  0  0  0  0  0  0  0  0  0  0  0
  137.1908   75.8563  221.5864 H   0  0  0  0  0  0  0  0  0  0  0  0
  135.8414   73.6716  221.6985 H   0  0  0  0  0  0  0  0  0  0  0  0
  136.5828   74.2651  220.1493 H   0  0  0  0  0  0  0  0  0  0  0  0
  136.8421   71.6965  221.1218 H   0  0  0  0  0  0  0  0  0  0  0  0
  137.9690   72.4456  219.9909 H   0  0  0  0  0  0  0  0  0  0  0  0
  135.5812   69.1111  225.4697 H   0  0  0  0  0  0  0  0  0  0  0  0
  134.3870   70.8324  226.7728 H   0  0  0  0  0  0  0  0  0  0  0  0
  1  2  1  0
  2  3  2  0
  2  4  2  0
  2  5  1  0
  5  6  2  0
  6  7  1  0
  7  8  2  0
  8  9  1  0
  9 10  2  0
 10 11  1  0
 11 12  2  0
 12 13  1  0
 13 14  2  0
 14 15  1  0
 15 16  2  0
 16 17  1  0
 16 18  1  0
 18 19  2  0
 19 20  1  0
 20 21  2  0
 20 22  1  0
 22 23  1  0
 23 24  1  0
 24 25  1  0
 25 26  1  0
 26 27  1  0
 27 28  1  0
 28 29  1  0
  8 30  1  0
 30 31  2  0
 31  5  1  0
 22 11  1  0
 29 24  1  0
 19 13  1  0
  1 32  1  0
  1 33  1  0
  6 34  1  0
  7 35  1  0
  9 36  1  0
 10 37  1  0
 14 38  1  0
 15 39  1  0
 18 40  1  0
 23 41  1  0
 23 42  1  0
 24 43  1  0
 25 44  1  0
 25 45  1  0
 26 46  1  0
 26 47  1  0
 27 48  1  0
 27 49  1  0
 28 50  1  0
 28 51  1  0
 29 52  1  0
 29 53  1  0
 30 54  1  0
 31 55  1  0
M  END
>  <smiles>  (50) 
NS(=O)(=O)c1ccc(/C=C/c2nc3ccc(F)cc3c(=O)n2CC2CCCCC2)cc1

>  <score_type>  (50) 
oracle

>  <origin>  (50) 
autodockgpu

>  <m_score__min__energy>  (50) 
-9.1300000000000008

>  <m_primary>  (50) 
energy

>  <rmsd>  (50) 
9.246086262772922

>  <m_score__min__rmsd>  (50) 
9.246086262772922

>  <meeko>  (50) 
{"free_energy": -7.55, "intermolecular_energy": -9.64, "internal_energy": -2.11, "cluster_size": 4, "cluster_id": 9, "rank_in_cluster": 1}

>  <energy>  (50) 
-6.96

>  <cluster_rmsd>  (50) 
0.0

>  <cluster>  (50) 
10

$$$$
