
     RDKit          3D

 48 50  0  0  0  0  0  0  0  0999 V2000
  139.4900   75.4610  221.9610 C   0  0  0  0  0  0  0  0  0  0  0  0
  140.6150   74.6580  222.0160 O   0  0  0  0  0  0  0  0  0  0  0  0
  141.5210   75.0690  221.0340 C   0  0  0  0  0  0  0  0  0  0  0  0
  141.8230   73.8850  220.1070 C   0  0  2  0  0  0  0  0  0  0  0  0
  141.0160   72.7770  220.5990 N   0  0  0  0  0  0  0  0  0  0  0  0
  140.4160   71.9190  219.6480 C   0  0  0  0  0  0  0  0  0  0  0  0
  140.5820   72.1200  218.4050 O   0  0  0  0  0  0  0  0  0  0  0  0
  139.5940   70.7910  220.1650 C   0  0  0  0  0  0  0  0  0  0  0  0
  139.9650   70.4390  221.5230 N   0  0  0  0  0  0  0  0  0  0  0  0
  139.5690   71.2910  222.5890 C   0  0  0  0  0  0  0  0  0  0  0  0
  138.9020   72.3400  222.3480 O   0  0  0  0  0  0  0  0  0  0  0  0
  139.9450   70.9310  223.9530 C   0  0  0  0  0  0  0  0  0  0  0  0
  140.5550   71.8930  224.7500 C   0  0  0  0  0  0  0  0  0  0  0  0
  140.9310   71.6040  226.0470 C   0  0  0  0  0  0  0  0  0  0  0  0
  140.6990   70.3470  226.5610 C   0  0  0  0  0  0  0  0  0  0  0  0
  141.0810   70.0720  227.8600 C   0  0  0  0  0  0  0  0  0  0  0  0
  140.8340   68.8010  228.3420 C   0  0  0  0  0  0  0  0  0  0  0  0
  140.2280   67.8400  227.5560 C   0  0  0  0  0  0  0  0  0  0  0  0
  139.8470   68.1320  226.2420 C   0  0  0  0  0  0  0  0  0  0  0  0
  140.0920   69.4080  225.7480 C   0  0  0  0  0  0  0  0  0  0  0  0
  139.7290   69.7080  224.4750 N   0  0  0  0  0  0  0  0  0  0  0  0
  143.2400   73.5140  220.2160 C   0  0  0  0  0  0  0  0  0  0  0  0
  144.1770   74.4950  220.5290 C   0  0  0  0  0  0  0  0  0  0  0  0
  145.5070   74.1410  220.6290 C   0  0  0  0  0  0  0  0  0  0  0  0
  145.9430   72.8430  220.4290 C   0  0  0  0  0  0  0  0  0  0  0  0
  145.0180   71.8630  220.1160 C   0  0  0  0  0  0  0  0  0  0  0  0
  143.6910   72.2360  220.0210 C   0  0  0  0  0  0  0  0  0  0  0  0
  139.1582   75.6978  222.9827 H   0  0  0  0  0  0  0  0  0  0  0  0
  139.7304   76.3929  221.4283 H   0  0  0  0  0  0  0  0  0  0  0  0
  138.6868   74.9308  221.4283 H   0  0  0  0  0  0  0  0  0  0  0  0
  141.0838   75.8924  220.4502 H   0  0  0  0  0  0  0  0  0  0  0  0
  142.4507   75.4167  221.5080 H   0  0  0  0  0  0  0  0  0  0  0  0
  141.6026   74.1340  219.0585 H   0  0  0  0  0  0  0  0  0  0  0  0
  140.9240   72.6730  221.6340 H   0  0  0  0  0  0  0  0  0  0  0  0
  138.5341   71.0849  220.1492 H   0  0  0  0  0  0  0  0  0  0  0  0
  139.7681   69.9153  219.5225 H   0  0  0  0  0  0  0  0  0  0  0  0
  140.5190   69.5650  221.7100 H   0  0  0  0  0  0  0  0  0  0  0  0
  140.7406   72.8976  224.3421 H   0  0  0  0  0  0  0  0  0  0  0  0
  141.4136   72.3740  226.6669 H   0  0  0  0  0  0  0  0  0  0  0  0
  141.5636   70.8363  228.4869 H   0  0  0  0  0  0  0  0  0  0  0  0
  141.1257   68.5492  229.3723 H   0  0  0  0  0  0  0  0  0  0  0  0
  140.0435   66.8365  227.9670 H   0  0  0  0  0  0  0  0  0  0  0  0
  139.3643   67.3689  225.6137 H   0  0  0  0  0  0  0  0  0  0  0  0
  143.8621   75.5360  220.6940 H   0  0  0  0  0  0  0  0  0  0  0  0
  146.2461   74.9173  220.8762 H   0  0  0  0  0  0  0  0  0  0  0  0
  147.0107   72.5938  220.5177 H   0  0  0  0  0  0  0  0  0  0  0  0
  145.3287   70.8212  219.9483 H   0  0  0  0  0  0  0  0  0  0  0  0
  142.9523   71.4594  219.7738 H   0  0  0  0  0  0  0  0  0  0  0  0
  1  2  1  0
  2  3  1  0
  3  4  1  0
  4  5  1  0
  5  6  1  0
  6  7  2  0
  6  8  1  0
  8  9  1  0
  9 10  1  0
 10 11  2  0
 10 12  1  0
 12 13  2  0
 13 14  1  0
 14 15  2  0
 15 16  1  0
 16 17  2  0
 17 18  1  0
 18 19  2  0
 19 20  1  0
 20 21  2  0
  4 22  1  0
 22 23  2  0
 23 24  1  0
 24 25  2  0
 25 26  1  0
 26 27  2  0
 21 12  1  0
 27 22  1  0
 20 15  1  0
  1 28  1  0
  1 29  1  0
  1 30  1  0
  3 31  1  0
  3 32  1  0
  4 33  1  6
  5 34  1  0
  8 35  1  0
  8 36  1  0
  9 37  1  0
 13 38  1  0
 14 39  1  0
 16 40  1  0
 17 41  1  0
 18 42  1  0
 19 43  1  0
 23 44  1  0
 24 45  1  0
 25 46  1  0
 26 47  1  0
 27 48  1  0
M  END
>  <smiles>  (1) 
COC[C@H](NC(=O)CNC(=O)c1ccc2ccccc2n1)c1ccccc1

>  <score_type>  (1) 
oracle

>  <origin>  (1) 
autodockgpu

>  <m_score__min__energy>  (1) 
-8.1999999999999993

>  <m_primary>  (1) 
energy

>  <rmsd>  (1) 
6.676019885857122

>  <m_score__min__rmsd>  (1) 
6.676019885857122

>  <meeko>  (1) 
{"free_energy": -7.1, "intermolecular_energy": -9.19, "internal_energy": -3.01, "cluster_size": 10, "cluster_id": 6, "rank_in_cluster": 3}

>  <energy>  (1) 
-8.2

>  <cluster_rmsd>  (1) 
0.0

>  <cluster>  (1) 
1

$$$$

     RDKit          3D

 48 50  0  0  0  0  0  0  0  0999 V2000
  138.8480   75.3430  221.9940 C   0  0  0  0  0  0  0  0  0  0  0  0
  140.0100   74.6540  222.2890 O   0  0  0  0  0  0  0  0  0  0  0  0
  141.0600   75.1800  221.5310 C   0  0  0  0  0  0  0  0  0  0  0  0
  141.4290   74.1800  220.4280 C   0  0  2  0  0  0  0  0  0  0  0  0
  140.6490   72.9810  220.7000 N   0  0  0  0  0  0  0  0  0  0  0  0
  140.2350   72.1940  219.5980 C   0  0  0  0  0  0  0  0  0  0  0  0
  140.5410   72.5350  218.4140 O   0  0  0  0  0  0  0  0  0  0  0  0
  139.4380   70.9710  219.8910 C   0  0  0  0  0  0  0  0  0  0  0  0
  139.7300   70.4470  221.2120 N   0  0  0  0  0  0  0  0  0  0  0  0
  139.1790   71.0960  222.3490 C   0  0  0  0  0  0  0  0  0  0  0  0
  138.4430   72.1170  222.2030 O   0  0  0  0  0  0  0  0  0  0  0  0
  139.4770   70.5640  223.6750 C   0  0  0  0  0  0  0  0  0  0  0  0
  139.1180   69.2510  223.9600 C   0  0  0  0  0  0  0  0  0  0  0  0
  139.3770   68.6990  225.1990 C   0  0  0  0  0  0  0  0  0  0  0  0
  139.9980   69.4560  226.1680 C   0  0  0  0  0  0  0  0  0  0  0  0
  140.2500   68.8910  227.4030 C   0  0  0  0  0  0  0  0  0  0  0  0
  140.8740   69.6790  228.3500 C   0  0  0  0  0  0  0  0  0  0  0  0
  141.2340   70.9840  228.0750 C   0  0  0  0  0  0  0  0  0  0  0  0
  140.9730   71.5440  226.8200 C   0  0  0  0  0  0  0  0  0  0  0  0
  140.3450   70.7580  225.8590 C   0  0  0  0  0  0  0  0  0  0  0  0
  140.0830   71.2860  224.6370 N   0  0  0  0  0  0  0  0  0  0  0  0
  142.8550   73.8390  220.5180 C   0  0  0  0  0  0  0  0  0  0  0  0
  143.2230   72.5160  220.7460 C   0  0  0  0  0  0  0  0  0  0  0  0
  144.5650   72.2010  220.8310 C   0  0  0  0  0  0  0  0  0  0  0  0
  145.5570   73.1570  220.6980 C   0  0  0  0  0  0  0  0  0  0  0  0
  145.1980   74.4740  220.4730 C   0  0  0  0  0  0  0  0  0  0  0  0
  143.8510   74.7690  220.3900 C   0  0  0  0  0  0  0  0  0  0  0  0
  138.3496   75.6386  222.9290 H   0  0  0  0  0  0  0  0  0  0  0  0
  139.0931   76.2418  221.4092 H   0  0  0  0  0  0  0  0  0  0  0  0
  138.1770   74.6967  221.4092 H   0  0  0  0  0  0  0  0  0  0  0  0
  140.7463   76.1314  221.0765 H   0  0  0  0  0  0  0  0  0  0  0  0
  141.9319   75.3590  222.1774 H   0  0  0  0  0  0  0  0  0  0  0  0
  141.2283   74.5966  219.4299 H   0  0  0  0  0  0  0  0  0  0  0  0
  140.4350   72.7630  221.6980 H   0  0  0  0  0  0  0  0  0  0  0  0
  138.3681   71.2201  219.8342 H   0  0  0  0  0  0  0  0  0  0  0  0
  139.7023   70.2024  219.1498 H   0  0  0  0  0  0  0  0  0  0  0  0
  140.3420   69.5990  221.3210 H   0  0  0  0  0  0  0  0  0  0  0  0
  138.6213   68.6443  223.1885 H   0  0  0  0  0  0  0  0  0  0  0  0
  139.0886   67.6589  225.4114 H   0  0  0  0  0  0  0  0  0  0  0  0
  139.9643   67.8520  227.6240 H   0  0  0  0  0  0  0  0  0  0  0  0
  141.0888   69.2589  229.3437 H   0  0  0  0  0  0  0  0  0  0  0  0
  141.7300   71.5878  228.8493 H   0  0  0  0  0  0  0  0  0  0  0  0
  141.2580   72.5829  226.5978 H   0  0  0  0  0  0  0  0  0  0  0  0
  142.4573   71.7341  220.8567 H   0  0  0  0  0  0  0  0  0  0  0  0
  144.8552   71.1552  221.0104 H   0  0  0  0  0  0  0  0  0  0  0  0
  146.6173   72.8732  220.7703 H   0  0  0  0  0  0  0  0  0  0  0  0
  145.9597   75.2600  220.3639 H   0  0  0  0  0  0  0  0  0  0  0  0
  143.5613   75.8148  220.2101 H   0  0  0  0  0  0  0  0  0  0  0  0
  1  2  1  0
  2  3  1  0
  3  4  1  0
  4  5  1  0
  5  6  1  0
  6  7  2  0
  6  8  1  0
  8  9  1  0
  9 10  1  0
 10 11  2  0
 10 12  1  0
 12 13  2  0
 13 14  1  0
 14 15  2  0
 15 16  1  0
 16 17  2  0
 17 18  1  0
 18 19  2  0
 19 20  1  0
 20 21  2  0
  4 22  1  0
 22 23  2  0
 23 24  1  0
 24 25  2  0
 25 26  1  0
 26 27  2  0
 21 12  1  0
 27 22  1  0
 20 15  1  0
  1 28  1  0
  1 29  1  0
  1 30  1  0
  3 31  1  0
  3 32  1  0
  4 33  1  6
  5 34  1  0
  8 35  1  0
  8 36  1  0
  9 37  1  0
 13 38  1  0
 14 39  1  0
 16 40  1  0
 17 41  1  0
 18 42  1  0
 19 43  1  0
 23 44  1  0
 24 45  1  0
 25 46  1  0
 26 47  1  0
 27 48  1  0
M  END
>  <smiles>  (2) 
COC[C@H](NC(=O)CNC(=O)c1ccc2ccccc2n1)c1ccccc1

>  <score_type>  (2) 
oracle

>  <origin>  (2) 
autodockgpu

>  <m_score__min__energy>  (2) 
-8.1999999999999993

>  <m_primary>  (2) 
energy

>  <rmsd>  (2) 
6.486303544575305

>  <m_score__min__rmsd>  (2) 
6.486303544575305

>  <meeko>  (2) 
{"free_energy": -6.93, "intermolecular_energy": -9.02, "internal_energy": -2.95, "cluster_size": 10, "cluster_id": 6, "rank_in_cluster": 9}

>  <energy>  (2) 
-8.15

>  <cluster_rmsd>  (2) 
0.19

>  <cluster>  (2) 
1

$$$$

     RDKit          3D

 48 50  0  0  0  0  0  0  0  0999 V2000
  144.1650   71.6640  219.9280 C   0  0  0  0  0  0  0  0  0  0  0  0
  143.8610   72.6430  220.8550 O   0  0  0  0  0  0  0  0  0  0  0  0
  144.3900   73.8640  220.4240 C   0  0  0  0  0  0  0  0  0  0  0  0
  143.2770   74.9190  220.4300 C   0  0  2  0  0  0  0  0  0  0  0  0
  142.0260   74.1780  220.5070 N   0  0  0  0  0  0  0  0  0  0  0  0
  140.8820   74.8560  220.9920 C   0  0  0  0  0  0  0  0  0  0  0  0
  140.9580   76.0730  221.3470 O   0  0  0  0  0  0  0  0  0  0  0  0
  139.6090   74.0870  221.0660 C   0  0  0  0  0  0  0  0  0  0  0  0
  139.5160   73.3260  222.2980 N   0  0  0  0  0  0  0  0  0  0  0  0
  140.2910   72.1440  222.4390 C   0  0  0  0  0  0  0  0  0  0  0  0
  141.0520   71.7680  221.4990 O   0  0  0  0  0  0  0  0  0  0  0  0
  140.1920   71.3830  223.6810 C   0  0  0  0  0  0  0  0  0  0  0  0
  139.5790   70.1360  223.6490 C   0  0  0  0  0  0  0  0  0  0  0  0
  139.4590   69.3760  224.7960 C   0  0  0  0  0  0  0  0  0  0  0  0
  139.9540   69.8570  225.9890 C   0  0  0  0  0  0  0  0  0  0  0  0
  139.8270   69.0860  227.1280 C   0  0  0  0  0  0  0  0  0  0  0  0
  140.3340   69.5990  228.3060 C   0  0  0  0  0  0  0  0  0  0  0  0
  140.9450   70.8380  228.3450 C   0  0  0  0  0  0  0  0  0  0  0  0
  141.0660   71.6080  227.1840 C   0  0  0  0  0  0  0  0  0  0  0  0
  140.5590   71.1000  225.9930 C   0  0  0  0  0  0  0  0  0  0  0  0
  140.6690   71.8340  224.8580 N   0  0  0  0  0  0  0  0  0  0  0  0
  143.2950   75.6720  219.1690 C   0  0  0  0  0  0  0  0  0  0  0  0
  142.9140   77.0100  219.1710 C   0  0  0  0  0  0  0  0  0  0  0  0
  142.9330   77.7130  217.9820 C   0  0  0  0  0  0  0  0  0  0  0  0
  143.3180   77.1310  216.7880 C   0  0  0  0  0  0  0  0  0  0  0  0
  143.6980   75.8010  216.7770 C   0  0  0  0  0  0  0  0  0  0  0  0
  143.6730   75.1150  217.9760 C   0  0  0  0  0  0  0  0  0  0  0  0
  144.4519   70.7400  220.4513 H   0  0  0  0  0  0  0  0  0  0  0  0
  143.2848   71.4701  219.2975 H   0  0  0  0  0  0  0  0  0  0  0  0
  145.0002   72.0028  219.2975 H   0  0  0  0  0  0  0  0  0  0  0  0
  145.1979   74.1761  221.1022 H   0  0  0  0  0  0  0  0  0  0  0  0
  144.7947   73.7559  219.4069 H   0  0  0  0  0  0  0  0  0  0  0  0
  143.4019   75.6245  221.2647 H   0  0  0  0  0  0  0  0  0  0  0  0
  142.0380   73.1810  220.1980 H   0  0  0  0  0  0  0  0  0  0  0  0
  138.7640   74.7895  221.0156 H   0  0  0  0  0  0  0  0  0  0  0  0
  139.5836   73.3812  220.2227 H   0  0  0  0  0  0  0  0  0  0  0  0
  138.8810   73.6490  223.0710 H   0  0  0  0  0  0  0  0  0  0  0  0
  139.1843   69.7494  222.6978 H   0  0  0  0  0  0  0  0  0  0  0  0
  138.9705   68.3912  224.7575 H   0  0  0  0  0  0  0  0  0  0  0  0
  139.3402   68.1000  227.0981 H   0  0  0  0  0  0  0  0  0  0  0  0
  140.2498   69.0099  229.2311 H   0  0  0  0  0  0  0  0  0  0  0  0
  141.3395   71.2217  229.2974 H   0  0  0  0  0  0  0  0  0  0  0  0
  141.5518   72.5945  227.2123 H   0  0  0  0  0  0  0  0  0  0  0  0
  142.6024   77.5006  220.1050 H   0  0  0  0  0  0  0  0  0  0  0  0
  142.6319   78.7710  217.9850 H   0  0  0  0  0  0  0  0  0  0  0  0
  143.3220   77.7187  215.8582 H   0  0  0  0  0  0  0  0  0  0  0  0
  144.0095   75.3063  215.8452 H   0  0  0  0  0  0  0  0  0  0  0  0
  143.9750   74.0573  217.9724 H   0  0  0  0  0  0  0  0  0  0  0  0
  1  2  1  0
  2  3  1  0
  3  4  1  0
  4  5  1  0
  5  6  1  0
  6  7  2  0
  6  8  1  0
  8  9  1  0
  9 10  1  0
 10 11  2  0
 10 12  1  0
 12 13  2  0
 13 14  1  0
 14 15  2  0
 15 16  1  0
 16 17  2  0
 17 18  1  0
 18 19  2  0
 19 20  1  0
 20 21  2  0
  4 22  1  0
 22 23  2  0
 23 24  1  0
 24 25  2  0
 25 26  1  0
 26 27  2  0
 21 12  1  0
 27 22  1  0
 20 15  1  0
  1 28  1  0
  1 29  1  0
  1 30  1  0
  3 31  1  0
  3 32  1  0
  4 33  1  1
  5 34  1  0
  8 35  1  0
  8 36  1  0
  9 37  1  0
 13 38  1  0
 14 39  1  0
 16 40  1  0
 17 41  1  0
 18 42  1  0
 19 43  1  0
 23 44  1  0
 24 45  1  0
 25 46  1  0
 26 47  1  0
 27 48  1  0
M  END
>  <smiles>  (3) 
COC[C@H](NC(=O)CNC(=O)c1ccc2ccccc2n1)c1ccccc1

>  <score_type>  (3) 
oracle

>  <origin>  (3) 
autodockgpu

>  <m_score__min__energy>  (3) 
-8.1999999999999993

>  <m_primary>  (3) 
energy

>  <rmsd>  (3) 
5.491975726274545

>  <m_score__min__rmsd>  (3) 
5.491975726274545

>  <meeko>  (3) 
{"free_energy": -7.16, "intermolecular_energy": -9.24, "internal_energy": -2.85, "cluster_size": 17, "cluster_id": 7, "rank_in_cluster": 4}

>  <energy>  (3) 
-8.0

>  <cluster_rmsd>  (3) 
0.0

>  <cluster>  (3) 
2

$$$$

     RDKit          3D

 48 50  0  0  0  0  0  0  0  0999 V2000
  144.2920   71.6880  219.8720 C   0  0  0  0  0  0  0  0  0  0  0  0
  143.9150   72.6380  220.8050 O   0  0  0  0  0  0  0  0  0  0  0  0
  144.4220   73.8840  220.4210 C   0  0  0  0  0  0  0  0  0  0  0  0
  143.2790   74.9070  220.4190 C   0  0  2  0  0  0  0  0  0  0  0  0
  142.0480   74.1300  220.4740 N   0  0  0  0  0  0  0  0  0  0  0  0
  140.8690   74.7840  220.9050 C   0  0  0  0  0  0  0  0  0  0  0  0
  140.8980   76.0110  221.2320 O   0  0  0  0  0  0  0  0  0  0  0  0
  139.6190   73.9790  220.9570 C   0  0  0  0  0  0  0  0  0  0  0  0
  139.5060   73.2480  222.2060 N   0  0  0  0  0  0  0  0  0  0  0  0
  140.3120   72.0960  222.4060 C   0  0  0  0  0  0  0  0  0  0  0  0
  141.1170   71.7190  221.5030 O   0  0  0  0  0  0  0  0  0  0  0  0
  140.1940   71.3650  223.6640 C   0  0  0  0  0  0  0  0  0  0  0  0
  139.5520   70.1310  223.6580 C   0  0  0  0  0  0  0  0  0  0  0  0
  139.4130   69.4000  224.8210 C   0  0  0  0  0  0  0  0  0  0  0  0
  139.9160   69.8950  226.0040 C   0  0  0  0  0  0  0  0  0  0  0  0
  139.7690   69.1520  227.1600 C   0  0  0  0  0  0  0  0  0  0  0  0
  140.2860   69.6800  228.3270 C   0  0  0  0  0  0  0  0  0  0  0  0
  140.9240   70.9050  228.3410 C   0  0  0  0  0  0  0  0  0  0  0  0
  141.0660   71.6470  227.1630 C   0  0  0  0  0  0  0  0  0  0  0  0
  140.5500   71.1240  225.9830 C   0  0  0  0  0  0  0  0  0  0  0  0
  140.6780   71.8310  224.8320 N   0  0  0  0  0  0  0  0  0  0  0  0
  143.2930   75.6680  219.1620 C   0  0  0  0  0  0  0  0  0  0  0  0
  142.9280   77.0120  219.1780 C   0  0  0  0  0  0  0  0  0  0  0  0
  142.9430   77.7220  217.9950 C   0  0  0  0  0  0  0  0  0  0  0  0
  143.3070   77.1450  216.7920 C   0  0  0  0  0  0  0  0  0  0  0  0
  143.6700   75.8100  216.7680 C   0  0  0  0  0  0  0  0  0  0  0  0
  143.6500   75.1160  217.9620 C   0  0  0  0  0  0  0  0  0  0  0  0
  144.6498   70.7864  220.3907 H   0  0  0  0  0  0  0  0  0  0  0  0
  143.4281   71.4299  219.2418 H   0  0  0  0  0  0  0  0  0  0  0  0
  145.0978   72.0925  219.2418 H   0  0  0  0  0  0  0  0  0  0  0  0
  145.1998   74.2009  221.1314 H   0  0  0  0  0  0  0  0  0  0  0  0
  144.8606   73.8136  219.4147 H   0  0  0  0  0  0  0  0  0  0  0  0
  143.3721   75.6100  221.2599 H   0  0  0  0  0  0  0  0  0  0  0  0
  142.1000   73.1270  220.1900 H   0  0  0  0  0  0  0  0  0  0  0  0
  138.7556   74.6535  220.8587 H   0  0  0  0  0  0  0  0  0  0  0  0
  139.6442   73.2507  220.1330 H   0  0  0  0  0  0  0  0  0  0  0  0
  138.8340   73.5700  222.9480 H   0  0  0  0  0  0  0  0  0  0  0  0
  139.1500   69.7325  222.7148 H   0  0  0  0  0  0  0  0  0  0  0  0
  138.9024   68.4258  224.8030 H   0  0  0  0  0  0  0  0  0  0  0  0
  139.2596   68.1771  227.1511 H   0  0  0  0  0  0  0  0  0  0  0  0
  140.1876   69.1132  229.2646 H   0  0  0  0  0  0  0  0  0  0  0  0
  141.3239   71.3007  229.2862 H   0  0  0  0  0  0  0  0  0  0  0  0
  141.5746   72.6223  227.1707 H   0  0  0  0  0  0  0  0  0  0  0  0
  142.6325   77.4996  220.1187 H   0  0  0  0  0  0  0  0  0  0  0  0
  142.6555   78.7837  218.0092 H   0  0  0  0  0  0  0  0  0  0  0  0
  143.3080   77.7395  215.8665 H   0  0  0  0  0  0  0  0  0  0  0  0
  143.9646   75.3179  215.8294 H   0  0  0  0  0  0  0  0  0  0  0  0
  143.9387   74.0547  217.9473 H   0  0  0  0  0  0  0  0  0  0  0  0
  1  2  1  0
  2  3  1  0
  3  4  1  0
  4  5  1  0
  5  6  1  0
  6  7  2  0
  6  8  1  0
  8  9  1  0
  9 10  1  0
 10 11  2  0
 10 12  1  0
 12 13  2  0
 13 14  1  0
 14 15  2  0
 15 16  1  0
 16 17  2  0
 17 18  1  0
 18 19  2  0
 19 20  1  0
 20 21  2  0
  4 22  1  0
 22 23  2  0
 23 24  1  0
 24 25  2  0
 25 26  1  0
 26 27  2  0
 21 12  1  0
 27 22  1  0
 20 15  1  0
  1 28  1  0
  1 29  1  0
  1 30  1  0
  3 31  1  0
  3 32  1  0
  4 33  1  1
  5 34  1  0
  8 35  1  0
  8 36  1  0
  9 37  1  0
 13 38  1  0
 14 39  1  0
 16 40  1  0
 17 41  1  0
 18 42  1  0
 19 43  1  0
 23 44  1  0
 24 45  1  0
 25 46  1  0
 26 47  1  0
 27 48  1  0
M  END
>  <smiles>  (4) 
COC[C@H](NC(=O)CNC(=O)c1ccc2ccccc2n1)c1ccccc1

>  <score_type>  (4) 
oracle

>  <origin>  (4) 
autodockgpu

>  <m_score__min__energy>  (4) 
-8.1999999999999993

>  <m_primary>  (4) 
energy

>  <rmsd>  (4) 
5.494008176617506

>  <m_score__min__rmsd>  (4) 
5.494008176617506

>  <meeko>  (4) 
{"free_energy": -7.12, "intermolecular_energy": -9.21, "internal_energy": -2.84, "cluster_size": 17, "cluster_id": 7, "rank_in_cluster": 8}

>  <energy>  (4) 
-7.99

>  <cluster_rmsd>  (4) 
0.2

>  <cluster>  (4) 
2

$$$$

     RDKit          3D

 48 50  0  0  0  0  0  0  0  0999 V2000
  144.0640   72.0170  220.7980 C   0  0  0  0  0  0  0  0  0  0  0  0
  143.6330   72.9400  219.8620 O   0  0  0  0  0  0  0  0  0  0  0  0
  144.1770   74.1910  220.1670 C   0  0  0  0  0  0  0  0  0  0  0  0
  143.0350   75.1780  220.4420 C   0  0  2  0  0  0  0  0  0  0  0  0
  141.8200   74.3770  220.4890 N   0  0  0  0  0  0  0  0  0  0  0  0
  140.6590   74.9650  221.0460 C   0  0  0  0  0  0  0  0  0  0  0  0
  140.6900   76.1540  221.4890 O   0  0  0  0  0  0  0  0  0  0  0  0
  139.4230   74.1360  221.0860 C   0  0  0  0  0  0  0  0  0  0  0  0
  139.3490   73.3480  222.3020 N   0  0  0  0  0  0  0  0  0  0  0  0
  140.2550   72.2680  222.4810 C   0  0  0  0  0  0  0  0  0  0  0  0
  141.1130   72.0050  221.5870 O   0  0  0  0  0  0  0  0  0  0  0  0
  140.1750   71.4790  223.7060 C   0  0  0  0  0  0  0  0  0  0  0  0
  139.5620   70.2320  223.6550 C   0  0  0  0  0  0  0  0  0  0  0  0
  139.4600   69.4460  224.7860 C   0  0  0  0  0  0  0  0  0  0  0  0
  139.9710   69.9000  225.9830 C   0  0  0  0  0  0  0  0  0  0  0  0
  139.8610   69.1030  227.1060 C   0  0  0  0  0  0  0  0  0  0  0  0
  140.3850   69.5900  228.2870 C   0  0  0  0  0  0  0  0  0  0  0  0
  140.9950   70.8280  228.3460 C   0  0  0  0  0  0  0  0  0  0  0  0
  141.0990   71.6250  227.2010 C   0  0  0  0  0  0  0  0  0  0  0  0
  140.5750   71.1430  226.0060 C   0  0  0  0  0  0  0  0  0  0  0  0
  140.6670   71.9040  224.8860 N   0  0  0  0  0  0  0  0  0  0  0  0
  142.9220   76.1340  219.3330 C   0  0  0  0  0  0  0  0  0  0  0  0
  142.5540   77.4490  219.6040 C   0  0  0  0  0  0  0  0  0  0  0  0
  142.4490   78.3420  218.5570 C   0  0  0  0  0  0  0  0  0  0  0  0
  142.6960   77.9760  217.2460 C   0  0  0  0  0  0  0  0  0  0  0  0
  143.0610   76.6710  216.9690 C   0  0  0  0  0  0  0  0  0  0  0  0
  143.1620   75.7910  218.0290 C   0  0  0  0  0  0  0  0  0  0  0  0
  143.8813   72.4082  221.8098 H   0  0  0  0  0  0  0  0  0  0  0  0
  143.5129   71.0745  220.6643 H   0  0  0  0  0  0  0  0  0  0  0  0
  145.1405   71.8345  220.6643 H   0  0  0  0  0  0  0  0  0  0  0  0
  144.8157   74.1081  221.0588 H   0  0  0  0  0  0  0  0  0  0  0  0
  144.7827   74.5493  219.3216 H   0  0  0  0  0  0  0  0  0  0  0  0
  143.2074   75.7378  221.3731 H   0  0  0  0  0  0  0  0  0  0  0  0
  141.8680   73.4080  220.1050 H   0  0  0  0  0  0  0  0  0  0  0  0
  138.5466   74.7988  221.0360 H   0  0  0  0  0  0  0  0  0  0  0  0
  139.4427   73.4465  220.2292 H   0  0  0  0  0  0  0  0  0  0  0  0
  138.6320   73.5760  223.0370 H   0  0  0  0  0  0  0  0  0  0  0  0
  139.1530   69.8668  222.7014 H   0  0  0  0  0  0  0  0  0  0  0  0
  138.9728   68.4613  224.7318 H   0  0  0  0  0  0  0  0  0  0  0  0
  139.3743   68.1175  227.0610 H   0  0  0  0  0  0  0  0  0  0  0  0
  140.3153   68.9797  229.1995 H   0  0  0  0  0  0  0  0  0  0  0  0
  141.4024   71.1902  229.3014 H   0  0  0  0  0  0  0  0  0  0  0  0
  141.5845   72.6111  227.2447 H   0  0  0  0  0  0  0  0  0  0  0  0
  142.3502   77.7710  220.6359 H   0  0  0  0  0  0  0  0  0  0  0  0
  142.1588   79.3809  218.7725 H   0  0  0  0  0  0  0  0  0  0  0  0
  142.6033   78.7130  216.4347 H   0  0  0  0  0  0  0  0  0  0  0  0
  143.2642   76.3446  215.9384 H   0  0  0  0  0  0  0  0  0  0  0  0
  143.4527   74.7524  217.8128 H   0  0  0  0  0  0  0  0  0  0  0  0
  1  2  1  0
  2  3  1  0
  3  4  1  0
  4  5  1  0
  5  6  1  0
  6  7  2  0
  6  8  1  0
  8  9  1  0
  9 10  1  0
 10 11  2  0
 10 12  1  0
 12 13  2  0
 13 14  1  0
 14 15  2  0
 15 16  1  0
 16 17  2  0
 17 18  1  0
 18 19  2  0
 19 20  1  0
 20 21  2  0
  4 22  1  0
 22 23  2  0
 23 24  1  0
 24 25  2  0
 25 26  1  0
 26 27  2  0
 21 12  1  0
 27 22  1  0
 20 15  1  0
  1 28  1  0
  1 29  1  0
  1 30  1  0
  3 31  1  0
  3 32  1  0
  4 33  1  1
  5 34  1  0
  8 35  1  0
  8 36  1  0
  9 37  1  0
 13 38  1  0
 14 39  1  0
 16 40  1  0
 17 41  1  0
 18 42  1  0
 19 43  1  0
 23 44  1  0
 24 45  1  0
 25 46  1  0
 26 47  1  0
 27 48  1  0
M  END
>  <smiles>  (5) 
COC[C@H](NC(=O)CNC(=O)c1ccc2ccccc2n1)c1ccccc1

>  <score_type>  (5) 
oracle

>  <origin>  (5) 
autodockgpu

>  <m_score__min__energy>  (5) 
-8.1999999999999993

>  <m_primary>  (5) 
energy

>  <rmsd>  (5) 
5.134163096780524

>  <m_score__min__rmsd>  (5) 
5.134163096780524

>  <meeko>  (5) 
{"free_energy": -7.03, "intermolecular_energy": -9.12, "internal_energy": -2.83, "cluster_size": 17, "cluster_id": 7, "rank_in_cluster": 15}

>  <energy>  (5) 
-7.98

>  <cluster_rmsd>  (5) 
0.22

>  <cluster>  (5) 
2

$$$$

     RDKit          3D

 48 50  0  0  0  0  0  0  0  0999 V2000
  139.2650   73.0780  221.9290 C   0  0  0  0  0  0  0  0  0  0  0  0
  138.9220   72.1520  222.8980 O   0  0  0  0  0  0  0  0  0  0  0  0
  140.0880   71.5940  223.4320 C   0  0  0  0  0  0  0  0  0  0  0  0
  139.7030   70.4720  224.4040 C   0  0  2  0  0  0  0  0  0  0  0  0
  138.2500   70.3860  224.3590 N   0  0  0  0  0  0  0  0  0  0  0  0
  137.6430   69.1770  224.7740 C   0  0  0  0  0  0  0  0  0  0  0  0
  138.3560   68.2030  225.1700 O   0  0  0  0  0  0  0  0  0  0  0  0
  136.1570   69.1030  224.7230 C   0  0  0  0  0  0  0  0  0  0  0  0
  135.5460   70.3570  225.1210 N   0  0  0  0  0  0  0  0  0  0  0  0
  134.4110   70.3300  225.9750 C   0  0  0  0  0  0  0  0  0  0  0  0
  133.9460   69.2240  226.3800 O   0  0  0  0  0  0  0  0  0  0  0  0
  133.8010   71.5960  226.3720 C   0  0  0  0  0  0  0  0  0  0  0  0
  132.6500   71.5630  227.1520 C   0  0  0  0  0  0  0  0  0  0  0  0
  132.0340   72.7320  227.5540 C   0  0  0  0  0  0  0  0  0  0  0  0
  132.5630   73.9480  227.1800 C   0  0  0  0  0  0  0  0  0  0  0  0
  131.9350   75.1080  227.5900 C   0  0  0  0  0  0  0  0  0  0  0  0
  132.4930   76.3080  227.1960 C   0  0  0  0  0  0  0  0  0  0  0  0
  133.6360   76.3490  226.4210 C   0  0  0  0  0  0  0  0  0  0  0  0
  134.2620   75.1660  226.0130 C   0  0  0  0  0  0  0  0  0  0  0  0
  133.7080   73.9520  226.4050 C   0  0  0  0  0  0  0  0  0  0  0  0
  134.3020   72.7950  226.0170 N   0  0  0  0  0  0  0  0  0  0  0  0
  140.1060   70.8340  225.7700 C   0  0  0  0  0  0  0  0  0  0  0  0
  140.9840   71.8990  225.9590 C   0  0  0  0  0  0  0  0  0  0  0  0
  141.3590   72.2340  227.2450 C   0  0  0  0  0  0  0  0  0  0  0  0
  140.8950   71.5480  228.3530 C   0  0  0  0  0  0  0  0  0  0  0  0
  140.0230   70.4880  228.1720 C   0  0  0  0  0  0  0  0  0  0  0  0
  139.6580   70.1680  226.8790 C   0  0  0  0  0  0  0  0  0  0  0  0
  139.6082   74.0046  222.4124 H   0  0  0  0  0  0  0  0  0  0  0  0
  140.0720   72.6709  221.3021 H   0  0  0  0  0  0  0  0  0  0  0  0
  138.3875   73.2948  221.3021 H   0  0  0  0  0  0  0  0  0  0  0  0
  140.7059   71.1830  222.6200 H   0  0  0  0  0  0  0  0  0  0  0  0
  140.6608   72.3675  223.9645 H   0  0  0  0  0  0  0  0  0  0  0  0
  140.1903   69.5244  224.1309 H   0  0  0  0  0  0  0  0  0  0  0  0
  137.7290   71.2260  224.0230 H   0  0  0  0  0  0  0  0  0  0  0  0
  135.8465   68.8650  223.6949 H   0  0  0  0  0  0  0  0  0  0  0  0
  135.8271   68.3218  225.4237 H   0  0  0  0  0  0  0  0  0  0  0  0
  135.9410   71.2700  224.7790 H   0  0  0  0  0  0  0  0  0  0  0  0
  132.2250   70.5939  227.4524 H   0  0  0  0  0  0  0  0  0  0  0  0
  131.1240   72.6923  228.1708 H   0  0  0  0  0  0  0  0  0  0  0  0
  131.0249   75.0770  228.2070 H   0  0  0  0  0  0  0  0  0  0  0  0
  132.0178   77.2505  227.5055 H   0  0  0  0  0  0  0  0  0  0  0  0
  134.0576   77.3201  226.1221 H   0  0  0  0  0  0  0  0  0  0  0  0
  135.1721   75.1955  225.3959 H   0  0  0  0  0  0  0  0  0  0  0  0
  141.3720   72.4635  225.0983 H   0  0  0  0  0  0  0  0  0  0  0  0
  142.0510   73.0760  227.3936 H   0  0  0  0  0  0  0  0  0  0  0  0
  141.2145   71.8407  229.3641 H   0  0  0  0  0  0  0  0  0  0  0  0
  139.6338   69.9195  229.0295 H   0  0  0  0  0  0  0  0  0  0  0  0
  138.9650   69.3266  226.7312 H   0  0  0  0  0  0  0  0  0  0  0  0
  1  2  1  0
  2  3  1  0
  3  4  1  0
  4  5  1  0
  5  6  1  0
  6  7  2  0
  6  8  1  0
  8  9  1  0
  9 10  1  0
 10 11  2  0
 10 12  1  0
 12 13  2  0
 13 14  1  0
 14 15  2  0
 15 16  1  0
 16 17  2  0
 17 18  1  0
 18 19  2  0
 19 20  1  0
 20 21  2  0
  4 22  1  0
 22 23  2  0
 23 24  1  0
 24 25  2  0
 25 26  1  0
 26 27  2  0
 21 12  1  0
 27 22  1  0
 20 15  1  0
  1 28  1  0
  1 29  1  0
  1 30  1  0
  3 31  1  0
  3 32  1  0
  4 33  1  6
  5 34  1  0
  8 35  1  0
  8 36  1  0
  9 37  1  0
 13 38  1  0
 14 39  1  0
 16 40  1  0
 17 41  1  0
 18 42  1  0
 19 43  1  0
 23 44  1  0
 24 45  1  0
 25 46  1  0
 26 47  1  0
 27 48  1  0
M  END
>  <smiles>  (6) 
COC[C@H](NC(=O)CNC(=O)c1ccc2ccccc2n1)c1ccccc1

>  <score_type>  (6) 
oracle

>  <origin>  (6) 
autodockgpu

>  <m_score__min__energy>  (6) 
-8.1999999999999993

>  <m_primary>  (6) 
energy

>  <rmsd>  (6) 
10.201254007052194

>  <m_score__min__rmsd>  (6) 
10.201254007052194

>  <meeko>  (6) 
{"free_energy": -7.91, "intermolecular_energy": -10.0, "internal_energy": -2.24, "cluster_size": 6, "cluster_id": 3, "rank_in_cluster": 1}

>  <energy>  (6) 
-7.95

>  <cluster_rmsd>  (6) 
0.23

>  <cluster>  (6) 
2

$$$$

     RDKit          3D

 48 50  0  0  0  0  0  0  0  0999 V2000
  139.5590   73.2210  221.9880 C   0  0  0  0  0  0  0  0  0  0  0  0
  139.5470   71.8780  222.3170 O   0  0  0  0  0  0  0  0  0  0  0  0
  140.4860   71.6450  223.3270 C   0  0  0  0  0  0  0  0  0  0  0  0
  139.9850   70.5030  224.2200 C   0  0  2  0  0  0  0  0  0  0  0  0
  138.5440   70.4450  224.0210 N   0  0  0  0  0  0  0  0  0  0  0  0
  137.8760   69.2410  224.3500 C   0  0  0  0  0  0  0  0  0  0  0  0
  138.5260   68.2480  224.8030 O   0  0  0  0  0  0  0  0  0  0  0  0
  136.4030   69.1950  224.1430 C   0  0  0  0  0  0  0  0  0  0  0  0
  135.7400   70.3250  224.7670 N   0  0  0  0  0  0  0  0  0  0  0  0
  135.7270   71.5760  224.0930 C   0  0  0  0  0  0  0  0  0  0  0  0
  136.2870   71.6940  222.9630 O   0  0  0  0  0  0  0  0  0  0  0  0
  135.0590   72.7080  224.7260 C   0  0  0  0  0  0  0  0  0  0  0  0
  135.4410   73.9940  224.3620 C   0  0  0  0  0  0  0  0  0  0  0  0
  134.8410   75.1000  224.9320 C   0  0  0  0  0  0  0  0  0  0  0  0
  133.8490   74.9300  225.8730 C   0  0  0  0  0  0  0  0  0  0  0  0
  133.2580   76.0460  226.4340 C   0  0  0  0  0  0  0  0  0  0  0  0
  132.2680   75.8380  227.3740 C   0  0  0  0  0  0  0  0  0  0  0  0
  131.8830   74.5630  227.7420 C   0  0  0  0  0  0  0  0  0  0  0  0
  132.4900   73.4420  227.1650 C   0  0  0  0  0  0  0  0  0  0  0  0
  133.4880   73.6410  226.2170 C   0  0  0  0  0  0  0  0  0  0  0  0
  134.0870   72.5650  225.6490 N   0  0  0  0  0  0  0  0  0  0  0  0
  140.2490   70.8180  225.6300 C   0  0  0  0  0  0  0  0  0  0  0  0
  141.0260   71.9300  225.9440 C   0  0  0  0  0  0  0  0  0  0  0  0
  141.2710   72.2210  227.2700 C   0  0  0  0  0  0  0  0  0  0  0  0
  140.7710   71.4450  228.3010 C   0  0  0  0  0  0  0  0  0  0  0  0
  139.9980   70.3380  227.9970 C   0  0  0  0  0  0  0  0  0  0  0  0
  139.7640   70.0630  226.6640 C   0  0  0  0  0  0  0  0  0  0  0  0
  139.5644   73.8239  222.9081 H   0  0  0  0  0  0  0  0  0  0  0  0
  140.4592   73.4457  221.3971 H   0  0  0  0  0  0  0  0  0  0  0  0
  138.6630   73.4618  221.3971 H   0  0  0  0  0  0  0  0  0  0  0  0
  141.4501   71.3657  222.8771 H   0  0  0  0  0  0  0  0  0  0  0  0
  140.6191   72.5563  223.9284 H   0  0  0  0  0  0  0  0  0  0  0  0
  140.4838   69.5547  223.9712 H   0  0  0  0  0  0  0  0  0  0  0  0
  138.0750   71.2990  223.6460 H   0  0  0  0  0  0  0  0  0  0  0  0
  136.1937   69.2101  223.0632 H   0  0  0  0  0  0  0  0  0  0  0  0
  136.0194   68.2733  224.6048 H   0  0  0  0  0  0  0  0  0  0  0  0
  135.2790   70.2150  225.7050 H   0  0  0  0  0  0  0  0  0  0  0  0
  136.2317   74.1328  223.6100 H   0  0  0  0  0  0  0  0  0  0  0  0
  135.1539   76.1122  224.6359 H   0  0  0  0  0  0  0  0  0  0  0  0
  133.5645   77.0615  226.1429 H   0  0  0  0  0  0  0  0  0  0  0  0
  131.7759   76.7049  227.8392 H   0  0  0  0  0  0  0  0  0  0  0  0
  131.0926   74.4281  228.4950 H   0  0  0  0  0  0  0  0  0  0  0  0
  132.1846   72.4258  227.4548 H   0  0  0  0  0  0  0  0  0  0  0  0
  141.4381   72.5665  225.1471 H   0  0  0  0  0  0  0  0  0  0  0  0
  141.8848   73.1000  227.5163 H   0  0  0  0  0  0  0  0  0  0  0  0
  140.9851   71.7046  229.3483 H   0  0  0  0  0  0  0  0  0  0  0  0
  139.5839   69.6986  228.7905 H   0  0  0  0  0  0  0  0  0  0  0  0
  139.1505   69.1837  226.4180 H   0  0  0  0  0  0  0  0  0  0  0  0
  1  2  1  0
  2  3  1  0
  3  4  1  0
  4  5  1  0
  5  6  1  0
  6  7  2  0
  6  8  1  0
  8  9  1  0
  9 10  1  0
 10 11  2  0
 10 12  1  0
 12 13  2  0
 13 14  1  0
 14 15  2  0
 15 16  1  0
 16 17  2  0
 17 18  1  0
 18 19  2  0
 19 20  1  0
 20 21  2  0
  4 22  1  0
 22 23  2  0
 23 24  1  0
 24 25  2  0
 25 26  1  0
 26 27  2  0
 21 12  1  0
 27 22  1  0
 20 15  1  0
  1 28  1  0
  1 29  1  0
  1 30  1  0
  3 31  1  0
  3 32  1  0
  4 33  1  6
  5 34  1  0
  8 35  1  0
  8 36  1  0
  9 37  1  0
 13 38  1  0
 14 39  1  0
 16 40  1  0
 17 41  1  0
 18 42  1  0
 19 43  1  0
 23 44  1  0
 24 45  1  0
 25 46  1  0
 26 47  1  0
 27 48  1  0
M  END
>  <smiles>  (7) 
COC[C@H](NC(=O)CNC(=O)c1ccc2ccccc2n1)c1ccccc1

>  <score_type>  (7) 
oracle

>  <origin>  (7) 
autodockgpu

>  <m_score__min__energy>  (7) 
-8.1999999999999993

>  <m_primary>  (7) 
energy

>  <rmsd>  (7) 
9.804679127429704

>  <m_score__min__rmsd>  (7) 
9.804679127429704

>  <meeko>  (7) 
{"free_energy": -6.92, "intermolecular_energy": -9.01, "internal_energy": -3.04, "cluster_size": 6, "cluster_id": 3, "rank_in_cluster": 4}

>  <energy>  (7) 
-7.94

>  <cluster_rmsd>  (7) 
0.26

>  <cluster>  (7) 
2

$$$$

     RDKit          3D

 48 50  0  0  0  0  0  0  0  0999 V2000
  142.2100   77.1140  217.3780 C   0  0  0  0  0  0  0  0  0  0  0  0
  141.1640   77.4940  218.1990 O   0  0  0  0  0  0  0  0  0  0  0  0
  141.6620   78.2800  219.2430 C   0  0  0  0  0  0  0  0  0  0  0  0
  141.6080   77.4710  220.5450 C   0  0  2  0  0  0  0  0  0  0  0  0
  140.5010   76.5390  220.3890 N   0  0  0  0  0  0  0  0  0  0  0  0
  140.4900   75.3790  221.2010 C   0  0  0  0  0  0  0  0  0  0  0  0
  141.4240   75.1700  222.0350 O   0  0  0  0  0  0  0  0  0  0  0  0
  139.3520   74.4340  221.0310 C   0  0  0  0  0  0  0  0  0  0  0  0
  139.2210   73.5470  222.1720 N   0  0  0  0  0  0  0  0  0  0  0  0
  140.1810   72.5160  222.3570 C   0  0  0  0  0  0  0  0  0  0  0  0
  141.1360   72.3820  221.5350 O   0  0  0  0  0  0  0  0  0  0  0  0
  140.0440   71.6260  223.5060 C   0  0  0  0  0  0  0  0  0  0  0  0
  139.3120   70.4540  223.3550 C   0  0  0  0  0  0  0  0  0  0  0  0
  139.1510   69.5780  224.4110 C   0  0  0  0  0  0  0  0  0  0  0  0
  139.7220   69.8660  225.6310 C   0  0  0  0  0  0  0  0  0  0  0  0
  139.5530   68.9810  226.6780 C   0  0  0  0  0  0  0  0  0  0  0  0
  140.1400   69.3030  227.8860 C   0  0  0  0  0  0  0  0  0  0  0  0
  140.8680   70.4660  228.0440 C   0  0  0  0  0  0  0  0  0  0  0  0
  141.0320   71.3530  226.9750 C   0  0  0  0  0  0  0  0  0  0  0  0
  140.4450   71.0380  225.7550 C   0  0  0  0  0  0  0  0  0  0  0  0
  140.5940   71.8890  224.7080 N   0  0  0  0  0  0  0  0  0  0  0  0
  141.3110   78.3630  221.6740 C   0  0  0  0  0  0  0  0  0  0  0  0
  140.0440   78.3300  222.2510 C   0  0  0  0  0  0  0  0  0  0  0  0
  139.7710   79.1700  223.3120 C   0  0  0  0  0  0  0  0  0  0  0  0
  140.7130   80.0450  223.8220 C   0  0  0  0  0  0  0  0  0  0  0  0
  141.9740   80.0840  223.2530 C   0  0  0  0  0  0  0  0  0  0  0  0
  142.2290   79.2360  222.1930 C   0  0  0  0  0  0  0  0  0  0  0  0
  143.0660   76.8030  217.9949 H   0  0  0  0  0  0  0  0  0  0  0  0
  141.8913   76.2742  216.7430 H   0  0  0  0  0  0  0  0  0  0  0  0
  142.5047   77.9625  216.7430 H   0  0  0  0  0  0  0  0  0  0  0  0
  142.7028   78.5634  219.0275 H   0  0  0  0  0  0  0  0  0  0  0  0
  141.0543   79.1911  219.3455 H   0  0  0  0  0  0  0  0  0  0  0  0
  142.5637   76.9618  220.7383 H   0  0  0  0  0  0  0  0  0  0  0  0
  139.7680   76.7760  219.6840 H   0  0  0  0  0  0  0  0  0  0  0  0
  138.4223   75.0110  220.9185 H   0  0  0  0  0  0  0  0  0  0  0  0
  139.5436   73.8209  220.1380 H   0  0  0  0  0  0  0  0  0  0  0  0
  138.4250   73.6680  222.8470 H   0  0  0  0  0  0  0  0  0  0  0  0
  138.8549   70.2210  222.3819 H   0  0  0  0  0  0  0  0  0  0  0  0
  138.5691   68.6541  224.2781 H   0  0  0  0  0  0  0  0  0  0  0  0
  138.9728   68.0547  226.5543 H   0  0  0  0  0  0  0  0  0  0  0  0
  140.0253   68.6191  228.7399 H   0  0  0  0  0  0  0  0  0  0  0  0
  141.3227   70.6967  229.0187 H   0  0  0  0  0  0  0  0  0  0  0  0
  141.6126   72.2793  227.0970 H   0  0  0  0  0  0  0  0  0  0  0  0
  139.2730   77.6455  221.8675 H   0  0  0  0  0  0  0  0  0  0  0  0
  138.7701   79.1425  223.7674 H   0  0  0  0  0  0  0  0  0  0  0  0
  140.4632   80.7012  224.6687 H   0  0  0  0  0  0  0  0  0  0  0  0
  142.7476   80.7678  223.6324 H   0  0  0  0  0  0  0  0  0  0  0  0
  143.2303   79.2638  221.7383 H   0  0  0  0  0  0  0  0  0  0  0  0
  1  2  1  0
  2  3  1  0
  3  4  1  0
  4  5  1  0
  5  6  1  0
  6  7  2  0
  6  8  1  0
  8  9  1  0
  9 10  1  0
 10 11  2  0
 10 12  1  0
 12 13  2  0
 13 14  1  0
 14 15  2  0
 15 16  1  0
 16 17  2  0
 17 18  1  0
 18 19  2  0
 19 20  1  0
 20 21  2  0
  4 22  1  0
 22 23  2  0
 23 24  1  0
 24 25  2  0
 25 26  1  0
 26 27  2  0
 21 12  1  0
 27 22  1  0
 20 15  1  0
  1 28  1  0
  1 29  1  0
  1 30  1  0
  3 31  1  0
  3 32  1  0
  4 33  1  1
  5 34  1  0
  8 35  1  0
  8 36  1  0
  9 37  1  0
 13 38  1  0
 14 39  1  0
 16 40  1  0
 17 41  1  0
 18 42  1  0
 19 43  1  0
 23 44  1  0
 24 45  1  0
 25 46  1  0
 26 47  1  0
 27 48  1  0
M  END
>  <smiles>  (8) 
COC[C@H](NC(=O)CNC(=O)c1ccc2ccccc2n1)c1ccccc1

>  <score_type>  (8) 
oracle

>  <origin>  (8) 
autodockgpu

>  <m_score__min__energy>  (8) 
-8.1999999999999993

>  <m_primary>  (8) 
energy

>  <rmsd>  (8) 
3.9249062382097337

>  <m_score__min__rmsd>  (8) 
3.9249062382097337

>  <meeko>  (8) 
{"free_energy": -7.84, "intermolecular_energy": -9.93, "internal_energy": -1.93, "cluster_size": 12, "cluster_id": 2, "rank_in_cluster": 7}

>  <energy>  (8) 
-7.86

>  <cluster_rmsd>  (8) 
1.99

>  <cluster>  (8) 
2

$$$$

     RDKit          3D

 48 50  0  0  0  0  0  0  0  0999 V2000
  144.0050   71.5890  220.4790 C   0  0  0  0  0  0  0  0  0  0  0  0
  143.7430   72.6590  219.6430 O   0  0  0  0  0  0  0  0  0  0  0  0
  144.3680   73.8020  220.1500 C   0  0  0  0  0  0  0  0  0  0  0  0
  143.3110   74.8910  220.3730 C   0  0  2  0  0  0  0  0  0  0  0  0
  142.0350   74.1950  220.4640 N   0  0  0  0  0  0  0  0  0  0  0  0
  140.9320   74.8970  221.0050 C   0  0  0  0  0  0  0  0  0  0  0  0
  141.0650   76.0980  221.3980 O   0  0  0  0  0  0  0  0  0  0  0  0
  139.6340   74.1740  221.0910 C   0  0  0  0  0  0  0  0  0  0  0  0
  139.5320   73.4050  222.3170 N   0  0  0  0  0  0  0  0  0  0  0  0
  140.2940   72.2130  222.4490 C   0  0  0  0  0  0  0  0  0  0  0  0
  141.0510   71.8360  221.5060 O   0  0  0  0  0  0  0  0  0  0  0  0
  140.1870   71.4430  223.6850 C   0  0  0  0  0  0  0  0  0  0  0  0
  139.5720   70.1970  223.6400 C   0  0  0  0  0  0  0  0  0  0  0  0
  139.4450   69.4290  224.7810 C   0  0  0  0  0  0  0  0  0  0  0  0
  139.9320   69.9000  225.9800 C   0  0  0  0  0  0  0  0  0  0  0  0
  139.7970   69.1210  227.1130 C   0  0  0  0  0  0  0  0  0  0  0  0
  140.2970   69.6250  228.2970 C   0  0  0  0  0  0  0  0  0  0  0  0
  140.9090   70.8630  228.3500 C   0  0  0  0  0  0  0  0  0  0  0  0
  141.0390   71.6420  227.1950 C   0  0  0  0  0  0  0  0  0  0  0  0
  140.5390   71.1420  225.9970 C   0  0  0  0  0  0  0  0  0  0  0  0
  140.6560   71.8850  224.8680 N   0  0  0  0  0  0  0  0  0  0  0  0
  143.2690   75.7920  219.2140 C   0  0  0  0  0  0  0  0  0  0  0  0
  143.6270   75.3040  217.9610 C   0  0  0  0  0  0  0  0  0  0  0  0
  143.5870   76.1560  216.8750 C   0  0  0  0  0  0  0  0  0  0  0  0
  143.2030   77.4800  216.9900 C   0  0  0  0  0  0  0  0  0  0  0  0
  142.8460   77.9730  218.2330 C   0  0  0  0  0  0  0  0  0  0  0  0
  142.8920   77.1050  219.3070 C   0  0  0  0  0  0  0  0  0  0  0  0
  143.9254   71.9143  221.5268 H   0  0  0  0  0  0  0  0  0  0  0  0
  143.2767   70.7872  220.2876 H   0  0  0  0  0  0  0  0  0  0  0  0
  145.0214   71.2144  220.2876 H   0  0  0  0  0  0  0  0  0  0  0  0
  144.8574   73.5618  221.1054 H   0  0  0  0  0  0  0  0  0  0  0  0
  145.1252   74.1592  219.4366 H   0  0  0  0  0  0  0  0  0  0  0  0
  143.5335   75.4835  221.2727 H   0  0  0  0  0  0  0  0  0  0  0  0
  142.0000   73.2090  220.1210 H   0  0  0  0  0  0  0  0  0  0  0  0
  138.8143   74.9069  221.0599 H   0  0  0  0  0  0  0  0  0  0  0  0
  139.5706   73.4779  220.2416 H   0  0  0  0  0  0  0  0  0  0  0  0
  138.9000   73.7280  223.0930 H   0  0  0  0  0  0  0  0  0  0  0  0
  139.1817   69.8181  222.6839 H   0  0  0  0  0  0  0  0  0  0  0  0
  138.9566   68.4446  224.7322 H   0  0  0  0  0  0  0  0  0  0  0  0
  139.3093   68.1359  227.0732 H   0  0  0  0  0  0  0  0  0  0  0  0
  140.2064   69.0290  229.2171 H   0  0  0  0  0  0  0  0  0  0  0  0
  141.2971   71.2390  229.3081 H   0  0  0  0  0  0  0  0  0  0  0  0
  141.5257   72.6277  227.2334 H   0  0  0  0  0  0  0  0  0  0  0  0
  143.9370   74.2558  217.8375 H   0  0  0  0  0  0  0  0  0  0  0  0
  143.8700   75.7688  215.8851 H   0  0  0  0  0  0  0  0  0  0  0  0
  143.1817   78.1327  216.1048 H   0  0  0  0  0  0  0  0  0  0  0  0
  142.5361   79.0206  218.3615 H   0  0  0  0  0  0  0  0  0  0  0  0
  142.6086   77.4923  220.2968 H   0  0  0  0  0  0  0  0  0  0  0  0
  1  2  1  0
  2  3  1  0
  3  4  1  0
  4  5  1  0
  5  6  1  0
  6  7  2  0
  6  8  1  0
  8  9  1  0
  9 10  1  0
 10 11  2  0
 10 12  1  0
 12 13  2  0
 13 14  1  0
 14 15  2  0
 15 16  1  0
 16 17  2  0
 17 18  1  0
 18 19  2  0
 19 20  1  0
 20 21  2  0
  4 22  1  0
 22 23  2  0
 23 24  1  0
 24 25  2  0
 25 26  1  0
 26 27  2  0
 21 12  1  0
 27 22  1  0
 20 15  1  0
  1 28  1  0
  1 29  1  0
  1 30  1  0
  3 31  1  0
  3 32  1  0
  4 33  1  1
  5 34  1  0
  8 35  1  0
  8 36  1  0
  9 37  1  0
 13 38  1  0
 14 39  1  0
 16 40  1  0
 17 41  1  0
 18 42  1  0
 19 43  1  0
 23 44  1  0
 24 45  1  0
 25 46  1  0
 26 47  1  0
 27 48  1  0
M  END
>  <smiles>  (9) 
COC[C@H](NC(=O)CNC(=O)c1ccc2ccccc2n1)c1ccccc1

>  <score_type>  (9) 
oracle

>  <origin>  (9) 
autodockgpu

>  <m_score__min__energy>  (9) 
-8.1999999999999993

>  <m_primary>  (9) 
energy

>  <rmsd>  (9) 
5.394781821734655

>  <m_score__min__rmsd>  (9) 
5.394781821734655

>  <meeko>  (9) 
{"free_energy": -7.11, "intermolecular_energy": -9.2, "internal_energy": -2.85, "cluster_size": 17, "cluster_id": 7, "rank_in_cluster": 9}

>  <energy>  (9) 
-7.84

>  <cluster_rmsd>  (9) 
1.89

>  <cluster>  (9) 
2

$$$$

     RDKit          3D

 48 50  0  0  0  0  0  0  0  0999 V2000
  144.1350   71.6000  219.9730 C   0  0  0  0  0  0  0  0  0  0  0  0
  143.9620   72.6260  220.8850 O   0  0  0  0  0  0  0  0  0  0  0  0
  144.4390   73.8180  220.3310 C   0  0  0  0  0  0  0  0  0  0  0  0
  143.3360   74.8810  220.4130 C   0  0  2  0  0  0  0  0  0  0  0  0
  142.0810   74.1480  220.5050 N   0  0  0  0  0  0  0  0  0  0  0  0
  140.9390   74.8440  220.9670 C   0  0  0  0  0  0  0  0  0  0  0  0
  141.0190   76.0690  221.2900 O   0  0  0  0  0  0  0  0  0  0  0  0
  139.6620   74.0830  221.0560 C   0  0  0  0  0  0  0  0  0  0  0  0
  139.5740   73.3300  222.2930 N   0  0  0  0  0  0  0  0  0  0  0  0
  140.3170   72.1250  222.4220 C   0  0  0  0  0  0  0  0  0  0  0  0
  141.0440   71.7220  221.4660 O   0  0  0  0  0  0  0  0  0  0  0  0
  140.2240   71.3720  223.6690 C   0  0  0  0  0  0  0  0  0  0  0  0
  139.6320   70.1150  223.6440 C   0  0  0  0  0  0  0  0  0  0  0  0
  139.5190   69.3620  224.7960 C   0  0  0  0  0  0  0  0  0  0  0  0
  139.9980   69.8600  225.9880 C   0  0  0  0  0  0  0  0  0  0  0  0
  139.8780   69.0960  227.1320 C   0  0  0  0  0  0  0  0  0  0  0  0
  140.3690   69.6270  228.3090 C   0  0  0  0  0  0  0  0  0  0  0  0
  140.9580   70.8760  228.3420 C   0  0  0  0  0  0  0  0  0  0  0  0
  141.0730   71.6400  227.1750 C   0  0  0  0  0  0  0  0  0  0  0  0
  140.5820   71.1130  225.9860 C   0  0  0  0  0  0  0  0  0  0  0  0
  140.6850   71.8410  224.8450 N   0  0  0  0  0  0  0  0  0  0  0  0
  143.3200   75.6810  219.1810 C   0  0  0  0  0  0  0  0  0  0  0  0
  143.6960   75.0850  217.9800 C   0  0  0  0  0  0  0  0  0  0  0  0
  143.6790   75.8410  216.8250 C   0  0  0  0  0  0  0  0  0  0  0  0
  143.3030   77.1730  216.8200 C   0  0  0  0  0  0  0  0  0  0  0  0
  142.9290   77.7720  218.0100 C   0  0  0  0  0  0  0  0  0  0  0  0
  142.9510   76.9990  219.1550 C   0  0  0  0  0  0  0  0  0  0  0  0
  144.2945   70.6540  220.5112 H   0  0  0  0  0  0  0  0  0  0  0  0
  143.2384   71.5158  219.3414 H   0  0  0  0  0  0  0  0  0  0  0  0
  145.0097   71.8145  219.3414 H   0  0  0  0  0  0  0  0  0  0  0  0
  145.3221   74.1583  220.8917 H   0  0  0  0  0  0  0  0  0  0  0  0
  144.7208   73.6539  219.2804 H   0  0  0  0  0  0  0  0  0  0  0  0
  143.4946   75.5538  221.2687 H   0  0  0  0  0  0  0  0  0  0  0  0
  142.0900   73.1430  220.2220 H   0  0  0  0  0  0  0  0  0  0  0  0
  138.8209   74.7903  221.0080 H   0  0  0  0  0  0  0  0  0  0  0  0
  139.6260   73.3722  220.2173 H   0  0  0  0  0  0  0  0  0  0  0  0
  138.9670   73.6740  223.0790 H   0  0  0  0  0  0  0  0  0  0  0  0
  139.2484   69.7145  222.6940 H   0  0  0  0  0  0  0  0  0  0  0  0
  139.0483   68.3684  224.7621 H   0  0  0  0  0  0  0  0  0  0  0  0
  139.4088   68.1014  227.1070 H   0  0  0  0  0  0  0  0  0  0  0  0
  140.2894   69.0437  229.2382 H   0  0  0  0  0  0  0  0  0  0  0  0
  141.3400   71.2737  229.2938 H   0  0  0  0  0  0  0  0  0  0  0  0
  141.5413   72.6350  227.1981 H   0  0  0  0  0  0  0  0  0  0  0  0
  144.0017   74.0287  217.9520 H   0  0  0  0  0  0  0  0  0  0  0  0
  143.9743   75.3687  215.8765 H   0  0  0  0  0  0  0  0  0  0  0  0
  143.3015   77.7480  215.8822 H   0  0  0  0  0  0  0  0  0  0  0  0
  142.6243   78.8284  218.0433 H   0  0  0  0  0  0  0  0  0  0  0  0
  142.6540   77.4712  220.1030 H   0  0  0  0  0  0  0  0  0  0  0  0
  1  2  1  0
  2  3  1  0
  3  4  1  0
  4  5  1  0
  5  6  1  0
  6  7  2  0
  6  8  1  0
  8  9  1  0
  9 10  1  0
 10 11  2  0
 10 12  1  0
 12 13  2  0
 13 14  1  0
 14 15  2  0
 15 16  1  0
 16 17  2  0
 17 18  1  0
 18 19  2  0
 19 20  1  0
 20 21  2  0
  4 22  1  0
 22 23  2  0
 23 24  1  0
 24 25  2  0
 25 26  1  0
 26 27  2  0
 21 12  1  0
 27 22  1  0
 20 15  1  0
  1 28  1  0
  1 29  1  0
  1 30  1  0
  3 31  1  0
  3 32  1  0
  4 33  1  1
  5 34  1  0
  8 35  1  0
  8 36  1  0
  9 37  1  0
 13 38  1  0
 14 39  1  0
 16 40  1  0
 17 41  1  0
 18 42  1  0
 19 43  1  0
 23 44  1  0
 24 45  1  0
 25 46  1  0
 26 47  1  0
 27 48  1  0
M  END
>  <smiles>  (10) 
COC[C@H](NC(=O)CNC(=O)c1ccc2ccccc2n1)c1ccccc1

>  <score_type>  (10) 
oracle

>  <origin>  (10) 
autodockgpu

>  <m_score__min__energy>  (10) 
-8.1999999999999993

>  <m_primary>  (10) 
energy

>  <rmsd>  (10) 
5.476737868639725

>  <m_score__min__rmsd>  (10) 
5.476737868639725

>  <meeko>  (10) 
{"free_energy": -7.17, "intermolecular_energy": -9.25, "internal_energy": -2.85, "cluster_size": 17, "cluster_id": 7, "rank_in_cluster": 2}

>  <energy>  (10) 
-7.81

>  <cluster_rmsd>  (10) 
1.86

>  <cluster>  (10) 
2

$$$$

     RDKit          3D

 48 50  0  0  0  0  0  0  0  0999 V2000
  144.4710   71.5560  220.0930 C   0  0  0  0  0  0  0  0  0  0  0  0
  143.8460   72.6980  219.6280 O   0  0  0  0  0  0  0  0  0  0  0  0
  144.4230   73.8170  220.2370 C   0  0  0  0  0  0  0  0  0  0  0  0
  143.3460   74.8930  220.4240 C   0  0  2  0  0  0  0  0  0  0  0  0
  142.0800   74.1800  220.5110 N   0  0  0  0  0  0  0  0  0  0  0  0
  140.9520   74.8850  220.9940 C   0  0  0  0  0  0  0  0  0  0  0  0
  141.0550   76.1030  221.3380 O   0  0  0  0  0  0  0  0  0  0  0  0
  139.6640   74.1440  221.0780 C   0  0  0  0  0  0  0  0  0  0  0  0
  139.5650   73.3830  222.3090 N   0  0  0  0  0  0  0  0  0  0  0  0
  140.3350   72.1980  222.4510 C   0  0  0  0  0  0  0  0  0  0  0  0
  141.0950   71.8170  221.5120 O   0  0  0  0  0  0  0  0  0  0  0  0
  140.2300   71.4370  223.6930 C   0  0  0  0  0  0  0  0  0  0  0  0
  139.6130   70.1920  223.6600 C   0  0  0  0  0  0  0  0  0  0  0  0
  139.4880   69.4320  224.8070 C   0  0  0  0  0  0  0  0  0  0  0  0
  139.9810   69.9110  226.0010 C   0  0  0  0  0  0  0  0  0  0  0  0
  139.8490   69.1410  227.1400 C   0  0  0  0  0  0  0  0  0  0  0  0
  140.3550   69.6520  228.3180 C   0  0  0  0  0  0  0  0  0  0  0  0
  140.9710   70.8890  228.3590 C   0  0  0  0  0  0  0  0  0  0  0  0
  141.0980   71.6590  227.1980 C   0  0  0  0  0  0  0  0  0  0  0  0
  140.5910   71.1520  226.0060 C   0  0  0  0  0  0  0  0  0  0  0  0
  140.7060   71.8860  224.8710 N   0  0  0  0  0  0  0  0  0  0  0  0
  143.3060   75.7700  219.2460 C   0  0  0  0  0  0  0  0  0  0  0  0
  143.6500   75.2510  218.0000 C   0  0  0  0  0  0  0  0  0  0  0  0
  143.6110   76.0800  216.8970 C   0  0  0  0  0  0  0  0  0  0  0  0
  143.2430   77.4100  216.9860 C   0  0  0  0  0  0  0  0  0  0  0  0
  142.9020   77.9340  218.2200 C   0  0  0  0  0  0  0  0  0  0  0  0
  142.9460   77.0890  219.3120 C   0  0  0  0  0  0  0  0  0  0  0  0
  144.4693   71.5591  221.1930 H   0  0  0  0  0  0  0  0  0  0  0  0
  143.9326   70.6689  219.7280 H   0  0  0  0  0  0  0  0  0  0  0  0
  145.5084   71.5313  219.7280 H   0  0  0  0  0  0  0  0  0  0  0  0
  144.8347   73.5328  221.2166 H   0  0  0  0  0  0  0  0  0  0  0  0
  145.2340   74.2080  219.6050 H   0  0  0  0  0  0  0  0  0  0  0  0
  143.5469   75.5060  221.3150 H   0  0  0  0  0  0  0  0  0  0  0  0
  142.0700   73.1800  220.2100 H   0  0  0  0  0  0  0  0  0  0  0  0
  138.8341   74.8648  221.0362 H   0  0  0  0  0  0  0  0  0  0  0  0
  139.6162   73.4404  220.2338 H   0  0  0  0  0  0  0  0  0  0  0  0
  138.9300   73.7080  223.0820 H   0  0  0  0  0  0  0  0  0  0  0  0
  139.2190   69.8066  222.7080 H   0  0  0  0  0  0  0  0  0  0  0  0
  138.9969   68.4485  224.7671 H   0  0  0  0  0  0  0  0  0  0  0  0
  139.3587   68.1568  227.1094 H   0  0  0  0  0  0  0  0  0  0  0  0
  140.2664   69.0632  229.2429 H   0  0  0  0  0  0  0  0  0  0  0  0
  141.3645   71.2710  229.3125 H   0  0  0  0  0  0  0  0  0  0  0  0
  141.5879   72.6435  227.2270 H   0  0  0  0  0  0  0  0  0  0  0  0
  143.9480   74.1972  217.8966 H   0  0  0  0  0  0  0  0  0  0  0  0
  143.8819   75.6685  215.9135 H   0  0  0  0  0  0  0  0  0  0  0  0
  143.2217   78.0433  216.0869 H   0  0  0  0  0  0  0  0  0  0  0  0
  142.6058   78.9878  218.3281 H   0  0  0  0  0  0  0  0  0  0  0  0
  142.6751   77.5015  220.2951 H   0  0  0  0  0  0  0  0  0  0  0  0
  1  2  1  0
  2  3  1  0
  3  4  1  0
  4  5  1  0
  5  6  1  0
  6  7  2  0
  6  8  1  0
  8  9  1  0
  9 10  1  0
 10 11  2  0
 10 12  1  0
 12 13  2  0
 13 14  1  0
 14 15  2  0
 15 16  1  0
 16 17  2  0
 17 18  1  0
 18 19  2  0
 19 20  1  0
 20 21  2  0
  4 22  1  0
 22 23  2  0
 23 24  1  0
 24 25  2  0
 25 26  1  0
 26 27  2  0
 21 12  1  0
 27 22  1  0
 20 15  1  0
  1 28  1  0
  1 29  1  0
  1 30  1  0
  3 31  1  0
  3 32  1  0
  4 33  1  1
  5 34  1  0
  8 35  1  0
  8 36  1  0
  9 37  1  0
 13 38  1  0
 14 39  1  0
 16 40  1  0
 17 41  1  0
 18 42  1  0
 19 43  1  0
 23 44  1  0
 24 45  1  0
 25 46  1  0
 26 47  1  0
 27 48  1  0
M  END
>  <smiles>  (11) 
COC[C@H](NC(=O)CNC(=O)c1ccc2ccccc2n1)c1ccccc1

>  <score_type>  (11) 
oracle

>  <origin>  (11) 
autodockgpu

>  <m_score__min__energy>  (11) 
-8.1999999999999993

>  <m_primary>  (11) 
energy

>  <rmsd>  (11) 
5.408982125901038

>  <m_score__min__rmsd>  (11) 
5.408982125901038

>  <meeko>  (11) 
{"free_energy": -7.08, "intermolecular_energy": -9.17, "internal_energy": -2.82, "cluster_size": 17, "cluster_id": 7, "rank_in_cluster": 12}

>  <energy>  (11) 
-7.8

>  <cluster_rmsd>  (11) 
0.4

>  <cluster>  (11) 
2

$$$$

     RDKit          3D

 48 50  0  0  0  0  0  0  0  0999 V2000
  139.8730   79.5730  218.9130 C   0  0  0  0  0  0  0  0  0  0  0  0
  140.3290   78.2680  218.9480 O   0  0  0  0  0  0  0  0  0  0  0  0
  141.6790   78.2630  219.3090 C   0  0  0  0  0  0  0  0  0  0  0  0
  141.8350   77.5240  220.6440 C   0  0  2  0  0  0  0  0  0  0  0  0
  140.6730   76.6550  220.7570 N   0  0  0  0  0  0  0  0  0  0  0  0
  140.8940   75.2790  221.0030 C   0  0  0  0  0  0  0  0  0  0  0  0
  142.0760   74.8280  221.1190 O   0  0  0  0  0  0  0  0  0  0  0  0
  139.6970   74.4020  221.1170 C   0  0  0  0  0  0  0  0  0  0  0  0
  139.7280   73.6090  222.3310 N   0  0  0  0  0  0  0  0  0  0  0  0
  140.0310   72.2230  222.2430 C   0  0  0  0  0  0  0  0  0  0  0  0
  140.2700   71.6960  221.1160 O   0  0  0  0  0  0  0  0  0  0  0  0
  140.0620   71.4310  223.4690 C   0  0  0  0  0  0  0  0  0  0  0  0
  139.5660   70.1330  223.4340 C   0  0  0  0  0  0  0  0  0  0  0  0
  139.5710   69.3420  224.5660 C   0  0  0  0  0  0  0  0  0  0  0  0
  140.0740   69.8420  225.7470 C   0  0  0  0  0  0  0  0  0  0  0  0
  140.0720   69.0390  226.8710 C   0  0  0  0  0  0  0  0  0  0  0  0
  140.5840   69.5740  228.0370 C   0  0  0  0  0  0  0  0  0  0  0  0
  141.0790   70.8630  228.0800 C   0  0  0  0  0  0  0  0  0  0  0  0
  141.0740   71.6650  226.9340 C   0  0  0  0  0  0  0  0  0  0  0  0
  140.5610   71.1360  225.7550 C   0  0  0  0  0  0  0  0  0  0  0  0
  140.5490   71.9010  224.6340 N   0  0  0  0  0  0  0  0  0  0  0  0
  141.8070   78.4870  221.7540 C   0  0  0  0  0  0  0  0  0  0  0  0
  142.1690   79.8100  221.5150 C   0  0  0  0  0  0  0  0  0  0  0  0
  142.1400   80.7090  222.5620 C   0  0  0  0  0  0  0  0  0  0  0  0
  141.7660   80.3420  223.8420 C   0  0  0  0  0  0  0  0  0  0  0  0
  141.4050   79.0280  224.0870 C   0  0  0  0  0  0  0  0  0  0  0  0
  141.4390   78.1430  223.0270 C   0  0  0  0  0  0  0  0  0  0  0  0
  139.7434   79.9438  219.9405 H   0  0  0  0  0  0  0  0  0  0  0  0
  140.6043   80.2029  218.3853 H   0  0  0  0  0  0  0  0  0  0  0  0
  138.9085   79.6104  218.3853 H   0  0  0  0  0  0  0  0  0  0  0  0
  142.2666   77.7508  218.5329 H   0  0  0  0  0  0  0  0  0  0  0  0
  142.0406   79.2968  219.4115 H   0  0  0  0  0  0  0  0  0  0  0  0
  142.7829   76.9672  220.6827 H   0  0  0  0  0  0  0  0  0  0  0  0
  139.7320   77.0950  220.6510 H   0  0  0  0  0  0  0  0  0  0  0  0
  138.7940   75.0301  221.1242 H   0  0  0  0  0  0  0  0  0  0  0  0
  139.6917   73.7149  220.2580 H   0  0  0  0  0  0  0  0  0  0  0  0
  139.5280   74.0570  223.2610 H   0  0  0  0  0  0  0  0  0  0  0  0
  139.1642   69.7306  222.4924 H   0  0  0  0  0  0  0  0  0  0  0  0
  139.1749   68.3166  224.5248 H   0  0  0  0  0  0  0  0  0  0  0  0
  139.6777   68.0126  226.8387 H   0  0  0  0  0  0  0  0  0  0  0  0
  140.5979   68.9610  228.9502 H   0  0  0  0  0  0  0  0  0  0  0  0
  141.4804   71.2620  229.0232 H   0  0  0  0  0  0  0  0  0  0  0  0
  141.4674   72.6918  226.9649 H   0  0  0  0  0  0  0  0  0  0  0  0
  142.4731   80.1334  220.5085 H   0  0  0  0  0  0  0  0  0  0  0  0
  142.4244   81.7544  222.3716 H   0  0  0  0  0  0  0  0  0  0  0  0
  141.7555   81.0838  224.6541 H   0  0  0  0  0  0  0  0  0  0  0  0
  141.1013   78.6998  225.0920 H   0  0  0  0  0  0  0  0  0  0  0  0
  141.1529   77.0980  223.2173 H   0  0  0  0  0  0  0  0  0  0  0  0
  1  2  1  0
  2  3  1  0
  3  4  1  0
  4  5  1  0
  5  6  1  0
  6  7  2  0
  6  8  1  0
  8  9  1  0
  9 10  1  0
 10 11  2  0
 10 12  1  0
 12 13  2  0
 13 14  1  0
 14 15  2  0
 15 16  1  0
 16 17  2  0
 17 18  1  0
 18 19  2  0
 19 20  1  0
 20 21  2  0
  4 22  1  0
 22 23  2  0
 23 24  1  0
 24 25  2  0
 25 26  1  0
 26 27  2  0
 21 12  1  0
 27 22  1  0
 20 15  1  0
  1 28  1  0
  1 29  1  0
  1 30  1  0
  3 31  1  0
  3 32  1  0
  4 33  1  6
  5 34  1  0
  8 35  1  0
  8 36  1  0
  9 37  1  0
 13 38  1  0
 14 39  1  0
 16 40  1  0
 17 41  1  0
 18 42  1  0
 19 43  1  0
 23 44  1  0
 24 45  1  0
 25 46  1  0
 26 47  1  0
 27 48  1  0
M  END
>  <smiles>  (12) 
COC[C@H](NC(=O)CNC(=O)c1ccc2ccccc2n1)c1ccccc1

>  <score_type>  (12) 
oracle

>  <origin>  (12) 
autodockgpu

>  <m_score__min__energy>  (12) 
-8.1999999999999993

>  <m_primary>  (12) 
energy

>  <rmsd>  (12) 
4.236434949628026

>  <m_score__min__rmsd>  (12) 
4.236434949628026

>  <meeko>  (12) 
{"free_energy": -7.81, "intermolecular_energy": -9.9, "internal_energy": -2.11, "cluster_size": 12, "cluster_id": 2, "rank_in_cluster": 8}

>  <energy>  (12) 
-7.45

>  <cluster_rmsd>  (12) 
1.19

>  <cluster>  (12) 
2

$$$$

     RDKit          3D

 48 50  0  0  0  0  0  0  0  0999 V2000
  139.9770   72.9110  221.4890 C   0  0  0  0  0  0  0  0  0  0  0  0
  139.6790   72.8930  222.8390 O   0  0  0  0  0  0  0  0  0  0  0  0
  140.6530   72.1510  223.5140 C   0  0  0  0  0  0  0  0  0  0  0  0
  140.0010   70.8960  224.1080 C   0  0  2  0  0  0  0  0  0  0  0  0
  138.5830   70.9980  223.7950 N   0  0  0  0  0  0  0  0  0  0  0  0
  137.8960   69.8140  223.4340 C   0  0  0  0  0  0  0  0  0  0  0  0
  138.5110   68.7030  223.3870 O   0  0  0  0  0  0  0  0  0  0  0  0
  136.4470   69.9320  223.1170 C   0  0  0  0  0  0  0  0  0  0  0  0
  135.8010   70.9390  223.9380 N   0  0  0  0  0  0  0  0  0  0  0  0
  135.9220   72.3070  223.5740 C   0  0  0  0  0  0  0  0  0  0  0  0
  136.5850   72.6340  222.5450 O   0  0  0  0  0  0  0  0  0  0  0  0
  135.2700   73.3150  224.4040 C   0  0  0  0  0  0  0  0  0  0  0  0
  135.6730   74.6400  224.2810 C   0  0  0  0  0  0  0  0  0  0  0  0
  135.0880   75.6320  225.0430 C   0  0  0  0  0  0  0  0  0  0  0  0
  134.0920   75.3090  225.9370 C   0  0  0  0  0  0  0  0  0  0  0  0
  133.5160   76.3120  226.6930 C   0  0  0  0  0  0  0  0  0  0  0  0
  132.5200   75.9520  227.5790 C   0  0  0  0  0  0  0  0  0  0  0  0
  132.1140   74.6370  227.7070 C   0  0  0  0  0  0  0  0  0  0  0  0
  132.7050   73.6310  226.9360 C   0  0  0  0  0  0  0  0  0  0  0  0
  133.7090   73.9850  226.0400 C   0  0  0  0  0  0  0  0  0  0  0  0
  134.2930   73.0210  225.2850 N   0  0  0  0  0  0  0  0  0  0  0  0
  140.1570   70.8960  225.5690 C   0  0  0  0  0  0  0  0  0  0  0  0
  140.9180   71.8950  226.1710 C   0  0  0  0  0  0  0  0  0  0  0  0
  141.0610   71.8890  227.5440 C   0  0  0  0  0  0  0  0  0  0  0  0
  140.4760   70.9240  228.3430 C   0  0  0  0  0  0  0  0  0  0  0  0
  139.7190   69.9280  227.7520 C   0  0  0  0  0  0  0  0  0  0  0  0
  139.5870   69.9500  226.3770 C   0  0  0  0  0  0  0  0  0  0  0  0
  141.0668   72.9768  221.3549 H   0  0  0  0  0  0  0  0  0  0  0  0
  139.6048   71.9887  221.0190 H   0  0  0  0  0  0  0  0  0  0  0  0
  139.4965   73.7818  221.0190 H   0  0  0  0  0  0  0  0  0  0  0  0
  141.4461   71.8571  222.8107 H   0  0  0  0  0  0  0  0  0  0  0  0
  141.0919   72.7586  224.3191 H   0  0  0  0  0  0  0  0  0  0  0  0
  140.4575   69.9804  223.7038 H   0  0  0  0  0  0  0  0  0  0  0  0
  138.1440   71.9430  223.8550 H   0  0  0  0  0  0  0  0  0  0  0  0
  136.3346   70.2086  222.0583 H   0  0  0  0  0  0  0  0  0  0  0  0
  135.9697   68.9625  223.3225 H   0  0  0  0  0  0  0  0  0  0  0  0
  135.2530   70.6560  224.7890 H   0  0  0  0  0  0  0  0  0  0  0  0
  136.4682   74.9015  223.5674 H   0  0  0  0  0  0  0  0  0  0  0  0
  135.4165   76.6763  224.9361 H   0  0  0  0  0  0  0  0  0  0  0  0
  133.8390   77.3587  226.5927 H   0  0  0  0  0  0  0  0  0  0  0  0
  132.0403   76.7269  228.1950 H   0  0  0  0  0  0  0  0  0  0  0  0
  131.3187   74.3794  228.4219 H   0  0  0  0  0  0  0  0  0  0  0  0
  132.3835   72.5838  227.0356 H   0  0  0  0  0  0  0  0  0  0  0  0
  141.3972   72.6760  225.5624 H   0  0  0  0  0  0  0  0  0  0  0  0
  141.6611   72.6792  228.0188 H   0  0  0  0  0  0  0  0  0  0  0  0
  140.6107   70.9478  229.4345 H   0  0  0  0  0  0  0  0  0  0  0  0
  139.2383   69.1449  228.3567 H   0  0  0  0  0  0  0  0  0  0  0  0
  138.9873   69.1591  225.9029 H   0  0  0  0  0  0  0  0  0  0  0  0
  1  2  1  0
  2  3  1  0
  3  4  1  0
  4  5  1  0
  5  6  1  0
  6  7  2  0
  6  8  1  0
  8  9  1  0
  9 10  1  0
 10 11  2  0
 10 12  1  0
 12 13  2  0
 13 14  1  0
 14 15  2  0
 15 16  1  0
 16 17  2  0
 17 18  1  0
 18 19  2  0
 19 20  1  0
 20 21  2  0
  4 22  1  0
 22 23  2  0
 23 24  1  0
 24 25  2  0
 25 26  1  0
 26 27  2  0
 21 12  1  0
 27 22  1  0
 20 15  1  0
  1 28  1  0
  1 29  1  0
  1 30  1  0
  3 31  1  0
  3 32  1  0
  4 33  1  6
  5 34  1  0
  8 35  1  0
  8 36  1  0
  9 37  1  0
 13 38  1  0
 14 39  1  0
 16 40  1  0
 17 41  1  0
 18 42  1  0
 19 43  1  0
 23 44  1  0
 24 45  1  0
 25 46  1  0
 26 47  1  0
 27 48  1  0
M  END
>  <smiles>  (13) 
COC[C@H](NC(=O)CNC(=O)c1ccc2ccccc2n1)c1ccccc1

>  <score_type>  (13) 
oracle

>  <origin>  (13) 
autodockgpu

>  <m_score__min__energy>  (13) 
-8.1999999999999993

>  <m_primary>  (13) 
energy

>  <rmsd>  (13) 
9.629251562743566

>  <m_score__min__rmsd>  (13) 
9.629251562743566

>  <meeko>  (13) 
{"free_energy": -6.86, "intermolecular_energy": -8.95, "internal_energy": -3.16, "cluster_size": 6, "cluster_id": 3, "rank_in_cluster": 6}

>  <energy>  (13) 
-7.29

>  <cluster_rmsd>  (13) 
1.26

>  <cluster>  (13) 
2

$$$$

     RDKit          3D

 48 50  0  0  0  0  0  0  0  0999 V2000
  139.5280   76.4630  222.3150 C   0  0  0  0  0  0  0  0  0  0  0  0
  140.5340   75.5140  222.2970 O   0  0  0  0  0  0  0  0  0  0  0  0
  141.3740   75.7580  221.2070 C   0  0  0  0  0  0  0  0  0  0  0  0
  141.4740   74.4820  220.3600 C   0  0  2  0  0  0  0  0  0  0  0  0
  140.5090   73.5510  220.9270 N   0  0  0  0  0  0  0  0  0  0  0  0
  139.1890   73.5710  220.4180 C   0  0  0  0  0  0  0  0  0  0  0  0
  138.8680   74.3830  219.4960 O   0  0  0  0  0  0  0  0  0  0  0  0
  138.2130   72.6140  221.0060 C   0  0  0  0  0  0  0  0  0  0  0  0
  138.5750   72.2470  222.3620 N   0  0  0  0  0  0  0  0  0  0  0  0
  139.6280   71.3160  222.5670 C   0  0  0  0  0  0  0  0  0  0  0  0
  140.2380   70.8190  221.5740 O   0  0  0  0  0  0  0  0  0  0  0  0
  139.9880   70.9510  223.9340 C   0  0  0  0  0  0  0  0  0  0  0  0
  140.7060   71.8640  224.6990 C   0  0  0  0  0  0  0  0  0  0  0  0
  141.0710   71.5680  225.9970 C   0  0  0  0  0  0  0  0  0  0  0  0
  140.7220   70.3540  226.5460 C   0  0  0  0  0  0  0  0  0  0  0  0
  141.0940   70.0720  227.8460 C   0  0  0  0  0  0  0  0  0  0  0  0
  140.7270   68.8450  228.3620 C   0  0  0  0  0  0  0  0  0  0  0  0
  140.0140   67.9320  227.6090 C   0  0  0  0  0  0  0  0  0  0  0  0
  139.6430   68.2310  226.2940 C   0  0  0  0  0  0  0  0  0  0  0  0
  140.0080   69.4640  225.7640 C   0  0  0  0  0  0  0  0  0  0  0  0
  139.6570   69.7690  224.4900 N   0  0  0  0  0  0  0  0  0  0  0  0
  142.8170   73.9000  220.4910 C   0  0  0  0  0  0  0  0  0  0  0  0
  142.9450   72.5300  220.7010 C   0  0  0  0  0  0  0  0  0  0  0  0
  144.2090   71.9880  220.8240 C   0  0  0  0  0  0  0  0  0  0  0  0
  145.3540   72.7610  220.7460 C   0  0  0  0  0  0  0  0  0  0  0  0
  145.2340   74.1230  220.5380 C   0  0  0  0  0  0  0  0  0  0  0  0
  143.9610   74.6470  220.4170 C   0  0  0  0  0  0  0  0  0  0  0  0
  139.2711   76.7053  223.3568 H   0  0  0  0  0  0  0  0  0  0  0  0
  139.8727   77.3725  221.8013 H   0  0  0  0  0  0  0  0  0  0  0  0
  138.6401   76.0659  221.8013 H   0  0  0  0  0  0  0  0  0  0  0  0
  140.9596   76.5743  220.5971 H   0  0  0  0  0  0  0  0  0  0  0  0
  142.3734   76.0470  221.5644 H   0  0  0  0  0  0  0  0  0  0  0  0
  141.2823   74.6925  219.2975 H   0  0  0  0  0  0  0  0  0  0  0  0
  140.8440   72.9130  221.6820 H   0  0  0  0  0  0  0  0  0  0  0  0
  137.2172   73.0811  221.0165 H   0  0  0  0  0  0  0  0  0  0  0  0
  138.2128   71.7018  220.3913 H   0  0  0  0  0  0  0  0  0  0  0  0
  138.0620   72.6670  223.1790 H   0  0  0  0  0  0  0  0  0  0  0  0
  140.9867   72.8346  224.2641 H   0  0  0  0  0  0  0  0  0  0  0  0
  141.6388   72.2994  226.5909 H   0  0  0  0  0  0  0  0  0  0  0  0
  141.6612   70.7976  228.4475 H   0  0  0  0  0  0  0  0  0  0  0  0
  141.0082   68.5890  229.3942 H   0  0  0  0  0  0  0  0  0  0  0  0
  139.7359   66.9621  228.0472 H   0  0  0  0  0  0  0  0  0  0  0  0
  139.0748   67.5066  225.6920 H   0  0  0  0  0  0  0  0  0  0  0  0
  142.0534   71.8893  220.7679 H   0  0  0  0  0  0  0  0  0  0  0  0
  144.3091   70.9052  220.9896 H   0  0  0  0  0  0  0  0  0  0  0  0
  146.3467   72.2983  220.8481 H   0  0  0  0  0  0  0  0  0  0  0  0
  146.1226   74.7680  220.4711 H   0  0  0  0  0  0  0  0  0  0  0  0
  143.8614   75.7299  220.2512 H   0  0  0  0  0  0  0  0  0  0  0  0
  1  2  1  0
  2  3  1  0
  3  4  1  0
  4  5  1  0
  5  6  1  0
  6  7  2  0
  6  8  1  0
  8  9  1  0
  9 10  1  0
 10 11  2  0
 10 12  1  0
 12 13  2  0
 13 14  1  0
 14 15  2  0
 15 16  1  0
 16 17  2  0
 17 18  1  0
 18 19  2  0
 19 20  1  0
 20 21  2  0
  4 22  1  0
 22 23  2  0
 23 24  1  0
 24 25  2  0
 25 26  1  0
 26 27  2  0
 21 12  1  0
 27 22  1  0
 20 15  1  0
  1 28  1  0
  1 29  1  0
  1 30  1  0
  3 31  1  0
  3 32  1  0
  4 33  1  6
  5 34  1  0
  8 35  1  0
  8 36  1  0
  9 37  1  0
 13 38  1  0
 14 39  1  0
 16 40  1  0
 17 41  1  0
 18 42  1  0
 19 43  1  0
 23 44  1  0
 24 45  1  0
 25 46  1  0
 26 47  1  0
 27 48  1  0
M  END
>  <smiles>  (14) 
COC[C@H](NC(=O)CNC(=O)c1ccc2ccccc2n1)c1ccccc1

>  <score_type>  (14) 
oracle

>  <origin>  (14) 
autodockgpu

>  <m_score__min__energy>  (14) 
-8.1999999999999993

>  <m_primary>  (14) 
energy

>  <rmsd>  (14) 
6.183286002615969

>  <m_score__min__rmsd>  (14) 
6.183286002615969

>  <meeko>  (14) 
{"free_energy": -7.42, "intermolecular_energy": -9.51, "internal_energy": -2.52, "cluster_size": 10, "cluster_id": 6, "rank_in_cluster": 1}

>  <energy>  (14) 
-7.17

>  <cluster_rmsd>  (14) 
1.24

>  <cluster>  (14) 
2

$$$$

     RDKit          3D

 48 50  0  0  0  0  0  0  0  0999 V2000
  135.1490   74.3540  224.5340 C   0  0  0  0  0  0  0  0  0  0  0  0
  136.1390   74.3970  223.5700 O   0  0  0  0  0  0  0  0  0  0  0  0
  136.5840   75.7150  223.4290 C   0  0  0  0  0  0  0  0  0  0  0  0
  137.4630   75.8130  222.1750 C   0  0  2  0  0  0  0  0  0  0  0  0
  137.9420   74.4630  221.9180 N   0  0  0  0  0  0  0  0  0  0  0  0
  138.2110   74.0980  220.5770 C   0  0  0  0  0  0  0  0  0  0  0  0
  138.0340   74.9330  219.6360 O   0  0  0  0  0  0  0  0  0  0  0  0
  138.7000   72.7140  220.3270 C   0  0  0  0  0  0  0  0  0  0  0  0
  138.7320   71.9310  221.5480 N   0  0  0  0  0  0  0  0  0  0  0  0
  139.6490   72.2890  222.5730 C   0  0  0  0  0  0  0  0  0  0  0  0
  140.4230   73.2800  222.4150 O   0  0  0  0  0  0  0  0  0  0  0  0
  139.6770   71.4970  223.7990 C   0  0  0  0  0  0  0  0  0  0  0  0
  138.9670   70.3020  223.8350 C   0  0  0  0  0  0  0  0  0  0  0  0
  138.9610   69.5160  224.9700 C   0  0  0  0  0  0  0  0  0  0  0  0
  139.6650   69.9180  226.0840 C   0  0  0  0  0  0  0  0  0  0  0  0
  139.6490   69.1210  227.2130 C   0  0  0  0  0  0  0  0  0  0  0  0
  140.3670   69.5550  228.3100 C   0  0  0  0  0  0  0  0  0  0  0  0
  141.0740   70.7420  228.2820 C   0  0  0  0  0  0  0  0  0  0  0  0
  141.0820   71.5390  227.1330 C   0  0  0  0  0  0  0  0  0  0  0  0
  140.3630   71.1100  226.0220 C   0  0  0  0  0  0  0  0  0  0  0  0
  140.3590   71.8720  224.8990 N   0  0  0  0  0  0  0  0  0  0  0  0
  138.6220   76.6750  222.4440 C   0  0  0  0  0  0  0  0  0  0  0  0
  139.9040   76.1410  222.3440 C   0  0  0  0  0  0  0  0  0  0  0  0
  140.9890   76.9550  222.5980 C   0  0  0  0  0  0  0  0  0  0  0  0
  140.8470   78.2860  222.9500 C   0  0  0  0  0  0  0  0  0  0  0  0
  139.5760   78.8240  223.0530 C   0  0  0  0  0  0  0  0  0  0  0  0
  138.5030   77.9930  222.7940 C   0  0  0  0  0  0  0  0  0  0  0  0
  135.6089   74.3740  225.5330 H   0  0  0  0  0  0  0  0  0  0  0  0
  134.4862   75.2242  224.4180 H   0  0  0  0  0  0  0  0  0  0  0  0
  134.5642   73.4296  224.4180 H   0  0  0  0  0  0  0  0  0  0  0  0
  135.7194   76.3874  223.3271 H   0  0  0  0  0  0  0  0  0  0  0  0
  137.1661   76.0080  224.3152 H   0  0  0  0  0  0  0  0  0  0  0  0
  136.9012   76.2301  221.3262 H   0  0  0  0  0  0  0  0  0  0  0  0
  138.0640   73.8310  222.7400 H   0  0  0  0  0  0  0  0  0  0  0  0
  138.0300   72.2234  219.6056 H   0  0  0  0  0  0  0  0  0  0  0  0
  139.7244   72.7769  219.9312 H   0  0  0  0  0  0  0  0  0  0  0  0
  138.0850   71.1110  221.6680 H   0  0  0  0  0  0  0  0  0  0  0  0
  138.4028   69.9787  222.9478 H   0  0  0  0  0  0  0  0  0  0  0  0
  138.3962   68.5722  224.9848 H   0  0  0  0  0  0  0  0  0  0  0  0
  139.0856   68.1765  227.2369 H   0  0  0  0  0  0  0  0  0  0  0  0
  140.3763   68.9436  229.2244 H   0  0  0  0  0  0  0  0  0  0  0  0
  141.6357   71.0629  229.1717 H   0  0  0  0  0  0  0  0  0  0  0  0
  141.6443   72.4841  227.1082 H   0  0  0  0  0  0  0  0  0  0  0  0
  140.0497   75.0865  222.0668 H   0  0  0  0  0  0  0  0  0  0  0  0
  142.0011   76.5316  222.5180 H   0  0  0  0  0  0  0  0  0  0  0  0
  141.7329   78.9082  223.1454 H   0  0  0  0  0  0  0  0  0  0  0  0
  139.4252   79.8774  223.3316 H   0  0  0  0  0  0  0  0  0  0  0  0
  137.4910   78.4165  222.8740 H   0  0  0  0  0  0  0  0  0  0  0  0
  1  2  1  0
  2  3  1  0
  3  4  1  0
  4  5  1  0
  5  6  1  0
  6  7  2  0
  6  8  1  0
  8  9  1  0
  9 10  1  0
 10 11  2  0
 10 12  1  0
 12 13  2  0
 13 14  1  0
 14 15  2  0
 15 16  1  0
 16 17  2  0
 17 18  1  0
 18 19  2  0
 19 20  1  0
 20 21  2  0
  4 22  1  0
 22 23  2  0
 23 24  1  0
 24 25  2  0
 25 26  1  0
 26 27  2  0
 21 12  1  0
 27 22  1  0
 20 15  1  0
  1 28  1  0
  1 29  1  0
  1 30  1  0
  3 31  1  0
  3 32  1  0
  4 33  1  6
  5 34  1  0
  8 35  1  0
  8 36  1  0
  9 37  1  0
 13 38  1  0
 14 39  1  0
 16 40  1  0
 17 41  1  0
 18 42  1  0
 19 43  1  0
 23 44  1  0
 24 45  1  0
 25 46  1  0
 26 47  1  0
 27 48  1  0
M  END
>  <smiles>  (15) 
COC[C@H](NC(=O)CNC(=O)c1ccc2ccccc2n1)c1ccccc1

>  <score_type>  (15) 
oracle

>  <origin>  (15) 
autodockgpu

>  <m_score__min__energy>  (15) 
-8.1999999999999993

>  <m_primary>  (15) 
energy

>  <rmsd>  (15) 
5.0603123904719745

>  <m_score__min__rmsd>  (15) 
5.0603123904719745

>  <meeko>  (15) 
{"free_energy": -7.29, "intermolecular_energy": -9.38, "internal_energy": -2.54, "cluster_size": 12, "cluster_id": 2, "rank_in_cluster": 11}

>  <energy>  (15) 
-7.91

>  <cluster_rmsd>  (15) 
0.0

>  <cluster>  (15) 
3

$$$$

     RDKit          3D

 48 50  0  0  0  0  0  0  0  0999 V2000
  144.2180   71.6330  219.8600 C   0  0  0  0  0  0  0  0  0  0  0  0
  143.9010   72.5480  220.8460 O   0  0  0  0  0  0  0  0  0  0  0  0
  144.4470   73.7910  220.5110 C   0  0  0  0  0  0  0  0  0  0  0  0
  143.3210   74.8320  220.4580 C   0  0  2  0  0  0  0  0  0  0  0  0
  142.0800   74.0850  220.6020 N   0  0  0  0  0  0  0  0  0  0  0  0
  140.8920   74.8120  220.8500 C   0  0  0  0  0  0  0  0  0  0  0  0
  140.9210   76.0780  220.9440 O   0  0  0  0  0  0  0  0  0  0  0  0
  139.6300   74.0360  220.9940 C   0  0  0  0  0  0  0  0  0  0  0  0
  139.5810   73.3270  222.2590 N   0  0  0  0  0  0  0  0  0  0  0  0
  140.2200   72.0620  222.3660 C   0  0  0  0  0  0  0  0  0  0  0  0
  140.8230   71.5690  221.3670 O   0  0  0  0  0  0  0  0  0  0  0  0
  140.1670   71.3540  223.6420 C   0  0  0  0  0  0  0  0  0  0  0  0
  139.6080   70.0810  223.6730 C   0  0  0  0  0  0  0  0  0  0  0  0
  139.5330   69.3690  224.8530 C   0  0  0  0  0  0  0  0  0  0  0  0
  140.0180   69.9230  226.0180 C   0  0  0  0  0  0  0  0  0  0  0  0
  139.9370   69.1990  227.1910 C   0  0  0  0  0  0  0  0  0  0  0  0
  140.4330   69.7850  228.3390 C   0  0  0  0  0  0  0  0  0  0  0  0
  140.9900   71.0500  228.3160 C   0  0  0  0  0  0  0  0  0  0  0  0
  141.0660   71.7720  227.1210 C   0  0  0  0  0  0  0  0  0  0  0  0
  140.5700   71.1900  225.9600 C   0  0  0  0  0  0  0  0  0  0  0  0
  140.6350   71.8770  224.7920 N   0  0  0  0  0  0  0  0  0  0  0  0
  143.3170   75.4960  219.1480 C   0  0  0  0  0  0  0  0  0  0  0  0
  142.9530   76.8380  219.0680 C   0  0  0  0  0  0  0  0  0  0  0  0
  142.9500   77.4560  217.8340 C   0  0  0  0  0  0  0  0  0  0  0  0
  143.2960   76.7890  216.6720 C   0  0  0  0  0  0  0  0  0  0  0  0
  143.6580   75.4560  216.7440 C   0  0  0  0  0  0  0  0  0  0  0  0
  143.6550   74.8540  217.9870 C   0  0  0  0  0  0  0  0  0  0  0  0
  144.5443   70.6911  220.3251 H   0  0  0  0  0  0  0  0  0  0  0  0
  143.3323   71.4458  219.2351 H   0  0  0  0  0  0  0  0  0  0  0  0
  145.0297   72.0338  219.2351 H   0  0  0  0  0  0  0  0  0  0  0  0
  145.1866   74.0858  221.2700 H   0  0  0  0  0  0  0  0  0  0  0  0
  144.9420   73.7280  219.5307 H   0  0  0  0  0  0  0  0  0  0  0  0
  143.4463   75.5949  221.2405 H   0  0  0  0  0  0  0  0  0  0  0  0
  142.1320   73.0460  220.5120 H   0  0  0  0  0  0  0  0  0  0  0  0
  138.7769   74.7283  220.9394 H   0  0  0  0  0  0  0  0  0  0  0  0
  139.5869   73.2951  220.1821 H   0  0  0  0  0  0  0  0  0  0  0  0
  139.0780   73.7460  223.0820 H   0  0  0  0  0  0  0  0  0  0  0  0
  139.2205   69.6357  222.7448 H   0  0  0  0  0  0  0  0  0  0  0  0
  139.0878   68.3632  224.8635 H   0  0  0  0  0  0  0  0  0  0  0  0
  139.4937   68.1925  227.2104 H   0  0  0  0  0  0  0  0  0  0  0  0
  140.3839   69.2345  229.2901 H   0  0  0  0  0  0  0  0  0  0  0  0
  141.3768   71.4924  229.2459 H   0  0  0  0  0  0  0  0  0  0  0  0
  141.5087   72.7788  227.1000 H   0  0  0  0  0  0  0  0  0  0  0  0
  142.6725   77.3961  219.9734 H   0  0  0  0  0  0  0  0  0  0  0  0
  142.6625   78.5159  217.7720 H   0  0  0  0  0  0  0  0  0  0  0  0
  143.2833   77.3118  215.7042 H   0  0  0  0  0  0  0  0  0  0  0  0
  143.9390   74.8940  215.8411 H   0  0  0  0  0  0  0  0  0  0  0  0
  143.9417   73.7938  218.0479 H   0  0  0  0  0  0  0  0  0  0  0  0
  1  2  1  0
  2  3  1  0
  3  4  1  0
  4  5  1  0
  5  6  1  0
  6  7  2  0
  6  8  1  0
  8  9  1  0
  9 10  1  0
 10 11  2  0
 10 12  1  0
 12 13  2  0
 13 14  1  0
 14 15  2  0
 15 16  1  0
 16 17  2  0
 17 18  1  0
 18 19  2  0
 19 20  1  0
 20 21  2  0
  4 22  1  0
 22 23  2  0
 23 24  1  0
 24 25  2  0
 25 26  1  0
 26 27  2  0
 21 12  1  0
 27 22  1  0
 20 15  1  0
  1 28  1  0
  1 29  1  0
  1 30  1  0
  3 31  1  0
  3 32  1  0
  4 33  1  1
  5 34  1  0
  8 35  1  0
  8 36  1  0
  9 37  1  0
 13 38  1  0
 14 39  1  0
 16 40  1  0
 17 41  1  0
 18 42  1  0
 19 43  1  0
 23 44  1  0
 24 45  1  0
 25 46  1  0
 26 47  1  0
 27 48  1  0
M  END
>  <smiles>  (16) 
COC[C@H](NC(=O)CNC(=O)c1ccc2ccccc2n1)c1ccccc1

>  <score_type>  (16) 
oracle

>  <origin>  (16) 
autodockgpu

>  <m_score__min__energy>  (16) 
-8.1999999999999993

>  <m_primary>  (16) 
energy

>  <rmsd>  (16) 
5.589980975172688

>  <m_score__min__rmsd>  (16) 
5.589980975172688

>  <meeko>  (16) 
{"free_energy": -7.06, "intermolecular_energy": -9.15, "internal_energy": -2.89, "cluster_size": 17, "cluster_id": 7, "rank_in_cluster": 14}

>  <energy>  (16) 
-7.66

>  <cluster_rmsd>  (16) 
0.64

>  <cluster>  (16) 
3

$$$$

     RDKit          3D

 48 50  0  0  0  0  0  0  0  0999 V2000
  140.3640   71.5910  228.3260 C   0  0  0  0  0  0  0  0  0  0  0  0
  140.3450   72.1930  227.0810 O   0  0  0  0  0  0  0  0  0  0  0  0
  141.5120   71.8530  226.3900 C   0  0  0  0  0  0  0  0  0  0  0  0
  141.1370   71.0160  225.1600 C   0  0  2  0  0  0  0  0  0  0  0  0
  140.1120   71.7760  224.4580 N   0  0  0  0  0  0  0  0  0  0  0  0
  140.2000   71.8630  223.0480 C   0  0  0  0  0  0  0  0  0  0  0  0
  141.1490   71.2920  222.4270 O   0  0  0  0  0  0  0  0  0  0  0  0
  139.1460   72.6420  222.3430 C   0  0  0  0  0  0  0  0  0  0  0  0
  139.4520   74.0600  222.3250 N   0  0  0  0  0  0  0  0  0  0  0  0
  140.5870   74.5120  221.5990 C   0  0  0  0  0  0  0  0  0  0  0  0
  141.3150   73.6820  220.9780 O   0  0  0  0  0  0  0  0  0  0  0  0
  140.8890   75.9400  221.5850 C   0  0  0  0  0  0  0  0  0  0  0  0
  141.0500   76.5730  220.3580 C   0  0  0  0  0  0  0  0  0  0  0  0
  141.3380   77.9220  220.2890 C   0  0  0  0  0  0  0  0  0  0  0  0
  141.4670   78.6530  221.4500 C   0  0  0  0  0  0  0  0  0  0  0  0
  141.7550   80.0020  221.3650 C   0  0  0  0  0  0  0  0  0  0  0  0
  141.8770   80.7030  222.5490 C   0  0  0  0  0  0  0  0  0  0  0  0
  141.7190   80.0810  223.7720 C   0  0  0  0  0  0  0  0  0  0  0  0
  141.4270   78.7140  223.8430 C   0  0  0  0  0  0  0  0  0  0  0  0
  141.3020   78.0000  222.6570 C   0  0  0  0  0  0  0  0  0  0  0  0
  141.0200   76.6730  222.7080 N   0  0  0  0  0  0  0  0  0  0  0  0
  140.5580   69.7350  225.5860 C   0  0  0  0  0  0  0  0  0  0  0  0
  141.3470   68.8370  226.2990 C   0  0  0  0  0  0  0  0  0  0  0  0
  140.7970   67.6340  226.6970 C   0  0  0  0  0  0  0  0  0  0  0  0
  139.4880   67.2900  226.4100 C   0  0  0  0  0  0  0  0  0  0  0  0
  138.6980   68.1780  225.7010 C   0  0  0  0  0  0  0  0  0  0  0  0
  139.2650   69.3760  225.3130 C   0  0  0  0  0  0  0  0  0  0  0  0
  140.3396   72.3645  229.1077 H   0  0  0  0  0  0  0  0  0  0  0  0
  139.4861   70.9365  228.4303 H   0  0  0  0  0  0  0  0  0  0  0  0
  141.2815   70.9932  228.4303 H   0  0  0  0  0  0  0  0  0  0  0  0
  142.0308   72.7684  226.0692 H   0  0  0  0  0  0  0  0  0  0  0  0
  142.1773   71.2727  227.0462 H   0  0  0  0  0  0  0  0  0  0  0  0
  142.0170   70.8147  224.5315 H   0  0  0  0  0  0  0  0  0  0  0  0
  139.3620   72.2170  225.0340 H   0  0  0  0  0  0  0  0  0  0  0  0
  139.0677   72.2805  221.3070 H   0  0  0  0  0  0  0  0  0  0  0  0
  138.1968   72.5017  222.8808 H   0  0  0  0  0  0  0  0  0  0  0  0
  138.8400   74.7400  222.8440 H   0  0  0  0  0  0  0  0  0  0  0  0
  140.9467   75.9919  219.4298 H   0  0  0  0  0  0  0  0  0  0  0  0
  141.4638   78.4107  219.3116 H   0  0  0  0  0  0  0  0  0  0  0  0
  141.8822   80.4985  220.3917 H   0  0  0  0  0  0  0  0  0  0  0  0
  142.1047   81.7787  222.5171 H   0  0  0  0  0  0  0  0  0  0  0  0
  141.8235   80.6650  224.6983 H   0  0  0  0  0  0  0  0  0  0  0  0
  141.2993   78.2159  224.8154 H   0  0  0  0  0  0  0  0  0  0  0  0
  142.3917   69.0813  226.5416 H   0  0  0  0  0  0  0  0  0  0  0  0
  141.4210   66.9254  227.2614 H   0  0  0  0  0  0  0  0  0  0  0  0
  139.0805   66.3234  226.7410 H   0  0  0  0  0  0  0  0  0  0  0  0
  137.6532   67.9376  225.4547 H   0  0  0  0  0  0  0  0  0  0  0  0
  138.6399   70.0850  224.7504 H   0  0  0  0  0  0  0  0  0  0  0  0
  1  2  1  0
  2  3  1  0
  3  4  1  0
  4  5  1  0
  5  6  1  0
  6  7  2  0
  6  8  1  0
  8  9  1  0
  9 10  1  0
 10 11  2  0
 10 12  1  0
 12 13  2  0
 13 14  1  0
 14 15  2  0
 15 16  1  0
 16 17  2  0
 17 18  1  0
 18 19  2  0
 19 20  1  0
 20 21  2  0
  4 22  1  0
 22 23  2  0
 23 24  1  0
 24 25  2  0
 25 26  1  0
 26 27  2  0
 21 12  1  0
 27 22  1  0
 20 15  1  0
  1 28  1  0
  1 29  1  0
  1 30  1  0
  3 31  1  0
  3 32  1  0
  4 33  1  6
  5 34  1  0
  8 35  1  0
  8 36  1  0
  9 37  1  0
 13 38  1  0
 14 39  1  0
 16 40  1  0
 17 41  1  0
 18 42  1  0
 19 43  1  0
 23 44  1  0
 24 45  1  0
 25 46  1  0
 26 47  1  0
 27 48  1  0
M  END
>  <smiles>  (17) 
COC[C@H](NC(=O)CNC(=O)c1ccc2ccccc2n1)c1ccccc1

>  <score_type>  (17) 
oracle

>  <origin>  (17) 
autodockgpu

>  <m_score__min__energy>  (17) 
-8.1999999999999993

>  <m_primary>  (17) 
energy

>  <rmsd>  (17) 
10.361490579630008

>  <m_score__min__rmsd>  (17) 
10.361490579630008

>  <meeko>  (17) 
{"free_energy": -8.15, "intermolecular_energy": -10.24, "internal_energy": -1.97, "cluster_size": 2, "cluster_id": 1, "rank_in_cluster": 2}

>  <energy>  (17) 
-6.98

>  <cluster_rmsd>  (17) 
1.16

>  <cluster>  (17) 
3

$$$$

     RDKit          3D

 48 50  0  0  0  0  0  0  0  0999 V2000
  139.4810   76.5790  222.3440 C   0  0  0  0  0  0  0  0  0  0  0  0
  140.4800   75.6230  222.3850 O   0  0  0  0  0  0  0  0  0  0  0  0
  141.3150   75.7850  221.2750 C   0  0  0  0  0  0  0  0  0  0  0  0
  141.2860   74.5000  220.4380 C   0  0  2  0  0  0  0  0  0  0  0  0
  140.2810   73.6460  221.0540 N   0  0  0  0  0  0  0  0  0  0  0  0
  138.9960   73.5980  220.4610 C   0  0  0  0  0  0  0  0  0  0  0  0
  138.7420   74.2850  219.4230 O   0  0  0  0  0  0  0  0  0  0  0  0
  137.9780   72.7200  221.1000 C   0  0  0  0  0  0  0  0  0  0  0  0
  138.3770   72.3270  222.4380 N   0  0  0  0  0  0  0  0  0  0  0  0
  139.4610   71.4220  222.5970 C   0  0  0  0  0  0  0  0  0  0  0  0
  140.0660   70.9710  221.5790 O   0  0  0  0  0  0  0  0  0  0  0  0
  139.8580   71.0300  223.9460 C   0  0  0  0  0  0  0  0  0  0  0  0
  140.6670   71.8910  224.6780 C   0  0  0  0  0  0  0  0  0  0  0  0
  141.0700   71.5670  225.9580 C   0  0  0  0  0  0  0  0  0  0  0  0
  140.6680   70.3760  226.5210 C   0  0  0  0  0  0  0  0  0  0  0  0
  141.0800   70.0660  227.8030 C   0  0  0  0  0  0  0  0  0  0  0  0
  140.6570   68.8630  228.3340 C   0  0  0  0  0  0  0  0  0  0  0  0
  139.8530   68.0010  227.6140 C   0  0  0  0  0  0  0  0  0  0  0  0
  139.4430   68.3290  226.3160 C   0  0  0  0  0  0  0  0  0  0  0  0
  139.8630   69.5370  225.7720 C   0  0  0  0  0  0  0  0  0  0  0  0
  139.4750   69.8690  224.5150 N   0  0  0  0  0  0  0  0  0  0  0  0
  142.5870   73.8210  220.5190 C   0  0  0  0  0  0  0  0  0  0  0  0
  143.7530   74.5800  220.4690 C   0  0  0  0  0  0  0  0  0  0  0  0
  144.9720   73.9370  220.5450 C   0  0  0  0  0  0  0  0  0  0  0  0
  145.0760   72.5630  220.6680 C   0  0  0  0  0  0  0  0  0  0  0  0
  143.9210   71.8020  220.7180 C   0  0  0  0  0  0  0  0  0  0  0  0
  142.7110   72.4630  220.6410 C   0  0  0  0  0  0  0  0  0  0  0  0
  139.1940   76.8536  223.3698 H   0  0  0  0  0  0  0  0  0  0  0  0
  139.8483   77.4707  221.8148 H   0  0  0  0  0  0  0  0  0  0  0  0
  138.6063   76.1729  221.8148 H   0  0  0  0  0  0  0  0  0  0  0  0
  140.9601   76.6298  220.6665 H   0  0  0  0  0  0  0  0  0  0  0  0
  142.3431   75.9883  221.6092 H   0  0  0  0  0  0  0  0  0  0  0  0
  141.0657   74.7174  219.3824 H   0  0  0  0  0  0  0  0  0  0  0  0
  140.5610   73.1090  221.9040 H   0  0  0  0  0  0  0  0  0  0  0  0
  137.0232   73.2633  221.1572 H   0  0  0  0  0  0  0  0  0  0  0  0
  137.8761   71.8104  220.4899 H   0  0  0  0  0  0  0  0  0  0  0  0
  137.8680   72.7070  223.2760 H   0  0  0  0  0  0  0  0  0  0  0  0
  140.9904   72.8429  224.2316 H   0  0  0  0  0  0  0  0  0  0  0  0
  141.7101   72.2578  226.5264 H   0  0  0  0  0  0  0  0  0  0  0  0
  141.7202   70.7508  228.3785 H   0  0  0  0  0  0  0  0  0  0  0  0
  140.9671   68.5855  229.3522 H   0  0  0  0  0  0  0  0  0  0  0  0
  139.5324   67.0497  228.0637 H   0  0  0  0  0  0  0  0  0  0  0  0
  138.8024   67.6455  225.7394 H   0  0  0  0  0  0  0  0  0  0  0  0
  143.7036   75.6745  220.3705 H   0  0  0  0  0  0  0  0  0  0  0  0
  145.8926   74.5379  220.5064 H   0  0  0  0  0  0  0  0  0  0  0  0
  146.0635   72.0817  220.7253 H   0  0  0  0  0  0  0  0  0  0  0  0
  143.9654   70.7073  220.8158 H   0  0  0  0  0  0  0  0  0  0  0  0
  141.7907   71.8618  220.6801 H   0  0  0  0  0  0  0  0  0  0  0  0
  1  2  1  0
  2  3  1  0
  3  4  1  0
  4  5  1  0
  5  6  1  0
  6  7  2  0
  6  8  1  0
  8  9  1  0
  9 10  1  0
 10 11  2  0
 10 12  1  0
 12 13  2  0
 13 14  1  0
 14 15  2  0
 15 16  1  0
 16 17  2  0
 17 18  1  0
 18 19  2  0
 19 20  1  0
 20 21  2  0
  4 22  1  0
 22 23  2  0
 23 24  1  0
 24 25  2  0
 25 26  1  0
 26 27  2  0
 21 12  1  0
 27 22  1  0
 20 15  1  0
  1 28  1  0
  1 29  1  0
  1 30  1  0
  3 31  1  0
  3 32  1  0
  4 33  1  6
  5 34  1  0
  8 35  1  0
  8 36  1  0
  9 37  1  0
 13 38  1  0
 14 39  1  0
 16 40  1  0
 17 41  1  0
 18 42  1  0
 19 43  1  0
 23 44  1  0
 24 45  1  0
 25 46  1  0
 26 47  1  0
 27 48  1  0
M  END
>  <smiles>  (18) 
COC[C@H](NC(=O)CNC(=O)c1ccc2ccccc2n1)c1ccccc1

>  <score_type>  (18) 
oracle

>  <origin>  (18) 
autodockgpu

>  <m_score__min__energy>  (18) 
-8.1999999999999993

>  <m_primary>  (18) 
energy

>  <rmsd>  (18) 
6.335782973564935

>  <m_score__min__rmsd>  (18) 
6.335782973564935

>  <meeko>  (18) 
{"free_energy": -7.21, "intermolecular_energy": -9.3, "internal_energy": -2.54, "cluster_size": 10, "cluster_id": 6, "rank_in_cluster": 2}

>  <energy>  (18) 
-6.92

>  <cluster_rmsd>  (18) 
1.07

>  <cluster>  (18) 
3

$$$$

     RDKit          3D

 48 50  0  0  0  0  0  0  0  0999 V2000
  135.6510   75.4230  223.2430 C   0  0  0  0  0  0  0  0  0  0  0  0
  136.9440   75.8240  223.5280 O   0  0  0  0  0  0  0  0  0  0  0  0
  137.1340   77.1280  223.0600 C   0  0  0  0  0  0  0  0  0  0  0  0
  138.3600   77.1530  222.1390 C   0  0  2  0  0  0  0  0  0  0  0  0
  138.8490   75.7830  222.0890 N   0  0  0  0  0  0  0  0  0  0  0  0
  139.3340   75.2960  220.8510 C   0  0  0  0  0  0  0  0  0  0  0  0
  139.3340   76.0410  219.8230 O   0  0  0  0  0  0  0  0  0  0  0  0
  139.8310   73.8930  220.8150 C   0  0  0  0  0  0  0  0  0  0  0  0
  139.6850   73.2410  222.1020 N   0  0  0  0  0  0  0  0  0  0  0  0
  140.3830   72.0270  222.3430 C   0  0  0  0  0  0  0  0  0  0  0  0
  141.1220   71.5290  221.4430 O   0  0  0  0  0  0  0  0  0  0  0  0
  140.2320   71.3760  223.6410 C   0  0  0  0  0  0  0  0  0  0  0  0
  139.5620   70.1590  223.7000 C   0  0  0  0  0  0  0  0  0  0  0  0
  139.3920   69.5010  224.9020 C   0  0  0  0  0  0  0  0  0  0  0  0
  139.8910   70.0550  226.0610 C   0  0  0  0  0  0  0  0  0  0  0  0
  139.7130   69.3870  227.2560 C   0  0  0  0  0  0  0  0  0  0  0  0
  140.2260   69.9720  228.3970 C   0  0  0  0  0  0  0  0  0  0  0  0
  140.8920   71.1810  228.3470 C   0  0  0  0  0  0  0  0  0  0  0  0
  141.0660   71.8470  227.1290 C   0  0  0  0  0  0  0  0  0  0  0  0
  140.5530   71.2660  225.9750 C   0  0  0  0  0  0  0  0  0  0  0  0
  140.7120   71.9000  224.7860 N   0  0  0  0  0  0  0  0  0  0  0  0
  139.4070   78.0020  222.7240 C   0  0  0  0  0  0  0  0  0  0  0  0
  140.7240   77.5500  222.7260 C   0  0  0  0  0  0  0  0  0  0  0  0
  141.7040   78.3520  223.2780 C   0  0  0  0  0  0  0  0  0  0  0  0
  141.4220   79.5880  223.8300 C   0  0  0  0  0  0  0  0  0  0  0  0
  140.1150   80.0430  223.8320 C   0  0  0  0  0  0  0  0  0  0  0  0
  139.1490   79.2280  223.2750 C   0  0  0  0  0  0  0  0  0  0  0  0
  135.1042   75.2534  224.1823 H   0  0  0  0  0  0  0  0  0  0  0  0
  135.1443   76.2062  222.6600 H   0  0  0  0  0  0  0  0  0  0  0  0
  135.6764   74.4905  222.6600 H   0  0  0  0  0  0  0  0  0  0  0  0
  136.2447   77.4521  222.4995 H   0  0  0  0  0  0  0  0  0  0  0  0
  137.2927   77.8088  223.9093 H   0  0  0  0  0  0  0  0  0  0  0  0
  138.1030   77.5449  221.1439 H   0  0  0  0  0  0  0  0  0  0  0  0
  138.8190   75.2300  222.9730 H   0  0  0  0  0  0  0  0  0  0  0  0
  139.2580   73.3306  220.0631 H   0  0  0  0  0  0  0  0  0  0  0  0
  140.9007   73.9137  220.5596 H   0  0  0  0  0  0  0  0  0  0  0  0
  139.0700   73.6640  222.8420 H   0  0  0  0  0  0  0  0  0  0  0  0
  139.1620   69.7145  222.7767 H   0  0  0  0  0  0  0  0  0  0  0  0
  138.8604   68.5385  224.9343 H   0  0  0  0  0  0  0  0  0  0  0  0
  139.1822   68.4244  227.2978 H   0  0  0  0  0  0  0  0  0  0  0  0
  140.1017   69.4649  229.3652 H   0  0  0  0  0  0  0  0  0  0  0  0
  141.2889   71.6238  229.2724 H   0  0  0  0  0  0  0  0  0  0  0  0
  141.5971   72.8093  227.0855 H   0  0  0  0  0  0  0  0  0  0  0  0
  140.9798   76.5707  222.2952 H   0  0  0  0  0  0  0  0  0  0  0  0
  142.7445   77.9951  223.2784 H   0  0  0  0  0  0  0  0  0  0  0  0
  142.2262   80.2017  224.2620 H   0  0  0  0  0  0  0  0  0  0  0  0
  139.8542   81.0210  224.2628 H   0  0  0  0  0  0  0  0  0  0  0  0
  138.1089   79.5861  223.2742 H   0  0  0  0  0  0  0  0  0  0  0  0
  1  2  1  0
  2  3  1  0
  3  4  1  0
  4  5  1  0
  5  6  1  0
  6  7  2  0
  6  8  1  0
  8  9  1  0
  9 10  1  0
 10 11  2  0
 10 12  1  0
 12 13  2  0
 13 14  1  0
 14 15  2  0
 15 16  1  0
 16 17  2  0
 17 18  1  0
 18 19  2  0
 19 20  1  0
 20 21  2  0
  4 22  1  0
 22 23  2  0
 23 24  1  0
 24 25  2  0
 25 26  1  0
 26 27  2  0
 21 12  1  0
 27 22  1  0
 20 15  1  0
  1 28  1  0
  1 29  1  0
  1 30  1  0
  3 31  1  0
  3 32  1  0
  4 33  1  6
  5 34  1  0
  8 35  1  0
  8 36  1  0
  9 37  1  0
 13 38  1  0
 14 39  1  0
 16 40  1  0
 17 41  1  0
 18 42  1  0
 19 43  1  0
 23 44  1  0
 24 45  1  0
 25 46  1  0
 26 47  1  0
 27 48  1  0
M  END
>  <smiles>  (19) 
COC[C@H](NC(=O)CNC(=O)c1ccc2ccccc2n1)c1ccccc1

>  <score_type>  (19) 
oracle

>  <origin>  (19) 
autodockgpu

>  <m_score__min__energy>  (19) 
-8.1999999999999993

>  <m_primary>  (19) 
energy

>  <rmsd>  (19) 
4.556245129888003

>  <m_score__min__rmsd>  (19) 
4.556245129888003

>  <meeko>  (19) 
{"free_energy": -7.95, "intermolecular_energy": -10.04, "internal_energy": -2.12, "cluster_size": 12, "cluster_id": 2, "rank_in_cluster": 4}

>  <energy>  (19) 
-6.88

>  <cluster_rmsd>  (19) 
1.27

>  <cluster>  (19) 
3

$$$$

     RDKit          3D

 48 50  0  0  0  0  0  0  0  0999 V2000
  140.4310   79.4080  217.9580 C   0  0  0  0  0  0  0  0  0  0  0  0
  140.5640   78.1700  218.5590 O   0  0  0  0  0  0  0  0  0  0  0  0
  141.8490   78.0580  219.0980 C   0  0  0  0  0  0  0  0  0  0  0  0
  141.7570   77.3780  220.4700 C   0  0  2  0  0  0  0  0  0  0  0  0
  140.5360   76.5850  220.4410 N   0  0  0  0  0  0  0  0  0  0  0  0
  140.4780   75.4250  221.2500 C   0  0  0  0  0  0  0  0  0  0  0  0
  141.4680   75.0970  221.9740 O   0  0  0  0  0  0  0  0  0  0  0  0
  139.2240   74.6240  221.2110 C   0  0  0  0  0  0  0  0  0  0  0  0
  139.1540   73.6880  222.3170 N   0  0  0  0  0  0  0  0  0  0  0  0
  140.0450   72.5820  222.3430 C   0  0  0  0  0  0  0  0  0  0  0  0
  140.8880   72.4240  221.4100 O   0  0  0  0  0  0  0  0  0  0  0  0
  139.9690   71.6440  223.4590 C   0  0  0  0  0  0  0  0  0  0  0  0
  139.2880   70.4460  223.2750 C   0  0  0  0  0  0  0  0  0  0  0  0
  139.1860   69.5250  224.2980 C   0  0  0  0  0  0  0  0  0  0  0  0
  139.7670   69.7920  225.5190 C   0  0  0  0  0  0  0  0  0  0  0  0
  139.6570   68.8610  226.5330 C   0  0  0  0  0  0  0  0  0  0  0  0
  140.2510   69.1620  227.7430 C   0  0  0  0  0  0  0  0  0  0  0  0
  140.9300   70.3500  227.9340 C   0  0  0  0  0  0  0  0  0  0  0  0
  141.0340   71.2850  226.8970 C   0  0  0  0  0  0  0  0  0  0  0  0
  140.4390   70.9900  225.6750 C   0  0  0  0  0  0  0  0  0  0  0  0
  140.5300   71.8860  224.6600 N   0  0  0  0  0  0  0  0  0  0  0  0
  141.6270   78.3940  221.5230 C   0  0  0  0  0  0  0  0  0  0  0  0
  141.7920   79.7370  221.1950 C   0  0  0  0  0  0  0  0  0  0  0  0
  141.6700   80.6880  222.1890 C   0  0  0  0  0  0  0  0  0  0  0  0
  141.3900   80.3520  223.5010 C   0  0  0  0  0  0  0  0  0  0  0  0
  141.2250   79.0190  223.8350 C   0  0  0  0  0  0  0  0  0  0  0  0
  141.3500   78.0830  222.8270 C   0  0  0  0  0  0  0  0  0  0  0  0
  140.3476   80.1846  218.7326 H   0  0  0  0  0  0  0  0  0  0  0  0
  141.3128   79.6081  217.3316 H   0  0  0  0  0  0  0  0  0  0  0  0
  139.5268   79.4163  217.3316 H   0  0  0  0  0  0  0  0  0  0  0  0
  142.4786   77.4538  218.4283 H   0  0  0  0  0  0  0  0  0  0  0  0
  142.2947   79.0577  219.2076 H   0  0  0  0  0  0  0  0  0  0  0  0
  142.6505   76.7696  220.6735 H   0  0  0  0  0  0  0  0  0  0  0  0
  139.7630   76.9160  219.8230 H   0  0  0  0  0  0  0  0  0  0  0  0
  138.3628   75.3061  221.2655 H   0  0  0  0  0  0  0  0  0  0  0  0
  139.2114   74.0498  220.2728 H   0  0  0  0  0  0  0  0  0  0  0  0
  138.4500   73.8300  223.0850 H   0  0  0  0  0  0  0  0  0  0  0  0
  138.8244   70.2292  222.3013 H   0  0  0  0  0  0  0  0  0  0  0  0
  138.6431   68.5815  224.1394 H   0  0  0  0  0  0  0  0  0  0  0  0
  139.1164   67.9149  226.3826 H   0  0  0  0  0  0  0  0  0  0  0  0
  140.1821   68.4414  228.5712 H   0  0  0  0  0  0  0  0  0  0  0  0
  141.3927   70.5631  228.9089 H   0  0  0  0  0  0  0  0  0  0  0  0
  141.5742   72.2317  227.0455 H   0  0  0  0  0  0  0  0  0  0  0  0
  142.0160   80.0359  220.1604 H   0  0  0  0  0  0  0  0  0  0  0  0
  141.7999   81.7487  221.9283 H   0  0  0  0  0  0  0  0  0  0  0  0
  141.2996   81.1341  224.2692 H   0  0  0  0  0  0  0  0  0  0  0  0
  141.0018   78.7152  224.8684 H   0  0  0  0  0  0  0  0  0  0  0  0
  141.2189   77.0225  223.0881 H   0  0  0  0  0  0  0  0  0  0  0  0
  1  2  1  0
  2  3  1  0
  3  4  1  0
  4  5  1  0
  5  6  1  0
  6  7  2  0
  6  8  1  0
  8  9  1  0
  9 10  1  0
 10 11  2  0
 10 12  1  0
 12 13  2  0
 13 14  1  0
 14 15  2  0
 15 16  1  0
 16 17  2  0
 17 18  1  0
 18 19  2  0
 19 20  1  0
 20 21  2  0
  4 22  1  0
 22 23  2  0
 23 24  1  0
 24 25  2  0
 25 26  1  0
 26 27  2  0
 21 12  1  0
 27 22  1  0
 20 15  1  0
  1 28  1  0
  1 29  1  0
  1 30  1  0
  3 31  1  0
  3 32  1  0
  4 33  1  1
  5 34  1  0
  8 35  1  0
  8 36  1  0
  9 37  1  0
 13 38  1  0
 14 39  1  0
 16 40  1  0
 17 41  1  0
 18 42  1  0
 19 43  1  0
 23 44  1  0
 24 45  1  0
 25 46  1  0
 26 47  1  0
 27 48  1  0
M  END
>  <smiles>  (20) 
COC[C@H](NC(=O)CNC(=O)c1ccc2ccccc2n1)c1ccccc1

>  <score_type>  (20) 
oracle

>  <origin>  (20) 
autodockgpu

>  <m_score__min__energy>  (20) 
-8.1999999999999993

>  <m_primary>  (20) 
energy

>  <rmsd>  (20) 
4.136538280809995

>  <m_score__min__rmsd>  (20) 
4.136538280809995

>  <meeko>  (20) 
{"free_energy": -7.86, "intermolecular_energy": -9.95, "internal_energy": -1.98, "cluster_size": 12, "cluster_id": 2, "rank_in_cluster": 6}

>  <energy>  (20) 
-6.86

>  <cluster_rmsd>  (20) 
1.32

>  <cluster>  (20) 
3

$$$$

     RDKit          3D

 48 50  0  0  0  0  0  0  0  0999 V2000
  135.5770   75.5680  223.9470 C   0  0  0  0  0  0  0  0  0  0  0  0
  136.8740   75.7050  223.4850 O   0  0  0  0  0  0  0  0  0  0  0  0
  137.0760   77.0260  223.0720 C   0  0  0  0  0  0  0  0  0  0  0  0
  138.2990   77.0770  222.1480 C   0  0  2  0  0  0  0  0  0  0  0  0
  138.8220   75.7190  222.1030 N   0  0  0  0  0  0  0  0  0  0  0  0
  139.3000   75.2320  220.8630 C   0  0  0  0  0  0  0  0  0  0  0  0
  139.2670   75.9670  219.8280 O   0  0  0  0  0  0  0  0  0  0  0  0
  139.8320   73.8420  220.8310 C   0  0  0  0  0  0  0  0  0  0  0  0
  139.7910   73.2250  222.1430 N   0  0  0  0  0  0  0  0  0  0  0  0
  140.1490   71.8560  222.2730 C   0  0  0  0  0  0  0  0  0  0  0  0
  140.5000   71.1920  221.2530 O   0  0  0  0  0  0  0  0  0  0  0  0
  140.1060   71.2400  223.5960 C   0  0  0  0  0  0  0  0  0  0  0  0
  139.5300   69.9810  223.7250 C   0  0  0  0  0  0  0  0  0  0  0  0
  139.4640   69.3550  224.9540 C   0  0  0  0  0  0  0  0  0  0  0  0
  139.9740   69.9840  226.0690 C   0  0  0  0  0  0  0  0  0  0  0  0
  139.9000   69.3450  227.2920 C   0  0  0  0  0  0  0  0  0  0  0  0
  140.4200   70.0050  228.3880 C   0  0  0  0  0  0  0  0  0  0  0  0
  140.9940   71.2560  228.2680 C   0  0  0  0  0  0  0  0  0  0  0  0
  141.0620   71.8910  227.0240 C   0  0  0  0  0  0  0  0  0  0  0  0
  140.5410   71.2350  225.9140 C   0  0  0  0  0  0  0  0  0  0  0  0
  140.5980   71.8370  224.6990 N   0  0  0  0  0  0  0  0  0  0  0  0
  139.3270   77.9530  222.7260 C   0  0  0  0  0  0  0  0  0  0  0  0
  140.6560   77.5390  222.7170 C   0  0  0  0  0  0  0  0  0  0  0  0
  141.6170   78.3670  223.2620 C   0  0  0  0  0  0  0  0  0  0  0  0
  141.3050   79.5940  223.8200 C   0  0  0  0  0  0  0  0  0  0  0  0
  139.9850   80.0120  223.8330 C   0  0  0  0  0  0  0  0  0  0  0  0
  139.0380   79.1700  223.2820 C   0  0  0  0  0  0  0  0  0  0  0  0
  135.5777   75.5681  225.0470 H   0  0  0  0  0  0  0  0  0  0  0  0
  134.9667   76.4067  223.5807 H   0  0  0  0  0  0  0  0  0  0  0  0
  135.1554   74.6203  223.5807 H   0  0  0  0  0  0  0  0  0  0  0  0
  136.1882   77.3829  222.5293 H   0  0  0  0  0  0  0  0  0  0  0  0
  137.2447   77.6685  223.9487 H   0  0  0  0  0  0  0  0  0  0  0  0
  138.0291   77.4585  221.1522 H   0  0  0  0  0  0  0  0  0  0  0  0
  138.8180   75.1730  222.9930 H   0  0  0  0  0  0  0  0  0  0  0  0
  139.2252   73.2433  220.1357 H   0  0  0  0  0  0  0  0  0  0  0  0
  140.8809   73.8822  220.5020 H   0  0  0  0  0  0  0  0  0  0  0  0
  139.4980   73.7860  222.9830 H   0  0  0  0  0  0  0  0  0  0  0  0
  139.1216   69.4772  222.8365 H   0  0  0  0  0  0  0  0  0  0  0  0
  139.0064   68.3587  225.0426 H   0  0  0  0  0  0  0  0  0  0  0  0
  139.4442   68.3486  227.3889 H   0  0  0  0  0  0  0  0  0  0  0  0
  140.3763   69.5249  229.3767 H   0  0  0  0  0  0  0  0  0  0  0  0
  141.4011   71.7568  229.1588 H   0  0  0  0  0  0  0  0  0  0  0  0
  141.5175   72.8874  226.9256 H   0  0  0  0  0  0  0  0  0  0  0  0
  140.9360   76.5679  222.2827 H   0  0  0  0  0  0  0  0  0  0  0  0
  142.6672   78.0398  223.2522 H   0  0  0  0  0  0  0  0  0  0  0  0
  142.0950   80.2289  224.2476 H   0  0  0  0  0  0  0  0  0  0  0  0
  139.6999   80.9816  224.2673 H   0  0  0  0  0  0  0  0  0  0  0  0
  137.9880   79.4976  223.2907 H   0  0  0  0  0  0  0  0  0  0  0  0
  1  2  1  0
  2  3  1  0
  3  4  1  0
  4  5  1  0
  5  6  1  0
  6  7  2  0
  6  8  1  0
  8  9  1  0
  9 10  1  0
 10 11  2  0
 10 12  1  0
 12 13  2  0
 13 14  1  0
 14 15  2  0
 15 16  1  0
 16 17  2  0
 17 18  1  0
 18 19  2  0
 19 20  1  0
 20 21  2  0
  4 22  1  0
 22 23  2  0
 23 24  1  0
 24 25  2  0
 25 26  1  0
 26 27  2  0
 21 12  1  0
 27 22  1  0
 20 15  1  0
  1 28  1  0
  1 29  1  0
  1 30  1  0
  3 31  1  0
  3 32  1  0
  4 33  1  6
  5 34  1  0
  8 35  1  0
  8 36  1  0
  9 37  1  0
 13 38  1  0
 14 39  1  0
 16 40  1  0
 17 41  1  0
 18 42  1  0
 19 43  1  0
 23 44  1  0
 24 45  1  0
 25 46  1  0
 26 47  1  0
 27 48  1  0
M  END
>  <smiles>  (21) 
COC[C@H](NC(=O)CNC(=O)c1ccc2ccccc2n1)c1ccccc1

>  <score_type>  (21) 
oracle

>  <origin>  (21) 
autodockgpu

>  <m_score__min__energy>  (21) 
-8.1999999999999993

>  <m_primary>  (21) 
energy

>  <rmsd>  (21) 
4.586509901739767

>  <m_score__min__rmsd>  (21) 
4.586509901739767

>  <meeko>  (21) 
{"free_energy": -7.94, "intermolecular_energy": -10.03, "internal_energy": -2.13, "cluster_size": 12, "cluster_id": 2, "rank_in_cluster": 5}

>  <energy>  (21) 
-7.85

>  <cluster_rmsd>  (21) 
0.0

>  <cluster>  (21) 
4

$$$$

     RDKit          3D

 48 50  0  0  0  0  0  0  0  0999 V2000
  144.3980   71.7220  219.7230 C   0  0  0  0  0  0  0  0  0  0  0  0
  143.9010   72.6190  220.6510 O   0  0  0  0  0  0  0  0  0  0  0  0
  144.4550   73.8810  220.4120 C   0  0  0  0  0  0  0  0  0  0  0  0
  143.3370   74.9300  220.4420 C   0  0  2  0  0  0  0  0  0  0  0  0
  142.0910   74.1830  220.5400 N   0  0  0  0  0  0  0  0  0  0  0  0
  140.9310   74.8780  220.9560 C   0  0  0  0  0  0  0  0  0  0  0  0
  140.9880   76.1160  221.2350 O   0  0  0  0  0  0  0  0  0  0  0  0
  139.6640   74.1020  221.0510 C   0  0  0  0  0  0  0  0  0  0  0  0
  139.5840   73.3600  222.2950 N   0  0  0  0  0  0  0  0  0  0  0  0
  140.3130   72.1480  222.4240 C   0  0  0  0  0  0  0  0  0  0  0  0
  141.0220   71.7280  221.4610 O   0  0  0  0  0  0  0  0  0  0  0  0
  140.2280   71.4060  223.6780 C   0  0  0  0  0  0  0  0  0  0  0  0
  139.6410   70.1460  223.6680 C   0  0  0  0  0  0  0  0  0  0  0  0
  139.5350   69.4040  224.8270 C   0  0  0  0  0  0  0  0  0  0  0  0
  140.0180   69.9150  226.0120 C   0  0  0  0  0  0  0  0  0  0  0  0
  139.9050   69.1610  227.1640 C   0  0  0  0  0  0  0  0  0  0  0  0
  140.3990   69.7050  228.3330 C   0  0  0  0  0  0  0  0  0  0  0  0
  140.9840   70.9570  228.3530 C   0  0  0  0  0  0  0  0  0  0  0  0
  141.0920   71.7100  227.1780 C   0  0  0  0  0  0  0  0  0  0  0  0
  140.5970   71.1700  225.9960 C   0  0  0  0  0  0  0  0  0  0  0  0
  140.6930   71.8870  224.8480 N   0  0  0  0  0  0  0  0  0  0  0  0
  143.3290   75.6880  219.1840 C   0  0  0  0  0  0  0  0  0  0  0  0
  143.7030   75.0490  218.0040 C   0  0  0  0  0  0  0  0  0  0  0  0
  143.6940   75.7660  216.8250 C   0  0  0  0  0  0  0  0  0  0  0  0
  143.3270   77.0990  216.7730 C   0  0  0  0  0  0  0  0  0  0  0  0
  142.9560   77.7410  217.9420 C   0  0  0  0  0  0  0  0  0  0  0  0
  142.9700   77.0070  219.1120 C   0  0  0  0  0  0  0  0  0  0  0  0
  144.8670   70.8755  220.2460 H   0  0  0  0  0  0  0  0  0  0  0  0
  143.5755   71.3533  219.0925 H   0  0  0  0  0  0  0  0  0  0  0  0
  145.1468   72.2238  219.0925 H   0  0  0  0  0  0  0  0  0  0  0  0
  145.1978   74.1112  221.1900 H   0  0  0  0  0  0  0  0  0  0  0  0
  144.9478   73.8907  219.4286 H   0  0  0  0  0  0  0  0  0  0  0  0
  143.4733   75.6331  221.2769 H   0  0  0  0  0  0  0  0  0  0  0  0
  142.1190   73.1690  220.2940 H   0  0  0  0  0  0  0  0  0  0  0  0
  138.8141   74.7981  220.9953 H   0  0  0  0  0  0  0  0  0  0  0  0
  139.6380   73.3827  220.2192 H   0  0  0  0  0  0  0  0  0  0  0  0
  138.9930   73.7190  223.0870 H   0  0  0  0  0  0  0  0  0  0  0  0
  139.2557   69.7346  222.7234 H   0  0  0  0  0  0  0  0  0  0  0  0
  139.0669   68.4088  224.8048 H   0  0  0  0  0  0  0  0  0  0  0  0
  139.4390   68.1647  227.1505 H   0  0  0  0  0  0  0  0  0  0  0  0
  140.3254   69.1299  229.2678 H   0  0  0  0  0  0  0  0  0  0  0  0
  141.3677   71.3649  229.2997 H   0  0  0  0  0  0  0  0  0  0  0  0
  141.5579   72.7064  227.1894 H   0  0  0  0  0  0  0  0  0  0  0  0
  144.0007   73.9901  218.0119 H   0  0  0  0  0  0  0  0  0  0  0  0
  143.9889   75.2600  215.8939 H   0  0  0  0  0  0  0  0  0  0  0  0
  143.3300   77.6412  215.8159 H   0  0  0  0  0  0  0  0  0  0  0  0
  142.6599   78.8004  217.9392 H   0  0  0  0  0  0  0  0  0  0  0  0
  142.6746   77.5133  220.0428 H   0  0  0  0  0  0  0  0  0  0  0  0
  1  2  1  0
  2  3  1  0
  3  4  1  0
  4  5  1  0
  5  6  1  0
  6  7  2  0
  6  8  1  0
  8  9  1  0
  9 10  1  0
 10 11  2  0
 10 12  1  0
 12 13  2  0
 13 14  1  0
 14 15  2  0
 15 16  1  0
 16 17  2  0
 17 18  1  0
 18 19  2  0
 19 20  1  0
 20 21  2  0
  4 22  1  0
 22 23  2  0
 23 24  1  0
 24 25  2  0
 25 26  1  0
 26 27  2  0
 21 12  1  0
 27 22  1  0
 20 15  1  0
  1 28  1  0
  1 29  1  0
  1 30  1  0
  3 31  1  0
  3 32  1  0
  4 33  1  1
  5 34  1  0
  8 35  1  0
  8 36  1  0
  9 37  1  0
 13 38  1  0
 14 39  1  0
 16 40  1  0
 17 41  1  0
 18 42  1  0
 19 43  1  0
 23 44  1  0
 24 45  1  0
 25 46  1  0
 26 47  1  0
 27 48  1  0
M  END
>  <smiles>  (22) 
COC[C@H](NC(=O)CNC(=O)c1ccc2ccccc2n1)c1ccccc1

>  <score_type>  (22) 
oracle

>  <origin>  (22) 
autodockgpu

>  <m_score__min__energy>  (22) 
-8.1999999999999993

>  <m_primary>  (22) 
energy

>  <rmsd>  (22) 
5.471972741957241

>  <m_score__min__rmsd>  (22) 
5.471972741957241

>  <meeko>  (22) 
{"free_energy": -7.14, "intermolecular_energy": -9.22, "internal_energy": -2.88, "cluster_size": 17, "cluster_id": 7, "rank_in_cluster": 6}

>  <energy>  (22) 
-7.47

>  <cluster_rmsd>  (22) 
0.0

>  <cluster>  (22) 
5

$$$$

     RDKit          3D

 48 50  0  0  0  0  0  0  0  0999 V2000
  139.7730   72.9700  221.7270 C   0  0  0  0  0  0  0  0  0  0  0  0
  139.6460   72.5520  223.0390 O   0  0  0  0  0  0  0  0  0  0  0  0
  140.7100   71.7010  223.3540 C   0  0  0  0  0  0  0  0  0  0  0  0
  140.1690   70.4950  224.1330 C   0  0  2  0  0  0  0  0  0  0  0  0
  138.7300   70.4890  223.9110 N   0  0  0  0  0  0  0  0  0  0  0  0
  138.0250   69.2860  224.1550 C   0  0  0  0  0  0  0  0  0  0  0  0
  138.6410   68.2500  224.5540 O   0  0  0  0  0  0  0  0  0  0  0  0
  136.5550   69.2950  223.9230 C   0  0  0  0  0  0  0  0  0  0  0  0
  135.9130   70.4040  224.6030 N   0  0  0  0  0  0  0  0  0  0  0  0
  135.8530   71.6680  223.9560 C   0  0  0  0  0  0  0  0  0  0  0  0
  136.3530   71.8140  222.8010 O   0  0  0  0  0  0  0  0  0  0  0  0
  135.2060   72.7800  224.6450 C   0  0  0  0  0  0  0  0  0  0  0  0
  135.6090   74.0760  224.3410 C   0  0  0  0  0  0  0  0  0  0  0  0
  135.0300   75.1630  224.9640 C   0  0  0  0  0  0  0  0  0  0  0  0
  134.0390   74.9650  225.9010 C   0  0  0  0  0  0  0  0  0  0  0  0
  133.4680   76.0630  226.5160 C   0  0  0  0  0  0  0  0  0  0  0  0
  132.4780   75.8270  227.4500 C   0  0  0  0  0  0  0  0  0  0  0  0
  132.0720   74.5430  227.7570 C   0  0  0  0  0  0  0  0  0  0  0  0
  132.6580   73.4410  227.1260 C   0  0  0  0  0  0  0  0  0  0  0  0
  133.6560   73.6680  226.1850 C   0  0  0  0  0  0  0  0  0  0  0  0
  134.2350   72.6100  225.5630 N   0  0  0  0  0  0  0  0  0  0  0  0
  140.4180   70.6760  225.5700 C   0  0  0  0  0  0  0  0  0  0  0  0
  140.3070   69.5810  226.4220 C   0  0  0  0  0  0  0  0  0  0  0  0
  140.5410   69.7570  227.7710 C   0  0  0  0  0  0  0  0  0  0  0  0
  140.8820   70.9870  228.3070 C   0  0  0  0  0  0  0  0  0  0  0  0
  140.9930   72.0800  227.4660 C   0  0  0  0  0  0  0  0  0  0  0  0
  140.7550   71.8840  226.1190 C   0  0  0  0  0  0  0  0  0  0  0  0
  140.0927   74.0223  221.7068 H   0  0  0  0  0  0  0  0  0  0  0  0
  140.5230   72.3490  221.2153 H   0  0  0  0  0  0  0  0  0  0  0  0
  138.8043   72.8712  221.2153 H   0  0  0  0  0  0  0  0  0  0  0  0
  141.1931   71.3557  222.4280 H   0  0  0  0  0  0  0  0  0  0  0  0
  141.4484   72.2391  223.9665 H   0  0  0  0  0  0  0  0  0  0  0  0
  140.6499   69.5615  223.8054 H   0  0  0  0  0  0  0  0  0  0  0  0
  138.2910   71.3780  223.5830 H   0  0  0  0  0  0  0  0  0  0  0  0
  136.3647   69.3804  222.8430 H   0  0  0  0  0  0  0  0  0  0  0  0
  136.1382   68.3589  224.3230 H   0  0  0  0  0  0  0  0  0  0  0  0
  135.5020   70.2710  225.5610 H   0  0  0  0  0  0  0  0  0  0  0  0
  136.4000   74.2369  223.5938 H   0  0  0  0  0  0  0  0  0  0  0  0
  135.3580   76.1827  224.7138 H   0  0  0  0  0  0  0  0  0  0  0  0
  133.7896   77.0860  226.2711 H   0  0  0  0  0  0  0  0  0  0  0  0
  132.0035   76.6787  227.9594 H   0  0  0  0  0  0  0  0  0  0  0  0
  131.2806   74.3857  228.5046 H   0  0  0  0  0  0  0  0  0  0  0  0
  132.3365   72.4174  227.3688 H   0  0  0  0  0  0  0  0  0  0  0  0
  140.0370   68.5907  226.0265 H   0  0  0  0  0  0  0  0  0  0  0  0
  140.4535   68.8905  228.4429 H   0  0  0  0  0  0  0  0  0  0  0  0
  141.0623   71.0939  229.3869 H   0  0  0  0  0  0  0  0  0  0  0  0
  141.2619   73.0725  227.8568 H   0  0  0  0  0  0  0  0  0  0  0  0
  140.8416   72.7508  225.4474 H   0  0  0  0  0  0  0  0  0  0  0  0
  1  2  1  0
  2  3  1  0
  3  4  1  0
  4  5  1  0
  5  6  1  0
  6  7  2  0
  6  8  1  0
  8  9  1  0
  9 10  1  0
 10 11  2  0
 10 12  1  0
 12 13  2  0
 13 14  1  0
 14 15  2  0
 15 16  1  0
 16 17  2  0
 17 18  1  0
 18 19  2  0
 19 20  1  0
 20 21  2  0
  4 22  1  0
 22 23  2  0
 23 24  1  0
 24 25  2  0
 25 26  1  0
 26 27  2  0
 21 12  1  0
 27 22  1  0
 20 15  1  0
  1 28  1  0
  1 29  1  0
  1 30  1  0
  3 31  1  0
  3 32  1  0
  4 33  1  6
  5 34  1  0
  8 35  1  0
  8 36  1  0
  9 37  1  0
 13 38  1  0
 14 39  1  0
 16 40  1  0
 17 41  1  0
 18 42  1  0
 19 43  1  0
 23 44  1  0
 24 45  1  0
 25 46  1  0
 26 47  1  0
 27 48  1  0
M  END
>  <smiles>  (23) 
COC[C@H](NC(=O)CNC(=O)c1ccc2ccccc2n1)c1ccccc1

>  <score_type>  (23) 
oracle

>  <origin>  (23) 
autodockgpu

>  <m_score__min__energy>  (23) 
-8.1999999999999993

>  <m_primary>  (23) 
energy

>  <rmsd>  (23) 
9.650304758994436

>  <m_score__min__rmsd>  (23) 
9.650304758994436

>  <meeko>  (23) 
{"free_energy": -6.98, "intermolecular_energy": -9.07, "internal_energy": -3.11, "cluster_size": 6, "cluster_id": 3, "rank_in_cluster": 3}

>  <energy>  (23) 
-6.82

>  <cluster_rmsd>  (23) 
1.58

>  <cluster>  (23) 
5

$$$$

     RDKit          3D

 48 50  0  0  0  0  0  0  0  0999 V2000
  139.4180   75.9820  222.3040 C   0  0  0  0  0  0  0  0  0  0  0  0
  140.3780   75.0350  221.9990 O   0  0  0  0  0  0  0  0  0  0  0  0
  141.0780   75.4430  220.8590 C   0  0  0  0  0  0  0  0  0  0  0  0
  141.4770   74.2030  220.0490 C   0  0  2  0  0  0  0  0  0  0  0  0
  140.6440   73.1170  220.5450 N   0  0  0  0  0  0  0  0  0  0  0  0
  140.3770   72.0340  219.6740 C   0  0  0  0  0  0  0  0  0  0  0  0
  140.8550   72.0220  218.4980 O   0  0  0  0  0  0  0  0  0  0  0  0
  139.5240   70.9300  220.1950 C   0  0  0  0  0  0  0  0  0  0  0  0
  139.9100   70.5450  221.5390 N   0  0  0  0  0  0  0  0  0  0  0  0
  139.4830   71.3430  222.6340 C   0  0  0  0  0  0  0  0  0  0  0  0
  138.7750   72.3730  222.4320 O   0  0  0  0  0  0  0  0  0  0  0  0
  139.8750   70.9500  223.9850 C   0  0  0  0  0  0  0  0  0  0  0  0
  140.5870   71.8580  224.7610 C   0  0  0  0  0  0  0  0  0  0  0  0
  140.9820   71.5360  226.0450 C   0  0  0  0  0  0  0  0  0  0  0  0
  140.6680   70.3000  226.5660 C   0  0  0  0  0  0  0  0  0  0  0  0
  141.0700   69.9910  227.8520 C   0  0  0  0  0  0  0  0  0  0  0  0
  140.7380   68.7430  228.3410 C   0  0  0  0  0  0  0  0  0  0  0  0
  140.0310   67.8360  227.5760 C   0  0  0  0  0  0  0  0  0  0  0  0
  139.6300   68.1610  226.2760 C   0  0  0  0  0  0  0  0  0  0  0  0
  139.9590   69.4160  225.7740 C   0  0  0  0  0  0  0  0  0  0  0  0
  139.5790   69.7470  224.5140 N   0  0  0  0  0  0  0  0  0  0  0  0
  142.8840   73.8680  220.3090 C   0  0  0  0  0  0  0  0  0  0  0  0
  143.2190   72.5580  220.6430 C   0  0  0  0  0  0  0  0  0  0  0  0
  144.5430   72.2490  220.8870 C   0  0  0  0  0  0  0  0  0  0  0  0
  145.5480   73.1970  220.8120 C   0  0  0  0  0  0  0  0  0  0  0  0
  145.2220   74.5000  220.4810 C   0  0  0  0  0  0  0  0  0  0  0  0
  143.8930   74.7900  220.2400 C   0  0  0  0  0  0  0  0  0  0  0  0
  139.3263   76.0725  223.3964 H   0  0  0  0  0  0  0  0  0  0  0  0
  139.7127   76.9529  221.8791 H   0  0  0  0  0  0  0  0  0  0  0  0
  138.4512   75.6741  221.8791 H   0  0  0  0  0  0  0  0  0  0  0  0
  140.4374   76.0939  220.2458 H   0  0  0  0  0  0  0  0  0  0  0  0
  141.9792   75.9999  221.1551 H   0  0  0  0  0  0  0  0  0  0  0  0
  141.3479   74.3738  218.9700 H   0  0  0  0  0  0  0  0  0  0  0  0
  140.2860   73.1940  221.5230 H   0  0  0  0  0  0  0  0  0  0  0  0
  138.4759   71.2638  220.2065 H   0  0  0  0  0  0  0  0  0  0  0  0
  139.6515   70.0574  219.5375 H   0  0  0  0  0  0  0  0  0  0  0  0
  140.4990   69.6880  221.6950 H   0  0  0  0  0  0  0  0  0  0  0  0
  140.8390   72.8455  224.3471 H   0  0  0  0  0  0  0  0  0  0  0  0
  141.5447   72.2633  226.6487 H   0  0  0  0  0  0  0  0  0  0  0  0
  141.6331   70.7120  228.4628 H   0  0  0  0  0  0  0  0  0  0  0  0
  141.0429   68.4655  229.3608 H   0  0  0  0  0  0  0  0  0  0  0  0
  139.7811   66.8492  227.9929 H   0  0  0  0  0  0  0  0  0  0  0  0
  139.0672   67.4405  225.6644 H   0  0  0  0  0  0  0  0  0  0  0  0
  142.4421   71.7823  220.7114 H   0  0  0  0  0  0  0  0  0  0  0  0
  144.8073   71.2141  221.1498 H   0  0  0  0  0  0  0  0  0  0  0  0
  146.5929   72.9181  221.0130 H   0  0  0  0  0  0  0  0  0  0  0  0
  145.9953   75.2793  220.4120 H   0  0  0  0  0  0  0  0  0  0  0  0
  143.6297   75.8250  219.9766 H   0  0  0  0  0  0  0  0  0  0  0  0
  1  2  1  0
  2  3  1  0
  3  4  1  0
  4  5  1  0
  5  6  1  0
  6  7  2  0
  6  8  1  0
  8  9  1  0
  9 10  1  0
 10 11  2  0
 10 12  1  0
 12 13  2  0
 13 14  1  0
 14 15  2  0
 15 16  1  0
 16 17  2  0
 17 18  1  0
 18 19  2  0
 19 20  1  0
 20 21  2  0
  4 22  1  0
 22 23  2  0
 23 24  1  0
 24 25  2  0
 25 26  1  0
 26 27  2  0
 21 12  1  0
 27 22  1  0
 20 15  1  0
  1 28  1  0
  1 29  1  0
  1 30  1  0
  3 31  1  0
  3 32  1  0
  4 33  1  6
  5 34  1  0
  8 35  1  0
  8 36  1  0
  9 37  1  0
 13 38  1  0
 14 39  1  0
 16 40  1  0
 17 41  1  0
 18 42  1  0
 19 43  1  0
 23 44  1  0
 24 45  1  0
 25 46  1  0
 26 47  1  0
 27 48  1  0
M  END
>  <smiles>  (24) 
COC[C@H](NC(=O)CNC(=O)c1ccc2ccccc2n1)c1ccccc1

>  <score_type>  (24) 
oracle

>  <origin>  (24) 
autodockgpu

>  <m_score__min__energy>  (24) 
-8.1999999999999993

>  <m_primary>  (24) 
energy

>  <rmsd>  (24) 
6.310684118267098

>  <m_score__min__rmsd>  (24) 
6.310684118267098

>  <meeko>  (24) 
{"free_energy": -6.99, "intermolecular_energy": -9.08, "internal_energy": -3.04, "cluster_size": 10, "cluster_id": 6, "rank_in_cluster": 6}

>  <energy>  (24) 
-7.42

>  <cluster_rmsd>  (24) 
0.0

>  <cluster>  (24) 
6

$$$$

     RDKit          3D

 48 50  0  0  0  0  0  0  0  0999 V2000
  141.0980   74.1280  221.0630 C   0  0  0  0  0  0  0  0  0  0  0  0
  140.7180   73.5280  222.2500 O   0  0  0  0  0  0  0  0  0  0  0  0
  140.7730   72.1390  222.1000 C   0  0  0  0  0  0  0  0  0  0  0  0
  139.5100   71.5210  222.7140 C   0  0  2  0  0  0  0  0  0  0  0  0
  138.5090   72.5780  222.7140 N   0  0  0  0  0  0  0  0  0  0  0  0
  137.1450   72.2010  222.7140 C   0  0  0  0  0  0  0  0  0  0  0  0
  136.8170   70.9740  222.7130 O   0  0  0  0  0  0  0  0  0  0  0  0
  136.1320   73.2910  222.7150 C   0  0  0  0  0  0  0  0  0  0  0  0
  136.7270   74.5730  223.0420 N   0  0  0  0  0  0  0  0  0  0  0  0
  137.6060   75.1840  222.1070 C   0  0  0  0  0  0  0  0  0  0  0  0
  137.8590   74.6120  221.0060 O   0  0  0  0  0  0  0  0  0  0  0  0
  138.2020   76.4740  222.4420 C   0  0  0  0  0  0  0  0  0  0  0  0
  137.3590   77.5420  222.7290 C   0  0  0  0  0  0  0  0  0  0  0  0
  137.8710   78.7830  223.0510 C   0  0  0  0  0  0  0  0  0  0  0  0
  139.2360   78.9690  223.0910 C   0  0  0  0  0  0  0  0  0  0  0  0
  139.7350   80.2160  223.4140 C   0  0  0  0  0  0  0  0  0  0  0  0
  141.1070   80.3660  223.4440 C   0  0  0  0  0  0  0  0  0  0  0  0
  141.9520   79.3100  223.1610 C   0  0  0  0  0  0  0  0  0  0  0  0
  141.4330   78.0520  222.8340 C   0  0  0  0  0  0  0  0  0  0  0  0
  140.0520   77.8910  222.8020 C   0  0  0  0  0  0  0  0  0  0  0  0
  139.5330   76.6780  222.4860 N   0  0  0  0  0  0  0  0  0  0  0  0
  139.7720   71.1270  224.1050 C   0  0  0  0  0  0  0  0  0  0  0  0
  139.0740   70.0520  224.6490 C   0  0  0  0  0  0  0  0  0  0  0  0
  139.3240   69.6870  225.9570 C   0  0  0  0  0  0  0  0  0  0  0  0
  140.2450   70.3520  226.7460 C   0  0  0  0  0  0  0  0  0  0  0  0
  140.9420   71.4210  226.2120 C   0  0  0  0  0  0  0  0  0  0  0  0
  140.6790   71.7720  224.9020 C   0  0  0  0  0  0  0  0  0  0  0  0
  141.6749   75.0389  221.2808 H   0  0  0  0  0  0  0  0  0  0  0  0
  141.7194   73.4306  220.4821 H   0  0  0  0  0  0  0  0  0  0  0  0
  140.2019   74.3917  220.4821 H   0  0  0  0  0  0  0  0  0  0  0  0
  140.8258   71.8851  221.0310 H   0  0  0  0  0  0  0  0  0  0  0  0
  141.6652   71.7448  222.6086 H   0  0  0  0  0  0  0  0  0  0  0  0
  139.1863   70.6335  222.1504 H   0  0  0  0  0  0  0  0  0  0  0  0
  138.8510   73.5640  222.7160 H   0  0  0  0  0  0  0  0  0  0  0  0
  135.6746   73.3541  221.7166 H   0  0  0  0  0  0  0  0  0  0  0  0
  135.3763   73.0575  223.4794 H   0  0  0  0  0  0  0  0  0  0  0  0
  136.5100   75.0390  223.9590 H   0  0  0  0  0  0  0  0  0  0  0  0
  136.2691   77.3960  222.6991 H   0  0  0  0  0  0  0  0  0  0  0  0
  137.1926   79.6195  223.2746 H   0  0  0  0  0  0  0  0  0  0  0  0
  139.0640   81.0582  223.6389 H   0  0  0  0  0  0  0  0  0  0  0  0
  141.5363   81.3463  223.6984 H   0  0  0  0  0  0  0  0  0  0  0  0
  143.0414   79.4592  223.1930 H   0  0  0  0  0  0  0  0  0  0  0  0
  142.1026   77.2092  222.6073 H   0  0  0  0  0  0  0  0  0  0  0  0
  138.3356   69.5026  224.0467 H   0  0  0  0  0  0  0  0  0  0  0  0
  138.7717   68.8381  226.3863 H   0  0  0  0  0  0  0  0  0  0  0  0
  140.4209   70.0350  227.7845 H   0  0  0  0  0  0  0  0  0  0  0  0
  141.6812   71.9733  226.8107 H   0  0  0  0  0  0  0  0  0  0  0  0
  141.2318   72.6210  224.4735 H   0  0  0  0  0  0  0  0  0  0  0  0
  1  2  1  0
  2  3  1  0
  3  4  1  0
  4  5  1  0
  5  6  1  0
  6  7  2  0
  6  8  1  0
  8  9  1  0
  9 10  1  0
 10 11  2  0
 10 12  1  0
 12 13  2  0
 13 14  1  0
 14 15  2  0
 15 16  1  0
 16 17  2  0
 17 18  1  0
 18 19  2  0
 19 20  1  0
 20 21  2  0
  4 22  1  0
 22 23  2  0
 23 24  1  0
 24 25  2  0
 25 26  1  0
 26 27  2  0
 21 12  1  0
 27 22  1  0
 20 15  1  0
  1 28  1  0
  1 29  1  0
  1 30  1  0
  3 31  1  0
  3 32  1  0
  4 33  1  6
  5 34  1  0
  8 35  1  0
  8 36  1  0
  9 37  1  0
 13 38  1  0
 14 39  1  0
 16 40  1  0
 17 41  1  0
 18 42  1  0
 19 43  1  0
 23 44  1  0
 24 45  1  0
 25 46  1  0
 26 47  1  0
 27 48  1  0
M  END
>  <smiles>  (25) 
COC[C@H](NC(=O)CNC(=O)c1ccc2ccccc2n1)c1ccccc1

>  <score_type>  (25) 
oracle

>  <origin>  (25) 
autodockgpu

>  <m_score__min__energy>  (25) 
-8.1999999999999993

>  <m_primary>  (25) 
energy

>  <rmsd>  (25) 
9.371670723758854

>  <m_score__min__rmsd>  (25) 
9.371670723758854

>  <meeko>  (25) 
{"free_energy": -6.82, "intermolecular_energy": -8.9, "internal_energy": -2.95, "cluster_size": 2, "cluster_id": 5, "rank_in_cluster": 2}

>  <energy>  (25) 
-7.21

>  <cluster_rmsd>  (25) 
0.22

>  <cluster>  (25) 
6

$$$$

     RDKit          3D

 48 50  0  0  0  0  0  0  0  0999 V2000
  135.7070   75.2220  222.9970 C   0  0  0  0  0  0  0  0  0  0  0  0
  136.8950   75.7080  223.5120 O   0  0  0  0  0  0  0  0  0  0  0  0
  137.0780   77.0250  223.0780 C   0  0  0  0  0  0  0  0  0  0  0  0
  138.2990   77.0790  222.1520 C   0  0  2  0  0  0  0  0  0  0  0  0
  138.8230   75.7220  222.1030 N   0  0  0  0  0  0  0  0  0  0  0  0
  139.1820   75.1940  220.8400 C   0  0  0  0  0  0  0  0  0  0  0  0
  139.0450   75.8930  219.7880 O   0  0  0  0  0  0  0  0  0  0  0  0
  139.7160   73.8050  220.8040 C   0  0  0  0  0  0  0  0  0  0  0  0
  139.7390   73.2070  222.1260 N   0  0  0  0  0  0  0  0  0  0  0  0
  139.9990   71.8160  222.2490 C   0  0  0  0  0  0  0  0  0  0  0  0
  140.2080   71.1150  221.2150 O   0  0  0  0  0  0  0  0  0  0  0  0
  140.0200   71.2210  223.5820 C   0  0  0  0  0  0  0  0  0  0  0  0
  139.4840   69.9490  223.7510 C   0  0  0  0  0  0  0  0  0  0  0  0
  139.4790   69.3410  224.9910 C   0  0  0  0  0  0  0  0  0  0  0  0
  140.0110   70.0000  226.0770 C   0  0  0  0  0  0  0  0  0  0  0  0
  139.9990   69.3800  227.3120 C   0  0  0  0  0  0  0  0  0  0  0  0
  140.5410   70.0700  228.3780 C   0  0  0  0  0  0  0  0  0  0  0  0
  141.0760   71.3350  228.2180 C   0  0  0  0  0  0  0  0  0  0  0  0
  141.0810   71.9510  226.9620 C   0  0  0  0  0  0  0  0  0  0  0  0
  140.5380   71.2640  225.8830 C   0  0  0  0  0  0  0  0  0  0  0  0
  140.5350   71.8480  224.6580 N   0  0  0  0  0  0  0  0  0  0  0  0
  139.3270   77.9550  222.7310 C   0  0  0  0  0  0  0  0  0  0  0  0
  140.6550   77.5370  222.7300 C   0  0  0  0  0  0  0  0  0  0  0  0
  141.6160   78.3640  223.2760 C   0  0  0  0  0  0  0  0  0  0  0  0
  141.3050   79.5950  223.8260 C   0  0  0  0  0  0  0  0  0  0  0  0
  139.9870   80.0170  223.8320 C   0  0  0  0  0  0  0  0  0  0  0  0
  139.0400   79.1760  223.2800 C   0  0  0  0  0  0  0  0  0  0  0  0
  135.0346   74.9469  223.8230 H   0  0  0  0  0  0  0  0  0  0  0  0
  135.2307   75.9975  222.3792 H   0  0  0  0  0  0  0  0  0  0  0  0
  135.9108   74.3350  222.3792 H   0  0  0  0  0  0  0  0  0  0  0  0
  136.1847   77.3607  222.5308 H   0  0  0  0  0  0  0  0  0  0  0  0
  137.2386   77.6835  223.9444 H   0  0  0  0  0  0  0  0  0  0  0  0
  138.0274   77.4622  221.1573 H   0  0  0  0  0  0  0  0  0  0  0  0
  138.9090   75.2070  223.0070 H   0  0  0  0  0  0  0  0  0  0  0  0
  139.0789   73.1946  220.1471 H   0  0  0  0  0  0  0  0  0  0  0  0
  140.7482   73.8430  220.4256 H   0  0  0  0  0  0  0  0  0  0  0  0
  139.5640   73.7990  222.9770 H   0  0  0  0  0  0  0  0  0  0  0  0
  139.0583   69.4201  222.8855 H   0  0  0  0  0  0  0  0  0  0  0  0
  139.0518   68.3344  225.1108 H   0  0  0  0  0  0  0  0  0  0  0  0
  139.5733   68.3739  227.4410 H   0  0  0  0  0  0  0  0  0  0  0  0
  140.5474   69.6041  229.3745 H   0  0  0  0  0  0  0  0  0  0  0  0
  141.5011   71.8612  229.0854 H   0  0  0  0  0  0  0  0  0  0  0  0
  141.5055   72.9573  226.8314 H   0  0  0  0  0  0  0  0  0  0  0  0
  140.9340   76.5633  222.3010 H   0  0  0  0  0  0  0  0  0  0  0  0
  142.6650   78.0330  223.2738 H   0  0  0  0  0  0  0  0  0  0  0  0
  142.0952   80.2300  224.2530 H   0  0  0  0  0  0  0  0  0  0  0  0
  139.7030   80.9890  224.2617 H   0  0  0  0  0  0  0  0  0  0  0  0
  137.9912   79.5077  223.2817 H   0  0  0  0  0  0  0  0  0  0  0  0
  1  2  1  0
  2  3  1  0
  3  4  1  0
  4  5  1  0
  5  6  1  0
  6  7  2  0
  6  8  1  0
  8  9  1  0
  9 10  1  0
 10 11  2  0
 10 12  1  0
 12 13  2  0
 13 14  1  0
 14 15  2  0
 15 16  1  0
 16 17  2  0
 17 18  1  0
 18 19  2  0
 19 20  1  0
 20 21  2  0
  4 22  1  0
 22 23  2  0
 23 24  1  0
 24 25  2  0
 25 26  1  0
 26 27  2  0
 21 12  1  0
 27 22  1  0
 20 15  1  0
  1 28  1  0
  1 29  1  0
  1 30  1  0
  3 31  1  0
  3 32  1  0
  4 33  1  6
  5 34  1  0
  8 35  1  0
  8 36  1  0
  9 37  1  0
 13 38  1  0
 14 39  1  0
 16 40  1  0
 17 41  1  0
 18 42  1  0
 19 43  1  0
 23 44  1  0
 24 45  1  0
 25 46  1  0
 26 47  1  0
 27 48  1  0
M  END
>  <smiles>  (26) 
COC[C@H](NC(=O)CNC(=O)c1ccc2ccccc2n1)c1ccccc1

>  <score_type>  (26) 
oracle

>  <origin>  (26) 
autodockgpu

>  <m_score__min__energy>  (26) 
-8.1999999999999993

>  <m_primary>  (26) 
energy

>  <rmsd>  (26) 
4.593663251468127

>  <m_score__min__rmsd>  (26) 
4.593663251468127

>  <meeko>  (26) 
{"free_energy": -7.8, "intermolecular_energy": -9.89, "internal_energy": -2.2, "cluster_size": 12, "cluster_id": 2, "rank_in_cluster": 9}

>  <energy>  (26) 
-7.1

>  <cluster_rmsd>  (26) 
1.3

>  <cluster>  (26) 
6

$$$$

     RDKit          3D

 48 50  0  0  0  0  0  0  0  0999 V2000
  144.3660   71.6720  219.8440 C   0  0  0  0  0  0  0  0  0  0  0  0
  143.9480   72.5910  220.7890 O   0  0  0  0  0  0  0  0  0  0  0  0
  144.4860   73.8440  220.4800 C   0  0  0  0  0  0  0  0  0  0  0  0
  143.3580   74.8840  220.4760 C   0  0  2  0  0  0  0  0  0  0  0  0
  142.1200   74.1290  220.6000 N   0  0  0  0  0  0  0  0  0  0  0  0
  140.9340   74.8420  220.8960 C   0  0  0  0  0  0  0  0  0  0  0  0
  140.9630   76.1030  221.0480 O   0  0  0  0  0  0  0  0  0  0  0  0
  139.6750   74.0580  221.0200 C   0  0  0  0  0  0  0  0  0  0  0  0
  139.6150   73.3390  222.2790 N   0  0  0  0  0  0  0  0  0  0  0  0
  140.2870   72.0930  222.3940 C   0  0  0  0  0  0  0  0  0  0  0  0
  140.9290   71.6240  221.4070 O   0  0  0  0  0  0  0  0  0  0  0  0
  140.2230   71.3740  223.6630 C   0  0  0  0  0  0  0  0  0  0  0  0
  139.6560   70.1050  223.6810 C   0  0  0  0  0  0  0  0  0  0  0  0
  139.5700   69.3840  224.8550 C   0  0  0  0  0  0  0  0  0  0  0  0
  140.0540   69.9250  226.0260 C   0  0  0  0  0  0  0  0  0  0  0  0
  139.9610   69.1920  227.1930 C   0  0  0  0  0  0  0  0  0  0  0  0
  140.4560   69.7660  228.3480 C   0  0  0  0  0  0  0  0  0  0  0  0
  141.0210   71.0260  228.3390 C   0  0  0  0  0  0  0  0  0  0  0  0
  141.1080   71.7580  227.1500 C   0  0  0  0  0  0  0  0  0  0  0  0
  140.6130   71.1890  225.9820 C   0  0  0  0  0  0  0  0  0  0  0  0
  140.6890   71.8850  224.8200 N   0  0  0  0  0  0  0  0  0  0  0  0
  143.3420   75.5990  219.1930 C   0  0  0  0  0  0  0  0  0  0  0  0
  143.7080   74.9210  218.0330 C   0  0  0  0  0  0  0  0  0  0  0  0
  143.6910   75.5980  216.8300 C   0  0  0  0  0  0  0  0  0  0  0  0
  143.3230   76.9290  216.7370 C   0  0  0  0  0  0  0  0  0  0  0  0
  142.9590   77.6090  217.8850 C   0  0  0  0  0  0  0  0  0  0  0  0
  142.9820   76.9150  219.0790 C   0  0  0  0  0  0  0  0  0  0  0  0
  144.7703   70.7832  220.3506 H   0  0  0  0  0  0  0  0  0  0  0  0
  143.5126   71.3790  219.2148 H   0  0  0  0  0  0  0  0  0  0  0  0
  145.1477   72.1227  219.2148 H   0  0  0  0  0  0  0  0  0  0  0  0
  145.2383   74.1186  221.2341 H   0  0  0  0  0  0  0  0  0  0  0  0
  144.9637   73.8097  219.4897 H   0  0  0  0  0  0  0  0  0  0  0  0
  143.4883   75.6163  221.2864 H   0  0  0  0  0  0  0  0  0  0  0  0
  142.1710   73.0950  220.4620 H   0  0  0  0  0  0  0  0  0  0  0  0
  138.8188   74.7460  220.9607 H   0  0  0  0  0  0  0  0  0  0  0  0
  139.6457   73.3228  220.2023 H   0  0  0  0  0  0  0  0  0  0  0  0
  139.0790   73.7380  223.0910 H   0  0  0  0  0  0  0  0  0  0  0  0
  139.2707   69.6695  222.7473 H   0  0  0  0  0  0  0  0  0  0  0  0
  139.1169   68.3816  224.8556 H   0  0  0  0  0  0  0  0  0  0  0  0
  139.5097   68.1889  227.2024 H   0  0  0  0  0  0  0  0  0  0  0  0
  140.3989   69.2079  229.2942 H   0  0  0  0  0  0  0  0  0  0  0  0
  141.4059   71.4578  229.2746 H   0  0  0  0  0  0  0  0  0  0  0  0
  141.5581   72.7616  227.1394 H   0  0  0  0  0  0  0  0  0  0  0  0
  144.0059   73.8629  218.0746 H   0  0  0  0  0  0  0  0  0  0  0  0
  143.9797   75.0614  215.9142 H   0  0  0  0  0  0  0  0  0  0  0  0
  143.3201   77.4394  215.7626 H   0  0  0  0  0  0  0  0  0  0  0  0
  142.6611   78.6673  217.8484 H   0  0  0  0  0  0  0  0  0  0  0  0
  142.6934   77.4525  219.9943 H   0  0  0  0  0  0  0  0  0  0  0  0
  1  2  1  0
  2  3  1  0
  3  4  1  0
  4  5  1  0
  5  6  1  0
  6  7  2  0
  6  8  1  0
  8  9  1  0
  9 10  1  0
 10 11  2  0
 10 12  1  0
 12 13  2  0
 13 14  1  0
 14 15  2  0
 15 16  1  0
 16 17  2  0
 17 18  1  0
 18 19  2  0
 19 20  1  0
 20 21  2  0
  4 22  1  0
 22 23  2  0
 23 24  1  0
 24 25  2  0
 25 26  1  0
 26 27  2  0
 21 12  1  0
 27 22  1  0
 20 15  1  0
  1 28  1  0
  1 29  1  0
  1 30  1  0
  3 31  1  0
  3 32  1  0
  4 33  1  1
  5 34  1  0
  8 35  1  0
  8 36  1  0
  9 37  1  0
 13 38  1  0
 14 39  1  0
 16 40  1  0
 17 41  1  0
 18 42  1  0
 19 43  1  0
 23 44  1  0
 24 45  1  0
 25 46  1  0
 26 47  1  0
 27 48  1  0
M  END
>  <smiles>  (27) 
COC[C@H](NC(=O)CNC(=O)c1ccc2ccccc2n1)c1ccccc1

>  <score_type>  (27) 
oracle

>  <origin>  (27) 
autodockgpu

>  <m_score__min__energy>  (27) 
-8.1999999999999993

>  <m_primary>  (27) 
energy

>  <rmsd>  (27) 
5.515228095873119

>  <m_score__min__rmsd>  (27) 
5.515228095873119

>  <meeko>  (27) 
{"free_energy": -7.11, "intermolecular_energy": -9.2, "internal_energy": -2.9, "cluster_size": 17, "cluster_id": 7, "rank_in_cluster": 10}

>  <energy>  (27) 
-7.08

>  <cluster_rmsd>  (27) 
1.28

>  <cluster>  (27) 
6

$$$$

     RDKit          3D

 48 50  0  0  0  0  0  0  0  0999 V2000
  138.1900   67.6600  221.4290 C   0  0  0  0  0  0  0  0  0  0  0  0
  139.2160   68.0850  222.2530 O   0  0  0  0  0  0  0  0  0  0  0  0
  138.8050   67.9860  223.5850 C   0  0  0  0  0  0  0  0  0  0  0  0
  138.7120   69.3960  224.1840 C   0  0  2  0  0  0  0  0  0  0  0  0
  139.3240   70.2850  223.2060 N   0  0  0  0  0  0  0  0  0  0  0  0
  138.6960   71.5280  222.9560 C   0  0  0  0  0  0  0  0  0  0  0  0
  137.6310   71.8460  223.5700 O   0  0  0  0  0  0  0  0  0  0  0  0
  139.3320   72.4280  221.9550 C   0  0  0  0  0  0  0  0  0  0  0  0
  139.2200   73.8220  222.3410 N   0  0  0  0  0  0  0  0  0  0  0  0
  140.1610   74.7560  221.8320 C   0  0  0  0  0  0  0  0  0  0  0  0
  141.0810   74.3710  221.0520 O   0  0  0  0  0  0  0  0  0  0  0  0
  140.0420   76.1580  222.2250 C   0  0  0  0  0  0  0  0  0  0  0  0
  138.7720   76.7100  222.3420 C   0  0  0  0  0  0  0  0  0  0  0  0
  138.6040   78.0300  222.7100 C   0  0  0  0  0  0  0  0  0  0  0  0
  139.7090   78.8140  222.9660 C   0  0  0  0  0  0  0  0  0  0  0  0
  139.5260   80.1330  223.3330 C   0  0  0  0  0  0  0  0  0  0  0  0
  140.6550   80.8880  223.5810 C   0  0  0  0  0  0  0  0  0  0  0  0
  141.9210   80.3470  223.4670 C   0  0  0  0  0  0  0  0  0  0  0  0
  142.0920   79.0090  223.0940 C   0  0  0  0  0  0  0  0  0  0  0  0
  140.9610   78.2400  222.8430 C   0  0  0  0  0  0  0  0  0  0  0  0
  141.1090   76.9410  222.4790 N   0  0  0  0  0  0  0  0  0  0  0  0
  139.4920   69.4630  225.4270 C   0  0  0  0  0  0  0  0  0  0  0  0
  139.7050   68.2980  226.1590 C   0  0  0  0  0  0  0  0  0  0  0  0
  140.4370   68.3670  227.3270 C   0  0  0  0  0  0  0  0  0  0  0  0
  140.9670   69.5550  227.7970 C   0  0  0  0  0  0  0  0  0  0  0  0
  140.7590   70.7180  227.0750 C   0  0  0  0  0  0  0  0  0  0  0  0
  140.0240   70.6280  225.9090 C   0  0  0  0  0  0  0  0  0  0  0  0
  137.3470   67.3108  222.0434 H   0  0  0  0  0  0  0  0  0  0  0  0
  137.8597   68.4953  220.7941 H   0  0  0  0  0  0  0  0  0  0  0  0
  138.5471   66.8358  220.7941 H   0  0  0  0  0  0  0  0  0  0  0  0
  137.8196   67.4994  223.6319 H   0  0  0  0  0  0  0  0  0  0  0  0
  139.5304   67.3867  224.1548 H   0  0  0  0  0  0  0  0  0  0  0  0
  137.6693   69.6668  224.4062 H   0  0  0  0  0  0  0  0  0  0  0  0
  140.1990   69.9570  222.7410 H   0  0  0  0  0  0  0  0  0  0  0  0
  140.3969   72.1669  221.8662 H   0  0  0  0  0  0  0  0  0  0  0  0
  138.8128   72.2948  220.9945 H   0  0  0  0  0  0  0  0  0  0  0  0
  138.4520   74.1300  222.9890 H   0  0  0  0  0  0  0  0  0  0  0  0
  137.8887   76.0868  222.1386 H   0  0  0  0  0  0  0  0  0  0  0  0
  137.5930   78.4544  222.7986 H   0  0  0  0  0  0  0  0  0  0  0  0
  138.5187   80.5656  223.4242 H   0  0  0  0  0  0  0  0  0  0  0  0
  140.5442   81.9421  223.8754 H   0  0  0  0  0  0  0  0  0  0  0  0
  142.8021   80.9731  223.6711 H   0  0  0  0  0  0  0  0  0  0  0  0
  143.0987   78.5754  223.0014 H   0  0  0  0  0  0  0  0  0  0  0  0
  139.2963   67.3376  225.8118 H   0  0  0  0  0  0  0  0  0  0  0  0
  140.6047   67.4456  227.9039 H   0  0  0  0  0  0  0  0  0  0  0  0
  141.5461   69.5756  228.7320 H   0  0  0  0  0  0  0  0  0  0  0  0
  141.1653   71.6809  227.4183 H   0  0  0  0  0  0  0  0  0  0  0  0
  139.8560   71.5496  225.3324 H   0  0  0  0  0  0  0  0  0  0  0  0
  1  2  1  0
  2  3  1  0
  3  4  1  0
  4  5  1  0
  5  6  1  0
  6  7  2  0
  6  8  1  0
  8  9  1  0
  9 10  1  0
 10 11  2  0
 10 12  1  0
 12 13  2  0
 13 14  1  0
 14 15  2  0
 15 16  1  0
 16 17  2  0
 17 18  1  0
 18 19  2  0
 19 20  1  0
 20 21  2  0
  4 22  1  0
 22 23  2  0
 23 24  1  0
 24 25  2  0
 25 26  1  0
 26 27  2  0
 21 12  1  0
 27 22  1  0
 20 15  1  0
  1 28  1  0
  1 29  1  0
  1 30  1  0
  3 31  1  0
  3 32  1  0
  4 33  1  1
  5 34  1  0
  8 35  1  0
  8 36  1  0
  9 37  1  0
 13 38  1  0
 14 39  1  0
 16 40  1  0
 17 41  1  0
 18 42  1  0
 19 43  1  0
 23 44  1  0
 24 45  1  0
 25 46  1  0
 26 47  1  0
 27 48  1  0
M  END
>  <smiles>  (28) 
COC[C@H](NC(=O)CNC(=O)c1ccc2ccccc2n1)c1ccccc1

>  <score_type>  (28) 
oracle

>  <origin>  (28) 
autodockgpu

>  <m_score__min__energy>  (28) 
-8.1999999999999993

>  <m_primary>  (28) 
energy

>  <rmsd>  (28) 
10.398038991644901

>  <m_score__min__rmsd>  (28) 
10.398038991644901

>  <meeko>  (28) 
{"free_energy": -7.47, "intermolecular_energy": -9.56, "internal_energy": -2.16, "cluster_size": 2, "cluster_id": 5, "rank_in_cluster": 1}

>  <energy>  (28) 
-7.0

>  <cluster_rmsd>  (28) 
1.25

>  <cluster>  (28) 
6

$$$$

     RDKit          3D

 48 50  0  0  0  0  0  0  0  0999 V2000
  144.0360   71.8190  220.8370 C   0  0  0  0  0  0  0  0  0  0  0  0
  143.6870   72.7210  219.8490 O   0  0  0  0  0  0  0  0  0  0  0  0
  144.2910   73.9530  220.1170 C   0  0  0  0  0  0  0  0  0  0  0  0
  143.1990   74.9960  220.3840 C   0  0  2  0  0  0  0  0  0  0  0  0
  141.9490   74.2530  220.4670 N   0  0  0  0  0  0  0  0  0  0  0  0
  140.8220   74.9080  221.0180 C   0  0  0  0  0  0  0  0  0  0  0  0
  140.9120   76.1070  221.4260 O   0  0  0  0  0  0  0  0  0  0  0  0
  139.5510   74.1370  221.0960 C   0  0  0  0  0  0  0  0  0  0  0  0
  139.4720   73.3600  222.3180 N   0  0  0  0  0  0  0  0  0  0  0  0
  140.2930   72.2090  222.4590 C   0  0  0  0  0  0  0  0  0  0  0  0
  141.0820   71.8740  221.5260 O   0  0  0  0  0  0  0  0  0  0  0  0
  140.2090   71.4310  223.6910 C   0  0  0  0  0  0  0  0  0  0  0  0
  139.6210   70.1730  223.6440 C   0  0  0  0  0  0  0  0  0  0  0  0
  139.5150   69.3970  224.7820 C   0  0  0  0  0  0  0  0  0  0  0  0
  139.9990   69.8730  225.9810 C   0  0  0  0  0  0  0  0  0  0  0  0
  139.8870   69.0860  227.1110 C   0  0  0  0  0  0  0  0  0  0  0  0
  140.3820   69.5950  228.2950 C   0  0  0  0  0  0  0  0  0  0  0  0
  140.9680   70.8450  228.3500 C   0  0  0  0  0  0  0  0  0  0  0  0
  141.0750   71.6320  227.1980 C   0  0  0  0  0  0  0  0  0  0  0  0
  140.5800   71.1280  226.0010 C   0  0  0  0  0  0  0  0  0  0  0  0
  140.6750   71.8780  224.8740 N   0  0  0  0  0  0  0  0  0  0  0  0
  143.1120   75.9300  219.2530 C   0  0  0  0  0  0  0  0  0  0  0  0
  143.4930   75.4980  217.9860 C   0  0  0  0  0  0  0  0  0  0  0  0
  143.4110   76.3800  216.9270 C   0  0  0  0  0  0  0  0  0  0  0  0
  142.9620   77.6800  217.0820 C   0  0  0  0  0  0  0  0  0  0  0  0
  142.5820   78.1160  218.3390 C   0  0  0  0  0  0  0  0  0  0  0  0
  142.6720   77.2190  219.3860 C   0  0  0  0  0  0  0  0  0  0  0  0
  143.8611   72.2710  221.8245 H   0  0  0  0  0  0  0  0  0  0  0  0
  143.4246   70.9101  220.7363 H   0  0  0  0  0  0  0  0  0  0  0  0
  145.0999   71.5583  220.7363 H   0  0  0  0  0  0  0  0  0  0  0  0
  144.9383   73.8618  221.0017 H   0  0  0  0  0  0  0  0  0  0  0  0
  144.8997   74.2641  219.2552 H   0  0  0  0  0  0  0  0  0  0  0  0
  143.4109   75.5683  221.2992 H   0  0  0  0  0  0  0  0  0  0  0  0
  141.9500   73.2710  220.1110 H   0  0  0  0  0  0  0  0  0  0  0  0
  138.7050   74.8393  221.0642 H   0  0  0  0  0  0  0  0  0  0  0  0
  139.5172   73.4423  220.2438 H   0  0  0  0  0  0  0  0  0  0  0  0
  138.8140   73.6470  223.0860 H   0  0  0  0  0  0  0  0  0  0  0  0
  139.2348   69.7898  222.6880 H   0  0  0  0  0  0  0  0  0  0  0  0
  139.0461   68.4032  224.7311 H   0  0  0  0  0  0  0  0  0  0  0  0
  139.4207   68.0906  227.0689 H   0  0  0  0  0  0  0  0  0  0  0  0
  140.3084   68.9933  229.2129 H   0  0  0  0  0  0  0  0  0  0  0  0
  141.3537   71.2248  229.3076 H   0  0  0  0  0  0  0  0  0  0  0  0
  141.5407   72.6277  227.2388 H   0  0  0  0  0  0  0  0  0  0  0  0
  143.8536   74.4704  217.8309 H   0  0  0  0  0  0  0  0  0  0  0  0
  143.7128   76.0379  215.9260 H   0  0  0  0  0  0  0  0  0  0  0  0
  142.9080   78.3577  216.2172 H   0  0  0  0  0  0  0  0  0  0  0  0
  142.2204   79.1424  218.4994 H   0  0  0  0  0  0  0  0  0  0  0  0
  142.3718   77.5617  220.3872 H   0  0  0  0  0  0  0  0  0  0  0  0
  1  2  1  0
  2  3  1  0
  3  4  1  0
  4  5  1  0
  5  6  1  0
  6  7  2  0
  6  8  1  0
  8  9  1  0
  9 10  1  0
 10 11  2  0
 10 12  1  0
 12 13  2  0
 13 14  1  0
 14 15  2  0
 15 16  1  0
 16 17  2  0
 17 18  1  0
 18 19  2  0
 19 20  1  0
 20 21  2  0
  4 22  1  0
 22 23  2  0
 23 24  1  0
 24 25  2  0
 25 26  1  0
 26 27  2  0
 21 12  1  0
 27 22  1  0
 20 15  1  0
  1 28  1  0
  1 29  1  0
  1 30  1  0
  3 31  1  0
  3 32  1  0
  4 33  1  1
  5 34  1  0
  8 35  1  0
  8 36  1  0
  9 37  1  0
 13 38  1  0
 14 39  1  0
 16 40  1  0
 17 41  1  0
 18 42  1  0
 19 43  1  0
 23 44  1  0
 24 45  1  0
 25 46  1  0
 26 47  1  0
 27 48  1  0
M  END
>  <smiles>  (29) 
COC[C@H](NC(=O)CNC(=O)c1ccc2ccccc2n1)c1ccccc1

>  <score_type>  (29) 
oracle

>  <origin>  (29) 
autodockgpu

>  <m_score__min__energy>  (29) 
-8.1999999999999993

>  <m_primary>  (29) 
energy

>  <rmsd>  (29) 
5.299693002022316

>  <m_score__min__rmsd>  (29) 
5.299693002022316

>  <meeko>  (29) 
{"free_energy": -7.09, "intermolecular_energy": -9.18, "internal_energy": -2.84, "cluster_size": 17, "cluster_id": 7, "rank_in_cluster": 11}

>  <energy>  (29) 
-6.99

>  <cluster_rmsd>  (29) 
1.23

>  <cluster>  (29) 
6

$$$$

     RDKit          3D

 48 50  0  0  0  0  0  0  0  0999 V2000
  140.4260   71.6360  228.3140 C   0  0  0  0  0  0  0  0  0  0  0  0
  140.4320   72.2380  227.0690 O   0  0  0  0  0  0  0  0  0  0  0  0
  141.5950   71.8690  226.3860 C   0  0  0  0  0  0  0  0  0  0  0  0
  141.2110   71.0120  225.1740 C   0  0  2  0  0  0  0  0  0  0  0  0
  140.1850   71.7630  224.4640 N   0  0  0  0  0  0  0  0  0  0  0  0
  140.3770   72.0060  223.0820 C   0  0  0  0  0  0  0  0  0  0  0  0
  141.4170   71.5780  222.4930 O   0  0  0  0  0  0  0  0  0  0  0  0
  139.3210   72.7750  222.3690 C   0  0  0  0  0  0  0  0  0  0  0  0
  139.6250   74.1930  222.3320 N   0  0  0  0  0  0  0  0  0  0  0  0
  140.7380   74.6400  221.5710 C   0  0  0  0  0  0  0  0  0  0  0  0
  141.4490   73.8060  220.9350 O   0  0  0  0  0  0  0  0  0  0  0  0
  141.0390   76.0680  221.5390 C   0  0  0  0  0  0  0  0  0  0  0  0
  141.2940   76.6660  220.3100 C   0  0  0  0  0  0  0  0  0  0  0  0
  141.5840   78.0130  220.2240 C   0  0  0  0  0  0  0  0  0  0  0  0
  141.6210   78.7790  221.3690 C   0  0  0  0  0  0  0  0  0  0  0  0
  141.9130   80.1250  221.2680 C   0  0  0  0  0  0  0  0  0  0  0  0
  141.9410   80.8610  222.4360 C   0  0  0  0  0  0  0  0  0  0  0  0
  141.6880   80.2750  223.6610 C   0  0  0  0  0  0  0  0  0  0  0  0
  141.3940   78.9100  223.7490 C   0  0  0  0  0  0  0  0  0  0  0  0
  141.3630   78.1600  222.5780 C   0  0  0  0  0  0  0  0  0  0  0  0
  141.0800   76.8350  222.6460 N   0  0  0  0  0  0  0  0  0  0  0  0
  140.6290   69.7400  225.6250 C   0  0  0  0  0  0  0  0  0  0  0  0
  139.3020   69.4530  225.3160 C   0  0  0  0  0  0  0  0  0  0  0  0
  138.7610   68.2570  225.7430 C   0  0  0  0  0  0  0  0  0  0  0  0
  139.4910   67.3340  226.4700 C   0  0  0  0  0  0  0  0  0  0  0  0
  140.8100   67.6130  226.7820 C   0  0  0  0  0  0  0  0  0  0  0  0
  141.3340   68.8140  226.3450 C   0  0  0  0  0  0  0  0  0  0  0  0
  140.4337   72.4100  229.0956 H   0  0  0  0  0  0  0  0  0  0  0  0
  139.5216   71.0185  228.4184 H   0  0  0  0  0  0  0  0  0  0  0  0
  141.3178   71.0006  228.4184 H   0  0  0  0  0  0  0  0  0  0  0  0
  142.1255   72.7710  226.0468 H   0  0  0  0  0  0  0  0  0  0  0  0
  142.2523   71.2939  227.0547 H   0  0  0  0  0  0  0  0  0  0  0  0
  142.0875   70.7963  224.5453 H   0  0  0  0  0  0  0  0  0  0  0  0
  139.3570   72.0830  225.0130 H   0  0  0  0  0  0  0  0  0  0  0  0
  139.2413   72.4001  221.3379 H   0  0  0  0  0  0  0  0  0  0  0  0
  138.3731   72.6407  222.9106 H   0  0  0  0  0  0  0  0  0  0  0  0
  139.0280   74.8760  222.8640 H   0  0  0  0  0  0  0  0  0  0  0  0
  141.2643   76.0577  219.3940 H   0  0  0  0  0  0  0  0  0  0  0  0
  141.7848   78.4731  219.2452 H   0  0  0  0  0  0  0  0  0  0  0  0
  142.1157   80.5933  220.2935 H   0  0  0  0  0  0  0  0  0  0  0  0
  142.1695   81.9360  222.3900 H   0  0  0  0  0  0  0  0  0  0  0  0
  141.7179   80.8866  224.5748 H   0  0  0  0  0  0  0  0  0  0  0  0
  141.1918   78.4402  224.7229 H   0  0  0  0  0  0  0  0  0  0  0  0
  138.6948   70.1676  224.7410 H   0  0  0  0  0  0  0  0  0  0  0  0
  137.7132   68.0301  225.4966 H   0  0  0  0  0  0  0  0  0  0  0  0
  139.0290   66.3904  226.7959 H   0  0  0  0  0  0  0  0  0  0  0  0
  141.4205   66.9024  227.3585 H   0  0  0  0  0  0  0  0  0  0  0  0
  142.3821   69.0400  226.5908 H   0  0  0  0  0  0  0  0  0  0  0  0
  1  2  1  0
  2  3  1  0
  3  4  1  0
  4  5  1  0
  5  6  1  0
  6  7  2  0
  6  8  1  0
  8  9  1  0
  9 10  1  0
 10 11  2  0
 10 12  1  0
 12 13  2  0
 13 14  1  0
 14 15  2  0
 15 16  1  0
 16 17  2  0
 17 18  1  0
 18 19  2  0
 19 20  1  0
 20 21  2  0
  4 22  1  0
 22 23  2  0
 23 24  1  0
 24 25  2  0
 25 26  1  0
 26 27  2  0
 21 12  1  0
 27 22  1  0
 20 15  1  0
  1 28  1  0
  1 29  1  0
  1 30  1  0
  3 31  1  0
  3 32  1  0
  4 33  1  6
  5 34  1  0
  8 35  1  0
  8 36  1  0
  9 37  1  0
 13 38  1  0
 14 39  1  0
 16 40  1  0
 17 41  1  0
 18 42  1  0
 19 43  1  0
 23 44  1  0
 24 45  1  0
 25 46  1  0
 26 47  1  0
 27 48  1  0
M  END
>  <smiles>  (30) 
COC[C@H](NC(=O)CNC(=O)c1ccc2ccccc2n1)c1ccccc1

>  <score_type>  (30) 
oracle

>  <origin>  (30) 
autodockgpu

>  <m_score__min__energy>  (30) 
-8.1999999999999993

>  <m_primary>  (30) 
energy

>  <rmsd>  (30) 
10.427617879090837

>  <m_score__min__rmsd>  (30) 
10.427617879090837

>  <meeko>  (30) 
{"free_energy": -8.2, "intermolecular_energy": -10.29, "internal_energy": -1.89, "cluster_size": 2, "cluster_id": 1, "rank_in_cluster": 1}

>  <energy>  (30) 
-6.97

>  <cluster_rmsd>  (30) 
1.34

>  <cluster>  (30) 
6

$$$$

     RDKit          3D

 48 50  0  0  0  0  0  0  0  0999 V2000
  144.1560   71.5390  219.9020 C   0  0  0  0  0  0  0  0  0  0  0  0
  143.8710   72.4950  220.8590 O   0  0  0  0  0  0  0  0  0  0  0  0
  144.4470   73.7110  220.4780 C   0  0  0  0  0  0  0  0  0  0  0  0
  143.3630   74.7960  220.4710 C   0  0  2  0  0  0  0  0  0  0  0  0
  142.0990   74.0970  220.6530 N   0  0  0  0  0  0  0  0  0  0  0  0
  140.9450   74.8710  220.9240 C   0  0  0  0  0  0  0  0  0  0  0  0
  141.0240   76.1360  221.0050 O   0  0  0  0  0  0  0  0  0  0  0  0
  139.6590   74.1440  221.1070 C   0  0  0  0  0  0  0  0  0  0  0  0
  139.6360   73.4080  222.3570 N   0  0  0  0  0  0  0  0  0  0  0  0
  140.2020   72.1050  222.4010 C   0  0  0  0  0  0  0  0  0  0  0  0
  140.7190   71.6020  221.3590 O   0  0  0  0  0  0  0  0  0  0  0  0
  140.1750   71.3690  223.6610 C   0  0  0  0  0  0  0  0  0  0  0  0
  139.6600   70.0780  223.6660 C   0  0  0  0  0  0  0  0  0  0  0  0
  139.6110   69.3390  224.8320 C   0  0  0  0  0  0  0  0  0  0  0  0
  140.0790   69.8850  226.0070 C   0  0  0  0  0  0  0  0  0  0  0  0
  140.0230   69.1350  227.1660 C   0  0  0  0  0  0  0  0  0  0  0  0
  140.5010   69.7140  228.3250 C   0  0  0  0  0  0  0  0  0  0  0  0
  141.0140   70.9970  228.3280 C   0  0  0  0  0  0  0  0  0  0  0  0
  141.0640   71.7460  227.1470 C   0  0  0  0  0  0  0  0  0  0  0  0
  140.5860   71.1710  225.9750 C   0  0  0  0  0  0  0  0  0  0  0  0
  140.6270   71.8840  224.8220 N   0  0  0  0  0  0  0  0  0  0  0  0
  143.3400   75.4700  219.1660 C   0  0  0  0  0  0  0  0  0  0  0  0
  143.6840   74.7520  218.0240 C   0  0  0  0  0  0  0  0  0  0  0  0
  143.6610   75.3910  216.8010 C   0  0  0  0  0  0  0  0  0  0  0  0
  143.3080   76.7220  216.6700 C   0  0  0  0  0  0  0  0  0  0  0  0
  142.9650   77.4430  217.8000 C   0  0  0  0  0  0  0  0  0  0  0  0
  142.9930   76.7860  219.0150 C   0  0  0  0  0  0  0  0  0  0  0  0
  144.4367   70.5974  220.3966 H   0  0  0  0  0  0  0  0  0  0  0  0
  143.2683   71.3728  219.2740 H   0  0  0  0  0  0  0  0  0  0  0  0
  144.9898   71.8860  219.2740 H   0  0  0  0  0  0  0  0  0  0  0  0
  145.2379   73.9843  221.1920 H   0  0  0  0  0  0  0  0  0  0  0  0
  144.8849   73.6164  219.4734 H   0  0  0  0  0  0  0  0  0  0  0  0
  143.5456   75.5474  221.2534 H   0  0  0  0  0  0  0  0  0  0  0  0
  142.1090   73.0570  220.5720 H   0  0  0  0  0  0  0  0  0  0  0  0
  138.8340   74.8716  221.1057 H   0  0  0  0  0  0  0  0  0  0  0  0
  139.5492   73.4250  220.2818 H   0  0  0  0  0  0  0  0  0  0  0  0
  139.2040   73.8350  223.2150 H   0  0  0  0  0  0  0  0  0  0  0  0
  139.2865   69.6390  222.7291 H   0  0  0  0  0  0  0  0  0  0  0  0
  139.2000   68.3187  224.8223 H   0  0  0  0  0  0  0  0  0  0  0  0
  139.6128   68.1144  227.1656 H   0  0  0  0  0  0  0  0  0  0  0  0
  140.4728   69.1425  229.2645 H   0  0  0  0  0  0  0  0  0  0  0  0
  141.3862   71.4333  229.2667 H   0  0  0  0  0  0  0  0  0  0  0  0
  141.4725   72.7673  227.1460 H   0  0  0  0  0  0  0  0  0  0  0  0
  143.9696   73.6921  218.0953 H   0  0  0  0  0  0  0  0  0  0  0  0
  143.9327   74.8223  215.8994 H   0  0  0  0  0  0  0  0  0  0  0  0
  143.3001   77.2012  215.6799 H   0  0  0  0  0  0  0  0  0  0  0  0
  142.6797   78.5033  217.7332 H   0  0  0  0  0  0  0  0  0  0  0  0
  142.7199   77.3548  219.9161 H   0  0  0  0  0  0  0  0  0  0  0  0
  1  2  1  0
  2  3  1  0
  3  4  1  0
  4  5  1  0
  5  6  1  0
  6  7  2  0
  6  8  1  0
  8  9  1  0
  9 10  1  0
 10 11  2  0
 10 12  1  0
 12 13  2  0
 13 14  1  0
 14 15  2  0
 15 16  1  0
 16 17  2  0
 17 18  1  0
 18 19  2  0
 19 20  1  0
 20 21  2  0
  4 22  1  0
 22 23  2  0
 23 24  1  0
 24 25  2  0
 25 26  1  0
 26 27  2  0
 21 12  1  0
 27 22  1  0
 20 15  1  0
  1 28  1  0
  1 29  1  0
  1 30  1  0
  3 31  1  0
  3 32  1  0
  4 33  1  1
  5 34  1  0
  8 35  1  0
  8 36  1  0
  9 37  1  0
 13 38  1  0
 14 39  1  0
 16 40  1  0
 17 41  1  0
 18 42  1  0
 19 43  1  0
 23 44  1  0
 24 45  1  0
 25 46  1  0
 26 47  1  0
 27 48  1  0
M  END
>  <smiles>  (31) 
COC[C@H](NC(=O)CNC(=O)c1ccc2ccccc2n1)c1ccccc1

>  <score_type>  (31) 
oracle

>  <origin>  (31) 
autodockgpu

>  <m_score__min__energy>  (31) 
-8.1999999999999993

>  <m_primary>  (31) 
energy

>  <rmsd>  (31) 
5.574473969733211

>  <m_score__min__rmsd>  (31) 
5.574473969733211

>  <meeko>  (31) 
{"free_energy": -7.0, "intermolecular_energy": -9.09, "internal_energy": -2.92, "cluster_size": 17, "cluster_id": 7, "rank_in_cluster": 17}

>  <energy>  (31) 
-6.95

>  <cluster_rmsd>  (31) 
1.31

>  <cluster>  (31) 
6

$$$$

     RDKit          3D

 48 50  0  0  0  0  0  0  0  0999 V2000
  144.0830   71.6170  220.0350 C   0  0  0  0  0  0  0  0  0  0  0  0
  143.8880   72.6800  220.8980 O   0  0  0  0  0  0  0  0  0  0  0  0
  144.3720   73.8490  220.3010 C   0  0  0  0  0  0  0  0  0  0  0  0
  143.2890   74.9320  220.3760 C   0  0  2  0  0  0  0  0  0  0  0  0
  142.0200   74.2230  220.4530 N   0  0  0  0  0  0  0  0  0  0  0  0
  140.9120   74.9020  221.0140 C   0  0  0  0  0  0  0  0  0  0  0  0
  141.0350   76.0940  221.4340 O   0  0  0  0  0  0  0  0  0  0  0  0
  139.6210   74.1650  221.0860 C   0  0  0  0  0  0  0  0  0  0  0  0
  139.5180   73.3870  222.3070 N   0  0  0  0  0  0  0  0  0  0  0  0
  140.3250   72.2280  222.4560 C   0  0  0  0  0  0  0  0  0  0  0  0
  141.1210   71.8850  221.5320 O   0  0  0  0  0  0  0  0  0  0  0  0
  140.2160   71.4490  223.6860 C   0  0  0  0  0  0  0  0  0  0  0  0
  139.6000   70.2040  223.6330 C   0  0  0  0  0  0  0  0  0  0  0  0
  139.4710   69.4280  224.7680 C   0  0  0  0  0  0  0  0  0  0  0  0
  139.9590   69.8910  225.9710 C   0  0  0  0  0  0  0  0  0  0  0  0
  139.8230   69.1040  227.0980 C   0  0  0  0  0  0  0  0  0  0  0  0
  140.3240   69.6000  228.2860 C   0  0  0  0  0  0  0  0  0  0  0  0
  140.9370   70.8360  228.3470 C   0  0  0  0  0  0  0  0  0  0  0  0
  141.0680   71.6230  227.1980 C   0  0  0  0  0  0  0  0  0  0  0  0
  140.5680   71.1320  225.9960 C   0  0  0  0  0  0  0  0  0  0  0  0
  140.6860   71.8830  224.8720 N   0  0  0  0  0  0  0  0  0  0  0  0
  143.3000   75.7350  219.1460 C   0  0  0  0  0  0  0  0  0  0  0  0
  142.9030   77.0690  219.2020 C   0  0  0  0  0  0  0  0  0  0  0  0
  142.9150   77.8180  218.0430 C   0  0  0  0  0  0  0  0  0  0  0  0
  143.3080   77.2900  216.8260 C   0  0  0  0  0  0  0  0  0  0  0  0
  143.7020   75.9650  216.7620 C   0  0  0  0  0  0  0  0  0  0  0  0
  143.6840   75.2310  217.9330 C   0  0  0  0  0  0  0  0  0  0  0  0
  144.2514   70.6987  220.6166 H   0  0  0  0  0  0  0  0  0  0  0  0
  143.1929   71.4914  219.4010 H   0  0  0  0  0  0  0  0  0  0  0  0
  144.9597   71.8155  219.4010 H   0  0  0  0  0  0  0  0  0  0  0  0
  145.2721   74.1898  220.8335 H   0  0  0  0  0  0  0  0  0  0  0  0
  144.6282   73.6513  219.2497 H   0  0  0  0  0  0  0  0  0  0  0  0
  143.4520   75.5989  221.2355 H   0  0  0  0  0  0  0  0  0  0  0  0
  141.9930   73.2450  220.0880 H   0  0  0  0  0  0  0  0  0  0  0  0
  138.7939   74.8895  221.0534 H   0  0  0  0  0  0  0  0  0  0  0  0
  139.5711   73.4736  220.2319 H   0  0  0  0  0  0  0  0  0  0  0  0
  138.8530   73.6810  223.0660 H   0  0  0  0  0  0  0  0  0  0  0  0
  139.2101   69.8319  222.6741 H   0  0  0  0  0  0  0  0  0  0  0  0
  138.9809   68.4448  224.7122 H   0  0  0  0  0  0  0  0  0  0  0  0
  139.3343   68.1196  227.0513 H   0  0  0  0  0  0  0  0  0  0  0  0
  140.2328   68.9981  229.2022 H   0  0  0  0  0  0  0  0  0  0  0  0
  141.3257   71.2049  229.3076 H   0  0  0  0  0  0  0  0  0  0  0  0
  141.5554   72.6081  227.2437 H   0  0  0  0  0  0  0  0  0  0  0  0
  142.5851   77.5181  220.1545 H   0  0  0  0  0  0  0  0  0  0  0  0
  142.6012   78.8713  218.0883 H   0  0  0  0  0  0  0  0  0  0  0  0
  143.3073   77.9154  215.9211 H   0  0  0  0  0  0  0  0  0  0  0  0
  144.0188   75.5113  215.8113 H   0  0  0  0  0  0  0  0  0  0  0  0
  143.9974   74.1776  217.8872 H   0  0  0  0  0  0  0  0  0  0  0  0
  1  2  1  0
  2  3  1  0
  3  4  1  0
  4  5  1  0
  5  6  1  0
  6  7  2  0
  6  8  1  0
  8  9  1  0
  9 10  1  0
 10 11  2  0
 10 12  1  0
 12 13  2  0
 13 14  1  0
 14 15  2  0
 15 16  1  0
 16 17  2  0
 17 18  1  0
 18 19  2  0
 19 20  1  0
 20 21  2  0
  4 22  1  0
 22 23  2  0
 23 24  1  0
 24 25  2  0
 25 26  1  0
 26 27  2  0
 21 12  1  0
 27 22  1  0
 20 15  1  0
  1 28  1  0
  1 29  1  0
  1 30  1  0
  3 31  1  0
  3 32  1  0
  4 33  1  1
  5 34  1  0
  8 35  1  0
  8 36  1  0
  9 37  1  0
 13 38  1  0
 14 39  1  0
 16 40  1  0
 17 41  1  0
 18 42  1  0
 19 43  1  0
 23 44  1  0
 24 45  1  0
 25 46  1  0
 26 47  1  0
 27 48  1  0
M  END
>  <smiles>  (32) 
COC[C@H](NC(=O)CNC(=O)c1ccc2ccccc2n1)c1ccccc1

>  <score_type>  (32) 
oracle

>  <origin>  (32) 
autodockgpu

>  <m_score__min__energy>  (32) 
-8.1999999999999993

>  <m_primary>  (32) 
energy

>  <rmsd>  (32) 
5.461153733501051

>  <m_score__min__rmsd>  (32) 
5.461153733501051

>  <meeko>  (32) 
{"free_energy": -7.18, "intermolecular_energy": -9.27, "internal_energy": -2.81, "cluster_size": 17, "cluster_id": 7, "rank_in_cluster": 1}

>  <energy>  (32) 
-6.93

>  <cluster_rmsd>  (32) 
1.39

>  <cluster>  (32) 
6

$$$$

     RDKit          3D

 48 50  0  0  0  0  0  0  0  0999 V2000
  139.9460   72.9440  221.8000 C   0  0  0  0  0  0  0  0  0  0  0  0
  139.8030   72.4530  223.0850 O   0  0  0  0  0  0  0  0  0  0  0  0
  140.8030   71.5080  223.3300 C   0  0  0  0  0  0  0  0  0  0  0  0
  140.2460   70.4200  224.2560 C   0  0  2  0  0  0  0  0  0  0  0  0
  138.8090   70.3940  224.0210 N   0  0  0  0  0  0  0  0  0  0  0  0
  138.1290   69.1660  224.2010 C   0  0  0  0  0  0  0  0  0  0  0  0
  138.7640   68.1260  224.5560 O   0  0  0  0  0  0  0  0  0  0  0  0
  136.6600   69.1540  223.9570 C   0  0  0  0  0  0  0  0  0  0  0  0
  136.0110   70.3090  224.5480 N   0  0  0  0  0  0  0  0  0  0  0  0
  134.7680   70.1370  225.2130 C   0  0  0  0  0  0  0  0  0  0  0  0
  134.2410   68.9870  225.2860 O   0  0  0  0  0  0  0  0  0  0  0  0
  134.1200   71.3030  225.8060 C   0  0  0  0  0  0  0  0  0  0  0  0
  133.0610   71.1010  226.6840 C   0  0  0  0  0  0  0  0  0  0  0  0
  132.4140   72.1700  227.2710 C   0  0  0  0  0  0  0  0  0  0  0  0
  132.8200   73.4560  226.9850 C   0  0  0  0  0  0  0  0  0  0  0  0
  132.1630   74.5150  227.5800 C   0  0  0  0  0  0  0  0  0  0  0  0
  132.5970   75.7890  227.2710 C   0  0  0  0  0  0  0  0  0  0  0  0
  133.6480   75.9990  226.3990 C   0  0  0  0  0  0  0  0  0  0  0  0
  134.3050   74.9160  225.8040 C   0  0  0  0  0  0  0  0  0  0  0  0
  133.8750   73.6290  226.1090 C   0  0  0  0  0  0  0  0  0  0  0  0
  134.5010   72.5680  225.5400 N   0  0  0  0  0  0  0  0  0  0  0  0
  140.4820   70.7890  225.6580 C   0  0  0  0  0  0  0  0  0  0  0  0
  139.9510   69.9920  226.6690 C   0  0  0  0  0  0  0  0  0  0  0  0
  140.1760   70.3440  227.9850 C   0  0  0  0  0  0  0  0  0  0  0  0
  140.9100   71.4630  228.3350 C   0  0  0  0  0  0  0  0  0  0  0  0
  141.4400   72.2610  227.3360 C   0  0  0  0  0  0  0  0  0  0  0  0
  141.2050   71.8920  226.0250 C   0  0  0  0  0  0  0  0  0  0  0  0
  140.2534   73.9993  221.8428 H   0  0  0  0  0  0  0  0  0  0  0  0
  140.7115   72.3604  221.2676 H   0  0  0  0  0  0  0  0  0  0  0  0
  138.9869   72.8628  221.2676 H   0  0  0  0  0  0  0  0  0  0  0  0
  141.1232   71.0553  222.3800 H   0  0  0  0  0  0  0  0  0  0  0  0
  141.6661   71.9955  223.8068 H   0  0  0  0  0  0  0  0  0  0  0  0
  140.7230   69.4482  224.0609 H   0  0  0  0  0  0  0  0  0  0  0  0
  138.3530   71.2880  223.7310 H   0  0  0  0  0  0  0  0  0  0  0  0
  136.4783   69.1587  222.8721 H   0  0  0  0  0  0  0  0  0  0  0  0
  136.2415   68.2490  224.4216 H   0  0  0  0  0  0  0  0  0  0  0  0
  136.4580   71.2590  224.4820 H   0  0  0  0  0  0  0  0  0  0  0  0
  132.7344   70.0761  226.9139 H   0  0  0  0  0  0  0  0  0  0  0  0
  131.5778   71.9963  227.9642 H   0  0  0  0  0  0  0  0  0  0  0  0
  131.3256   74.3499  228.2739 H   0  0  0  0  0  0  0  0  0  0  0  0
  132.0956   76.6546  227.7286 H   0  0  0  0  0  0  0  0  0  0  0  0
  133.9708   77.0255  226.1707 H   0  0  0  0  0  0  0  0  0  0  0  0
  135.1430   75.0791  225.1104 H   0  0  0  0  0  0  0  0  0  0  0  0
  139.3617   69.0963  226.4231 H   0  0  0  0  0  0  0  0  0  0  0  0
  139.7571   69.7128  228.7826 H   0  0  0  0  0  0  0  0  0  0  0  0
  141.0704   71.7154  229.3936 H   0  0  0  0  0  0  0  0  0  0  0  0
  142.0284   73.1586  227.5773 H   0  0  0  0  0  0  0  0  0  0  0  0
  141.6246   72.5232  225.2277 H   0  0  0  0  0  0  0  0  0  0  0  0
  1  2  1  0
  2  3  1  0
  3  4  1  0
  4  5  1  0
  5  6  1  0
  6  7  2  0
  6  8  1  0
  8  9  1  0
  9 10  1  0
 10 11  2  0
 10 12  1  0
 12 13  2  0
 13 14  1  0
 14 15  2  0
 15 16  1  0
 16 17  2  0
 17 18  1  0
 18 19  2  0
 19 20  1  0
 20 21  2  0
  4 22  1  0
 22 23  2  0
 23 24  1  0
 24 25  2  0
 25 26  1  0
 26 27  2  0
 21 12  1  0
 27 22  1  0
 20 15  1  0
  1 28  1  0
  1 29  1  0
  1 30  1  0
  3 31  1  0
  3 32  1  0
  4 33  1  6
  5 34  1  0
  8 35  1  0
  8 36  1  0
  9 37  1  0
 13 38  1  0
 14 39  1  0
 16 40  1  0
 17 41  1  0
 18 42  1  0
 19 43  1  0
 23 44  1  0
 24 45  1  0
 25 46  1  0
 26 47  1  0
 27 48  1  0
M  END
>  <smiles>  (33) 
COC[C@H](NC(=O)CNC(=O)c1ccc2ccccc2n1)c1ccccc1

>  <score_type>  (33) 
oracle

>  <origin>  (33) 
autodockgpu

>  <m_score__min__energy>  (33) 
-8.1999999999999993

>  <m_primary>  (33) 
energy

>  <rmsd>  (33) 
9.801696142727398

>  <m_score__min__rmsd>  (33) 
9.801696142727398

>  <meeko>  (33) 
{"free_energy": -7.66, "intermolecular_energy": -9.75, "internal_energy": -2.27, "cluster_size": 6, "cluster_id": 3, "rank_in_cluster": 2}

>  <energy>  (33) 
-6.92

>  <cluster_rmsd>  (33) 
1.32

>  <cluster>  (33) 
6

$$$$

     RDKit          3D

 48 50  0  0  0  0  0  0  0  0999 V2000
  135.6380   75.5670  224.1190 C   0  0  0  0  0  0  0  0  0  0  0  0
  136.8490   75.7010  223.4640 O   0  0  0  0  0  0  0  0  0  0  0  0
  137.0090   77.0310  223.0620 C   0  0  0  0  0  0  0  0  0  0  0  0
  138.2340   77.1310  222.1450 C   0  0  2  0  0  0  0  0  0  0  0  0
  138.8180   75.7980  222.1140 N   0  0  0  0  0  0  0  0  0  0  0  0
  139.2990   75.3120  220.8740 C   0  0  0  0  0  0  0  0  0  0  0  0
  139.2160   76.0270  219.8280 O   0  0  0  0  0  0  0  0  0  0  0  0
  139.8950   73.9480  220.8570 C   0  0  0  0  0  0  0  0  0  0  0  0
  139.7090   73.2690  222.1260 N   0  0  0  0  0  0  0  0  0  0  0  0
  140.4030   72.0510  222.3640 C   0  0  0  0  0  0  0  0  0  0  0  0
  141.1710   71.5740  221.4770 O   0  0  0  0  0  0  0  0  0  0  0  0
  140.2120   71.3730  223.6420 C   0  0  0  0  0  0  0  0  0  0  0  0
  139.5110   70.1720  223.6590 C   0  0  0  0  0  0  0  0  0  0  0  0
  139.3020   69.4900  224.8420 C   0  0  0  0  0  0  0  0  0  0  0  0
  139.7940   70.0030  226.0220 C   0  0  0  0  0  0  0  0  0  0  0  0
  139.5780   69.3100  227.1980 C   0  0  0  0  0  0  0  0  0  0  0  0
  140.0850   69.8540  228.3610 C   0  0  0  0  0  0  0  0  0  0  0  0
  140.7820   71.0470  228.3530 C   0  0  0  0  0  0  0  0  0  0  0  0
  140.9940   71.7380  227.1550 C   0  0  0  0  0  0  0  0  0  0  0  0
  140.4880   71.1980  225.9780 C   0  0  0  0  0  0  0  0  0  0  0  0
  140.6840   71.8570  224.8080 N   0  0  0  0  0  0  0  0  0  0  0  0
  139.2160   78.0580  222.7220 C   0  0  0  0  0  0  0  0  0  0  0  0
  140.5640   77.7090  222.7170 C   0  0  0  0  0  0  0  0  0  0  0  0
  141.4820   78.5840  223.2620 C   0  0  0  0  0  0  0  0  0  0  0  0
  141.1100   79.7970  223.8130 C   0  0  0  0  0  0  0  0  0  0  0  0
  139.7720   80.1500  223.8220 C   0  0  0  0  0  0  0  0  0  0  0  0
  138.8680   79.2620  223.2730 C   0  0  0  0  0  0  0  0  0  0  0  0
  135.8051   75.5855  225.2061 H   0  0  0  0  0  0  0  0  0  0  0  0
  134.9742   76.3972  223.8359 H   0  0  0  0  0  0  0  0  0  0  0  0
  135.1717   74.6118  223.8359 H   0  0  0  0  0  0  0  0  0  0  0  0
  136.1125   77.3621  222.5173 H   0  0  0  0  0  0  0  0  0  0  0  0
  137.1520   77.6716  223.9447 H   0  0  0  0  0  0  0  0  0  0  0  0
  137.9542   77.4919  221.1443 H   0  0  0  0  0  0  0  0  0  0  0  0
  138.8540   75.2680  223.0130 H   0  0  0  0  0  0  0  0  0  0  0  0
  139.4145   73.3581  220.0625 H   0  0  0  0  0  0  0  0  0  0  0  0
  140.9752   74.0463  220.6739 H   0  0  0  0  0  0  0  0  0  0  0  0
  139.0690   73.6740  222.8550 H   0  0  0  0  0  0  0  0  0  0  0  0
  139.1178   69.7597  222.7180 H   0  0  0  0  0  0  0  0  0  0  0  0
  138.7451   68.5414  224.8417 H   0  0  0  0  0  0  0  0  0  0  0  0
  139.0228   68.3604  227.2070 H   0  0  0  0  0  0  0  0  0  0  0  0
  139.9309   69.3267  229.3140 H   0  0  0  0  0  0  0  0  0  0  0  0
  141.1733   71.4567  229.2959 H   0  0  0  0  0  0  0  0  0  0  0  0
  141.5489   72.6877  227.1446 H   0  0  0  0  0  0  0  0  0  0  0  0
  140.8920   76.7517  222.2858 H   0  0  0  0  0  0  0  0  0  0  0  0
  142.5465   78.3070  223.2580 H   0  0  0  0  0  0  0  0  0  0  0  0
  141.8675   80.4718  224.2383 H   0  0  0  0  0  0  0  0  0  0  0  0
  139.4395   81.1062  224.2522 H   0  0  0  0  0  0  0  0  0  0  0  0
  137.8034   79.5390  223.2788 H   0  0  0  0  0  0  0  0  0  0  0  0
  1  2  1  0
  2  3  1  0
  3  4  1  0
  4  5  1  0
  5  6  1  0
  6  7  2  0
  6  8  1  0
  8  9  1  0
  9 10  1  0
 10 11  2  0
 10 12  1  0
 12 13  2  0
 13 14  1  0
 14 15  2  0
 15 16  1  0
 16 17  2  0
 17 18  1  0
 18 19  2  0
 19 20  1  0
 20 21  2  0
  4 22  1  0
 22 23  2  0
 23 24  1  0
 24 25  2  0
 25 26  1  0
 26 27  2  0
 21 12  1  0
 27 22  1  0
 20 15  1  0
  1 28  1  0
  1 29  1  0
  1 30  1  0
  3 31  1  0
  3 32  1  0
  4 33  1  6
  5 34  1  0
  8 35  1  0
  8 36  1  0
  9 37  1  0
 13 38  1  0
 14 39  1  0
 16 40  1  0
 17 41  1  0
 18 42  1  0
 19 43  1  0
 23 44  1  0
 24 45  1  0
 25 46  1  0
 26 47  1  0
 27 48  1  0
M  END
>  <smiles>  (34) 
COC[C@H](NC(=O)CNC(=O)c1ccc2ccccc2n1)c1ccccc1

>  <score_type>  (34) 
oracle

>  <origin>  (34) 
autodockgpu

>  <m_score__min__energy>  (34) 
-8.1999999999999993

>  <m_primary>  (34) 
energy

>  <rmsd>  (34) 
4.540019876965067

>  <m_score__min__rmsd>  (34) 
4.540019876965067

>  <meeko>  (34) 
{"free_energy": -8.0, "intermolecular_energy": -10.08, "internal_energy": -2.09, "cluster_size": 12, "cluster_id": 2, "rank_in_cluster": 1}

>  <energy>  (34) 
-7.18

>  <cluster_rmsd>  (34) 
0.0

>  <cluster>  (34) 
7

$$$$

     RDKit          3D

 48 50  0  0  0  0  0  0  0  0999 V2000
  142.8390   77.3330  217.4860 C   0  0  0  0  0  0  0  0  0  0  0  0
  141.6320   77.5720  218.1180 O   0  0  0  0  0  0  0  0  0  0  0  0
  141.8490   78.4010  219.2220 C   0  0  0  0  0  0  0  0  0  0  0  0
  141.8400   77.5460  220.4960 C   0  0  2  0  0  0  0  0  0  0  0  0
  140.8850   76.4750  220.2510 N   0  0  0  0  0  0  0  0  0  0  0  0
  140.7230   75.4880  221.2520 C   0  0  0  0  0  0  0  0  0  0  0  0
  141.3970   75.5450  222.3270 O   0  0  0  0  0  0  0  0  0  0  0  0
  139.7440   74.3980  220.9880 C   0  0  0  0  0  0  0  0  0  0  0  0
  139.5560   73.5550  222.1530 N   0  0  0  0  0  0  0  0  0  0  0  0
  140.4080   72.4320  222.3370 C   0  0  0  0  0  0  0  0  0  0  0  0
  141.3160   72.1790  221.4910 O   0  0  0  0  0  0  0  0  0  0  0  0
  140.2140   71.5880  223.5120 C   0  0  0  0  0  0  0  0  0  0  0  0
  139.4810   70.4140  223.3730 C   0  0  0  0  0  0  0  0  0  0  0  0
  139.2680   69.5800  224.4530 C   0  0  0  0  0  0  0  0  0  0  0  0
  139.7870   69.9120  225.6860 C   0  0  0  0  0  0  0  0  0  0  0  0
  139.5660   69.0690  226.7570 C   0  0  0  0  0  0  0  0  0  0  0  0
  140.1010   69.4330  227.9770 C   0  0  0  0  0  0  0  0  0  0  0  0
  140.8300   70.5980  228.1230 C   0  0  0  0  0  0  0  0  0  0  0  0
  141.0460   71.4430  227.0290 C   0  0  0  0  0  0  0  0  0  0  0  0
  140.5120   71.0840  225.7970 C   0  0  0  0  0  0  0  0  0  0  0  0
  140.7120   71.8930  224.7260 N   0  0  0  0  0  0  0  0  0  0  0  0
  141.3600   78.3470  221.6310 C   0  0  0  0  0  0  0  0  0  0  0  0
  142.2850   79.0100  222.4330 C   0  0  0  0  0  0  0  0  0  0  0  0
  141.8280   79.7610  223.4980 C   0  0  0  0  0  0  0  0  0  0  0  0
  140.4820   79.8760  223.7970 C   0  0  0  0  0  0  0  0  0  0  0  0
  139.5580   79.2190  223.0050 C   0  0  0  0  0  0  0  0  0  0  0  0
  140.0330   78.4730  221.9440 C   0  0  0  0  0  0  0  0  0  0  0  0
  143.6238   77.1776  218.2410 H   0  0  0  0  0  0  0  0  0  0  0  0
  142.7521   76.4346  216.8572 H   0  0  0  0  0  0  0  0  0  0  0  0
  143.1010   78.1967  216.8572 H   0  0  0  0  0  0  0  0  0  0  0  0
  142.8227   78.9028  219.1211 H   0  0  0  0  0  0  0  0  0  0  0  0
  141.0561   79.1613  219.2782 H   0  0  0  0  0  0  0  0  0  0  0  0
  142.8465   77.1683  220.7293 H   0  0  0  0  0  0  0  0  0  0  0  0
  140.3660   76.4920  219.3450 H   0  0  0  0  0  0  0  0  0  0  0  0
  138.7778   74.8453  220.7115 H   0  0  0  0  0  0  0  0  0  0  0  0
  140.1362   73.7738  220.1716 H   0  0  0  0  0  0  0  0  0  0  0  0
  138.7990   73.7750  222.8490 H   0  0  0  0  0  0  0  0  0  0  0  0
  139.0656   70.1464  222.3902 H   0  0  0  0  0  0  0  0  0  0  0  0
  138.6865   68.6545  224.3297 H   0  0  0  0  0  0  0  0  0  0  0  0
  138.9853   68.1418  226.6427 H   0  0  0  0  0  0  0  0  0  0  0  0
  139.9438   68.7826  228.8501 H   0  0  0  0  0  0  0  0  0  0  0  0
  141.2437   70.8630  229.1072 H   0  0  0  0  0  0  0  0  0  0  0  0
  141.6257   72.3711  227.1414 H   0  0  0  0  0  0  0  0  0  0  0  0
  143.3621   78.9368  222.2218 H   0  0  0  0  0  0  0  0  0  0  0  0
  142.5592   80.2858  224.1304 H   0  0  0  0  0  0  0  0  0  0  0  0
  140.1512   80.4820  224.6533 H   0  0  0  0  0  0  0  0  0  0  0  0
  138.4801   79.2883  223.2132 H   0  0  0  0  0  0  0  0  0  0  0  0
  139.3010   77.9484  221.3123 H   0  0  0  0  0  0  0  0  0  0  0  0
  1  2  1  0
  2  3  1  0
  3  4  1  0
  4  5  1  0
  5  6  1  0
  6  7  2  0
  6  8  1  0
  8  9  1  0
  9 10  1  0
 10 11  2  0
 10 12  1  0
 12 13  2  0
 13 14  1  0
 14 15  2  0
 15 16  1  0
 16 17  2  0
 17 18  1  0
 18 19  2  0
 19 20  1  0
 20 21  2  0
  4 22  1  0
 22 23  2  0
 23 24  1  0
 24 25  2  0
 25 26  1  0
 26 27  2  0
 21 12  1  0
 27 22  1  0
 20 15  1  0
  1 28  1  0
  1 29  1  0
  1 30  1  0
  3 31  1  0
  3 32  1  0
  4 33  1  1
  5 34  1  0
  8 35  1  0
  8 36  1  0
  9 37  1  0
 13 38  1  0
 14 39  1  0
 16 40  1  0
 17 41  1  0
 18 42  1  0
 19 43  1  0
 23 44  1  0
 24 45  1  0
 25 46  1  0
 26 47  1  0
 27 48  1  0
M  END
>  <smiles>  (35) 
COC[C@H](NC(=O)CNC(=O)c1ccc2ccccc2n1)c1ccccc1

>  <score_type>  (35) 
oracle

>  <origin>  (35) 
autodockgpu

>  <m_score__min__energy>  (35) 
-8.1999999999999993

>  <m_primary>  (35) 
energy

>  <rmsd>  (35) 
4.073657529392469

>  <m_score__min__rmsd>  (35) 
4.073657529392469

>  <meeko>  (35) 
{"free_energy": -7.85, "intermolecular_energy": -9.94, "internal_energy": -1.96, "cluster_size": 1, "cluster_id": 4, "rank_in_cluster": 1}

>  <energy>  (35) 
-7.17

>  <cluster_rmsd>  (35) 
0.1

>  <cluster>  (35) 
7

$$$$

     RDKit          3D

 48 50  0  0  0  0  0  0  0  0999 V2000
  144.2030   71.6610  219.8510 C   0  0  0  0  0  0  0  0  0  0  0  0
  143.9290   72.6030  220.8250 O   0  0  0  0  0  0  0  0  0  0  0  0
  144.4690   73.8340  220.4380 C   0  0  0  0  0  0  0  0  0  0  0  0
  143.3530   74.8860  220.4220 C   0  0  2  0  0  0  0  0  0  0  0  0
  142.1070   74.1470  220.5630 N   0  0  0  0  0  0  0  0  0  0  0  0
  140.9330   74.8760  220.8680 C   0  0  0  0  0  0  0  0  0  0  0  0
  140.9790   76.1370  221.0140 O   0  0  0  0  0  0  0  0  0  0  0  0
  139.6660   74.1080  221.0090 C   0  0  0  0  0  0  0  0  0  0  0  0
  139.6160   73.3840  222.2650 N   0  0  0  0  0  0  0  0  0  0  0  0
  140.2570   72.1200  222.3580 C   0  0  0  0  0  0  0  0  0  0  0  0
  140.8620   71.6390  221.3540 O   0  0  0  0  0  0  0  0  0  0  0  0
  140.2040   71.3960  223.6250 C   0  0  0  0  0  0  0  0  0  0  0  0
  139.6650   70.1150  223.6370 C   0  0  0  0  0  0  0  0  0  0  0  0
  139.5910   69.3880  224.8090 C   0  0  0  0  0  0  0  0  0  0  0  0
  140.0570   69.9370  225.9840 C   0  0  0  0  0  0  0  0  0  0  0  0
  139.9760   69.1980  227.1480 C   0  0  0  0  0  0  0  0  0  0  0  0
  140.4530   69.7800  228.3070 C   0  0  0  0  0  0  0  0  0  0  0  0
  140.9910   71.0520  228.3030 C   0  0  0  0  0  0  0  0  0  0  0  0
  141.0660   71.7890  227.1160 C   0  0  0  0  0  0  0  0  0  0  0  0
  140.5890   71.2120  225.9450 C   0  0  0  0  0  0  0  0  0  0  0  0
  140.6540   71.9140  224.7850 N   0  0  0  0  0  0  0  0  0  0  0  0
  143.3400   75.5810  219.1280 C   0  0  0  0  0  0  0  0  0  0  0  0
  142.9570   76.9180  219.0790 C   0  0  0  0  0  0  0  0  0  0  0  0
  142.9460   77.5660  217.8600 C   0  0  0  0  0  0  0  0  0  0  0  0
  143.3010   76.9310  216.6840 C   0  0  0  0  0  0  0  0  0  0  0  0
  143.6810   75.6010  216.7240 C   0  0  0  0  0  0  0  0  0  0  0  0
  143.6870   74.9700  217.9530 C   0  0  0  0  0  0  0  0  0  0  0  0
  144.4798   70.7095  220.3286 H   0  0  0  0  0  0  0  0  0  0  0  0
  143.3112   71.5111  219.2247 H   0  0  0  0  0  0  0  0  0  0  0  0
  145.0360   72.0128  219.2247 H   0  0  0  0  0  0  0  0  0  0  0  0
  145.2495   74.1352  221.1522 H   0  0  0  0  0  0  0  0  0  0  0  0
  144.9118   73.7467  219.4349 H   0  0  0  0  0  0  0  0  0  0  0  0
  143.4947   75.6294  221.2203 H   0  0  0  0  0  0  0  0  0  0  0  0
  142.1440   73.1120  220.4290 H   0  0  0  0  0  0  0  0  0  0  0  0
  138.8182   74.8076  220.9665 H   0  0  0  0  0  0  0  0  0  0  0  0
  139.6144   73.3769  220.1888 H   0  0  0  0  0  0  0  0  0  0  0  0
  139.1120   73.7930  223.0920 H   0  0  0  0  0  0  0  0  0  0  0  0
  139.2924   69.6743  222.7006 H   0  0  0  0  0  0  0  0  0  0  0  0
  139.1620   68.3751  224.8046 H   0  0  0  0  0  0  0  0  0  0  0  0
  139.5480   68.1847  227.1523 H   0  0  0  0  0  0  0  0  0  0  0  0
  140.4032   69.2189  229.2518 H   0  0  0  0  0  0  0  0  0  0  0  0
  141.3637   71.4894  229.2409 H   0  0  0  0  0  0  0  0  0  0  0  0
  141.4930   72.8027  227.1097 H   0  0  0  0  0  0  0  0  0  0  0  0
  142.6676   77.4502  219.9972 H   0  0  0  0  0  0  0  0  0  0  0  0
  142.6446   78.6233  217.8230 H   0  0  0  0  0  0  0  0  0  0  0  0
  143.2816   77.4762  215.7288 H   0  0  0  0  0  0  0  0  0  0  0  0
  143.9686   75.0642  215.8080 H   0  0  0  0  0  0  0  0  0  0  0  0
  143.9888   73.9128  217.9897 H   0  0  0  0  0  0  0  0  0  0  0  0
  1  2  1  0
  2  3  1  0
  3  4  1  0
  4  5  1  0
  5  6  1  0
  6  7  2  0
  6  8  1  0
  8  9  1  0
  9 10  1  0
 10 11  2  0
 10 12  1  0
 12 13  2  0
 13 14  1  0
 14 15  2  0
 15 16  1  0
 16 17  2  0
 17 18  1  0
 18 19  2  0
 19 20  1  0
 20 21  2  0
  4 22  1  0
 22 23  2  0
 23 24  1  0
 24 25  2  0
 25 26  1  0
 26 27  2  0
 21 12  1  0
 27 22  1  0
 20 15  1  0
  1 28  1  0
  1 29  1  0
  1 30  1  0
  3 31  1  0
  3 32  1  0
  4 33  1  1
  5 34  1  0
  8 35  1  0
  8 36  1  0
  9 37  1  0
 13 38  1  0
 14 39  1  0
 16 40  1  0
 17 41  1  0
 18 42  1  0
 19 43  1  0
 23 44  1  0
 24 45  1  0
 25 46  1  0
 26 47  1  0
 27 48  1  0
M  END
>  <smiles>  (36) 
COC[C@H](NC(=O)CNC(=O)c1ccc2ccccc2n1)c1ccccc1

>  <score_type>  (36) 
oracle

>  <origin>  (36) 
autodockgpu

>  <m_score__min__energy>  (36) 
-8.1999999999999993

>  <m_primary>  (36) 
energy

>  <rmsd>  (36) 
5.5515249743521515

>  <m_score__min__rmsd>  (36) 
5.5515249743521515

>  <meeko>  (36) 
{"free_energy": -7.07, "intermolecular_energy": -9.16, "internal_energy": -2.88, "cluster_size": 17, "cluster_id": 7, "rank_in_cluster": 13}

>  <energy>  (36) 
-7.16

>  <cluster_rmsd>  (36) 
0.09

>  <cluster>  (36) 
7

$$$$

     RDKit          3D

 48 50  0  0  0  0  0  0  0  0999 V2000
  135.3620   74.5040  224.4710 C   0  0  0  0  0  0  0  0  0  0  0  0
  135.8760   74.8870  223.2450 O   0  0  0  0  0  0  0  0  0  0  0  0
  136.6790   76.0180  223.4170 C   0  0  0  0  0  0  0  0  0  0  0  0
  137.5950   76.1700  222.1960 C   0  0  2  0  0  0  0  0  0  0  0  0
  138.1530   74.8480  221.9500 N   0  0  0  0  0  0  0  0  0  0  0  0
  137.9320   74.2590  220.6820 C   0  0  0  0  0  0  0  0  0  0  0  0
  137.2640   74.8760  219.7950 O   0  0  0  0  0  0  0  0  0  0  0  0
  138.5080   72.9080  220.4440 C   0  0  0  0  0  0  0  0  0  0  0  0
  138.5400   72.1180  221.6600 N   0  0  0  0  0  0  0  0  0  0  0  0
  139.5880   72.3330  222.5950 C   0  0  0  0  0  0  0  0  0  0  0  0
  140.4780   73.2040  222.3620 O   0  0  0  0  0  0  0  0  0  0  0  0
  139.6140   71.5350  223.8180 C   0  0  0  0  0  0  0  0  0  0  0  0
  138.8710   70.3610  223.8610 C   0  0  0  0  0  0  0  0  0  0  0  0
  138.8610   69.5700  224.9930 C   0  0  0  0  0  0  0  0  0  0  0  0
  139.5950   69.9470  226.0960 C   0  0  0  0  0  0  0  0  0  0  0  0
  139.5750   69.1460  227.2220 C   0  0  0  0  0  0  0  0  0  0  0  0
  140.3230   69.5550  228.3080 C   0  0  0  0  0  0  0  0  0  0  0  0
  141.0640   70.7210  228.2730 C   0  0  0  0  0  0  0  0  0  0  0  0
  141.0750   71.5220  227.1270 C   0  0  0  0  0  0  0  0  0  0  0  0
  140.3260   71.1190  226.0270 C   0  0  0  0  0  0  0  0  0  0  0  0
  140.3250   71.8850  224.9070 N   0  0  0  0  0  0  0  0  0  0  0  0
  138.6970   77.0900  222.5090 C   0  0  0  0  0  0  0  0  0  0  0  0
  140.0090   76.6720  222.3070 C   0  0  0  0  0  0  0  0  0  0  0  0
  141.0400   77.5410  222.6030 C   0  0  0  0  0  0  0  0  0  0  0  0
  140.8140   78.8140  223.0960 C   0  0  0  0  0  0  0  0  0  0  0  0
  139.5130   79.2360  223.3010 C   0  0  0  0  0  0  0  0  0  0  0  0
  138.4940   78.3520  222.9980 C   0  0  0  0  0  0  0  0  0  0  0  0
  135.9627   74.9516  225.2764 H   0  0  0  0  0  0  0  0  0  0  0  0
  134.3206   74.8481  224.5557 H   0  0  0  0  0  0  0  0  0  0  0  0
  135.3939   73.4077  224.5557 H   0  0  0  0  0  0  0  0  0  0  0  0
  136.0433   76.9104  223.5146 H   0  0  0  0  0  0  0  0  0  0  0  0
  137.2874   75.9072  224.3267 H   0  0  0  0  0  0  0  0  0  0  0  0
  137.0422   76.5628  221.3299 H   0  0  0  0  0  0  0  0  0  0  0  0
  138.6910   74.4010  222.7250 H   0  0  0  0  0  0  0  0  0  0  0  0
  137.8945   72.3855  219.6952 H   0  0  0  0  0  0  0  0  0  0  0  0
  139.5414   73.0330  220.0883 H   0  0  0  0  0  0  0  0  0  0  0  0
  137.7960   71.3980  221.8430 H   0  0  0  0  0  0  0  0  0  0  0  0
  138.2833   70.0580  222.9819 H   0  0  0  0  0  0  0  0  0  0  0  0
  138.2694   68.6429  225.0138 H   0  0  0  0  0  0  0  0  0  0  0  0
  138.9855   68.2178  227.2519 H   0  0  0  0  0  0  0  0  0  0  0  0
  140.3293   68.9400  229.2200 H   0  0  0  0  0  0  0  0  0  0  0  0
  141.6500   71.0214  229.1541 H   0  0  0  0  0  0  0  0  0  0  0  0
  141.6634   72.4509  227.0963 H   0  0  0  0  0  0  0  0  0  0  0  0
  140.2211   75.6653  221.9177 H   0  0  0  0  0  0  0  0  0  0  0  0
  142.0765   77.2102  222.4414 H   0  0  0  0  0  0  0  0  0  0  0  0
  141.6583   79.4818  223.3220 H   0  0  0  0  0  0  0  0  0  0  0  0
  139.2962   80.2411  223.6919 H   0  0  0  0  0  0  0  0  0  0  0  0
  137.4575   78.6830  223.1597 H   0  0  0  0  0  0  0  0  0  0  0  0
  1  2  1  0
  2  3  1  0
  3  4  1  0
  4  5  1  0
  5  6  1  0
  6  7  2  0
  6  8  1  0
  8  9  1  0
  9 10  1  0
 10 11  2  0
 10 12  1  0
 12 13  2  0
 13 14  1  0
 14 15  2  0
 15 16  1  0
 16 17  2  0
 17 18  1  0
 18 19  2  0
 19 20  1  0
 20 21  2  0
  4 22  1  0
 22 23  2  0
 23 24  1  0
 24 25  2  0
 25 26  1  0
 26 27  2  0
 21 12  1  0
 27 22  1  0
 20 15  1  0
  1 28  1  0
  1 29  1  0
  1 30  1  0
  3 31  1  0
  3 32  1  0
  4 33  1  6
  5 34  1  0
  8 35  1  0
  8 36  1  0
  9 37  1  0
 13 38  1  0
 14 39  1  0
 16 40  1  0
 17 41  1  0
 18 42  1  0
 19 43  1  0
 23 44  1  0
 24 45  1  0
 25 46  1  0
 26 47  1  0
 27 48  1  0
M  END
>  <smiles>  (37) 
COC[C@H](NC(=O)CNC(=O)c1ccc2ccccc2n1)c1ccccc1

>  <score_type>  (37) 
oracle

>  <origin>  (37) 
autodockgpu

>  <m_score__min__energy>  (37) 
-8.1999999999999993

>  <m_primary>  (37) 
energy

>  <rmsd>  (37) 
4.9056997688228146

>  <m_score__min__rmsd>  (37) 
4.9056997688228146

>  <meeko>  (37) 
{"free_energy": -7.45, "intermolecular_energy": -9.54, "internal_energy": -2.27, "cluster_size": 12, "cluster_id": 2, "rank_in_cluster": 10}

>  <energy>  (37) 
-7.16

>  <cluster_rmsd>  (37) 
0.09

>  <cluster>  (37) 
7

$$$$

     RDKit          3D

 48 50  0  0  0  0  0  0  0  0999 V2000
  139.4640   75.8760  222.2210 C   0  0  0  0  0  0  0  0  0  0  0  0
  140.5270   74.9930  222.1760 O   0  0  0  0  0  0  0  0  0  0  0  0
  141.4370   75.4200  221.2040 C   0  0  0  0  0  0  0  0  0  0  0  0
  141.6590   74.2850  220.1970 C   0  0  2  0  0  0  0  0  0  0  0  0
  140.7210   73.2350  220.5660 N   0  0  0  0  0  0  0  0  0  0  0  0
  140.2580   72.3690  219.5460 C   0  0  0  0  0  0  0  0  0  0  0  0
  140.6550   72.5170  218.3490 O   0  0  0  0  0  0  0  0  0  0  0  0
  139.3000   71.3000  219.9380 C   0  0  0  0  0  0  0  0  0  0  0  0
  139.6240   70.7430  221.2380 N   0  0  0  0  0  0  0  0  0  0  0  0
  139.2040   71.4310  222.4070 C   0  0  0  0  0  0  0  0  0  0  0  0
  138.5560   72.5150  222.3080 O   0  0  0  0  0  0  0  0  0  0  0  0
  139.5330   70.8650  223.7120 C   0  0  0  0  0  0  0  0  0  0  0  0
  139.2830   69.5160  223.9340 C   0  0  0  0  0  0  0  0  0  0  0  0
  139.5750   68.9310  225.1500 C   0  0  0  0  0  0  0  0  0  0  0  0
  140.1230   69.6920  226.1600 C   0  0  0  0  0  0  0  0  0  0  0  0
  140.4100   69.0940  227.3720 C   0  0  0  0  0  0  0  0  0  0  0  0
  140.9580   69.8870  228.3600 C   0  0  0  0  0  0  0  0  0  0  0  0
  141.2100   71.2290  228.1480 C   0  0  0  0  0  0  0  0  0  0  0  0
  140.9140   71.8220  226.9160 C   0  0  0  0  0  0  0  0  0  0  0  0
  140.3620   71.0320  225.9140 C   0  0  0  0  0  0  0  0  0  0  0  0
  140.0690   71.5910  224.7130 N   0  0  0  0  0  0  0  0  0  0  0  0
  143.0240   73.7590  220.3290 C   0  0  0  0  0  0  0  0  0  0  0  0
  144.0870   74.6510  220.4490 C   0  0  0  0  0  0  0  0  0  0  0  0
  145.3680   74.1510  220.5730 C   0  0  0  0  0  0  0  0  0  0  0  0
  145.6330   72.7930  220.5820 C   0  0  0  0  0  0  0  0  0  0  0  0
  144.5820   71.9010  220.4620 C   0  0  0  0  0  0  0  0  0  0  0  0
  143.3070   72.4200  220.3400 C   0  0  0  0  0  0  0  0  0  0  0  0
  139.2081   76.0886  223.2695 H   0  0  0  0  0  0  0  0  0  0  0  0
  139.7430   76.8118  221.7147 H   0  0  0  0  0  0  0  0  0  0  0  0
  138.5952   75.4301  221.7147 H   0  0  0  0  0  0  0  0  0  0  0  0
  141.0345   76.3016  220.6836 H   0  0  0  0  0  0  0  0  0  0  0  0
  142.3919   75.6873  221.6800 H   0  0  0  0  0  0  0  0  0  0  0  0
  141.5143   74.6354  219.1644 H   0  0  0  0  0  0  0  0  0  0  0  0
  140.4390   73.1740  221.5690 H   0  0  0  0  0  0  0  0  0  0  0  0
  138.2861   71.7250  219.9744 H   0  0  0  0  0  0  0  0  0  0  0  0
  139.3612   70.4930  219.1930 H   0  0  0  0  0  0  0  0  0  0  0  0
  140.1620   69.8420  221.3080 H   0  0  0  0  0  0  0  0  0  0  0  0
  138.8464   68.9058  223.1296 H   0  0  0  0  0  0  0  0  0  0  0  0
  139.3712   67.8623  225.3120 H   0  0  0  0  0  0  0  0  0  0  0  0
  140.2093   68.0261  227.5431 H   0  0  0  0  0  0  0  0  0  0  0  0
  141.1991   69.4414  229.3364 H   0  0  0  0  0  0  0  0  0  0  0  0
  141.6470   71.8360  228.9546 H   0  0  0  0  0  0  0  0  0  0  0  0
  141.1136   72.8899  226.7439 H   0  0  0  0  0  0  0  0  0  0  0  0
  143.9088   75.7365  220.4451 H   0  0  0  0  0  0  0  0  0  0  0  0
  146.2066   74.8565  220.6679 H   0  0  0  0  0  0  0  0  0  0  0  0
  146.6655   72.4273  220.6832 H   0  0  0  0  0  0  0  0  0  0  0  0
  144.7556   70.8148  220.4637 H   0  0  0  0  0  0  0  0  0  0  0  0
  142.4687   71.7140  220.2460 H   0  0  0  0  0  0  0  0  0  0  0  0
  1  2  1  0
  2  3  1  0
  3  4  1  0
  4  5  1  0
  5  6  1  0
  6  7  2  0
  6  8  1  0
  8  9  1  0
  9 10  1  0
 10 11  2  0
 10 12  1  0
 12 13  2  0
 13 14  1  0
 14 15  2  0
 15 16  1  0
 16 17  2  0
 17 18  1  0
 18 19  2  0
 19 20  1  0
 20 21  2  0
  4 22  1  0
 22 23  2  0
 23 24  1  0
 24 25  2  0
 25 26  1  0
 26 27  2  0
 21 12  1  0
 27 22  1  0
 20 15  1  0
  1 28  1  0
  1 29  1  0
  1 30  1  0
  3 31  1  0
  3 32  1  0
  4 33  1  6
  5 34  1  0
  8 35  1  0
  8 36  1  0
  9 37  1  0
 13 38  1  0
 14 39  1  0
 16 40  1  0
 17 41  1  0
 18 42  1  0
 19 43  1  0
 23 44  1  0
 24 45  1  0
 25 46  1  0
 26 47  1  0
 27 48  1  0
M  END
>  <smiles>  (38) 
COC[C@H](NC(=O)CNC(=O)c1ccc2ccccc2n1)c1ccccc1

>  <score_type>  (38) 
oracle

>  <origin>  (38) 
autodockgpu

>  <m_score__min__energy>  (38) 
-8.1999999999999993

>  <m_primary>  (38) 
energy

>  <rmsd>  (38) 
6.676471239985857

>  <m_score__min__rmsd>  (38) 
6.676471239985857

>  <meeko>  (38) 
{"free_energy": -6.92, "intermolecular_energy": -9.01, "internal_energy": -2.96, "cluster_size": 10, "cluster_id": 6, "rank_in_cluster": 10}

>  <energy>  (38) 
-7.15

>  <cluster_rmsd>  (38) 
0.1

>  <cluster>  (38) 
7

$$$$

     RDKit          3D

 48 50  0  0  0  0  0  0  0  0999 V2000
  139.2090   75.7600  222.3260 C   0  0  0  0  0  0  0  0  0  0  0  0
  140.3470   74.9800  222.2270 O   0  0  0  0  0  0  0  0  0  0  0  0
  141.1670   75.4910  221.2150 C   0  0  0  0  0  0  0  0  0  0  0  0
  141.4940   74.3670  220.2240 C   0  0  2  0  0  0  0  0  0  0  0  0
  140.6260   73.2550  220.5820 N   0  0  0  0  0  0  0  0  0  0  0  0
  140.1680   72.4090  219.5430 C   0  0  0  0  0  0  0  0  0  0  0  0
  140.5100   72.6270  218.3390 O   0  0  0  0  0  0  0  0  0  0  0  0
  139.2820   71.2750  219.9220 C   0  0  0  0  0  0  0  0  0  0  0  0
  139.6270   70.7410  221.2260 N   0  0  0  0  0  0  0  0  0  0  0  0
  139.1660   71.4110  222.3910 C   0  0  0  0  0  0  0  0  0  0  0  0
  138.4620   72.4590  222.2840 O   0  0  0  0  0  0  0  0  0  0  0  0
  139.5170   70.8680  223.7000 C   0  0  0  0  0  0  0  0  0  0  0  0
  139.2820   69.5200  223.9450 C   0  0  0  0  0  0  0  0  0  0  0  0
  139.5950   68.9570  225.1660 C   0  0  0  0  0  0  0  0  0  0  0  0
  140.1490   69.7380  226.1570 C   0  0  0  0  0  0  0  0  0  0  0  0
  140.4570   69.1610  227.3740 C   0  0  0  0  0  0  0  0  0  0  0  0
  141.0110   69.9730  228.3430 C   0  0  0  0  0  0  0  0  0  0  0  0
  141.2480   71.3140  228.1070 C   0  0  0  0  0  0  0  0  0  0  0  0
  140.9310   71.8860  226.8700 C   0  0  0  0  0  0  0  0  0  0  0  0
  140.3730   71.0750  225.8870 C   0  0  0  0  0  0  0  0  0  0  0  0
  140.0590   71.6140  224.6820 N   0  0  0  0  0  0  0  0  0  0  0  0
  142.8910   73.9430  220.3940 C   0  0  0  0  0  0  0  0  0  0  0  0
  143.9040   74.8950  220.3200 C   0  0  0  0  0  0  0  0  0  0  0  0
  145.2140   74.4900  220.4800 C   0  0  0  0  0  0  0  0  0  0  0  0
  145.5550   73.1700  220.7110 C   0  0  0  0  0  0  0  0  0  0  0  0
  144.5540   72.2180  220.7860 C   0  0  0  0  0  0  0  0  0  0  0  0
  143.2490   72.6420  220.6240 C   0  0  0  0  0  0  0  0  0  0  0  0
  138.9686   75.9248  223.3867 H   0  0  0  0  0  0  0  0  0  0  0  0
  139.3845   76.7286  221.8350 H   0  0  0  0  0  0  0  0  0  0  0  0
  138.3689   75.2469  221.8350 H   0  0  0  0  0  0  0  0  0  0  0  0
  140.6434   76.3042  220.6911 H   0  0  0  0  0  0  0  0  0  0  0  0
  142.0968   75.8840  221.6522 H   0  0  0  0  0  0  0  0  0  0  0  0
  141.3487   74.6967  219.1847 H   0  0  0  0  0  0  0  0  0  0  0  0
  140.3870   73.1370  221.5910 H   0  0  0  0  0  0  0  0  0  0  0  0
  138.2404   71.6279  219.9449 H   0  0  0  0  0  0  0  0  0  0  0  0
  139.4093   70.4751  219.1778 H   0  0  0  0  0  0  0  0  0  0  0  0
  140.2120   69.8700  221.3030 H   0  0  0  0  0  0  0  0  0  0  0  0
  138.8408   68.8937  223.1556 H   0  0  0  0  0  0  0  0  0  0  0  0
  139.4029   67.8892  225.3471 H   0  0  0  0  0  0  0  0  0  0  0  0
  140.2677   68.0941  227.5637 H   0  0  0  0  0  0  0  0  0  0  0  0
  141.2690   69.5443  229.3226 H   0  0  0  0  0  0  0  0  0  0  0  0
  141.6897   71.9371  228.8986 H   0  0  0  0  0  0  0  0  0  0  0  0
  141.1188   72.9529  226.6791 H   0  0  0  0  0  0  0  0  0  0  0  0
  143.6645   75.9529  220.1370 H   0  0  0  0  0  0  0  0  0  0  0  0
  146.0138   75.2430  220.4217 H   0  0  0  0  0  0  0  0  0  0  0  0
  146.6091   72.8805  220.8336 H   0  0  0  0  0  0  0  0  0  0  0  0
  144.7892   71.1590  220.9685 H   0  0  0  0  0  0  0  0  0  0  0  0
  142.4496   71.8887  220.6834 H   0  0  0  0  0  0  0  0  0  0  0  0
  1  2  1  0
  2  3  1  0
  3  4  1  0
  4  5  1  0
  5  6  1  0
  6  7  2  0
  6  8  1  0
  8  9  1  0
  9 10  1  0
 10 11  2  0
 10 12  1  0
 12 13  2  0
 13 14  1  0
 14 15  2  0
 15 16  1  0
 16 17  2  0
 17 18  1  0
 18 19  2  0
 19 20  1  0
 20 21  2  0
  4 22  1  0
 22 23  2  0
 23 24  1  0
 24 25  2  0
 25 26  1  0
 26 27  2  0
 21 12  1  0
 27 22  1  0
 20 15  1  0
  1 28  1  0
  1 29  1  0
  1 30  1  0
  3 31  1  0
  3 32  1  0
  4 33  1  6
  5 34  1  0
  8 35  1  0
  8 36  1  0
  9 37  1  0
 13 38  1  0
 14 39  1  0
 16 40  1  0
 17 41  1  0
 18 42  1  0
 19 43  1  0
 23 44  1  0
 24 45  1  0
 25 46  1  0
 26 47  1  0
 27 48  1  0
M  END
>  <smiles>  (39) 
COC[C@H](NC(=O)CNC(=O)c1ccc2ccccc2n1)c1ccccc1

>  <score_type>  (39) 
oracle

>  <origin>  (39) 
autodockgpu

>  <m_score__min__energy>  (39) 
-8.1999999999999993

>  <m_primary>  (39) 
energy

>  <rmsd>  (39) 
6.569158605905484

>  <m_score__min__rmsd>  (39) 
6.569158605905484

>  <meeko>  (39) 
{"free_energy": -6.95, "intermolecular_energy": -9.03, "internal_energy": -3.01, "cluster_size": 10, "cluster_id": 6, "rank_in_cluster": 8}

>  <energy>  (39) 
-7.14

>  <cluster_rmsd>  (39) 
0.16

>  <cluster>  (39) 
7

$$$$

     RDKit          3D

 48 50  0  0  0  0  0  0  0  0999 V2000
  135.7590   75.5670  224.2150 C   0  0  0  0  0  0  0  0  0  0  0  0
  136.8580   75.6550  223.3800 O   0  0  0  0  0  0  0  0  0  0  0  0
  137.1100   77.0000  223.0940 C   0  0  0  0  0  0  0  0  0  0  0  0
  138.3290   77.0930  222.1680 C   0  0  2  0  0  0  0  0  0  0  0  0
  138.9100   75.7580  222.1390 N   0  0  0  0  0  0  0  0  0  0  0  0
  139.4780   75.3080  220.9230 C   0  0  0  0  0  0  0  0  0  0  0  0
  139.4740   76.0550  219.8960 O   0  0  0  0  0  0  0  0  0  0  0  0
  140.0690   73.9420  220.9070 C   0  0  0  0  0  0  0  0  0  0  0  0
  139.9510   73.2940  222.2000 N   0  0  0  0  0  0  0  0  0  0  0  0
  140.3470   71.9360  222.3290 C   0  0  0  0  0  0  0  0  0  0  0  0
  140.7950   71.3060  221.3260 O   0  0  0  0  0  0  0  0  0  0  0  0
  140.2260   71.2900  223.6330 C   0  0  0  0  0  0  0  0  0  0  0  0
  139.5900   70.0560  223.7080 C   0  0  0  0  0  0  0  0  0  0  0  0
  139.4500   69.4030  224.9160 C   0  0  0  0  0  0  0  0  0  0  0  0
  139.9450   69.9790  226.0660 C   0  0  0  0  0  0  0  0  0  0  0  0
  139.7970   69.3140  227.2680 C   0  0  0  0  0  0  0  0  0  0  0  0
  140.3050   69.9210  228.3990 C   0  0  0  0  0  0  0  0  0  0  0  0
  140.9380   71.1480  228.3340 C   0  0  0  0  0  0  0  0  0  0  0  0
  141.0810   71.8100  227.1100 C   0  0  0  0  0  0  0  0  0  0  0  0
  140.5730   71.2060  225.9650 C   0  0  0  0  0  0  0  0  0  0  0  0
  140.7030   71.8350  224.7690 N   0  0  0  0  0  0  0  0  0  0  0  0
  139.3180   78.0190  222.7360 C   0  0  0  0  0  0  0  0  0  0  0  0
  140.6650   77.6680  222.7200 C   0  0  0  0  0  0  0  0  0  0  0  0
  141.5900   78.5420  223.2550 C   0  0  0  0  0  0  0  0  0  0  0  0
  141.2240   79.7560  223.8080 C   0  0  0  0  0  0  0  0  0  0  0  0
  139.8870   80.1120  223.8280 C   0  0  0  0  0  0  0  0  0  0  0  0
  138.9770   79.2250  223.2870 C   0  0  0  0  0  0  0  0  0  0  0  0
  136.0918   75.5936  225.2631 H   0  0  0  0  0  0  0  0  0  0  0  0
  135.0839   76.4140  224.0230 H   0  0  0  0  0  0  0  0  0  0  0  0
  135.2273   74.6234  224.0230 H   0  0  0  0  0  0  0  0  0  0  0  0
  136.2341   77.4417  222.5963 H   0  0  0  0  0  0  0  0  0  0  0  0
  137.3090   77.5477  224.0270 H   0  0  0  0  0  0  0  0  0  0  0  0
  138.0432   77.4507  221.1678 H   0  0  0  0  0  0  0  0  0  0  0  0
  138.8780   75.2010  223.0210 H   0  0  0  0  0  0  0  0  0  0  0  0
  139.5447   73.3350  220.1543 H   0  0  0  0  0  0  0  0  0  0  0  0
  141.1379   74.0323  220.6636 H   0  0  0  0  0  0  0  0  0  0  0  0
  139.5770   73.8260  223.0260 H   0  0  0  0  0  0  0  0  0  0  0  0
  139.1930   69.5937  222.7922 H   0  0  0  0  0  0  0  0  0  0  0  0
  138.9453   68.4266  224.9606 H   0  0  0  0  0  0  0  0  0  0  0  0
  139.2933   68.3376  227.3217 H   0  0  0  0  0  0  0  0  0  0  0  0
  140.2039   69.4178  229.3719 H   0  0  0  0  0  0  0  0  0  0  0  0
  141.3325   71.6077  229.2522 H   0  0  0  0  0  0  0  0  0  0  0  0
  141.5841   72.7866  227.0544 H   0  0  0  0  0  0  0  0  0  0  0  0
  140.9873   76.7092  222.2878 H   0  0  0  0  0  0  0  0  0  0  0  0
  142.6541   78.2636  223.2411 H   0  0  0  0  0  0  0  0  0  0  0  0
  141.9861   80.4298  224.2265 H   0  0  0  0  0  0  0  0  0  0  0  0
  139.5599   81.0692  224.2602 H   0  0  0  0  0  0  0  0  0  0  0  0
  137.9132   79.5046  223.2996 H   0  0  0  0  0  0  0  0  0  0  0  0
  1  2  1  0
  2  3  1  0
  3  4  1  0
  4  5  1  0
  5  6  1  0
  6  7  2  0
  6  8  1  0
  8  9  1  0
  9 10  1  0
 10 11  2  0
 10 12  1  0
 12 13  2  0
 13 14  1  0
 14 15  2  0
 15 16  1  0
 16 17  2  0
 17 18  1  0
 18 19  2  0
 19 20  1  0
 20 21  2  0
  4 22  1  0
 22 23  2  0
 23 24  1  0
 24 25  2  0
 25 26  1  0
 26 27  2  0
 21 12  1  0
 27 22  1  0
 20 15  1  0
  1 28  1  0
  1 29  1  0
  1 30  1  0
  3 31  1  0
  3 32  1  0
  4 33  1  6
  5 34  1  0
  8 35  1  0
  8 36  1  0
  9 37  1  0
 13 38  1  0
 14 39  1  0
 16 40  1  0
 17 41  1  0
 18 42  1  0
 19 43  1  0
 23 44  1  0
 24 45  1  0
 25 46  1  0
 26 47  1  0
 27 48  1  0
M  END
>  <smiles>  (40) 
COC[C@H](NC(=O)CNC(=O)c1ccc2ccccc2n1)c1ccccc1

>  <score_type>  (40) 
oracle

>  <origin>  (40) 
autodockgpu

>  <m_score__min__energy>  (40) 
-8.1999999999999993

>  <m_primary>  (40) 
energy

>  <rmsd>  (40) 
4.5460576053085875

>  <m_score__min__rmsd>  (40) 
4.5460576053085875

>  <meeko>  (40) 
{"free_energy": -7.99, "intermolecular_energy": -10.08, "internal_energy": -2.08, "cluster_size": 12, "cluster_id": 2, "rank_in_cluster": 2}

>  <energy>  (40) 
-7.13

>  <cluster_rmsd>  (40) 
0.17

>  <cluster>  (40) 
7

$$$$

     RDKit          3D

 48 50  0  0  0  0  0  0  0  0999 V2000
  135.3410   74.2350  224.4190 C   0  0  0  0  0  0  0  0  0  0  0  0
  136.3340   74.3740  223.4670 O   0  0  0  0  0  0  0  0  0  0  0  0
  136.5430   75.7340  223.2180 C   0  0  0  0  0  0  0  0  0  0  0  0
  137.5230   75.8810  222.0470 C   0  0  2  0  0  0  0  0  0  0  0  0
  138.0980   74.5600  221.8400 N   0  0  0  0  0  0  0  0  0  0  0  0
  138.1470   74.0560  220.5180 C   0  0  0  0  0  0  0  0  0  0  0  0
  137.6980   74.7460  219.5500 O   0  0  0  0  0  0  0  0  0  0  0  0
  138.7370   72.7040  220.3200 C   0  0  0  0  0  0  0  0  0  0  0  0
  138.7530   71.9430  221.5550 N   0  0  0  0  0  0  0  0  0  0  0  0
  139.6800   72.2970  222.5720 C   0  0  0  0  0  0  0  0  0  0  0  0
  140.4770   73.2650  222.3960 O   0  0  0  0  0  0  0  0  0  0  0  0
  139.6910   71.5270  223.8120 C   0  0  0  0  0  0  0  0  0  0  0  0
  138.9500   70.3510  223.8720 C   0  0  0  0  0  0  0  0  0  0  0  0
  138.9260   69.5860  225.0210 C   0  0  0  0  0  0  0  0  0  0  0  0
  139.6440   69.9890  226.1250 C   0  0  0  0  0  0  0  0  0  0  0  0
  139.6100   69.2140  227.2680 C   0  0  0  0  0  0  0  0  0  0  0  0
  140.3420   69.6490  228.3560 C   0  0  0  0  0  0  0  0  0  0  0  0
  141.0810   70.8160  228.3050 C   0  0  0  0  0  0  0  0  0  0  0  0
  141.1060   71.5910  227.1410 C   0  0  0  0  0  0  0  0  0  0  0  0
  140.3730   71.1620  226.0400 C   0  0  0  0  0  0  0  0  0  0  0  0
  140.3860   71.9030  224.9040 N   0  0  0  0  0  0  0  0  0  0  0  0
  138.6030   76.8080  222.4120 C   0  0  0  0  0  0  0  0  0  0  0  0
  138.2790   78.0890  222.8490 C   0  0  0  0  0  0  0  0  0  0  0  0
  139.2980   78.9550  223.1910 C   0  0  0  0  0  0  0  0  0  0  0  0
  140.6320   78.5940  223.1130 C   0  0  0  0  0  0  0  0  0  0  0  0
  140.9610   77.3230  222.6780 C   0  0  0  0  0  0  0  0  0  0  0  0
  139.9270   76.4700  222.3420 C   0  0  0  0  0  0  0  0  0  0  0  0
  135.7849   74.2971  225.4236 H   0  0  0  0  0  0  0  0  0  0  0  0
  134.5996   75.0381  224.2954 H   0  0  0  0  0  0  0  0  0  0  0  0
  134.8486   73.2592  224.2954 H   0  0  0  0  0  0  0  0  0  0  0  0
  135.5868   76.2134  222.9614 H   0  0  0  0  0  0  0  0  0  0  0  0
  136.9591   76.2169  224.1145 H   0  0  0  0  0  0  0  0  0  0  0  0
  137.0160   76.2654  221.1497 H   0  0  0  0  0  0  0  0  0  0  0  0
  138.4470   74.0510  222.6810 H   0  0  0  0  0  0  0  0  0  0  0  0
  138.1404   72.1599  219.5730 H   0  0  0  0  0  0  0  0  0  0  0  0
  139.7752   72.8280  219.9784 H   0  0  0  0  0  0  0  0  0  0  0  0
  138.0860   71.1410  221.6910 H   0  0  0  0  0  0  0  0  0  0  0  0
  138.3754   70.0263  222.9920 H   0  0  0  0  0  0  0  0  0  0  0  0
  138.3358   68.6584  225.0546 H   0  0  0  0  0  0  0  0  0  0  0  0
  139.0221   68.2852  227.3103 H   0  0  0  0  0  0  0  0  0  0  0  0
  140.3366   69.0546  229.2816 H   0  0  0  0  0  0  0  0  0  0  0  0
  141.6541   71.1378  229.1870 H   0  0  0  0  0  0  0  0  0  0  0  0
  141.6931   72.5202  227.0974 H   0  0  0  0  0  0  0  0  0  0  0  0
  137.2282   78.4061  222.9207 H   0  0  0  0  0  0  0  0  0  0  0  0
  139.0411   79.9669  223.5375 H   0  0  0  0  0  0  0  0  0  0  0  0
  141.4200   79.3085  223.3933 H   0  0  0  0  0  0  0  0  0  0  0  0
  142.0104   77.0019  222.6020 H   0  0  0  0  0  0  0  0  0  0  0  0
  140.1840   75.4575  221.9972 H   0  0  0  0  0  0  0  0  0  0  0  0
  1  2  1  0
  2  3  1  0
  3  4  1  0
  4  5  1  0
  5  6  1  0
  6  7  2  0
  6  8  1  0
  8  9  1  0
  9 10  1  0
 10 11  2  0
 10 12  1  0
 12 13  2  0
 13 14  1  0
 14 15  2  0
 15 16  1  0
 16 17  2  0
 17 18  1  0
 18 19  2  0
 19 20  1  0
 20 21  2  0
  4 22  1  0
 22 23  2  0
 23 24  1  0
 24 25  2  0
 25 26  1  0
 26 27  2  0
 21 12  1  0
 27 22  1  0
 20 15  1  0
  1 28  1  0
  1 29  1  0
  1 30  1  0
  3 31  1  0
  3 32  1  0
  4 33  1  6
  5 34  1  0
  8 35  1  0
  8 36  1  0
  9 37  1  0
 13 38  1  0
 14 39  1  0
 16 40  1  0
 17 41  1  0
 18 42  1  0
 19 43  1  0
 23 44  1  0
 24 45  1  0
 25 46  1  0
 26 47  1  0
 27 48  1  0
M  END
>  <smiles>  (41) 
COC[C@H](NC(=O)CNC(=O)c1ccc2ccccc2n1)c1ccccc1

>  <score_type>  (41) 
oracle

>  <origin>  (41) 
autodockgpu

>  <m_score__min__energy>  (41) 
-8.1999999999999993

>  <m_primary>  (41) 
energy

>  <rmsd>  (41) 
4.937378987493342

>  <m_score__min__rmsd>  (41) 
4.937378987493342

>  <meeko>  (41) 
{"free_energy": -7.17, "intermolecular_energy": -9.25, "internal_energy": -2.75, "cluster_size": 12, "cluster_id": 2, "rank_in_cluster": 12}

>  <energy>  (41) 
-7.12

>  <cluster_rmsd>  (41) 
0.14

>  <cluster>  (41) 
7

$$$$

     RDKit          3D

 48 50  0  0  0  0  0  0  0  0999 V2000
  139.4380   75.5350  221.9980 C   0  0  0  0  0  0  0  0  0  0  0  0
  140.5640   74.7390  222.1070 O   0  0  0  0  0  0  0  0  0  0  0  0
  141.5090   75.1490  221.1620 C   0  0  0  0  0  0  0  0  0  0  0  0
  141.7970   73.9840  220.2060 C   0  0  2  0  0  0  0  0  0  0  0  0
  140.9840   72.8720  220.6770 N   0  0  0  0  0  0  0  0  0  0  0  0
  140.4770   71.9660  219.7150 C   0  0  0  0  0  0  0  0  0  0  0  0
  140.7290   72.1310  218.4820 O   0  0  0  0  0  0  0  0  0  0  0  0
  139.6480   70.8340  220.2100 C   0  0  0  0  0  0  0  0  0  0  0  0
  140.0090   70.4590  221.5640 N   0  0  0  0  0  0  0  0  0  0  0  0
  139.5640   71.2660  222.6460 C   0  0  0  0  0  0  0  0  0  0  0  0
  138.8600   72.2950  222.4220 O   0  0  0  0  0  0  0  0  0  0  0  0
  139.9310   70.8830  224.0060 C   0  0  0  0  0  0  0  0  0  0  0  0
  140.5810   71.8160  224.8060 C   0  0  0  0  0  0  0  0  0  0  0  0
  140.9510   71.5040  226.1000 C   0  0  0  0  0  0  0  0  0  0  0  0
  140.6730   70.2540  226.6080 C   0  0  0  0  0  0  0  0  0  0  0  0
  141.0490   69.9560  227.9030 C   0  0  0  0  0  0  0  0  0  0  0  0
  140.7550   68.6940  228.3790 C   0  0  0  0  0  0  0  0  0  0  0  0
  140.1090   67.7610  227.5900 C   0  0  0  0  0  0  0  0  0  0  0  0
  139.7340   68.0760  226.2790 C   0  0  0  0  0  0  0  0  0  0  0  0
  140.0260   69.3450  225.7910 C   0  0  0  0  0  0  0  0  0  0  0  0
  139.6700   69.6660  224.5220 N   0  0  0  0  0  0  0  0  0  0  0  0
  143.2120   73.6000  220.3000 C   0  0  0  0  0  0  0  0  0  0  0  0
  143.5560   72.2530  220.2230 C   0  0  0  0  0  0  0  0  0  0  0  0
  144.8870   71.8980  220.3110 C   0  0  0  0  0  0  0  0  0  0  0  0
  145.8920   72.8350  220.4750 C   0  0  0  0  0  0  0  0  0  0  0  0
  145.5570   74.1750  220.5540 C   0  0  0  0  0  0  0  0  0  0  0  0
  144.2210   74.5110  220.4620 C   0  0  0  0  0  0  0  0  0  0  0  0
  139.0728   75.7932  223.0030 H   0  0  0  0  0  0  0  0  0  0  0  0
  139.6914   76.4558  221.4522 H   0  0  0  0  0  0  0  0  0  0  0  0
  138.6544   74.9890  221.4522 H   0  0  0  0  0  0  0  0  0  0  0  0
  141.1149   76.0041  220.5932 H   0  0  0  0  0  0  0  0  0  0  0  0
  142.4366   75.4506  221.6705 H   0  0  0  0  0  0  0  0  0  0  0  0
  141.5734   74.2581  219.1644 H   0  0  0  0  0  0  0  0  0  0  0  0
  140.8180   72.8000  221.7050 H   0  0  0  0  0  0  0  0  0  0  0  0
  138.5894   71.1326  220.1926 H   0  0  0  0  0  0  0  0  0  0  0  0
  139.8230   69.9677  219.5551 H   0  0  0  0  0  0  0  0  0  0  0  0
  140.5940   69.6030  221.7380 H   0  0  0  0  0  0  0  0  0  0  0  0
  140.8035   72.8153  224.4036 H   0  0  0  0  0  0  0  0  0  0  0  0
  141.4657   72.2509  226.7223 H   0  0  0  0  0  0  0  0  0  0  0  0
  141.5638   70.6971  228.5321 H   0  0  0  0  0  0  0  0  0  0  0  0
  141.0406   68.4256  229.4068 H   0  0  0  0  0  0  0  0  0  0  0  0
  139.8878   66.7628  227.9958 H   0  0  0  0  0  0  0  0  0  0  0  0
  139.2195   67.3360  225.6484 H   0  0  0  0  0  0  0  0  0  0  0  0
  142.7798   71.4843  220.0942 H   0  0  0  0  0  0  0  0  0  0  0  0
  145.1581   70.8338  220.2486 H   0  0  0  0  0  0  0  0  0  0  0  0
  146.9434   72.5186  220.5417 H   0  0  0  0  0  0  0  0  0  0  0  0
  146.3294   74.9471  220.6857 H   0  0  0  0  0  0  0  0  0  0  0  0
  143.9508   75.5756  220.5226 H   0  0  0  0  0  0  0  0  0  0  0  0
  1  2  1  0
  2  3  1  0
  3  4  1  0
  4  5  1  0
  5  6  1  0
  6  7  2  0
  6  8  1  0
  8  9  1  0
  9 10  1  0
 10 11  2  0
 10 12  1  0
 12 13  2  0
 13 14  1  0
 14 15  2  0
 15 16  1  0
 16 17  2  0
 17 18  1  0
 18 19  2  0
 19 20  1  0
 20 21  2  0
  4 22  1  0
 22 23  2  0
 23 24  1  0
 24 25  2  0
 25 26  1  0
 26 27  2  0
 21 12  1  0
 27 22  1  0
 20 15  1  0
  1 28  1  0
  1 29  1  0
  1 30  1  0
  3 31  1  0
  3 32  1  0
  4 33  1  6
  5 34  1  0
  8 35  1  0
  8 36  1  0
  9 37  1  0
 13 38  1  0
 14 39  1  0
 16 40  1  0
 17 41  1  0
 18 42  1  0
 19 43  1  0
 23 44  1  0
 24 45  1  0
 25 46  1  0
 26 47  1  0
 27 48  1  0
M  END
>  <smiles>  (42) 
COC[C@H](NC(=O)CNC(=O)c1ccc2ccccc2n1)c1ccccc1

>  <score_type>  (42) 
oracle

>  <origin>  (42) 
autodockgpu

>  <m_score__min__energy>  (42) 
-8.1999999999999993

>  <m_primary>  (42) 
energy

>  <rmsd>  (42) 
6.509048172240091

>  <m_score__min__rmsd>  (42) 
6.509048172240091

>  <meeko>  (42) 
{"free_energy": -7.08, "intermolecular_energy": -9.17, "internal_energy": -3.0, "cluster_size": 10, "cluster_id": 6, "rank_in_cluster": 4}

>  <energy>  (42) 
-7.11

>  <cluster_rmsd>  (42) 
0.27

>  <cluster>  (42) 
7

$$$$

     RDKit          3D

 48 50  0  0  0  0  0  0  0  0999 V2000
  139.6020   75.7700  221.8780 C   0  0  0  0  0  0  0  0  0  0  0  0
  140.7640   75.0220  221.9440 O   0  0  0  0  0  0  0  0  0  0  0  0
  141.6180   75.4080  220.9070 C   0  0  0  0  0  0  0  0  0  0  0  0
  141.8630   74.2040  219.9890 C   0  0  2  0  0  0  0  0  0  0  0  0
  140.9590   73.1610  220.4500 N   0  0  0  0  0  0  0  0  0  0  0  0
  140.4760   72.2310  219.4980 C   0  0  0  0  0  0  0  0  0  0  0  0
  140.8280   72.3170  218.2810 O   0  0  0  0  0  0  0  0  0  0  0  0
  139.5530   71.1700  219.9830 C   0  0  0  0  0  0  0  0  0  0  0  0
  139.9150   70.7140  221.3120 N   0  0  0  0  0  0  0  0  0  0  0  0
  139.5470   71.5020  222.4350 C   0  0  0  0  0  0  0  0  0  0  0  0
  138.9110   72.5850  222.2700 O   0  0  0  0  0  0  0  0  0  0  0  0
  139.9140   71.0380  223.7700 C   0  0  0  0  0  0  0  0  0  0  0  0
  140.6470   71.8870  224.5910 C   0  0  0  0  0  0  0  0  0  0  0  0
  141.0190   71.4960  225.8620 C   0  0  0  0  0  0  0  0  0  0  0  0
  140.6620   70.2490  226.3260 C   0  0  0  0  0  0  0  0  0  0  0  0
  141.0420   69.8720  227.6000 C   0  0  0  0  0  0  0  0  0  0  0  0
  140.6660   68.6150  228.0310 C   0  0  0  0  0  0  0  0  0  0  0  0
  139.9380   67.7650  227.2210 C   0  0  0  0  0  0  0  0  0  0  0  0
  139.5600   68.1600  225.9330 C   0  0  0  0  0  0  0  0  0  0  0  0
  139.9330   69.4240  225.4900 C   0  0  0  0  0  0  0  0  0  0  0  0
  139.5750   69.8220  224.2430 N   0  0  0  0  0  0  0  0  0  0  0  0
  143.2440   73.7280  220.1470 C   0  0  0  0  0  0  0  0  0  0  0  0
  143.5200   72.3750  219.9760 C   0  0  0  0  0  0  0  0  0  0  0  0
  144.8190   71.9330  220.1260 C   0  0  0  0  0  0  0  0  0  0  0  0
  145.8580   72.7900  220.4430 C   0  0  0  0  0  0  0  0  0  0  0  0
  145.5910   74.1370  220.6160 C   0  0  0  0  0  0  0  0  0  0  0  0
  144.2850   74.5600  220.4610 C   0  0  0  0  0  0  0  0  0  0  0  0
  139.2525   75.9950  222.8964 H   0  0  0  0  0  0  0  0  0  0  0  0
  139.8010   76.7101  221.3426 H   0  0  0  0  0  0  0  0  0  0  0  0
  138.8287   75.1996  221.3426 H   0  0  0  0  0  0  0  0  0  0  0  0
  141.1546   76.2227  220.3313 H   0  0  0  0  0  0  0  0  0  0  0  0
  142.5738   75.7591  221.3233 H   0  0  0  0  0  0  0  0  0  0  0  0
  141.6990   74.4678  218.9338 H   0  0  0  0  0  0  0  0  0  0  0  0
  140.7140   73.1510  221.4650 H   0  0  0  0  0  0  0  0  0  0  0  0
  138.5295   71.5722  220.0100 H   0  0  0  0  0  0  0  0  0  0  0  0
  139.6207   70.3142  219.2952 H   0  0  0  0  0  0  0  0  0  0  0  0
  140.4420   69.8130  221.4370 H   0  0  0  0  0  0  0  0  0  0  0  0
  140.9344   72.8832  224.2235 H   0  0  0  0  0  0  0  0  0  0  0  0
  141.5984   72.1779  226.5018 H   0  0  0  0  0  0  0  0  0  0  0  0
  141.6219   70.5474  228.2462 H   0  0  0  0  0  0  0  0  0  0  0  0
  140.9521   68.2837  229.0402 H   0  0  0  0  0  0  0  0  0  0  0  0
  139.6531   66.7693  227.5917 H   0  0  0  0  0  0  0  0  0  0  0  0
  138.9806   67.4855  225.2854 H   0  0  0  0  0  0  0  0  0  0  0  0
  142.7152   71.6683  219.7251 H   0  0  0  0  0  0  0  0  0  0  0  0
  145.0355   70.8633  219.9889 H   0  0  0  0  0  0  0  0  0  0  0  0
  146.8825   72.4059  220.5560 H   0  0  0  0  0  0  0  0  0  0  0  0
  146.3921   74.8472  220.8685 H   0  0  0  0  0  0  0  0  0  0  0  0
  144.0685   75.6297  220.5981 H   0  0  0  0  0  0  0  0  0  0  0  0
  1  2  1  0
  2  3  1  0
  3  4  1  0
  4  5  1  0
  5  6  1  0
  6  7  2  0
  6  8  1  0
  8  9  1  0
  9 10  1  0
 10 11  2  0
 10 12  1  0
 12 13  2  0
 13 14  1  0
 14 15  2  0
 15 16  1  0
 16 17  2  0
 17 18  1  0
 18 19  2  0
 19 20  1  0
 20 21  2  0
  4 22  1  0
 22 23  2  0
 23 24  1  0
 24 25  2  0
 25 26  1  0
 26 27  2  0
 21 12  1  0
 27 22  1  0
 20 15  1  0
  1 28  1  0
  1 29  1  0
  1 30  1  0
  3 31  1  0
  3 32  1  0
  4 33  1  6
  5 34  1  0
  8 35  1  0
  8 36  1  0
  9 37  1  0
 13 38  1  0
 14 39  1  0
 16 40  1  0
 17 41  1  0
 18 42  1  0
 19 43  1  0
 23 44  1  0
 24 45  1  0
 25 46  1  0
 26 47  1  0
 27 48  1  0
M  END
>  <smiles>  (43) 
COC[C@H](NC(=O)CNC(=O)c1ccc2ccccc2n1)c1ccccc1

>  <score_type>  (43) 
oracle

>  <origin>  (43) 
autodockgpu

>  <m_score__min__energy>  (43) 
-8.1999999999999993

>  <m_primary>  (43) 
energy

>  <rmsd>  (43) 
6.398620022236715

>  <m_score__min__rmsd>  (43) 
6.398620022236715

>  <meeko>  (43) 
{"free_energy": -7.0, "intermolecular_energy": -9.09, "internal_energy": -3.02, "cluster_size": 10, "cluster_id": 6, "rank_in_cluster": 5}

>  <energy>  (43) 
-7.11

>  <cluster_rmsd>  (43) 
0.23

>  <cluster>  (43) 
7

$$$$

     RDKit          3D

 48 50  0  0  0  0  0  0  0  0999 V2000
  144.1270   71.6420  219.9250 C   0  0  0  0  0  0  0  0  0  0  0  0
  143.8970   72.6360  220.8580 O   0  0  0  0  0  0  0  0  0  0  0  0
  144.4020   73.8460  220.3730 C   0  0  0  0  0  0  0  0  0  0  0  0
  143.2980   74.9090  220.4380 C   0  0  2  0  0  0  0  0  0  0  0  0
  142.0430   74.1760  220.5280 N   0  0  0  0  0  0  0  0  0  0  0  0
  140.8960   74.8740  220.9750 C   0  0  0  0  0  0  0  0  0  0  0  0
  140.9730   76.1030  221.2860 O   0  0  0  0  0  0  0  0  0  0  0  0
  139.6200   74.1120  221.0610 C   0  0  0  0  0  0  0  0  0  0  0  0
  139.5280   73.3630  222.3000 N   0  0  0  0  0  0  0  0  0  0  0  0
  140.2660   72.1560  222.4330 C   0  0  0  0  0  0  0  0  0  0  0  0
  140.9910   71.7470  221.4790 O   0  0  0  0  0  0  0  0  0  0  0  0
  140.1690   71.4070  223.6820 C   0  0  0  0  0  0  0  0  0  0  0  0
  139.5580   70.1590  223.6630 C   0  0  0  0  0  0  0  0  0  0  0  0
  139.4400   69.4100  224.8180 C   0  0  0  0  0  0  0  0  0  0  0  0
  139.9340   69.9030  226.0060 C   0  0  0  0  0  0  0  0  0  0  0  0
  139.8090   69.1430  227.1520 C   0  0  0  0  0  0  0  0  0  0  0  0
  140.3160   69.6690  228.3240 C   0  0  0  0  0  0  0  0  0  0  0  0
  140.9240   70.9090  228.3520 C   0  0  0  0  0  0  0  0  0  0  0  0
  141.0440   71.6680  227.1830 C   0  0  0  0  0  0  0  0  0  0  0  0
  140.5370   71.1470  225.9970 C   0  0  0  0  0  0  0  0  0  0  0  0
  140.6450   71.8710  224.8550 N   0  0  0  0  0  0  0  0  0  0  0  0
  143.2890   75.6970  219.1990 C   0  0  0  0  0  0  0  0  0  0  0  0
  143.6630   75.0880  218.0040 C   0  0  0  0  0  0  0  0  0  0  0  0
  143.6530   75.8340  216.8420 C   0  0  0  0  0  0  0  0  0  0  0  0
  143.2860   77.1680  216.8240 C   0  0  0  0  0  0  0  0  0  0  0  0
  142.9150   77.7800  218.0080 C   0  0  0  0  0  0  0  0  0  0  0  0
  142.9300   77.0180  219.1600 C   0  0  0  0  0  0  0  0  0  0  0  0
  144.3458   70.6965  220.4429 H   0  0  0  0  0  0  0  0  0  0  0  0
  143.2341   71.5168  219.2949 H   0  0  0  0  0  0  0  0  0  0  0  0
  144.9841   71.9218  219.2949 H   0  0  0  0  0  0  0  0  0  0  0  0
  145.2561   74.1629  220.9896 H   0  0  0  0  0  0  0  0  0  0  0  0
  144.7356   73.7194  219.3325 H   0  0  0  0  0  0  0  0  0  0  0  0
  143.4510   75.5896  221.2885 H   0  0  0  0  0  0  0  0  0  0  0  0
  142.0550   73.1680  220.2550 H   0  0  0  0  0  0  0  0  0  0  0  0
  138.7782   74.8181  221.0073 H   0  0  0  0  0  0  0  0  0  0  0  0
  139.5882   73.3985  220.2244 H   0  0  0  0  0  0  0  0  0  0  0  0
  138.9230   73.7130  223.0850 H   0  0  0  0  0  0  0  0  0  0  0  0
  139.1632   69.7623  222.7160 H   0  0  0  0  0  0  0  0  0  0  0  0
  138.9535   68.4238  224.7892 H   0  0  0  0  0  0  0  0  0  0  0  0
  139.3240   68.1559  227.1322 H   0  0  0  0  0  0  0  0  0  0  0  0
  140.2339   69.0884  229.2547 H   0  0  0  0  0  0  0  0  0  0  0  0
  141.3169   71.3028  229.3010 H   0  0  0  0  0  0  0  0  0  0  0  0
  141.5287   72.6553  227.2012 H   0  0  0  0  0  0  0  0  0  0  0  0
  143.9617   74.0295  217.9859 H   0  0  0  0  0  0  0  0  0  0  0  0
  143.9469   75.3512  215.8983 H   0  0  0  0  0  0  0  0  0  0  0  0
  143.2892   77.7343  215.8810 H   0  0  0  0  0  0  0  0  0  0  0  0
  142.6178   78.8388  218.0312 H   0  0  0  0  0  0  0  0  0  0  0  0
  142.6358   77.5015  220.1032 H   0  0  0  0  0  0  0  0  0  0  0  0
  1  2  1  0
  2  3  1  0
  3  4  1  0
  4  5  1  0
  5  6  1  0
  6  7  2  0
  6  8  1  0
  8  9  1  0
  9 10  1  0
 10 11  2  0
 10 12  1  0
 12 13  2  0
 13 14  1  0
 14 15  2  0
 15 16  1  0
 16 17  2  0
 17 18  1  0
 18 19  2  0
 19 20  1  0
 20 21  2  0
  4 22  1  0
 22 23  2  0
 23 24  1  0
 24 25  2  0
 25 26  1  0
 26 27  2  0
 21 12  1  0
 27 22  1  0
 20 15  1  0
  1 28  1  0
  1 29  1  0
  1 30  1  0
  3 31  1  0
  3 32  1  0
  4 33  1  1
  5 34  1  0
  8 35  1  0
  8 36  1  0
  9 37  1  0
 13 38  1  0
 14 39  1  0
 16 40  1  0
 17 41  1  0
 18 42  1  0
 19 43  1  0
 23 44  1  0
 24 45  1  0
 25 46  1  0
 26 47  1  0
 27 48  1  0
M  END
>  <smiles>  (44) 
COC[C@H](NC(=O)CNC(=O)c1ccc2ccccc2n1)c1ccccc1

>  <score_type>  (44) 
oracle

>  <origin>  (44) 
autodockgpu

>  <m_score__min__energy>  (44) 
-8.1999999999999993

>  <m_primary>  (44) 
energy

>  <rmsd>  (44) 
5.456498212979927

>  <m_score__min__rmsd>  (44) 
5.456498212979927

>  <meeko>  (44) 
{"free_energy": -7.15, "intermolecular_energy": -9.24, "internal_energy": -2.85, "cluster_size": 17, "cluster_id": 7, "rank_in_cluster": 5}

>  <energy>  (44) 
-7.09

>  <cluster_rmsd>  (44) 
0.33

>  <cluster>  (44) 
7

$$$$

     RDKit          3D

 48 50  0  0  0  0  0  0  0  0999 V2000
  144.2590   71.6130  219.9340 C   0  0  0  0  0  0  0  0  0  0  0  0
  143.9300   72.5890  220.8580 O   0  0  0  0  0  0  0  0  0  0  0  0
  144.4480   73.8160  220.4330 C   0  0  0  0  0  0  0  0  0  0  0  0
  143.3310   74.8660  220.4650 C   0  0  2  0  0  0  0  0  0  0  0  0
  142.0850   74.1200  220.5670 N   0  0  0  0  0  0  0  0  0  0  0  0
  140.9150   74.8280  220.9330 C   0  0  0  0  0  0  0  0  0  0  0  0
  140.9650   76.0760  221.1640 O   0  0  0  0  0  0  0  0  0  0  0  0
  139.6490   74.0530  221.0340 C   0  0  0  0  0  0  0  0  0  0  0  0
  139.5700   73.3180  222.2820 N   0  0  0  0  0  0  0  0  0  0  0  0
  140.2640   72.0840  222.4000 C   0  0  0  0  0  0  0  0  0  0  0  0
  140.9400   71.6400  221.4250 O   0  0  0  0  0  0  0  0  0  0  0  0
  140.1810   71.3480  223.6580 C   0  0  0  0  0  0  0  0  0  0  0  0
  139.5820   70.0930  223.6570 C   0  0  0  0  0  0  0  0  0  0  0  0
  139.4780   69.3570  224.8200 C   0  0  0  0  0  0  0  0  0  0  0  0
  139.9730   69.8690  226.0000 C   0  0  0  0  0  0  0  0  0  0  0  0
  139.8610   69.1210  227.1560 C   0  0  0  0  0  0  0  0  0  0  0  0
  140.3670   69.6650  228.3190 C   0  0  0  0  0  0  0  0  0  0  0  0
  140.9630   70.9120  228.3290 C   0  0  0  0  0  0  0  0  0  0  0  0
  141.0700   71.6590  227.1510 C   0  0  0  0  0  0  0  0  0  0  0  0
  140.5630   71.1190  225.9740 C   0  0  0  0  0  0  0  0  0  0  0  0
  140.6570   71.8300  224.8230 N   0  0  0  0  0  0  0  0  0  0  0  0
  143.3200   75.6220  219.2040 C   0  0  0  0  0  0  0  0  0  0  0  0
  143.6930   74.9820  218.0260 C   0  0  0  0  0  0  0  0  0  0  0  0
  143.6810   75.6960  216.8450 C   0  0  0  0  0  0  0  0  0  0  0  0
  143.3130   77.0290  216.7920 C   0  0  0  0  0  0  0  0  0  0  0  0
  142.9420   77.6720  217.9600 C   0  0  0  0  0  0  0  0  0  0  0  0
  142.9590   76.9400  219.1310 C   0  0  0  0  0  0  0  0  0  0  0  0
  144.5674   70.6981  220.4611 H   0  0  0  0  0  0  0  0  0  0  0  0
  143.3845   71.3956  219.3032 H   0  0  0  0  0  0  0  0  0  0  0  0
  145.0867   71.9694  219.3032 H   0  0  0  0  0  0  0  0  0  0  0  0
  145.2637   74.1244  221.1035 H   0  0  0  0  0  0  0  0  0  0  0  0
  144.8395   73.7202  219.4095 H   0  0  0  0  0  0  0  0  0  0  0  0
  143.4701   75.5702  221.2985 H   0  0  0  0  0  0  0  0  0  0  0  0
  142.1190   73.0970  220.3620 H   0  0  0  0  0  0  0  0  0  0  0  0
  138.7990   74.7488  220.9753 H   0  0  0  0  0  0  0  0  0  0  0  0
  139.6224   73.3289  220.2064 H   0  0  0  0  0  0  0  0  0  0  0  0
  139.0050   73.6960  223.0840 H   0  0  0  0  0  0  0  0  0  0  0  0
  139.1859   69.6814  222.7170 H   0  0  0  0  0  0  0  0  0  0  0  0
  139.0018   68.3655  224.8052 H   0  0  0  0  0  0  0  0  0  0  0  0
  139.3862   68.1288  227.1497 H   0  0  0  0  0  0  0  0  0  0  0  0
  140.2945   69.0947  229.2568 H   0  0  0  0  0  0  0  0  0  0  0  0
  141.3566   71.3206  229.2714 H   0  0  0  0  0  0  0  0  0  0  0  0
  141.5446   72.6513  227.1556 H   0  0  0  0  0  0  0  0  0  0  0  0
  143.9927   73.9237  218.0360 H   0  0  0  0  0  0  0  0  0  0  0  0
  143.9739   75.1883  215.9142 H   0  0  0  0  0  0  0  0  0  0  0  0
  143.3153   77.5702  215.8344 H   0  0  0  0  0  0  0  0  0  0  0  0
  142.6435   78.7307  217.9558 H   0  0  0  0  0  0  0  0  0  0  0  0
  142.6645   77.4472  220.0616 H   0  0  0  0  0  0  0  0  0  0  0  0
  1  2  1  0
  2  3  1  0
  3  4  1  0
  4  5  1  0
  5  6  1  0
  6  7  2  0
  6  8  1  0
  8  9  1  0
  9 10  1  0
 10 11  2  0
 10 12  1  0
 12 13  2  0
 13 14  1  0
 14 15  2  0
 15 16  1  0
 16 17  2  0
 17 18  1  0
 18 19  2  0
 19 20  1  0
 20 21  2  0
  4 22  1  0
 22 23  2  0
 23 24  1  0
 24 25  2  0
 25 26  1  0
 26 27  2  0
 21 12  1  0
 27 22  1  0
 20 15  1  0
  1 28  1  0
  1 29  1  0
  1 30  1  0
  3 31  1  0
  3 32  1  0
  4 33  1  1
  5 34  1  0
  8 35  1  0
  8 36  1  0
  9 37  1  0
 13 38  1  0
 14 39  1  0
 16 40  1  0
 17 41  1  0
 18 42  1  0
 19 43  1  0
 23 44  1  0
 24 45  1  0
 25 46  1  0
 26 47  1  0
 27 48  1  0
M  END
>  <smiles>  (45) 
COC[C@H](NC(=O)CNC(=O)c1ccc2ccccc2n1)c1ccccc1

>  <score_type>  (45) 
oracle

>  <origin>  (45) 
autodockgpu

>  <m_score__min__energy>  (45) 
-8.1999999999999993

>  <m_primary>  (45) 
energy

>  <rmsd>  (45) 
5.496471252637081

>  <m_score__min__rmsd>  (45) 
5.496471252637081

>  <meeko>  (45) 
{"free_energy": -7.13, "intermolecular_energy": -9.22, "internal_energy": -2.88, "cluster_size": 17, "cluster_id": 7, "rank_in_cluster": 7}

>  <energy>  (45) 
-7.08

>  <cluster_rmsd>  (45) 
0.26

>  <cluster>  (45) 
7

$$$$

     RDKit          3D

 48 50  0  0  0  0  0  0  0  0999 V2000
  135.7100   75.5870  224.2510 C   0  0  0  0  0  0  0  0  0  0  0  0
  136.8040   75.6540  223.4070 O   0  0  0  0  0  0  0  0  0  0  0  0
  137.0520   76.9920  223.0840 C   0  0  0  0  0  0  0  0  0  0  0  0
  138.2710   77.0620  222.1550 C   0  0  2  0  0  0  0  0  0  0  0  0
  138.8200   75.7140  222.1150 N   0  0  0  0  0  0  0  0  0  0  0  0
  139.4980   75.3080  220.9410 C   0  0  0  0  0  0  0  0  0  0  0  0
  139.6150   76.1040  219.9580 O   0  0  0  0  0  0  0  0  0  0  0  0
  140.0540   73.9280  220.9130 C   0  0  0  0  0  0  0  0  0  0  0  0
  139.9400   73.2800  222.2060 N   0  0  0  0  0  0  0  0  0  0  0  0
  140.3480   71.9260  222.3380 C   0  0  0  0  0  0  0  0  0  0  0  0
  140.8070   71.3010  221.3360 O   0  0  0  0  0  0  0  0  0  0  0  0
  140.2310   71.2800  223.6420 C   0  0  0  0  0  0  0  0  0  0  0  0
  139.6070   70.0390  223.7150 C   0  0  0  0  0  0  0  0  0  0  0  0
  139.4690   69.3860  224.9240 C   0  0  0  0  0  0  0  0  0  0  0  0
  139.9560   69.9680  226.0740 C   0  0  0  0  0  0  0  0  0  0  0  0
  139.8110   69.3020  227.2760 C   0  0  0  0  0  0  0  0  0  0  0  0
  140.3100   69.9150  228.4090 C   0  0  0  0  0  0  0  0  0  0  0  0
  140.9310   71.1470  228.3440 C   0  0  0  0  0  0  0  0  0  0  0  0
  141.0710   71.8100  227.1200 C   0  0  0  0  0  0  0  0  0  0  0  0
  140.5720   71.2010  225.9740 C   0  0  0  0  0  0  0  0  0  0  0  0
  140.6990   71.8310  224.7790 N   0  0  0  0  0  0  0  0  0  0  0  0
  139.2830   77.9610  222.7260 C   0  0  0  0  0  0  0  0  0  0  0  0
  140.6200   77.5720  222.7180 C   0  0  0  0  0  0  0  0  0  0  0  0
  141.5660   78.4200  223.2560 C   0  0  0  0  0  0  0  0  0  0  0  0
  141.2320   79.6460  223.8050 C   0  0  0  0  0  0  0  0  0  0  0  0
  139.9060   80.0390  223.8170 C   0  0  0  0  0  0  0  0  0  0  0  0
  138.9730   79.1770  223.2740 C   0  0  0  0  0  0  0  0  0  0  0  0
  136.0516   75.6079  225.2964 H   0  0  0  0  0  0  0  0  0  0  0  0
  135.0493   76.4464  224.0639 H   0  0  0  0  0  0  0  0  0  0  0  0
  135.1592   74.6534  224.0639 H   0  0  0  0  0  0  0  0  0  0  0  0
  136.1748   77.4175  222.5746 H   0  0  0  0  0  0  0  0  0  0  0  0
  137.2494   77.5661  224.0013 H   0  0  0  0  0  0  0  0  0  0  0  0
  137.9911   77.4328  221.1579 H   0  0  0  0  0  0  0  0  0  0  0  0
  138.6860   75.1160  222.9600 H   0  0  0  0  0  0  0  0  0  0  0  0
  139.5030   73.3362  220.1673 H   0  0  0  0  0  0  0  0  0  0  0  0
  141.1209   73.9921  220.6532 H   0  0  0  0  0  0  0  0  0  0  0  0
  139.5580   73.8090  223.0310 H   0  0  0  0  0  0  0  0  0  0  0  0
  139.2185   69.5718  222.7981 H   0  0  0  0  0  0  0  0  0  0  0  0
  138.9724   68.4055  224.9687 H   0  0  0  0  0  0  0  0  0  0  0  0
  139.3169   68.3207  227.3287 H   0  0  0  0  0  0  0  0  0  0  0  0
  140.2108   69.4120  229.3822 H   0  0  0  0  0  0  0  0  0  0  0  0
  141.3190   71.6110  229.2628 H   0  0  0  0  0  0  0  0  0  0  0  0
  141.5649   72.7914  227.0655 H   0  0  0  0  0  0  0  0  0  0  0  0
  140.9173   76.6036  222.2894 H   0  0  0  0  0  0  0  0  0  0  0  0
  142.6218   78.1113  223.2484 H   0  0  0  0  0  0  0  0  0  0  0  0
  142.0107   80.2989  224.2261 H   0  0  0  0  0  0  0  0  0  0  0  0
  139.6042   81.0063  224.2449 H   0  0  0  0  0  0  0  0  0  0  0  0
  137.9174   79.4861  223.2823 H   0  0  0  0  0  0  0  0  0  0  0  0
  1  2  1  0
  2  3  1  0
  3  4  1  0
  4  5  1  0
  5  6  1  0
  6  7  2  0
  6  8  1  0
  8  9  1  0
  9 10  1  0
 10 11  2  0
 10 12  1  0
 12 13  2  0
 13 14  1  0
 14 15  2  0
 15 16  1  0
 16 17  2  0
 17 18  1  0
 18 19  2  0
 19 20  1  0
 20 21  2  0
  4 22  1  0
 22 23  2  0
 23 24  1  0
 24 25  2  0
 25 26  1  0
 26 27  2  0
 21 12  1  0
 27 22  1  0
 20 15  1  0
  1 28  1  0
  1 29  1  0
  1 30  1  0
  3 31  1  0
  3 32  1  0
  4 33  1  6
  5 34  1  0
  8 35  1  0
  8 36  1  0
  9 37  1  0
 13 38  1  0
 14 39  1  0
 16 40  1  0
 17 41  1  0
 18 42  1  0
 19 43  1  0
 23 44  1  0
 24 45  1  0
 25 46  1  0
 26 47  1  0
 27 48  1  0
M  END
>  <smiles>  (46) 
COC[C@H](NC(=O)CNC(=O)c1ccc2ccccc2n1)c1ccccc1

>  <score_type>  (46) 
oracle

>  <origin>  (46) 
autodockgpu

>  <m_score__min__energy>  (46) 
-8.1999999999999993

>  <m_primary>  (46) 
energy

>  <rmsd>  (46) 
4.574882688439884

>  <m_score__min__rmsd>  (46) 
4.574882688439884

>  <meeko>  (46) 
{"free_energy": -7.98, "intermolecular_energy": -10.07, "internal_energy": -2.06, "cluster_size": 12, "cluster_id": 2, "rank_in_cluster": 3}

>  <energy>  (46) 
-7.07

>  <cluster_rmsd>  (46) 
0.23

>  <cluster>  (46) 
7

$$$$

     RDKit          3D

 48 50  0  0  0  0  0  0  0  0999 V2000
  139.8790   72.9120  221.4640 C   0  0  0  0  0  0  0  0  0  0  0  0
  139.6030   72.8660  222.8190 O   0  0  0  0  0  0  0  0  0  0  0  0
  140.6160   72.1570  223.4700 C   0  0  0  0  0  0  0  0  0  0  0  0
  140.0130   70.8980  224.1070 C   0  0  2  0  0  0  0  0  0  0  0  0
  138.5850   70.9580  223.8330 N   0  0  0  0  0  0  0  0  0  0  0  0
  137.9110   69.7460  223.5510 C   0  0  0  0  0  0  0  0  0  0  0  0
  138.5460   68.6460  223.5390 O   0  0  0  0  0  0  0  0  0  0  0  0
  136.4510   69.8220  223.2740 C   0  0  0  0  0  0  0  0  0  0  0  0
  135.8070   70.8450  224.0760 N   0  0  0  0  0  0  0  0  0  0  0  0
  135.8780   72.1990  223.6530 C   0  0  0  0  0  0  0  0  0  0  0  0
  136.4950   72.5010  222.5880 O   0  0  0  0  0  0  0  0  0  0  0  0
  135.2280   73.2240  224.4640 C   0  0  0  0  0  0  0  0  0  0  0  0
  135.6300   74.5470  224.3120 C   0  0  0  0  0  0  0  0  0  0  0  0
  135.0480   75.5540  225.0560 C   0  0  0  0  0  0  0  0  0  0  0  0
  134.0550   75.2490  225.9610 C   0  0  0  0  0  0  0  0  0  0  0  0
  133.4820   76.2670  226.6990 C   0  0  0  0  0  0  0  0  0  0  0  0
  132.4910   75.9240  227.5970 C   0  0  0  0  0  0  0  0  0  0  0  0
  132.0860   74.6120  227.7540 C   0  0  0  0  0  0  0  0  0  0  0  0
  132.6740   73.5910  227.0000 C   0  0  0  0  0  0  0  0  0  0  0  0
  133.6740   73.9260  226.0930 C   0  0  0  0  0  0  0  0  0  0  0  0
  134.2560   72.9480  225.3550 N   0  0  0  0  0  0  0  0  0  0  0  0
  140.2110   70.9310  225.5620 C   0  0  0  0  0  0  0  0  0  0  0  0
  141.0030   71.9320  226.1180 C   0  0  0  0  0  0  0  0  0  0  0  0
  141.1860   71.9580  227.4860 C   0  0  0  0  0  0  0  0  0  0  0  0
  140.6100   71.0210  228.3250 C   0  0  0  0  0  0  0  0  0  0  0  0
  139.8220   70.0220  227.7800 C   0  0  0  0  0  0  0  0  0  0  0  0
  139.6510   70.0140  226.4090 C   0  0  0  0  0  0  0  0  0  0  0  0
  140.9540   73.0912  221.3147 H   0  0  0  0  0  0  0  0  0  0  0  0
  139.5989   71.9548  221.0000 H   0  0  0  0  0  0  0  0  0  0  0  0
  139.3036   73.7266  221.0000 H   0  0  0  0  0  0  0  0  0  0  0  0
  141.3899   71.8685  222.7435 H   0  0  0  0  0  0  0  0  0  0  0  0
  141.0698   72.7873  224.2490 H   0  0  0  0  0  0  0  0  0  0  0  0
  140.4807   69.9860  223.7076 H   0  0  0  0  0  0  0  0  0  0  0  0
  138.1290   71.8970  223.8610 H   0  0  0  0  0  0  0  0  0  0  0  0
  136.3015   70.0563  222.2097 H   0  0  0  0  0  0  0  0  0  0  0  0
  136.0016   68.8511  223.5299 H   0  0  0  0  0  0  0  0  0  0  0  0
  135.2980   70.5830  224.9580 H   0  0  0  0  0  0  0  0  0  0  0  0
  136.4219   74.7941  223.5896 H   0  0  0  0  0  0  0  0  0  0  0  0
  135.3760   76.5960  224.9267 H   0  0  0  0  0  0  0  0  0  0  0  0
  133.8034   77.3117  226.5756 H   0  0  0  0  0  0  0  0  0  0  0  0
  132.0141   76.7109  228.1997 H   0  0  0  0  0  0  0  0  0  0  0  0
  131.2945   74.3686  228.4781 H   0  0  0  0  0  0  0  0  0  0  0  0
  132.3526   72.5461  227.1217 H   0  0  0  0  0  0  0  0  0  0  0  0
  141.4758   72.6906  225.4769 H   0  0  0  0  0  0  0  0  0  0  0  0
  141.8109   72.7505  227.9237 H   0  0  0  0  0  0  0  0  0  0  0  0
  140.7761   71.0692  229.4113 H   0  0  0  0  0  0  0  0  0  0  0  0
  139.3481   69.2604  228.4167 H   0  0  0  0  0  0  0  0  0  0  0  0
  139.0261   69.2215  225.9715 H   0  0  0  0  0  0  0  0  0  0  0  0
  1  2  1  0
  2  3  1  0
  3  4  1  0
  4  5  1  0
  5  6  1  0
  6  7  2  0
  6  8  1  0
  8  9  1  0
  9 10  1  0
 10 11  2  0
 10 12  1  0
 12 13  2  0
 13 14  1  0
 14 15  2  0
 15 16  1  0
 16 17  2  0
 17 18  1  0
 18 19  2  0
 19 20  1  0
 20 21  2  0
  4 22  1  0
 22 23  2  0
 23 24  1  0
 24 25  2  0
 25 26  1  0
 26 27  2  0
 21 12  1  0
 27 22  1  0
 20 15  1  0
  1 28  1  0
  1 29  1  0
  1 30  1  0
  3 31  1  0
  3 32  1  0
  4 33  1  6
  5 34  1  0
  8 35  1  0
  8 36  1  0
  9 37  1  0
 13 38  1  0
 14 39  1  0
 16 40  1  0
 17 41  1  0
 18 42  1  0
 19 43  1  0
 23 44  1  0
 24 45  1  0
 25 46  1  0
 26 47  1  0
 27 48  1  0
M  END
>  <smiles>  (47) 
COC[C@H](NC(=O)CNC(=O)c1ccc2ccccc2n1)c1ccccc1

>  <score_type>  (47) 
oracle

>  <origin>  (47) 
autodockgpu

>  <m_score__min__energy>  (47) 
-8.1999999999999993

>  <m_primary>  (47) 
energy

>  <rmsd>  (47) 
9.634230125279206

>  <m_score__min__rmsd>  (47) 
9.634230125279206

>  <meeko>  (47) 
{"free_energy": -6.88, "intermolecular_energy": -8.97, "internal_energy": -3.15, "cluster_size": 6, "cluster_id": 3, "rank_in_cluster": 5}

>  <energy>  (47) 
-7.06

>  <cluster_rmsd>  (47) 
0.28

>  <cluster>  (47) 
7

$$$$

     RDKit          3D

 48 50  0  0  0  0  0  0  0  0999 V2000
  144.0550   71.8810  220.7800 C   0  0  0  0  0  0  0  0  0  0  0  0
  143.7880   72.9200  219.9070 O   0  0  0  0  0  0  0  0  0  0  0  0
  144.2490   74.1170  220.4640 C   0  0  0  0  0  0  0  0  0  0  0  0
  143.1220   75.1550  220.4170 C   0  0  2  0  0  0  0  0  0  0  0  0
  141.8790   74.3980  220.4740 N   0  0  0  0  0  0  0  0  0  0  0  0
  140.7570   75.0080  221.0840 C   0  0  0  0  0  0  0  0  0  0  0  0
  140.8450   76.1800  221.5650 O   0  0  0  0  0  0  0  0  0  0  0  0
  139.4940   74.2230  221.1350 C   0  0  0  0  0  0  0  0  0  0  0  0
  139.4160   73.4140  222.3370 N   0  0  0  0  0  0  0  0  0  0  0  0
  140.2940   72.3070  222.4820 C   0  0  0  0  0  0  0  0  0  0  0  0
  141.1310   72.0370  221.5700 O   0  0  0  0  0  0  0  0  0  0  0  0
  140.2100   71.4970  223.6940 C   0  0  0  0  0  0  0  0  0  0  0  0
  139.6220   70.2400  223.6140 C   0  0  0  0  0  0  0  0  0  0  0  0
  139.5180   69.4340  224.7310 C   0  0  0  0  0  0  0  0  0  0  0  0
  140.0020   69.8790  225.9420 C   0  0  0  0  0  0  0  0  0  0  0  0
  139.8900   69.0630  227.0510 C   0  0  0  0  0  0  0  0  0  0  0  0
  140.3860   69.5410  228.2470 C   0  0  0  0  0  0  0  0  0  0  0  0
  140.9720   70.7900  228.3350 C   0  0  0  0  0  0  0  0  0  0  0  0
  141.0780   71.6060  227.2040 C   0  0  0  0  0  0  0  0  0  0  0  0
  140.5820   71.1330  225.9940 C   0  0  0  0  0  0  0  0  0  0  0  0
  140.6770   71.9130  224.8870 N   0  0  0  0  0  0  0  0  0  0  0  0
  143.1660   75.8830  219.1410 C   0  0  0  0  0  0  0  0  0  0  0  0
  143.5070   75.1960  217.9790 C   0  0  0  0  0  0  0  0  0  0  0  0
  143.5470   75.8850  216.7840 C   0  0  0  0  0  0  0  0  0  0  0  0
  143.2620   77.2360  216.7000 C   0  0  0  0  0  0  0  0  0  0  0  0
  142.9230   77.9260  217.8510 C   0  0  0  0  0  0  0  0  0  0  0  0
  142.8870   77.2190  219.0380 C   0  0  0  0  0  0  0  0  0  0  0  0
  143.9629   72.2396  221.8158 H   0  0  0  0  0  0  0  0  0  0  0  0
  143.3374   71.0650  220.6092 H   0  0  0  0  0  0  0  0  0  0  0  0
  145.0771   71.5121  220.6092 H   0  0  0  0  0  0  0  0  0  0  0  0
  144.5500   73.9462  221.5082 H   0  0  0  0  0  0  0  0  0  0  0  0
  145.1158   74.4829  219.8941 H   0  0  0  0  0  0  0  0  0  0  0  0
  143.2130   75.8786  221.2405 H   0  0  0  0  0  0  0  0  0  0  0  0
  141.8810   73.4400  220.0580 H   0  0  0  0  0  0  0  0  0  0  0  0
  138.6411   74.9174  221.1161 H   0  0  0  0  0  0  0  0  0  0  0  0
  139.4720   73.5499  220.2653 H   0  0  0  0  0  0  0  0  0  0  0  0
  138.7170   73.6480  223.0870 H   0  0  0  0  0  0  0  0  0  0  0  0
  139.2344   69.8825  222.6486 H   0  0  0  0  0  0  0  0  0  0  0  0
  139.0508   68.4411  224.6541 H   0  0  0  0  0  0  0  0  0  0  0  0
  139.4229   68.0694  226.9834 H   0  0  0  0  0  0  0  0  0  0  0  0
  140.3135   68.9152  229.1488 H   0  0  0  0  0  0  0  0  0  0  0  0
  141.3579   71.1448  229.3021 H   0  0  0  0  0  0  0  0  0  0  0  0
  141.5436   72.6004  227.2702 H   0  0  0  0  0  0  0  0  0  0  0  0
  143.7407   74.1216  218.0129 H   0  0  0  0  0  0  0  0  0  0  0  0
  143.8148   75.3409  215.8663 H   0  0  0  0  0  0  0  0  0  0  0  0
  143.3042   77.7552  215.7311 H   0  0  0  0  0  0  0  0  0  0  0  0
  142.6901   79.0007  217.8220 H   0  0  0  0  0  0  0  0  0  0  0  0
  142.6178   77.7629  219.9554 H   0  0  0  0  0  0  0  0  0  0  0  0
  1  2  1  0
  2  3  1  0
  3  4  1  0
  4  5  1  0
  5  6  1  0
  6  7  2  0
  6  8  1  0
  8  9  1  0
  9 10  1  0
 10 11  2  0
 10 12  1  0
 12 13  2  0
 13 14  1  0
 14 15  2  0
 15 16  1  0
 16 17  2  0
 17 18  1  0
 18 19  2  0
 19 20  1  0
 20 21  2  0
  4 22  1  0
 22 23  2  0
 23 24  1  0
 24 25  2  0
 25 26  1  0
 26 27  2  0
 21 12  1  0
 27 22  1  0
 20 15  1  0
  1 28  1  0
  1 29  1  0
  1 30  1  0
  3 31  1  0
  3 32  1  0
  4 33  1  1
  5 34  1  0
  8 35  1  0
  8 36  1  0
  9 37  1  0
 13 38  1  0
 14 39  1  0
 16 40  1  0
 17 41  1  0
 18 42  1  0
 19 43  1  0
 23 44  1  0
 24 45  1  0
 25 46  1  0
 26 47  1  0
 27 48  1  0
M  END
>  <smiles>  (48) 
COC[C@H](NC(=O)CNC(=O)c1ccc2ccccc2n1)c1ccccc1

>  <score_type>  (48) 
oracle

>  <origin>  (48) 
autodockgpu

>  <m_score__min__energy>  (48) 
-8.1999999999999993

>  <m_primary>  (48) 
energy

>  <rmsd>  (48) 
5.3465119990424705

>  <m_score__min__rmsd>  (48) 
5.3465119990424705

>  <meeko>  (48) 
{"free_energy": -7.01, "intermolecular_energy": -9.1, "internal_energy": -2.82, "cluster_size": 17, "cluster_id": 7, "rank_in_cluster": 16}

>  <energy>  (48) 
-7.03

>  <cluster_rmsd>  (48) 
0.46

>  <cluster>  (48) 
7

$$$$

     RDKit          3D

 48 50  0  0  0  0  0  0  0  0999 V2000
  139.0540   75.6490  222.1970 C   0  0  0  0  0  0  0  0  0  0  0  0
  140.2480   74.9530  222.2210 O   0  0  0  0  0  0  0  0  0  0  0  0
  141.1090   75.4860  221.2560 C   0  0  0  0  0  0  0  0  0  0  0  0
  141.4640   74.3890  220.2440 C   0  0  2  0  0  0  0  0  0  0  0  0
  140.6120   73.2540  220.5710 N   0  0  0  0  0  0  0  0  0  0  0  0
  140.2230   72.3920  219.5180 C   0  0  0  0  0  0  0  0  0  0  0  0
  140.6110   72.6120  218.3290 O   0  0  0  0  0  0  0  0  0  0  0  0
  139.3520   71.2360  219.8660 C   0  0  0  0  0  0  0  0  0  0  0  0
  139.6690   70.7040  221.1790 N   0  0  0  0  0  0  0  0  0  0  0  0
  139.1490   71.3530  222.3300 C   0  0  0  0  0  0  0  0  0  0  0  0
  138.4180   72.3800  222.2040 O   0  0  0  0  0  0  0  0  0  0  0  0
  139.4720   70.8130  223.6480 C   0  0  0  0  0  0  0  0  0  0  0  0
  139.2230   69.4680  223.8940 C   0  0  0  0  0  0  0  0  0  0  0  0
  139.5100   68.9070  225.1230 C   0  0  0  0  0  0  0  0  0  0  0  0
  140.0510   69.6890  226.1210 C   0  0  0  0  0  0  0  0  0  0  0  0
  140.3320   69.1150  227.3450 C   0  0  0  0  0  0  0  0  0  0  0  0
  140.8730   69.9280  228.3210 C   0  0  0  0  0  0  0  0  0  0  0  0
  141.1230   71.2660  228.0850 C   0  0  0  0  0  0  0  0  0  0  0  0
  140.8330   71.8350  226.8400 C   0  0  0  0  0  0  0  0  0  0  0  0
  140.2890   71.0240  225.8500 C   0  0  0  0  0  0  0  0  0  0  0  0
  140.0010   71.5590  224.6370 N   0  0  0  0  0  0  0  0  0  0  0  0
  142.8650   73.9850  220.4170 C   0  0  0  0  0  0  0  0  0  0  0  0
  143.1590   72.6510  220.6850 C   0  0  0  0  0  0  0  0  0  0  0  0
  144.4780   72.2760  220.8470 C   0  0  0  0  0  0  0  0  0  0  0  0
  145.5190   73.1820  220.7520 C   0  0  0  0  0  0  0  0  0  0  0  0
  145.2350   74.5100  220.4860 C   0  0  0  0  0  0  0  0  0  0  0  0
  143.9100   74.8650  220.3270 C   0  0  0  0  0  0  0  0  0  0  0  0
  138.7217   75.8427  223.2276 H   0  0  0  0  0  0  0  0  0  0  0  0
  139.1974   76.6050  221.6722 H   0  0  0  0  0  0  0  0  0  0  0  0
  138.2927   75.0532  221.6722 H   0  0  0  0  0  0  0  0  0  0  0  0
  140.6117   76.3191  220.7377 H   0  0  0  0  0  0  0  0  0  0  0  0
  142.0250   75.8570  221.7390 H   0  0  0  0  0  0  0  0  0  0  0  0
  141.3220   74.7390  219.2109 H   0  0  0  0  0  0  0  0  0  0  0  0
  140.3320   73.1350  221.5690 H   0  0  0  0  0  0  0  0  0  0  0  0
  138.3023   71.5648  219.8580 H   0  0  0  0  0  0  0  0  0  0  0  0
  139.5208   70.4423  219.1233 H   0  0  0  0  0  0  0  0  0  0  0  0
  140.2770   69.8510  221.2710 H   0  0  0  0  0  0  0  0  0  0  0  0
  138.7916   68.8418  223.0992 H   0  0  0  0  0  0  0  0  0  0  0  0
  139.3078   67.8411  225.3046 H   0  0  0  0  0  0  0  0  0  0  0  0
  140.1324   68.0501  227.5353 H   0  0  0  0  0  0  0  0  0  0  0  0
  141.1099   69.5015  229.3069 H   0  0  0  0  0  0  0  0  0  0  0  0
  141.5537   71.8893  228.8825 H   0  0  0  0  0  0  0  0  0  0  0  0
  141.0309   72.9000  226.6487 H   0  0  0  0  0  0  0  0  0  0  0  0
  142.3529   71.9070  220.7665 H   0  0  0  0  0  0  0  0  0  0  0  0
  144.7087   71.2215  221.0587 H   0  0  0  0  0  0  0  0  0  0  0  0
  146.5594   72.8510  220.8862 H   0  0  0  0  0  0  0  0  0  0  0  0
  146.0377   75.2577  220.4040 H   0  0  0  0  0  0  0  0  0  0  0  0
  143.6800   75.9196  220.1150 H   0  0  0  0  0  0  0  0  0  0  0  0
  1  2  1  0
  2  3  1  0
  3  4  1  0
  4  5  1  0
  5  6  1  0
  6  7  2  0
  6  8  1  0
  8  9  1  0
  9 10  1  0
 10 11  2  0
 10 12  1  0
 12 13  2  0
 13 14  1  0
 14 15  2  0
 15 16  1  0
 16 17  2  0
 17 18  1  0
 18 19  2  0
 19 20  1  0
 20 21  2  0
  4 22  1  0
 22 23  2  0
 23 24  1  0
 24 25  2  0
 25 26  1  0
 26 27  2  0
 21 12  1  0
 27 22  1  0
 20 15  1  0
  1 28  1  0
  1 29  1  0
  1 30  1  0
  3 31  1  0
  3 32  1  0
  4 33  1  6
  5 34  1  0
  8 35  1  0
  8 36  1  0
  9 37  1  0
 13 38  1  0
 14 39  1  0
 16 40  1  0
 17 41  1  0
 18 42  1  0
 19 43  1  0
 23 44  1  0
 24 45  1  0
 25 46  1  0
 26 47  1  0
 27 48  1  0
M  END
>  <smiles>  (49) 
COC[C@H](NC(=O)CNC(=O)c1ccc2ccccc2n1)c1ccccc1

>  <score_type>  (49) 
oracle

>  <origin>  (49) 
autodockgpu

>  <m_score__min__energy>  (49) 
-8.1999999999999993

>  <m_primary>  (49) 
energy

>  <rmsd>  (49) 
6.399428124939132

>  <m_score__min__rmsd>  (49) 
6.399428124939132

>  <meeko>  (49) 
{"free_energy": -6.97, "intermolecular_energy": -9.06, "internal_energy": -3.0, "cluster_size": 10, "cluster_id": 6, "rank_in_cluster": 7}

>  <energy>  (49) 
-7.01

>  <cluster_rmsd>  (49) 
0.29

>  <cluster>  (49) 
7

$$$$

     RDKit          3D

 48 50  0  0  0  0  0  0  0  0999 V2000
  144.0880   71.5720  220.0660 C   0  0  0  0  0  0  0  0  0  0  0  0
  143.9730   72.6450  220.9300 O   0  0  0  0  0  0  0  0  0  0  0  0
  144.4240   73.8020  220.2860 C   0  0  0  0  0  0  0  0  0  0  0  0
  143.3370   74.8810  220.3810 C   0  0  2  0  0  0  0  0  0  0  0  0
  142.0730   74.1660  220.4760 N   0  0  0  0  0  0  0  0  0  0  0  0
  140.9460   74.8710  220.9610 C   0  0  0  0  0  0  0  0  0  0  0  0
  141.0480   76.0910  221.3000 O   0  0  0  0  0  0  0  0  0  0  0  0
  139.6590   74.1280  221.0530 C   0  0  0  0  0  0  0  0  0  0  0  0
  139.5660   73.3730  222.2880 N   0  0  0  0  0  0  0  0  0  0  0  0
  140.3040   72.1660  222.4160 C   0  0  0  0  0  0  0  0  0  0  0  0
  141.0310   71.7620  221.4610 O   0  0  0  0  0  0  0  0  0  0  0  0
  140.2060   71.4110  223.6620 C   0  0  0  0  0  0  0  0  0  0  0  0
  139.6220   70.1490  223.6300 C   0  0  0  0  0  0  0  0  0  0  0  0
  139.5050   69.3940  224.7810 C   0  0  0  0  0  0  0  0  0  0  0  0
  139.9710   69.8940  225.9770 C   0  0  0  0  0  0  0  0  0  0  0  0
  139.8470   69.1280  227.1190 C   0  0  0  0  0  0  0  0  0  0  0  0
  140.3250   69.6600  228.3000 C   0  0  0  0  0  0  0  0  0  0  0  0
  140.9060   70.9130  228.3400 C   0  0  0  0  0  0  0  0  0  0  0  0
  141.0260   71.6790  227.1750 C   0  0  0  0  0  0  0  0  0  0  0  0
  140.5470   71.1510  225.9810 C   0  0  0  0  0  0  0  0  0  0  0  0
  140.6550   71.8810  224.8420 N   0  0  0  0  0  0  0  0  0  0  0  0
  143.3260   75.6870  219.1520 C   0  0  0  0  0  0  0  0  0  0  0  0
  143.6900   75.0930  217.9470 C   0  0  0  0  0  0  0  0  0  0  0  0
  143.6780   75.8560  216.7960 C   0  0  0  0  0  0  0  0  0  0  0  0
  143.3150   77.1910  216.7990 C   0  0  0  0  0  0  0  0  0  0  0  0
  142.9520   77.7880  217.9940 C   0  0  0  0  0  0  0  0  0  0  0  0
  142.9710   77.0090  219.1340 C   0  0  0  0  0  0  0  0  0  0  0  0
  144.1876   70.6429  220.6464 H   0  0  0  0  0  0  0  0  0  0  0  0
  143.1909   71.5139  219.4320 H   0  0  0  0  0  0  0  0  0  0  0  0
  144.9770   71.7053  219.4320 H   0  0  0  0  0  0  0  0  0  0  0  0
  145.3433   74.1605  220.7722 H   0  0  0  0  0  0  0  0  0  0  0  0
  144.6376   73.5809  219.2298 H   0  0  0  0  0  0  0  0  0  0  0  0
  143.5098   75.5469  221.2393 H   0  0  0  0  0  0  0  0  0  0  0  0
  142.0630   73.1650  220.1790 H   0  0  0  0  0  0  0  0  0  0  0  0
  138.8277   74.8471  221.0107 H   0  0  0  0  0  0  0  0  0  0  0  0
  139.6091   73.4204  220.2123 H   0  0  0  0  0  0  0  0  0  0  0  0
  138.9590   73.7180  223.0740 H   0  0  0  0  0  0  0  0  0  0  0  0
  139.2487   69.7472  222.6765 H   0  0  0  0  0  0  0  0  0  0  0  0
  139.0414   68.3972  224.7426 H   0  0  0  0  0  0  0  0  0  0  0  0
  139.3844   68.1305  227.0890 H   0  0  0  0  0  0  0  0  0  0  0  0
  140.2416   69.0747  229.2276 H   0  0  0  0  0  0  0  0  0  0  0  0
  141.2773   71.3117  229.2956 H   0  0  0  0  0  0  0  0  0  0  0  0
  141.4889   72.6765  227.2031 H   0  0  0  0  0  0  0  0  0  0  0  0
  143.9824   74.0332  217.9121 H   0  0  0  0  0  0  0  0  0  0  0  0
  143.9669   75.3862  215.8443 H   0  0  0  0  0  0  0  0  0  0  0  0
  143.3148   77.7705  215.8640 H   0  0  0  0  0  0  0  0  0  0  0  0
  142.6583   78.8473  218.0341 H   0  0  0  0  0  0  0  0  0  0  0  0
  142.6833   77.4795  220.0858 H   0  0  0  0  0  0  0  0  0  0  0  0
  1  2  1  0
  2  3  1  0
  3  4  1  0
  4  5  1  0
  5  6  1  0
  6  7  2  0
  6  8  1  0
  8  9  1  0
  9 10  1  0
 10 11  2  0
 10 12  1  0
 12 13  2  0
 13 14  1  0
 14 15  2  0
 15 16  1  0
 16 17  2  0
 17 18  1  0
 18 19  2  0
 19 20  1  0
 20 21  2  0
  4 22  1  0
 22 23  2  0
 23 24  1  0
 24 25  2  0
 25 26  1  0
 26 27  2  0
 21 12  1  0
 27 22  1  0
 20 15  1  0
  1 28  1  0
  1 29  1  0
  1 30  1  0
  3 31  1  0
  3 32  1  0
  4 33  1  1
  5 34  1  0
  8 35  1  0
  8 36  1  0
  9 37  1  0
 13 38  1  0
 14 39  1  0
 16 40  1  0
 17 41  1  0
 18 42  1  0
 19 43  1  0
 23 44  1  0
 24 45  1  0
 25 46  1  0
 26 47  1  0
 27 48  1  0
M  END
>  <smiles>  (50) 
COC[C@H](NC(=O)CNC(=O)c1ccc2ccccc2n1)c1ccccc1

>  <score_type>  (50) 
oracle

>  <origin>  (50) 
autodockgpu

>  <m_score__min__energy>  (50) 
-8.1999999999999993

>  <m_primary>  (50) 
energy

>  <rmsd>  (50) 
5.477437767393105

>  <m_score__min__rmsd>  (50) 
5.477437767393105

>  <meeko>  (50) 
{"free_energy": -7.16, "intermolecular_energy": -9.25, "internal_energy": -2.84, "cluster_size": 17, "cluster_id": 7, "rank_in_cluster": 3}

>  <energy>  (50) 
-7.0

>  <cluster_rmsd>  (50) 
0.31

>  <cluster>  (50) 
7

$$$$
