
     RDKit          3D

 47 50  0  0  0  0  0  0  0  0999 V2000
  139.1420   75.9840  220.2990 O   0  0  0  0  0  0  0  0  0  0  0  0
  139.2600   76.1220  221.5460 C   0  0  0  0  0  0  0  0  0  0  0  0
  138.9450   74.9810  222.3410 N   0  0  0  0  0  0  0  0  0  0  0  0
  138.5250   73.7800  221.6800 C   0  0  0  0  0  0  0  0  0  0  0  0
  139.4320   72.6350  221.9350 C   0  0  0  0  0  0  0  0  0  0  0  0
  140.6060   72.6820  221.4870 O   0  0  0  0  0  0  0  0  0  0  0  0
  138.9180   71.5380  222.6790 N   0  0  0  0  0  0  0  0  0  0  0  0
  137.5290   71.1900  222.9340 C   0  0  0  0  0  0  0  0  0  0  0  0
  137.5590   70.4130  224.2130 C   0  0  0  0  0  0  0  0  0  0  0  0
  138.8480   69.6040  224.0220 C   0  0  2  0  0  0  0  0  0  0  0  0
  139.3520   69.0770  225.2960 C   0  0  0  0  0  0  0  0  0  0  0  0
  139.9570   69.9570  226.1780 C   0  0  0  0  0  0  0  0  0  0  0  0
  140.4630   69.5640  227.3990 C   0  0  0  0  0  0  0  0  0  0  0  0
  140.3570   68.2350  227.7470 C   0  0  0  0  0  0  0  0  0  0  0  0
  139.7550   67.3840  226.8590 C   0  0  0  0  0  0  0  0  0  0  0  0
  139.2610   67.7860  225.6600 N   0  0  0  0  0  0  0  0  0  0  0  0
  139.7950   70.5530  223.3270 C   0  0  0  0  0  0  0  0  0  0  0  0
  139.6950   77.3780  222.1590 C   0  0  0  0  0  0  0  0  0  0  0  0
  138.7190   78.1980  222.6880 C   0  0  0  0  0  0  0  0  0  0  0  0
  139.1280   79.3960  223.2740 C   0  0  0  0  0  0  0  0  0  0  0  0
  140.4620   79.7490  223.3210 C   0  0  0  0  0  0  0  0  0  0  0  0
  140.8530   80.9170  223.8930 C   0  0  0  0  0  0  0  0  0  0  0  0
  142.1950   81.2360  223.9210 C   0  0  0  0  0  0  0  0  0  0  0  0
  142.5650   82.4110  224.4980 F   0  0  0  0  0  0  0  0  0  0  0  0
  143.1470   80.3760  223.3730 C   0  0  0  0  0  0  0  0  0  0  0  0
  142.7610   79.1880  222.7900 C   0  0  0  0  0  0  0  0  0  0  0  0
  141.4140   78.8880  222.7720 C   0  0  0  0  0  0  0  0  0  0  0  0
  140.9940   77.7410  222.2160 N   0  0  0  0  0  0  0  0  0  0  0  0
  139.0180   75.0150  223.3900 H   0  0  0  0  0  0  0  0  0  0  0  0
  137.5182   73.5167  222.0364 H   0  0  0  0  0  0  0  0  0  0  0  0
  138.5370   73.9767  220.5978 H   0  0  0  0  0  0  0  0  0  0  0  0
  136.9164   72.0968  223.0456 H   0  0  0  0  0  0  0  0  0  0  0  0
  137.0866   70.6138  222.1080 H   0  0  0  0  0  0  0  0  0  0  0  0
  137.6220   71.0756  225.0888 H   0  0  0  0  0  0  0  0  0  0  0  0
  136.6613   69.8054  224.4000 H   0  0  0  0  0  0  0  0  0  0  0  0
  138.7001   68.6975  223.4166 H   0  0  0  0  0  0  0  0  0  0  0  0
  140.0374   71.0161  225.8918 H   0  0  0  0  0  0  0  0  0  0  0  0
  140.9374   70.2902  228.0754 H   0  0  0  0  0  0  0  0  0  0  0  0
  140.7443   67.8687  228.7092 H   0  0  0  0  0  0  0  0  0  0  0  0
  139.6673   66.3217  227.1307 H   0  0  0  0  0  0  0  0  0  0  0  0
  140.4587   71.0426  224.0548 H   0  0  0  0  0  0  0  0  0  0  0  0
  140.4500   70.0389  222.6082 H   0  0  0  0  0  0  0  0  0  0  0  0
  137.6563   77.9168  222.6489 H   0  0  0  0  0  0  0  0  0  0  0  0
  138.3747   80.0712  223.7061 H   0  0  0  0  0  0  0  0  0  0  0  0
  140.1090   81.6002  224.3286 H   0  0  0  0  0  0  0  0  0  0  0  0
  144.2124   80.6476  223.4063 H   0  0  0  0  0  0  0  0  0  0  0  0
  143.5019   78.5020  222.3536 H   0  0  0  0  0  0  0  0  0  0  0  0
  1  2  2  0
  2  3  1  0
  3  4  1  0
  4  5  1  0
  5  6  2  0
  5  7  1  0
  7  8  1  0
  8  9  1  0
  9 10  1  0
 10 11  1  0
 11 12  2  0
 12 13  1  0
 13 14  2  0
 14 15  1  0
 15 16  2  0
 10 17  1  0
  2 18  1  0
 18 19  2  0
 19 20  1  0
 20 21  2  0
 21 22  1  0
 22 23  2  0
 23 24  1  0
 23 25  1  0
 25 26  2  0
 26 27  1  0
 27 28  2  0
 17  7  1  0
 28 18  1  0
 16 11  1  0
 27 21  1  0
  3 29  1  0
  4 30  1  0
  4 31  1  0
  8 32  1  0
  8 33  1  0
  9 34  1  0
  9 35  1  0
 10 36  1  6
 12 37  1  0
 13 38  1  0
 14 39  1  0
 15 40  1  0
 17 41  1  0
 17 42  1  0
 19 43  1  0
 20 44  1  0
 22 45  1  0
 25 46  1  0
 26 47  1  0
M  END
>  <smiles>  (1) 
O=C(NCC(=O)N1CC[C@H](c2ccccn2)C1)c1ccc2cc(F)ccc2n1

>  <score_type>  (1) 
oracle

>  <origin>  (1) 
autodockgpu

>  <m_score__min__energy>  (1) 
-8.8000000000000007

>  <m_primary>  (1) 
energy

>  <rmsd>  (1) 
8.7116395972594

>  <m_score__min__rmsd>  (1) 
8.7116395972594

>  <meeko>  (1) 
{"free_energy": -8.4, "intermolecular_energy": -9.89, "internal_energy": -0.9, "cluster_size": 4, "cluster_id": 2, "rank_in_cluster": 1}

>  <energy>  (1) 
-8.8

>  <cluster_rmsd>  (1) 
0.0

>  <cluster>  (1) 
1

$$$$

     RDKit          3D

 47 50  0  0  0  0  0  0  0  0999 V2000
  139.9240   73.7100  222.6420 O   0  0  0  0  0  0  0  0  0  0  0  0
  140.3520   72.5260  222.5870 C   0  0  0  0  0  0  0  0  0  0  0  0
  140.9690   72.1330  221.3640 N   0  0  0  0  0  0  0  0  0  0  0  0
  141.0580   73.0920  220.3020 C   0  0  0  0  0  0  0  0  0  0  0  0
  142.0780   74.1390  220.5560 C   0  0  0  0  0  0  0  0  0  0  0  0
  143.2490   73.7850  220.8470 O   0  0  0  0  0  0  0  0  0  0  0  0
  141.6690   75.4970  220.4560 N   0  0  0  0  0  0  0  0  0  0  0  0
  141.7210   76.3730  219.2970 C   0  0  0  0  0  0  0  0  0  0  0  0
  141.7970   77.7550  219.8660 C   0  0  0  0  0  0  0  0  0  0  0  0
  140.8490   77.6200  221.0640 C   0  0  2  0  0  0  0  0  0  0  0  0
  141.0610   78.6890  222.0470 C   0  0  0  0  0  0  0  0  0  0  0  0
  142.3510   79.1450  222.2560 C   0  0  0  0  0  0  0  0  0  0  0  0
  142.6580   80.1440  223.1550 C   0  0  0  0  0  0  0  0  0  0  0  0
  141.6250   80.7060  223.8740 C   0  0  0  0  0  0  0  0  0  0  0  0
  140.3570   80.2390  223.6510 C   0  0  0  0  0  0  0  0  0  0  0  0
  140.0720   79.2550  222.7610 N   0  0  0  0  0  0  0  0  0  0  0  0
  141.1040   76.2300  221.5970 C   0  0  0  0  0  0  0  0  0  0  0  0
  140.2280   71.5950  223.7100 C   0  0  0  0  0  0  0  0  0  0  0  0
  139.6280   70.3770  223.4630 C   0  0  0  0  0  0  0  0  0  0  0  0
  139.5090   69.4860  224.5290 C   0  0  0  0  0  0  0  0  0  0  0  0
  139.9740   69.8110  225.7880 C   0  0  0  0  0  0  0  0  0  0  0  0
  139.8550   68.9390  226.8210 C   0  0  0  0  0  0  0  0  0  0  0  0
  140.3320   69.2990  228.0640 C   0  0  0  0  0  0  0  0  0  0  0  0
  140.2020   68.4100  229.0860 F   0  0  0  0  0  0  0  0  0  0  0  0
  140.9330   70.5420  228.2680 C   0  0  0  0  0  0  0  0  0  0  0  0
  141.0590   71.4350  227.2260 C   0  0  0  0  0  0  0  0  0  0  0  0
  140.5750   71.0550  225.9910 C   0  0  0  0  0  0  0  0  0  0  0  0
  140.6780   71.8940  224.9480 N   0  0  0  0  0  0  0  0  0  0  0  0
  141.3510   71.1600  221.2390 H   0  0  0  0  0  0  0  0  0  0  0  0
  141.3200   72.5643  219.3731 H   0  0  0  0  0  0  0  0  0  0  0  0
  140.0816   73.5928  220.2257 H   0  0  0  0  0  0  0  0  0  0  0  0
  142.6099   76.1558  218.6866 H   0  0  0  0  0  0  0  0  0  0  0  0
  140.8499   76.2424  218.6382 H   0  0  0  0  0  0  0  0  0  0  0  0
  142.8194   78.0069  220.1842 H   0  0  0  0  0  0  0  0  0  0  0  0
  141.5305   78.5554  219.1600 H   0  0  0  0  0  0  0  0  0  0  0  0
  139.7904   77.7381  220.7895 H   0  0  0  0  0  0  0  0  0  0  0  0
  143.1687   78.6894  221.6783 H   0  0  0  0  0  0  0  0  0  0  0  0
  143.6954   80.4822  223.2943 H   0  0  0  0  0  0  0  0  0  0  0  0
  141.8135   81.5059  224.6052 H   0  0  0  0  0  0  0  0  0  0  0  0
  139.5284   80.6836  224.2217 H   0  0  0  0  0  0  0  0  0  0  0  0
  141.8185   76.2590  222.4329 H   0  0  0  0  0  0  0  0  0  0  0  0
  140.1906   75.7573  221.9872 H   0  0  0  0  0  0  0  0  0  0  0  0
  139.2567   70.1181  222.4604 H   0  0  0  0  0  0  0  0  0  0  0  0
  139.0362   68.5066  224.3641 H   0  0  0  0  0  0  0  0  0  0  0  0
  139.3837   67.9568  226.6688 H   0  0  0  0  0  0  0  0  0  0  0  0
  141.3083   70.8105  229.2665 H   0  0  0  0  0  0  0  0  0  0  0  0
  141.5298   72.4181  227.3739 H   0  0  0  0  0  0  0  0  0  0  0  0
  1  2  2  0
  2  3  1  0
  3  4  1  0
  4  5  1  0
  5  6  2  0
  5  7  1  0
  7  8  1  0
  8  9  1  0
  9 10  1  0
 10 11  1  0
 11 12  2  0
 12 13  1  0
 13 14  2  0
 14 15  1  0
 15 16  2  0
 10 17  1  0
  2 18  1  0
 18 19  2  0
 19 20  1  0
 20 21  2  0
 21 22  1  0
 22 23  2  0
 23 24  1  0
 23 25  1  0
 25 26  2  0
 26 27  1  0
 27 28  2  0
 17  7  1  0
 28 18  1  0
 16 11  1  0
 27 21  1  0
  3 29  1  0
  4 30  1  0
  4 31  1  0
  8 32  1  0
  8 33  1  0
  9 34  1  0
  9 35  1  0
 10 36  1  6
 12 37  1  0
 13 38  1  0
 14 39  1  0
 15 40  1  0
 17 41  1  0
 17 42  1  0
 19 43  1  0
 20 44  1  0
 22 45  1  0
 25 46  1  0
 26 47  1  0
M  END
>  <smiles>  (2) 
O=C(NCC(=O)N1CC[C@H](c2ccccn2)C1)c1ccc2cc(F)ccc2n1

>  <score_type>  (2) 
oracle

>  <origin>  (2) 
autodockgpu

>  <m_score__min__energy>  (2) 
-8.8000000000000007

>  <m_primary>  (2) 
energy

>  <rmsd>  (2) 
2.5994512772906853

>  <m_score__min__rmsd>  (2) 
2.5994512772906853

>  <meeko>  (2) 
{"free_energy": -8.52, "intermolecular_energy": -10.02, "internal_energy": -1.05, "cluster_size": 41, "cluster_id": 1, "rank_in_cluster": 12}

>  <energy>  (2) 
-8.77

>  <cluster_rmsd>  (2) 
0.55

>  <cluster>  (2) 
1

$$$$

     RDKit          3D

 47 50  0  0  0  0  0  0  0  0999 V2000
  141.0580   73.4270  222.3530 O   0  0  0  0  0  0  0  0  0  0  0  0
  140.1410   72.5660  222.4270 C   0  0  0  0  0  0  0  0  0  0  0  0
  139.2210   72.5270  221.3400 N   0  0  0  0  0  0  0  0  0  0  0  0
  139.3980   73.4520  220.2590 C   0  0  0  0  0  0  0  0  0  0  0  0
  138.5280   74.6480  220.3770 C   0  0  0  0  0  0  0  0  0  0  0  0
  137.5590   74.7720  219.5850 O   0  0  0  0  0  0  0  0  0  0  0  0
  138.8410   75.5950  221.3900 N   0  0  0  0  0  0  0  0  0  0  0  0
  137.9530   76.1930  222.3730 C   0  0  0  0  0  0  0  0  0  0  0  0
  138.5920   77.5030  222.7180 C   0  0  0  0  0  0  0  0  0  0  0  0
  140.0720   77.1030  222.7160 C   0  0  2  0  0  0  0  0  0  0  0  0
  140.9500   78.2740  222.6000 C   0  0  0  0  0  0  0  0  0  0  0  0
  141.0270   78.9210  221.3780 C   0  0  0  0  0  0  0  0  0  0  0  0
  141.8200   80.0280  221.1640 C   0  0  0  0  0  0  0  0  0  0  0  0
  142.5660   80.5030  222.2200 C   0  0  0  0  0  0  0  0  0  0  0  0
  142.4740   79.8480  223.4190 C   0  0  0  0  0  0  0  0  0  0  0  0
  141.6880   78.7590  223.6140 N   0  0  0  0  0  0  0  0  0  0  0  0
  140.2000   76.1190  221.5770 C   0  0  0  0  0  0  0  0  0  0  0  0
  140.0170   71.6480  223.5620 C   0  0  0  0  0  0  0  0  0  0  0  0
  139.3120   70.4790  223.3590 C   0  0  0  0  0  0  0  0  0  0  0  0
  139.1910   69.6020  224.4360 C   0  0  0  0  0  0  0  0  0  0  0  0
  139.7570   69.8920  225.6620 C   0  0  0  0  0  0  0  0  0  0  0  0
  139.6350   69.0330  226.7060 C   0  0  0  0  0  0  0  0  0  0  0  0
  140.2140   69.3580  227.9150 C   0  0  0  0  0  0  0  0  0  0  0  0
  140.0800   68.4830  228.9490 F   0  0  0  0  0  0  0  0  0  0  0  0
  140.9180   70.5520  228.0740 C   0  0  0  0  0  0  0  0  0  0  0  0
  141.0470   71.4310  227.0210 C   0  0  0  0  0  0  0  0  0  0  0  0
  140.4610   71.0870  225.8200 C   0  0  0  0  0  0  0  0  0  0  0  0
  140.5630   71.9140  224.7680 N   0  0  0  0  0  0  0  0  0  0  0  0
  138.4270   71.8360  221.3270 H   0  0  0  0  0  0  0  0  0  0  0  0
  140.4476   73.7809  220.2462 H   0  0  0  0  0  0  0  0  0  0  0  0
  139.1218   72.9321  219.3298 H   0  0  0  0  0  0  0  0  0  0  0  0
  136.9518   76.3507  221.9457 H   0  0  0  0  0  0  0  0  0  0  0  0
  137.8182   75.5511  223.2561 H   0  0  0  0  0  0  0  0  0  0  0  0
  138.3781   78.2709  221.9600 H   0  0  0  0  0  0  0  0  0  0  0  0
  138.2400   77.9502  223.6593 H   0  0  0  0  0  0  0  0  0  0  0  0
  140.3931   76.6405  223.6610 H   0  0  0  0  0  0  0  0  0  0  0  0
  140.4283   78.5340  220.5403 H   0  0  0  0  0  0  0  0  0  0  0  0
  141.8560   80.5173  220.1795 H   0  0  0  0  0  0  0  0  0  0  0  0
  143.2164   81.3825  222.1036 H   0  0  0  0  0  0  0  0  0  0  0  0
  143.0667   80.2232  224.2663 H   0  0  0  0  0  0  0  0  0  0  0  0
  140.5512   76.6235  220.6648 H   0  0  0  0  0  0  0  0  0  0  0  0
  140.9294   75.3238  221.7909 H   0  0  0  0  0  0  0  0  0  0  0  0
  138.8617   70.2475  222.3824 H   0  0  0  0  0  0  0  0  0  0  0  0
  138.6346   68.6619  224.3070 H   0  0  0  0  0  0  0  0  0  0  0  0
  139.0814   68.0897  226.5893 H   0  0  0  0  0  0  0  0  0  0  0  0
  141.3729   70.7931  229.0461 H   0  0  0  0  0  0  0  0  0  0  0  0
  141.5989   72.3758  227.1339 H   0  0  0  0  0  0  0  0  0  0  0  0
  1  2  2  0
  2  3  1  0
  3  4  1  0
  4  5  1  0
  5  6  2  0
  5  7  1  0
  7  8  1  0
  8  9  1  0
  9 10  1  0
 10 11  1  0
 11 12  2  0
 12 13  1  0
 13 14  2  0
 14 15  1  0
 15 16  2  0
 10 17  1  0
  2 18  1  0
 18 19  2  0
 19 20  1  0
 20 21  2  0
 21 22  1  0
 22 23  2  0
 23 24  1  0
 23 25  1  0
 25 26  2  0
 26 27  1  0
 27 28  2  0
 17  7  1  0
 28 18  1  0
 16 11  1  0
 27 21  1  0
  3 29  1  0
  4 30  1  0
  4 31  1  0
  8 32  1  0
  8 33  1  0
  9 34  1  0
  9 35  1  0
 10 36  1  1
 12 37  1  0
 13 38  1  0
 14 39  1  0
 15 40  1  0
 17 41  1  0
 17 42  1  0
 19 43  1  0
 20 44  1  0
 22 45  1  0
 25 46  1  0
 26 47  1  0
M  END
>  <smiles>  (3) 
O=C(NCC(=O)N1CC[C@H](c2ccccn2)C1)c1ccc2cc(F)ccc2n1

>  <score_type>  (3) 
oracle

>  <origin>  (3) 
autodockgpu

>  <m_score__min__energy>  (3) 
-8.8000000000000007

>  <m_primary>  (3) 
energy

>  <rmsd>  (3) 
3.091285777140244

>  <m_score__min__rmsd>  (3) 
3.091285777140244

>  <meeko>  (3) 
{"free_energy": -7.88, "intermolecular_energy": -9.37, "internal_energy": -1.17, "cluster_size": 41, "cluster_id": 1, "rank_in_cluster": 40}

>  <energy>  (3) 
-8.76

>  <cluster_rmsd>  (3) 
0.22

>  <cluster>  (3) 
1

$$$$

     RDKit          3D

 47 50  0  0  0  0  0  0  0  0999 V2000
  141.1200   71.8280  221.7120 O   0  0  0  0  0  0  0  0  0  0  0  0
  140.1960   71.9300  222.5630 C   0  0  0  0  0  0  0  0  0  0  0  0
  139.2180   72.9370  222.3170 N   0  0  0  0  0  0  0  0  0  0  0  0
  139.3510   73.7490  221.1430 C   0  0  0  0  0  0  0  0  0  0  0  0
  140.3970   74.7910  221.2790 C   0  0  0  0  0  0  0  0  0  0  0  0
  141.5960   74.4750  221.0680 O   0  0  0  0  0  0  0  0  0  0  0  0
  139.9820   76.1010  221.6430 N   0  0  0  0  0  0  0  0  0  0  0  0
  138.8740   76.8780  221.1110 C   0  0  0  0  0  0  0  0  0  0  0  0
  139.2660   78.3050  221.3380 C   0  0  0  0  0  0  0  0  0  0  0  0
  139.9360   78.1980  222.7140 C   0  0  2  0  0  0  0  0  0  0  0  0
  140.7910   79.3590  222.9930 C   0  0  0  0  0  0  0  0  0  0  0  0
  142.0420   79.1370  223.5420 C   0  0  0  0  0  0  0  0  0  0  0  0
  142.9210   80.1570  223.8420 C   0  0  0  0  0  0  0  0  0  0  0  0
  142.5250   81.4500  223.5780 C   0  0  0  0  0  0  0  0  0  0  0  0
  141.2840   81.6450  223.0340 C   0  0  0  0  0  0  0  0  0  0  0  0
  140.4300   80.6300  222.7450 N   0  0  0  0  0  0  0  0  0  0  0  0
  140.6740   76.8810  222.6770 C   0  0  0  0  0  0  0  0  0  0  0  0
  140.1190   71.0670  223.7430 C   0  0  0  0  0  0  0  0  0  0  0  0
  139.5250   69.8310  223.5890 C   0  0  0  0  0  0  0  0  0  0  0  0
  139.4490   69.0050  224.7100 C   0  0  0  0  0  0  0  0  0  0  0  0
  139.9510   69.4100  225.9310 C   0  0  0  0  0  0  0  0  0  0  0  0
  139.8750   68.6000  227.0190 C   0  0  0  0  0  0  0  0  0  0  0  0
  140.3880   69.0390  228.2210 C   0  0  0  0  0  0  0  0  0  0  0  0
  140.3000   68.2130  229.2990 F   0  0  0  0  0  0  0  0  0  0  0  0
  140.9800   70.2980  228.3310 C   0  0  0  0  0  0  0  0  0  0  0  0
  141.0630   71.1270  227.2330 C   0  0  0  0  0  0  0  0  0  0  0  0
  140.5440   70.6690  226.0400 C   0  0  0  0  0  0  0  0  0  0  0  0
  140.6050   71.4440  224.9460 N   0  0  0  0  0  0  0  0  0  0  0  0
  138.4150   73.0850  222.9810 H   0  0  0  0  0  0  0  0  0  0  0  0
  139.6107   73.0993  220.2942 H   0  0  0  0  0  0  0  0  0  0  0  0
  138.3911   74.2627  220.9858 H   0  0  0  0  0  0  0  0  0  0  0  0
  138.7407   76.6785  220.0375 H   0  0  0  0  0  0  0  0  0  0  0  0
  137.9192   76.6268  221.5960 H   0  0  0  0  0  0  0  0  0  0  0  0
  139.9698   78.6594  220.5705 H   0  0  0  0  0  0  0  0  0  0  0  0
  138.4328   79.0216  221.2894 H   0  0  0  0  0  0  0  0  0  0  0  0
  139.2155   78.2114  223.5451 H   0  0  0  0  0  0  0  0  0  0  0  0
  142.3490   78.1011  223.7483 H   0  0  0  0  0  0  0  0  0  0  0  0
  143.9080   79.9445  224.2787 H   0  0  0  0  0  0  0  0  0  0  0  0
  143.1867   82.3008  223.7979 H   0  0  0  0  0  0  0  0  0  0  0  0
  140.9629   82.6752  222.8204 H   0  0  0  0  0  0  0  0  0  0  0  0
  141.7294   77.0341  222.4074 H   0  0  0  0  0  0  0  0  0  0  0  0
  140.6745   76.3741  223.6532 H   0  0  0  0  0  0  0  0  0  0  0  0
  139.1255   69.5086  222.6162 H   0  0  0  0  0  0  0  0  0  0  0  0
  138.9810   68.0136  224.6201 H   0  0  0  0  0  0  0  0  0  0  0  0
  139.4099   67.6062  226.9418 H   0  0  0  0  0  0  0  0  0  0  0  0
  141.3825   70.6305  229.2992 H   0  0  0  0  0  0  0  0  0  0  0  0
  141.5279   72.1213  227.3058 H   0  0  0  0  0  0  0  0  0  0  0  0
  1  2  2  0
  2  3  1  0
  3  4  1  0
  4  5  1  0
  5  6  2  0
  5  7  1  0
  7  8  1  0
  8  9  1  0
  9 10  1  0
 10 11  1  0
 11 12  2  0
 12 13  1  0
 13 14  2  0
 14 15  1  0
 15 16  2  0
 10 17  1  0
  2 18  1  0
 18 19  2  0
 19 20  1  0
 20 21  2  0
 21 22  1  0
 22 23  2  0
 23 24  1  0
 23 25  1  0
 25 26  2  0
 26 27  1  0
 27 28  2  0
 17  7  1  0
 28 18  1  0
 16 11  1  0
 27 21  1  0
  3 29  1  0
  4 30  1  0
  4 31  1  0
  8 32  1  0
  8 33  1  0
  9 34  1  0
  9 35  1  0
 10 36  1  1
 12 37  1  0
 13 38  1  0
 14 39  1  0
 15 40  1  0
 17 41  1  0
 17 42  1  0
 19 43  1  0
 20 44  1  0
 22 45  1  0
 25 46  1  0
 26 47  1  0
M  END
>  <smiles>  (4) 
O=C(NCC(=O)N1CC[C@H](c2ccccn2)C1)c1ccc2cc(F)ccc2n1

>  <score_type>  (4) 
oracle

>  <origin>  (4) 
autodockgpu

>  <m_score__min__energy>  (4) 
-8.8000000000000007

>  <m_primary>  (4) 
energy

>  <rmsd>  (4) 
2.890821719937247

>  <m_score__min__rmsd>  (4) 
2.890821719937247

>  <meeko>  (4) 
{"free_energy": -8.51, "intermolecular_energy": -10.0, "internal_energy": -0.94, "cluster_size": 41, "cluster_id": 1, "rank_in_cluster": 14}

>  <energy>  (4) 
-8.74

>  <cluster_rmsd>  (4) 
0.09

>  <cluster>  (4) 
1

$$$$

     RDKit          3D

 47 50  0  0  0  0  0  0  0  0999 V2000
  141.0790   72.9900  222.2420 O   0  0  0  0  0  0  0  0  0  0  0  0
  140.0060   72.6330  222.7990 C   0  0  0  0  0  0  0  0  0  0  0  0
  138.8140   73.2560  222.3290 N   0  0  0  0  0  0  0  0  0  0  0  0
  138.9150   74.2260  221.2780 C   0  0  0  0  0  0  0  0  0  0  0  0
  138.3600   75.5480  221.6590 C   0  0  0  0  0  0  0  0  0  0  0  0
  137.2840   75.5880  222.3080 O   0  0  0  0  0  0  0  0  0  0  0  0
  139.0840   76.7060  221.2650 N   0  0  0  0  0  0  0  0  0  0  0  0
  139.8360   76.9300  220.0410 C   0  0  0  0  0  0  0  0  0  0  0  0
  140.8620   77.9560  220.4060 C   0  0  0  0  0  0  0  0  0  0  0  0
  140.0420   78.8570  221.3370 C   0  0  2  0  0  0  0  0  0  0  0  0
  140.9040   79.6970  222.1770 C   0  0  0  0  0  0  0  0  0  0  0  0
  141.7190   79.0780  223.1110 C   0  0  0  0  0  0  0  0  0  0  0  0
  142.5640   79.7740  223.9470 C   0  0  0  0  0  0  0  0  0  0  0  0
  142.5930   81.1480  223.8420 C   0  0  0  0  0  0  0  0  0  0  0  0
  141.7790   81.7380  222.9120 C   0  0  0  0  0  0  0  0  0  0  0  0
  140.9520   81.0380  222.0950 N   0  0  0  0  0  0  0  0  0  0  0  0
  139.1630   77.9040  222.1120 C   0  0  0  0  0  0  0  0  0  0  0  0
  139.9720   71.6350  223.8700 C   0  0  0  0  0  0  0  0  0  0  0  0
  139.3640   70.4280  223.5930 C   0  0  0  0  0  0  0  0  0  0  0  0
  139.3290   69.4730  224.6090 C   0  0  0  0  0  0  0  0  0  0  0  0
  139.8820   69.7280  225.8480 C   0  0  0  0  0  0  0  0  0  0  0  0
  139.8450   68.7940  226.8330 C   0  0  0  0  0  0  0  0  0  0  0  0
  140.4090   69.0850  228.0580 C   0  0  0  0  0  0  0  0  0  0  0  0
  140.3590   68.1350  229.0310 F   0  0  0  0  0  0  0  0  0  0  0  0
  141.0120   70.3210  228.2930 C   0  0  0  0  0  0  0  0  0  0  0  0
  141.0560   71.2760  227.3000 C   0  0  0  0  0  0  0  0  0  0  0  0
  140.4860   70.9650  226.0830 C   0  0  0  0  0  0  0  0  0  0  0  0
  140.5080   71.8650  225.0880 N   0  0  0  0  0  0  0  0  0  0  0  0
  137.8770   73.0140  222.7430 H   0  0  0  0  0  0  0  0  0  0  0  0
  139.9762   74.3524  221.0175 H   0  0  0  0  0  0  0  0  0  0  0  0
  138.3268   73.8534  220.4265 H   0  0  0  0  0  0  0  0  0  0  0  0
  140.3195   76.0000  219.7074 H   0  0  0  0  0  0  0  0  0  0  0  0
  139.1926   77.2621  219.2129 H   0  0  0  0  0  0  0  0  0  0  0  0
  141.7184   77.5051  220.9287 H   0  0  0  0  0  0  0  0  0  0  0  0
  141.3141   78.4757  219.5484 H   0  0  0  0  0  0  0  0  0  0  0  0
  139.4285   79.5910  220.7939 H   0  0  0  0  0  0  0  0  0  0  0  0
  141.6899   77.9811  223.1884 H   0  0  0  0  0  0  0  0  0  0  0  0
  143.1972   79.2486  224.6771 H   0  0  0  0  0  0  0  0  0  0  0  0
  143.2497   81.7520  224.4853 H   0  0  0  0  0  0  0  0  0  0  0  0
  141.7965   82.8342  222.8228 H   0  0  0  0  0  0  0  0  0  0  0  0
  139.6145   77.6629  223.0856 H   0  0  0  0  0  0  0  0  0  0  0  0
  138.1721   78.3301  222.3278 H   0  0  0  0  0  0  0  0  0  0  0  0
  138.9225   70.2259  222.6060 H   0  0  0  0  0  0  0  0  0  0  0  0
  138.8525   68.4998  224.4198 H   0  0  0  0  0  0  0  0  0  0  0  0
  139.3711   67.8172  226.6563 H   0  0  0  0  0  0  0  0  0  0  0  0
  141.4551   70.5347  229.2769 H   0  0  0  0  0  0  0  0  0  0  0  0
  141.5299   72.2536  227.4723 H   0  0  0  0  0  0  0  0  0  0  0  0
  1  2  2  0
  2  3  1  0
  3  4  1  0
  4  5  1  0
  5  6  2  0
  5  7  1  0
  7  8  1  0
  8  9  1  0
  9 10  1  0
 10 11  1  0
 11 12  2  0
 12 13  1  0
 13 14  2  0
 14 15  1  0
 15 16  2  0
 10 17  1  0
  2 18  1  0
 18 19  2  0
 19 20  1  0
 20 21  2  0
 21 22  1  0
 22 23  2  0
 23 24  1  0
 23 25  1  0
 25 26  2  0
 26 27  1  0
 27 28  2  0
 17  7  1  0
 28 18  1  0
 16 11  1  0
 27 21  1  0
  3 29  1  0
  4 30  1  0
  4 31  1  0
  8 32  1  0
  8 33  1  0
  9 34  1  0
  9 35  1  0
 10 36  1  6
 12 37  1  0
 13 38  1  0
 14 39  1  0
 15 40  1  0
 17 41  1  0
 17 42  1  0
 19 43  1  0
 20 44  1  0
 22 45  1  0
 25 46  1  0
 26 47  1  0
M  END
>  <smiles>  (5) 
O=C(NCC(=O)N1CC[C@H](c2ccccn2)C1)c1ccc2cc(F)ccc2n1

>  <score_type>  (5) 
oracle

>  <origin>  (5) 
autodockgpu

>  <m_score__min__energy>  (5) 
-8.8000000000000007

>  <m_primary>  (5) 
energy

>  <rmsd>  (5) 
2.6332097023522563

>  <m_score__min__rmsd>  (5) 
2.6332097023522563

>  <meeko>  (5) 
{"free_energy": -8.24, "intermolecular_energy": -9.73, "internal_energy": -1.08, "cluster_size": 41, "cluster_id": 1, "rank_in_cluster": 35}

>  <energy>  (5) 
-8.65

>  <cluster_rmsd>  (5) 
1.39

>  <cluster>  (5) 
1

$$$$

     RDKit          3D

 47 50  0  0  0  0  0  0  0  0999 V2000
  140.7020   73.0360  222.3750 O   0  0  0  0  0  0  0  0  0  0  0  0
  139.7120   72.4020  222.8310 C   0  0  0  0  0  0  0  0  0  0  0  0
  138.4500   72.6900  222.2370 N   0  0  0  0  0  0  0  0  0  0  0  0
  138.3930   73.6610  221.1830 C   0  0  0  0  0  0  0  0  0  0  0  0
  138.3010   75.0530  221.6870 C   0  0  0  0  0  0  0  0  0  0  0  0
  137.3360   75.3630  222.4320 O   0  0  0  0  0  0  0  0  0  0  0  0
  139.3170   75.9650  221.2960 N   0  0  0  0  0  0  0  0  0  0  0  0
  140.4370   75.7400  220.3970 C   0  0  0  0  0  0  0  0  0  0  0  0
  141.4780   76.7250  220.8290 C   0  0  0  0  0  0  0  0  0  0  0  0
  140.5990   77.9370  221.1610 C   0  0  2  0  0  0  0  0  0  0  0  0
  141.3050   78.9030  222.0110 C   0  0  0  0  0  0  0  0  0  0  0  0
  141.5060   78.5830  223.3440 C   0  0  0  0  0  0  0  0  0  0  0  0
  142.1550   79.4190  224.2260 C   0  0  0  0  0  0  0  0  0  0  0  0
  142.6230   80.6250  223.7500 C   0  0  0  0  0  0  0  0  0  0  0  0
  142.4130   80.9200  222.4300 C   0  0  0  0  0  0  0  0  0  0  0  0
  141.7710   80.0850  221.5730 N   0  0  0  0  0  0  0  0  0  0  0  0
  139.3590   77.3480  221.7910 C   0  0  0  0  0  0  0  0  0  0  0  0
  139.8390   71.4220  223.9120 C   0  0  0  0  0  0  0  0  0  0  0  0
  139.4220   70.1320  223.6510 C   0  0  0  0  0  0  0  0  0  0  0  0
  139.5410   69.1950  224.6760 C   0  0  0  0  0  0  0  0  0  0  0  0
  140.0560   69.5440  225.9080 C   0  0  0  0  0  0  0  0  0  0  0  0
  140.1700   68.6250  226.9020 C   0  0  0  0  0  0  0  0  0  0  0  0
  140.6900   69.0120  228.1190 C   0  0  0  0  0  0  0  0  0  0  0  0
  140.7930   68.0760  229.1020 F   0  0  0  0  0  0  0  0  0  0  0  0
  141.0990   70.3280  228.3380 C   0  0  0  0  0  0  0  0  0  0  0  0
  140.9880   71.2680  227.3360 C   0  0  0  0  0  0  0  0  0  0  0  0
  140.4650   70.8610  226.1260 C   0  0  0  0  0  0  0  0  0  0  0  0
  140.3410   71.7440  225.1230 N   0  0  0  0  0  0  0  0  0  0  0  0
  137.5750   72.2040  222.5620 H   0  0  0  0  0  0  0  0  0  0  0  0
  139.3021   73.5685  220.5706 H   0  0  0  0  0  0  0  0  0  0  0  0
  137.4837   73.4605  220.5973 H   0  0  0  0  0  0  0  0  0  0  0  0
  140.8126   74.7108  220.4959 H   0  0  0  0  0  0  0  0  0  0  0  0
  140.1550   75.8699  219.3417 H   0  0  0  0  0  0  0  0  0  0  0  0
  142.0304   76.3705  221.7117 H   0  0  0  0  0  0  0  0  0  0  0  0
  142.2618   76.9193  220.0821 H   0  0  0  0  0  0  0  0  0  0  0  0
  140.3337   78.5309  220.2739 H   0  0  0  0  0  0  0  0  0  0  0  0
  141.1304   77.6179  223.7148 H   0  0  0  0  0  0  0  0  0  0  0  0
  142.2955   79.1326  225.2787 H   0  0  0  0  0  0  0  0  0  0  0  0
  143.1494   81.3292  224.4111 H   0  0  0  0  0  0  0  0  0  0  0  0
  142.7828   81.8815  222.0442 H   0  0  0  0  0  0  0  0  0  0  0  0
  139.4341   77.3662  222.8883 H   0  0  0  0  0  0  0  0  0  0  0  0
  138.4505   77.9123  221.5339 H   0  0  0  0  0  0  0  0  0  0  0  0
  139.0107   69.8537  222.6695 H   0  0  0  0  0  0  0  0  0  0  0  0
  139.2185   68.1582  224.4997 H   0  0  0  0  0  0  0  0  0  0  0  0
  139.8514   67.5850  226.7380 H   0  0  0  0  0  0  0  0  0  0  0  0
  141.5123   70.6169  229.3156 H   0  0  0  0  0  0  0  0  0  0  0  0
  141.3061   72.3088  227.4959 H   0  0  0  0  0  0  0  0  0  0  0  0
  1  2  2  0
  2  3  1  0
  3  4  1  0
  4  5  1  0
  5  6  2  0
  5  7  1  0
  7  8  1  0
  8  9  1  0
  9 10  1  0
 10 11  1  0
 11 12  2  0
 12 13  1  0
 13 14  2  0
 14 15  1  0
 15 16  2  0
 10 17  1  0
  2 18  1  0
 18 19  2  0
 19 20  1  0
 20 21  2  0
 21 22  1  0
 22 23  2  0
 23 24  1  0
 23 25  1  0
 25 26  2  0
 26 27  1  0
 27 28  2  0
 17  7  1  0
 28 18  1  0
 16 11  1  0
 27 21  1  0
  3 29  1  0
  4 30  1  0
  4 31  1  0
  8 32  1  0
  8 33  1  0
  9 34  1  0
  9 35  1  0
 10 36  1  6
 12 37  1  0
 13 38  1  0
 14 39  1  0
 15 40  1  0
 17 41  1  0
 17 42  1  0
 19 43  1  0
 20 44  1  0
 22 45  1  0
 25 46  1  0
 26 47  1  0
M  END
>  <smiles>  (6) 
O=C(NCC(=O)N1CC[C@H](c2ccccn2)C1)c1ccc2cc(F)ccc2n1

>  <score_type>  (6) 
oracle

>  <origin>  (6) 
autodockgpu

>  <m_score__min__energy>  (6) 
-8.8000000000000007

>  <m_primary>  (6) 
energy

>  <rmsd>  (6) 
2.4089266413349937

>  <m_score__min__rmsd>  (6) 
2.4089266413349937

>  <meeko>  (6) 
{"free_energy": -8.36, "intermolecular_energy": -9.85, "internal_energy": -1.1, "cluster_size": 41, "cluster_id": 1, "rank_in_cluster": 28}

>  <energy>  (6) 
-8.64

>  <cluster_rmsd>  (6) 
1.36

>  <cluster>  (6) 
1

$$$$

     RDKit          3D

 47 50  0  0  0  0  0  0  0  0999 V2000
  140.6160   71.6340  221.2310 O   0  0  0  0  0  0  0  0  0  0  0  0
  140.1500   72.0420  222.3290 C   0  0  0  0  0  0  0  0  0  0  0  0
  139.6610   73.3800  222.3500 N   0  0  0  0  0  0  0  0  0  0  0  0
  139.7300   74.1540  221.1460 C   0  0  0  0  0  0  0  0  0  0  0  0
  141.0460   74.8120  220.9600 C   0  0  0  0  0  0  0  0  0  0  0  0
  142.0810   74.0980  220.9330 O   0  0  0  0  0  0  0  0  0  0  0  0
  141.0640   76.2270  220.8210 N   0  0  0  0  0  0  0  0  0  0  0  0
  141.3930   77.0150  219.6450 C   0  0  0  0  0  0  0  0  0  0  0  0
  141.8700   78.3270  220.1860 C   0  0  0  0  0  0  0  0  0  0  0  0
  140.9050   78.5140  221.3640 C   0  0  2  0  0  0  0  0  0  0  0  0
  141.4110   79.4970  222.3290 C   0  0  0  0  0  0  0  0  0  0  0  0
  142.7700   79.5200  222.5950 C   0  0  0  0  0  0  0  0  0  0  0  0
  143.3460   80.4030  223.4830 C   0  0  0  0  0  0  0  0  0  0  0  0
  142.5230   81.2990  224.1290 C   0  0  0  0  0  0  0  0  0  0  0  0
  141.1830   81.2590  223.8500 C   0  0  0  0  0  0  0  0  0  0  0  0
  140.6310   80.3830  222.9730 N   0  0  0  0  0  0  0  0  0  0  0  0
  140.7250   77.1260  221.9320 C   0  0  0  0  0  0  0  0  0  0  0  0
  140.1090   71.1980  223.5250 C   0  0  0  0  0  0  0  0  0  0  0  0
  139.5690   69.9340  223.3920 C   0  0  0  0  0  0  0  0  0  0  0  0
  139.5280   69.1260  224.5280 C   0  0  0  0  0  0  0  0  0  0  0  0
  140.0090   69.5740  225.7420 C   0  0  0  0  0  0  0  0  0  0  0  0
  139.9660   68.7810  226.8440 C   0  0  0  0  0  0  0  0  0  0  0  0
  140.4570   69.2640  228.0390 C   0  0  0  0  0  0  0  0  0  0  0  0
  140.4030   68.4540  229.1310 F   0  0  0  0  0  0  0  0  0  0  0  0
  140.9940   70.5490  228.1270 C   0  0  0  0  0  0  0  0  0  0  0  0
  141.0420   71.3620  227.0150 C   0  0  0  0  0  0  0  0  0  0  0  0
  140.5460   70.8600  225.8290 C   0  0  0  0  0  0  0  0  0  0  0  0
  140.5750   71.6170  224.7210 N   0  0  0  0  0  0  0  0  0  0  0  0
  139.2570   73.7950  223.2300 H   0  0  0  0  0  0  0  0  0  0  0  0
  139.5456   73.4888  220.2896 H   0  0  0  0  0  0  0  0  0  0  0  0
  138.9708   74.9467  221.2181 H   0  0  0  0  0  0  0  0  0  0  0  0
  142.1856   76.5258  219.0599 H   0  0  0  0  0  0  0  0  0  0  0  0
  140.5330   77.1321  218.9693 H   0  0  0  0  0  0  0  0  0  0  0  0
  142.9156   78.2708  220.5231 H   0  0  0  0  0  0  0  0  0  0  0  0
  141.8670   79.1507  219.4570 H   0  0  0  0  0  0  0  0  0  0  0  0
  139.9347   78.9352  221.0622 H   0  0  0  0  0  0  0  0  0  0  0  0
  143.4192   78.8009  222.0740 H   0  0  0  0  0  0  0  0  0  0  0  0
  144.4299   80.3925  223.6701 H   0  0  0  0  0  0  0  0  0  0  0  0
  142.9302   82.0253  224.8478 H   0  0  0  0  0  0  0  0  0  0  0  0
  140.5210   81.9726  224.3624 H   0  0  0  0  0  0  0  0  0  0  0  0
  141.4018   76.9637  222.7838 H   0  0  0  0  0  0  0  0  0  0  0  0
  139.7058   76.9578  222.3101 H   0  0  0  0  0  0  0  0  0  0  0  0
  139.1850   69.5773  222.4249 H   0  0  0  0  0  0  0  0  0  0  0  0
  139.1047   68.1133  224.4554 H   0  0  0  0  0  0  0  0  0  0  0  0
  139.5450   67.7665  226.7841 H   0  0  0  0  0  0  0  0  0  0  0  0
  141.3812   70.9152  229.0893 H   0  0  0  0  0  0  0  0  0  0  0  0
  141.4617   72.3772  227.0710 H   0  0  0  0  0  0  0  0  0  0  0  0
  1  2  2  0
  2  3  1  0
  3  4  1  0
  4  5  1  0
  5  6  2  0
  5  7  1  0
  7  8  1  0
  8  9  1  0
  9 10  1  0
 10 11  1  0
 11 12  2  0
 12 13  1  0
 13 14  2  0
 14 15  1  0
 15 16  2  0
 10 17  1  0
  2 18  1  0
 18 19  2  0
 19 20  1  0
 20 21  2  0
 21 22  1  0
 22 23  2  0
 23 24  1  0
 23 25  1  0
 25 26  2  0
 26 27  1  0
 27 28  2  0
 17  7  1  0
 28 18  1  0
 16 11  1  0
 27 21  1  0
  3 29  1  0
  4 30  1  0
  4 31  1  0
  8 32  1  0
  8 33  1  0
  9 34  1  0
  9 35  1  0
 10 36  1  6
 12 37  1  0
 13 38  1  0
 14 39  1  0
 15 40  1  0
 17 41  1  0
 17 42  1  0
 19 43  1  0
 20 44  1  0
 22 45  1  0
 25 46  1  0
 26 47  1  0
M  END
>  <smiles>  (7) 
O=C(NCC(=O)N1CC[C@H](c2ccccn2)C1)c1ccc2cc(F)ccc2n1

>  <score_type>  (7) 
oracle

>  <origin>  (7) 
autodockgpu

>  <m_score__min__energy>  (7) 
-8.8000000000000007

>  <m_primary>  (7) 
energy

>  <rmsd>  (7) 
2.4600311147534226

>  <m_score__min__rmsd>  (7) 
2.4600311147534226

>  <meeko>  (7) 
{"free_energy": -8.74, "intermolecular_energy": -10.23, "internal_energy": -0.97, "cluster_size": 41, "cluster_id": 1, "rank_in_cluster": 4}

>  <energy>  (7) 
-8.63

>  <cluster_rmsd>  (7) 
1.38

>  <cluster>  (7) 
1

$$$$

     RDKit          3D

 47 50  0  0  0  0  0  0  0  0999 V2000
  140.3950   71.7250  221.0790 O   0  0  0  0  0  0  0  0  0  0  0  0
  140.0750   72.1980  222.2020 C   0  0  0  0  0  0  0  0  0  0  0  0
  139.7340   73.5810  222.2310 N   0  0  0  0  0  0  0  0  0  0  0  0
  139.7790   74.3240  221.0060 C   0  0  0  0  0  0  0  0  0  0  0  0
  138.6190   75.2340  220.8420 C   0  0  0  0  0  0  0  0  0  0  0  0
  137.6350   74.8430  220.1620 O   0  0  0  0  0  0  0  0  0  0  0  0
  138.6840   76.5080  221.4680 N   0  0  0  0  0  0  0  0  0  0  0  0
  137.7510   77.6180  221.3590 C   0  0  0  0  0  0  0  0  0  0  0  0
  138.5700   78.8360  221.6520 C   0  0  0  0  0  0  0  0  0  0  0  0
  139.4760   78.3040  222.7700 C   0  0  2  0  0  0  0  0  0  0  0  0
  140.6640   79.1480  222.9530 C   0  0  0  0  0  0  0  0  0  0  0  0
  140.5100   80.3740  223.5770 C   0  0  0  0  0  0  0  0  0  0  0  0
  141.5590   81.2400  223.7970 C   0  0  0  0  0  0  0  0  0  0  0  0
  142.8130   80.8580  223.3730 C   0  0  0  0  0  0  0  0  0  0  0  0
  142.9420   79.6410  222.7580 C   0  0  0  0  0  0  0  0  0  0  0  0
  141.8980   78.7990  222.5490 N   0  0  0  0  0  0  0  0  0  0  0  0
  139.7840   76.8810  222.3670 C   0  0  0  0  0  0  0  0  0  0  0  0
  140.0500   71.3830  223.4180 C   0  0  0  0  0  0  0  0  0  0  0  0
  139.5340   70.1070  223.3170 C   0  0  0  0  0  0  0  0  0  0  0  0
  139.5080   69.3260  224.4720 C   0  0  0  0  0  0  0  0  0  0  0  0
  139.9820   69.8130  225.6740 C   0  0  0  0  0  0  0  0  0  0  0  0
  139.9550   69.0470  226.7950 C   0  0  0  0  0  0  0  0  0  0  0  0
  140.4370   69.5670  227.9780 C   0  0  0  0  0  0  0  0  0  0  0  0
  140.3990   68.7830  229.0900 F   0  0  0  0  0  0  0  0  0  0  0  0
  140.9500   70.8630  228.0330 C   0  0  0  0  0  0  0  0  0  0  0  0
  140.9830   71.6490  226.9010 C   0  0  0  0  0  0  0  0  0  0  0  0
  140.4950   71.1100  225.7290 C   0  0  0  0  0  0  0  0  0  0  0  0
  140.5100   71.8400  224.6030 N   0  0  0  0  0  0  0  0  0  0  0  0
  139.4570   74.0520  223.1310 H   0  0  0  0  0  0  0  0  0  0  0  0
  140.7009   74.9240  220.9927 H   0  0  0  0  0  0  0  0  0  0  0  0
  139.7511   73.5998  220.1785 H   0  0  0  0  0  0  0  0  0  0  0  0
  137.3278   77.6703  220.3450 H   0  0  0  0  0  0  0  0  0  0  0  0
  136.8999   77.5143  222.0481 H   0  0  0  0  0  0  0  0  0  0  0  0
  139.1523   79.1541  220.7747 H   0  0  0  0  0  0  0  0  0  0  0  0
  137.9844   79.7270  221.9226 H   0  0  0  0  0  0  0  0  0  0  0  0
  138.9962   78.3273  223.7596 H   0  0  0  0  0  0  0  0  0  0  0  0
  139.5051   80.6702  223.9123 H   0  0  0  0  0  0  0  0  0  0  0  0
  141.4000   82.2072  224.2961 H   0  0  0  0  0  0  0  0  0  0  0  0
  143.6850   81.5113  223.5240 H   0  0  0  0  0  0  0  0  0  0  0  0
  143.9406   79.3307  222.4167 H   0  0  0  0  0  0  0  0  0  0  0  0
  140.7499   76.8253  221.8437 H   0  0  0  0  0  0  0  0  0  0  0  0
  139.8628   76.2082  223.2337 H   0  0  0  0  0  0  0  0  0  0  0  0
  139.1565   69.7197  222.3592 H   0  0  0  0  0  0  0  0  0  0  0  0
  139.1029   68.3044  224.4247 H   0  0  0  0  0  0  0  0  0  0  0  0
  139.5533   68.0236  226.7599 H   0  0  0  0  0  0  0  0  0  0  0  0
  141.3306   71.2603  228.9856 H   0  0  0  0  0  0  0  0  0  0  0  0
  141.3853   72.6723  226.9314 H   0  0  0  0  0  0  0  0  0  0  0  0
  1  2  2  0
  2  3  1  0
  3  4  1  0
  4  5  1  0
  5  6  2  0
  5  7  1  0
  7  8  1  0
  8  9  1  0
  9 10  1  0
 10 11  1  0
 11 12  2  0
 12 13  1  0
 13 14  2  0
 14 15  1  0
 15 16  2  0
 10 17  1  0
  2 18  1  0
 18 19  2  0
 19 20  1  0
 20 21  2  0
 21 22  1  0
 22 23  2  0
 23 24  1  0
 23 25  1  0
 25 26  2  0
 26 27  1  0
 27 28  2  0
 17  7  1  0
 28 18  1  0
 16 11  1  0
 27 21  1  0
  3 29  1  0
  4 30  1  0
  4 31  1  0
  8 32  1  0
  8 33  1  0
  9 34  1  0
  9 35  1  0
 10 36  1  1
 12 37  1  0
 13 38  1  0
 14 39  1  0
 15 40  1  0
 17 41  1  0
 17 42  1  0
 19 43  1  0
 20 44  1  0
 22 45  1  0
 25 46  1  0
 26 47  1  0
M  END
>  <smiles>  (8) 
O=C(NCC(=O)N1CC[C@H](c2ccccn2)C1)c1ccc2cc(F)ccc2n1

>  <score_type>  (8) 
oracle

>  <origin>  (8) 
autodockgpu

>  <m_score__min__energy>  (8) 
-8.8000000000000007

>  <m_primary>  (8) 
energy

>  <rmsd>  (8) 
3.1051450063443

>  <m_score__min__rmsd>  (8) 
3.1051450063443

>  <meeko>  (8) 
{"free_energy": -8.2, "intermolecular_energy": -9.69, "internal_energy": -1.01, "cluster_size": 41, "cluster_id": 1, "rank_in_cluster": 37}

>  <energy>  (8) 
-8.63

>  <cluster_rmsd>  (8) 
0.78

>  <cluster>  (8) 
1

$$$$

     RDKit          3D

 47 50  0  0  0  0  0  0  0  0999 V2000
  140.6730   71.7980  221.0890 O   0  0  0  0  0  0  0  0  0  0  0  0
  140.2850   72.2640  222.1940 C   0  0  0  0  0  0  0  0  0  0  0  0
  139.9310   73.6440  222.2090 N   0  0  0  0  0  0  0  0  0  0  0  0
  140.0400   74.3930  220.9920 C   0  0  0  0  0  0  0  0  0  0  0  0
  141.1730   75.3490  221.0030 C   0  0  0  0  0  0  0  0  0  0  0  0
  140.9900   76.5000  221.4780 O   0  0  0  0  0  0  0  0  0  0  0  0
  142.4160   74.9080  220.4730 N   0  0  0  0  0  0  0  0  0  0  0  0
  143.2830   75.5820  219.5200 C   0  0  0  0  0  0  0  0  0  0  0  0
  144.0460   74.4800  218.8520 C   0  0  0  0  0  0  0  0  0  0  0  0
  144.2870   73.5430  220.0420 C   0  0  2  0  0  0  0  0  0  0  0  0
  144.6360   72.1870  219.6020 C   0  0  0  0  0  0  0  0  0  0  0  0
  143.8560   71.1310  220.0420 C   0  0  0  0  0  0  0  0  0  0  0  0
  144.0980   69.8210  219.6880 C   0  0  0  0  0  0  0  0  0  0  0  0
  145.1680   69.5620  218.8590 C   0  0  0  0  0  0  0  0  0  0  0  0
  145.9260   70.6220  218.4360 C   0  0  0  0  0  0  0  0  0  0  0  0
  145.6730   71.9070  218.7940 N   0  0  0  0  0  0  0  0  0  0  0  0
  143.0160   73.6220  220.8540 C   0  0  0  0  0  0  0  0  0  0  0  0
  140.1970   71.4430  223.4040 C   0  0  0  0  0  0  0  0  0  0  0  0
  139.6150   70.1970  223.2840 C   0  0  0  0  0  0  0  0  0  0  0  0
  139.5300   69.4110  224.4330 C   0  0  0  0  0  0  0  0  0  0  0  0
  140.0090   69.8630  225.6460 C   0  0  0  0  0  0  0  0  0  0  0  0
  139.9230   69.0920  226.7610 C   0  0  0  0  0  0  0  0  0  0  0  0
  140.4130   69.5780  227.9550 C   0  0  0  0  0  0  0  0  0  0  0  0
  140.3150   68.7900  229.0600 F   0  0  0  0  0  0  0  0  0  0  0  0
  140.9930   70.8450  228.0280 C   0  0  0  0  0  0  0  0  0  0  0  0
  141.0860   71.6360  226.9030 C   0  0  0  0  0  0  0  0  0  0  0  0
  140.5890   71.1310  225.7190 C   0  0  0  0  0  0  0  0  0  0  0  0
  140.6610   71.8670  224.5990 N   0  0  0  0  0  0  0  0  0  0  0  0
  139.5980   74.1080  223.0930 H   0  0  0  0  0  0  0  0  0  0  0  0
  140.1823   73.6896  220.1584 H   0  0  0  0  0  0  0  0  0  0  0  0
  139.1152   74.9781  220.8803 H   0  0  0  0  0  0  0  0  0  0  0  0
  142.6881   76.1429  218.7841 H   0  0  0  0  0  0  0  0  0  0  0  0
  143.9472   76.3116  220.0064 H   0  0  0  0  0  0  0  0  0  0  0  0
  143.4505   73.9927  218.0659 H   0  0  0  0  0  0  0  0  0  0  0  0
  144.9598   74.8053  218.3332 H   0  0  0  0  0  0  0  0  0  0  0  0
  145.1519   73.8393  220.6536 H   0  0  0  0  0  0  0  0  0  0  0  0
  143.0046   71.3473  220.7041 H   0  0  0  0  0  0  0  0  0  0  0  0
  143.4564   69.0068  220.0561 H   0  0  0  0  0  0  0  0  0  0  0  0
  145.4064   68.5347  218.5462 H   0  0  0  0  0  0  0  0  0  0  0  0
  146.7814   70.4222  217.7739 H   0  0  0  0  0  0  0  0  0  0  0  0
  142.3423   72.7892  220.6039 H   0  0  0  0  0  0  0  0  0  0  0  0
  143.2052   73.5525  221.9354 H   0  0  0  0  0  0  0  0  0  0  0  0
  139.2323   69.8372  222.3175 H   0  0  0  0  0  0  0  0  0  0  0  0
  139.0728   68.4124  224.3714 H   0  0  0  0  0  0  0  0  0  0  0  0
  139.4679   68.0918  226.7122 H   0  0  0  0  0  0  0  0  0  0  0  0
  141.3785   71.2150  228.9895 H   0  0  0  0  0  0  0  0  0  0  0  0
  141.5412   72.6364  226.9476 H   0  0  0  0  0  0  0  0  0  0  0  0
  1  2  2  0
  2  3  1  0
  3  4  1  0
  4  5  1  0
  5  6  2  0
  5  7  1  0
  7  8  1  0
  8  9  1  0
  9 10  1  0
 10 11  1  0
 11 12  2  0
 12 13  1  0
 13 14  2  0
 14 15  1  0
 15 16  2  0
 10 17  1  0
  2 18  1  0
 18 19  2  0
 19 20  1  0
 20 21  2  0
 21 22  1  0
 22 23  2  0
 23 24  1  0
 23 25  1  0
 25 26  2  0
 26 27  1  0
 27 28  2  0
 17  7  1  0
 28 18  1  0
 16 11  1  0
 27 21  1  0
  3 29  1  0
  4 30  1  0
  4 31  1  0
  8 32  1  0
  8 33  1  0
  9 34  1  0
  9 35  1  0
 10 36  1  1
 12 37  1  0
 13 38  1  0
 14 39  1  0
 15 40  1  0
 17 41  1  0
 17 42  1  0
 19 43  1  0
 20 44  1  0
 22 45  1  0
 25 46  1  0
 26 47  1  0
M  END
>  <smiles>  (9) 
O=C(NCC(=O)N1CC[C@H](c2ccccn2)C1)c1ccc2cc(F)ccc2n1

>  <score_type>  (9) 
oracle

>  <origin>  (9) 
autodockgpu

>  <m_score__min__energy>  (9) 
-8.8000000000000007

>  <m_primary>  (9) 
energy

>  <rmsd>  (9) 
2.805589411542847

>  <m_score__min__rmsd>  (9) 
2.805589411542847

>  <meeko>  (9) 
{"free_energy": -7.95, "intermolecular_energy": -9.44, "internal_energy": -1.4, "cluster_size": 4, "cluster_id": 4, "rank_in_cluster": 2}

>  <energy>  (9) 
-8.63

>  <cluster_rmsd>  (9) 
1.4

>  <cluster>  (9) 
1

$$$$

     RDKit          3D

 47 50  0  0  0  0  0  0  0  0999 V2000
  140.8100   72.0860  221.3670 O   0  0  0  0  0  0  0  0  0  0  0  0
  139.9340   72.2160  222.2640 C   0  0  0  0  0  0  0  0  0  0  0  0
  138.9410   73.2120  222.0370 N   0  0  0  0  0  0  0  0  0  0  0  0
  139.0050   73.9820  220.8290 C   0  0  0  0  0  0  0  0  0  0  0  0
  140.0680   75.0160  220.8610 C   0  0  0  0  0  0  0  0  0  0  0  0
  141.1720   74.7660  220.3130 O   0  0  0  0  0  0  0  0  0  0  0  0
  139.7760   76.2430  221.5160 N   0  0  0  0  0  0  0  0  0  0  0  0
  138.5940   77.0790  221.3850 C   0  0  0  0  0  0  0  0  0  0  0  0
  139.0590   78.4570  221.7420 C   0  0  0  0  0  0  0  0  0  0  0  0
  140.0240   78.1400  222.8920 C   0  0  2  0  0  0  0  0  0  0  0  0
  140.9450   79.2530  223.1490 C   0  0  0  0  0  0  0  0  0  0  0  0
  142.2860   79.0800  222.8530 C   0  0  0  0  0  0  0  0  0  0  0  0
  143.2320   80.0610  223.0570 C   0  0  0  0  0  0  0  0  0  0  0  0
  142.8140   81.2650  223.5800 C   0  0  0  0  0  0  0  0  0  0  0  0
  141.4830   81.4140  223.8650 C   0  0  0  0  0  0  0  0  0  0  0  0
  140.5630   80.4380  223.6580 N   0  0  0  0  0  0  0  0  0  0  0  0
  140.7040   76.8570  222.4750 C   0  0  0  0  0  0  0  0  0  0  0  0
  139.9250   71.3960  223.4770 C   0  0  0  0  0  0  0  0  0  0  0  0
  139.3350   70.1510  223.3970 C   0  0  0  0  0  0  0  0  0  0  0  0
  139.3250   69.3660  224.5490 C   0  0  0  0  0  0  0  0  0  0  0  0
  139.8850   69.8180  225.7280 C   0  0  0  0  0  0  0  0  0  0  0  0
  139.8710   69.0470  226.8460 C   0  0  0  0  0  0  0  0  0  0  0  0
  140.4410   69.5330  228.0040 C   0  0  0  0  0  0  0  0  0  0  0  0
  140.4160   68.7450  229.1140 F   0  0  0  0  0  0  0  0  0  0  0  0
  141.0260   70.7990  228.0380 C   0  0  0  0  0  0  0  0  0  0  0  0
  141.0450   71.5890  226.9090 C   0  0  0  0  0  0  0  0  0  0  0  0
  140.4700   71.0840  225.7610 C   0  0  0  0  0  0  0  0  0  0  0  0
  140.4680   71.8200  224.6380 N   0  0  0  0  0  0  0  0  0  0  0  0
  138.1750   73.3840  222.7390 H   0  0  0  0  0  0  0  0  0  0  0  0
  139.2028   73.3008  219.9883 H   0  0  0  0  0  0  0  0  0  0  0  0
  138.0418   74.5012  220.7163 H   0  0  0  0  0  0  0  0  0  0  0  0
  138.2137   77.0535  220.3531 H   0  0  0  0  0  0  0  0  0  0  0  0
  137.7707   76.7383  222.0301 H   0  0  0  0  0  0  0  0  0  0  0  0
  139.5759   78.9415  220.9005 H   0  0  0  0  0  0  0  0  0  0  0  0
  138.2528   79.1589  222.0016 H   0  0  0  0  0  0  0  0  0  0  0  0
  139.5142   78.0084  223.8578 H   0  0  0  0  0  0  0  0  0  0  0  0
  142.6114   78.1155  222.4359 H   0  0  0  0  0  0  0  0  0  0  0  0
  144.2897   79.8878  222.8096 H   0  0  0  0  0  0  0  0  0  0  0  0
  143.5277   82.0818  223.7631 H   0  0  0  0  0  0  0  0  0  0  0  0
  141.1424   82.3729  224.2827 H   0  0  0  0  0  0  0  0  0  0  0  0
  141.6726   77.0677  221.9982 H   0  0  0  0  0  0  0  0  0  0  0  0
  140.9165   76.1993  223.3307 H   0  0  0  0  0  0  0  0  0  0  0  0
  138.8888   69.7911  222.4582 H   0  0  0  0  0  0  0  0  0  0  0  0
  138.8627   68.3683  224.5185 H   0  0  0  0  0  0  0  0  0  0  0  0
  139.4110   68.0479  226.8281 H   0  0  0  0  0  0  0  0  0  0  0  0
  141.4748   71.1689  228.9716 H   0  0  0  0  0  0  0  0  0  0  0  0
  141.5033   72.5889  226.9226 H   0  0  0  0  0  0  0  0  0  0  0  0
  1  2  2  0
  2  3  1  0
  3  4  1  0
  4  5  1  0
  5  6  2  0
  5  7  1  0
  7  8  1  0
  8  9  1  0
  9 10  1  0
 10 11  1  0
 11 12  2  0
 12 13  1  0
 13 14  2  0
 14 15  1  0
 15 16  2  0
 10 17  1  0
  2 18  1  0
 18 19  2  0
 19 20  1  0
 20 21  2  0
 21 22  1  0
 22 23  2  0
 23 24  1  0
 23 25  1  0
 25 26  2  0
 26 27  1  0
 27 28  2  0
 17  7  1  0
 28 18  1  0
 16 11  1  0
 27 21  1  0
  3 29  1  0
  4 30  1  0
  4 31  1  0
  8 32  1  0
  8 33  1  0
  9 34  1  0
  9 35  1  0
 10 36  1  1
 12 37  1  0
 13 38  1  0
 14 39  1  0
 15 40  1  0
 17 41  1  0
 17 42  1  0
 19 43  1  0
 20 44  1  0
 22 45  1  0
 25 46  1  0
 26 47  1  0
M  END
>  <smiles>  (10) 
O=C(NCC(=O)N1CC[C@H](c2ccccn2)C1)c1ccc2cc(F)ccc2n1

>  <score_type>  (10) 
oracle

>  <origin>  (10) 
autodockgpu

>  <m_score__min__energy>  (10) 
-8.8000000000000007

>  <m_primary>  (10) 
energy

>  <rmsd>  (10) 
2.960955861083654

>  <m_score__min__rmsd>  (10) 
2.960955861083654

>  <meeko>  (10) 
{"free_energy": -8.36, "intermolecular_energy": -9.85, "internal_energy": -0.99, "cluster_size": 41, "cluster_id": 1, "rank_in_cluster": 27}

>  <energy>  (10) 
-8.62

>  <cluster_rmsd>  (10) 
1.43

>  <cluster>  (10) 
1

$$$$

     RDKit          3D

 47 50  0  0  0  0  0  0  0  0999 V2000
  141.0030   71.9050  221.3100 O   0  0  0  0  0  0  0  0  0  0  0  0
  140.1650   72.1130  222.2280 C   0  0  0  0  0  0  0  0  0  0  0  0
  139.2630   73.1980  222.0260 N   0  0  0  0  0  0  0  0  0  0  0  0
  139.3690   73.9620  220.8180 C   0  0  0  0  0  0  0  0  0  0  0  0
  140.4370   74.9900  220.8780 C   0  0  0  0  0  0  0  0  0  0  0  0
  141.5910   74.6860  220.4820 O   0  0  0  0  0  0  0  0  0  0  0  0
  140.0920   76.2720  221.3850 N   0  0  0  0  0  0  0  0  0  0  0  0
  139.0430   77.1710  220.9320 C   0  0  0  0  0  0  0  0  0  0  0  0
  139.5130   78.5360  221.3270 C   0  0  0  0  0  0  0  0  0  0  0  0
  140.1470   78.2320  222.6900 C   0  0  2  0  0  0  0  0  0  0  0  0
  141.0620   79.2990  223.1130 C   0  0  0  0  0  0  0  0  0  0  0  0
  142.3970   79.1990  222.7600 C   0  0  0  0  0  0  0  0  0  0  0  0
  143.3370   80.1450  223.1070 C   0  0  0  0  0  0  0  0  0  0  0  0
  142.9190   81.2360  223.8380 C   0  0  0  0  0  0  0  0  0  0  0  0
  141.5940   81.3140  224.1760 C   0  0  0  0  0  0  0  0  0  0  0  0
  140.6800   80.3730  223.8260 N   0  0  0  0  0  0  0  0  0  0  0  0
  140.8070   76.8850  222.5120 C   0  0  0  0  0  0  0  0  0  0  0  0
  140.1100   71.2940  223.4400 C   0  0  0  0  0  0  0  0  0  0  0  0
  139.5290   70.0460  223.3370 C   0  0  0  0  0  0  0  0  0  0  0  0
  139.4750   69.2610  224.4890 C   0  0  0  0  0  0  0  0  0  0  0  0
  139.9830   69.7170  225.6890 C   0  0  0  0  0  0  0  0  0  0  0  0
  139.9270   68.9470  226.8070 C   0  0  0  0  0  0  0  0  0  0  0  0
  140.4450   69.4370  227.9870 C   0  0  0  0  0  0  0  0  0  0  0  0
  140.3770   68.6500  229.0960 F   0  0  0  0  0  0  0  0  0  0  0  0
  141.0220   70.7060  228.0450 C   0  0  0  0  0  0  0  0  0  0  0  0
  141.0850   71.4950  226.9160 C   0  0  0  0  0  0  0  0  0  0  0  0
  140.5600   70.9870  225.7460 C   0  0  0  0  0  0  0  0  0  0  0  0
  140.6020   71.7210  224.6230 N   0  0  0  0  0  0  0  0  0  0  0  0
  138.5330   73.4370  222.7460 H   0  0  0  0  0  0  0  0  0  0  0  0
  139.5883   73.2759  219.9867 H   0  0  0  0  0  0  0  0  0  0  0  0
  138.4130   74.4866  220.6738 H   0  0  0  0  0  0  0  0  0  0  0  0
  138.9197   77.1042  219.8410 H   0  0  0  0  0  0  0  0  0  0  0  0
  138.0657   76.9245  221.3726 H   0  0  0  0  0  0  0  0  0  0  0  0
  140.2520   78.9325  220.6151 H   0  0  0  0  0  0  0  0  0  0  0  0
  138.7245   79.3027  221.3498 H   0  0  0  0  0  0  0  0  0  0  0  0
  139.4114   78.1940  223.5069 H   0  0  0  0  0  0  0  0  0  0  0  0
  142.7219   78.3251  222.1763 H   0  0  0  0  0  0  0  0  0  0  0  0
  144.3900   80.0327  222.8093 H   0  0  0  0  0  0  0  0  0  0  0  0
  143.6281   82.0205  224.1409 H   0  0  0  0  0  0  0  0  0  0  0  0
  141.2536   82.1819  224.7598 H   0  0  0  0  0  0  0  0  0  0  0  0
  141.8751   77.0032  222.2769 H   0  0  0  0  0  0  0  0  0  0  0  0
  140.7572   76.2708  223.4232 H   0  0  0  0  0  0  0  0  0  0  0  0
  139.1232   69.6835  222.3810 H   0  0  0  0  0  0  0  0  0  0  0  0
  139.0196   68.2609  224.4403 H   0  0  0  0  0  0  0  0  0  0  0  0
  139.4741   67.9452  226.7712 H   0  0  0  0  0  0  0  0  0  0  0  0
  141.4288   71.0790  228.9965 H   0  0  0  0  0  0  0  0  0  0  0  0
  141.5390   72.4965  226.9473 H   0  0  0  0  0  0  0  0  0  0  0  0
  1  2  2  0
  2  3  1  0
  3  4  1  0
  4  5  1  0
  5  6  2  0
  5  7  1  0
  7  8  1  0
  8  9  1  0
  9 10  1  0
 10 11  1  0
 11 12  2  0
 12 13  1  0
 13 14  2  0
 14 15  1  0
 15 16  2  0
 10 17  1  0
  2 18  1  0
 18 19  2  0
 19 20  1  0
 20 21  2  0
 21 22  1  0
 22 23  2  0
 23 24  1  0
 23 25  1  0
 25 26  2  0
 26 27  1  0
 27 28  2  0
 17  7  1  0
 28 18  1  0
 16 11  1  0
 27 21  1  0
  3 29  1  0
  4 30  1  0
  4 31  1  0
  8 32  1  0
  8 33  1  0
  9 34  1  0
  9 35  1  0
 10 36  1  1
 12 37  1  0
 13 38  1  0
 14 39  1  0
 15 40  1  0
 17 41  1  0
 17 42  1  0
 19 43  1  0
 20 44  1  0
 22 45  1  0
 25 46  1  0
 26 47  1  0
M  END
>  <smiles>  (11) 
O=C(NCC(=O)N1CC[C@H](c2ccccn2)C1)c1ccc2cc(F)ccc2n1

>  <score_type>  (11) 
oracle

>  <origin>  (11) 
autodockgpu

>  <m_score__min__energy>  (11) 
-8.8000000000000007

>  <m_primary>  (11) 
energy

>  <rmsd>  (11) 
2.869392362669033

>  <m_score__min__rmsd>  (11) 
2.869392362669033

>  <meeko>  (11) 
{"free_energy": -8.49, "intermolecular_energy": -9.98, "internal_energy": -0.98, "cluster_size": 41, "cluster_id": 1, "rank_in_cluster": 15}

>  <energy>  (11) 
-8.58

>  <cluster_rmsd>  (11) 
1.39

>  <cluster>  (11) 
1

$$$$

     RDKit          3D

 47 50  0  0  0  0  0  0  0  0999 V2000
  139.8870   73.5510  222.7120 O   0  0  0  0  0  0  0  0  0  0  0  0
  140.2040   72.3340  222.6250 C   0  0  0  0  0  0  0  0  0  0  0  0
  140.6300   71.8830  221.3420 N   0  0  0  0  0  0  0  0  0  0  0  0
  140.6670   72.8240  220.2610 C   0  0  0  0  0  0  0  0  0  0  0  0
  141.9570   73.5500  220.1740 C   0  0  0  0  0  0  0  0  0  0  0  0
  143.0260   72.8890  220.2050 O   0  0  0  0  0  0  0  0  0  0  0  0
  141.9120   74.9660  220.0590 N   0  0  0  0  0  0  0  0  0  0  0  0
  142.5200   75.8110  219.0440 C   0  0  0  0  0  0  0  0  0  0  0  0
  142.7150   77.1350  219.7150 C   0  0  0  0  0  0  0  0  0  0  0  0
  141.4310   77.2190  220.5490 C   0  0  2  0  0  0  0  0  0  0  0  0
  141.5500   78.2050  221.6300 C   0  0  0  0  0  0  0  0  0  0  0  0
  141.8420   79.5170  221.2950 C   0  0  0  0  0  0  0  0  0  0  0  0
  141.9760   80.5180  222.2330 C   0  0  0  0  0  0  0  0  0  0  0  0
  141.8090   80.1880  223.5600 C   0  0  0  0  0  0  0  0  0  0  0  0
  141.5200   78.8850  223.8680 C   0  0  0  0  0  0  0  0  0  0  0  0
  141.3920   77.9110  222.9320 N   0  0  0  0  0  0  0  0  0  0  0  0
  141.1910   75.8060  221.0250 C   0  0  0  0  0  0  0  0  0  0  0  0
  140.1440   71.4240  223.7700 C   0  0  0  0  0  0  0  0  0  0  0  0
  139.5840   70.1790  223.5630 C   0  0  0  0  0  0  0  0  0  0  0  0
  139.5240   69.3080  224.6510 C   0  0  0  0  0  0  0  0  0  0  0  0
  140.0080   69.6780  225.8900 C   0  0  0  0  0  0  0  0  0  0  0  0
  139.9480   68.8240  226.9440 C   0  0  0  0  0  0  0  0  0  0  0  0
  140.4410   69.2290  228.1670 C   0  0  0  0  0  0  0  0  0  0  0  0
  140.3690   68.3580  229.2100 F   0  0  0  0  0  0  0  0  0  0  0  0
  140.9990   70.4980  228.3300 C   0  0  0  0  0  0  0  0  0  0  0  0
  141.0650   71.3720  227.2660 C   0  0  0  0  0  0  0  0  0  0  0  0
  140.5660   70.9470  226.0520 C   0  0  0  0  0  0  0  0  0  0  0  0
  140.6120   71.7660  224.9900 N   0  0  0  0  0  0  0  0  0  0  0  0
  140.9110   70.8800  221.1870 H   0  0  0  0  0  0  0  0  0  0  0  0
  140.5046   72.2820  219.3177 H   0  0  0  0  0  0  0  0  0  0  0  0
  139.8794   73.5697  220.4444 H   0  0  0  0  0  0  0  0  0  0  0  0
  143.4854   75.3946  218.7206 H   0  0  0  0  0  0  0  0  0  0  0  0
  141.8958   75.8907  218.1418 H   0  0  0  0  0  0  0  0  0  0  0  0
  143.6128   77.1396  220.3505 H   0  0  0  0  0  0  0  0  0  0  0  0
  142.8698   77.9788  219.0265 H   0  0  0  0  0  0  0  0  0  0  0  0
  140.5675   77.5814  219.9718 H   0  0  0  0  0  0  0  0  0  0  0  0
  141.9728   79.7714  220.2328 H   0  0  0  0  0  0  0  0  0  0  0  0
  142.2093   81.5497  221.9310 H   0  0  0  0  0  0  0  0  0  0  0  0
  141.9049   80.9485  224.3490 H   0  0  0  0  0  0  0  0  0  0  0  0
  141.3851   78.6150  224.9258 H   0  0  0  0  0  0  0  0  0  0  0  0
  141.5919   75.6639  222.0394 H   0  0  0  0  0  0  0  0  0  0  0  0
  140.1206   75.5583  221.0783 H   0  0  0  0  0  0  0  0  0  0  0  0
  139.1990   69.8845  222.5756 H   0  0  0  0  0  0  0  0  0  0  0  0
  139.0833   68.3088  224.5195 H   0  0  0  0  0  0  0  0  0  0  0  0
  139.5116   67.8214  226.8240 H   0  0  0  0  0  0  0  0  0  0  0  0
  141.3882   70.8023  229.3128 H   0  0  0  0  0  0  0  0  0  0  0  0
  141.5012   72.3752  227.3811 H   0  0  0  0  0  0  0  0  0  0  0  0
  1  2  2  0
  2  3  1  0
  3  4  1  0
  4  5  1  0
  5  6  2  0
  5  7  1  0
  7  8  1  0
  8  9  1  0
  9 10  1  0
 10 11  1  0
 11 12  2  0
 12 13  1  0
 13 14  2  0
 14 15  1  0
 15 16  2  0
 10 17  1  0
  2 18  1  0
 18 19  2  0
 19 20  1  0
 20 21  2  0
 21 22  1  0
 22 23  2  0
 23 24  1  0
 23 25  1  0
 25 26  2  0
 26 27  1  0
 27 28  2  0
 17  7  1  0
 28 18  1  0
 16 11  1  0
 27 21  1  0
  3 29  1  0
  4 30  1  0
  4 31  1  0
  8 32  1  0
  8 33  1  0
  9 34  1  0
  9 35  1  0
 10 36  1  6
 12 37  1  0
 13 38  1  0
 14 39  1  0
 15 40  1  0
 17 41  1  0
 17 42  1  0
 19 43  1  0
 20 44  1  0
 22 45  1  0
 25 46  1  0
 26 47  1  0
M  END
>  <smiles>  (12) 
O=C(NCC(=O)N1CC[C@H](c2ccccn2)C1)c1ccc2cc(F)ccc2n1

>  <score_type>  (12) 
oracle

>  <origin>  (12) 
autodockgpu

>  <m_score__min__energy>  (12) 
-8.8000000000000007

>  <m_primary>  (12) 
energy

>  <rmsd>  (12) 
2.457257214087218

>  <m_score__min__rmsd>  (12) 
2.457257214087218

>  <meeko>  (12) 
{"free_energy": -8.41, "intermolecular_energy": -9.9, "internal_energy": -1.06, "cluster_size": 41, "cluster_id": 1, "rank_in_cluster": 23}

>  <energy>  (12) 
-8.52

>  <cluster_rmsd>  (12) 
1.21

>  <cluster>  (12) 
1

$$$$

     RDKit          3D

 47 50  0  0  0  0  0  0  0  0999 V2000
  140.3900   71.1160  221.4430 O   0  0  0  0  0  0  0  0  0  0  0  0
  140.0070   71.5750  222.5530 C   0  0  0  0  0  0  0  0  0  0  0  0
  139.6140   72.9450  222.5680 N   0  0  0  0  0  0  0  0  0  0  0  0
  139.6820   73.6920  221.3460 C   0  0  0  0  0  0  0  0  0  0  0  0
  141.0420   74.2150  221.0660 C   0  0  0  0  0  0  0  0  0  0  0  0
  142.0130   73.4170  221.0890 O   0  0  0  0  0  0  0  0  0  0  0  0
  141.1700   75.6020  220.7840 N   0  0  0  0  0  0  0  0  0  0  0  0
  141.7280   76.2350  219.5990 C   0  0  0  0  0  0  0  0  0  0  0  0
  142.1970   77.5770  220.0690 C   0  0  0  0  0  0  0  0  0  0  0  0
  141.0760   77.9400  221.0500 C   0  0  2  0  0  0  0  0  0  0  0  0
  141.4880   79.0030  221.9750 C   0  0  0  0  0  0  0  0  0  0  0  0
  141.8020   78.6570  223.2780 C   0  0  0  0  0  0  0  0  0  0  0  0
  142.1980   79.5770  224.2240 C   0  0  0  0  0  0  0  0  0  0  0  0
  142.2840   80.8990  223.8450 C   0  0  0  0  0  0  0  0  0  0  0  0
  141.9690   81.2190  222.5510 C   0  0  0  0  0  0  0  0  0  0  0  0
  141.5800   80.3000  221.6310 N   0  0  0  0  0  0  0  0  0  0  0  0
  140.7220   76.6360  221.7250 C   0  0  0  0  0  0  0  0  0  0  0  0
  139.9620   70.7570  223.7660 C   0  0  0  0  0  0  0  0  0  0  0  0
  139.3400   69.5280  223.6810 C   0  0  0  0  0  0  0  0  0  0  0  0
  139.2950   68.7450  224.8340 C   0  0  0  0  0  0  0  0  0  0  0  0
  139.8520   69.1830  226.0180 C   0  0  0  0  0  0  0  0  0  0  0  0
  139.8040   68.4150  227.1370 C   0  0  0  0  0  0  0  0  0  0  0  0
  140.3720   68.8870  228.3020 C   0  0  0  0  0  0  0  0  0  0  0  0
  140.3120   68.1020  229.4120 F   0  0  0  0  0  0  0  0  0  0  0  0
  140.9900   70.1380  228.3420 C   0  0  0  0  0  0  0  0  0  0  0  0
  141.0440   70.9250  227.2120 C   0  0  0  0  0  0  0  0  0  0  0  0
  140.4700   70.4340  226.0580 C   0  0  0  0  0  0  0  0  0  0  0  0
  140.5010   71.1680  224.9340 N   0  0  0  0  0  0  0  0  0  0  0  0
  139.2830   73.4030  223.4560 H   0  0  0  0  0  0  0  0  0  0  0  0
  139.3800   73.0362  220.5161 H   0  0  0  0  0  0  0  0  0  0  0  0
  139.0097   74.5565  221.4488 H   0  0  0  0  0  0  0  0  0  0  0  0
  142.5695   75.6464  219.2048 H   0  0  0  0  0  0  0  0  0  0  0  0
  140.9931   76.3133  218.7843 H   0  0  0  0  0  0  0  0  0  0  0  0
  143.1723   77.5120  220.5735 H   0  0  0  0  0  0  0  0  0  0  0  0
  142.3583   78.3119  219.2666 H   0  0  0  0  0  0  0  0  0  0  0  0
  140.1925   78.3674  220.5532 H   0  0  0  0  0  0  0  0  0  0  0  0
  141.7322   77.5992  223.5715 H   0  0  0  0  0  0  0  0  0  0  0  0
  142.4383   79.2655  225.2512 H   0  0  0  0  0  0  0  0  0  0  0  0
  142.5963   81.6742  224.5603 H   0  0  0  0  0  0  0  0  0  0  0  0
  142.0345   82.2727  222.2422 H   0  0  0  0  0  0  0  0  0  0  0  0
  141.2475   76.5407  222.6867 H   0  0  0  0  0  0  0  0  0  0  0  0
  139.6481   76.5596  221.9505 H   0  0  0  0  0  0  0  0  0  0  0  0
  138.8956   69.1785  222.7374 H   0  0  0  0  0  0  0  0  0  0  0  0
  138.8065   67.7601  224.7990 H   0  0  0  0  0  0  0  0  0  0  0  0
  139.3180   67.4284  227.1146 H   0  0  0  0  0  0  0  0  0  0  0  0
  141.4364   70.4977  229.2808 H   0  0  0  0  0  0  0  0  0  0  0  0
  141.5289   71.9122  227.2298 H   0  0  0  0  0  0  0  0  0  0  0  0
  1  2  2  0
  2  3  1  0
  3  4  1  0
  4  5  1  0
  5  6  2  0
  5  7  1  0
  7  8  1  0
  8  9  1  0
  9 10  1  0
 10 11  1  0
 11 12  2  0
 12 13  1  0
 13 14  2  0
 14 15  1  0
 15 16  2  0
 10 17  1  0
  2 18  1  0
 18 19  2  0
 19 20  1  0
 20 21  2  0
 21 22  1  0
 22 23  2  0
 23 24  1  0
 23 25  1  0
 25 26  2  0
 26 27  1  0
 27 28  2  0
 17  7  1  0
 28 18  1  0
 16 11  1  0
 27 21  1  0
  3 29  1  0
  4 30  1  0
  4 31  1  0
  8 32  1  0
  8 33  1  0
  9 34  1  0
  9 35  1  0
 10 36  1  6
 12 37  1  0
 13 38  1  0
 14 39  1  0
 15 40  1  0
 17 41  1  0
 17 42  1  0
 19 43  1  0
 20 44  1  0
 22 45  1  0
 25 46  1  0
 26 47  1  0
M  END
>  <smiles>  (13) 
O=C(NCC(=O)N1CC[C@H](c2ccccn2)C1)c1ccc2cc(F)ccc2n1

>  <score_type>  (13) 
oracle

>  <origin>  (13) 
autodockgpu

>  <m_score__min__energy>  (13) 
-8.8000000000000007

>  <m_primary>  (13) 
energy

>  <rmsd>  (13) 
2.2709976490141246

>  <m_score__min__rmsd>  (13) 
2.2709976490141246

>  <meeko>  (13) 
{"free_energy": -8.63, "intermolecular_energy": -10.12, "internal_energy": -0.98, "cluster_size": 41, "cluster_id": 1, "rank_in_cluster": 8}

>  <energy>  (13) 
-8.52

>  <cluster_rmsd>  (13) 
0.92

>  <cluster>  (13) 
1

$$$$

     RDKit          3D

 47 50  0  0  0  0  0  0  0  0999 V2000
  139.8210   73.6020  222.4650 O   0  0  0  0  0  0  0  0  0  0  0  0
  140.3230   72.4460  222.4790 C   0  0  0  0  0  0  0  0  0  0  0  0
  141.0210   72.0460  221.3030 N   0  0  0  0  0  0  0  0  0  0  0  0
  141.1030   72.9670  220.2070 C   0  0  0  0  0  0  0  0  0  0  0  0
  142.2260   73.9260  220.3440 C   0  0  0  0  0  0  0  0  0  0  0  0
  143.3820   73.4780  220.5510 O   0  0  0  0  0  0  0  0  0  0  0  0
  141.9280   75.3110  220.2320 N   0  0  0  0  0  0  0  0  0  0  0  0
  142.0560   76.1720  219.0670 C   0  0  0  0  0  0  0  0  0  0  0  0
  142.2400   77.5480  219.6280 C   0  0  0  0  0  0  0  0  0  0  0  0
  141.2780   77.4980  220.8210 C   0  0  2  0  0  0  0  0  0  0  0  0
  141.5700   78.5530  221.7980 C   0  0  0  0  0  0  0  0  0  0  0  0
  141.4340   78.2600  223.1450 C   0  0  0  0  0  0  0  0  0  0  0  0
  141.6830   79.1790  224.1410 C   0  0  0  0  0  0  0  0  0  0  0  0
  142.0840   80.4430  223.7700 C   0  0  0  0  0  0  0  0  0  0  0  0
  142.2120   80.7110  222.4330 C   0  0  0  0  0  0  0  0  0  0  0  0
  141.9630   79.7950  221.4630 N   0  0  0  0  0  0  0  0  0  0  0  0
  141.4180   76.0960  221.3650 C   0  0  0  0  0  0  0  0  0  0  0  0
  140.2030   71.5530  223.6330 C   0  0  0  0  0  0  0  0  0  0  0  0
  139.5870   70.3340  223.4320 C   0  0  0  0  0  0  0  0  0  0  0  0
  139.4700   69.4800  224.5280 C   0  0  0  0  0  0  0  0  0  0  0  0
  139.9540   69.8400  225.7700 C   0  0  0  0  0  0  0  0  0  0  0  0
  139.8380   69.0020  226.8330 C   0  0  0  0  0  0  0  0  0  0  0  0
  140.3330   69.3970  228.0580 C   0  0  0  0  0  0  0  0  0  0  0  0
  140.2050   68.5440  229.1100 F   0  0  0  0  0  0  0  0  0  0  0  0
  140.9490   70.6400  228.2140 C   0  0  0  0  0  0  0  0  0  0  0  0
  141.0720   71.4970  227.1430 C   0  0  0  0  0  0  0  0  0  0  0  0
  140.5700   71.0830  225.9260 C   0  0  0  0  0  0  0  0  0  0  0  0
  140.6700   71.8860  224.8560 N   0  0  0  0  0  0  0  0  0  0  0  0
  141.4680   71.0950  221.2360 H   0  0  0  0  0  0  0  0  0  0  0  0
  141.2406   72.3954  219.2773 H   0  0  0  0  0  0  0  0  0  0  0  0
  140.1701   73.5497  220.1940 H   0  0  0  0  0  0  0  0  0  0  0  0
  142.9276   75.8799  218.4629 H   0  0  0  0  0  0  0  0  0  0  0  0
  141.1807   76.1071  218.4040 H   0  0  0  0  0  0  0  0  0  0  0  0
  143.2776   77.7190  219.9506 H   0  0  0  0  0  0  0  0  0  0  0  0
  142.0426   78.3624  218.9154 H   0  0  0  0  0  0  0  0  0  0  0  0
  140.2338   77.6987  220.5392 H   0  0  0  0  0  0  0  0  0  0  0  0
  141.1127   77.2480  223.4325 H   0  0  0  0  0  0  0  0  0  0  0  0
  141.5649   78.9108  225.2013 H   0  0  0  0  0  0  0  0  0  0  0  0
  142.2952   81.2146  224.5250 H   0  0  0  0  0  0  0  0  0  0  0  0
  142.5326   81.7188  222.1303 H   0  0  0  0  0  0  0  0  0  0  0  0
  142.1284   76.0738  222.2045 H   0  0  0  0  0  0  0  0  0  0  0  0
  140.4676   75.7012  221.7534 H   0  0  0  0  0  0  0  0  0  0  0  0
  139.2022   70.0466  222.4424 H   0  0  0  0  0  0  0  0  0  0  0  0
  138.9833   68.5018  224.4008 H   0  0  0  0  0  0  0  0  0  0  0  0
  139.3551   68.0204  226.7179 H   0  0  0  0  0  0  0  0  0  0  0  0
  141.3387   70.9369  229.1989 H   0  0  0  0  0  0  0  0  0  0  0  0
  141.5545   72.4793  227.2540 H   0  0  0  0  0  0  0  0  0  0  0  0
  1  2  2  0
  2  3  1  0
  3  4  1  0
  4  5  1  0
  5  6  2  0
  5  7  1  0
  7  8  1  0
  8  9  1  0
  9 10  1  0
 10 11  1  0
 11 12  2  0
 12 13  1  0
 13 14  2  0
 14 15  1  0
 15 16  2  0
 10 17  1  0
  2 18  1  0
 18 19  2  0
 19 20  1  0
 20 21  2  0
 21 22  1  0
 22 23  2  0
 23 24  1  0
 23 25  1  0
 25 26  2  0
 26 27  1  0
 27 28  2  0
 17  7  1  0
 28 18  1  0
 16 11  1  0
 27 21  1  0
  3 29  1  0
  4 30  1  0
  4 31  1  0
  8 32  1  0
  8 33  1  0
  9 34  1  0
  9 35  1  0
 10 36  1  6
 12 37  1  0
 13 38  1  0
 14 39  1  0
 15 40  1  0
 17 41  1  0
 17 42  1  0
 19 43  1  0
 20 44  1  0
 22 45  1  0
 25 46  1  0
 26 47  1  0
M  END
>  <smiles>  (14) 
O=C(NCC(=O)N1CC[C@H](c2ccccn2)C1)c1ccc2cc(F)ccc2n1

>  <score_type>  (14) 
oracle

>  <origin>  (14) 
autodockgpu

>  <m_score__min__energy>  (14) 
-8.8000000000000007

>  <m_primary>  (14) 
energy

>  <rmsd>  (14) 
2.5939167524259243

>  <m_score__min__rmsd>  (14) 
2.5939167524259243

>  <meeko>  (14) 
{"free_energy": -8.63, "intermolecular_energy": -10.12, "internal_energy": -1.09, "cluster_size": 41, "cluster_id": 1, "rank_in_cluster": 9}

>  <energy>  (14) 
-8.51

>  <cluster_rmsd>  (14) 
0.84

>  <cluster>  (14) 
1

$$$$

     RDKit          3D

 47 50  0  0  0  0  0  0  0  0999 V2000
  141.3090   72.1850  221.8030 O   0  0  0  0  0  0  0  0  0  0  0  0
  140.3450   72.2450  222.6130 C   0  0  0  0  0  0  0  0  0  0  0  0
  139.3800   73.2660  222.3740 N   0  0  0  0  0  0  0  0  0  0  0  0
  139.5690   74.1380  221.2530 C   0  0  0  0  0  0  0  0  0  0  0  0
  139.0180   75.4960  221.4810 C   0  0  0  0  0  0  0  0  0  0  0  0
  137.8550   75.6070  221.9470 O   0  0  0  0  0  0  0  0  0  0  0  0
  139.8440   76.6070  221.1570 N   0  0  0  0  0  0  0  0  0  0  0  0
  140.9390   76.6710  220.2030 C   0  0  0  0  0  0  0  0  0  0  0  0
  141.8180   77.7750  220.7050 C   0  0  0  0  0  0  0  0  0  0  0  0
  140.7630   78.7760  221.1920 C   0  0  2  0  0  0  0  0  0  0  0  0
  141.3350   79.7600  222.1180 C   0  0  0  0  0  0  0  0  0  0  0  0
  142.0000   79.2980  223.2420 C   0  0  0  0  0  0  0  0  0  0  0  0
  142.5730   80.1380  224.1720 C   0  0  0  0  0  0  0  0  0  0  0  0
  142.4740   81.4960  223.9660 C   0  0  0  0  0  0  0  0  0  0  0  0
  141.8130   81.9310  222.8480 C   0  0  0  0  0  0  0  0  0  0  0  0
  141.2540   81.0900  221.9400 N   0  0  0  0  0  0  0  0  0  0  0  0
  139.6740   77.9190  221.7950 C   0  0  0  0  0  0  0  0  0  0  0  0
  140.2110   71.3210  223.7420 C   0  0  0  0  0  0  0  0  0  0  0  0
  139.5950   70.1100  223.5010 C   0  0  0  0  0  0  0  0  0  0  0  0
  139.4650   69.2260  224.5720 C   0  0  0  0  0  0  0  0  0  0  0  0
  139.9370   69.5510  225.8280 C   0  0  0  0  0  0  0  0  0  0  0  0
  139.8080   68.6860  226.8670 C   0  0  0  0  0  0  0  0  0  0  0  0
  140.2920   69.0460  228.1070 C   0  0  0  0  0  0  0  0  0  0  0  0
  140.1510   68.1650  229.1340 F   0  0  0  0  0  0  0  0  0  0  0  0
  140.9080   70.2820  228.3040 C   0  0  0  0  0  0  0  0  0  0  0  0
  141.0440   71.1680  227.2570 C   0  0  0  0  0  0  0  0  0  0  0  0
  140.5540   70.7880  226.0250 C   0  0  0  0  0  0  0  0  0  0  0  0
  140.6670   71.6200  224.9770 N   0  0  0  0  0  0  0  0  0  0  0  0
  138.5470   73.3810  223.0060 H   0  0  0  0  0  0  0  0  0  0  0  0
  140.6473   74.2253  221.0537 H   0  0  0  0  0  0  0  0  0  0  0  0
  139.0299   73.7012  220.3995 H   0  0  0  0  0  0  0  0  0  0  0  0
  141.4885   75.7184  220.1790 H   0  0  0  0  0  0  0  0  0  0  0  0
  140.5865   76.8540  219.1772 H   0  0  0  0  0  0  0  0  0  0  0  0
  142.4656   77.4360  221.5270 H   0  0  0  0  0  0  0  0  0  0  0  0
  142.5195   78.1764  219.9588 H   0  0  0  0  0  0  0  0  0  0  0  0
  140.3571   79.4001  220.3822 H   0  0  0  0  0  0  0  0  0  0  0  0
  142.0740   78.2118  223.3992 H   0  0  0  0  0  0  0  0  0  0  0  0
  143.0942   79.7356  225.0531 H   0  0  0  0  0  0  0  0  0  0  0  0
  142.9128   82.2103  224.6782 H   0  0  0  0  0  0  0  0  0  0  0  0
  141.7309   83.0146  222.6773 H   0  0  0  0  0  0  0  0  0  0  0  0
  139.7994   77.8406  222.8850 H   0  0  0  0  0  0  0  0  0  0  0  0
  138.6708   78.3385  221.6287 H   0  0  0  0  0  0  0  0  0  0  0  0
  139.2198   69.8510  222.4999 H   0  0  0  0  0  0  0  0  0  0  0  0
  138.9778   68.2527  224.4131 H   0  0  0  0  0  0  0  0  0  0  0  0
  139.3230   67.7095  226.7211 H   0  0  0  0  0  0  0  0  0  0  0  0
  141.2874   70.5511  229.3008 H   0  0  0  0  0  0  0  0  0  0  0  0
  141.5274   72.1458  227.3993 H   0  0  0  0  0  0  0  0  0  0  0  0
  1  2  2  0
  2  3  1  0
  3  4  1  0
  4  5  1  0
  5  6  2  0
  5  7  1  0
  7  8  1  0
  8  9  1  0
  9 10  1  0
 10 11  1  0
 11 12  2  0
 12 13  1  0
 13 14  2  0
 14 15  1  0
 15 16  2  0
 10 17  1  0
  2 18  1  0
 18 19  2  0
 19 20  1  0
 20 21  2  0
 21 22  1  0
 22 23  2  0
 23 24  1  0
 23 25  1  0
 25 26  2  0
 26 27  1  0
 27 28  2  0
 17  7  1  0
 28 18  1  0
 16 11  1  0
 27 21  1  0
  3 29  1  0
  4 30  1  0
  4 31  1  0
  8 32  1  0
  8 33  1  0
  9 34  1  0
  9 35  1  0
 10 36  1  6
 12 37  1  0
 13 38  1  0
 14 39  1  0
 15 40  1  0
 17 41  1  0
 17 42  1  0
 19 43  1  0
 20 44  1  0
 22 45  1  0
 25 46  1  0
 26 47  1  0
M  END
>  <smiles>  (15) 
O=C(NCC(=O)N1CC[C@H](c2ccccn2)C1)c1ccc2cc(F)ccc2n1

>  <score_type>  (15) 
oracle

>  <origin>  (15) 
autodockgpu

>  <m_score__min__energy>  (15) 
-8.8000000000000007

>  <m_primary>  (15) 
energy

>  <rmsd>  (15) 
2.569567973526913

>  <m_score__min__rmsd>  (15) 
2.569567973526913

>  <meeko>  (15) 
{"free_energy": -8.47, "intermolecular_energy": -9.96, "internal_energy": -1.12, "cluster_size": 41, "cluster_id": 1, "rank_in_cluster": 16}

>  <energy>  (15) 
-8.49

>  <cluster_rmsd>  (15) 
0.74

>  <cluster>  (15) 
1

$$$$

     RDKit          3D

 47 50  0  0  0  0  0  0  0  0999 V2000
  139.9430   73.6840  222.6610 O   0  0  0  0  0  0  0  0  0  0  0  0
  140.3230   72.4840  222.5850 C   0  0  0  0  0  0  0  0  0  0  0  0
  140.8520   72.0670  221.3300 N   0  0  0  0  0  0  0  0  0  0  0  0
  140.9150   73.0200  220.2610 C   0  0  0  0  0  0  0  0  0  0  0  0
  142.1020   73.9050  220.3480 C   0  0  0  0  0  0  0  0  0  0  0  0
  143.2340   73.3840  220.5160 O   0  0  0  0  0  0  0  0  0  0  0  0
  141.8900   75.3060  220.2360 N   0  0  0  0  0  0  0  0  0  0  0  0
  142.1150   76.1650  219.0840 C   0  0  0  0  0  0  0  0  0  0  0  0
  142.3560   77.5240  219.6630 C   0  0  0  0  0  0  0  0  0  0  0  0
  141.3450   77.5230  220.8160 C   0  0  2  0  0  0  0  0  0  0  0  0
  141.6570   78.5540  221.8130 C   0  0  0  0  0  0  0  0  0  0  0  0
  141.4430   78.2630  223.1500 C   0  0  0  0  0  0  0  0  0  0  0  0
  141.7040   79.1610  224.1630 C   0  0  0  0  0  0  0  0  0  0  0  0
  142.1990   80.3990  223.8200 C   0  0  0  0  0  0  0  0  0  0  0  0
  142.4030   80.6650  222.4920 C   0  0  0  0  0  0  0  0  0  0  0  0
  142.1420   79.7700  221.5050 N   0  0  0  0  0  0  0  0  0  0  0  0
  141.3810   76.1120  221.3530 C   0  0  0  0  0  0  0  0  0  0  0  0
  140.2300   71.5600  223.7170 C   0  0  0  0  0  0  0  0  0  0  0  0
  139.6510   70.3290  223.4860 C   0  0  0  0  0  0  0  0  0  0  0  0
  139.5610   69.4450  224.5610 C   0  0  0  0  0  0  0  0  0  0  0  0
  140.0350   69.7890  225.8110 C   0  0  0  0  0  0  0  0  0  0  0  0
  139.9450   68.9230  226.8530 C   0  0  0  0  0  0  0  0  0  0  0  0
  140.4300   69.3020  228.0870 C   0  0  0  0  0  0  0  0  0  0  0  0
  140.3280   68.4190  229.1180 F   0  0  0  0  0  0  0  0  0  0  0  0
  141.0080   70.5580  228.2740 C   0  0  0  0  0  0  0  0  0  0  0  0
  141.1050   71.4450  227.2240 C   0  0  0  0  0  0  0  0  0  0  0  0
  140.6140   71.0460  225.9980 C   0  0  0  0  0  0  0  0  0  0  0  0
  140.6890   71.8780  224.9470 N   0  0  0  0  0  0  0  0  0  0  0  0
  141.1900   71.0800  221.1860 H   0  0  0  0  0  0  0  0  0  0  0  0
  140.9524   72.4750  219.3063 H   0  0  0  0  0  0  0  0  0  0  0  0
  140.0213   73.6573  220.3329 H   0  0  0  0  0  0  0  0  0  0  0  0
  142.9918   75.8259  218.5129 H   0  0  0  0  0  0  0  0  0  0  0  0
  141.2649   76.1554  218.3860 H   0  0  0  0  0  0  0  0  0  0  0  0
  143.3879   77.6321  220.0284 H   0  0  0  0  0  0  0  0  0  0  0  0
  142.2355   78.3528  218.9499 H   0  0  0  0  0  0  0  0  0  0  0  0
  140.3265   77.7860  220.4942 H   0  0  0  0  0  0  0  0  0  0  0  0
  141.0473   77.2716  223.4154 H   0  0  0  0  0  0  0  0  0  0  0  0
  141.5220   78.8960  225.2150 H   0  0  0  0  0  0  0  0  0  0  0  0
  142.4240   81.1521  224.5896 H   0  0  0  0  0  0  0  0  0  0  0  0
  142.7978   81.6526  222.2112 H   0  0  0  0  0  0  0  0  0  0  0  0
  142.0540   76.0432  222.2204 H   0  0  0  0  0  0  0  0  0  0  0  0
  140.3941   75.7710  221.6991 H   0  0  0  0  0  0  0  0  0  0  0  0
  139.2739   70.0547  222.4897 H   0  0  0  0  0  0  0  0  0  0  0  0
  139.1041   68.4558  224.4101 H   0  0  0  0  0  0  0  0  0  0  0  0
  139.4906   67.9309  226.7144 H   0  0  0  0  0  0  0  0  0  0  0  0
  141.3888   70.8420  229.2661 H   0  0  0  0  0  0  0  0  0  0  0  0
  141.5587   72.4380  227.3588 H   0  0  0  0  0  0  0  0  0  0  0  0
  1  2  2  0
  2  3  1  0
  3  4  1  0
  4  5  1  0
  5  6  2  0
  5  7  1  0
  7  8  1  0
  8  9  1  0
  9 10  1  0
 10 11  1  0
 11 12  2  0
 12 13  1  0
 13 14  2  0
 14 15  1  0
 15 16  2  0
 10 17  1  0
  2 18  1  0
 18 19  2  0
 19 20  1  0
 20 21  2  0
 21 22  1  0
 22 23  2  0
 23 24  1  0
 23 25  1  0
 25 26  2  0
 26 27  1  0
 27 28  2  0
 17  7  1  0
 28 18  1  0
 16 11  1  0
 27 21  1  0
  3 29  1  0
  4 30  1  0
  4 31  1  0
  8 32  1  0
  8 33  1  0
  9 34  1  0
  9 35  1  0
 10 36  1  6
 12 37  1  0
 13 38  1  0
 14 39  1  0
 15 40  1  0
 17 41  1  0
 17 42  1  0
 19 43  1  0
 20 44  1  0
 22 45  1  0
 25 46  1  0
 26 47  1  0
M  END
>  <smiles>  (16) 
O=C(NCC(=O)N1CC[C@H](c2ccccn2)C1)c1ccc2cc(F)ccc2n1

>  <score_type>  (16) 
oracle

>  <origin>  (16) 
autodockgpu

>  <m_score__min__energy>  (16) 
-8.8000000000000007

>  <m_primary>  (16) 
energy

>  <rmsd>  (16) 
2.5712444674293935

>  <m_score__min__rmsd>  (16) 
2.5712444674293935

>  <meeko>  (16) 
{"free_energy": -8.63, "intermolecular_energy": -10.13, "internal_energy": -1.09, "cluster_size": 41, "cluster_id": 1, "rank_in_cluster": 7}

>  <energy>  (16) 
-8.47

>  <cluster_rmsd>  (16) 
1.15

>  <cluster>  (16) 
1

$$$$

     RDKit          3D

 47 50  0  0  0  0  0  0  0  0999 V2000
  141.3450   72.7820  221.9630 O   0  0  0  0  0  0  0  0  0  0  0  0
  140.3000   72.6490  222.6550 C   0  0  0  0  0  0  0  0  0  0  0  0
  139.2180   73.5220  222.3400 N   0  0  0  0  0  0  0  0  0  0  0  0
  139.3900   74.4720  221.2800 C   0  0  0  0  0  0  0  0  0  0  0  0
  138.2200   75.3700  221.1170 C   0  0  0  0  0  0  0  0  0  0  0  0
  137.1810   74.9160  220.5730 O   0  0  0  0  0  0  0  0  0  0  0  0
  138.3410   76.7050  221.5890 N   0  0  0  0  0  0  0  0  0  0  0  0
  137.5520   77.8690  221.2200 C   0  0  0  0  0  0  0  0  0  0  0  0
  138.4530   79.0370  221.4740 C   0  0  0  0  0  0  0  0  0  0  0  0
  139.1500   78.5810  222.7620 C   0  0  2  0  0  0  0  0  0  0  0  0
  140.3880   79.3320  223.0040 C   0  0  0  0  0  0  0  0  0  0  0  0
  141.5870   78.7750  222.5910 C   0  0  0  0  0  0  0  0  0  0  0  0
  142.8040   79.3970  222.7710 C   0  0  0  0  0  0  0  0  0  0  0  0
  142.8160   80.6280  223.3890 C   0  0  0  0  0  0  0  0  0  0  0  0
  141.6190   81.1600  223.7880 C   0  0  0  0  0  0  0  0  0  0  0  0
  140.4280   80.5340  223.6040 N   0  0  0  0  0  0  0  0  0  0  0  0
  139.3530   77.0950  222.5790 C   0  0  0  0  0  0  0  0  0  0  0  0
  140.1890   71.6560  223.7250 C   0  0  0  0  0  0  0  0  0  0  0  0
  139.5970   70.4490  223.4130 C   0  0  0  0  0  0  0  0  0  0  0  0
  139.4900   69.5000  224.4290 C   0  0  0  0  0  0  0  0  0  0  0  0
  139.9580   69.7580  225.7010 C   0  0  0  0  0  0  0  0  0  0  0  0
  139.8510   68.8290  226.6860 C   0  0  0  0  0  0  0  0  0  0  0  0
  140.3310   69.1240  227.9440 C   0  0  0  0  0  0  0  0  0  0  0  0
  140.2120   68.1790  228.9160 F   0  0  0  0  0  0  0  0  0  0  0  0
  140.9220   70.3580  228.2150 C   0  0  0  0  0  0  0  0  0  0  0  0
  141.0360   71.3090  227.2230 C   0  0  0  0  0  0  0  0  0  0  0  0
  140.5500   70.9940  225.9710 C   0  0  0  0  0  0  0  0  0  0  0  0
  140.6420   71.8900  224.9760 N   0  0  0  0  0  0  0  0  0  0  0  0
  138.3110   73.4740  222.8720 H   0  0  0  0  0  0  0  0  0  0  0  0
  140.2763   75.0857  221.4985 H   0  0  0  0  0  0  0  0  0  0  0  0
  139.5061   73.9062  220.3439 H   0  0  0  0  0  0  0  0  0  0  0  0
  137.2666   77.8232  220.1587 H   0  0  0  0  0  0  0  0  0  0  0  0
  136.6152   77.9346  221.7929 H   0  0  0  0  0  0  0  0  0  0  0  0
  139.1712   79.1813  220.6534 H   0  0  0  0  0  0  0  0  0  0  0  0
  137.9362   80.0049  221.5517 H   0  0  0  0  0  0  0  0  0  0  0  0
  138.5557   78.7794  223.6661 H   0  0  0  0  0  0  0  0  0  0  0  0
  141.5672   77.7922  222.0972 H   0  0  0  0  0  0  0  0  0  0  0  0
  143.7375   78.9245  222.4313 H   0  0  0  0  0  0  0  0  0  0  0  0
  143.7595   81.1679  223.5571 H   0  0  0  0  0  0  0  0  0  0  0  0
  141.6223   82.1429  224.2819 H   0  0  0  0  0  0  0  0  0  0  0  0
  140.3654   76.8841  222.2040 H   0  0  0  0  0  0  0  0  0  0  0  0
  139.2508   76.5394  223.5229 H   0  0  0  0  0  0  0  0  0  0  0  0
  139.2230   70.2430  222.3992 H   0  0  0  0  0  0  0  0  0  0  0  0
  139.0238   68.5275  224.2123 H   0  0  0  0  0  0  0  0  0  0  0  0
  139.3868   67.8528  226.4823 H   0  0  0  0  0  0  0  0  0  0  0  0
  141.2992   70.5737  229.2255 H   0  0  0  0  0  0  0  0  0  0  0  0
  141.4991   72.2864  227.4234 H   0  0  0  0  0  0  0  0  0  0  0  0
  1  2  2  0
  2  3  1  0
  3  4  1  0
  4  5  1  0
  5  6  2  0
  5  7  1  0
  7  8  1  0
  8  9  1  0
  9 10  1  0
 10 11  1  0
 11 12  2  0
 12 13  1  0
 13 14  2  0
 14 15  1  0
 15 16  2  0
 10 17  1  0
  2 18  1  0
 18 19  2  0
 19 20  1  0
 20 21  2  0
 21 22  1  0
 22 23  2  0
 23 24  1  0
 23 25  1  0
 25 26  2  0
 26 27  1  0
 27 28  2  0
 17  7  1  0
 28 18  1  0
 16 11  1  0
 27 21  1  0
  3 29  1  0
  4 30  1  0
  4 31  1  0
  8 32  1  0
  8 33  1  0
  9 34  1  0
  9 35  1  0
 10 36  1  1
 12 37  1  0
 13 38  1  0
 14 39  1  0
 15 40  1  0
 17 41  1  0
 17 42  1  0
 19 43  1  0
 20 44  1  0
 22 45  1  0
 25 46  1  0
 26 47  1  0
M  END
>  <smiles>  (17) 
O=C(NCC(=O)N1CC[C@H](c2ccccn2)C1)c1ccc2cc(F)ccc2n1

>  <score_type>  (17) 
oracle

>  <origin>  (17) 
autodockgpu

>  <m_score__min__energy>  (17) 
-8.8000000000000007

>  <m_primary>  (17) 
energy

>  <rmsd>  (17) 
3.2266194739493126

>  <m_score__min__rmsd>  (17) 
3.2266194739493126

>  <meeko>  (17) 
{"free_energy": -8.3, "intermolecular_energy": -9.79, "internal_energy": -0.99, "cluster_size": 41, "cluster_id": 1, "rank_in_cluster": 31}

>  <energy>  (17) 
-8.46

>  <cluster_rmsd>  (17) 
1.42

>  <cluster>  (17) 
1

$$$$

     RDKit          3D

 47 50  0  0  0  0  0  0  0  0999 V2000
  140.5430   71.2990  221.4450 O   0  0  0  0  0  0  0  0  0  0  0  0
  140.0850   71.7100  222.5440 C   0  0  0  0  0  0  0  0  0  0  0  0
  139.5960   73.0490  222.5640 N   0  0  0  0  0  0  0  0  0  0  0  0
  139.6600   73.8200  221.3580 C   0  0  0  0  0  0  0  0  0  0  0  0
  139.0660   75.1710  221.5060 C   0  0  0  0  0  0  0  0  0  0  0  0
  137.8920   75.2710  221.9450 O   0  0  0  0  0  0  0  0  0  0  0  0
  139.8660   76.2880  221.1410 N   0  0  0  0  0  0  0  0  0  0  0  0
  140.9910   76.3320  220.2210 C   0  0  0  0  0  0  0  0  0  0  0  0
  141.8160   77.4930  220.6810 C   0  0  0  0  0  0  0  0  0  0  0  0
  140.7130   78.4850  221.0720 C   0  0  2  0  0  0  0  0  0  0  0  0
  141.2220   79.5420  221.9540 C   0  0  0  0  0  0  0  0  0  0  0  0
  142.0530   79.1820  223.0010 C   0  0  0  0  0  0  0  0  0  0  0  0
  142.5840   80.0970  223.8860 C   0  0  0  0  0  0  0  0  0  0  0  0
  142.2680   81.4260  223.7090 C   0  0  0  0  0  0  0  0  0  0  0  0
  141.4440   81.7590  222.6670 C   0  0  0  0  0  0  0  0  0  0  0  0
  140.9300   80.8460  221.8040 N   0  0  0  0  0  0  0  0  0  0  0  0
  139.6330   77.6300  221.6910 C   0  0  0  0  0  0  0  0  0  0  0  0
  140.0490   70.8700  223.7430 C   0  0  0  0  0  0  0  0  0  0  0  0
  139.5010   69.6090  223.6180 C   0  0  0  0  0  0  0  0  0  0  0  0
  139.4640   68.8040  224.7560 C   0  0  0  0  0  0  0  0  0  0  0  0
  139.9590   69.2520  225.9650 C   0  0  0  0  0  0  0  0  0  0  0  0
  139.9210   68.4630  227.0690 C   0  0  0  0  0  0  0  0  0  0  0  0
  140.4250   68.9450  228.2590 C   0  0  0  0  0  0  0  0  0  0  0  0
  140.3760   68.1380  229.3530 F   0  0  0  0  0  0  0  0  0  0  0  0
  140.9700   70.2270  228.3380 C   0  0  0  0  0  0  0  0  0  0  0  0
  141.0130   71.0370  227.2230 C   0  0  0  0  0  0  0  0  0  0  0  0
  140.5040   70.5350  226.0430 C   0  0  0  0  0  0  0  0  0  0  0  0
  140.5280   71.2890  224.9330 N   0  0  0  0  0  0  0  0  0  0  0  0
  139.1970   73.4660  223.4450 H   0  0  0  0  0  0  0  0  0  0  0  0
  140.7151   73.9302  221.0671 H   0  0  0  0  0  0  0  0  0  0  0  0
  139.0787   73.2852  220.5924 H   0  0  0  0  0  0  0  0  0  0  0  0
  141.5714   75.3991  220.2738 H   0  0  0  0  0  0  0  0  0  0  0  0
  140.6680   76.4407  219.1751 H   0  0  0  0  0  0  0  0  0  0  0  0
  142.4464   77.2269  221.5423 H   0  0  0  0  0  0  0  0  0  0  0  0
  142.5288   77.8723  219.9340 H   0  0  0  0  0  0  0  0  0  0  0  0
  140.3146   79.0448  220.2130 H   0  0  0  0  0  0  0  0  0  0  0  0
  142.3009   78.1185  223.1331 H   0  0  0  0  0  0  0  0  0  0  0  0
  143.2400   79.7752  224.7083 H   0  0  0  0  0  0  0  0  0  0  0  0
  142.6659   82.1973  224.3848 H   0  0  0  0  0  0  0  0  0  0  0  0
  141.1860   82.8185  222.5223 H   0  0  0  0  0  0  0  0  0  0  0  0
  139.7238   77.6221  222.7872 H   0  0  0  0  0  0  0  0  0  0  0  0
  138.6232   78.0044  221.4669 H   0  0  0  0  0  0  0  0  0  0  0  0
  139.1075   69.2520  222.6548 H   0  0  0  0  0  0  0  0  0  0  0  0
  139.0329   67.7942  224.6896 H   0  0  0  0  0  0  0  0  0  0  0  0
  139.4932   67.4510  227.0152 H   0  0  0  0  0  0  0  0  0  0  0  0
  141.3678   70.5938  229.2957 H   0  0  0  0  0  0  0  0  0  0  0  0
  141.4390   72.0499  227.2727 H   0  0  0  0  0  0  0  0  0  0  0  0
  1  2  2  0
  2  3  1  0
  3  4  1  0
  4  5  1  0
  5  6  2  0
  5  7  1  0
  7  8  1  0
  8  9  1  0
  9 10  1  0
 10 11  1  0
 11 12  2  0
 12 13  1  0
 13 14  2  0
 14 15  1  0
 15 16  2  0
 10 17  1  0
  2 18  1  0
 18 19  2  0
 19 20  1  0
 20 21  2  0
 21 22  1  0
 22 23  2  0
 23 24  1  0
 23 25  1  0
 25 26  2  0
 26 27  1  0
 27 28  2  0
 17  7  1  0
 28 18  1  0
 16 11  1  0
 27 21  1  0
  3 29  1  0
  4 30  1  0
  4 31  1  0
  8 32  1  0
  8 33  1  0
  9 34  1  0
  9 35  1  0
 10 36  1  6
 12 37  1  0
 13 38  1  0
 14 39  1  0
 15 40  1  0
 17 41  1  0
 17 42  1  0
 19 43  1  0
 20 44  1  0
 22 45  1  0
 25 46  1  0
 26 47  1  0
M  END
>  <smiles>  (18) 
O=C(NCC(=O)N1CC[C@H](c2ccccn2)C1)c1ccc2cc(F)ccc2n1

>  <score_type>  (18) 
oracle

>  <origin>  (18) 
autodockgpu

>  <m_score__min__energy>  (18) 
-8.8000000000000007

>  <m_primary>  (18) 
energy

>  <rmsd>  (18) 
2.415099732957398

>  <m_score__min__rmsd>  (18) 
2.415099732957398

>  <meeko>  (18) 
{"free_energy": -8.33, "intermolecular_energy": -9.82, "internal_energy": -1.07, "cluster_size": 41, "cluster_id": 1, "rank_in_cluster": 29}

>  <energy>  (18) 
-8.44

>  <cluster_rmsd>  (18) 
1.02

>  <cluster>  (18) 
1

$$$$

     RDKit          3D

 47 50  0  0  0  0  0  0  0  0999 V2000
  133.8930   69.7330  226.5400 O   0  0  0  0  0  0  0  0  0  0  0  0
  133.9410   70.8120  225.8900 C   0  0  0  0  0  0  0  0  0  0  0  0
  134.5990   70.7600  224.6270 N   0  0  0  0  0  0  0  0  0  0  0  0
  135.1510   69.5110  224.1910 C   0  0  0  0  0  0  0  0  0  0  0  0
  136.2650   69.6780  223.2270 C   0  0  0  0  0  0  0  0  0  0  0  0
  135.9930   69.9310  222.0260 O   0  0  0  0  0  0  0  0  0  0  0  0
  137.5910   69.5430  223.7200 N   0  0  0  0  0  0  0  0  0  0  0  0
  138.4230   68.3510  223.7620 C   0  0  0  0  0  0  0  0  0  0  0  0
  139.3760   68.5900  224.8910 C   0  0  0  0  0  0  0  0  0  0  0  0
  139.6580   70.0870  224.7110 C   0  0  2  0  0  0  0  0  0  0  0  0
  140.2220   70.6830  225.9280 C   0  0  0  0  0  0  0  0  0  0  0  0
  139.9690   70.0660  227.1410 C   0  0  0  0  0  0  0  0  0  0  0  0
  140.4510   70.5440  228.3410 C   0  0  0  0  0  0  0  0  0  0  0  0
  141.2170   71.6890  228.3200 C   0  0  0  0  0  0  0  0  0  0  0  0
  141.4540   72.2830  227.1090 C   0  0  0  0  0  0  0  0  0  0  0  0
  140.9720   71.7990  225.9360 N   0  0  0  0  0  0  0  0  0  0  0  0
  138.3340   70.6760  224.2880 C   0  0  0  0  0  0  0  0  0  0  0  0
  133.3570   72.0570  226.3930 C   0  0  0  0  0  0  0  0  0  0  0  0
  132.1970   71.9600  227.1340 C   0  0  0  0  0  0  0  0  0  0  0  0
  131.6370   73.1430  227.6160 C   0  0  0  0  0  0  0  0  0  0  0  0
  132.2220   74.3670  227.3600 C   0  0  0  0  0  0  0  0  0  0  0  0
  131.6710   75.5150  227.8330 C   0  0  0  0  0  0  0  0  0  0  0  0
  132.2850   76.7190  227.5580 C   0  0  0  0  0  0  0  0  0  0  0  0
  131.7160   77.8570  228.0400 F   0  0  0  0  0  0  0  0  0  0  0  0
  133.4580   76.7690  226.8040 C   0  0  0  0  0  0  0  0  0  0  0  0
  134.0250   75.6100  226.3190 C   0  0  0  0  0  0  0  0  0  0  0  0
  133.3960   74.4160  226.6060 C   0  0  0  0  0  0  0  0  0  0  0  0
  133.9150   73.2640  226.1550 N   0  0  0  0  0  0  0  0  0  0  0  0
  134.6820   71.6200  224.0240 H   0  0  0  0  0  0  0  0  0  0  0  0
  135.5263   68.9670  225.0703 H   0  0  0  0  0  0  0  0  0  0  0  0
  134.3507   68.9574  223.6781 H   0  0  0  0  0  0  0  0  0  0  0  0
  137.8107   67.4576  223.9542 H   0  0  0  0  0  0  0  0  0  0  0  0
  138.9437   68.1741  222.8093 H   0  0  0  0  0  0  0  0  0  0  0  0
  138.9114   68.3791  225.8655 H   0  0  0  0  0  0  0  0  0  0  0  0
  140.2714   67.9512  224.8765 H   0  0  0  0  0  0  0  0  0  0  0  0
  140.4281   70.2915  223.9527 H   0  0  0  0  0  0  0  0  0  0  0  0
  139.3556   69.1530  227.1478 H   0  0  0  0  0  0  0  0  0  0  0  0
  140.2307   70.0269  229.2865 H   0  0  0  0  0  0  0  0  0  0  0  0
  141.6262   72.1136  229.2486 H   0  0  0  0  0  0  0  0  0  0  0  0
  142.0651   73.1974  227.0857 H   0  0  0  0  0  0  0  0  0  0  0  0
  137.8008   71.0955  225.1539 H   0  0  0  0  0  0  0  0  0  0  0  0
  138.4537   71.4998  223.5690 H   0  0  0  0  0  0  0  0  0  0  0  0
  131.7307   70.9847  227.3373 H   0  0  0  0  0  0  0  0  0  0  0  0
  130.7127   73.0999  228.2108 H   0  0  0  0  0  0  0  0  0  0  0  0
  130.7464   75.4847  228.4281 H   0  0  0  0  0  0  0  0  0  0  0  0
  133.9330   77.7390  226.5954 H   0  0  0  0  0  0  0  0  0  0  0  0
  134.9489   75.6362  225.7226 H   0  0  0  0  0  0  0  0  0  0  0  0
  1  2  2  0
  2  3  1  0
  3  4  1  0
  4  5  1  0
  5  6  2  0
  5  7  1  0
  7  8  1  0
  8  9  1  0
  9 10  1  0
 10 11  1  0
 11 12  2  0
 12 13  1  0
 13 14  2  0
 14 15  1  0
 15 16  2  0
 10 17  1  0
  2 18  1  0
 18 19  2  0
 19 20  1  0
 20 21  2  0
 21 22  1  0
 22 23  2  0
 23 24  1  0
 23 25  1  0
 25 26  2  0
 26 27  1  0
 27 28  2  0
 17  7  1  0
 28 18  1  0
 16 11  1  0
 27 21  1  0
  3 29  1  0
  4 30  1  0
  4 31  1  0
  8 32  1  0
  8 33  1  0
  9 34  1  0
  9 35  1  0
 10 36  1  6
 12 37  1  0
 13 38  1  0
 14 39  1  0
 15 40  1  0
 17 41  1  0
 17 42  1  0
 19 43  1  0
 20 44  1  0
 22 45  1  0
 25 46  1  0
 26 47  1  0
M  END
>  <smiles>  (19) 
O=C(NCC(=O)N1CC[C@H](c2ccccn2)C1)c1ccc2cc(F)ccc2n1

>  <score_type>  (19) 
oracle

>  <origin>  (19) 
autodockgpu

>  <m_score__min__energy>  (19) 
-8.8000000000000007

>  <m_primary>  (19) 
energy

>  <rmsd>  (19) 
8.829082028784557

>  <m_score__min__rmsd>  (19) 
8.829082028784557

>  <meeko>  (19) 
{"free_energy": -8.06, "intermolecular_energy": -9.55, "internal_energy": -1.13, "cluster_size": 1, "cluster_id": 3, "rank_in_cluster": 1}

>  <energy>  (19) 
-8.44

>  <cluster_rmsd>  (19) 
0.88

>  <cluster>  (19) 
1

$$$$

     RDKit          3D

 47 50  0  0  0  0  0  0  0  0999 V2000
  140.8270   71.6150  221.2710 O   0  0  0  0  0  0  0  0  0  0  0  0
  140.2600   72.0150  222.3240 C   0  0  0  0  0  0  0  0  0  0  0  0
  139.7120   73.3300  222.2850 N   0  0  0  0  0  0  0  0  0  0  0  0
  139.8420   74.0910  221.0770 C   0  0  0  0  0  0  0  0  0  0  0  0
  141.1410   74.8000  220.9800 C   0  0  0  0  0  0  0  0  0  0  0  0
  142.2020   74.1260  221.0230 O   0  0  0  0  0  0  0  0  0  0  0  0
  141.1140   76.2140  220.8420 N   0  0  0  0  0  0  0  0  0  0  0  0
  141.3950   77.0130  219.6590 C   0  0  0  0  0  0  0  0  0  0  0  0
  141.8430   78.3380  220.1910 C   0  0  0  0  0  0  0  0  0  0  0  0
  140.8990   78.4950  221.3890 C   0  0  2  0  0  0  0  0  0  0  0  0
  141.3960   79.4940  222.3440 C   0  0  0  0  0  0  0  0  0  0  0  0
  142.7550   79.5340  222.6060 C   0  0  0  0  0  0  0  0  0  0  0  0
  143.3220   80.4320  223.4850 C   0  0  0  0  0  0  0  0  0  0  0  0
  142.4910   81.3250  224.1250 C   0  0  0  0  0  0  0  0  0  0  0  0
  141.1500   81.2670  223.8500 C   0  0  0  0  0  0  0  0  0  0  0  0
  140.6070   80.3760  222.9820 N   0  0  0  0  0  0  0  0  0  0  0  0
  140.7720   77.1030  221.9600 C   0  0  0  0  0  0  0  0  0  0  0  0
  140.1620   71.1850  223.5260 C   0  0  0  0  0  0  0  0  0  0  0  0
  139.5720   69.9450  223.3950 C   0  0  0  0  0  0  0  0  0  0  0  0
  139.4770   69.1500  224.5370 C   0  0  0  0  0  0  0  0  0  0  0  0
  139.9550   69.5890  225.7560 C   0  0  0  0  0  0  0  0  0  0  0  0
  139.8600   68.8100  226.8640 C   0  0  0  0  0  0  0  0  0  0  0  0
  140.3500   69.2830  228.0630 C   0  0  0  0  0  0  0  0  0  0  0  0
  140.2420   68.4870  229.1610 F   0  0  0  0  0  0  0  0  0  0  0  0
  140.9390   70.5450  228.1480 C   0  0  0  0  0  0  0  0  0  0  0  0
  141.0410   71.3440  227.0300 C   0  0  0  0  0  0  0  0  0  0  0  0
  140.5450   70.8520  225.8400 C   0  0  0  0  0  0  0  0  0  0  0  0
  140.6250   71.5970  224.7260 N   0  0  0  0  0  0  0  0  0  0  0  0
  139.2240   73.7380  223.1230 H   0  0  0  0  0  0  0  0  0  0  0  0
  139.7499   73.4078  220.2198 H   0  0  0  0  0  0  0  0  0  0  0  0
  139.0487   74.8530  221.0793 H   0  0  0  0  0  0  0  0  0  0  0  0
  142.1898   76.5482  219.0571 H   0  0  0  0  0  0  0  0  0  0  0  0
  140.5180   77.1043  219.0014 H   0  0  0  0  0  0  0  0  0  0  0  0
  142.8968   78.3136  220.5054 H   0  0  0  0  0  0  0  0  0  0  0  0
  141.7990   79.1616  219.4631 H   0  0  0  0  0  0  0  0  0  0  0  0
  139.9100   78.8862  221.1081 H   0  0  0  0  0  0  0  0  0  0  0  0
  143.4112   78.8176  222.0900 H   0  0  0  0  0  0  0  0  0  0  0  0
  144.4063   80.4353  223.6699 H   0  0  0  0  0  0  0  0  0  0  0  0
  142.8921   82.0626  224.8356 H   0  0  0  0  0  0  0  0  0  0  0  0
  140.4807   81.9773  224.3575 H   0  0  0  0  0  0  0  0  0  0  0  0
  141.4710   76.9610  222.7974 H   0  0  0  0  0  0  0  0  0  0  0  0
  139.7663   76.9049  222.3592 H   0  0  0  0  0  0  0  0  0  0  0  0
  139.1901   69.5956  222.4244 H   0  0  0  0  0  0  0  0  0  0  0  0
  139.0129   68.1553  224.4654 H   0  0  0  0  0  0  0  0  0  0  0  0
  139.3977   67.8136  226.8059 H   0  0  0  0  0  0  0  0  0  0  0  0
  141.3243   70.9044  229.1136 H   0  0  0  0  0  0  0  0  0  0  0  0
  141.5025   72.3410  227.0843 H   0  0  0  0  0  0  0  0  0  0  0  0
  1  2  2  0
  2  3  1  0
  3  4  1  0
  4  5  1  0
  5  6  2  0
  5  7  1  0
  7  8  1  0
  8  9  1  0
  9 10  1  0
 10 11  1  0
 11 12  2  0
 12 13  1  0
 13 14  2  0
 14 15  1  0
 15 16  2  0
 10 17  1  0
  2 18  1  0
 18 19  2  0
 19 20  1  0
 20 21  2  0
 21 22  1  0
 22 23  2  0
 23 24  1  0
 23 25  1  0
 25 26  2  0
 26 27  1  0
 27 28  2  0
 17  7  1  0
 28 18  1  0
 16 11  1  0
 27 21  1  0
  3 29  1  0
  4 30  1  0
  4 31  1  0
  8 32  1  0
  8 33  1  0
  9 34  1  0
  9 35  1  0
 10 36  1  6
 12 37  1  0
 13 38  1  0
 14 39  1  0
 15 40  1  0
 17 41  1  0
 17 42  1  0
 19 43  1  0
 20 44  1  0
 22 45  1  0
 25 46  1  0
 26 47  1  0
M  END
>  <smiles>  (20) 
O=C(NCC(=O)N1CC[C@H](c2ccccn2)C1)c1ccc2cc(F)ccc2n1

>  <score_type>  (20) 
oracle

>  <origin>  (20) 
autodockgpu

>  <m_score__min__energy>  (20) 
-8.8000000000000007

>  <m_primary>  (20) 
energy

>  <rmsd>  (20) 
2.4823417728782964

>  <m_score__min__rmsd>  (20) 
2.4823417728782964

>  <meeko>  (20) 
{"free_energy": -8.8, "intermolecular_energy": -10.29, "internal_energy": -0.96, "cluster_size": 41, "cluster_id": 1, "rank_in_cluster": 1}

>  <energy>  (20) 
-8.43

>  <cluster_rmsd>  (20) 
1.05

>  <cluster>  (20) 
1

$$$$

     RDKit          3D

 47 50  0  0  0  0  0  0  0  0999 V2000
  140.8910   71.8990  221.3170 O   0  0  0  0  0  0  0  0  0  0  0  0
  139.9100   71.9610  222.1050 C   0  0  0  0  0  0  0  0  0  0  0  0
  138.8290   72.8000  221.7050 N   0  0  0  0  0  0  0  0  0  0  0  0
  138.9320   73.5020  220.4590 C   0  0  0  0  0  0  0  0  0  0  0  0
  140.0130   74.5170  220.4580 C   0  0  0  0  0  0  0  0  0  0  0  0
  140.9560   74.3960  219.6350 O   0  0  0  0  0  0  0  0  0  0  0  0
  139.9220   75.5810  221.3970 N   0  0  0  0  0  0  0  0  0  0  0  0
  138.7610   76.0210  222.1540 C   0  0  0  0  0  0  0  0  0  0  0  0
  139.0230   77.4650  222.4490 C   0  0  0  0  0  0  0  0  0  0  0  0
  140.5310   77.4270  222.7260 C   0  0  2  0  0  0  0  0  0  0  0  0
  141.1350   78.7610  222.6230 C   0  0  0  0  0  0  0  0  0  0  0  0
  141.8300   79.2550  223.7140 C   0  0  0  0  0  0  0  0  0  0  0  0
  142.4340   80.4940  223.7200 C   0  0  0  0  0  0  0  0  0  0  0  0
  142.3340   81.2680  222.5840 C   0  0  0  0  0  0  0  0  0  0  0  0
  141.6420   80.7600  221.5170 C   0  0  0  0  0  0  0  0  0  0  0  0
  141.0530   79.5360  221.5270 N   0  0  0  0  0  0  0  0  0  0  0  0
  141.0760   76.4230  221.7380 C   0  0  0  0  0  0  0  0  0  0  0  0
  139.8680   71.2160  223.3650 C   0  0  0  0  0  0  0  0  0  0  0  0
  139.2250   69.9950  223.3600 C   0  0  0  0  0  0  0  0  0  0  0  0
  139.1830   69.2820  224.5580 C   0  0  0  0  0  0  0  0  0  0  0  0
  139.7630   69.7800  225.7070 C   0  0  0  0  0  0  0  0  0  0  0  0
  139.7190   69.0800  226.8700 C   0  0  0  0  0  0  0  0  0  0  0  0
  140.3110   69.6100  227.9980 C   0  0  0  0  0  0  0  0  0  0  0  0
  140.2530   68.8920  229.1530 F   0  0  0  0  0  0  0  0  0  0  0  0
  140.9500   70.8490  227.9560 C   0  0  0  0  0  0  0  0  0  0  0  0
  141.0010   71.5680  226.7810 C   0  0  0  0  0  0  0  0  0  0  0  0
  140.4030   71.0200  225.6650 C   0  0  0  0  0  0  0  0  0  0  0  0
  140.4300   71.6860  224.5000 N   0  0  0  0  0  0  0  0  0  0  0  0
  137.9730   72.9050  222.3080 H   0  0  0  0  0  0  0  0  0  0  0  0
  139.1341   72.7728  219.6606 H   0  0  0  0  0  0  0  0  0  0  0  0
  137.9812   74.0312  220.2979 H   0  0  0  0  0  0  0  0  0  0  0  0
  137.8436   75.9074  221.5578 H   0  0  0  0  0  0  0  0  0  0  0  0
  138.6135   75.4298  223.0698 H   0  0  0  0  0  0  0  0  0  0  0  0
  138.7849   78.1050  221.5866 H   0  0  0  0  0  0  0  0  0  0  0  0
  138.4178   77.8818  223.2676 H   0  0  0  0  0  0  0  0  0  0  0  0
  140.7709   77.1214  223.7551 H   0  0  0  0  0  0  0  0  0  0  0  0
  141.9034   78.6305  224.6166 H   0  0  0  0  0  0  0  0  0  0  0  0
  142.9794   80.8542  224.6048 H   0  0  0  0  0  0  0  0  0  0  0  0
  142.7966   82.2648  222.5358 H   0  0  0  0  0  0  0  0  0  0  0  0
  141.5591   81.3731  220.6075 H   0  0  0  0  0  0  0  0  0  0  0  0
  141.4657   76.9300  220.8430 H   0  0  0  0  0  0  0  0  0  0  0  0
  141.9122   75.8400  222.1514 H   0  0  0  0  0  0  0  0  0  0  0  0
  138.7623   69.5984  222.4443 H   0  0  0  0  0  0  0  0  0  0  0  0
  138.6784   68.3050  224.5875 H   0  0  0  0  0  0  0  0  0  0  0  0
  139.2173   68.1020  226.9122 H   0  0  0  0  0  0  0  0  0  0  0  0
  141.4161   71.2549  228.8660 H   0  0  0  0  0  0  0  0  0  0  0  0
  141.5019   72.5462  226.7347 H   0  0  0  0  0  0  0  0  0  0  0  0
  1  2  2  0
  2  3  1  0
  3  4  1  0
  4  5  1  0
  5  6  2  0
  5  7  1  0
  7  8  1  0
  8  9  1  0
  9 10  1  0
 10 11  1  0
 11 12  2  0
 12 13  1  0
 13 14  2  0
 14 15  1  0
 15 16  2  0
 10 17  1  0
  2 18  1  0
 18 19  2  0
 19 20  1  0
 20 21  2  0
 21 22  1  0
 22 23  2  0
 23 24  1  0
 23 25  1  0
 25 26  2  0
 26 27  1  0
 27 28  2  0
 17  7  1  0
 28 18  1  0
 16 11  1  0
 27 21  1  0
  3 29  1  0
  4 30  1  0
  4 31  1  0
  8 32  1  0
  8 33  1  0
  9 34  1  0
  9 35  1  0
 10 36  1  1
 12 37  1  0
 13 38  1  0
 14 39  1  0
 15 40  1  0
 17 41  1  0
 17 42  1  0
 19 43  1  0
 20 44  1  0
 22 45  1  0
 25 46  1  0
 26 47  1  0
M  END
>  <smiles>  (21) 
O=C(NCC(=O)N1CC[C@H](c2ccccn2)C1)c1ccc2cc(F)ccc2n1

>  <score_type>  (21) 
oracle

>  <origin>  (21) 
autodockgpu

>  <m_score__min__energy>  (21) 
-8.8000000000000007

>  <m_primary>  (21) 
energy

>  <rmsd>  (21) 
2.8963294058726587

>  <m_score__min__rmsd>  (21) 
2.8963294058726587

>  <meeko>  (21) 
{"free_energy": -7.82, "intermolecular_energy": -9.31, "internal_energy": -1.03, "cluster_size": 41, "cluster_id": 1, "rank_in_cluster": 41}

>  <energy>  (21) 
-8.43

>  <cluster_rmsd>  (21) 
0.93

>  <cluster>  (21) 
1

$$$$

     RDKit          3D

 47 50  0  0  0  0  0  0  0  0999 V2000
  140.6650   71.4940  221.4050 O   0  0  0  0  0  0  0  0  0  0  0  0
  140.1760   71.8830  222.4990 C   0  0  0  0  0  0  0  0  0  0  0  0
  139.6700   73.2150  222.5260 N   0  0  0  0  0  0  0  0  0  0  0  0
  139.7510   74.0040  221.3320 C   0  0  0  0  0  0  0  0  0  0  0  0
  141.0620   74.6820  221.1780 C   0  0  0  0  0  0  0  0  0  0  0  0
  142.1100   73.9890  221.2180 O   0  0  0  0  0  0  0  0  0  0  0  0
  141.0580   76.0910  220.9930 N   0  0  0  0  0  0  0  0  0  0  0  0
  141.3660   76.8450  219.7880 C   0  0  0  0  0  0  0  0  0  0  0  0
  141.8300   78.1810  220.2820 C   0  0  0  0  0  0  0  0  0  0  0  0
  140.8740   78.3930  221.4620 C   0  0  2  0  0  0  0  0  0  0  0  0
  141.3750   79.4140  222.3890 C   0  0  0  0  0  0  0  0  0  0  0  0
  142.7350   79.4560  222.6510 C   0  0  0  0  0  0  0  0  0  0  0  0
  143.3060   80.3740  223.5040 C   0  0  0  0  0  0  0  0  0  0  0  0
  142.4790   81.2880  224.1200 C   0  0  0  0  0  0  0  0  0  0  0  0
  141.1380   81.2290  223.8460 C   0  0  0  0  0  0  0  0  0  0  0  0
  140.5910   80.3170  223.0020 N   0  0  0  0  0  0  0  0  0  0  0  0
  140.7180   77.0220  222.0770 C   0  0  0  0  0  0  0  0  0  0  0  0
  140.1240   71.0250  223.6840 C   0  0  0  0  0  0  0  0  0  0  0  0
  139.5610   69.7740  223.5380 C   0  0  0  0  0  0  0  0  0  0  0  0
  139.5090   68.9520  224.6630 C   0  0  0  0  0  0  0  0  0  0  0  0
  140.0030   69.3760  225.8810 C   0  0  0  0  0  0  0  0  0  0  0  0
  139.9500   68.5700  226.9730 C   0  0  0  0  0  0  0  0  0  0  0  0
  140.4530   69.0290  228.1720 C   0  0  0  0  0  0  0  0  0  0  0  0
  140.3890   68.2060  229.2540 F   0  0  0  0  0  0  0  0  0  0  0  0
  141.0140   70.3030  228.2740 C   0  0  0  0  0  0  0  0  0  0  0  0
  141.0730   71.1280  227.1720 C   0  0  0  0  0  0  0  0  0  0  0  0
  140.5630   70.6510  225.9820 C   0  0  0  0  0  0  0  0  0  0  0  0
  140.6020   71.4210  224.8830 N   0  0  0  0  0  0  0  0  0  0  0  0
  139.2460   73.6150  223.4030 H   0  0  0  0  0  0  0  0  0  0  0  0
  139.5915   73.3463  220.4648 H   0  0  0  0  0  0  0  0  0  0  0  0
  138.9800   74.7857  221.3989 H   0  0  0  0  0  0  0  0  0  0  0  0
  142.1600   76.3476  219.2118 H   0  0  0  0  0  0  0  0  0  0  0  0
  140.4985   76.9284  219.1167 H   0  0  0  0  0  0  0  0  0  0  0  0
  142.8793   78.1500  220.6105 H   0  0  0  0  0  0  0  0  0  0  0  0
  141.8088   78.9805  219.5268 H   0  0  0  0  0  0  0  0  0  0  0  0
  139.8951   78.7905  221.1560 H   0  0  0  0  0  0  0  0  0  0  0  0
  143.3881   78.7228  222.1551 H   0  0  0  0  0  0  0  0  0  0  0  0
  144.3905   80.3776  223.6882 H   0  0  0  0  0  0  0  0  0  0  0  0
  142.8834   82.0423  224.8110 H   0  0  0  0  0  0  0  0  0  0  0  0
  140.4719   81.9560  224.3336 H   0  0  0  0  0  0  0  0  0  0  0  0
  141.4052   76.8967  222.9268 H   0  0  0  0  0  0  0  0  0  0  0  0
  139.7047   76.8532  222.4705 H   0  0  0  0  0  0  0  0  0  0  0  0
  139.1669   69.4368  222.5679 H   0  0  0  0  0  0  0  0  0  0  0  0
  139.0668   67.9483  224.5790 H   0  0  0  0  0  0  0  0  0  0  0  0
  139.5113   67.5638  226.9018 H   0  0  0  0  0  0  0  0  0  0  0  0
  141.4111   70.6502  229.2393 H   0  0  0  0  0  0  0  0  0  0  0  0
  141.5124   72.1342  227.2388 H   0  0  0  0  0  0  0  0  0  0  0  0
  1  2  2  0
  2  3  1  0
  3  4  1  0
  4  5  1  0
  5  6  2  0
  5  7  1  0
  7  8  1  0
  8  9  1  0
  9 10  1  0
 10 11  1  0
 11 12  2  0
 12 13  1  0
 13 14  2  0
 14 15  1  0
 15 16  2  0
 10 17  1  0
  2 18  1  0
 18 19  2  0
 19 20  1  0
 20 21  2  0
 21 22  1  0
 22 23  2  0
 23 24  1  0
 23 25  1  0
 25 26  2  0
 26 27  1  0
 27 28  2  0
 17  7  1  0
 28 18  1  0
 16 11  1  0
 27 21  1  0
  3 29  1  0
  4 30  1  0
  4 31  1  0
  8 32  1  0
  8 33  1  0
  9 34  1  0
  9 35  1  0
 10 36  1  6
 12 37  1  0
 13 38  1  0
 14 39  1  0
 15 40  1  0
 17 41  1  0
 17 42  1  0
 19 43  1  0
 20 44  1  0
 22 45  1  0
 25 46  1  0
 26 47  1  0
M  END
>  <smiles>  (22) 
O=C(NCC(=O)N1CC[C@H](c2ccccn2)C1)c1ccc2cc(F)ccc2n1

>  <score_type>  (22) 
oracle

>  <origin>  (22) 
autodockgpu

>  <m_score__min__energy>  (22) 
-8.8000000000000007

>  <m_primary>  (22) 
energy

>  <rmsd>  (22) 
2.4691015564137078

>  <m_score__min__rmsd>  (22) 
2.4691015564137078

>  <meeko>  (22) 
{"free_energy": -8.76, "intermolecular_energy": -10.25, "internal_energy": -0.97, "cluster_size": 41, "cluster_id": 1, "rank_in_cluster": 3}

>  <energy>  (22) 
-8.42

>  <cluster_rmsd>  (22) 
0.69

>  <cluster>  (22) 
1

$$$$

     RDKit          3D

 47 50  0  0  0  0  0  0  0  0999 V2000
  139.6930   73.5410  222.3710 O   0  0  0  0  0  0  0  0  0  0  0  0
  140.3420   72.4650  222.4670 C   0  0  0  0  0  0  0  0  0  0  0  0
  141.2230   72.1600  221.3890 N   0  0  0  0  0  0  0  0  0  0  0  0
  141.3070   73.0790  220.2920 C   0  0  0  0  0  0  0  0  0  0  0  0
  142.3710   74.0960  220.4740 C   0  0  0  0  0  0  0  0  0  0  0  0
  143.5420   73.7100  220.7220 O   0  0  0  0  0  0  0  0  0  0  0  0
  142.0040   75.4640  220.3560 N   0  0  0  0  0  0  0  0  0  0  0  0
  142.1370   76.3400  219.2030 C   0  0  0  0  0  0  0  0  0  0  0  0
  142.2200   77.7190  219.7790 C   0  0  0  0  0  0  0  0  0  0  0  0
  141.2100   77.6070  220.9270 C   0  0  2  0  0  0  0  0  0  0  0  0
  141.3990   78.6700  221.9220 C   0  0  0  0  0  0  0  0  0  0  0  0
  140.3560   78.9550  222.7870 C   0  0  0  0  0  0  0  0  0  0  0  0
  140.4320   79.9320  223.7560 C   0  0  0  0  0  0  0  0  0  0  0  0
  141.6020   80.6510  223.8600 C   0  0  0  0  0  0  0  0  0  0  0  0
  142.6200   80.3520  222.9940 C   0  0  0  0  0  0  0  0  0  0  0  0
  142.5300   79.3860  222.0450 N   0  0  0  0  0  0  0  0  0  0  0  0
  141.4010   76.2110  221.4690 C   0  0  0  0  0  0  0  0  0  0  0  0
  140.2080   71.5690  223.6170 C   0  0  0  0  0  0  0  0  0  0  0  0
  139.5740   70.3610  223.4110 C   0  0  0  0  0  0  0  0  0  0  0  0
  139.4450   69.5030  224.5030 C   0  0  0  0  0  0  0  0  0  0  0  0
  139.9340   69.8510  225.7460 C   0  0  0  0  0  0  0  0  0  0  0  0
  139.8060   69.0110  226.8050 C   0  0  0  0  0  0  0  0  0  0  0  0
  140.3070   69.3930  228.0320 C   0  0  0  0  0  0  0  0  0  0  0  0
  140.1660   68.5360  229.0800 F   0  0  0  0  0  0  0  0  0  0  0  0
  140.9410   70.6250  228.1940 C   0  0  0  0  0  0  0  0  0  0  0  0
  141.0770   71.4850  227.1260 C   0  0  0  0  0  0  0  0  0  0  0  0
  140.5690   71.0840  225.9080 C   0  0  0  0  0  0  0  0  0  0  0  0
  140.6810   71.8900  224.8410 N   0  0  0  0  0  0  0  0  0  0  0  0
  141.7990   71.2800  221.3940 H   0  0  0  0  0  0  0  0  0  0  0  0
  141.5168   72.5114  219.3734 H   0  0  0  0  0  0  0  0  0  0  0  0
  140.3465   73.6118  220.2322 H   0  0  0  0  0  0  0  0  0  0  0  0
  143.0496   76.1005  218.6375 H   0  0  0  0  0  0  0  0  0  0  0  0
  141.2972   76.2329  218.5007 H   0  0  0  0  0  0  0  0  0  0  0  0
  143.2312   77.9438  220.1490 H   0  0  0  0  0  0  0  0  0  0  0  0
  142.0102   78.5270  219.0627 H   0  0  0  0  0  0  0  0  0  0  0  0
  140.1700   77.7523  220.5994 H   0  0  0  0  0  0  0  0  0  0  0  0
  139.4252   78.3758  222.6967 H   0  0  0  0  0  0  0  0  0  0  0  0
  139.5832   80.1316  224.4266 H   0  0  0  0  0  0  0  0  0  0  0  0
  141.7155   81.4419  224.6161 H   0  0  0  0  0  0  0  0  0  0  0  0
  143.5569   80.9231  223.0715 H   0  0  0  0  0  0  0  0  0  0  0  0
  142.0727   76.2205  222.3401 H   0  0  0  0  0  0  0  0  0  0  0  0
  140.4569   75.7622  221.8114 H   0  0  0  0  0  0  0  0  0  0  0  0
  139.1840   70.0843  222.4204 H   0  0  0  0  0  0  0  0  0  0  0  0
  138.9449   68.5321  224.3714 H   0  0  0  0  0  0  0  0  0  0  0  0
  139.3085   68.0372  226.6858 H   0  0  0  0  0  0  0  0  0  0  0  0
  141.3347   70.9117  229.1803 H   0  0  0  0  0  0  0  0  0  0  0  0
  141.5744   72.4594  227.2410 H   0  0  0  0  0  0  0  0  0  0  0  0
  1  2  2  0
  2  3  1  0
  3  4  1  0
  4  5  1  0
  5  6  2  0
  5  7  1  0
  7  8  1  0
  8  9  1  0
  9 10  1  0
 10 11  1  0
 11 12  2  0
 12 13  1  0
 13 14  2  0
 14 15  1  0
 15 16  2  0
 10 17  1  0
  2 18  1  0
 18 19  2  0
 19 20  1  0
 20 21  2  0
 21 22  1  0
 22 23  2  0
 23 24  1  0
 23 25  1  0
 25 26  2  0
 26 27  1  0
 27 28  2  0
 17  7  1  0
 28 18  1  0
 16 11  1  0
 27 21  1  0
  3 29  1  0
  4 30  1  0
  4 31  1  0
  8 32  1  0
  8 33  1  0
  9 34  1  0
  9 35  1  0
 10 36  1  6
 12 37  1  0
 13 38  1  0
 14 39  1  0
 15 40  1  0
 17 41  1  0
 17 42  1  0
 19 43  1  0
 20 44  1  0
 22 45  1  0
 25 46  1  0
 26 47  1  0
M  END
>  <smiles>  (23) 
O=C(NCC(=O)N1CC[C@H](c2ccccn2)C1)c1ccc2cc(F)ccc2n1

>  <score_type>  (23) 
oracle

>  <origin>  (23) 
autodockgpu

>  <m_score__min__energy>  (23) 
-8.8000000000000007

>  <m_primary>  (23) 
energy

>  <rmsd>  (23) 
2.6562272721891618

>  <m_score__min__rmsd>  (23) 
2.6562272721891618

>  <meeko>  (23) 
{"free_energy": -8.41, "intermolecular_energy": -9.9, "internal_energy": -1.07, "cluster_size": 41, "cluster_id": 1, "rank_in_cluster": 24}

>  <energy>  (23) 
-8.41

>  <cluster_rmsd>  (23) 
1.44

>  <cluster>  (23) 
1

$$$$

     RDKit          3D

 47 50  0  0  0  0  0  0  0  0999 V2000
  140.7790   71.7670  221.1710 O   0  0  0  0  0  0  0  0  0  0  0  0
  140.2410   72.1870  222.2310 C   0  0  0  0  0  0  0  0  0  0  0  0
  139.7360   73.5190  222.1980 N   0  0  0  0  0  0  0  0  0  0  0  0
  139.8720   74.2750  220.9870 C   0  0  0  0  0  0  0  0  0  0  0  0
  138.7550   75.2270  220.7750 C   0  0  0  0  0  0  0  0  0  0  0  0
  137.8390   74.9150  219.9720 O   0  0  0  0  0  0  0  0  0  0  0  0
  138.7830   76.4500  221.4980 N   0  0  0  0  0  0  0  0  0  0  0  0
  137.7810   77.5040  221.5320 C   0  0  0  0  0  0  0  0  0  0  0  0
  138.5440   78.7450  221.8760 C   0  0  0  0  0  0  0  0  0  0  0  0
  139.5450   78.1870  222.8950 C   0  0  2  0  0  0  0  0  0  0  0  0
  140.6890   79.0870  223.0800 C   0  0  0  0  0  0  0  0  0  0  0  0
  140.4600   80.3420  223.6180 C   0  0  0  0  0  0  0  0  0  0  0  0
  141.4640   81.2610  223.8320 C   0  0  0  0  0  0  0  0  0  0  0  0
  142.7510   80.9050  223.4920 C   0  0  0  0  0  0  0  0  0  0  0  0
  142.9540   79.6590  222.9620 C   0  0  0  0  0  0  0  0  0  0  0  0
  141.9540   78.7650  222.7580 N   0  0  0  0  0  0  0  0  0  0  0  0
  139.9110   76.8220  222.3620 C   0  0  0  0  0  0  0  0  0  0  0  0
  140.1350   71.3620  223.4360 C   0  0  0  0  0  0  0  0  0  0  0  0
  139.5390   70.1240  223.3070 C   0  0  0  0  0  0  0  0  0  0  0  0
  139.4360   69.3340  224.4520 C   0  0  0  0  0  0  0  0  0  0  0  0
  139.9110   69.7760  225.6700 C   0  0  0  0  0  0  0  0  0  0  0  0
  139.8080   69.0010  226.7810 C   0  0  0  0  0  0  0  0  0  0  0  0
  140.2950   69.4760  227.9800 C   0  0  0  0  0  0  0  0  0  0  0  0
  140.1800   68.6850  229.0810 F   0  0  0  0  0  0  0  0  0  0  0  0
  140.8890   70.7360  228.0630 C   0  0  0  0  0  0  0  0  0  0  0  0
  141.0000   71.5300  226.9420 C   0  0  0  0  0  0  0  0  0  0  0  0
  140.5060   71.0360  225.7530 C   0  0  0  0  0  0  0  0  0  0  0  0
  140.5950   71.7760  224.6360 N   0  0  0  0  0  0  0  0  0  0  0  0
  139.2730   73.9430  223.0430 H   0  0  0  0  0  0  0  0  0  0  0  0
  140.8135   74.8421  221.0307 H   0  0  0  0  0  0  0  0  0  0  0  0
  139.8631   73.5624  220.1491 H   0  0  0  0  0  0  0  0  0  0  0  0
  137.2941   77.6077  220.5511 H   0  0  0  0  0  0  0  0  0  0  0  0
  136.9811   77.2936  222.2572 H   0  0  0  0  0  0  0  0  0  0  0  0
  139.0527   79.1656  220.9960 H   0  0  0  0  0  0  0  0  0  0  0  0
  137.9249   79.5739  222.2496 H   0  0  0  0  0  0  0  0  0  0  0  0
  139.1252   78.1034  223.9083 H   0  0  0  0  0  0  0  0  0  0  0  0
  139.4297   80.6179  223.8868 H   0  0  0  0  0  0  0  0  0  0  0  0
  141.2447   82.2496  224.2616 H   0  0  0  0  0  0  0  0  0  0  0  0
  143.5898   81.6007  223.6418 H   0  0  0  0  0  0  0  0  0  0  0  0
  143.9789   79.3683  222.6879 H   0  0  0  0  0  0  0  0  0  0  0  0
  140.8453   76.8683  221.7833 H   0  0  0  0  0  0  0  0  0  0  0  0
  140.0809   76.0908  223.1660 H   0  0  0  0  0  0  0  0  0  0  0  0
  139.1589   69.7729  222.3363 H   0  0  0  0  0  0  0  0  0  0  0  0
  138.9678   68.3410  224.3829 H   0  0  0  0  0  0  0  0  0  0  0  0
  139.3416   68.0064  226.7245 H   0  0  0  0  0  0  0  0  0  0  0  0
  141.2710   71.0977  229.0291 H   0  0  0  0  0  0  0  0  0  0  0  0
  141.4670   72.5246  226.9939 H   0  0  0  0  0  0  0  0  0  0  0  0
  1  2  2  0
  2  3  1  0
  3  4  1  0
  4  5  1  0
  5  6  2  0
  5  7  1  0
  7  8  1  0
  8  9  1  0
  9 10  1  0
 10 11  1  0
 11 12  2  0
 12 13  1  0
 13 14  2  0
 14 15  1  0
 15 16  2  0
 10 17  1  0
  2 18  1  0
 18 19  2  0
 19 20  1  0
 20 21  2  0
 21 22  1  0
 22 23  2  0
 23 24  1  0
 23 25  1  0
 25 26  2  0
 26 27  1  0
 27 28  2  0
 17  7  1  0
 28 18  1  0
 16 11  1  0
 27 21  1  0
  3 29  1  0
  4 30  1  0
  4 31  1  0
  8 32  1  0
  8 33  1  0
  9 34  1  0
  9 35  1  0
 10 36  1  1
 12 37  1  0
 13 38  1  0
 14 39  1  0
 15 40  1  0
 17 41  1  0
 17 42  1  0
 19 43  1  0
 20 44  1  0
 22 45  1  0
 25 46  1  0
 26 47  1  0
M  END
>  <smiles>  (24) 
O=C(NCC(=O)N1CC[C@H](c2ccccn2)C1)c1ccc2cc(F)ccc2n1

>  <score_type>  (24) 
oracle

>  <origin>  (24) 
autodockgpu

>  <m_score__min__energy>  (24) 
-8.8000000000000007

>  <m_primary>  (24) 
energy

>  <rmsd>  (24) 
3.1467275584664463

>  <m_score__min__rmsd>  (24) 
3.1467275584664463

>  <meeko>  (24) 
{"free_energy": -8.27, "intermolecular_energy": -9.76, "internal_energy": -0.97, "cluster_size": 41, "cluster_id": 1, "rank_in_cluster": 33}

>  <energy>  (24) 
-8.41

>  <cluster_rmsd>  (24) 
1.35

>  <cluster>  (24) 
1

$$$$

     RDKit          3D

 47 50  0  0  0  0  0  0  0  0999 V2000
  140.4300   71.7120  221.0570 O   0  0  0  0  0  0  0  0  0  0  0  0
  140.1350   72.2030  222.1800 C   0  0  0  0  0  0  0  0  0  0  0  0
  139.8310   73.5950  222.2020 N   0  0  0  0  0  0  0  0  0  0  0  0
  139.8820   74.3270  220.9700 C   0  0  0  0  0  0  0  0  0  0  0  0
  140.9740   75.3300  220.9420 C   0  0  0  0  0  0  0  0  0  0  0  0
  140.7260   76.5040  221.3180 O   0  0  0  0  0  0  0  0  0  0  0  0
  142.2510   74.9040  220.4870 N   0  0  0  0  0  0  0  0  0  0  0  0
  143.1780   75.6020  219.6100 C   0  0  0  0  0  0  0  0  0  0  0  0
  143.9890   74.5180  218.9710 C   0  0  0  0  0  0  0  0  0  0  0  0
  144.1530   73.5550  220.1530 C   0  0  2  0  0  0  0  0  0  0  0  0
  144.5370   72.2100  219.7080 C   0  0  0  0  0  0  0  0  0  0  0  0
  143.7290   71.1430  220.0630 C   0  0  0  0  0  0  0  0  0  0  0  0
  144.0000   69.8420  219.6960 C   0  0  0  0  0  0  0  0  0  0  0  0
  145.1280   69.6040  218.9420 C   0  0  0  0  0  0  0  0  0  0  0  0
  145.9130   70.6740  218.6020 C   0  0  0  0  0  0  0  0  0  0  0  0
  145.6320   71.9500  218.9720 N   0  0  0  0  0  0  0  0  0  0  0  0
  142.8290   73.6120  220.8780 C   0  0  0  0  0  0  0  0  0  0  0  0
  140.1020   71.3980  223.4030 C   0  0  0  0  0  0  0  0  0  0  0  0
  139.5730   70.1260  223.3120 C   0  0  0  0  0  0  0  0  0  0  0  0
  139.5400   69.3560  224.4740 C   0  0  0  0  0  0  0  0  0  0  0  0
  140.0180   69.8470  225.6720 C   0  0  0  0  0  0  0  0  0  0  0  0
  139.9830   69.0910  226.8000 C   0  0  0  0  0  0  0  0  0  0  0  0
  140.4700   69.6170  227.9780 C   0  0  0  0  0  0  0  0  0  0  0  0
  140.4240   68.8420  229.0960 F   0  0  0  0  0  0  0  0  0  0  0  0
  140.9960   70.9080  228.0230 C   0  0  0  0  0  0  0  0  0  0  0  0
  141.0370   71.6840  226.8840 C   0  0  0  0  0  0  0  0  0  0  0  0
  140.5440   71.1400  225.7160 C   0  0  0  0  0  0  0  0  0  0  0  0
  140.5660   71.8610  224.5840 N   0  0  0  0  0  0  0  0  0  0  0  0
  139.5760   74.0790  223.1010 H   0  0  0  0  0  0  0  0  0  0  0  0
  140.0366   73.6161  220.1450 H   0  0  0  0  0  0  0  0  0  0  0  0
  138.9309   74.8701  220.8680 H   0  0  0  0  0  0  0  0  0  0  0  0
  142.6319   76.1777  218.8482 H   0  0  0  0  0  0  0  0  0  0  0  0
  143.8045   76.3222  220.1565 H   0  0  0  0  0  0  0  0  0  0  0  0
  143.4502   74.0470  218.1356 H   0  0  0  0  0  0  0  0  0  0  0  0
  144.9344   74.8576  218.5229 H   0  0  0  0  0  0  0  0  0  0  0  0
  144.9734   73.8398  220.8282 H   0  0  0  0  0  0  0  0  0  0  0  0
  142.8303   71.3424  220.6651 H   0  0  0  0  0  0  0  0  0  0  0  0
  143.3353   69.0186  219.9963 H   0  0  0  0  0  0  0  0  0  0  0  0
  145.3907   68.5848  218.6223 H   0  0  0  0  0  0  0  0  0  0  0  0
  146.8151   70.4906  217.9998 H   0  0  0  0  0  0  0  0  0  0  0  0
  142.1775   72.7834  220.5634 H   0  0  0  0  0  0  0  0  0  0  0  0
  142.9445   73.5182  221.9679 H   0  0  0  0  0  0  0  0  0  0  0  0
  139.1914   69.7343  222.3576 H   0  0  0  0  0  0  0  0  0  0  0  0
  139.1251   68.3380  224.4351 H   0  0  0  0  0  0  0  0  0  0  0  0
  139.5711   68.0714  226.7741 H   0  0  0  0  0  0  0  0  0  0  0  0
  141.3802   71.3093  228.9724 H   0  0  0  0  0  0  0  0  0  0  0  0
  141.4493   72.7036  226.9059 H   0  0  0  0  0  0  0  0  0  0  0  0
  1  2  2  0
  2  3  1  0
  3  4  1  0
  4  5  1  0
  5  6  2  0
  5  7  1  0
  7  8  1  0
  8  9  1  0
  9 10  1  0
 10 11  1  0
 11 12  2  0
 12 13  1  0
 13 14  2  0
 14 15  1  0
 15 16  2  0
 10 17  1  0
  2 18  1  0
 18 19  2  0
 19 20  1  0
 20 21  2  0
 21 22  1  0
 22 23  2  0
 23 24  1  0
 23 25  1  0
 25 26  2  0
 26 27  1  0
 27 28  2  0
 17  7  1  0
 28 18  1  0
 16 11  1  0
 27 21  1  0
  3 29  1  0
  4 30  1  0
  4 31  1  0
  8 32  1  0
  8 33  1  0
  9 34  1  0
  9 35  1  0
 10 36  1  1
 12 37  1  0
 13 38  1  0
 14 39  1  0
 15 40  1  0
 17 41  1  0
 17 42  1  0
 19 43  1  0
 20 44  1  0
 22 45  1  0
 25 46  1  0
 26 47  1  0
M  END
>  <smiles>  (25) 
O=C(NCC(=O)N1CC[C@H](c2ccccn2)C1)c1ccc2cc(F)ccc2n1

>  <score_type>  (25) 
oracle

>  <origin>  (25) 
autodockgpu

>  <m_score__min__energy>  (25) 
-8.8000000000000007

>  <m_primary>  (25) 
energy

>  <rmsd>  (25) 
2.7373377673977903

>  <m_score__min__rmsd>  (25) 
2.7373377673977903

>  <meeko>  (25) 
{"free_energy": -7.9, "intermolecular_energy": -9.4, "internal_energy": -1.43, "cluster_size": 4, "cluster_id": 4, "rank_in_cluster": 4}

>  <energy>  (25) 
-8.4

>  <cluster_rmsd>  (25) 
0.97

>  <cluster>  (25) 
1

$$$$

     RDKit          3D

 47 50  0  0  0  0  0  0  0  0999 V2000
  139.4270   71.0360  221.4810 O   0  0  0  0  0  0  0  0  0  0  0  0
  139.6230   71.5100  222.6330 C   0  0  0  0  0  0  0  0  0  0  0  0
  139.7520   72.9260  222.7190 N   0  0  0  0  0  0  0  0  0  0  0  0
  139.6550   73.6990  221.5160 C   0  0  0  0  0  0  0  0  0  0  0  0
  140.9560   74.2710  221.0920 C   0  0  0  0  0  0  0  0  0  0  0  0
  141.9410   73.5010  220.9590 O   0  0  0  0  0  0  0  0  0  0  0  0
  141.0170   75.6720  220.8590 N   0  0  0  0  0  0  0  0  0  0  0  0
  141.5190   76.3720  219.6870 C   0  0  0  0  0  0  0  0  0  0  0  0
  141.9380   77.7160  220.1960 C   0  0  0  0  0  0  0  0  0  0  0  0
  140.8240   77.9930  221.2130 C   0  0  2  0  0  0  0  0  0  0  0  0
  141.2080   79.0400  222.1670 C   0  0  0  0  0  0  0  0  0  0  0  0
  142.5540   79.3200  222.3290 C   0  0  0  0  0  0  0  0  0  0  0  0
  143.0200   80.2830  223.1990 C   0  0  0  0  0  0  0  0  0  0  0  0
  142.0960   80.9920  223.9340 C   0  0  0  0  0  0  0  0  0  0  0  0
  140.7700   80.6980  223.7570 C   0  0  0  0  0  0  0  0  0  0  0  0
  140.3270   79.7470  222.8960 N   0  0  0  0  0  0  0  0  0  0  0  0
  140.5430   76.6510  221.8460 C   0  0  0  0  0  0  0  0  0  0  0  0
  139.7130   70.6630  223.8240 C   0  0  0  0  0  0  0  0  0  0  0  0
  139.1880   69.3890  223.7390 C   0  0  0  0  0  0  0  0  0  0  0  0
  139.2720   68.5790  224.8710 C   0  0  0  0  0  0  0  0  0  0  0  0
  139.8580   69.0350  226.0350 C   0  0  0  0  0  0  0  0  0  0  0  0
  139.9370   68.2400  227.1330 C   0  0  0  0  0  0  0  0  0  0  0  0
  140.5300   68.7300  228.2780 C   0  0  0  0  0  0  0  0  0  0  0  0
  140.5970   67.9180  229.3670 F   0  0  0  0  0  0  0  0  0  0  0  0
  141.0460   70.0260  228.3180 C   0  0  0  0  0  0  0  0  0  0  0  0
  140.9720   70.8410  227.2090 C   0  0  0  0  0  0  0  0  0  0  0  0
  140.3750   70.3310  226.0740 C   0  0  0  0  0  0  0  0  0  0  0  0
  140.2830   71.0900  224.9710 N   0  0  0  0  0  0  0  0  0  0  0  0
  139.9180   73.3990  223.6450 H   0  0  0  0  0  0  0  0  0  0  0  0
  139.2776   73.0507  220.7115 H   0  0  0  0  0  0  0  0  0  0  0  0
  138.9744   74.5394  221.7172 H   0  0  0  0  0  0  0  0  0  0  0  0
  142.3768   75.8369  219.2537 H   0  0  0  0  0  0  0  0  0  0  0  0
  140.7629   76.4460  218.8915 H   0  0  0  0  0  0  0  0  0  0  0  0
  142.9263   77.6773  220.6775 H   0  0  0  0  0  0  0  0  0  0  0  0
  142.0483   78.4856  219.4178 H   0  0  0  0  0  0  0  0  0  0  0  0
  139.9115   78.3979  220.7510 H   0  0  0  0  0  0  0  0  0  0  0  0
  143.2844   78.7488  221.7373 H   0  0  0  0  0  0  0  0  0  0  0  0
  144.0974   80.4790  223.3029 H   0  0  0  0  0  0  0  0  0  0  0  0
  142.4135   81.7714  224.6423 H   0  0  0  0  0  0  0  0  0  0  0  0
  140.0273   81.2606  224.3417 H   0  0  0  0  0  0  0  0  0  0  0  0
  141.0923   76.5453  222.7932 H   0  0  0  0  0  0  0  0  0  0  0  0
  139.4784   76.5180  222.0890 H   0  0  0  0  0  0  0  0  0  0  0  0
  138.7204   69.0260  222.8119 H   0  0  0  0  0  0  0  0  0  0  0  0
  138.8639   67.5581  224.8359 H   0  0  0  0  0  0  0  0  0  0  0  0
  139.5328   67.2172  227.1097 H   0  0  0  0  0  0  0  0  0  0  0  0
  141.5147   70.3994  229.2404 H   0  0  0  0  0  0  0  0  0  0  0  0
  141.3754   71.8642  227.2279 H   0  0  0  0  0  0  0  0  0  0  0  0
  1  2  2  0
  2  3  1  0
  3  4  1  0
  4  5  1  0
  5  6  2  0
  5  7  1  0
  7  8  1  0
  8  9  1  0
  9 10  1  0
 10 11  1  0
 11 12  2  0
 12 13  1  0
 13 14  2  0
 14 15  1  0
 15 16  2  0
 10 17  1  0
  2 18  1  0
 18 19  2  0
 19 20  1  0
 20 21  2  0
 21 22  1  0
 22 23  2  0
 23 24  1  0
 23 25  1  0
 25 26  2  0
 26 27  1  0
 27 28  2  0
 17  7  1  0
 28 18  1  0
 16 11  1  0
 27 21  1  0
  3 29  1  0
  4 30  1  0
  4 31  1  0
  8 32  1  0
  8 33  1  0
  9 34  1  0
  9 35  1  0
 10 36  1  6
 12 37  1  0
 13 38  1  0
 14 39  1  0
 15 40  1  0
 17 41  1  0
 17 42  1  0
 19 43  1  0
 20 44  1  0
 22 45  1  0
 25 46  1  0
 26 47  1  0
M  END
>  <smiles>  (26) 
O=C(NCC(=O)N1CC[C@H](c2ccccn2)C1)c1ccc2cc(F)ccc2n1

>  <score_type>  (26) 
oracle

>  <origin>  (26) 
autodockgpu

>  <m_score__min__energy>  (26) 
-8.8000000000000007

>  <m_primary>  (26) 
energy

>  <rmsd>  (26) 
2.2886216042104977

>  <m_score__min__rmsd>  (26) 
2.2886216042104977

>  <meeko>  (26) 
{"free_energy": -8.42, "intermolecular_energy": -9.91, "internal_energy": -1.06, "cluster_size": 41, "cluster_id": 1, "rank_in_cluster": 22}

>  <energy>  (26) 
-8.37

>  <cluster_rmsd>  (26) 
0.89

>  <cluster>  (26) 
1

$$$$

     RDKit          3D

 47 50  0  0  0  0  0  0  0  0999 V2000
  138.4740   71.9150  222.0730 O   0  0  0  0  0  0  0  0  0  0  0  0
  139.5130   71.8810  222.7870 C   0  0  0  0  0  0  0  0  0  0  0  0
  140.5510   72.7920  222.4350 N   0  0  0  0  0  0  0  0  0  0  0  0
  140.3470   73.6650  221.3170 C   0  0  0  0  0  0  0  0  0  0  0  0
  139.6390   74.9160  221.6840 C   0  0  0  0  0  0  0  0  0  0  0  0
  138.5700   74.8350  222.3400 O   0  0  0  0  0  0  0  0  0  0  0  0
  140.2160   76.1470  221.2700 N   0  0  0  0  0  0  0  0  0  0  0  0
  141.1590   76.3850  220.1890 C   0  0  0  0  0  0  0  0  0  0  0  0
  141.8900   77.6300  220.5870 C   0  0  0  0  0  0  0  0  0  0  0  0
  140.7470   78.4410  221.2080 C   0  0  2  0  0  0  0  0  0  0  0  0
  141.2520   79.5220  222.0640 C   0  0  0  0  0  0  0  0  0  0  0  0
  142.0480   79.1860  223.1470 C   0  0  0  0  0  0  0  0  0  0  0  0
  142.5720   80.1230  224.0110 C   0  0  0  0  0  0  0  0  0  0  0  0
  142.2840   81.4500  223.7780 C   0  0  0  0  0  0  0  0  0  0  0  0
  141.4950   81.7590  222.7030 C   0  0  0  0  0  0  0  0  0  0  0  0
  140.9870   80.8240  221.8600 N   0  0  0  0  0  0  0  0  0  0  0  0
  139.9040   77.4200  221.9340 C   0  0  0  0  0  0  0  0  0  0  0  0
  139.6580   70.9630  223.9180 C   0  0  0  0  0  0  0  0  0  0  0  0
  139.1930   69.6740  223.7530 C   0  0  0  0  0  0  0  0  0  0  0  0
  139.3290   68.7950  224.8280 C   0  0  0  0  0  0  0  0  0  0  0  0
  139.9080   69.2000  226.0140 C   0  0  0  0  0  0  0  0  0  0  0  0
  140.0380   68.3390  227.0550 C   0  0  0  0  0  0  0  0  0  0  0  0
  140.6220   68.7800  228.2240 C   0  0  0  0  0  0  0  0  0  0  0  0
  140.7410   67.9010  229.2560 F   0  0  0  0  0  0  0  0  0  0  0  0
  141.0780   70.0930  228.3460 C   0  0  0  0  0  0  0  0  0  0  0  0
  140.9510   70.9760  227.2950 C   0  0  0  0  0  0  0  0  0  0  0  0
  140.3640   70.5140  226.1350 C   0  0  0  0  0  0  0  0  0  0  0  0
  140.2220   71.3400  225.0860 N   0  0  0  0  0  0  0  0  0  0  0  0
  141.4500   72.8260  222.9820 H   0  0  0  0  0  0  0  0  0  0  0  0
  141.3275   73.9278  220.8932 H   0  0  0  0  0  0  0  0  0  0  0  0
  139.7176   73.1301  220.5906 H   0  0  0  0  0  0  0  0  0  0  0  0
  141.8569   75.5405  220.0905 H   0  0  0  0  0  0  0  0  0  0  0  0
  140.6573   76.4909  219.2158 H   0  0  0  0  0  0  0  0  0  0  0  0
  142.6824   77.4185  221.3201 H   0  0  0  0  0  0  0  0  0  0  0  0
  142.4149   78.1357  219.7631 H   0  0  0  0  0  0  0  0  0  0  0  0
  140.1430   78.9743  220.4592 H   0  0  0  0  0  0  0  0  0  0  0  0
  142.2717   78.1238  223.3252 H   0  0  0  0  0  0  0  0  0  0  0  0
  143.2012   79.8206  224.8611 H   0  0  0  0  0  0  0  0  0  0  0  0
  142.6768   82.2384  224.4369 H   0  0  0  0  0  0  0  0  0  0  0  0
  141.2611   82.8169  222.5128 H   0  0  0  0  0  0  0  0  0  0  0  0
  140.1743   77.3793  222.9995 H   0  0  0  0  0  0  0  0  0  0  0  0
  138.8311   77.6599  221.8961 H   0  0  0  0  0  0  0  0  0  0  0  0
  138.7317   69.3513  222.8080 H   0  0  0  0  0  0  0  0  0  0  0  0
  138.9683   67.7606  224.7287 H   0  0  0  0  0  0  0  0  0  0  0  0
  139.6819   67.3019  226.9674 H   0  0  0  0  0  0  0  0  0  0  0  0
  141.5416   70.4256  229.2864 H   0  0  0  0  0  0  0  0  0  0  0  0
  141.3057   72.0139  227.3784 H   0  0  0  0  0  0  0  0  0  0  0  0
  1  2  2  0
  2  3  1  0
  3  4  1  0
  4  5  1  0
  5  6  2  0
  5  7  1  0
  7  8  1  0
  8  9  1  0
  9 10  1  0
 10 11  1  0
 11 12  2  0
 12 13  1  0
 13 14  2  0
 14 15  1  0
 15 16  2  0
 10 17  1  0
  2 18  1  0
 18 19  2  0
 19 20  1  0
 20 21  2  0
 21 22  1  0
 22 23  2  0
 23 24  1  0
 23 25  1  0
 25 26  2  0
 26 27  1  0
 27 28  2  0
 17  7  1  0
 28 18  1  0
 16 11  1  0
 27 21  1  0
  3 29  1  0
  4 30  1  0
  4 31  1  0
  8 32  1  0
  8 33  1  0
  9 34  1  0
  9 35  1  0
 10 36  1  6
 12 37  1  0
 13 38  1  0
 14 39  1  0
 15 40  1  0
 17 41  1  0
 17 42  1  0
 19 43  1  0
 20 44  1  0
 22 45  1  0
 25 46  1  0
 26 47  1  0
M  END
>  <smiles>  (27) 
O=C(NCC(=O)N1CC[C@H](c2ccccn2)C1)c1ccc2cc(F)ccc2n1

>  <score_type>  (27) 
oracle

>  <origin>  (27) 
autodockgpu

>  <m_score__min__energy>  (27) 
-8.8000000000000007

>  <m_primary>  (27) 
energy

>  <rmsd>  (27) 
2.517623899795022

>  <m_score__min__rmsd>  (27) 
2.517623899795022

>  <meeko>  (27) 
{"free_energy": -8.1, "intermolecular_energy": -9.6, "internal_energy": -1.0, "cluster_size": 41, "cluster_id": 1, "rank_in_cluster": 38}

>  <energy>  (27) 
-8.36

>  <cluster_rmsd>  (27) 
0.9

>  <cluster>  (27) 
1

$$$$

     RDKit          3D

 47 50  0  0  0  0  0  0  0  0999 V2000
  139.9500   73.6390  222.4390 O   0  0  0  0  0  0  0  0  0  0  0  0
  140.3870   72.4570  222.4610 C   0  0  0  0  0  0  0  0  0  0  0  0
  141.0670   72.0130  221.2890 N   0  0  0  0  0  0  0  0  0  0  0  0
  141.2020   72.9210  220.1890 C   0  0  0  0  0  0  0  0  0  0  0  0
  142.3160   73.8840  220.3710 C   0  0  0  0  0  0  0  0  0  0  0  0
  143.4590   73.4400  220.6480 O   0  0  0  0  0  0  0  0  0  0  0  0
  142.0260   75.2670  220.2190 N   0  0  0  0  0  0  0  0  0  0  0  0
  142.2530   76.1160  219.0600 C   0  0  0  0  0  0  0  0  0  0  0  0
  142.3830   77.4980  219.6210 C   0  0  0  0  0  0  0  0  0  0  0  0
  141.3200   77.4560  220.7250 C   0  0  2  0  0  0  0  0  0  0  0  0
  141.5220   78.5230  221.7130 C   0  0  0  0  0  0  0  0  0  0  0  0
  141.4250   78.2030  223.0570 C   0  0  0  0  0  0  0  0  0  0  0  0
  141.5970   79.1290  224.0630 C   0  0  0  0  0  0  0  0  0  0  0  0
  141.8780   80.4290  223.7050 C   0  0  0  0  0  0  0  0  0  0  0  0
  141.9710   80.7230  222.3700 C   0  0  0  0  0  0  0  0  0  0  0  0
  141.7990   79.7990  221.3910 N   0  0  0  0  0  0  0  0  0  0  0  0
  141.4160   76.0600  221.2940 C   0  0  0  0  0  0  0  0  0  0  0  0
  140.2150   71.5790  223.6190 C   0  0  0  0  0  0  0  0  0  0  0  0
  139.5290   70.3970  223.4240 C   0  0  0  0  0  0  0  0  0  0  0  0
  139.3620   69.5560  224.5240 C   0  0  0  0  0  0  0  0  0  0  0  0
  139.8650   69.8940  225.7650 C   0  0  0  0  0  0  0  0  0  0  0  0
  139.7000   69.0710  226.8320 C   0  0  0  0  0  0  0  0  0  0  0  0
  140.2170   69.4430  228.0550 C   0  0  0  0  0  0  0  0  0  0  0  0
  140.0390   68.6030  229.1110 F   0  0  0  0  0  0  0  0  0  0  0  0
  140.9040   70.6480  228.2060 C   0  0  0  0  0  0  0  0  0  0  0  0
  141.0770   71.4910  227.1300 C   0  0  0  0  0  0  0  0  0  0  0  0
  140.5530   71.1000  225.9150 C   0  0  0  0  0  0  0  0  0  0  0  0
  140.7000   71.8910  224.8400 N   0  0  0  0  0  0  0  0  0  0  0  0
  141.4610   71.0380  221.2290 H   0  0  0  0  0  0  0  0  0  0  0  0
  141.3865   72.3393  219.2738 H   0  0  0  0  0  0  0  0  0  0  0  0
  140.2701   73.5016  220.1229 H   0  0  0  0  0  0  0  0  0  0  0  0
  143.1751   75.8210  218.5377 H   0  0  0  0  0  0  0  0  0  0  0  0
  141.4397   76.0407  218.3232 H   0  0  0  0  0  0  0  0  0  0  0  0
  143.3877   77.6761  220.0319 H   0  0  0  0  0  0  0  0  0  0  0  0
  142.2467   78.3046  218.8856 H   0  0  0  0  0  0  0  0  0  0  0  0
  140.3039   77.6491  220.3506 H   0  0  0  0  0  0  0  0  0  0  0  0
  141.2005   77.1624  223.3341 H   0  0  0  0  0  0  0  0  0  0  0  0
  141.5124   78.8385  225.1206 H   0  0  0  0  0  0  0  0  0  0  0  0
  142.0234   81.2079  224.4680 H   0  0  0  0  0  0  0  0  0  0  0  0
  142.1962   81.7591  222.0773 H   0  0  0  0  0  0  0  0  0  0  0  0
  142.0497   76.0491  222.1930 H   0  0  0  0  0  0  0  0  0  0  0  0
  140.4365   75.6650  221.6016 H   0  0  0  0  0  0  0  0  0  0  0  0
  139.1281   70.1279  222.4356 H   0  0  0  0  0  0  0  0  0  0  0  0
  138.8201   68.6067  224.4010 H   0  0  0  0  0  0  0  0  0  0  0  0
  139.1603   68.1188  226.7222 H   0  0  0  0  0  0  0  0  0  0  0  0
  141.3098   70.9266  229.1897 H   0  0  0  0  0  0  0  0  0  0  0  0
  141.6152   72.4445  227.2361 H   0  0  0  0  0  0  0  0  0  0  0  0
  1  2  2  0
  2  3  1  0
  3  4  1  0
  4  5  1  0
  5  6  2  0
  5  7  1  0
  7  8  1  0
  8  9  1  0
  9 10  1  0
 10 11  1  0
 11 12  2  0
 12 13  1  0
 13 14  2  0
 14 15  1  0
 15 16  2  0
 10 17  1  0
  2 18  1  0
 18 19  2  0
 19 20  1  0
 20 21  2  0
 21 22  1  0
 22 23  2  0
 23 24  1  0
 23 25  1  0
 25 26  2  0
 26 27  1  0
 27 28  2  0
 17  7  1  0
 28 18  1  0
 16 11  1  0
 27 21  1  0
  3 29  1  0
  4 30  1  0
  4 31  1  0
  8 32  1  0
  8 33  1  0
  9 34  1  0
  9 35  1  0
 10 36  1  6
 12 37  1  0
 13 38  1  0
 14 39  1  0
 15 40  1  0
 17 41  1  0
 17 42  1  0
 19 43  1  0
 20 44  1  0
 22 45  1  0
 25 46  1  0
 26 47  1  0
M  END
>  <smiles>  (28) 
O=C(NCC(=O)N1CC[C@H](c2ccccn2)C1)c1ccc2cc(F)ccc2n1

>  <score_type>  (28) 
oracle

>  <origin>  (28) 
autodockgpu

>  <m_score__min__energy>  (28) 
-8.8000000000000007

>  <m_primary>  (28) 
energy

>  <rmsd>  (28) 
2.609562007980699

>  <m_score__min__rmsd>  (28) 
2.609562007980699

>  <meeko>  (28) 
{"free_energy": -8.62, "intermolecular_energy": -10.12, "internal_energy": -1.09, "cluster_size": 41, "cluster_id": 1, "rank_in_cluster": 10}

>  <energy>  (28) 
-8.36

>  <cluster_rmsd>  (28) 
1.52

>  <cluster>  (28) 
1

$$$$

     RDKit          3D

 47 50  0  0  0  0  0  0  0  0999 V2000
  141.6480   73.8390  220.6980 O   0  0  0  0  0  0  0  0  0  0  0  0
  140.9200   74.6180  221.3700 C   0  0  0  0  0  0  0  0  0  0  0  0
  139.8500   74.0170  222.0930 N   0  0  0  0  0  0  0  0  0  0  0  0
  139.6770   72.5960  222.0080 C   0  0  0  0  0  0  0  0  0  0  0  0
  138.4020   72.1350  222.6080 C   0  0  0  0  0  0  0  0  0  0  0  0
  137.3580   72.8040  222.4000 O   0  0  0  0  0  0  0  0  0  0  0  0
  138.4320   70.9500  223.3930 N   0  0  0  0  0  0  0  0  0  0  0  0
  137.3520   70.0130  223.6570 C   0  0  0  0  0  0  0  0  0  0  0  0
  137.7090   69.3780  224.9650 C   0  0  0  0  0  0  0  0  0  0  0  0
  139.2280   69.2440  224.8090 C   0  0  2  0  0  0  0  0  0  0  0  0
  139.8920   69.0490  226.1030 C   0  0  0  0  0  0  0  0  0  0  0  0
  139.9510   70.1190  226.9800 C   0  0  0  0  0  0  0  0  0  0  0  0
  140.5510   70.0420  228.2190 C   0  0  0  0  0  0  0  0  0  0  0  0
  141.1130   68.8400  228.5910 C   0  0  0  0  0  0  0  0  0  0  0  0
  141.0420   67.7950  227.7090 C   0  0  0  0  0  0  0  0  0  0  0  0
  140.4480   67.8880  226.4920 N   0  0  0  0  0  0  0  0  0  0  0  0
  139.6490   70.4980  224.0800 C   0  0  0  0  0  0  0  0  0  0  0  0
  141.1520   76.0630  221.4150 C   0  0  0  0  0  0  0  0  0  0  0  0
  141.5670   76.6760  220.2500 C   0  0  0  0  0  0  0  0  0  0  0  0
  141.7880   78.0530  220.2870 C   0  0  0  0  0  0  0  0  0  0  0  0
  141.5980   78.7760  221.4480 C   0  0  0  0  0  0  0  0  0  0  0  0
  141.8150   80.1170  221.4770 C   0  0  0  0  0  0  0  0  0  0  0  0
  141.6140   80.8050  222.6540 C   0  0  0  0  0  0  0  0  0  0  0  0
  141.8380   82.1480  222.6620 F   0  0  0  0  0  0  0  0  0  0  0  0
  141.1930   80.1430  223.8080 C   0  0  0  0  0  0  0  0  0  0  0  0
  140.9700   78.7830  223.7900 C   0  0  0  0  0  0  0  0  0  0  0  0
  141.1770   78.1130  222.6020 C   0  0  0  0  0  0  0  0  0  0  0  0
  140.9700   76.7890  222.5390 N   0  0  0  0  0  0  0  0  0  0  0  0
  139.1970   74.6000  222.6780 H   0  0  0  0  0  0  0  0  0  0  0  0
  139.6926   72.3029  220.9479 H   0  0  0  0  0  0  0  0  0  0  0  0
  140.4968   72.1284  222.5730 H   0  0  0  0  0  0  0  0  0  0  0  0
  136.3901   70.5413  223.7323 H   0  0  0  0  0  0  0  0  0  0  0  0
  137.2390   69.2717  222.8522 H   0  0  0  0  0  0  0  0  0  0  0  0
  137.4440   70.0239  225.8151 H   0  0  0  0  0  0  0  0  0  0  0  0
  137.1856   68.4329  225.1723 H   0  0  0  0  0  0  0  0  0  0  0  0
  139.5236   68.3509  224.2390 H   0  0  0  0  0  0  0  0  0  0  0  0
  139.4986   71.0739  226.6743 H   0  0  0  0  0  0  0  0  0  0  0  0
  140.5802   70.9132  228.8899 H   0  0  0  0  0  0  0  0  0  0  0  0
  141.6044   68.7234  229.5682 H   0  0  0  0  0  0  0  0  0  0  0  0
  141.4882   66.8329  228.0010 H   0  0  0  0  0  0  0  0  0  0  0  0
  140.0008   71.2610  224.7900 H   0  0  0  0  0  0  0  0  0  0  0  0
  140.4804   70.3174  223.3828 H   0  0  0  0  0  0  0  0  0  0  0  0
  141.7181   76.0994  219.3255 H   0  0  0  0  0  0  0  0  0  0  0  0
  142.1194   78.5718  219.3754 H   0  0  0  0  0  0  0  0  0  0  0  0
  142.1470   80.6470  220.5721 H   0  0  0  0  0  0  0  0  0  0  0  0
  141.0381   80.7100  224.7378 H   0  0  0  0  0  0  0  0  0  0  0  0
  140.6380   78.2496  224.6929 H   0  0  0  0  0  0  0  0  0  0  0  0
  1  2  2  0
  2  3  1  0
  3  4  1  0
  4  5  1  0
  5  6  2  0
  5  7  1  0
  7  8  1  0
  8  9  1  0
  9 10  1  0
 10 11  1  0
 11 12  2  0
 12 13  1  0
 13 14  2  0
 14 15  1  0
 15 16  2  0
 10 17  1  0
  2 18  1  0
 18 19  2  0
 19 20  1  0
 20 21  2  0
 21 22  1  0
 22 23  2  0
 23 24  1  0
 23 25  1  0
 25 26  2  0
 26 27  1  0
 27 28  2  0
 17  7  1  0
 28 18  1  0
 16 11  1  0
 27 21  1  0
  3 29  1  0
  4 30  1  0
  4 31  1  0
  8 32  1  0
  8 33  1  0
  9 34  1  0
  9 35  1  0
 10 36  1  6
 12 37  1  0
 13 38  1  0
 14 39  1  0
 15 40  1  0
 17 41  1  0
 17 42  1  0
 19 43  1  0
 20 44  1  0
 22 45  1  0
 25 46  1  0
 26 47  1  0
M  END
>  <smiles>  (29) 
O=C(NCC(=O)N1CC[C@H](c2ccccn2)C1)c1ccc2cc(F)ccc2n1

>  <score_type>  (29) 
oracle

>  <origin>  (29) 
autodockgpu

>  <m_score__min__energy>  (29) 
-8.8000000000000007

>  <m_primary>  (29) 
energy

>  <rmsd>  (29) 
8.846102630023347

>  <m_score__min__rmsd>  (29) 
8.846102630023347

>  <meeko>  (29) 
{"free_energy": -7.94, "intermolecular_energy": -9.43, "internal_energy": -1.19, "cluster_size": 4, "cluster_id": 2, "rank_in_cluster": 4}

>  <energy>  (29) 
-8.33

>  <cluster_rmsd>  (29) 
1.12

>  <cluster>  (29) 
1

$$$$

     RDKit          3D

 47 50  0  0  0  0  0  0  0  0999 V2000
  139.9360   73.6930  222.6940 O   0  0  0  0  0  0  0  0  0  0  0  0
  140.3020   72.4900  222.6080 C   0  0  0  0  0  0  0  0  0  0  0  0
  140.8100   72.0740  221.3430 N   0  0  0  0  0  0  0  0  0  0  0  0
  140.8680   73.0320  220.2780 C   0  0  0  0  0  0  0  0  0  0  0  0
  142.0480   73.9260  220.3720 C   0  0  0  0  0  0  0  0  0  0  0  0
  143.1820   73.4130  220.5500 O   0  0  0  0  0  0  0  0  0  0  0  0
  141.8280   75.3250  220.2530 N   0  0  0  0  0  0  0  0  0  0  0  0
  142.0500   76.1800  219.0980 C   0  0  0  0  0  0  0  0  0  0  0  0
  142.2810   77.5430  219.6710 C   0  0  0  0  0  0  0  0  0  0  0  0
  141.2690   77.5410  220.8220 C   0  0  2  0  0  0  0  0  0  0  0  0
  141.5740   78.5780  221.8150 C   0  0  0  0  0  0  0  0  0  0  0  0
  141.4420   78.2640  223.1570 C   0  0  0  0  0  0  0  0  0  0  0  0
  141.7040   79.1640  224.1680 C   0  0  0  0  0  0  0  0  0  0  0  0
  142.1140   80.4320  223.8150 C   0  0  0  0  0  0  0  0  0  0  0  0
  142.2370   80.7200  222.4820 C   0  0  0  0  0  0  0  0  0  0  0  0
  141.9760   79.8210  221.4980 N   0  0  0  0  0  0  0  0  0  0  0  0
  141.3130   76.1320  221.3660 C   0  0  0  0  0  0  0  0  0  0  0  0
  140.2150   71.5610  223.7360 C   0  0  0  0  0  0  0  0  0  0  0  0
  139.6450   70.3270  223.5000 C   0  0  0  0  0  0  0  0  0  0  0  0
  139.5610   69.4380  224.5710 C   0  0  0  0  0  0  0  0  0  0  0  0
  140.0320   69.7810  225.8230 C   0  0  0  0  0  0  0  0  0  0  0  0
  139.9470   68.9100  226.8620 C   0  0  0  0  0  0  0  0  0  0  0  0
  140.4280   69.2880  228.0980 C   0  0  0  0  0  0  0  0  0  0  0  0
  140.3320   68.4010  229.1250 F   0  0  0  0  0  0  0  0  0  0  0  0
  140.9970   70.5470  228.2900 C   0  0  0  0  0  0  0  0  0  0  0  0
  141.0880   71.4390  227.2430 C   0  0  0  0  0  0  0  0  0  0  0  0
  140.6010   71.0410  226.0150 C   0  0  0  0  0  0  0  0  0  0  0  0
  140.6700   71.8770  224.9670 N   0  0  0  0  0  0  0  0  0  0  0  0
  141.1350   71.0850  221.1890 H   0  0  0  0  0  0  0  0  0  0  0  0
  140.9121   72.4913  219.3211 H   0  0  0  0  0  0  0  0  0  0  0  0
  139.9690   73.6618  220.3500 H   0  0  0  0  0  0  0  0  0  0  0  0
  142.9302   75.8439  218.5304 H   0  0  0  0  0  0  0  0  0  0  0  0
  141.2014   76.1618  218.3983 H   0  0  0  0  0  0  0  0  0  0  0  0
  143.3116   77.6596  220.0374 H   0  0  0  0  0  0  0  0  0  0  0  0
  142.1559   78.3676  218.9538 H   0  0  0  0  0  0  0  0  0  0  0  0
  140.2494   77.7963  220.4975 H   0  0  0  0  0  0  0  0  0  0  0  0
  141.1131   77.2502  223.4290 H   0  0  0  0  0  0  0  0  0  0  0  0
  141.5894   78.8790  225.2242 H   0  0  0  0  0  0  0  0  0  0  0  0
  142.3357   81.1896  224.5811 H   0  0  0  0  0  0  0  0  0  0  0  0
  142.5636   81.7301  222.1937 H   0  0  0  0  0  0  0  0  0  0  0  0
  141.9855   76.0712  222.2343 H   0  0  0  0  0  0  0  0  0  0  0  0
  140.3281   75.7863  221.7130 H   0  0  0  0  0  0  0  0  0  0  0  0
  139.2701   70.0541  222.5025 H   0  0  0  0  0  0  0  0  0  0  0  0
  139.1117   68.4460  224.4158 H   0  0  0  0  0  0  0  0  0  0  0  0
  139.4999   67.9152  226.7192 H   0  0  0  0  0  0  0  0  0  0  0  0
  141.3755   70.8299  229.2833 H   0  0  0  0  0  0  0  0  0  0  0  0
  141.5340   72.4349  227.3819 H   0  0  0  0  0  0  0  0  0  0  0  0
  1  2  2  0
  2  3  1  0
  3  4  1  0
  4  5  1  0
  5  6  2  0
  5  7  1  0
  7  8  1  0
  8  9  1  0
  9 10  1  0
 10 11  1  0
 11 12  2  0
 12 13  1  0
 13 14  2  0
 14 15  1  0
 15 16  2  0
 10 17  1  0
  2 18  1  0
 18 19  2  0
 19 20  1  0
 20 21  2  0
 21 22  1  0
 22 23  2  0
 23 24  1  0
 23 25  1  0
 25 26  2  0
 26 27  1  0
 27 28  2  0
 17  7  1  0
 28 18  1  0
 16 11  1  0
 27 21  1  0
  3 29  1  0
  4 30  1  0
  4 31  1  0
  8 32  1  0
  8 33  1  0
  9 34  1  0
  9 35  1  0
 10 36  1  6
 12 37  1  0
 13 38  1  0
 14 39  1  0
 15 40  1  0
 17 41  1  0
 17 42  1  0
 19 43  1  0
 20 44  1  0
 22 45  1  0
 25 46  1  0
 26 47  1  0
M  END
>  <smiles>  (30) 
O=C(NCC(=O)N1CC[C@H](c2ccccn2)C1)c1ccc2cc(F)ccc2n1

>  <score_type>  (30) 
oracle

>  <origin>  (30) 
autodockgpu

>  <m_score__min__energy>  (30) 
-8.8000000000000007

>  <m_primary>  (30) 
energy

>  <rmsd>  (30) 
2.551501791805435

>  <m_score__min__rmsd>  (30) 
2.551501791805435

>  <meeko>  (30) 
{"free_energy": -8.64, "intermolecular_energy": -10.13, "internal_energy": -1.09, "cluster_size": 41, "cluster_id": 1, "rank_in_cluster": 6}

>  <energy>  (30) 
-8.31

>  <cluster_rmsd>  (30) 
1.5

>  <cluster>  (30) 
1

$$$$

     RDKit          3D

 47 50  0  0  0  0  0  0  0  0999 V2000
  141.1040   71.7940  221.6420 O   0  0  0  0  0  0  0  0  0  0  0  0
  140.2390   71.9610  222.5430 C   0  0  0  0  0  0  0  0  0  0  0  0
  139.3340   73.0460  222.3580 N   0  0  0  0  0  0  0  0  0  0  0  0
  139.4680   73.8580  221.1840 C   0  0  0  0  0  0  0  0  0  0  0  0
  140.4690   74.9400  221.3440 C   0  0  0  0  0  0  0  0  0  0  0  0
  141.6290   74.7630  220.8910 O   0  0  0  0  0  0  0  0  0  0  0  0
  140.0580   76.1280  222.0070 N   0  0  0  0  0  0  0  0  0  0  0  0
  138.7080   76.5600  222.3340 C   0  0  0  0  0  0  0  0  0  0  0  0
  138.7930   78.0530  222.4100 C   0  0  0  0  0  0  0  0  0  0  0  0
  140.1630   78.2240  223.0780 C   0  0  2  0  0  0  0  0  0  0  0  0
  140.6930   79.5790  222.8890 C   0  0  0  0  0  0  0  0  0  0  0  0
  141.7670   79.9800  223.6670 C   0  0  0  0  0  0  0  0  0  0  0  0
  142.3390   81.2300  223.5680 C   0  0  0  0  0  0  0  0  0  0  0  0
  141.8110   82.1130  222.6510 C   0  0  0  0  0  0  0  0  0  0  0  0
  140.7500   81.6950  221.8930 C   0  0  0  0  0  0  0  0  0  0  0  0
  140.1980   80.4590  222.0020 N   0  0  0  0  0  0  0  0  0  0  0  0
  141.0190   77.1350  222.4770 C   0  0  0  0  0  0  0  0  0  0  0  0
  140.1560   71.0940  223.7210 C   0  0  0  0  0  0  0  0  0  0  0  0
  139.5600   69.8590  223.5590 C   0  0  0  0  0  0  0  0  0  0  0  0
  139.4790   69.0290  224.6770 C   0  0  0  0  0  0  0  0  0  0  0  0
  139.9770   69.4290  225.9020 C   0  0  0  0  0  0  0  0  0  0  0  0
  139.8950   68.6150  226.9860 C   0  0  0  0  0  0  0  0  0  0  0  0
  140.4030   69.0490  228.1920 C   0  0  0  0  0  0  0  0  0  0  0  0
  140.3100   68.2190  229.2660 F   0  0  0  0  0  0  0  0  0  0  0  0
  140.9970   70.3070  228.3090 C   0  0  0  0  0  0  0  0  0  0  0  0
  141.0850   71.1400  227.2140 C   0  0  0  0  0  0  0  0  0  0  0  0
  140.5710   70.6870  226.0170 C   0  0  0  0  0  0  0  0  0  0  0  0
  140.6370   71.4660  224.9260 N   0  0  0  0  0  0  0  0  0  0  0  0
  138.5830   73.2520  223.0660 H   0  0  0  0  0  0  0  0  0  0  0  0
  139.7760   73.2156  220.3458 H   0  0  0  0  0  0  0  0  0  0  0  0
  138.4938   74.3335  220.9977 H   0  0  0  0  0  0  0  0  0  0  0  0
  138.0015   76.2514  221.5494 H   0  0  0  0  0  0  0  0  0  0  0  0
  138.3455   76.1160  223.2729 H   0  0  0  0  0  0  0  0  0  0  0  0
  138.7688   78.5121  221.4107 H   0  0  0  0  0  0  0  0  0  0  0  0
  137.9600   78.5319  222.9456 H   0  0  0  0  0  0  0  0  0  0  0  0
  140.1233   78.1207  224.1724 H   0  0  0  0  0  0  0  0  0  0  0  0
  142.1818   79.2688  224.3965 H   0  0  0  0  0  0  0  0  0  0  0  0
  143.1917   81.5145  224.2021 H   0  0  0  0  0  0  0  0  0  0  0  0
  142.2294   83.1233  222.5316 H   0  0  0  0  0  0  0  0  0  0  0  0
  140.3236   82.3951  221.1594 H   0  0  0  0  0  0  0  0  0  0  0  0
  141.6135   77.5263  221.6382 H   0  0  0  0  0  0  0  0  0  0  0  0
  141.7378   76.7215  223.1998 H   0  0  0  0  0  0  0  0  0  0  0  0
  139.1634   69.5412  222.5834 H   0  0  0  0  0  0  0  0  0  0  0  0
  139.0103   68.0384  224.5817 H   0  0  0  0  0  0  0  0  0  0  0  0
  139.4292   67.6220  226.9028 H   0  0  0  0  0  0  0  0  0  0  0  0
  141.3968   70.6352  229.2798 H   0  0  0  0  0  0  0  0  0  0  0  0
  141.5501   72.1337  227.2925 H   0  0  0  0  0  0  0  0  0  0  0  0
  1  2  2  0
  2  3  1  0
  3  4  1  0
  4  5  1  0
  5  6  2  0
  5  7  1  0
  7  8  1  0
  8  9  1  0
  9 10  1  0
 10 11  1  0
 11 12  2  0
 12 13  1  0
 13 14  2  0
 14 15  1  0
 15 16  2  0
 10 17  1  0
  2 18  1  0
 18 19  2  0
 19 20  1  0
 20 21  2  0
 21 22  1  0
 22 23  2  0
 23 24  1  0
 23 25  1  0
 25 26  2  0
 26 27  1  0
 27 28  2  0
 17  7  1  0
 28 18  1  0
 16 11  1  0
 27 21  1  0
  3 29  1  0
  4 30  1  0
  4 31  1  0
  8 32  1  0
  8 33  1  0
  9 34  1  0
  9 35  1  0
 10 36  1  1
 12 37  1  0
 13 38  1  0
 14 39  1  0
 15 40  1  0
 17 41  1  0
 17 42  1  0
 19 43  1  0
 20 44  1  0
 22 45  1  0
 25 46  1  0
 26 47  1  0
M  END
>  <smiles>  (31) 
O=C(NCC(=O)N1CC[C@H](c2ccccn2)C1)c1ccc2cc(F)ccc2n1

>  <score_type>  (31) 
oracle

>  <origin>  (31) 
autodockgpu

>  <m_score__min__energy>  (31) 
-8.8000000000000007

>  <m_primary>  (31) 
energy

>  <rmsd>  (31) 
3.1518067483618672

>  <m_score__min__rmsd>  (31) 
3.1518067483618672

>  <meeko>  (31) 
{"free_energy": -8.44, "intermolecular_energy": -9.93, "internal_energy": -0.96, "cluster_size": 41, "cluster_id": 1, "rank_in_cluster": 18}

>  <energy>  (31) 
-8.3

>  <cluster_rmsd>  (31) 
1.57

>  <cluster>  (31) 
1

$$$$

     RDKit          3D

 47 50  0  0  0  0  0  0  0  0999 V2000
  140.9700   71.6110  221.5830 O   0  0  0  0  0  0  0  0  0  0  0  0
  140.1510   71.8290  222.5160 C   0  0  0  0  0  0  0  0  0  0  0  0
  139.2670   72.9320  222.3360 N   0  0  0  0  0  0  0  0  0  0  0  0
  139.3680   73.7020  221.1320 C   0  0  0  0  0  0  0  0  0  0  0  0
  140.4360   74.7310  221.1930 C   0  0  0  0  0  0  0  0  0  0  0  0
  141.6120   74.4000  220.8950 O   0  0  0  0  0  0  0  0  0  0  0  0
  140.0650   76.0440  221.5900 N   0  0  0  0  0  0  0  0  0  0  0  0
  139.0000   76.8810  221.0610 C   0  0  0  0  0  0  0  0  0  0  0  0
  139.4440   78.2840  221.3390 C   0  0  0  0  0  0  0  0  0  0  0  0
  140.0810   78.1090  222.7230 C   0  0  2  0  0  0  0  0  0  0  0  0
  140.9740   79.2250  223.0540 C   0  0  0  0  0  0  0  0  0  0  0  0
  140.5430   80.5150  222.7910 C   0  0  0  0  0  0  0  0  0  0  0  0
  141.3040   81.6310  223.0630 C   0  0  0  0  0  0  0  0  0  0  0  0
  142.5490   81.4440  223.6230 C   0  0  0  0  0  0  0  0  0  0  0  0
  142.9560   80.1600  223.8750 C   0  0  0  0  0  0  0  0  0  0  0  0
  142.1930   79.0710  223.6010 N   0  0  0  0  0  0  0  0  0  0  0  0
  140.7660   76.7650  222.6600 C   0  0  0  0  0  0  0  0  0  0  0  0
  140.1000   71.0020  223.7240 C   0  0  0  0  0  0  0  0  0  0  0  0
  139.5340   69.7490  223.6120 C   0  0  0  0  0  0  0  0  0  0  0  0
  139.4830   68.9570  224.7590 C   0  0  0  0  0  0  0  0  0  0  0  0
  139.9820   69.4110  225.9630 C   0  0  0  0  0  0  0  0  0  0  0  0
  139.9300   68.6350  227.0760 C   0  0  0  0  0  0  0  0  0  0  0  0
  140.4390   69.1230  228.2610 C   0  0  0  0  0  0  0  0  0  0  0  0
  140.3760   68.3290  229.3650 F   0  0  0  0  0  0  0  0  0  0  0  0
  141.0030   70.3970  228.3280 C   0  0  0  0  0  0  0  0  0  0  0  0
  141.0610   71.1940  227.2040 C   0  0  0  0  0  0  0  0  0  0  0  0
  140.5470   70.6870  226.0290 C   0  0  0  0  0  0  0  0  0  0  0  0
  140.5840   71.4280  224.9100 N   0  0  0  0  0  0  0  0  0  0  0  0
  138.5550   73.1800  223.0710 H   0  0  0  0  0  0  0  0  0  0  0  0
  139.5846   73.0202  220.2964 H   0  0  0  0  0  0  0  0  0  0  0  0
  138.4111   74.2268  220.9943 H   0  0  0  0  0  0  0  0  0  0  0  0
  138.8806   76.7192  219.9795 H   0  0  0  0  0  0  0  0  0  0  0  0
  138.0263   76.6544  221.5199 H   0  0  0  0  0  0  0  0  0  0  0  0
  140.1768   78.6324  220.5962 H   0  0  0  0  0  0  0  0  0  0  0  0
  138.6412   79.0348  221.2965 H   0  0  0  0  0  0  0  0  0  0  0  0
  139.3450   78.1265  223.5404 H   0  0  0  0  0  0  0  0  0  0  0  0
  139.5475   80.6548  222.3445 H   0  0  0  0  0  0  0  0  0  0  0  0
  140.9289   82.6407  222.8398 H   0  0  0  0  0  0  0  0  0  0  0  0
  143.1972   82.3003  223.8608 H   0  0  0  0  0  0  0  0  0  0  0  0
  143.9493   80.0040  224.3210 H   0  0  0  0  0  0  0  0  0  0  0  0
  141.8320   76.8831  222.4155 H   0  0  0  0  0  0  0  0  0  0  0  0
  140.7259   76.2300  223.6203 H   0  0  0  0  0  0  0  0  0  0  0  0
  139.1369   69.3872  222.6521 H   0  0  0  0  0  0  0  0  0  0  0  0
  139.0372   67.9529  224.7030 H   0  0  0  0  0  0  0  0  0  0  0  0
  139.4871   67.6290  227.0329 H   0  0  0  0  0  0  0  0  0  0  0  0
  141.4038   70.7681  229.2828 H   0  0  0  0  0  0  0  0  0  0  0  0
  141.5026   72.2007  227.2434 H   0  0  0  0  0  0  0  0  0  0  0  0
  1  2  2  0
  2  3  1  0
  3  4  1  0
  4  5  1  0
  5  6  2  0
  5  7  1  0
  7  8  1  0
  8  9  1  0
  9 10  1  0
 10 11  1  0
 11 12  2  0
 12 13  1  0
 13 14  2  0
 14 15  1  0
 15 16  2  0
 10 17  1  0
  2 18  1  0
 18 19  2  0
 19 20  1  0
 20 21  2  0
 21 22  1  0
 22 23  2  0
 23 24  1  0
 23 25  1  0
 25 26  2  0
 26 27  1  0
 27 28  2  0
 17  7  1  0
 28 18  1  0
 16 11  1  0
 27 21  1  0
  3 29  1  0
  4 30  1  0
  4 31  1  0
  8 32  1  0
  8 33  1  0
  9 34  1  0
  9 35  1  0
 10 36  1  1
 12 37  1  0
 13 38  1  0
 14 39  1  0
 15 40  1  0
 17 41  1  0
 17 42  1  0
 19 43  1  0
 20 44  1  0
 22 45  1  0
 25 46  1  0
 26 47  1  0
M  END
>  <smiles>  (32) 
O=C(NCC(=O)N1CC[C@H](c2ccccn2)C1)c1ccc2cc(F)ccc2n1

>  <score_type>  (32) 
oracle

>  <origin>  (32) 
autodockgpu

>  <m_score__min__energy>  (32) 
-8.8000000000000007

>  <m_primary>  (32) 
energy

>  <rmsd>  (32) 
2.855466152829503

>  <m_score__min__rmsd>  (32) 
2.855466152829503

>  <meeko>  (32) 
{"free_energy": -8.37, "intermolecular_energy": -9.86, "internal_energy": -0.93, "cluster_size": 41, "cluster_id": 1, "rank_in_cluster": 26}

>  <energy>  (32) 
-8.29

>  <cluster_rmsd>  (32) 
1.49

>  <cluster>  (32) 
1

$$$$

     RDKit          3D

 47 50  0  0  0  0  0  0  0  0999 V2000
  139.9190   70.9270  221.3740 O   0  0  0  0  0  0  0  0  0  0  0  0
  139.7950   71.4450  222.5160 C   0  0  0  0  0  0  0  0  0  0  0  0
  139.6410   72.8610  222.5540 N   0  0  0  0  0  0  0  0  0  0  0  0
  139.6380   73.5840  221.3160 C   0  0  0  0  0  0  0  0  0  0  0  0
  140.9880   74.0580  220.9240 C   0  0  0  0  0  0  0  0  0  0  0  0
  141.9220   73.2210  220.8400 O   0  0  0  0  0  0  0  0  0  0  0  0
  141.1500   75.4460  220.6620 N   0  0  0  0  0  0  0  0  0  0  0  0
  141.7040   76.0830  219.4780 C   0  0  0  0  0  0  0  0  0  0  0  0
  142.2180   77.4030  219.9610 C   0  0  0  0  0  0  0  0  0  0  0  0
  141.1250   77.7810  220.9680 C   0  0  2  0  0  0  0  0  0  0  0  0
  141.5820   78.8170  221.9030 C   0  0  0  0  0  0  0  0  0  0  0  0
  141.4790   78.5700  223.2620 C   0  0  0  0  0  0  0  0  0  0  0  0
  141.8780   79.4750  224.2210 C   0  0  0  0  0  0  0  0  0  0  0  0
  142.4040   80.6760  223.7980 C   0  0  0  0  0  0  0  0  0  0  0  0
  142.4980   80.8990  222.4500 C   0  0  0  0  0  0  0  0  0  0  0  0
  142.0990   79.9960  221.5170 N   0  0  0  0  0  0  0  0  0  0  0  0
  140.7470   76.4760  221.6280 C   0  0  0  0  0  0  0  0  0  0  0  0
  139.8060   70.6480  223.7440 C   0  0  0  0  0  0  0  0  0  0  0  0
  139.2050   69.4060  223.7010 C   0  0  0  0  0  0  0  0  0  0  0  0
  139.2140   68.6430  224.8680 C   0  0  0  0  0  0  0  0  0  0  0  0
  139.8030   69.1120  226.0250 C   0  0  0  0  0  0  0  0  0  0  0  0
  139.8080   68.3630  227.1580 C   0  0  0  0  0  0  0  0  0  0  0  0
  140.4060   68.8660  228.2940 C   0  0  0  0  0  0  0  0  0  0  0  0
  140.3990   68.0990  229.4190 F   0  0  0  0  0  0  0  0  0  0  0  0
  141.0020   70.1270  228.2920 C   0  0  0  0  0  0  0  0  0  0  0  0
  141.0030   70.8960  227.1480 C   0  0  0  0  0  0  0  0  0  0  0  0
  140.3990   70.3740  226.0220 C   0  0  0  0  0  0  0  0  0  0  0  0
  140.3780   71.0890  224.8860 N   0  0  0  0  0  0  0  0  0  0  0  0
  139.5320   73.3690  223.4700 H   0  0  0  0  0  0  0  0  0  0  0  0
  139.2537   72.9239  220.5244 H   0  0  0  0  0  0  0  0  0  0  0  0
  139.0020   74.4711  221.4520 H   0  0  0  0  0  0  0  0  0  0  0  0
  142.5217   75.4782  219.0590 H   0  0  0  0  0  0  0  0  0  0  0  0
  140.9572   76.1950  218.6781 H   0  0  0  0  0  0  0  0  0  0  0  0
  143.1998   77.3027  220.4468 H   0  0  0  0  0  0  0  0  0  0  0  0
  142.3854   78.1463  219.1676 H   0  0  0  0  0  0  0  0  0  0  0  0
  140.2455   78.2413  220.4940 H   0  0  0  0  0  0  0  0  0  0  0  0
  141.0596   77.6076  223.5904 H   0  0  0  0  0  0  0  0  0  0  0  0
  141.7796   79.2456  225.2923 H   0  0  0  0  0  0  0  0  0  0  0  0
  142.7387   81.4337  224.5218 H   0  0  0  0  0  0  0  0  0  0  0  0
  142.9171   81.8561  222.1061 H   0  0  0  0  0  0  0  0  0  0  0  0
  141.2864   76.3502  222.5784 H   0  0  0  0  0  0  0  0  0  0  0  0
  139.6755   76.4251  221.8716 H   0  0  0  0  0  0  0  0  0  0  0  0
  138.7358   69.0317  222.7792 H   0  0  0  0  0  0  0  0  0  0  0  0
  138.7430   67.6489  224.8667 H   0  0  0  0  0  0  0  0  0  0  0  0
  139.3407   67.3673  227.1692 H   0  0  0  0  0  0  0  0  0  0  0  0
  141.4740   70.5101  229.2088 H   0  0  0  0  0  0  0  0  0  0  0  0
  141.4694   71.8921  227.1329 H   0  0  0  0  0  0  0  0  0  0  0  0
  1  2  2  0
  2  3  1  0
  3  4  1  0
  4  5  1  0
  5  6  2  0
  5  7  1  0
  7  8  1  0
  8  9  1  0
  9 10  1  0
 10 11  1  0
 11 12  2  0
 12 13  1  0
 13 14  2  0
 14 15  1  0
 15 16  2  0
 10 17  1  0
  2 18  1  0
 18 19  2  0
 19 20  1  0
 20 21  2  0
 21 22  1  0
 22 23  2  0
 23 24  1  0
 23 25  1  0
 25 26  2  0
 26 27  1  0
 27 28  2  0
 17  7  1  0
 28 18  1  0
 16 11  1  0
 27 21  1  0
  3 29  1  0
  4 30  1  0
  4 31  1  0
  8 32  1  0
  8 33  1  0
  9 34  1  0
  9 35  1  0
 10 36  1  6
 12 37  1  0
 13 38  1  0
 14 39  1  0
 15 40  1  0
 17 41  1  0
 17 42  1  0
 19 43  1  0
 20 44  1  0
 22 45  1  0
 25 46  1  0
 26 47  1  0
M  END
>  <smiles>  (33) 
O=C(NCC(=O)N1CC[C@H](c2ccccn2)C1)c1ccc2cc(F)ccc2n1

>  <score_type>  (33) 
oracle

>  <origin>  (33) 
autodockgpu

>  <m_score__min__energy>  (33) 
-8.8000000000000007

>  <m_primary>  (33) 
energy

>  <rmsd>  (33) 
2.2067997252164586

>  <m_score__min__rmsd>  (33) 
2.2067997252164586

>  <meeko>  (33) 
{"free_energy": -8.52, "intermolecular_energy": -10.02, "internal_energy": -1.03, "cluster_size": 41, "cluster_id": 1, "rank_in_cluster": 13}

>  <energy>  (33) 
-8.27

>  <cluster_rmsd>  (33) 
1.41

>  <cluster>  (33) 
1

$$$$

     RDKit          3D

 47 50  0  0  0  0  0  0  0  0999 V2000
  139.9250   73.6610  222.5190 O   0  0  0  0  0  0  0  0  0  0  0  0
  140.3390   72.4720  222.4920 C   0  0  0  0  0  0  0  0  0  0  0  0
  140.9470   72.0420  221.2770 N   0  0  0  0  0  0  0  0  0  0  0  0
  141.0410   72.9720  220.1910 C   0  0  0  0  0  0  0  0  0  0  0  0
  142.1690   73.9230  220.3440 C   0  0  0  0  0  0  0  0  0  0  0  0
  143.3200   73.4660  220.5660 O   0  0  0  0  0  0  0  0  0  0  0  0
  141.8840   75.3110  220.2290 N   0  0  0  0  0  0  0  0  0  0  0  0
  142.0140   76.1660  219.0600 C   0  0  0  0  0  0  0  0  0  0  0  0
  142.2140   77.5420  219.6150 C   0  0  0  0  0  0  0  0  0  0  0  0
  141.2580   77.5050  220.8140 C   0  0  2  0  0  0  0  0  0  0  0  0
  141.5640   78.5610  221.7860 C   0  0  0  0  0  0  0  0  0  0  0  0
  141.4200   78.2770  223.1340 C   0  0  0  0  0  0  0  0  0  0  0  0
  141.6820   79.1970  224.1260 C   0  0  0  0  0  0  0  0  0  0  0  0
  142.1050   80.4530  223.7490 C   0  0  0  0  0  0  0  0  0  0  0  0
  142.2400   80.7110  222.4110 C   0  0  0  0  0  0  0  0  0  0  0  0
  141.9790   79.7930  221.4450 N   0  0  0  0  0  0  0  0  0  0  0  0
  141.3870   76.1030  221.3610 C   0  0  0  0  0  0  0  0  0  0  0  0
  140.2120   71.5700  223.6390 C   0  0  0  0  0  0  0  0  0  0  0  0
  139.5860   70.3580  223.4270 C   0  0  0  0  0  0  0  0  0  0  0  0
  139.4620   69.4960  224.5170 C   0  0  0  0  0  0  0  0  0  0  0  0
  139.9480   69.8420  225.7620 C   0  0  0  0  0  0  0  0  0  0  0  0
  139.8250   68.9970  226.8170 C   0  0  0  0  0  0  0  0  0  0  0  0
  140.3220   69.3780  228.0460 C   0  0  0  0  0  0  0  0  0  0  0  0
  140.1870   68.5170  229.0910 F   0  0  0  0  0  0  0  0  0  0  0  0
  140.9470   70.6140  228.2130 C   0  0  0  0  0  0  0  0  0  0  0  0
  141.0780   71.4800  227.1480 C   0  0  0  0  0  0  0  0  0  0  0  0
  140.5730   71.0790  225.9280 C   0  0  0  0  0  0  0  0  0  0  0  0
  140.6810   71.8900  224.8640 N   0  0  0  0  0  0  0  0  0  0  0  0
  141.3180   71.0620  221.1740 H   0  0  0  0  0  0  0  0  0  0  0  0
  141.1809   72.4083  219.2568 H   0  0  0  0  0  0  0  0  0  0  0  0
  140.1116   73.5603  220.1776 H   0  0  0  0  0  0  0  0  0  0  0  0
  142.8796   75.8633  218.4525 H   0  0  0  0  0  0  0  0  0  0  0  0
  141.1348   76.1068  218.4016 H   0  0  0  0  0  0  0  0  0  0  0  0
  143.2550   77.7045  219.9312 H   0  0  0  0  0  0  0  0  0  0  0  0
  142.0202   78.3557  218.9007 H   0  0  0  0  0  0  0  0  0  0  0  0
  140.2142   77.7150  220.5376 H   0  0  0  0  0  0  0  0  0  0  0  0
  141.0813   77.2720  223.4258 H   0  0  0  0  0  0  0  0  0  0  0  0
  141.5572   78.9364  225.1874 H   0  0  0  0  0  0  0  0  0  0  0  0
  142.3275   81.2251  224.5002 H   0  0  0  0  0  0  0  0  0  0  0  0
  142.5767   81.7120  222.1033 H   0  0  0  0  0  0  0  0  0  0  0  0
  142.1008   76.0762  222.1975 H   0  0  0  0  0  0  0  0  0  0  0  0
  140.4346   75.7183  221.7545 H   0  0  0  0  0  0  0  0  0  0  0  0
  139.1991   70.0820  222.4350 H   0  0  0  0  0  0  0  0  0  0  0  0
  138.9678   68.5226  224.3819 H   0  0  0  0  0  0  0  0  0  0  0  0
  139.3348   68.0200  226.6934 H   0  0  0  0  0  0  0  0  0  0  0  0
  141.3379   70.8996  229.2007 H   0  0  0  0  0  0  0  0  0  0  0  0
  141.5685   72.4574  227.2669 H   0  0  0  0  0  0  0  0  0  0  0  0
  1  2  2  0
  2  3  1  0
  3  4  1  0
  4  5  1  0
  5  6  2  0
  5  7  1  0
  7  8  1  0
  8  9  1  0
  9 10  1  0
 10 11  1  0
 11 12  2  0
 12 13  1  0
 13 14  2  0
 14 15  1  0
 15 16  2  0
 10 17  1  0
  2 18  1  0
 18 19  2  0
 19 20  1  0
 20 21  2  0
 21 22  1  0
 22 23  2  0
 23 24  1  0
 23 25  1  0
 25 26  2  0
 26 27  1  0
 27 28  2  0
 17  7  1  0
 28 18  1  0
 16 11  1  0
 27 21  1  0
  3 29  1  0
  4 30  1  0
  4 31  1  0
  8 32  1  0
  8 33  1  0
  9 34  1  0
  9 35  1  0
 10 36  1  6
 12 37  1  0
 13 38  1  0
 14 39  1  0
 15 40  1  0
 17 41  1  0
 17 42  1  0
 19 43  1  0
 20 44  1  0
 22 45  1  0
 25 46  1  0
 26 47  1  0
M  END
>  <smiles>  (34) 
O=C(NCC(=O)N1CC[C@H](c2ccccn2)C1)c1ccc2cc(F)ccc2n1

>  <score_type>  (34) 
oracle

>  <origin>  (34) 
autodockgpu

>  <m_score__min__energy>  (34) 
-8.8000000000000007

>  <m_primary>  (34) 
energy

>  <rmsd>  (34) 
2.5807454508264653

>  <m_score__min__rmsd>  (34) 
2.5807454508264653

>  <meeko>  (34) 
{"free_energy": -8.65, "intermolecular_energy": -10.14, "internal_energy": -1.09, "cluster_size": 41, "cluster_id": 1, "rank_in_cluster": 5}

>  <energy>  (34) 
-8.26

>  <cluster_rmsd>  (34) 
1.0

>  <cluster>  (34) 
1

$$$$

     RDKit          3D

 47 50  0  0  0  0  0  0  0  0999 V2000
  140.9770   71.5980  221.4960 O   0  0  0  0  0  0  0  0  0  0  0  0
  140.2540   71.9660  222.4600 C   0  0  0  0  0  0  0  0  0  0  0  0
  139.5930   73.2200  222.3110 N   0  0  0  0  0  0  0  0  0  0  0  0
  139.7930   73.9610  221.1000 C   0  0  0  0  0  0  0  0  0  0  0  0
  141.0930   74.6740  221.0690 C   0  0  0  0  0  0  0  0  0  0  0  0
  142.1520   74.0040  221.1700 O   0  0  0  0  0  0  0  0  0  0  0  0
  141.0680   76.0870  220.9250 N   0  0  0  0  0  0  0  0  0  0  0  0
  141.2430   76.8760  219.7160 C   0  0  0  0  0  0  0  0  0  0  0  0
  141.7550   78.1990  220.1950 C   0  0  0  0  0  0  0  0  0  0  0  0
  140.9320   78.3730  221.4770 C   0  0  2  0  0  0  0  0  0  0  0  0
  141.5290   79.3710  222.3740 C   0  0  0  0  0  0  0  0  0  0  0  0
  140.6910   80.2830  222.9940 C   0  0  0  0  0  0  0  0  0  0  0  0
  141.1500   81.2580  223.8530 C   0  0  0  0  0  0  0  0  0  0  0  0
  142.5040   81.3200  224.0980 C   0  0  0  0  0  0  0  0  0  0  0  0
  143.3140   80.4090  223.4730 C   0  0  0  0  0  0  0  0  0  0  0  0
  142.8460   79.4530  222.6300 N   0  0  0  0  0  0  0  0  0  0  0  0
  140.8450   76.9850  222.0660 C   0  0  0  0  0  0  0  0  0  0  0  0
  140.0920   71.1610  223.6720 C   0  0  0  0  0  0  0  0  0  0  0  0
  139.3960   69.9740  223.5580 C   0  0  0  0  0  0  0  0  0  0  0  0
  139.2400   69.2030  224.7090 C   0  0  0  0  0  0  0  0  0  0  0  0
  139.7630   69.6110  225.9200 C   0  0  0  0  0  0  0  0  0  0  0  0
  139.6070   68.8550  227.0370 C   0  0  0  0  0  0  0  0  0  0  0  0
  140.1440   69.2960  228.2280 C   0  0  0  0  0  0  0  0  0  0  0  0
  139.9760   68.5230  229.3350 F   0  0  0  0  0  0  0  0  0  0  0  0
  140.8400   70.5030  228.2960 C   0  0  0  0  0  0  0  0  0  0  0  0
  141.0040   71.2790  227.1690 C   0  0  0  0  0  0  0  0  0  0  0  0
  140.4600   70.8190  225.9870 C   0  0  0  0  0  0  0  0  0  0  0  0
  140.5970   71.5430  224.8650 N   0  0  0  0  0  0  0  0  0  0  0  0
  138.9710   73.5980  223.0720 H   0  0  0  0  0  0  0  0  0  0  0  0
  139.7550   73.2629  220.2508 H   0  0  0  0  0  0  0  0  0  0  0  0
  138.9985   74.7195  221.0415 H   0  0  0  0  0  0  0  0  0  0  0  0
  141.9712   76.3988  219.0436 H   0  0  0  0  0  0  0  0  0  0  0  0
  140.3082   76.9741  219.1447 H   0  0  0  0  0  0  0  0  0  0  0  0
  142.8338   78.1637  220.4072 H   0  0  0  0  0  0  0  0  0  0  0  0
  141.6507   79.0195  219.4698 H   0  0  0  0  0  0  0  0  0  0  0  0
  139.9251   78.7743  221.2898 H   0  0  0  0  0  0  0  0  0  0  0  0
  139.6112   80.2265  222.7918 H   0  0  0  0  0  0  0  0  0  0  0  0
  140.4555   81.9659  224.3290 H   0  0  0  0  0  0  0  0  0  0  0  0
  142.9226   82.0787  224.7756 H   0  0  0  0  0  0  0  0  0  0  0  0
  144.3965   80.4542  223.6634 H   0  0  0  0  0  0  0  0  0  0  0  0
  141.6197   76.8388  222.8331 H   0  0  0  0  0  0  0  0  0  0  0  0
  139.8804   76.8004  222.5615 H   0  0  0  0  0  0  0  0  0  0  0  0
  138.9794   69.6483  222.5934 H   0  0  0  0  0  0  0  0  0  0  0  0
  138.6901   68.2521  224.6514 H   0  0  0  0  0  0  0  0  0  0  0  0
  139.0589   67.9023  226.9924 H   0  0  0  0  0  0  0  0  0  0  0  0
  141.2608   70.8376  229.2557 H   0  0  0  0  0  0  0  0  0  0  0  0
  141.5501   72.2330  227.2102 H   0  0  0  0  0  0  0  0  0  0  0  0
  1  2  2  0
  2  3  1  0
  3  4  1  0
  4  5  1  0
  5  6  2  0
  5  7  1  0
  7  8  1  0
  8  9  1  0
  9 10  1  0
 10 11  1  0
 11 12  2  0
 12 13  1  0
 13 14  2  0
 14 15  1  0
 15 16  2  0
 10 17  1  0
  2 18  1  0
 18 19  2  0
 19 20  1  0
 20 21  2  0
 21 22  1  0
 22 23  2  0
 23 24  1  0
 23 25  1  0
 25 26  2  0
 26 27  1  0
 27 28  2  0
 17  7  1  0
 28 18  1  0
 16 11  1  0
 27 21  1  0
  3 29  1  0
  4 30  1  0
  4 31  1  0
  8 32  1  0
  8 33  1  0
  9 34  1  0
  9 35  1  0
 10 36  1  6
 12 37  1  0
 13 38  1  0
 14 39  1  0
 15 40  1  0
 17 41  1  0
 17 42  1  0
 19 43  1  0
 20 44  1  0
 22 45  1  0
 25 46  1  0
 26 47  1  0
M  END
>  <smiles>  (35) 
O=C(NCC(=O)N1CC[C@H](c2ccccn2)C1)c1ccc2cc(F)ccc2n1

>  <score_type>  (35) 
oracle

>  <origin>  (35) 
autodockgpu

>  <m_score__min__energy>  (35) 
-8.8000000000000007

>  <m_primary>  (35) 
energy

>  <rmsd>  (35) 
2.48990268520483

>  <m_score__min__rmsd>  (35) 
2.48990268520483

>  <meeko>  (35) 
{"free_energy": -8.77, "intermolecular_energy": -10.26, "internal_energy": -0.89, "cluster_size": 41, "cluster_id": 1, "rank_in_cluster": 2}

>  <energy>  (35) 
-8.24

>  <cluster_rmsd>  (35) 
1.43

>  <cluster>  (35) 
1

$$$$

     RDKit          3D

 47 50  0  0  0  0  0  0  0  0999 V2000
  140.7260   72.9950  222.4620 O   0  0  0  0  0  0  0  0  0  0  0  0
  139.7600   72.2530  222.7860 C   0  0  0  0  0  0  0  0  0  0  0  0
  138.5670   72.3980  222.0200 N   0  0  0  0  0  0  0  0  0  0  0  0
  138.5480   73.3590  220.9560 C   0  0  0  0  0  0  0  0  0  0  0  0
  138.3250   74.7440  221.4360 C   0  0  0  0  0  0  0  0  0  0  0  0
  137.2830   74.9970  222.0930 O   0  0  0  0  0  0  0  0  0  0  0  0
  139.3130   75.7180  221.1240 N   0  0  0  0  0  0  0  0  0  0  0  0
  140.4220   75.6130  220.1900 C   0  0  0  0  0  0  0  0  0  0  0  0
  141.4460   76.5760  220.7040 C   0  0  0  0  0  0  0  0  0  0  0  0
  140.5440   77.7260  221.1700 C   0  0  2  0  0  0  0  0  0  0  0  0
  141.2420   78.6180  222.1040 C   0  0  0  0  0  0  0  0  0  0  0  0
  141.8900   79.7300  221.5910 C   0  0  0  0  0  0  0  0  0  0  0  0
  142.5730   80.6290  222.3810 C   0  0  0  0  0  0  0  0  0  0  0  0
  142.6060   80.4030  223.7400 C   0  0  0  0  0  0  0  0  0  0  0  0
  141.9580   79.2980  224.2240 C   0  0  0  0  0  0  0  0  0  0  0  0
  141.2890   78.4210  223.4330 N   0  0  0  0  0  0  0  0  0  0  0  0
  139.3300   77.0440  221.7560 C   0  0  0  0  0  0  0  0  0  0  0  0
  139.8460   71.2900  223.8850 C   0  0  0  0  0  0  0  0  0  0  0  0
  139.3650   70.0170  223.6540 C   0  0  0  0  0  0  0  0  0  0  0  0
  139.4440   69.0960  224.6980 C   0  0  0  0  0  0  0  0  0  0  0  0
  139.9850   69.4450  225.9200 C   0  0  0  0  0  0  0  0  0  0  0  0
  140.0600   68.5430  226.9320 C   0  0  0  0  0  0  0  0  0  0  0  0
  140.6060   68.9290  228.1380 C   0  0  0  0  0  0  0  0  0  0  0  0
  140.6700   68.0090  229.1390 F   0  0  0  0  0  0  0  0  0  0  0  0
  141.0800   70.2270  228.3270 C   0  0  0  0  0  0  0  0  0  0  0  0
  141.0090   71.1510  227.3060 C   0  0  0  0  0  0  0  0  0  0  0  0
  140.4590   70.7450  226.1080 C   0  0  0  0  0  0  0  0  0  0  0  0
  140.3710   71.6120  225.0870 N   0  0  0  0  0  0  0  0  0  0  0  0
  137.7160   71.8150  222.2280 H   0  0  0  0  0  0  0  0  0  0  0  0
  139.5136   73.3205  220.4304 H   0  0  0  0  0  0  0  0  0  0  0  0
  137.7107   73.1003  220.2912 H   0  0  0  0  0  0  0  0  0  0  0  0
  140.8239   74.5891  220.1789 H   0  0  0  0  0  0  0  0  0  0  0  0
  140.1187   75.8407  219.1574 H   0  0  0  0  0  0  0  0  0  0  0  0
  142.0219   76.1487  221.5381 H   0  0  0  0  0  0  0  0  0  0  0  0
  142.2117   76.8646  219.9689 H   0  0  0  0  0  0  0  0  0  0  0  0
  140.2490   78.3998  220.3521 H   0  0  0  0  0  0  0  0  0  0  0  0
  141.8578   79.9028  220.5051 H   0  0  0  0  0  0  0  0  0  0  0  0
  143.0771   81.5015  221.9398 H   0  0  0  0  0  0  0  0  0  0  0  0
  143.1370   81.0896  224.4157 H   0  0  0  0  0  0  0  0  0  0  0  0
  141.9807   79.1118  225.3079 H   0  0  0  0  0  0  0  0  0  0  0  0
  139.4243   76.9531  222.8482 H   0  0  0  0  0  0  0  0  0  0  0  0
  138.4035   77.6075  221.5715 H   0  0  0  0  0  0  0  0  0  0  0  0
  138.9346   69.7389  222.6807 H   0  0  0  0  0  0  0  0  0  0  0  0
  139.0688   68.0733  224.5456 H   0  0  0  0  0  0  0  0  0  0  0  0
  139.6897   67.5168  226.7916 H   0  0  0  0  0  0  0  0  0  0  0  0
  141.5130   70.5153  229.2962 H   0  0  0  0  0  0  0  0  0  0  0  0
  141.3788   72.1780  227.4424 H   0  0  0  0  0  0  0  0  0  0  0  0
  1  2  2  0
  2  3  1  0
  3  4  1  0
  4  5  1  0
  5  6  2  0
  5  7  1  0
  7  8  1  0
  8  9  1  0
  9 10  1  0
 10 11  1  0
 11 12  2  0
 12 13  1  0
 13 14  2  0
 14 15  1  0
 15 16  2  0
 10 17  1  0
  2 18  1  0
 18 19  2  0
 19 20  1  0
 20 21  2  0
 21 22  1  0
 22 23  2  0
 23 24  1  0
 23 25  1  0
 25 26  2  0
 26 27  1  0
 27 28  2  0
 17  7  1  0
 28 18  1  0
 16 11  1  0
 27 21  1  0
  3 29  1  0
  4 30  1  0
  4 31  1  0
  8 32  1  0
  8 33  1  0
  9 34  1  0
  9 35  1  0
 10 36  1  6
 12 37  1  0
 13 38  1  0
 14 39  1  0
 15 40  1  0
 17 41  1  0
 17 42  1  0
 19 43  1  0
 20 44  1  0
 22 45  1  0
 25 46  1  0
 26 47  1  0
M  END
>  <smiles>  (36) 
O=C(NCC(=O)N1CC[C@H](c2ccccn2)C1)c1ccc2cc(F)ccc2n1

>  <score_type>  (36) 
oracle

>  <origin>  (36) 
autodockgpu

>  <m_score__min__energy>  (36) 
-8.8000000000000007

>  <m_primary>  (36) 
energy

>  <rmsd>  (36) 
2.3554275741248163

>  <m_score__min__rmsd>  (36) 
2.3554275741248163

>  <meeko>  (36) 
{"free_energy": -8.31, "intermolecular_energy": -9.8, "internal_energy": -1.06, "cluster_size": 41, "cluster_id": 1, "rank_in_cluster": 30}

>  <energy>  (36) 
-8.23

>  <cluster_rmsd>  (36) 
0.77

>  <cluster>  (36) 
1

$$$$

     RDKit          3D

 47 50  0  0  0  0  0  0  0  0999 V2000
  140.2290   75.1350  220.0580 O   0  0  0  0  0  0  0  0  0  0  0  0
  139.8570   75.3340  221.2450 C   0  0  0  0  0  0  0  0  0  0  0  0
  139.2460   74.2310  221.9090 N   0  0  0  0  0  0  0  0  0  0  0  0
  139.1010   72.9960  221.1960 C   0  0  0  0  0  0  0  0  0  0  0  0
  138.0270   72.1350  221.7500 C   0  0  0  0  0  0  0  0  0  0  0  0
  136.8670   72.2330  221.2740 O   0  0  0  0  0  0  0  0  0  0  0  0
  138.3740   71.2380  222.7960 N   0  0  0  0  0  0  0  0  0  0  0  0
  137.6580   70.0550  223.2470 C   0  0  0  0  0  0  0  0  0  0  0  0
  138.0620   69.8880  224.6790 C   0  0  0  0  0  0  0  0  0  0  0  0
  139.5430   70.2790  224.6030 C   0  0  2  0  0  0  0  0  0  0  0  0
  140.0840   70.6180  225.9240 C   0  0  0  0  0  0  0  0  0  0  0  0
  140.7530   71.8220  226.0720 C   0  0  0  0  0  0  0  0  0  0  0  0
  141.2980   72.2340  227.2690 C   0  0  0  0  0  0  0  0  0  0  0  0
  141.1640   71.4050  228.3610 C   0  0  0  0  0  0  0  0  0  0  0  0
  140.4990   70.2200  228.1920 C   0  0  0  0  0  0  0  0  0  0  0  0
  139.9680   69.8280  227.0060 N   0  0  0  0  0  0  0  0  0  0  0  0
  139.5870   71.4130  223.6060 C   0  0  0  0  0  0  0  0  0  0  0  0
  140.0350   76.6230  221.9170 C   0  0  0  0  0  0  0  0  0  0  0  0
  138.9260   77.1870  222.5130 C   0  0  0  0  0  0  0  0  0  0  0  0
  139.0910   78.4140  223.1550 C   0  0  0  0  0  0  0  0  0  0  0  0
  140.3200   79.0420  223.1930 C   0  0  0  0  0  0  0  0  0  0  0  0
  140.4730   80.2360  223.8210 C   0  0  0  0  0  0  0  0  0  0  0  0
  141.7170   80.8320  223.8380 C   0  0  0  0  0  0  0  0  0  0  0  0
  141.8480   82.0300  224.4710 F   0  0  0  0  0  0  0  0  0  0  0  0
  142.8110   80.2240  223.2220 C   0  0  0  0  0  0  0  0  0  0  0  0
  142.6660   79.0120  222.5820 C   0  0  0  0  0  0  0  0  0  0  0  0
  141.4140   78.4330  222.5760 C   0  0  0  0  0  0  0  0  0  0  0  0
  141.2290   77.2520  221.9660 N   0  0  0  0  0  0  0  0  0  0  0  0
  138.9070   74.3170  222.9020 H   0  0  0  0  0  0  0  0  0  0  0  0
  138.8637   73.2221  220.1460 H   0  0  0  0  0  0  0  0  0  0  0  0
  140.0487   72.4456  221.2907 H   0  0  0  0  0  0  0  0  0  0  0  0
  136.5713   70.2049  223.1656 H   0  0  0  0  0  0  0  0  0  0  0  0
  137.8969   69.1683  222.6414 H   0  0  0  0  0  0  0  0  0  0  0  0
  137.4981   70.5620  225.3406 H   0  0  0  0  0  0  0  0  0  0  0  0
  137.8745   68.8862  225.0928 H   0  0  0  0  0  0  0  0  0  0  0  0
  140.1890   69.4521  224.2731 H   0  0  0  0  0  0  0  0  0  0  0  0
  140.8537   72.4785  225.1951 H   0  0  0  0  0  0  0  0  0  0  0  0
  141.8245   73.1964  227.3500 H   0  0  0  0  0  0  0  0  0  0  0  0
  141.5790   71.6867  229.3400 H   0  0  0  0  0  0  0  0  0  0  0  0
  140.3898   69.5531  229.0599 H   0  0  0  0  0  0  0  0  0  0  0  0
  139.5735   72.3846  224.1215 H   0  0  0  0  0  0  0  0  0  0  0  0
  140.5026   71.3988  222.9965 H   0  0  0  0  0  0  0  0  0  0  0  0
  137.9467   76.6869  222.4829 H   0  0  0  0  0  0  0  0  0  0  0  0
  138.2261   78.8902  223.6400 H   0  0  0  0  0  0  0  0  0  0  0  0
  139.6159   80.7219  224.3100 H   0  0  0  0  0  0  0  0  0  0  0  0
  143.7951   80.7147  223.2472 H   0  0  0  0  0  0  0  0  0  0  0  0
  143.5206   78.5225  222.0921 H   0  0  0  0  0  0  0  0  0  0  0  0
  1  2  2  0
  2  3  1  0
  3  4  1  0
  4  5  1  0
  5  6  2  0
  5  7  1  0
  7  8  1  0
  8  9  1  0
  9 10  1  0
 10 11  1  0
 11 12  2  0
 12 13  1  0
 13 14  2  0
 14 15  1  0
 15 16  2  0
 10 17  1  0
  2 18  1  0
 18 19  2  0
 19 20  1  0
 20 21  2  0
 21 22  1  0
 22 23  2  0
 23 24  1  0
 23 25  1  0
 25 26  2  0
 26 27  1  0
 27 28  2  0
 17  7  1  0
 28 18  1  0
 16 11  1  0
 27 21  1  0
  3 29  1  0
  4 30  1  0
  4 31  1  0
  8 32  1  0
  8 33  1  0
  9 34  1  0
  9 35  1  0
 10 36  1  6
 12 37  1  0
 13 38  1  0
 14 39  1  0
 15 40  1  0
 17 41  1  0
 17 42  1  0
 19 43  1  0
 20 44  1  0
 22 45  1  0
 25 46  1  0
 26 47  1  0
M  END
>  <smiles>  (37) 
O=C(NCC(=O)N1CC[C@H](c2ccccn2)C1)c1ccc2cc(F)ccc2n1

>  <score_type>  (37) 
oracle

>  <origin>  (37) 
autodockgpu

>  <m_score__min__energy>  (37) 
-8.8000000000000007

>  <m_primary>  (37) 
energy

>  <rmsd>  (37) 
8.506986652006026

>  <m_score__min__rmsd>  (37) 
8.506986652006026

>  <meeko>  (37) 
{"free_energy": -8.14, "intermolecular_energy": -9.63, "internal_energy": -0.96, "cluster_size": 4, "cluster_id": 2, "rank_in_cluster": 3}

>  <energy>  (37) 
-8.2

>  <cluster_rmsd>  (37) 
1.44

>  <cluster>  (37) 
1

$$$$

     RDKit          3D

 47 50  0  0  0  0  0  0  0  0999 V2000
  139.9400   73.6460  222.4400 O   0  0  0  0  0  0  0  0  0  0  0  0
  140.3820   72.4660  222.4560 C   0  0  0  0  0  0  0  0  0  0  0  0
  141.0580   72.0290  221.2800 N   0  0  0  0  0  0  0  0  0  0  0  0
  141.1840   72.9420  220.1820 C   0  0  0  0  0  0  0  0  0  0  0  0
  142.2330   73.9680  220.4040 C   0  0  0  0  0  0  0  0  0  0  0  0
  143.4050   73.5900  220.6580 O   0  0  0  0  0  0  0  0  0  0  0  0
  141.8500   75.3340  220.3150 N   0  0  0  0  0  0  0  0  0  0  0  0
  141.7820   76.1790  219.1340 C   0  0  0  0  0  0  0  0  0  0  0  0
  141.9620   77.5720  219.6500 C   0  0  0  0  0  0  0  0  0  0  0  0
  141.1640   77.4940  220.9570 C   0  0  2  0  0  0  0  0  0  0  0  0
  141.5210   78.5810  221.8770 C   0  0  0  0  0  0  0  0  0  0  0  0
  141.4780   78.3330  223.2390 C   0  0  0  0  0  0  0  0  0  0  0  0
  141.7930   79.2840  224.1850 C   0  0  0  0  0  0  0  0  0  0  0  0
  142.1680   80.5340  223.7450 C   0  0  0  0  0  0  0  0  0  0  0  0
  142.2050   80.7580  222.3950 C   0  0  0  0  0  0  0  0  0  0  0  0
  141.8910   79.8100  221.4750 N   0  0  0  0  0  0  0  0  0  0  0  0
  141.4470   76.1110  221.4950 C   0  0  0  0  0  0  0  0  0  0  0  0
  140.2190   71.5830  223.6120 C   0  0  0  0  0  0  0  0  0  0  0  0
  139.5510   70.3920  223.4120 C   0  0  0  0  0  0  0  0  0  0  0  0
  139.3940   69.5460  224.5100 C   0  0  0  0  0  0  0  0  0  0  0  0
  139.8890   69.8890  225.7530 C   0  0  0  0  0  0  0  0  0  0  0  0
  139.7320   69.0600  226.8170 C   0  0  0  0  0  0  0  0  0  0  0  0
  140.2410   69.4370  228.0430 C   0  0  0  0  0  0  0  0  0  0  0  0
  140.0720   68.5920  229.0970 F   0  0  0  0  0  0  0  0  0  0  0  0
  140.9100   70.6510  228.1980 C   0  0  0  0  0  0  0  0  0  0  0  0
  141.0740   71.4990  227.1250 C   0  0  0  0  0  0  0  0  0  0  0  0
  140.5580   71.1040  225.9080 C   0  0  0  0  0  0  0  0  0  0  0  0
  140.6970   71.8990  224.8350 N   0  0  0  0  0  0  0  0  0  0  0  0
  141.4570   71.0570  221.2140 H   0  0  0  0  0  0  0  0  0  0  0  0
  141.4376   72.3704  219.2771 H   0  0  0  0  0  0  0  0  0  0  0  0
  140.2236   73.4679  220.0770 H   0  0  0  0  0  0  0  0  0  0  0  0
  142.5838   75.9212  218.4264 H   0  0  0  0  0  0  0  0  0  0  0  0
  140.8337   76.0569  218.5901 H   0  0  0  0  0  0  0  0  0  0  0  0
  143.0216   77.8024  219.8348 H   0  0  0  0  0  0  0  0  0  0  0  0
  141.6321   78.3619  218.9591 H   0  0  0  0  0  0  0  0  0  0  0  0
  140.0832   77.6352  220.8088 H   0  0  0  0  0  0  0  0  0  0  0  0
  141.1788   77.3313  223.5810 H   0  0  0  0  0  0  0  0  0  0  0  0
  141.7464   79.0518  225.2592 H   0  0  0  0  0  0  0  0  0  0  0  0
  142.4303   81.3296  224.4579 H   0  0  0  0  0  0  0  0  0  0  0  0
  142.5037   81.7547  222.0381 H   0  0  0  0  0  0  0  0  0  0  0  0
  142.2586   76.1407  222.2370 H   0  0  0  0  0  0  0  0  0  0  0  0
  140.5766   75.6744  222.0066 H   0  0  0  0  0  0  0  0  0  0  0  0
  139.1564   70.1195  222.4220 H   0  0  0  0  0  0  0  0  0  0  0  0
  138.8667   68.5889  224.3837 H   0  0  0  0  0  0  0  0  0  0  0  0
  139.2060   68.1006  226.7031 H   0  0  0  0  0  0  0  0  0  0  0  0
  141.3092   70.9330  229.1834 H   0  0  0  0  0  0  0  0  0  0  0  0
  141.5990   72.4594  227.2348 H   0  0  0  0  0  0  0  0  0  0  0  0
  1  2  2  0
  2  3  1  0
  3  4  1  0
  4  5  1  0
  5  6  2  0
  5  7  1  0
  7  8  1  0
  8  9  1  0
  9 10  1  0
 10 11  1  0
 11 12  2  0
 12 13  1  0
 13 14  2  0
 14 15  1  0
 15 16  2  0
 10 17  1  0
  2 18  1  0
 18 19  2  0
 19 20  1  0
 20 21  2  0
 21 22  1  0
 22 23  2  0
 23 24  1  0
 23 25  1  0
 25 26  2  0
 26 27  1  0
 27 28  2  0
 17  7  1  0
 28 18  1  0
 16 11  1  0
 27 21  1  0
  3 29  1  0
  4 30  1  0
  4 31  1  0
  8 32  1  0
  8 33  1  0
  9 34  1  0
  9 35  1  0
 10 36  1  6
 12 37  1  0
 13 38  1  0
 14 39  1  0
 15 40  1  0
 17 41  1  0
 17 42  1  0
 19 43  1  0
 20 44  1  0
 22 45  1  0
 25 46  1  0
 26 47  1  0
M  END
>  <smiles>  (38) 
O=C(NCC(=O)N1CC[C@H](c2ccccn2)C1)c1ccc2cc(F)ccc2n1

>  <score_type>  (38) 
oracle

>  <origin>  (38) 
autodockgpu

>  <m_score__min__energy>  (38) 
-8.8000000000000007

>  <m_primary>  (38) 
energy

>  <rmsd>  (38) 
2.6321890270855355

>  <m_score__min__rmsd>  (38) 
2.6321890270855355

>  <meeko>  (38) 
{"free_energy": -8.58, "intermolecular_energy": -10.07, "internal_energy": -1.09, "cluster_size": 41, "cluster_id": 1, "rank_in_cluster": 11}

>  <energy>  (38) 
-8.1

>  <cluster_rmsd>  (38) 
1.22

>  <cluster>  (38) 
1

$$$$

     RDKit          3D

 47 50  0  0  0  0  0  0  0  0999 V2000
  140.8990   71.9610  221.3010 O   0  0  0  0  0  0  0  0  0  0  0  0
  140.2890   72.3630  222.3280 C   0  0  0  0  0  0  0  0  0  0  0  0
  139.7660   73.6880  222.2740 N   0  0  0  0  0  0  0  0  0  0  0  0
  139.9660   74.4560  221.0800 C   0  0  0  0  0  0  0  0  0  0  0  0
  141.1500   75.3460  221.1590 C   0  0  0  0  0  0  0  0  0  0  0  0
  141.0640   76.4080  221.8270 O   0  0  0  0  0  0  0  0  0  0  0  0
  142.3260   74.9440  220.4700 N   0  0  0  0  0  0  0  0  0  0  0  0
  142.9720   75.5840  219.3360 C   0  0  0  0  0  0  0  0  0  0  0  0
  143.7110   74.4810  218.6440 C   0  0  0  0  0  0  0  0  0  0  0  0
  144.2140   73.6780  219.8510 C   0  0  2  0  0  0  0  0  0  0  0  0
  144.6020   72.3150  219.4710 C   0  0  0  0  0  0  0  0  0  0  0  0
  143.8880   71.2540  220.0050 C   0  0  0  0  0  0  0  0  0  0  0  0
  144.1720   69.9370  219.7140 C   0  0  0  0  0  0  0  0  0  0  0  0
  145.2140   69.6750  218.8510 C   0  0  0  0  0  0  0  0  0  0  0  0
  145.9050   70.7390  218.3350 C   0  0  0  0  0  0  0  0  0  0  0  0
  145.6130   72.0310  218.6320 N   0  0  0  0  0  0  0  0  0  0  0  0
  143.0840   73.7440  220.8500 C   0  0  0  0  0  0  0  0  0  0  0  0
  140.1200   71.5270  223.5180 C   0  0  0  0  0  0  0  0  0  0  0  0
  139.4230   70.3450  223.3690 C   0  0  0  0  0  0  0  0  0  0  0  0
  139.2600   69.5440  224.4990 C   0  0  0  0  0  0  0  0  0  0  0  0
  139.7760   69.9200  225.7230 C   0  0  0  0  0  0  0  0  0  0  0  0
  139.6130   69.1350  226.8190 C   0  0  0  0  0  0  0  0  0  0  0  0
  140.1430   69.5450  228.0240 C   0  0  0  0  0  0  0  0  0  0  0  0
  139.9680   68.7440  229.1100 F   0  0  0  0  0  0  0  0  0  0  0  0
  140.8400   70.7500  228.1280 C   0  0  0  0  0  0  0  0  0  0  0  0
  141.0110   71.5540  227.0220 C   0  0  0  0  0  0  0  0  0  0  0  0
  140.4730   71.1260  225.8260 C   0  0  0  0  0  0  0  0  0  0  0  0
  140.6170   71.8770  224.7230 N   0  0  0  0  0  0  0  0  0  0  0  0
  139.2450   74.0980  223.0910 H   0  0  0  0  0  0  0  0  0  0  0  0
  140.1026   73.7639  220.2360 H   0  0  0  0  0  0  0  0  0  0  0  0
  139.0806   75.0948  220.9456 H   0  0  0  0  0  0  0  0  0  0  0  0
  142.2234   76.0297  218.6645 H   0  0  0  0  0  0  0  0  0  0  0  0
  143.6403   76.4010  219.6457 H   0  0  0  0  0  0  0  0  0  0  0  0
  143.0429   73.8817  218.0079 H   0  0  0  0  0  0  0  0  0  0  0  0
  144.5016   74.8199  217.9583 H   0  0  0  0  0  0  0  0  0  0  0  0
  145.1363   74.0892  220.2871 H   0  0  0  0  0  0  0  0  0  0  0  0
  143.0572   71.4728  220.6920 H   0  0  0  0  0  0  0  0  0  0  0  0
  143.5845   69.1195  220.1574 H   0  0  0  0  0  0  0  0  0  0  0  0
  145.4827   68.6422  218.5845 H   0  0  0  0  0  0  0  0  0  0  0  0
  146.7380   70.5365  217.6457 H   0  0  0  0  0  0  0  0  0  0  0  0
  142.4515   72.8467  220.7813 H   0  0  0  0  0  0  0  0  0  0  0  0
  143.4456   73.7892  221.8879 H   0  0  0  0  0  0  0  0  0  0  0  0
  139.0109   70.0455  222.3941 H   0  0  0  0  0  0  0  0  0  0  0  0
  138.7101   68.5951  224.4134 H   0  0  0  0  0  0  0  0  0  0  0  0
  139.0650   68.1840  226.7464 H   0  0  0  0  0  0  0  0  0  0  0  0
  141.2551   71.0595  229.0985 H   0  0  0  0  0  0  0  0  0  0  0  0
  141.5584   72.5057  227.0905 H   0  0  0  0  0  0  0  0  0  0  0  0
  1  2  2  0
  2  3  1  0
  3  4  1  0
  4  5  1  0
  5  6  2  0
  5  7  1  0
  7  8  1  0
  8  9  1  0
  9 10  1  0
 10 11  1  0
 11 12  2  0
 12 13  1  0
 13 14  2  0
 14 15  1  0
 15 16  2  0
 10 17  1  0
  2 18  1  0
 18 19  2  0
 19 20  1  0
 20 21  2  0
 21 22  1  0
 22 23  2  0
 23 24  1  0
 23 25  1  0
 25 26  2  0
 26 27  1  0
 27 28  2  0
 17  7  1  0
 28 18  1  0
 16 11  1  0
 27 21  1  0
  3 29  1  0
  4 30  1  0
  4 31  1  0
  8 32  1  0
  8 33  1  0
  9 34  1  0
  9 35  1  0
 10 36  1  1
 12 37  1  0
 13 38  1  0
 14 39  1  0
 15 40  1  0
 17 41  1  0
 17 42  1  0
 19 43  1  0
 20 44  1  0
 22 45  1  0
 25 46  1  0
 26 47  1  0
M  END
>  <smiles>  (39) 
O=C(NCC(=O)N1CC[C@H](c2ccccn2)C1)c1ccc2cc(F)ccc2n1

>  <score_type>  (39) 
oracle

>  <origin>  (39) 
autodockgpu

>  <m_score__min__energy>  (39) 
-8.8000000000000007

>  <m_primary>  (39) 
energy

>  <rmsd>  (39) 
2.7490636578744083

>  <m_score__min__rmsd>  (39) 
2.7490636578744083

>  <meeko>  (39) 
{"free_energy": -8.04, "intermolecular_energy": -9.53, "internal_energy": -1.33, "cluster_size": 4, "cluster_id": 4, "rank_in_cluster": 1}

>  <energy>  (39) 
-8.1

>  <cluster_rmsd>  (39) 
1.56

>  <cluster>  (39) 
1

$$$$

     RDKit          3D

 47 50  0  0  0  0  0  0  0  0999 V2000
  140.1330   70.9350  221.3790 O   0  0  0  0  0  0  0  0  0  0  0  0
  139.8830   71.4410  222.5060 C   0  0  0  0  0  0  0  0  0  0  0  0
  139.5980   72.8370  222.5240 N   0  0  0  0  0  0  0  0  0  0  0  0
  139.6160   73.5560  221.2850 C   0  0  0  0  0  0  0  0  0  0  0  0
  140.5600   74.7000  221.2970 C   0  0  0  0  0  0  0  0  0  0  0  0
  141.7620   74.4960  220.9850 O   0  0  0  0  0  0  0  0  0  0  0  0
  140.0490   75.9750  221.6620 N   0  0  0  0  0  0  0  0  0  0  0  0
  138.8510   76.6410  221.1780 C   0  0  0  0  0  0  0  0  0  0  0  0
  139.1250   78.1010  221.3630 C   0  0  0  0  0  0  0  0  0  0  0  0
  139.8710   78.0810  222.7020 C   0  0  2  0  0  0  0  0  0  0  0  0
  140.6320   79.3180  222.9180 C   0  0  0  0  0  0  0  0  0  0  0  0
  141.8360   79.2390  223.5980 C   0  0  0  0  0  0  0  0  0  0  0  0
  142.6260   80.3400  223.8530 C   0  0  0  0  0  0  0  0  0  0  0  0
  142.1880   81.5680  223.4070 C   0  0  0  0  0  0  0  0  0  0  0  0
  140.9950   81.6210  222.7370 C   0  0  0  0  0  0  0  0  0  0  0  0
  140.2280   80.5280  222.4940 N   0  0  0  0  0  0  0  0  0  0  0  0
  140.7210   76.8340  222.6470 C   0  0  0  0  0  0  0  0  0  0  0  0
  139.8810   70.6480  223.7380 C   0  0  0  0  0  0  0  0  0  0  0  0
  139.2890   69.4030  223.6900 C   0  0  0  0  0  0  0  0  0  0  0  0
  139.2850   68.6430  224.8600 C   0  0  0  0  0  0  0  0  0  0  0  0
  139.8530   69.1210  226.0240 C   0  0  0  0  0  0  0  0  0  0  0  0
  139.8470   68.3760  227.1600 C   0  0  0  0  0  0  0  0  0  0  0  0
  140.4240   68.8870  228.3030 C   0  0  0  0  0  0  0  0  0  0  0  0
  140.4050   68.1250  229.4300 F   0  0  0  0  0  0  0  0  0  0  0  0
  141.0120   70.1520  228.3040 C   0  0  0  0  0  0  0  0  0  0  0  0
  141.0250   70.9170  227.1570 C   0  0  0  0  0  0  0  0  0  0  0  0
  140.4410   70.3870  226.0250 C   0  0  0  0  0  0  0  0  0  0  0  0
  140.4330   71.0970  224.8860 N   0  0  0  0  0  0  0  0  0  0  0  0
  139.3810   73.3330  223.4270 H   0  0  0  0  0  0  0  0  0  0  0  0
  139.9118   72.8648  220.4820 H   0  0  0  0  0  0  0  0  0  0  0  0
  138.6065   73.9618  221.1234 H   0  0  0  0  0  0  0  0  0  0  0  0
  138.6813   76.4100  220.1160 H   0  0  0  0  0  0  0  0  0  0  0  0
  137.9485   76.3160  221.7165 H   0  0  0  0  0  0  0  0  0  0  0  0
  139.7540   78.5013  220.5542 H   0  0  0  0  0  0  0  0  0  0  0  0
  138.2296   78.7397  221.3480 H   0  0  0  0  0  0  0  0  0  0  0  0
  139.1951   78.0472  223.5692 H   0  0  0  0  0  0  0  0  0  0  0  0
  142.1771   78.2543  223.9503 H   0  0  0  0  0  0  0  0  0  0  0  0
  143.5774   80.2410  224.3962 H   0  0  0  0  0  0  0  0  0  0  0  0
  142.7791   82.4786  223.5839 H   0  0  0  0  0  0  0  0  0  0  0  0
  140.6405   82.5984  222.3777 H   0  0  0  0  0  0  0  0  0  0  0  0
  141.7435   77.0743  222.3202 H   0  0  0  0  0  0  0  0  0  0  0  0
  140.8166   76.3488  223.6296 H   0  0  0  0  0  0  0  0  0  0  0  0
  138.8362   69.0230  222.7623 H   0  0  0  0  0  0  0  0  0  0  0  0
  138.8212   67.6456  224.8549 H   0  0  0  0  0  0  0  0  0  0  0  0
  139.3871   67.3768  227.1677 H   0  0  0  0  0  0  0  0  0  0  0  0
  141.4683   70.5417  229.2259 H   0  0  0  0  0  0  0  0  0  0  0  0
  141.4854   71.9160  227.1449 H   0  0  0  0  0  0  0  0  0  0  0  0
  1  2  2  0
  2  3  1  0
  3  4  1  0
  4  5  1  0
  5  6  2  0
  5  7  1  0
  7  8  1  0
  8  9  1  0
  9 10  1  0
 10 11  1  0
 11 12  2  0
 12 13  1  0
 13 14  2  0
 14 15  1  0
 15 16  2  0
 10 17  1  0
  2 18  1  0
 18 19  2  0
 19 20  1  0
 20 21  2  0
 21 22  1  0
 22 23  2  0
 23 24  1  0
 23 25  1  0
 25 26  2  0
 26 27  1  0
 27 28  2  0
 17  7  1  0
 28 18  1  0
 16 11  1  0
 27 21  1  0
  3 29  1  0
  4 30  1  0
  4 31  1  0
  8 32  1  0
  8 33  1  0
  9 34  1  0
  9 35  1  0
 10 36  1  1
 12 37  1  0
 13 38  1  0
 14 39  1  0
 15 40  1  0
 17 41  1  0
 17 42  1  0
 19 43  1  0
 20 44  1  0
 22 45  1  0
 25 46  1  0
 26 47  1  0
M  END
>  <smiles>  (40) 
O=C(NCC(=O)N1CC[C@H](c2ccccn2)C1)c1ccc2cc(F)ccc2n1

>  <score_type>  (40) 
oracle

>  <origin>  (40) 
autodockgpu

>  <m_score__min__energy>  (40) 
-8.8000000000000007

>  <m_primary>  (40) 
energy

>  <rmsd>  (40) 
2.8708868573024495

>  <m_score__min__rmsd>  (40) 
2.8708868573024495

>  <meeko>  (40) 
{"free_energy": -8.43, "intermolecular_energy": -9.92, "internal_energy": -1.0, "cluster_size": 41, "cluster_id": 1, "rank_in_cluster": 21}

>  <energy>  (40) 
-7.88

>  <cluster_rmsd>  (40) 
1.62

>  <cluster>  (40) 
1

$$$$

     RDKit          3D

 47 50  0  0  0  0  0  0  0  0999 V2000
  140.7710   73.1850  222.4140 O   0  0  0  0  0  0  0  0  0  0  0  0
  139.8000   72.4540  222.7450 C   0  0  0  0  0  0  0  0  0  0  0  0
  138.5960   72.6280  222.0030 N   0  0  0  0  0  0  0  0  0  0  0  0
  138.5720   73.6040  220.9530 C   0  0  0  0  0  0  0  0  0  0  0  0
  138.4050   74.9890  221.4590 C   0  0  0  0  0  0  0  0  0  0  0  0
  137.4070   75.2550  222.1760 O   0  0  0  0  0  0  0  0  0  0  0  0
  139.3930   75.9460  221.1000 N   0  0  0  0  0  0  0  0  0  0  0  0
  140.4920   75.8020  220.1580 C   0  0  0  0  0  0  0  0  0  0  0  0
  141.5250   76.7800  220.6250 C   0  0  0  0  0  0  0  0  0  0  0  0
  140.6320   77.9490  221.0580 C   0  0  2  0  0  0  0  0  0  0  0  0
  141.3420   78.8730  221.9500 C   0  0  0  0  0  0  0  0  0  0  0  0
  141.4190   78.5600  223.2960 C   0  0  0  0  0  0  0  0  0  0  0  0
  142.0620   79.3590  224.2170 C   0  0  0  0  0  0  0  0  0  0  0  0
  142.6520   80.5200  223.7660 C   0  0  0  0  0  0  0  0  0  0  0  0
  142.5630   80.8100  222.4300 C   0  0  0  0  0  0  0  0  0  0  0  0
  141.9260   80.0120  221.5360 N   0  0  0  0  0  0  0  0  0  0  0  0
  139.4220   77.2950  221.6810 C   0  0  0  0  0  0  0  0  0  0  0  0
  139.8900   71.4740  223.8290 C   0  0  0  0  0  0  0  0  0  0  0  0
  139.4310   70.1980  223.5720 C   0  0  0  0  0  0  0  0  0  0  0  0
  139.5150   69.2610  224.6020 C   0  0  0  0  0  0  0  0  0  0  0  0
  140.0380   69.5980  225.8340 C   0  0  0  0  0  0  0  0  0  0  0  0
  140.1180   68.6800  226.8320 C   0  0  0  0  0  0  0  0  0  0  0  0
  140.6470   69.0540  228.0490 C   0  0  0  0  0  0  0  0  0  0  0  0
  140.7160   68.1190  229.0360 F   0  0  0  0  0  0  0  0  0  0  0  0
  141.0990   70.3570  228.2640 C   0  0  0  0  0  0  0  0  0  0  0  0
  141.0230   71.2960  227.2580 C   0  0  0  0  0  0  0  0  0  0  0  0
  140.4900   70.9010  226.0490 C   0  0  0  0  0  0  0  0  0  0  0  0
  140.3990   71.7840  225.0410 N   0  0  0  0  0  0  0  0  0  0  0  0
  137.7390   72.0550  222.2190 H   0  0  0  0  0  0  0  0  0  0  0  0
  139.5190   73.5449  220.3965 H   0  0  0  0  0  0  0  0  0  0  0  0
  137.7071   73.3792  220.3116 H   0  0  0  0  0  0  0  0  0  0  0  0
  140.8903   74.7769  220.1807 H   0  0  0  0  0  0  0  0  0  0  0  0
  140.1783   75.9921  219.1210 H   0  0  0  0  0  0  0  0  0  0  0  0
  142.1089   76.3817  221.4679 H   0  0  0  0  0  0  0  0  0  0  0  0
  142.2834   77.0387  219.8714 H   0  0  0  0  0  0  0  0  0  0  0  0
  140.3308   78.5927  220.2184 H   0  0  0  0  0  0  0  0  0  0  0  0
  140.9455   77.6312  223.6468 H   0  0  0  0  0  0  0  0  0  0  0  0
  142.1030   79.0784  225.2798 H   0  0  0  0  0  0  0  0  0  0  0  0
  143.1786   81.1936  224.4580 H   0  0  0  0  0  0  0  0  0  0  0  0
  143.0311   81.7356  222.0637 H   0  0  0  0  0  0  0  0  0  0  0  0
  139.5270   77.2451  222.7748 H   0  0  0  0  0  0  0  0  0  0  0  0
  138.4960   77.8552  221.4843 H   0  0  0  0  0  0  0  0  0  0  0  0
  139.0139   69.9295  222.5902 H   0  0  0  0  0  0  0  0  0  0  0  0
  139.1580   68.2350  224.4292 H   0  0  0  0  0  0  0  0  0  0  0  0
  139.7650   67.6507  226.6711 H   0  0  0  0  0  0  0  0  0  0  0  0
  141.5183   70.6360  229.2420 H   0  0  0  0  0  0  0  0  0  0  0  0
  141.3757   72.3261  227.4142 H   0  0  0  0  0  0  0  0  0  0  0  0
  1  2  2  0
  2  3  1  0
  3  4  1  0
  4  5  1  0
  5  6  2  0
  5  7  1  0
  7  8  1  0
  8  9  1  0
  9 10  1  0
 10 11  1  0
 11 12  2  0
 12 13  1  0
 13 14  2  0
 14 15  1  0
 15 16  2  0
 10 17  1  0
  2 18  1  0
 18 19  2  0
 19 20  1  0
 20 21  2  0
 21 22  1  0
 22 23  2  0
 23 24  1  0
 23 25  1  0
 25 26  2  0
 26 27  1  0
 27 28  2  0
 17  7  1  0
 28 18  1  0
 16 11  1  0
 27 21  1  0
  3 29  1  0
  4 30  1  0
  4 31  1  0
  8 32  1  0
  8 33  1  0
  9 34  1  0
  9 35  1  0
 10 36  1  6
 12 37  1  0
 13 38  1  0
 14 39  1  0
 15 40  1  0
 17 41  1  0
 17 42  1  0
 19 43  1  0
 20 44  1  0
 22 45  1  0
 25 46  1  0
 26 47  1  0
M  END
>  <smiles>  (41) 
O=C(NCC(=O)N1CC[C@H](c2ccccn2)C1)c1ccc2cc(F)ccc2n1

>  <score_type>  (41) 
oracle

>  <origin>  (41) 
autodockgpu

>  <m_score__min__energy>  (41) 
-8.8000000000000007

>  <m_primary>  (41) 
energy

>  <rmsd>  (41) 
2.360826153654389

>  <m_score__min__rmsd>  (41) 
2.360826153654389

>  <meeko>  (41) 
{"free_energy": -8.29, "intermolecular_energy": -9.78, "internal_energy": -1.1, "cluster_size": 41, "cluster_id": 1, "rank_in_cluster": 32}

>  <energy>  (41) 
-7.82

>  <cluster_rmsd>  (41) 
1.1

>  <cluster>  (41) 
1

$$$$

     RDKit          3D

 47 50  0  0  0  0  0  0  0  0999 V2000
  140.4610   71.7240  221.0720 O   0  0  0  0  0  0  0  0  0  0  0  0
  140.1540   72.2110  222.1930 C   0  0  0  0  0  0  0  0  0  0  0  0
  139.8400   73.6010  222.2140 N   0  0  0  0  0  0  0  0  0  0  0  0
  139.8960   74.3350  220.9840 C   0  0  0  0  0  0  0  0  0  0  0  0
  140.9920   75.3330  220.9580 C   0  0  0  0  0  0  0  0  0  0  0  0
  140.7460   76.5120  221.3200 O   0  0  0  0  0  0  0  0  0  0  0  0
  142.2730   74.8970  220.5220 N   0  0  0  0  0  0  0  0  0  0  0  0
  143.2290   75.6000  219.6820 C   0  0  0  0  0  0  0  0  0  0  0  0
  144.0380   74.5170  219.0370 C   0  0  0  0  0  0  0  0  0  0  0  0
  144.1600   73.5250  220.1990 C   0  0  2  0  0  0  0  0  0  0  0  0
  144.5340   72.1850  219.7320 C   0  0  0  0  0  0  0  0  0  0  0  0
  143.7250   71.1170  220.0820 C   0  0  0  0  0  0  0  0  0  0  0  0
  143.9860   69.8200  219.6950 C   0  0  0  0  0  0  0  0  0  0  0  0
  145.1040   69.5870  218.9250 C   0  0  0  0  0  0  0  0  0  0  0  0
  145.8900   70.6580  218.5900 C   0  0  0  0  0  0  0  0  0  0  0  0
  145.6180   71.9300  218.9790 N   0  0  0  0  0  0  0  0  0  0  0  0
  142.8220   73.5870  220.8960 C   0  0  0  0  0  0  0  0  0  0  0  0
  140.1160   71.4040  223.4150 C   0  0  0  0  0  0  0  0  0  0  0  0
  139.5690   70.1400  223.3250 C   0  0  0  0  0  0  0  0  0  0  0  0
  139.5320   69.3680  224.4850 C   0  0  0  0  0  0  0  0  0  0  0  0
  140.0230   69.8510  225.6810 C   0  0  0  0  0  0  0  0  0  0  0  0
  139.9840   69.0930  226.8080 C   0  0  0  0  0  0  0  0  0  0  0  0
  140.4850   69.6090  227.9840 C   0  0  0  0  0  0  0  0  0  0  0  0
  140.4350   68.8330  229.1010 F   0  0  0  0  0  0  0  0  0  0  0  0
  141.0290   70.8930  228.0280 C   0  0  0  0  0  0  0  0  0  0  0  0
  141.0740   71.6710  226.8910 C   0  0  0  0  0  0  0  0  0  0  0  0
  140.5670   71.1360  225.7250 C   0  0  0  0  0  0  0  0  0  0  0  0
  140.5930   71.8580  224.5940 N   0  0  0  0  0  0  0  0  0  0  0  0
  139.5740   74.0820  223.1110 H   0  0  0  0  0  0  0  0  0  0  0  0
  140.0481   73.6248  220.1579 H   0  0  0  0  0  0  0  0  0  0  0  0
  138.9476   74.8830  220.8827 H   0  0  0  0  0  0  0  0  0  0  0  0
  142.7087   76.2007  218.9214 H   0  0  0  0  0  0  0  0  0  0  0  0
  143.8536   76.2988  220.2579 H   0  0  0  0  0  0  0  0  0  0  0  0
  143.5114   74.0738  218.1790 H   0  0  0  0  0  0  0  0  0  0  0  0
  144.9988   74.8516  218.6189 H   0  0  0  0  0  0  0  0  0  0  0  0
  144.9692   73.7809  220.8988 H   0  0  0  0  0  0  0  0  0  0  0  0
  142.8339   71.3125  220.6966 H   0  0  0  0  0  0  0  0  0  0  0  0
  143.3212   68.9956  219.9923 H   0  0  0  0  0  0  0  0  0  0  0  0
  145.3583   68.5709  218.5889 H   0  0  0  0  0  0  0  0  0  0  0  0
  146.7849   70.4786  217.9760 H   0  0  0  0  0  0  0  0  0  0  0  0
  142.1647   72.7763  220.5485 H   0  0  0  0  0  0  0  0  0  0  0  0
  142.9120   73.4668  221.9857 H   0  0  0  0  0  0  0  0  0  0  0  0
  139.1763   69.7556  222.3721 H   0  0  0  0  0  0  0  0  0  0  0  0
  139.1037   68.3555  224.4465 H   0  0  0  0  0  0  0  0  0  0  0  0
  139.5576   68.0793  226.7823 H   0  0  0  0  0  0  0  0  0  0  0  0
  141.4244   71.2869  228.9759 H   0  0  0  0  0  0  0  0  0  0  0  0
  141.5001   72.6849  226.9128 H   0  0  0  0  0  0  0  0  0  0  0  0
  1  2  2  0
  2  3  1  0
  3  4  1  0
  4  5  1  0
  5  6  2  0
  5  7  1  0
  7  8  1  0
  8  9  1  0
  9 10  1  0
 10 11  1  0
 11 12  2  0
 12 13  1  0
 13 14  2  0
 14 15  1  0
 15 16  2  0
 10 17  1  0
  2 18  1  0
 18 19  2  0
 19 20  1  0
 20 21  2  0
 21 22  1  0
 22 23  2  0
 23 24  1  0
 23 25  1  0
 25 26  2  0
 26 27  1  0
 27 28  2  0
 17  7  1  0
 28 18  1  0
 16 11  1  0
 27 21  1  0
  3 29  1  0
  4 30  1  0
  4 31  1  0
  8 32  1  0
  8 33  1  0
  9 34  1  0
  9 35  1  0
 10 36  1  1
 12 37  1  0
 13 38  1  0
 14 39  1  0
 15 40  1  0
 17 41  1  0
 17 42  1  0
 19 43  1  0
 20 44  1  0
 22 45  1  0
 25 46  1  0
 26 47  1  0
M  END
>  <smiles>  (42) 
O=C(NCC(=O)N1CC[C@H](c2ccccn2)C1)c1ccc2cc(F)ccc2n1

>  <score_type>  (42) 
oracle

>  <origin>  (42) 
autodockgpu

>  <m_score__min__energy>  (42) 
-8.8000000000000007

>  <m_primary>  (42) 
energy

>  <rmsd>  (42) 
2.7554579399934505

>  <m_score__min__rmsd>  (42) 
2.7554579399934505

>  <meeko>  (42) 
{"free_energy": -7.91, "intermolecular_energy": -9.4, "internal_energy": -1.42, "cluster_size": 4, "cluster_id": 4, "rank_in_cluster": 3}

>  <energy>  (42) 
-8.4

>  <cluster_rmsd>  (42) 
0.0

>  <cluster>  (42) 
2

$$$$

     RDKit          3D

 47 50  0  0  0  0  0  0  0  0999 V2000
  140.8920   72.9910  222.3030 O   0  0  0  0  0  0  0  0  0  0  0  0
  139.8640   72.5130  222.8530 C   0  0  0  0  0  0  0  0  0  0  0  0
  138.6110   73.0080  222.3900 N   0  0  0  0  0  0  0  0  0  0  0  0
  138.6050   73.9960  221.3510 C   0  0  0  0  0  0  0  0  0  0  0  0
  138.4290   75.3740  221.8690 C   0  0  0  0  0  0  0  0  0  0  0  0
  137.4670   75.6110  222.6440 O   0  0  0  0  0  0  0  0  0  0  0  0
  139.3660   76.3600  221.4580 N   0  0  0  0  0  0  0  0  0  0  0  0
  140.5200   76.2020  220.5860 C   0  0  0  0  0  0  0  0  0  0  0  0
  141.4590   77.2940  220.9950 C   0  0  0  0  0  0  0  0  0  0  0  0
  140.4670   78.4330  221.2620 C   0  0  2  0  0  0  0  0  0  0  0  0
  141.0660   79.4920  222.0840 C   0  0  0  0  0  0  0  0  0  0  0  0
  141.9540   79.1270  223.0820 C   0  0  0  0  0  0  0  0  0  0  0  0
  142.5700   80.0420  223.9090 C   0  0  0  0  0  0  0  0  0  0  0  0
  142.2830   81.3770  223.7240 C   0  0  0  0  0  0  0  0  0  0  0  0
  141.4030   81.7150  222.7310 C   0  0  0  0  0  0  0  0  0  0  0  0
  140.8040   80.8010  221.9250 N   0  0  0  0  0  0  0  0  0  0  0  0
  139.2740   77.7590  221.8960 C   0  0  0  0  0  0  0  0  0  0  0  0
  139.9390   71.5030  223.9120 C   0  0  0  0  0  0  0  0  0  0  0  0
  139.4850   70.2350  223.6120 C   0  0  0  0  0  0  0  0  0  0  0  0
  139.5550   69.2690  224.6160 C   0  0  0  0  0  0  0  0  0  0  0  0
  140.0590   69.5720  225.8650 C   0  0  0  0  0  0  0  0  0  0  0  0
  140.1240   68.6270  226.8380 C   0  0  0  0  0  0  0  0  0  0  0  0
  140.6340   68.9670  228.0740 C   0  0  0  0  0  0  0  0  0  0  0  0
  140.6890   68.0060  229.0350 F   0  0  0  0  0  0  0  0  0  0  0  0
  141.0810   70.2640  228.3320 C   0  0  0  0  0  0  0  0  0  0  0  0
  141.0190   71.2310  227.3510 C   0  0  0  0  0  0  0  0  0  0  0  0
  140.5060   70.8690  226.1230 C   0  0  0  0  0  0  0  0  0  0  0  0
  140.4290   71.7800  225.1390 N   0  0  0  0  0  0  0  0  0  0  0  0
  137.7060   72.6590  222.7990 H   0  0  0  0  0  0  0  0  0  0  0  0
  139.5616   73.9433  220.8105 H   0  0  0  0  0  0  0  0  0  0  0  0
  137.7513   73.7785  220.6923 H   0  0  0  0  0  0  0  0  0  0  0  0
  140.9847   75.2158  220.7327 H   0  0  0  0  0  0  0  0  0  0  0  0
  140.2486   76.2639  219.5218 H   0  0  0  0  0  0  0  0  0  0  0  0
  142.0228   77.0263  221.9008 H   0  0  0  0  0  0  0  0  0  0  0  0
  142.2375   77.5294  220.2544 H   0  0  0  0  0  0  0  0  0  0  0  0
  140.1665   78.9643  220.3469 H   0  0  0  0  0  0  0  0  0  0  0  0
  142.1779   78.0590  223.2211 H   0  0  0  0  0  0  0  0  0  0  0  0
  143.2695   79.7162  224.6929 H   0  0  0  0  0  0  0  0  0  0  0  0
  142.7473   82.1486  224.3557 H   0  0  0  0  0  0  0  0  0  0  0  0
  141.1698   82.7792  222.5787 H   0  0  0  0  0  0  0  0  0  0  0  0
  139.3262   77.8273  222.9926 H   0  0  0  0  0  0  0  0  0  0  0  0
  138.3234   78.2278  221.6016 H   0  0  0  0  0  0  0  0  0  0  0  0
  139.0824   69.9945  222.6170 H   0  0  0  0  0  0  0  0  0  0  0  0
  139.2024   68.2479  224.4088 H   0  0  0  0  0  0  0  0  0  0  0  0
  139.7741   67.6025  226.6430 H   0  0  0  0  0  0  0  0  0  0  0  0
  141.4850   70.5161  229.3236 H   0  0  0  0  0  0  0  0  0  0  0  0
  141.3671   72.2569  227.5415 H   0  0  0  0  0  0  0  0  0  0  0  0
  1  2  2  0
  2  3  1  0
  3  4  1  0
  4  5  1  0
  5  6  2  0
  5  7  1  0
  7  8  1  0
  8  9  1  0
  9 10  1  0
 10 11  1  0
 11 12  2  0
 12 13  1  0
 13 14  2  0
 14 15  1  0
 15 16  2  0
 10 17  1  0
  2 18  1  0
 18 19  2  0
 19 20  1  0
 20 21  2  0
 21 22  1  0
 22 23  2  0
 23 24  1  0
 23 25  1  0
 25 26  2  0
 26 27  1  0
 27 28  2  0
 17  7  1  0
 28 18  1  0
 16 11  1  0
 27 21  1  0
  3 29  1  0
  4 30  1  0
  4 31  1  0
  8 32  1  0
  8 33  1  0
  9 34  1  0
  9 35  1  0
 10 36  1  6
 12 37  1  0
 13 38  1  0
 14 39  1  0
 15 40  1  0
 17 41  1  0
 17 42  1  0
 19 43  1  0
 20 44  1  0
 22 45  1  0
 25 46  1  0
 26 47  1  0
M  END
>  <smiles>  (43) 
O=C(NCC(=O)N1CC[C@H](c2ccccn2)C1)c1ccc2cc(F)ccc2n1

>  <score_type>  (43) 
oracle

>  <origin>  (43) 
autodockgpu

>  <m_score__min__energy>  (43) 
-8.8000000000000007

>  <m_primary>  (43) 
energy

>  <rmsd>  (43) 
2.5395741570971544

>  <m_score__min__rmsd>  (43) 
2.5395741570971544

>  <meeko>  (43) 
{"free_energy": -8.46, "intermolecular_energy": -9.95, "internal_energy": -1.06, "cluster_size": 41, "cluster_id": 1, "rank_in_cluster": 17}

>  <energy>  (43) 
-8.36

>  <cluster_rmsd>  (43) 
0.98

>  <cluster>  (43) 
2

$$$$

     RDKit          3D

 47 50  0  0  0  0  0  0  0  0999 V2000
  138.4270   72.1750  222.0490 O   0  0  0  0  0  0  0  0  0  0  0  0
  139.4790   72.1000  222.7400 C   0  0  0  0  0  0  0  0  0  0  0  0
  140.5380   72.9820  222.3760 N   0  0  0  0  0  0  0  0  0  0  0  0
  140.3370   73.8750  221.2720 C   0  0  0  0  0  0  0  0  0  0  0  0
  141.5320   74.7030  220.9780 C   0  0  0  0  0  0  0  0  0  0  0  0
  142.6460   74.1340  220.8470 O   0  0  0  0  0  0  0  0  0  0  0  0
  141.3490   76.1080  220.8600 N   0  0  0  0  0  0  0  0  0  0  0  0
  141.4550   76.9360  219.6690 C   0  0  0  0  0  0  0  0  0  0  0  0
  141.8040   78.2980  220.1820 C   0  0  0  0  0  0  0  0  0  0  0  0
  140.9440   78.3520  221.4500 C   0  0  2  0  0  0  0  0  0  0  0  0
  141.4070   79.3920  222.3770 C   0  0  0  0  0  0  0  0  0  0  0  0
  142.7620   79.4740  222.6510 C   0  0  0  0  0  0  0  0  0  0  0  0
  143.2990   80.4120  223.5050 C   0  0  0  0  0  0  0  0  0  0  0  0
  142.4390   81.3050  224.1080 C   0  0  0  0  0  0  0  0  0  0  0  0
  141.1040   81.2060  223.8220 C   0  0  0  0  0  0  0  0  0  0  0  0
  140.5910   80.2760  222.9780 N   0  0  0  0  0  0  0  0  0  0  0  0
  141.0050   76.9510  222.0120 C   0  0  0  0  0  0  0  0  0  0  0  0
  139.6190   71.1630  223.8560 C   0  0  0  0  0  0  0  0  0  0  0  0
  139.1340   69.8840  223.6770 C   0  0  0  0  0  0  0  0  0  0  0  0
  139.2660   68.9880  224.7370 C   0  0  0  0  0  0  0  0  0  0  0  0
  139.8600   69.3670  225.9240 C   0  0  0  0  0  0  0  0  0  0  0  0
  139.9860   68.4890  226.9530 C   0  0  0  0  0  0  0  0  0  0  0  0
  140.5850   68.9050  228.1230 C   0  0  0  0  0  0  0  0  0  0  0  0
  140.7000   68.0090  229.1410 F   0  0  0  0  0  0  0  0  0  0  0  0
  141.0610   70.2090  228.2600 C   0  0  0  0  0  0  0  0  0  0  0  0
  140.9390   71.1080  227.2220 C   0  0  0  0  0  0  0  0  0  0  0  0
  140.3360   70.6720  226.0600 C   0  0  0  0  0  0  0  0  0  0  0  0
  140.1980   71.5150  225.0250 N   0  0  0  0  0  0  0  0  0  0  0  0
  141.4490   72.9800  222.9030 H   0  0  0  0  0  0  0  0  0  0  0  0
  140.0928   73.2807  220.3791 H   0  0  0  0  0  0  0  0  0  0  0  0
  139.5189   74.5585  221.5434 H   0  0  0  0  0  0  0  0  0  0  0  0
  142.2449   76.5583  219.0032 H   0  0  0  0  0  0  0  0  0  0  0  0
  140.5257   76.9388  219.0804 H   0  0  0  0  0  0  0  0  0  0  0  0
  142.8758   78.3811  220.4152 H   0  0  0  0  0  0  0  0  0  0  0  0
  141.6196   79.1157  219.4697 H   0  0  0  0  0  0  0  0  0  0  0  0
  139.9017   78.6410  221.2495 H   0  0  0  0  0  0  0  0  0  0  0  0
  143.4403   78.7575  222.1646 H   0  0  0  0  0  0  0  0  0  0  0  0
  144.3810   80.4474  223.6999 H   0  0  0  0  0  0  0  0  0  0  0  0
  142.8145   82.0744  224.7986 H   0  0  0  0  0  0  0  0  0  0  0  0
  140.4129   81.9157  224.3002 H   0  0  0  0  0  0  0  0  0  0  0  0
  141.7774   76.8780  222.7917 H   0  0  0  0  0  0  0  0  0  0  0  0
  140.0590   76.6481  222.4846 H   0  0  0  0  0  0  0  0  0  0  0  0
  138.6599   69.5818  222.7315 H   0  0  0  0  0  0  0  0  0  0  0  0
  138.8900   67.9603  224.6254 H   0  0  0  0  0  0  0  0  0  0  0  0
  139.6145   67.4584  226.8539 H   0  0  0  0  0  0  0  0  0  0  0  0
  141.5363   70.5217  229.2014 H   0  0  0  0  0  0  0  0  0  0  0  0
  141.3102   72.1391  227.3170 H   0  0  0  0  0  0  0  0  0  0  0  0
  1  2  2  0
  2  3  1  0
  3  4  1  0
  4  5  1  0
  5  6  2  0
  5  7  1  0
  7  8  1  0
  8  9  1  0
  9 10  1  0
 10 11  1  0
 11 12  2  0
 12 13  1  0
 13 14  2  0
 14 15  1  0
 15 16  2  0
 10 17  1  0
  2 18  1  0
 18 19  2  0
 19 20  1  0
 20 21  2  0
 21 22  1  0
 22 23  2  0
 23 24  1  0
 23 25  1  0
 25 26  2  0
 26 27  1  0
 27 28  2  0
 17  7  1  0
 28 18  1  0
 16 11  1  0
 27 21  1  0
  3 29  1  0
  4 30  1  0
  4 31  1  0
  8 32  1  0
  8 33  1  0
  9 34  1  0
  9 35  1  0
 10 36  1  6
 12 37  1  0
 13 38  1  0
 14 39  1  0
 15 40  1  0
 17 41  1  0
 17 42  1  0
 19 43  1  0
 20 44  1  0
 22 45  1  0
 25 46  1  0
 26 47  1  0
M  END
>  <smiles>  (44) 
O=C(NCC(=O)N1CC[C@H](c2ccccn2)C1)c1ccc2cc(F)ccc2n1

>  <score_type>  (44) 
oracle

>  <origin>  (44) 
autodockgpu

>  <m_score__min__energy>  (44) 
-8.8000000000000007

>  <m_primary>  (44) 
energy

>  <rmsd>  (44) 
2.57057675992854

>  <m_score__min__rmsd>  (44) 
2.57057675992854

>  <meeko>  (44) 
{"free_energy": -8.23, "intermolecular_energy": -9.72, "internal_energy": -1.12, "cluster_size": 41, "cluster_id": 1, "rank_in_cluster": 36}

>  <energy>  (44) 
-8.14

>  <cluster_rmsd>  (44) 
1.39

>  <cluster>  (44) 
2

$$$$

     RDKit          3D

 47 50  0  0  0  0  0  0  0  0999 V2000
  141.2450   71.7730  221.7090 O   0  0  0  0  0  0  0  0  0  0  0  0
  140.2850   71.9310  222.5110 C   0  0  0  0  0  0  0  0  0  0  0  0
  139.3410   72.9450  222.1750 N   0  0  0  0  0  0  0  0  0  0  0  0
  139.5450   73.7000  220.9740 C   0  0  0  0  0  0  0  0  0  0  0  0
  140.5170   74.8070  221.1480 C   0  0  0  0  0  0  0  0  0  0  0  0
  141.7180   74.6130  220.8280 O   0  0  0  0  0  0  0  0  0  0  0  0
  140.0320   76.0360  221.6700 N   0  0  0  0  0  0  0  0  0  0  0  0
  138.7430   76.6700  221.4420 C   0  0  0  0  0  0  0  0  0  0  0  0
  138.9910   78.1300  221.6600 C   0  0  0  0  0  0  0  0  0  0  0  0
  139.9620   78.0760  222.8460 C   0  0  2  0  0  0  0  0  0  0  0  0
  140.7030   79.3340  222.9980 C   0  0  0  0  0  0  0  0  0  0  0  0
  141.9140   79.3080  223.6690 C   0  0  0  0  0  0  0  0  0  0  0  0
  142.6860   80.4330  223.8660 C   0  0  0  0  0  0  0  0  0  0  0  0
  142.2230   81.6310  223.3680 C   0  0  0  0  0  0  0  0  0  0  0  0
  141.0230   81.6330  222.7080 C   0  0  0  0  0  0  0  0  0  0  0  0
  140.2740   80.5170  222.5230 N   0  0  0  0  0  0  0  0  0  0  0  0
  140.8340   76.8740  222.5710 C   0  0  0  0  0  0  0  0  0  0  0  0
  140.1350   71.1240  223.7240 C   0  0  0  0  0  0  0  0  0  0  0  0
  139.4380   69.9380  223.6150 C   0  0  0  0  0  0  0  0  0  0  0  0
  139.2930   69.1650  224.7670 C   0  0  0  0  0  0  0  0  0  0  0  0
  139.8270   69.5730  225.9730 C   0  0  0  0  0  0  0  0  0  0  0  0
  139.6820   68.8160  227.0910 C   0  0  0  0  0  0  0  0  0  0  0  0
  140.2290   69.2560  228.2780 C   0  0  0  0  0  0  0  0  0  0  0  0
  140.0710   68.4820  229.3860 F   0  0  0  0  0  0  0  0  0  0  0  0
  140.9260   70.4630  228.3410 C   0  0  0  0  0  0  0  0  0  0  0  0
  141.0790   71.2400  227.2120 C   0  0  0  0  0  0  0  0  0  0  0  0
  140.5240   70.7810  226.0350 C   0  0  0  0  0  0  0  0  0  0  0  0
  140.6500   71.5060  224.9120 N   0  0  0  0  0  0  0  0  0  0  0  0
  138.5120   73.1390  222.7930 H   0  0  0  0  0  0  0  0  0  0  0  0
  139.9202   73.0226  220.1927 H   0  0  0  0  0  0  0  0  0  0  0  0
  138.5794   74.1481  220.6969 H   0  0  0  0  0  0  0  0  0  0  0  0
  138.3965   76.4850  220.4145 H   0  0  0  0  0  0  0  0  0  0  0  0
  137.9629   76.2770  222.1106 H   0  0  0  0  0  0  0  0  0  0  0  0
  139.4525   78.5993  220.7787 H   0  0  0  0  0  0  0  0  0  0  0  0
  138.0843   78.7269  221.8375 H   0  0  0  0  0  0  0  0  0  0  0  0
  139.4515   77.9665  223.8142 H   0  0  0  0  0  0  0  0  0  0  0  0
  142.2762   78.3467  224.0624 H   0  0  0  0  0  0  0  0  0  0  0  0
  143.6433   80.3757  224.4048 H   0  0  0  0  0  0  0  0  0  0  0  0
  142.8001   82.5586  223.4966 H   0  0  0  0  0  0  0  0  0  0  0  0
  140.6479   82.5866  222.3081 H   0  0  0  0  0  0  0  0  0  0  0  0
  141.7733   77.1779  222.0859 H   0  0  0  0  0  0  0  0  0  0  0  0
  141.1186   76.3443  223.4921 H   0  0  0  0  0  0  0  0  0  0  0  0
  139.0120   69.6138  222.6541 H   0  0  0  0  0  0  0  0  0  0  0  0
  138.7435   68.2136  224.7136 H   0  0  0  0  0  0  0  0  0  0  0  0
  139.1345   67.8628  227.0503 H   0  0  0  0  0  0  0  0  0  0  0  0
  141.3560   70.7968  229.2969 H   0  0  0  0  0  0  0  0  0  0  0  0
  141.6253   72.1940  227.2485 H   0  0  0  0  0  0  0  0  0  0  0  0
  1  2  2  0
  2  3  1  0
  3  4  1  0
  4  5  1  0
  5  6  2  0
  5  7  1  0
  7  8  1  0
  8  9  1  0
  9 10  1  0
 10 11  1  0
 11 12  2  0
 12 13  1  0
 13 14  2  0
 14 15  1  0
 15 16  2  0
 10 17  1  0
  2 18  1  0
 18 19  2  0
 19 20  1  0
 20 21  2  0
 21 22  1  0
 22 23  2  0
 23 24  1  0
 23 25  1  0
 25 26  2  0
 26 27  1  0
 27 28  2  0
 17  7  1  0
 28 18  1  0
 16 11  1  0
 27 21  1  0
  3 29  1  0
  4 30  1  0
  4 31  1  0
  8 32  1  0
  8 33  1  0
  9 34  1  0
  9 35  1  0
 10 36  1  1
 12 37  1  0
 13 38  1  0
 14 39  1  0
 15 40  1  0
 17 41  1  0
 17 42  1  0
 19 43  1  0
 20 44  1  0
 22 45  1  0
 25 46  1  0
 26 47  1  0
M  END
>  <smiles>  (45) 
O=C(NCC(=O)N1CC[C@H](c2ccccn2)C1)c1ccc2cc(F)ccc2n1

>  <score_type>  (45) 
oracle

>  <origin>  (45) 
autodockgpu

>  <m_score__min__energy>  (45) 
-8.8000000000000007

>  <m_primary>  (45) 
energy

>  <rmsd>  (45) 
2.9831312408508235

>  <m_score__min__rmsd>  (45) 
2.9831312408508235

>  <meeko>  (45) 
{"free_energy": -8.44, "intermolecular_energy": -9.93, "internal_energy": -0.96, "cluster_size": 41, "cluster_id": 1, "rank_in_cluster": 19}

>  <energy>  (45) 
-7.94

>  <cluster_rmsd>  (45) 
1.55

>  <cluster>  (45) 
2

$$$$

     RDKit          3D

 47 50  0  0  0  0  0  0  0  0999 V2000
  138.5470   76.1700  220.2950 O   0  0  0  0  0  0  0  0  0  0  0  0
  138.8830   76.2340  221.5080 C   0  0  0  0  0  0  0  0  0  0  0  0
  138.7390   75.0360  222.2670 N   0  0  0  0  0  0  0  0  0  0  0  0
  138.2310   73.8660  221.6120 C   0  0  0  0  0  0  0  0  0  0  0  0
  139.2410   72.7850  221.5000 C   0  0  0  0  0  0  0  0  0  0  0  0
  140.0490   72.8100  220.5360 O   0  0  0  0  0  0  0  0  0  0  0  0
  139.2400   71.7740  222.4980 N   0  0  0  0  0  0  0  0  0  0  0  0
  138.2380   70.7490  222.7440 C   0  0  0  0  0  0  0  0  0  0  0  0
  138.3850   70.4120  224.1960 C   0  0  0  0  0  0  0  0  0  0  0  0
  139.9100   70.4770  224.3470 C   0  0  2  0  0  0  0  0  0  0  0  0
  140.3100   70.6110  225.7530 C   0  0  0  0  0  0  0  0  0  0  0  0
  140.7260   71.8530  226.2030 C   0  0  0  0  0  0  0  0  0  0  0  0
  141.1230   72.0860  227.5020 C   0  0  0  0  0  0  0  0  0  0  0  0
  141.1000   71.0280  228.3850 C   0  0  0  0  0  0  0  0  0  0  0  0
  140.6850   69.8090  227.9180 C   0  0  0  0  0  0  0  0  0  0  0  0
  140.2970   69.5970  226.6350 N   0  0  0  0  0  0  0  0  0  0  0  0
  140.3310   71.6330  223.4710 C   0  0  0  0  0  0  0  0  0  0  0  0
  139.3950   77.4630  222.1180 C   0  0  0  0  0  0  0  0  0  0  0  0
  138.4730   78.3350  222.6590 C   0  0  0  0  0  0  0  0  0  0  0  0
  138.9550   79.5070  223.2410 C   0  0  0  0  0  0  0  0  0  0  0  0
  140.3070   79.7850  223.2740 C   0  0  0  0  0  0  0  0  0  0  0  0
  140.7700   80.9280  223.8430 C   0  0  0  0  0  0  0  0  0  0  0  0
  142.1280   81.1700  223.8560 C   0  0  0  0  0  0  0  0  0  0  0  0
  142.5700   82.3220  224.4300 F   0  0  0  0  0  0  0  0  0  0  0  0
  143.0240   80.2590  223.2960 C   0  0  0  0  0  0  0  0  0  0  0  0
  142.5650   79.0960  222.7160 C   0  0  0  0  0  0  0  0  0  0  0  0
  141.2030   78.8730  222.7130 C   0  0  0  0  0  0  0  0  0  0  0  0
  140.7130   77.7520  222.1600 N   0  0  0  0  0  0  0  0  0  0  0  0
  138.9970   75.0070  223.2870 H   0  0  0  0  0  0  0  0  0  0  0  0
  137.3726   73.4868  222.1859 H   0  0  0  0  0  0  0  0  0  0  0  0
  137.9430   74.1570  220.5910 H   0  0  0  0  0  0  0  0  0  0  0  0
  137.2293   71.1352  222.5359 H   0  0  0  0  0  0  0  0  0  0  0  0
  138.3755   69.8698  222.0974 H   0  0  0  0  0  0  0  0  0  0  0  0
  137.8819   71.1509  224.8370 H   0  0  0  0  0  0  0  0  0  0  0  0
  137.9364   69.4518  224.4907 H   0  0  0  0  0  0  0  0  0  0  0  0
  140.4133   69.5518  224.0296 H   0  0  0  0  0  0  0  0  0  0  0  0
  140.7402   72.6916  225.4913 H   0  0  0  0  0  0  0  0  0  0  0  0
  141.4484   73.0861  227.8243 H   0  0  0  0  0  0  0  0  0  0  0  0
  141.4058   71.1586  229.4335 H   0  0  0  0  0  0  0  0  0  0  0  0
  140.6653   68.9602  228.6174 H   0  0  0  0  0  0  0  0  0  0  0  0
  140.4422   72.5514  224.0662 H   0  0  0  0  0  0  0  0  0  0  0  0
  141.3031   71.4583  222.9867 H   0  0  0  0  0  0  0  0  0  0  0  0
  137.3958   78.1137  222.6322 H   0  0  0  0  0  0  0  0  0  0  0  0
  138.2454   80.2228  223.6816 H   0  0  0  0  0  0  0  0  0  0  0  0
  140.0710   81.6516  224.2878 H   0  0  0  0  0  0  0  0  0  0  0  0
  144.1033   80.4702  223.3175 H   0  0  0  0  0  0  0  0  0  0  0  0
  143.2609   78.3699  222.2704 H   0  0  0  0  0  0  0  0  0  0  0  0
  1  2  2  0
  2  3  1  0
  3  4  1  0
  4  5  1  0
  5  6  2  0
  5  7  1  0
  7  8  1  0
  8  9  1  0
  9 10  1  0
 10 11  1  0
 11 12  2  0
 12 13  1  0
 13 14  2  0
 14 15  1  0
 15 16  2  0
 10 17  1  0
  2 18  1  0
 18 19  2  0
 19 20  1  0
 20 21  2  0
 21 22  1  0
 22 23  2  0
 23 24  1  0
 23 25  1  0
 25 26  2  0
 26 27  1  0
 27 28  2  0
 17  7  1  0
 28 18  1  0
 16 11  1  0
 27 21  1  0
  3 29  1  0
  4 30  1  0
  4 31  1  0
  8 32  1  0
  8 33  1  0
  9 34  1  0
  9 35  1  0
 10 36  1  6
 12 37  1  0
 13 38  1  0
 14 39  1  0
 15 40  1  0
 17 41  1  0
 17 42  1  0
 19 43  1  0
 20 44  1  0
 22 45  1  0
 25 46  1  0
 26 47  1  0
M  END
>  <smiles>  (46) 
O=C(NCC(=O)N1CC[C@H](c2ccccn2)C1)c1ccc2cc(F)ccc2n1

>  <score_type>  (46) 
oracle

>  <origin>  (46) 
autodockgpu

>  <m_score__min__energy>  (46) 
-8.8000000000000007

>  <m_primary>  (46) 
energy

>  <rmsd>  (46) 
8.636279991192232

>  <m_score__min__rmsd>  (46) 
8.636279991192232

>  <meeko>  (46) 
{"free_energy": -8.36, "intermolecular_energy": -9.85, "internal_energy": -0.94, "cluster_size": 4, "cluster_id": 2, "rank_in_cluster": 2}

>  <energy>  (46) 
-8.06

>  <cluster_rmsd>  (46) 
0.0

>  <cluster>  (46) 
3

$$$$

     RDKit          3D

 47 50  0  0  0  0  0  0  0  0999 V2000
  141.0760   71.6740  221.5790 O   0  0  0  0  0  0  0  0  0  0  0  0
  140.2580   71.9190  222.5070 C   0  0  0  0  0  0  0  0  0  0  0  0
  139.4110   73.0490  222.3200 N   0  0  0  0  0  0  0  0  0  0  0  0
  139.5450   73.8150  221.1160 C   0  0  0  0  0  0  0  0  0  0  0  0
  140.4850   74.9540  221.2590 C   0  0  0  0  0  0  0  0  0  0  0  0
  141.6570   74.8300  220.8200 O   0  0  0  0  0  0  0  0  0  0  0  0
  140.0020   76.1330  221.8900 N   0  0  0  0  0  0  0  0  0  0  0  0
  138.6300   76.6010  222.0030 C   0  0  0  0  0  0  0  0  0  0  0  0
  138.7450   78.0870  222.1510 C   0  0  0  0  0  0  0  0  0  0  0  0
  139.9870   78.1860  223.0460 C   0  0  2  0  0  0  0  0  0  0  0  0
  140.5810   79.5270  223.0020 C   0  0  0  0  0  0  0  0  0  0  0  0
  141.7420   79.7560  223.7220 C   0  0  0  0  0  0  0  0  0  0  0  0
  142.3790   80.9780  223.7480 C   0  0  0  0  0  0  0  0  0  0  0  0
  141.8280   82.0110  223.0210 C   0  0  0  0  0  0  0  0  0  0  0  0
  140.6800   81.7610  222.3170 C   0  0  0  0  0  0  0  0  0  0  0  0
  140.0650   80.5520  222.3010 N   0  0  0  0  0  0  0  0  0  0  0  0
  140.9000   77.0880  222.5540 C   0  0  0  0  0  0  0  0  0  0  0  0
  140.1720   71.0950  223.7140 C   0  0  0  0  0  0  0  0  0  0  0  0
  139.5830   69.8530  223.5950 C   0  0  0  0  0  0  0  0  0  0  0  0
  139.4990   69.0640  224.7420 C   0  0  0  0  0  0  0  0  0  0  0  0
  139.9870   69.5100  225.9530 C   0  0  0  0  0  0  0  0  0  0  0  0
  139.9030   68.7360  227.0660 C   0  0  0  0  0  0  0  0  0  0  0  0
  140.4020   69.2170  228.2590 C   0  0  0  0  0  0  0  0  0  0  0  0
  140.3060   68.4260  229.3620 F   0  0  0  0  0  0  0  0  0  0  0  0
  140.9890   70.4800  228.3330 C   0  0  0  0  0  0  0  0  0  0  0  0
  141.0800   71.2740  227.2100 C   0  0  0  0  0  0  0  0  0  0  0  0
  140.5750   70.7750  226.0270 C   0  0  0  0  0  0  0  0  0  0  0  0
  140.6440   71.5130  224.9080 N   0  0  0  0  0  0  0  0  0  0  0  0
  138.7020   73.3210  223.0490 H   0  0  0  0  0  0  0  0  0  0  0  0
  139.9136   73.1535  220.3182 H   0  0  0  0  0  0  0  0  0  0  0  0
  138.5552   74.2313  220.8773 H   0  0  0  0  0  0  0  0  0  0  0  0
  138.0572   76.3445  221.0996 H   0  0  0  0  0  0  0  0  0  0  0  0
  138.1014   76.1385  222.8496 H   0  0  0  0  0  0  0  0  0  0  0  0
  138.9038   78.5803  221.1807 H   0  0  0  0  0  0  0  0  0  0  0  0
  137.8480   78.5770  222.5575 H   0  0  0  0  0  0  0  0  0  0  0  0
  139.7601   78.0469  224.1133 H   0  0  0  0  0  0  0  0  0  0  0  0
  142.1750   78.9254  224.2988 H   0  0  0  0  0  0  0  0  0  0  0  0
  143.2998   81.1244  224.3317 H   0  0  0  0  0  0  0  0  0  0  0  0
  142.2961   83.0063  223.0065 H   0  0  0  0  0  0  0  0  0  0  0  0
  140.2344   82.5816  221.7355 H   0  0  0  0  0  0  0  0  0  0  0  0
  141.6388   77.4861  221.8429 H   0  0  0  0  0  0  0  0  0  0  0  0
  141.4743   76.6245  223.3697 H   0  0  0  0  0  0  0  0  0  0  0  0
  139.1934   69.4976  222.6296 H   0  0  0  0  0  0  0  0  0  0  0  0
  139.0354   68.0684  224.6800 H   0  0  0  0  0  0  0  0  0  0  0  0
  139.4429   67.7381  227.0168 H   0  0  0  0  0  0  0  0  0  0  0  0
  141.3818   70.8447  229.2936 H   0  0  0  0  0  0  0  0  0  0  0  0
  141.5399   72.2722  227.2555 H   0  0  0  0  0  0  0  0  0  0  0  0
  1  2  2  0
  2  3  1  0
  3  4  1  0
  4  5  1  0
  5  6  2  0
  5  7  1  0
  7  8  1  0
  8  9  1  0
  9 10  1  0
 10 11  1  0
 11 12  2  0
 12 13  1  0
 13 14  2  0
 14 15  1  0
 15 16  2  0
 10 17  1  0
  2 18  1  0
 18 19  2  0
 19 20  1  0
 20 21  2  0
 21 22  1  0
 22 23  2  0
 23 24  1  0
 23 25  1  0
 25 26  2  0
 26 27  1  0
 27 28  2  0
 17  7  1  0
 28 18  1  0
 16 11  1  0
 27 21  1  0
  3 29  1  0
  4 30  1  0
  4 31  1  0
  8 32  1  0
  8 33  1  0
  9 34  1  0
  9 35  1  0
 10 36  1  1
 12 37  1  0
 13 38  1  0
 14 39  1  0
 15 40  1  0
 17 41  1  0
 17 42  1  0
 19 43  1  0
 20 44  1  0
 22 45  1  0
 25 46  1  0
 26 47  1  0
M  END
>  <smiles>  (47) 
O=C(NCC(=O)N1CC[C@H](c2ccccn2)C1)c1ccc2cc(F)ccc2n1

>  <score_type>  (47) 
oracle

>  <origin>  (47) 
autodockgpu

>  <m_score__min__energy>  (47) 
-8.8000000000000007

>  <m_primary>  (47) 
energy

>  <rmsd>  (47) 
3.117704716107213

>  <m_score__min__rmsd>  (47) 
3.117704716107213

>  <meeko>  (47) 
{"free_energy": -8.4, "intermolecular_energy": -9.9, "internal_energy": -0.96, "cluster_size": 41, "cluster_id": 1, "rank_in_cluster": 25}

>  <energy>  (47) 
-8.04

>  <cluster_rmsd>  (47) 
0.0

>  <cluster>  (47) 
4

$$$$

     RDKit          3D

 47 50  0  0  0  0  0  0  0  0999 V2000
  139.4400   71.2080  221.1320 O   0  0  0  0  0  0  0  0  0  0  0  0
  139.5120   71.7250  222.2790 C   0  0  0  0  0  0  0  0  0  0  0  0
  139.4310   73.1470  222.3380 N   0  0  0  0  0  0  0  0  0  0  0  0
  139.2770   73.8750  221.1130 C   0  0  0  0  0  0  0  0  0  0  0  0
  140.5620   74.0870  220.4030 C   0  0  0  0  0  0  0  0  0  0  0  0
  141.1780   73.0850  219.9560 O   0  0  0  0  0  0  0  0  0  0  0  0
  141.0290   75.4220  220.2660 N   0  0  0  0  0  0  0  0  0  0  0  0
  141.9920   75.9490  219.3130 C   0  0  0  0  0  0  0  0  0  0  0  0
  142.5740   77.1540  219.9840 C   0  0  0  0  0  0  0  0  0  0  0  0
  141.3270   77.7230  220.6730 C   0  0  2  0  0  0  0  0  0  0  0  0
  141.6800   78.6580  221.7480 C   0  0  0  0  0  0  0  0  0  0  0  0
  141.4750   78.2610  223.0590 C   0  0  0  0  0  0  0  0  0  0  0  0
  141.7720   79.0630  224.1400 C   0  0  0  0  0  0  0  0  0  0  0  0
  142.2960   80.3130  223.8940 C   0  0  0  0  0  0  0  0  0  0  0  0
  142.4900   80.6850  222.5900 C   0  0  0  0  0  0  0  0  0  0  0  0
  142.1920   79.8830  221.5360 N   0  0  0  0  0  0  0  0  0  0  0  0
  140.5600   76.5080  221.1370 C   0  0  0  0  0  0  0  0  0  0  0  0
  139.6700   70.9220  223.4930 C   0  0  0  0  0  0  0  0  0  0  0  0
  139.2360   69.6130  223.4500 C   0  0  0  0  0  0  0  0  0  0  0  0
  139.3850   68.8430  224.6030 C   0  0  0  0  0  0  0  0  0  0  0  0
  139.9460   69.3720  225.7480 C   0  0  0  0  0  0  0  0  0  0  0  0
  140.0890   68.6170  226.8680 C   0  0  0  0  0  0  0  0  0  0  0  0
  140.6540   69.1810  227.9920 C   0  0  0  0  0  0  0  0  0  0  0  0
  140.7870   68.4070  229.1040 F   0  0  0  0  0  0  0  0  0  0  0  0
  141.0800   70.5100  227.9900 C   0  0  0  0  0  0  0  0  0  0  0  0
  140.9400   71.2850  226.8590 C   0  0  0  0  0  0  0  0  0  0  0  0
  140.3720   70.7020  225.7460 C   0  0  0  0  0  0  0  0  0  0  0  0
  140.2180   71.4210  224.6220 N   0  0  0  0  0  0  0  0  0  0  0  0
  139.4840   73.6550  223.2580 H   0  0  0  0  0  0  0  0  0  0  0  0
  138.5998   73.3128  220.4532 H   0  0  0  0  0  0  0  0  0  0  0  0
  138.8719   74.8659  221.3662 H   0  0  0  0  0  0  0  0  0  0  0  0
  142.7756   75.2061  219.1030 H   0  0  0  0  0  0  0  0  0  0  0  0
  141.5276   76.1955  218.3468 H   0  0  0  0  0  0  0  0  0  0  0  0
  143.3497   76.8773  220.7132 H   0  0  0  0  0  0  0  0  0  0  0  0
  143.0816   77.8551  219.3052 H   0  0  0  0  0  0  0  0  0  0  0  0
  140.7070   78.3353  220.0016 H   0  0  0  0  0  0  0  0  0  0  0  0
  141.0565   77.2610  223.2459 H   0  0  0  0  0  0  0  0  0  0  0  0
  141.5958   78.7152  225.1686 H   0  0  0  0  0  0  0  0  0  0  0  0
  142.5512   80.9926  224.7205 H   0  0  0  0  0  0  0  0  0  0  0  0
  142.9076   81.6822  222.3870 H   0  0  0  0  0  0  0  0  0  0  0  0
  140.7843   76.2857  222.1907 H   0  0  0  0  0  0  0  0  0  0  0  0
  139.4712   76.6524  221.0761 H   0  0  0  0  0  0  0  0  0  0  0  0
  138.7881   69.1915  222.5380 H   0  0  0  0  0  0  0  0  0  0  0  0
  139.0495   67.7954  224.6001 H   0  0  0  0  0  0  0  0  0  0  0  0
  139.7580   67.5680  226.8781 H   0  0  0  0  0  0  0  0  0  0  0  0
  141.5301   70.9414  228.8963 H   0  0  0  0  0  0  0  0  0  0  0  0
  141.2705   72.3341  226.8446 H   0  0  0  0  0  0  0  0  0  0  0  0
  1  2  2  0
  2  3  1  0
  3  4  1  0
  4  5  1  0
  5  6  2  0
  5  7  1  0
  7  8  1  0
  8  9  1  0
  9 10  1  0
 10 11  1  0
 11 12  2  0
 12 13  1  0
 13 14  2  0
 14 15  1  0
 15 16  2  0
 10 17  1  0
  2 18  1  0
 18 19  2  0
 19 20  1  0
 20 21  2  0
 21 22  1  0
 22 23  2  0
 23 24  1  0
 23 25  1  0
 25 26  2  0
 26 27  1  0
 27 28  2  0
 17  7  1  0
 28 18  1  0
 16 11  1  0
 27 21  1  0
  3 29  1  0
  4 30  1  0
  4 31  1  0
  8 32  1  0
  8 33  1  0
  9 34  1  0
  9 35  1  0
 10 36  1  6
 12 37  1  0
 13 38  1  0
 14 39  1  0
 15 40  1  0
 17 41  1  0
 17 42  1  0
 19 43  1  0
 20 44  1  0
 22 45  1  0
 25 46  1  0
 26 47  1  0
M  END
>  <smiles>  (48) 
O=C(NCC(=O)N1CC[C@H](c2ccccn2)C1)c1ccc2cc(F)ccc2n1

>  <score_type>  (48) 
oracle

>  <origin>  (48) 
autodockgpu

>  <m_score__min__energy>  (48) 
-8.8000000000000007

>  <m_primary>  (48) 
energy

>  <rmsd>  (48) 
2.08271469635188

>  <m_score__min__rmsd>  (48) 
2.08271469635188

>  <meeko>  (48) 
{"free_energy": -8.26, "intermolecular_energy": -9.75, "internal_energy": -1.08, "cluster_size": 41, "cluster_id": 1, "rank_in_cluster": 34}

>  <energy>  (48) 
-7.95

>  <cluster_rmsd>  (48) 
0.24

>  <cluster>  (48) 
4

$$$$

     RDKit          3D

 47 50  0  0  0  0  0  0  0  0999 V2000
  139.7670   71.7270  221.1000 O   0  0  0  0  0  0  0  0  0  0  0  0
  139.7400   72.2220  222.2590 C   0  0  0  0  0  0  0  0  0  0  0  0
  139.5880   73.6360  222.3390 N   0  0  0  0  0  0  0  0  0  0  0  0
  139.4800   74.3840  221.1210 C   0  0  0  0  0  0  0  0  0  0  0  0
  138.3180   75.3060  221.1130 C   0  0  0  0  0  0  0  0  0  0  0  0
  137.2510   74.9290  220.5640 O   0  0  0  0  0  0  0  0  0  0  0  0
  138.4780   76.5760  221.7310 N   0  0  0  0  0  0  0  0  0  0  0  0
  137.5770   77.7170  221.6980 C   0  0  0  0  0  0  0  0  0  0  0  0
  138.4590   78.9060  221.9220 C   0  0  0  0  0  0  0  0  0  0  0  0
  139.4340   78.3420  222.9630 C   0  0  2  0  0  0  0  0  0  0  0  0
  140.6600   79.1440  223.0480 C   0  0  0  0  0  0  0  0  0  0  0  0
  140.5710   80.4310  223.5520 C   0  0  0  0  0  0  0  0  0  0  0  0
  141.6610   81.2650  223.6730 C   0  0  0  0  0  0  0  0  0  0  0  0
  142.8900   80.7870  223.2740 C   0  0  0  0  0  0  0  0  0  0  0  0
  142.9540   79.5120  222.7790 C   0  0  0  0  0  0  0  0  0  0  0  0
  141.8710   78.7020  222.6660 N   0  0  0  0  0  0  0  0  0  0  0  0
  139.6590   76.9100  222.5380 C   0  0  0  0  0  0  0  0  0  0  0  0
  139.8560   71.4000  223.4660 C   0  0  0  0  0  0  0  0  0  0  0  0
  139.4530   70.0830  223.3780 C   0  0  0  0  0  0  0  0  0  0  0  0
  139.5620   69.2950  224.5240 C   0  0  0  0  0  0  0  0  0  0  0  0
  140.0550   69.8150  225.7040 C   0  0  0  0  0  0  0  0  0  0  0  0
  140.1580   69.0430  226.8160 C   0  0  0  0  0  0  0  0  0  0  0  0
  140.6550   69.5980  227.9770 C   0  0  0  0  0  0  0  0  0  0  0  0
  140.7500   68.8060  229.0800 F   0  0  0  0  0  0  0  0  0  0  0  0
  141.0500   70.9350  228.0190 C   0  0  0  0  0  0  0  0  0  0  0  0
  140.9490   71.7280  226.8970 C   0  0  0  0  0  0  0  0  0  0  0  0
  140.4490   71.1540  225.7460 C   0  0  0  0  0  0  0  0  0  0  0  0
  140.3350   71.8900  224.6290 N   0  0  0  0  0  0  0  0  0  0  0  0
  139.5570   74.1260  223.2710 H   0  0  0  0  0  0  0  0  0  0  0  0
  140.3983   74.9750  220.9890 H   0  0  0  0  0  0  0  0  0  0  0  0
  139.3366   73.6638  220.3020 H   0  0  0  0  0  0  0  0  0  0  0  0
  137.0740   77.7857  220.7221 H   0  0  0  0  0  0  0  0  0  0  0  0
  136.7819   77.6408  222.4544 H   0  0  0  0  0  0  0  0  0  0  0  0
  138.9786   79.2052  220.9997 H   0  0  0  0  0  0  0  0  0  0  0  0
  137.9282   79.8161  222.2383 H   0  0  0  0  0  0  0  0  0  0  0  0
  139.0377   78.3804  223.9884 H   0  0  0  0  0  0  0  0  0  0  0  0
  139.5862   80.8039  223.8698 H   0  0  0  0  0  0  0  0  0  0  0  0
  141.5531   82.2827  224.0764 H   0  0  0  0  0  0  0  0  0  0  0  0
  143.7927   81.4109  223.3508 H   0  0  0  0  0  0  0  0  0  0  0  0
  143.9320   79.1249  222.4569 H   0  0  0  0  0  0  0  0  0  0  0  0
  140.5771   76.8220  221.9385 H   0  0  0  0  0  0  0  0  0  0  0  0
  139.7839   76.2336  223.3964 H   0  0  0  0  0  0  0  0  0  0  0  0
  139.0598   69.6693  222.4376 H   0  0  0  0  0  0  0  0  0  0  0  0
  139.2497   68.2409  224.4868 H   0  0  0  0  0  0  0  0  0  0  0  0
  139.8489   67.9876  226.7915 H   0  0  0  0  0  0  0  0  0  0  0  0
  141.4447   71.3590  228.9541 H   0  0  0  0  0  0  0  0  0  0  0  0
  141.2568   72.7839  226.9179 H   0  0  0  0  0  0  0  0  0  0  0  0
  1  2  2  0
  2  3  1  0
  3  4  1  0
  4  5  1  0
  5  6  2  0
  5  7  1  0
  7  8  1  0
  8  9  1  0
  9 10  1  0
 10 11  1  0
 11 12  2  0
 12 13  1  0
 13 14  2  0
 14 15  1  0
 15 16  2  0
 10 17  1  0
  2 18  1  0
 18 19  2  0
 19 20  1  0
 20 21  2  0
 21 22  1  0
 22 23  2  0
 23 24  1  0
 23 25  1  0
 25 26  2  0
 26 27  1  0
 27 28  2  0
 17  7  1  0
 28 18  1  0
 16 11  1  0
 27 21  1  0
  3 29  1  0
  4 30  1  0
  4 31  1  0
  8 32  1  0
  8 33  1  0
  9 34  1  0
  9 35  1  0
 10 36  1  1
 12 37  1  0
 13 38  1  0
 14 39  1  0
 15 40  1  0
 17 41  1  0
 17 42  1  0
 19 43  1  0
 20 44  1  0
 22 45  1  0
 25 46  1  0
 26 47  1  0
M  END
>  <smiles>  (49) 
O=C(NCC(=O)N1CC[C@H](c2ccccn2)C1)c1ccc2cc(F)ccc2n1

>  <score_type>  (49) 
oracle

>  <origin>  (49) 
autodockgpu

>  <m_score__min__energy>  (49) 
-8.8000000000000007

>  <m_primary>  (49) 
energy

>  <rmsd>  (49) 
3.191204289721872

>  <m_score__min__rmsd>  (49) 
3.191204289721872

>  <meeko>  (49) 
{"free_energy": -8.1, "intermolecular_energy": -9.59, "internal_energy": -1.06, "cluster_size": 41, "cluster_id": 1, "rank_in_cluster": 39}

>  <energy>  (49) 
-7.91

>  <cluster_rmsd>  (49) 
0.32

>  <cluster>  (49) 
4

$$$$

     RDKit          3D

 47 50  0  0  0  0  0  0  0  0999 V2000
  139.4290   70.9840  221.4900 O   0  0  0  0  0  0  0  0  0  0  0  0
  139.5820   71.4790  222.6390 C   0  0  0  0  0  0  0  0  0  0  0  0
  139.6400   72.9010  222.7110 N   0  0  0  0  0  0  0  0  0  0  0  0
  139.5230   73.6550  221.4970 C   0  0  0  0  0  0  0  0  0  0  0  0
  140.8350   73.9350  220.8650 C   0  0  0  0  0  0  0  0  0  0  0  0
  141.5880   72.9690  220.5810 O   0  0  0  0  0  0  0  0  0  0  0  0
  141.1700   75.2940  220.6140 N   0  0  0  0  0  0  0  0  0  0  0  0
  141.9920   75.8390  219.5450 C   0  0  0  0  0  0  0  0  0  0  0  0
  142.5260   77.1260  220.0930 C   0  0  0  0  0  0  0  0  0  0  0  0
  141.3030   77.6320  220.8680 C   0  0  2  0  0  0  0  0  0  0  0  0
  141.6700   78.6560  221.8530 C   0  0  0  0  0  0  0  0  0  0  0  0
  141.4970   78.3690  223.1970 C   0  0  0  0  0  0  0  0  0  0  0  0
  141.8100   79.2600  224.2000 C   0  0  0  0  0  0  0  0  0  0  0  0
  142.3180   80.4890  223.8390 C   0  0  0  0  0  0  0  0  0  0  0  0
  142.4820   80.7510  222.5050 C   0  0  0  0  0  0  0  0  0  0  0  0
  142.1680   79.8620  221.5280 N   0  0  0  0  0  0  0  0  0  0  0  0
  140.6900   76.3880  221.4670 C   0  0  0  0  0  0  0  0  0  0  0  0
  139.6960   70.6510  223.8410 C   0  0  0  0  0  0  0  0  0  0  0  0
  139.2050   69.3630  223.7730 C   0  0  0  0  0  0  0  0  0  0  0  0
  139.3120   68.5690  224.9150 C   0  0  0  0  0  0  0  0  0  0  0  0
  139.8870   69.0560  226.0720 C   0  0  0  0  0  0  0  0  0  0  0  0
  139.9870   68.2780  227.1810 C   0  0  0  0  0  0  0  0  0  0  0  0
  140.5680   68.7990  228.3180 C   0  0  0  0  0  0  0  0  0  0  0  0
  140.6580   68.0020  229.4180 F   0  0  0  0  0  0  0  0  0  0  0  0
  141.0500   70.1080  228.3410 C   0  0  0  0  0  0  0  0  0  0  0  0
  140.9540   70.9060  227.2210 C   0  0  0  0  0  0  0  0  0  0  0  0
  140.3690   70.3660  226.0940 C   0  0  0  0  0  0  0  0  0  0  0  0
  140.2560   71.1080  224.9820 N   0  0  0  0  0  0  0  0  0  0  0  0
  139.7670   73.3910  223.6340 H   0  0  0  0  0  0  0  0  0  0  0  0
  138.9057   73.0847  220.7873 H   0  0  0  0  0  0  0  0  0  0  0  0
  139.0649   74.6223  221.7510 H   0  0  0  0  0  0  0  0  0  0  0  0
  142.8146   75.1512  219.2994 H   0  0  0  0  0  0  0  0  0  0  0  0
  141.4214   75.9875  218.6164 H   0  0  0  0  0  0  0  0  0  0  0  0
  143.3863   76.9580  220.7576 H   0  0  0  0  0  0  0  0  0  0  0  0
  142.9064   77.8239  219.3326 H   0  0  0  0  0  0  0  0  0  0  0  0
  140.5733   78.1501  220.2284 H   0  0  0  0  0  0  0  0  0  0  0  0
  141.0914   77.3853  223.4760 H   0  0  0  0  0  0  0  0  0  0  0  0
  141.6589   78.9981  225.2576 H   0  0  0  0  0  0  0  0  0  0  0  0
  142.5839   81.2375  224.6000 H   0  0  0  0  0  0  0  0  0  0  0  0
  142.8881   81.7299  222.2104 H   0  0  0  0  0  0  0  0  0  0  0  0
  141.0280   76.2490  222.5045 H   0  0  0  0  0  0  0  0  0  0  0  0
  139.5918   76.4389  221.5033 H   0  0  0  0  0  0  0  0  0  0  0  0
  138.7457   68.9763  222.8513 H   0  0  0  0  0  0  0  0  0  0  0  0
  138.9317   67.5371  224.8934 H   0  0  0  0  0  0  0  0  0  0  0  0
  139.6092   67.2450  227.1722 H   0  0  0  0  0  0  0  0  0  0  0  0
  141.5093   70.5056  229.2581 H   0  0  0  0  0  0  0  0  0  0  0  0
  141.3313   71.9392  227.2256 H   0  0  0  0  0  0  0  0  0  0  0  0
  1  2  2  0
  2  3  1  0
  3  4  1  0
  4  5  1  0
  5  6  2  0
  5  7  1  0
  7  8  1  0
  8  9  1  0
  9 10  1  0
 10 11  1  0
 11 12  2  0
 12 13  1  0
 13 14  2  0
 14 15  1  0
 15 16  2  0
 10 17  1  0
  2 18  1  0
 18 19  2  0
 19 20  1  0
 20 21  2  0
 21 22  1  0
 22 23  2  0
 23 24  1  0
 23 25  1  0
 25 26  2  0
 26 27  1  0
 27 28  2  0
 17  7  1  0
 28 18  1  0
 16 11  1  0
 27 21  1  0
  3 29  1  0
  4 30  1  0
  4 31  1  0
  8 32  1  0
  8 33  1  0
  9 34  1  0
  9 35  1  0
 10 36  1  6
 12 37  1  0
 13 38  1  0
 14 39  1  0
 15 40  1  0
 17 41  1  0
 17 42  1  0
 19 43  1  0
 20 44  1  0
 22 45  1  0
 25 46  1  0
 26 47  1  0
M  END
>  <smiles>  (50) 
O=C(NCC(=O)N1CC[C@H](c2ccccn2)C1)c1ccc2cc(F)ccc2n1

>  <score_type>  (50) 
oracle

>  <origin>  (50) 
autodockgpu

>  <m_score__min__energy>  (50) 
-8.8000000000000007

>  <m_primary>  (50) 
energy

>  <rmsd>  (50) 
2.1934169421088368

>  <m_score__min__rmsd>  (50) 
2.1934169421088368

>  <meeko>  (50) 
{"free_energy": -8.43, "intermolecular_energy": -9.92, "internal_energy": -1.08, "cluster_size": 41, "cluster_id": 1, "rank_in_cluster": 20}

>  <energy>  (50) 
-7.9

>  <cluster_rmsd>  (50) 
0.31

>  <cluster>  (50) 
4

$$$$
