
     RDKit          3D

 53 57  0  0  0  0  0  0  0  0999 V2000
  139.1990   67.4460  225.1870 O   0  0  0  0  0  0  0  0  0  0  0  0
  139.4390   68.6600  224.9950 C   0  0  0  0  0  0  0  0  0  0  0  0
  139.1310   69.2100  223.6490 C   0  0  0  0  0  0  0  0  0  0  0  0
  139.4660   70.6390  223.5800 C   0  0  0  0  0  0  0  0  0  0  0  0
  139.2380   71.3610  222.3220 C   0  0  0  0  0  0  0  0  0  0  0  0
  139.4410   70.7360  221.0970 C   0  0  0  0  0  0  0  0  0  0  0  0
  139.2290   71.4280  219.9160 C   0  0  0  0  0  0  0  0  0  0  0  0
  138.8180   72.7360  219.9950 C   0  0  0  0  0  0  0  0  0  0  0  0
  138.6000   73.4080  221.1790 C   0  0  0  0  0  0  0  0  0  0  0  0
  138.1640   74.8040  221.2290 C   0  0  0  0  0  0  0  0  0  0  0  0
  136.9980   75.0200  220.7460 O   0  0  0  0  0  0  0  0  0  0  0  0
  138.9450   75.8440  221.7600 N   0  0  0  0  0  0  0  0  0  0  0  0
  140.2550   75.6500  222.3110 C   0  0  0  0  0  0  0  0  0  0  0  0
  141.0250   76.8710  222.6280 C   0  0  0  0  0  0  0  0  0  0  0  0
  140.5390   78.1040  222.1050 N   0  0  0  0  0  0  0  0  0  0  0  0
  141.1080   79.3190  222.5730 C   0  0  0  0  0  0  0  0  0  0  0  0
  142.2090   79.2790  223.3920 C   0  0  0  0  0  0  0  0  0  0  0  0
  142.7520   80.4740  223.8450 C   0  0  0  0  0  0  0  0  0  0  0  0
  142.1690   81.6810  223.4590 C   0  0  0  0  0  0  0  0  0  0  0  0
  141.0600   81.6460  222.6290 C   0  0  0  0  0  0  0  0  0  0  0  0
  140.5450   80.4780  222.1970 N   0  0  0  0  0  0  0  0  0  0  0  0
  139.4810   78.0690  221.1130 C   0  0  0  0  0  0  0  0  0  0  0  0
  138.3910   77.1940  221.7470 C   0  0  0  0  0  0  0  0  0  0  0  0
  138.8230   72.6770  222.3430 C   0  0  0  0  0  0  0  0  0  0  0  0
  139.9610   71.2840  224.5810 N   0  0  0  0  0  0  0  0  0  0  0  0
  140.2510   70.7700  225.8490 C   0  0  0  0  0  0  0  0  0  0  0  0
  140.7800   71.6100  226.8050 C   0  0  0  0  0  0  0  0  0  0  0  0
  141.0660   71.1000  228.0520 C   0  0  0  0  0  0  0  0  0  0  0  0
  140.8190   69.7630  228.3190 C   0  0  0  0  0  0  0  0  0  0  0  0
  140.2840   68.9420  227.3290 C   0  0  0  0  0  0  0  0  0  0  0  0
  139.9910   69.4290  226.0820 C   0  0  0  0  0  0  0  0  0  0  0  0
  139.7171   68.6653  222.8941 H   0  0  0  0  0  0  0  0  0  0  0  0
  138.0544   69.0906  223.4573 H   0  0  0  0  0  0  0  0  0  0  0  0
  139.7714   69.6873  221.0654 H   0  0  0  0  0  0  0  0  0  0  0  0
  139.3856   70.9430  218.9412 H   0  0  0  0  0  0  0  0  0  0  0  0
  138.6523   73.2819  219.0545 H   0  0  0  0  0  0  0  0  0  0  0  0
  140.1441   75.0739  223.2415 H   0  0  0  0  0  0  0  0  0  0  0  0
  140.8293   75.1402  221.5234 H   0  0  0  0  0  0  0  0  0  0  0  0
  141.0570   76.9664  223.7234 H   0  0  0  0  0  0  0  0  0  0  0  0
  142.0010   76.7234  222.1426 H   0  0  0  0  0  0  0  0  0  0  0  0
  142.6536   78.3163  223.6845 H   0  0  0  0  0  0  0  0  0  0  0  0
  143.6340   80.4689  224.5023 H   0  0  0  0  0  0  0  0  0  0  0  0
  142.5809   82.6401  223.8061 H   0  0  0  0  0  0  0  0  0  0  0  0
  140.5906   82.5905  222.3165 H   0  0  0  0  0  0  0  0  0  0  0  0
  139.1003   79.0817  220.9142 H   0  0  0  0  0  0  0  0  0  0  0  0
  139.8260   77.6736  220.1462 H   0  0  0  0  0  0  0  0  0  0  0  0
  138.1724   77.5313  222.7709 H   0  0  0  0  0  0  0  0  0  0  0  0
  137.4451   77.2453  221.1879 H   0  0  0  0  0  0  0  0  0  0  0  0
  138.6625   73.1665  223.3149 H   0  0  0  0  0  0  0  0  0  0  0  0
  140.9704   72.6689  226.5761 H   0  0  0  0  0  0  0  0  0  0  0  0
  141.4883   71.7507  228.8319 H   0  0  0  0  0  0  0  0  0  0  0  0
  141.0454   69.3498  229.3130 H   0  0  0  0  0  0  0  0  0  0  0  0
  140.0930   67.8820  227.5525 H   0  0  0  0  0  0  0  0  0  0  0  0
  1  2  2  0
  2  3  1  0
  3  4  1  0
  4  5  1  0
  5  6  2  0
  6  7  1  0
  7  8  2  0
  8  9  1  0
  9 10  1  0
 10 11  2  0
 10 12  1  0
 12 13  1  0
 13 14  1  0
 14 15  1  0
 15 16  1  0
 16 17  2  0
 17 18  1  0
 18 19  2  0
 19 20  1  0
 20 21  2  0
 15 22  1  0
 22 23  1  0
  9 24  2  0
  4 25  2  0
 25 26  1  0
 26 27  2  0
 27 28  1  0
 28 29  2  0
 29 30  1  0
 30 31  2  0
 31  2  1  0
 24  5  1  0
 31 26  1  0
 23 12  1  0
 21 16  1  0
  3 32  1  0
  3 33  1  0
  6 34  1  0
  7 35  1  0
  8 36  1  0
 13 37  1  0
 13 38  1  0
 14 39  1  0
 14 40  1  0
 17 41  1  0
 18 42  1  0
 19 43  1  0
 20 44  1  0
 22 45  1  0
 22 46  1  0
 23 47  1  0
 23 48  1  0
 24 49  1  0
 27 50  1  0
 28 51  1  0
 29 52  1  0
 30 53  1  0
M  END
>  <smiles>  (1) 
O=C1CC(c2cccc(C(=O)N3CCN(c4ccccn4)CC3)c2)=Nc2ccccc21

>  <score_type>  (1) 
oracle

>  <origin>  (1) 
autodockgpu

>  <m_score__min__energy>  (1) 
-9.1400000000000006

>  <m_primary>  (1) 
energy

>  <rmsd>  (1) 
4.681528169039488

>  <m_score__min__rmsd>  (1) 
4.681528169039488

>  <meeko>  (1) 
{"free_energy": -9.14, "intermolecular_energy": -10.03, "internal_energy": -0.92, "cluster_size": 49, "cluster_id": 1, "rank_in_cluster": 8}

>  <energy>  (1) 
-9.14

>  <cluster_rmsd>  (1) 
0.0

>  <cluster>  (1) 
1

$$$$

     RDKit          3D

 53 57  0  0  0  0  0  0  0  0999 V2000
  139.2050   67.5790  225.3050 O   0  0  0  0  0  0  0  0  0  0  0  0
  139.4260   68.7910  225.0760 C   0  0  0  0  0  0  0  0  0  0  0  0
  139.0830   69.3010  223.7230 C   0  0  0  0  0  0  0  0  0  0  0  0
  139.3990   70.7320  223.6090 C   0  0  0  0  0  0  0  0  0  0  0  0
  139.1350   71.4170  222.3380 C   0  0  0  0  0  0  0  0  0  0  0  0
  139.2750   70.7480  221.1280 C   0  0  0  0  0  0  0  0  0  0  0  0
  139.0310   71.4060  219.9340 C   0  0  0  0  0  0  0  0  0  0  0  0
  138.6520   72.7260  219.9850 C   0  0  0  0  0  0  0  0  0  0  0  0
  138.4970   73.4400  221.1530 C   0  0  0  0  0  0  0  0  0  0  0  0
  138.0950   74.8470  221.1740 C   0  0  0  0  0  0  0  0  0  0  0  0
  136.9540   75.0860  220.6450 O   0  0  0  0  0  0  0  0  0  0  0  0
  138.8800   75.8730  221.7250 N   0  0  0  0  0  0  0  0  0  0  0  0
  140.1640   75.6520  222.3270 C   0  0  0  0  0  0  0  0  0  0  0  0
  140.9520   76.8570  222.6610 C   0  0  0  0  0  0  0  0  0  0  0  0
  140.5170   78.0960  222.1090 N   0  0  0  0  0  0  0  0  0  0  0  0
  141.0980   79.3010  222.5860 C   0  0  0  0  0  0  0  0  0  0  0  0
  142.2120   79.2450  223.3860 C   0  0  0  0  0  0  0  0  0  0  0  0
  142.7670   80.4300  223.8490 C   0  0  0  0  0  0  0  0  0  0  0  0
  142.1820   81.6460  223.4920 C   0  0  0  0  0  0  0  0  0  0  0  0
  141.0590   81.6280  222.6810 C   0  0  0  0  0  0  0  0  0  0  0  0
  140.5330   80.4690  222.2390 N   0  0  0  0  0  0  0  0  0  0  0  0
  139.4970   78.0780  221.0770 C   0  0  0  0  0  0  0  0  0  0  0  0
  138.3620   77.2360  221.6780 C   0  0  0  0  0  0  0  0  0  0  0  0
  138.7510   72.7430  222.3310 C   0  0  0  0  0  0  0  0  0  0  0  0
  139.9050   71.4090  224.5830 N   0  0  0  0  0  0  0  0  0  0  0  0
  140.2280   70.9320  225.8580 C   0  0  0  0  0  0  0  0  0  0  0  0
  140.7660   71.8030  226.7800 C   0  0  0  0  0  0  0  0  0  0  0  0
  141.0840   71.3300  228.0340 C   0  0  0  0  0  0  0  0  0  0  0  0
  140.8590   69.9980  228.3410 C   0  0  0  0  0  0  0  0  0  0  0  0
  140.3150   69.1450  227.3840 C   0  0  0  0  0  0  0  0  0  0  0  0
  139.9900   69.5940  226.1310 C   0  0  0  0  0  0  0  0  0  0  0  0
  139.6597   68.7433  222.9705 H   0  0  0  0  0  0  0  0  0  0  0  0
  138.0042   69.1639  223.5576 H   0  0  0  0  0  0  0  0  0  0  0  0
  139.5809   69.6914  221.1185 H   0  0  0  0  0  0  0  0  0  0  0  0
  139.1377   70.8859  218.9706 H   0  0  0  0  0  0  0  0  0  0  0  0
  138.4605   73.2447  219.0341 H   0  0  0  0  0  0  0  0  0  0  0  0
  140.0040   75.0886  223.2581 H   0  0  0  0  0  0  0  0  0  0  0  0
  140.7543   75.1197  221.5666 H   0  0  0  0  0  0  0  0  0  0  0  0
  140.9458   76.9628  223.7559 H   0  0  0  0  0  0  0  0  0  0  0  0
  141.9412   76.6804  222.2135 H   0  0  0  0  0  0  0  0  0  0  0  0
  142.6579   78.2763  223.6559 H   0  0  0  0  0  0  0  0  0  0  0  0
  143.6597   80.4110  224.4914 H   0  0  0  0  0  0  0  0  0  0  0  0
  142.6036   82.5980  223.8470 H   0  0  0  0  0  0  0  0  0  0  0  0
  140.5874   82.5789  222.3922 H   0  0  0  0  0  0  0  0  0  0  0  0
  139.1497   79.0978  220.8549 H   0  0  0  0  0  0  0  0  0  0  0  0
  139.8681   77.6654  220.1272 H   0  0  0  0  0  0  0  0  0  0  0  0
  138.1137   77.5893  222.6897 H   0  0  0  0  0  0  0  0  0  0  0  0
  137.4396   77.3048  221.0826 H   0  0  0  0  0  0  0  0  0  0  0  0
  138.6417   73.2681  223.2914 H   0  0  0  0  0  0  0  0  0  0  0  0
  140.9386   72.8576  226.5193 H   0  0  0  0  0  0  0  0  0  0  0  0
  141.5142   72.0062  228.7875 H   0  0  0  0  0  0  0  0  0  0  0  0
  141.1100   69.6141  229.3408 H   0  0  0  0  0  0  0  0  0  0  0  0
  140.1427   68.0890  227.6393 H   0  0  0  0  0  0  0  0  0  0  0  0
  1  2  2  0
  2  3  1  0
  3  4  1  0
  4  5  1  0
  5  6  2  0
  6  7  1  0
  7  8  2  0
  8  9  1  0
  9 10  1  0
 10 11  2  0
 10 12  1  0
 12 13  1  0
 13 14  1  0
 14 15  1  0
 15 16  1  0
 16 17  2  0
 17 18  1  0
 18 19  2  0
 19 20  1  0
 20 21  2  0
 15 22  1  0
 22 23  1  0
  9 24  2  0
  4 25  2  0
 25 26  1  0
 26 27  2  0
 27 28  1  0
 28 29  2  0
 29 30  1  0
 30 31  2  0
 31  2  1  0
 24  5  1  0
 31 26  1  0
 23 12  1  0
 21 16  1  0
  3 32  1  0
  3 33  1  0
  6 34  1  0
  7 35  1  0
  8 36  1  0
 13 37  1  0
 13 38  1  0
 14 39  1  0
 14 40  1  0
 17 41  1  0
 18 42  1  0
 19 43  1  0
 20 44  1  0
 22 45  1  0
 22 46  1  0
 23 47  1  0
 23 48  1  0
 24 49  1  0
 27 50  1  0
 28 51  1  0
 29 52  1  0
 30 53  1  0
M  END
>  <smiles>  (2) 
O=C1CC(c2cccc(C(=O)N3CCN(c4ccccn4)CC3)c2)=Nc2ccccc21

>  <score_type>  (2) 
oracle

>  <origin>  (2) 
autodockgpu

>  <m_score__min__energy>  (2) 
-9.1400000000000006

>  <m_primary>  (2) 
energy

>  <rmsd>  (2) 
4.669020616659253

>  <m_score__min__rmsd>  (2) 
4.669020616659253

>  <meeko>  (2) 
{"free_energy": -9.14, "intermolecular_energy": -10.03, "internal_energy": -0.92, "cluster_size": 49, "cluster_id": 1, "rank_in_cluster": 12}

>  <energy>  (2) 
-9.14

>  <cluster_rmsd>  (2) 
0.02

>  <cluster>  (2) 
1

$$$$

     RDKit          3D

 53 57  0  0  0  0  0  0  0  0999 V2000
  139.1970   67.5490  225.2940 O   0  0  0  0  0  0  0  0  0  0  0  0
  139.4300   68.7580  225.0670 C   0  0  0  0  0  0  0  0  0  0  0  0
  139.0860   69.2760  223.7170 C   0  0  0  0  0  0  0  0  0  0  0  0
  139.4180   70.7030  223.6040 C   0  0  0  0  0  0  0  0  0  0  0  0
  139.1550   71.3940  222.3360 C   0  0  0  0  0  0  0  0  0  0  0  0
  139.3040   70.7320  221.1220 C   0  0  0  0  0  0  0  0  0  0  0  0
  139.0600   71.3960  219.9310 C   0  0  0  0  0  0  0  0  0  0  0  0
  138.6740   72.7130  219.9880 C   0  0  0  0  0  0  0  0  0  0  0  0
  138.5100   73.4200  221.1600 C   0  0  0  0  0  0  0  0  0  0  0  0
  138.1000   74.8240  221.1870 C   0  0  0  0  0  0  0  0  0  0  0  0
  136.9550   75.0590  220.6650 O   0  0  0  0  0  0  0  0  0  0  0  0
  138.8830   75.8540  221.7350 N   0  0  0  0  0  0  0  0  0  0  0  0
  140.1710   75.6380  222.3290 C   0  0  0  0  0  0  0  0  0  0  0  0
  140.9540   76.8470  222.6620 C   0  0  0  0  0  0  0  0  0  0  0  0
  140.5090   78.0850  222.1160 N   0  0  0  0  0  0  0  0  0  0  0  0
  141.0860   79.2920  222.5930 C   0  0  0  0  0  0  0  0  0  0  0  0
  142.2100   79.2400  223.3790 C   0  0  0  0  0  0  0  0  0  0  0  0
  142.7610   80.4280  223.8420 C   0  0  0  0  0  0  0  0  0  0  0  0
  142.1620   81.6410  223.4990 C   0  0  0  0  0  0  0  0  0  0  0  0
  141.0290   81.6180  222.7010 C   0  0  0  0  0  0  0  0  0  0  0  0
  140.5070   80.4570  222.2590 N   0  0  0  0  0  0  0  0  0  0  0  0
  139.4820   78.0630  221.0910 C   0  0  0  0  0  0  0  0  0  0  0  0
  138.3560   77.2140  221.6960 C   0  0  0  0  0  0  0  0  0  0  0  0
  138.7640   72.7170  222.3350 C   0  0  0  0  0  0  0  0  0  0  0  0
  139.9370   71.3720  224.5760 N   0  0  0  0  0  0  0  0  0  0  0  0
  140.2610   70.8890  225.8490 C   0  0  0  0  0  0  0  0  0  0  0  0
  140.8130   71.7520  226.7700 C   0  0  0  0  0  0  0  0  0  0  0  0
  141.1320   71.2720  228.0210 C   0  0  0  0  0  0  0  0  0  0  0  0
  140.8940   69.9430  228.3260 C   0  0  0  0  0  0  0  0  0  0  0  0
  140.3350   69.0970  227.3710 C   0  0  0  0  0  0  0  0  0  0  0  0
  140.0090   69.5530  226.1200 C   0  0  0  0  0  0  0  0  0  0  0  0
  139.6520   68.7133  222.9601 H   0  0  0  0  0  0  0  0  0  0  0  0
  138.0046   69.1525  223.5576 H   0  0  0  0  0  0  0  0  0  0  0  0
  139.6167   69.6775  221.1075 H   0  0  0  0  0  0  0  0  0  0  0  0
  139.1724   70.8821  218.9650 H   0  0  0  0  0  0  0  0  0  0  0  0
  138.4839   73.2362  219.0393 H   0  0  0  0  0  0  0  0  0  0  0  0
  140.0193   75.0711  223.2594 H   0  0  0  0  0  0  0  0  0  0  0  0
  140.7600   75.1107  221.5641 H   0  0  0  0  0  0  0  0  0  0  0  0
  140.9533   76.9497  223.7572 H   0  0  0  0  0  0  0  0  0  0  0  0
  141.9416   76.6773  222.2084 H   0  0  0  0  0  0  0  0  0  0  0  0
  142.6669   78.2735  223.6380 H   0  0  0  0  0  0  0  0  0  0  0  0
  143.6616   80.4129  224.4735 H   0  0  0  0  0  0  0  0  0  0  0  0
  142.5800   82.5945  223.8542 H   0  0  0  0  0  0  0  0  0  0  0  0
  140.5463   82.5665  222.4229 H   0  0  0  0  0  0  0  0  0  0  0  0
  139.1275   79.0813  220.8734 H   0  0  0  0  0  0  0  0  0  0  0  0
  139.8495   77.6539  220.1383 H   0  0  0  0  0  0  0  0  0  0  0  0
  138.1121   77.5627  222.7104 H   0  0  0  0  0  0  0  0  0  0  0  0
  137.4291   77.2796  221.1073 H   0  0  0  0  0  0  0  0  0  0  0  0
  138.6486   73.2359  223.2981 H   0  0  0  0  0  0  0  0  0  0  0  0
  140.9957   72.8054  226.5110 H   0  0  0  0  0  0  0  0  0  0  0  0
  141.5737   71.9414  228.7739 H   0  0  0  0  0  0  0  0  0  0  0  0
  141.1466   69.5545  229.3236 H   0  0  0  0  0  0  0  0  0  0  0  0
  140.1516   68.0427  227.6256 H   0  0  0  0  0  0  0  0  0  0  0  0
  1  2  2  0
  2  3  1  0
  3  4  1  0
  4  5  1  0
  5  6  2  0
  6  7  1  0
  7  8  2  0
  8  9  1  0
  9 10  1  0
 10 11  2  0
 10 12  1  0
 12 13  1  0
 13 14  1  0
 14 15  1  0
 15 16  1  0
 16 17  2  0
 17 18  1  0
 18 19  2  0
 19 20  1  0
 20 21  2  0
 15 22  1  0
 22 23  1  0
  9 24  2  0
  4 25  2  0
 25 26  1  0
 26 27  2  0
 27 28  1  0
 28 29  2  0
 29 30  1  0
 30 31  2  0
 31  2  1  0
 24  5  1  0
 31 26  1  0
 23 12  1  0
 21 16  1  0
  3 32  1  0
  3 33  1  0
  6 34  1  0
  7 35  1  0
  8 36  1  0
 13 37  1  0
 13 38  1  0
 14 39  1  0
 14 40  1  0
 17 41  1  0
 18 42  1  0
 19 43  1  0
 20 44  1  0
 22 45  1  0
 22 46  1  0
 23 47  1  0
 23 48  1  0
 24 49  1  0
 27 50  1  0
 28 51  1  0
 29 52  1  0
 30 53  1  0
M  END
>  <smiles>  (3) 
O=C1CC(c2cccc(C(=O)N3CCN(c4ccccn4)CC3)c2)=Nc2ccccc21

>  <score_type>  (3) 
oracle

>  <origin>  (3) 
autodockgpu

>  <m_score__min__energy>  (3) 
-9.1400000000000006

>  <m_primary>  (3) 
energy

>  <rmsd>  (3) 
4.663106081931212

>  <m_score__min__rmsd>  (3) 
4.663106081931212

>  <meeko>  (3) 
{"free_energy": -9.13, "intermolecular_energy": -10.03, "internal_energy": -0.92, "cluster_size": 49, "cluster_id": 1, "rank_in_cluster": 14}

>  <energy>  (3) 
-9.14

>  <cluster_rmsd>  (3) 
0.05

>  <cluster>  (3) 
1

$$$$

     RDKit          3D

 53 57  0  0  0  0  0  0  0  0999 V2000
  139.1880   67.5450  225.2750 O   0  0  0  0  0  0  0  0  0  0  0  0
  139.4240   68.7560  225.0560 C   0  0  0  0  0  0  0  0  0  0  0  0
  139.0990   69.2790  223.7040 C   0  0  0  0  0  0  0  0  0  0  0  0
  139.4330   70.7060  223.6030 C   0  0  0  0  0  0  0  0  0  0  0  0
  139.1880   71.4030  222.3330 C   0  0  0  0  0  0  0  0  0  0  0  0
  139.3590   70.7480  221.1190 C   0  0  0  0  0  0  0  0  0  0  0  0
  139.1330   71.4170  219.9280 C   0  0  0  0  0  0  0  0  0  0  0  0
  138.7400   72.7320  219.9850 C   0  0  0  0  0  0  0  0  0  0  0  0
  138.5540   73.4330  221.1570 C   0  0  0  0  0  0  0  0  0  0  0  0
  138.1390   74.8350  221.1850 C   0  0  0  0  0  0  0  0  0  0  0  0
  136.9900   75.0640  220.6660 O   0  0  0  0  0  0  0  0  0  0  0  0
  138.9180   75.8680  221.7310 N   0  0  0  0  0  0  0  0  0  0  0  0
  140.2090   75.6590  222.3220 C   0  0  0  0  0  0  0  0  0  0  0  0
  140.9880   76.8710  222.6520 C   0  0  0  0  0  0  0  0  0  0  0  0
  140.5350   78.1070  222.1060 N   0  0  0  0  0  0  0  0  0  0  0  0
  141.1090   79.3170  222.5810 C   0  0  0  0  0  0  0  0  0  0  0  0
  142.2160   79.2690  223.3900 C   0  0  0  0  0  0  0  0  0  0  0  0
  142.7630   80.4590  223.8510 C   0  0  0  0  0  0  0  0  0  0  0  0
  142.1770   81.6700  223.4820 C   0  0  0  0  0  0  0  0  0  0  0  0
  141.0610   81.6430  222.6610 C   0  0  0  0  0  0  0  0  0  0  0  0
  140.5420   80.4800  222.2220 N   0  0  0  0  0  0  0  0  0  0  0  0
  139.5060   78.0800  221.0840 C   0  0  0  0  0  0  0  0  0  0  0  0
  138.3850   77.2260  221.6920 C   0  0  0  0  0  0  0  0  0  0  0  0
  138.7910   72.7250  222.3330 C   0  0  0  0  0  0  0  0  0  0  0  0
  139.9380   71.3710  224.5850 N   0  0  0  0  0  0  0  0  0  0  0  0
  140.2440   70.8830  225.8590 C   0  0  0  0  0  0  0  0  0  0  0  0
  140.7840   71.7410  226.7920 C   0  0  0  0  0  0  0  0  0  0  0  0
  141.0850   71.2560  228.0460 C   0  0  0  0  0  0  0  0  0  0  0  0
  140.8420   69.9250  228.3420 C   0  0  0  0  0  0  0  0  0  0  0  0
  140.2970   69.0840  227.3750 C   0  0  0  0  0  0  0  0  0  0  0  0
  139.9880   69.5460  226.1210 C   0  0  0  0  0  0  0  0  0  0  0  0
  139.6756   68.7195  222.9526 H   0  0  0  0  0  0  0  0  0  0  0  0
  138.0202   69.1559  223.5281 H   0  0  0  0  0  0  0  0  0  0  0  0
  139.6750   69.6945  221.1044 H   0  0  0  0  0  0  0  0  0  0  0  0
  139.2647   70.9087  218.9614 H   0  0  0  0  0  0  0  0  0  0  0  0
  138.5626   73.2586  219.0357 H   0  0  0  0  0  0  0  0  0  0  0  0
  140.0623   75.0923  223.2533 H   0  0  0  0  0  0  0  0  0  0  0  0
  140.7982   75.1343  221.5555 H   0  0  0  0  0  0  0  0  0  0  0  0
  140.9904   76.9745  223.7471 H   0  0  0  0  0  0  0  0  0  0  0  0
  141.9753   76.7054  222.1961 H   0  0  0  0  0  0  0  0  0  0  0  0
  142.6630   78.3034  223.6689 H   0  0  0  0  0  0  0  0  0  0  0  0
  143.6502   80.4470  224.5012 H   0  0  0  0  0  0  0  0  0  0  0  0
  142.5918   82.6256  223.8351 H   0  0  0  0  0  0  0  0  0  0  0  0
  140.5893   82.5906  222.3616 H   0  0  0  0  0  0  0  0  0  0  0  0
  139.1464   79.0967  220.8669 H   0  0  0  0  0  0  0  0  0  0  0  0
  139.8731   77.6722  220.1306 H   0  0  0  0  0  0  0  0  0  0  0  0
  138.1416   77.5743  222.7066 H   0  0  0  0  0  0  0  0  0  0  0  0
  137.4567   77.2870  221.1050 H   0  0  0  0  0  0  0  0  0  0  0  0
  138.6569   73.2381  223.2967 H   0  0  0  0  0  0  0  0  0  0  0  0
  140.9716   72.7952  226.5401 H   0  0  0  0  0  0  0  0  0  0  0  0
  141.5160   71.9222  228.8079 H   0  0  0  0  0  0  0  0  0  0  0  0
  141.0796   69.5319  229.3415 H   0  0  0  0  0  0  0  0  0  0  0  0
  140.1106   68.0283  227.6217 H   0  0  0  0  0  0  0  0  0  0  0  0
  1  2  2  0
  2  3  1  0
  3  4  1  0
  4  5  1  0
  5  6  2  0
  6  7  1  0
  7  8  2  0
  8  9  1  0
  9 10  1  0
 10 11  2  0
 10 12  1  0
 12 13  1  0
 13 14  1  0
 14 15  1  0
 15 16  1  0
 16 17  2  0
 17 18  1  0
 18 19  2  0
 19 20  1  0
 20 21  2  0
 15 22  1  0
 22 23  1  0
  9 24  2  0
  4 25  2  0
 25 26  1  0
 26 27  2  0
 27 28  1  0
 28 29  2  0
 29 30  1  0
 30 31  2  0
 31  2  1  0
 24  5  1  0
 31 26  1  0
 23 12  1  0
 21 16  1  0
  3 32  1  0
  3 33  1  0
  6 34  1  0
  7 35  1  0
  8 36  1  0
 13 37  1  0
 13 38  1  0
 14 39  1  0
 14 40  1  0
 17 41  1  0
 18 42  1  0
 19 43  1  0
 20 44  1  0
 22 45  1  0
 22 46  1  0
 23 47  1  0
 23 48  1  0
 24 49  1  0
 27 50  1  0
 28 51  1  0
 29 52  1  0
 30 53  1  0
M  END
>  <smiles>  (4) 
O=C1CC(c2cccc(C(=O)N3CCN(c4ccccn4)CC3)c2)=Nc2ccccc21

>  <score_type>  (4) 
oracle

>  <origin>  (4) 
autodockgpu

>  <m_score__min__energy>  (4) 
-9.1400000000000006

>  <m_primary>  (4) 
energy

>  <rmsd>  (4) 
4.677413226245966

>  <m_score__min__rmsd>  (4) 
4.677413226245966

>  <meeko>  (4) 
{"free_energy": -9.14, "intermolecular_energy": -10.03, "internal_energy": -0.92, "cluster_size": 49, "cluster_id": 1, "rank_in_cluster": 13}

>  <energy>  (4) 
-9.14

>  <cluster_rmsd>  (4) 
0.05

>  <cluster>  (4) 
1

$$$$

     RDKit          3D

 53 57  0  0  0  0  0  0  0  0999 V2000
  139.2180   67.3510  225.6960 O   0  0  0  0  0  0  0  0  0  0  0  0
  139.3030   68.5610  225.3820 C   0  0  0  0  0  0  0  0  0  0  0  0
  138.7310   68.9640  224.0710 C   0  0  0  0  0  0  0  0  0  0  0  0
  138.9080   70.4060  223.8460 C   0  0  0  0  0  0  0  0  0  0  0  0
  138.4120   70.9940  222.5950 C   0  0  0  0  0  0  0  0  0  0  0  0
  137.2090   70.5730  222.0400 C   0  0  0  0  0  0  0  0  0  0  0  0
  136.7530   71.1300  220.8570 C   0  0  0  0  0  0  0  0  0  0  0  0
  137.5200   72.0990  220.2570 C   0  0  0  0  0  0  0  0  0  0  0  0
  138.7190   72.5560  220.7600 C   0  0  0  0  0  0  0  0  0  0  0  0
  139.5150   73.5880  220.0950 C   0  0  0  0  0  0  0  0  0  0  0  0
  139.9570   73.2620  218.9380 O   0  0  0  0  0  0  0  0  0  0  0  0
  139.7890   74.8450  220.6590 N   0  0  0  0  0  0  0  0  0  0  0  0
  139.3170   75.2530  221.9510 C   0  0  0  0  0  0  0  0  0  0  0  0
  139.8700   76.5150  222.4870 C   0  0  0  0  0  0  0  0  0  0  0  0
  141.0120   77.0580  221.8310 N   0  0  0  0  0  0  0  0  0  0  0  0
  141.4310   78.3750  222.1620 C   0  0  0  0  0  0  0  0  0  0  0  0
  141.5060   79.3280  221.1770 C   0  0  0  0  0  0  0  0  0  0  0  0
  141.9220   80.6100  221.5140 C   0  0  0  0  0  0  0  0  0  0  0  0
  142.2520   80.8970  222.8390 C   0  0  0  0  0  0  0  0  0  0  0  0
  142.1520   79.8850  223.7810 C   0  0  0  0  0  0  0  0  0  0  0  0
  141.7470   78.6470  223.4390 N   0  0  0  0  0  0  0  0  0  0  0  0
  141.7040   76.2430  220.8510 C   0  0  0  0  0  0  0  0  0  0  0  0
  140.6000   75.7820  219.8890 C   0  0  0  0  0  0  0  0  0  0  0  0
  139.1420   71.9720  221.9510 C   0  0  0  0  0  0  0  0  0  0  0  0
  139.4880   71.1750  224.7020 N   0  0  0  0  0  0  0  0  0  0  0  0
  140.0260   70.7990  225.9380 C   0  0  0  0  0  0  0  0  0  0  0  0
  140.6140   71.7600  226.7310 C   0  0  0  0  0  0  0  0  0  0  0  0
  141.1440   71.3860  227.9460 C   0  0  0  0  0  0  0  0  0  0  0  0
  141.0760   70.0610  228.3440 C   0  0  0  0  0  0  0  0  0  0  0  0
  140.4750   69.1150  227.5170 C   0  0  0  0  0  0  0  0  0  0  0  0
  139.9410   69.4650  226.3050 C   0  0  0  0  0  0  0  0  0  0  0  0
  139.2399   68.4087  223.2694 H   0  0  0  0  0  0  0  0  0  0  0  0
  137.6548   68.7363  224.0706 H   0  0  0  0  0  0  0  0  0  0  0  0
  136.6168   69.7941  222.5426 H   0  0  0  0  0  0  0  0  0  0  0  0
  135.8020   70.8052  220.4096 H   0  0  0  0  0  0  0  0  0  0  0  0
  137.1545   72.5374  219.3167 H   0  0  0  0  0  0  0  0  0  0  0  0
  138.2248   75.3672  221.8871 H   0  0  0  0  0  0  0  0  0  0  0  0
  139.6545   74.4692  222.6451 H   0  0  0  0  0  0  0  0  0  0  0  0
  139.0722   77.2710  222.4418 H   0  0  0  0  0  0  0  0  0  0  0  0
  140.2187   76.2633  223.4995 H   0  0  0  0  0  0  0  0  0  0  0  0
  141.2412   79.0809  220.1383 H   0  0  0  0  0  0  0  0  0  0  0  0
  141.9906   81.3918  220.7432 H   0  0  0  0  0  0  0  0  0  0  0  0
  142.5843   81.9045  223.1298 H   0  0  0  0  0  0  0  0  0  0  0  0
  142.4087   80.0975  224.8293 H   0  0  0  0  0  0  0  0  0  0  0  0
  142.4623   76.8353  220.3179 H   0  0  0  0  0  0  0  0  0  0  0  0
  142.2388   75.3988  221.3106 H   0  0  0  0  0  0  0  0  0  0  0  0
  139.9927   76.6381  219.5601 H   0  0  0  0  0  0  0  0  0  0  0  0
  141.0129   75.3187  218.9808 H   0  0  0  0  0  0  0  0  0  0  0  0
  140.0928   72.3023  222.3948 H   0  0  0  0  0  0  0  0  0  0  0  0
  140.6594   72.8079  226.3995 H   0  0  0  0  0  0  0  0  0  0  0  0
  141.6186   72.1353  228.5966 H   0  0  0  0  0  0  0  0  0  0  0  0
  141.4968   69.7558  229.3134 H   0  0  0  0  0  0  0  0  0  0  0  0
  140.4282   68.0657  227.8437 H   0  0  0  0  0  0  0  0  0  0  0  0
  1  2  2  0
  2  3  1  0
  3  4  1  0
  4  5  1  0
  5  6  2  0
  6  7  1  0
  7  8  2  0
  8  9  1  0
  9 10  1  0
 10 11  2  0
 10 12  1  0
 12 13  1  0
 13 14  1  0
 14 15  1  0
 15 16  1  0
 16 17  2  0
 17 18  1  0
 18 19  2  0
 19 20  1  0
 20 21  2  0
 15 22  1  0
 22 23  1  0
  9 24  2  0
  4 25  2  0
 25 26  1  0
 26 27  2  0
 27 28  1  0
 28 29  2  0
 29 30  1  0
 30 31  2  0
 31  2  1  0
 24  5  1  0
 31 26  1  0
 23 12  1  0
 21 16  1  0
  3 32  1  0
  3 33  1  0
  6 34  1  0
  7 35  1  0
  8 36  1  0
 13 37  1  0
 13 38  1  0
 14 39  1  0
 14 40  1  0
 17 41  1  0
 18 42  1  0
 19 43  1  0
 20 44  1  0
 22 45  1  0
 22 46  1  0
 23 47  1  0
 23 48  1  0
 24 49  1  0
 27 50  1  0
 28 51  1  0
 29 52  1  0
 30 53  1  0
M  END
>  <smiles>  (5) 
O=C1CC(c2cccc(C(=O)N3CCN(c4ccccn4)CC3)c2)=Nc2ccccc21

>  <score_type>  (5) 
oracle

>  <origin>  (5) 
autodockgpu

>  <m_score__min__energy>  (5) 
-9.1400000000000006

>  <m_primary>  (5) 
energy

>  <rmsd>  (5) 
3.8022308536205394

>  <m_score__min__rmsd>  (5) 
3.8022308536205394

>  <meeko>  (5) 
{"free_energy": -9.02, "intermolecular_energy": -9.91, "internal_energy": -0.93, "cluster_size": 49, "cluster_id": 1, "rank_in_cluster": 44}

>  <energy>  (5) 
-9.14

>  <cluster_rmsd>  (5) 
0.03

>  <cluster>  (5) 
1

$$$$

     RDKit          3D

 53 57  0  0  0  0  0  0  0  0999 V2000
  139.2120   67.4680  225.2380 O   0  0  0  0  0  0  0  0  0  0  0  0
  139.4340   68.6840  225.0340 C   0  0  0  0  0  0  0  0  0  0  0  0
  139.0980   69.2210  223.6900 C   0  0  0  0  0  0  0  0  0  0  0  0
  139.4140   70.6530  223.6050 C   0  0  0  0  0  0  0  0  0  0  0  0
  139.1570   71.3640  222.3460 C   0  0  0  0  0  0  0  0  0  0  0  0
  139.3230   70.7240  221.1230 C   0  0  0  0  0  0  0  0  0  0  0  0
  139.0850   71.4050  219.9420 C   0  0  0  0  0  0  0  0  0  0  0  0
  138.6860   72.7180  220.0170 C   0  0  0  0  0  0  0  0  0  0  0  0
  138.5050   73.4030  221.1990 C   0  0  0  0  0  0  0  0  0  0  0  0
  138.0820   74.8030  221.2460 C   0  0  0  0  0  0  0  0  0  0  0  0
  136.9100   75.0250  220.7800 O   0  0  0  0  0  0  0  0  0  0  0  0
  138.8790   75.8410  221.7560 N   0  0  0  0  0  0  0  0  0  0  0  0
  140.1970   75.6400  222.2870 C   0  0  0  0  0  0  0  0  0  0  0  0
  140.9820   76.8570  222.5810 C   0  0  0  0  0  0  0  0  0  0  0  0
  140.4980   78.0900  222.0570 N   0  0  0  0  0  0  0  0  0  0  0  0
  141.0850   79.3030  222.5050 C   0  0  0  0  0  0  0  0  0  0  0  0
  142.1150   79.2620  223.4120 C   0  0  0  0  0  0  0  0  0  0  0  0
  142.6770   80.4560  223.8450 C   0  0  0  0  0  0  0  0  0  0  0  0
  142.1820   81.6640  223.3520 C   0  0  0  0  0  0  0  0  0  0  0  0
  141.1400   81.6300  222.4390 C   0  0  0  0  0  0  0  0  0  0  0  0
  140.6070   80.4630  222.0270 N   0  0  0  0  0  0  0  0  0  0  0  0
  139.4230   78.0570  221.0830 C   0  0  0  0  0  0  0  0  0  0  0  0
  138.3370   77.1950  221.7420 C   0  0  0  0  0  0  0  0  0  0  0  0
  138.7540   72.6830  222.3640 C   0  0  0  0  0  0  0  0  0  0  0  0
  139.9160   71.3110  224.5940 N   0  0  0  0  0  0  0  0  0  0  0  0
  140.2320   70.8090  225.8620 C   0  0  0  0  0  0  0  0  0  0  0  0
  140.7650   71.6620  226.8040 C   0  0  0  0  0  0  0  0  0  0  0  0
  141.0770   71.1640  228.0500 C   0  0  0  0  0  0  0  0  0  0  0  0
  140.8500   69.8270  228.3290 C   0  0  0  0  0  0  0  0  0  0  0  0
  140.3110   68.9920  227.3530 C   0  0  0  0  0  0  0  0  0  0  0  0
  139.9930   69.4660  226.1070 C   0  0  0  0  0  0  0  0  0  0  0  0
  139.6785   68.6781  222.9296 H   0  0  0  0  0  0  0  0  0  0  0  0
  138.0199   69.0876  223.5171 H   0  0  0  0  0  0  0  0  0  0  0  0
  139.6447   69.6725  221.0940 H   0  0  0  0  0  0  0  0  0  0  0  0
  139.2119   70.9084  218.9687 H   0  0  0  0  0  0  0  0  0  0  0  0
  138.4996   73.2553  219.0754 H   0  0  0  0  0  0  0  0  0  0  0  0
  140.0969   75.0724  223.2239 H   0  0  0  0  0  0  0  0  0  0  0  0
  140.7539   75.1188  221.4944 H   0  0  0  0  0  0  0  0  0  0  0  0
  141.0335   76.9606  223.6749 H   0  0  0  0  0  0  0  0  0  0  0  0
  141.9480   76.6974  222.0797 H   0  0  0  0  0  0  0  0  0  0  0  0
  142.4891   78.2990  223.7896 H   0  0  0  0  0  0  0  0  0  0  0  0
  143.5045   80.4495  224.5697 H   0  0  0  0  0  0  0  0  0  0  0  0
  142.6097   82.6226  223.6810 H   0  0  0  0  0  0  0  0  0  0  0  0
  140.7399   82.5749  222.0426 H   0  0  0  0  0  0  0  0  0  0  0  0
  139.0471   79.0714  220.8836 H   0  0  0  0  0  0  0  0  0  0  0  0
  139.7482   77.6525  220.1131 H   0  0  0  0  0  0  0  0  0  0  0  0
  138.1387   77.5416  222.7670 H   0  0  0  0  0  0  0  0  0  0  0  0
  137.3825   77.2499  221.1981 H   0  0  0  0  0  0  0  0  0  0  0  0
  138.6246   73.1843  223.3345 H   0  0  0  0  0  0  0  0  0  0  0  0
  140.9383   72.7217  226.5653 H   0  0  0  0  0  0  0  0  0  0  0  0
  141.5040   71.8248  228.8188 H   0  0  0  0  0  0  0  0  0  0  0  0
  141.0956   69.4237  229.3225 H   0  0  0  0  0  0  0  0  0  0  0  0
  140.1372   67.9313  227.5869 H   0  0  0  0  0  0  0  0  0  0  0  0
  1  2  2  0
  2  3  1  0
  3  4  1  0
  4  5  1  0
  5  6  2  0
  6  7  1  0
  7  8  2  0
  8  9  1  0
  9 10  1  0
 10 11  2  0
 10 12  1  0
 12 13  1  0
 13 14  1  0
 14 15  1  0
 15 16  1  0
 16 17  2  0
 17 18  1  0
 18 19  2  0
 19 20  1  0
 20 21  2  0
 15 22  1  0
 22 23  1  0
  9 24  2  0
  4 25  2  0
 25 26  1  0
 26 27  2  0
 27 28  1  0
 28 29  2  0
 29 30  1  0
 30 31  2  0
 31  2  1  0
 24  5  1  0
 31 26  1  0
 23 12  1  0
 21 16  1  0
  3 32  1  0
  3 33  1  0
  6 34  1  0
  7 35  1  0
  8 36  1  0
 13 37  1  0
 13 38  1  0
 14 39  1  0
 14 40  1  0
 17 41  1  0
 18 42  1  0
 19 43  1  0
 20 44  1  0
 22 45  1  0
 22 46  1  0
 23 47  1  0
 23 48  1  0
 24 49  1  0
 27 50  1  0
 28 51  1  0
 29 52  1  0
 30 53  1  0
M  END
>  <smiles>  (6) 
O=C1CC(c2cccc(C(=O)N3CCN(c4ccccn4)CC3)c2)=Nc2ccccc21

>  <score_type>  (6) 
oracle

>  <origin>  (6) 
autodockgpu

>  <m_score__min__energy>  (6) 
-9.1400000000000006

>  <m_primary>  (6) 
energy

>  <rmsd>  (6) 
4.659239206434707

>  <m_score__min__rmsd>  (6) 
4.659239206434707

>  <meeko>  (6) 
{"free_energy": -9.11, "intermolecular_energy": -10.01, "internal_energy": -0.92, "cluster_size": 49, "cluster_id": 1, "rank_in_cluster": 25}

>  <energy>  (6) 
-9.14

>  <cluster_rmsd>  (6) 
0.06

>  <cluster>  (6) 
1

$$$$

     RDKit          3D

 53 57  0  0  0  0  0  0  0  0999 V2000
  139.1980   67.5650  225.2830 O   0  0  0  0  0  0  0  0  0  0  0  0
  139.4410   68.7730  225.0590 C   0  0  0  0  0  0  0  0  0  0  0  0
  139.1300   69.2900  223.7010 C   0  0  0  0  0  0  0  0  0  0  0  0
  139.4700   70.7150  223.5940 C   0  0  0  0  0  0  0  0  0  0  0  0
  139.2390   71.4050  222.3180 C   0  0  0  0  0  0  0  0  0  0  0  0
  139.4210   70.7440  221.1090 C   0  0  0  0  0  0  0  0  0  0  0  0
  139.2080   71.4060  219.9120 C   0  0  0  0  0  0  0  0  0  0  0  0
  138.8170   72.7220  219.9590 C   0  0  0  0  0  0  0  0  0  0  0  0
  138.6210   73.4290  221.1250 C   0  0  0  0  0  0  0  0  0  0  0  0
  138.2070   74.8330  221.1410 C   0  0  0  0  0  0  0  0  0  0  0  0
  137.0740   75.0640  220.5900 O   0  0  0  0  0  0  0  0  0  0  0  0
  138.9730   75.8640  221.7080 N   0  0  0  0  0  0  0  0  0  0  0  0
  140.2470   75.6530  222.3340 C   0  0  0  0  0  0  0  0  0  0  0  0
  141.0180   76.8630  222.6850 C   0  0  0  0  0  0  0  0  0  0  0  0
  140.5840   78.1000  222.1270 N   0  0  0  0  0  0  0  0  0  0  0  0
  141.1460   79.3090  222.6170 C   0  0  0  0  0  0  0  0  0  0  0  0
  142.2100   79.2580  223.4830 C   0  0  0  0  0  0  0  0  0  0  0  0
  142.7470   80.4470  223.9580 C   0  0  0  0  0  0  0  0  0  0  0  0
  142.1950   81.6610  223.5470 C   0  0  0  0  0  0  0  0  0  0  0  0
  141.1210   81.6370  222.6700 C   0  0  0  0  0  0  0  0  0  0  0  0
  140.6120   80.4740  222.2170 N   0  0  0  0  0  0  0  0  0  0  0  0
  139.5840   78.0750  221.0770 C   0  0  0  0  0  0  0  0  0  0  0  0
  138.4440   77.2230  221.6540 C   0  0  0  0  0  0  0  0  0  0  0  0
  138.8450   72.7280  222.3070 C   0  0  0  0  0  0  0  0  0  0  0  0
  139.9700   71.3840  224.5760 N   0  0  0  0  0  0  0  0  0  0  0  0
  140.2630   70.9020  225.8560 C   0  0  0  0  0  0  0  0  0  0  0  0
  140.7990   71.7640  226.7880 C   0  0  0  0  0  0  0  0  0  0  0  0
  141.0880   71.2850  228.0470 C   0  0  0  0  0  0  0  0  0  0  0  0
  140.8370   69.9570  228.3490 C   0  0  0  0  0  0  0  0  0  0  0  0
  140.2960   69.1120  227.3820 C   0  0  0  0  0  0  0  0  0  0  0  0
  140.0000   69.5670  226.1240 C   0  0  0  0  0  0  0  0  0  0  0  0
  139.7110   68.7240  222.9580 H   0  0  0  0  0  0  0  0  0  0  0  0
  138.0522   69.1703  223.5168 H   0  0  0  0  0  0  0  0  0  0  0  0
  139.7358   69.6900  221.1032 H   0  0  0  0  0  0  0  0  0  0  0  0
  139.3480   70.8922  218.9495 H   0  0  0  0  0  0  0  0  0  0  0  0
  138.6499   73.2443  219.0054 H   0  0  0  0  0  0  0  0  0  0  0  0
  140.0740   75.0865  223.2609 H   0  0  0  0  0  0  0  0  0  0  0  0
  140.8561   75.1274  221.5839 H   0  0  0  0  0  0  0  0  0  0  0  0
  140.9898   76.9666  223.7797 H   0  0  0  0  0  0  0  0  0  0  0  0
  142.0169   76.6952  222.2561 H   0  0  0  0  0  0  0  0  0  0  0  0
  142.6303   78.2907  223.7955 H   0  0  0  0  0  0  0  0  0  0  0  0
  143.6001   80.4322  224.6522 H   0  0  0  0  0  0  0  0  0  0  0  0
  142.6027   82.6158  223.9106 H   0  0  0  0  0  0  0  0  0  0  0  0
  140.6755   82.5862  222.3374 H   0  0  0  0  0  0  0  0  0  0  0  0
  139.2328   79.0924  220.8499 H   0  0  0  0  0  0  0  0  0  0  0  0
  139.9766   77.6662  220.1343 H   0  0  0  0  0  0  0  0  0  0  0  0
  138.1732   77.5720  222.6614 H   0  0  0  0  0  0  0  0  0  0  0  0
  137.5325   77.2858  221.0414 H   0  0  0  0  0  0  0  0  0  0  0  0
  138.7029   73.2470  223.2664 H   0  0  0  0  0  0  0  0  0  0  0  0
  140.9927   72.8159  226.5313 H   0  0  0  0  0  0  0  0  0  0  0  0
  141.5158   71.9539  228.8083 H   0  0  0  0  0  0  0  0  0  0  0  0
  141.0648   69.5690  229.3528 H   0  0  0  0  0  0  0  0  0  0  0  0
  140.1028   68.0588  227.6337 H   0  0  0  0  0  0  0  0  0  0  0  0
  1  2  2  0
  2  3  1  0
  3  4  1  0
  4  5  1  0
  5  6  2  0
  6  7  1  0
  7  8  2  0
  8  9  1  0
  9 10  1  0
 10 11  2  0
 10 12  1  0
 12 13  1  0
 13 14  1  0
 14 15  1  0
 15 16  1  0
 16 17  2  0
 17 18  1  0
 18 19  2  0
 19 20  1  0
 20 21  2  0
 15 22  1  0
 22 23  1  0
  9 24  2  0
  4 25  2  0
 25 26  1  0
 26 27  2  0
 27 28  1  0
 28 29  2  0
 29 30  1  0
 30 31  2  0
 31  2  1  0
 24  5  1  0
 31 26  1  0
 23 12  1  0
 21 16  1  0
  3 32  1  0
  3 33  1  0
  6 34  1  0
  7 35  1  0
  8 36  1  0
 13 37  1  0
 13 38  1  0
 14 39  1  0
 14 40  1  0
 17 41  1  0
 18 42  1  0
 19 43  1  0
 20 44  1  0
 22 45  1  0
 22 46  1  0
 23 47  1  0
 23 48  1  0
 24 49  1  0
 27 50  1  0
 28 51  1  0
 29 52  1  0
 30 53  1  0
M  END
>  <smiles>  (7) 
O=C1CC(c2cccc(C(=O)N3CCN(c4ccccn4)CC3)c2)=Nc2ccccc21

>  <score_type>  (7) 
oracle

>  <origin>  (7) 
autodockgpu

>  <m_score__min__energy>  (7) 
-9.1400000000000006

>  <m_primary>  (7) 
energy

>  <rmsd>  (7) 
4.700530982697649

>  <m_score__min__rmsd>  (7) 
4.700530982697649

>  <meeko>  (7) 
{"free_energy": -9.12, "intermolecular_energy": -10.01, "internal_energy": -0.92, "cluster_size": 49, "cluster_id": 1, "rank_in_cluster": 24}

>  <energy>  (7) 
-9.14

>  <cluster_rmsd>  (7) 
0.05

>  <cluster>  (7) 
1

$$$$

     RDKit          3D

 53 57  0  0  0  0  0  0  0  0999 V2000
  139.2610   67.3190  225.7180 O   0  0  0  0  0  0  0  0  0  0  0  0
  139.3430   68.5280  225.4040 C   0  0  0  0  0  0  0  0  0  0  0  0
  138.7580   68.9330  224.0990 C   0  0  0  0  0  0  0  0  0  0  0  0
  138.9330   70.3740  223.8730 C   0  0  0  0  0  0  0  0  0  0  0  0
  138.4230   70.9640  222.6290 C   0  0  0  0  0  0  0  0  0  0  0  0
  137.2090   70.5520  222.0930 C   0  0  0  0  0  0  0  0  0  0  0  0
  136.7410   71.1100  220.9140 C   0  0  0  0  0  0  0  0  0  0  0  0
  137.5080   72.0700  220.3010 C   0  0  0  0  0  0  0  0  0  0  0  0
  138.7180   72.5180  220.7850 C   0  0  0  0  0  0  0  0  0  0  0  0
  139.5130   73.5410  220.1050 C   0  0  0  0  0  0  0  0  0  0  0  0
  139.9460   73.2030  218.9480 O   0  0  0  0  0  0  0  0  0  0  0  0
  139.7960   74.8020  220.6560 N   0  0  0  0  0  0  0  0  0  0  0  0
  139.3330   75.2240  221.9470 C   0  0  0  0  0  0  0  0  0  0  0  0
  139.8940   76.4880  222.4680 C   0  0  0  0  0  0  0  0  0  0  0  0
  141.0330   77.0220  221.7990 N   0  0  0  0  0  0  0  0  0  0  0  0
  141.4590   78.3400  222.1160 C   0  0  0  0  0  0  0  0  0  0  0  0
  141.7980   78.6490  223.4090 C   0  0  0  0  0  0  0  0  0  0  0  0
  142.2080   79.9420  223.7050 C   0  0  0  0  0  0  0  0  0  0  0  0
  142.2650   80.8930  222.6850 C   0  0  0  0  0  0  0  0  0  0  0  0
  141.9090   80.5100  221.4020 C   0  0  0  0  0  0  0  0  0  0  0  0
  141.5140   79.2510  221.1310 N   0  0  0  0  0  0  0  0  0  0  0  0
  141.7170   76.1950  220.8220 C   0  0  0  0  0  0  0  0  0  0  0  0
  140.6050   75.7290  219.8720 C   0  0  0  0  0  0  0  0  0  0  0  0
  139.1530   71.9330  221.9710 C   0  0  0  0  0  0  0  0  0  0  0  0
  139.5230   71.1430  224.7240 N   0  0  0  0  0  0  0  0  0  0  0  0
  140.0730   70.7650  225.9540 C   0  0  0  0  0  0  0  0  0  0  0  0
  140.6700   71.7260  226.7410 C   0  0  0  0  0  0  0  0  0  0  0  0
  141.2130   71.3510  227.9500 C   0  0  0  0  0  0  0  0  0  0  0  0
  141.1490   70.0250  228.3480 C   0  0  0  0  0  0  0  0  0  0  0  0
  140.5390   69.0800  227.5270 C   0  0  0  0  0  0  0  0  0  0  0  0
  139.9920   69.4310  226.3200 C   0  0  0  0  0  0  0  0  0  0  0  0
  139.2585   68.3781  223.2918 H   0  0  0  0  0  0  0  0  0  0  0  0
  137.6817   68.7062  224.1098 H   0  0  0  0  0  0  0  0  0  0  0  0
  136.6172   69.7800  222.6065 H   0  0  0  0  0  0  0  0  0  0  0  0
  135.7810   70.7925  220.4809 H   0  0  0  0  0  0  0  0  0  0  0  0
  137.1330   72.5090  219.3647 H   0  0  0  0  0  0  0  0  0  0  0  0
  138.2410   75.3422  221.8882 H   0  0  0  0  0  0  0  0  0  0  0  0
  139.6712   74.4453  222.6464 H   0  0  0  0  0  0  0  0  0  0  0  0
  139.0984   77.2462  222.4225 H   0  0  0  0  0  0  0  0  0  0  0  0
  140.2496   76.2434  223.4798 H   0  0  0  0  0  0  0  0  0  0  0  0
  141.7458   77.8847  224.1984 H   0  0  0  0  0  0  0  0  0  0  0  0
  142.4854   80.2145  224.7340 H   0  0  0  0  0  0  0  0  0  0  0  0
  142.5856   81.9240  222.8952 H   0  0  0  0  0  0  0  0  0  0  0  0
  141.9497   81.2490  220.5882 H   0  0  0  0  0  0  0  0  0  0  0  0
  142.4738   76.7797  220.2785 H   0  0  0  0  0  0  0  0  0  0  0  0
  142.2525   75.3536  221.2859 H   0  0  0  0  0  0  0  0  0  0  0  0
  139.9984   76.5841  219.5393 H   0  0  0  0  0  0  0  0  0  0  0  0
  141.0102   75.2558  218.9654 H   0  0  0  0  0  0  0  0  0  0  0  0
  140.1137   72.2548  222.3994 H   0  0  0  0  0  0  0  0  0  0  0  0
  140.7121   72.7740  226.4095 H   0  0  0  0  0  0  0  0  0  0  0  0
  141.6947   72.0997  228.5960 H   0  0  0  0  0  0  0  0  0  0  0  0
  141.5801   69.7190  229.3126 H   0  0  0  0  0  0  0  0  0  0  0  0
  140.4952   68.0305  227.8536 H   0  0  0  0  0  0  0  0  0  0  0  0
  1  2  2  0
  2  3  1  0
  3  4  1  0
  4  5  1  0
  5  6  2  0
  6  7  1  0
  7  8  2  0
  8  9  1  0
  9 10  1  0
 10 11  2  0
 10 12  1  0
 12 13  1  0
 13 14  1  0
 14 15  1  0
 15 16  1  0
 16 17  2  0
 17 18  1  0
 18 19  2  0
 19 20  1  0
 20 21  2  0
 15 22  1  0
 22 23  1  0
  9 24  2  0
  4 25  2  0
 25 26  1  0
 26 27  2  0
 27 28  1  0
 28 29  2  0
 29 30  1  0
 30 31  2  0
 31  2  1  0
 24  5  1  0
 31 26  1  0
 23 12  1  0
 21 16  1  0
  3 32  1  0
  3 33  1  0
  6 34  1  0
  7 35  1  0
  8 36  1  0
 13 37  1  0
 13 38  1  0
 14 39  1  0
 14 40  1  0
 17 41  1  0
 18 42  1  0
 19 43  1  0
 20 44  1  0
 22 45  1  0
 22 46  1  0
 23 47  1  0
 23 48  1  0
 24 49  1  0
 27 50  1  0
 28 51  1  0
 29 52  1  0
 30 53  1  0
M  END
>  <smiles>  (8) 
O=C1CC(c2cccc(C(=O)N3CCN(c4ccccn4)CC3)c2)=Nc2ccccc21

>  <score_type>  (8) 
oracle

>  <origin>  (8) 
autodockgpu

>  <m_score__min__energy>  (8) 
-9.1400000000000006

>  <m_primary>  (8) 
energy

>  <rmsd>  (8) 
4.221631053963459

>  <m_score__min__rmsd>  (8) 
4.221631053963459

>  <meeko>  (8) 
{"free_energy": -9.04, "intermolecular_energy": -9.94, "internal_energy": -0.94, "cluster_size": 49, "cluster_id": 1, "rank_in_cluster": 37}

>  <energy>  (8) 
-9.14

>  <cluster_rmsd>  (8) 
0.05

>  <cluster>  (8) 
1

$$$$

     RDKit          3D

 53 57  0  0  0  0  0  0  0  0999 V2000
  139.2110   67.5490  225.3010 O   0  0  0  0  0  0  0  0  0  0  0  0
  139.4480   68.7580  225.0730 C   0  0  0  0  0  0  0  0  0  0  0  0
  139.1130   69.2740  223.7200 C   0  0  0  0  0  0  0  0  0  0  0  0
  139.4470   70.7010  223.6080 C   0  0  0  0  0  0  0  0  0  0  0  0
  139.1940   71.3910  222.3370 C   0  0  0  0  0  0  0  0  0  0  0  0
  139.3560   70.7290  221.1250 C   0  0  0  0  0  0  0  0  0  0  0  0
  139.1210   71.3910  219.9310 C   0  0  0  0  0  0  0  0  0  0  0  0
  138.7300   72.7070  219.9840 C   0  0  0  0  0  0  0  0  0  0  0  0
  138.5530   73.4140  221.1540 C   0  0  0  0  0  0  0  0  0  0  0  0
  138.1390   74.8170  221.1770 C   0  0  0  0  0  0  0  0  0  0  0  0
  136.9970   75.0470  220.6460 O   0  0  0  0  0  0  0  0  0  0  0  0
  138.9140   75.8490  221.7300 N   0  0  0  0  0  0  0  0  0  0  0  0
  140.1990   75.6390  222.3340 C   0  0  0  0  0  0  0  0  0  0  0  0
  140.9750   76.8500  222.6710 C   0  0  0  0  0  0  0  0  0  0  0  0
  140.5300   78.0860  222.1200 N   0  0  0  0  0  0  0  0  0  0  0  0
  141.1000   79.2960  222.6000 C   0  0  0  0  0  0  0  0  0  0  0  0
  142.2170   79.2480  223.3970 C   0  0  0  0  0  0  0  0  0  0  0  0
  142.7610   80.4370  223.8630 C   0  0  0  0  0  0  0  0  0  0  0  0
  142.1620   81.6480  223.5130 C   0  0  0  0  0  0  0  0  0  0  0  0
  141.0360   81.6210  222.7050 C   0  0  0  0  0  0  0  0  0  0  0  0
  140.5210   80.4580  222.2600 N   0  0  0  0  0  0  0  0  0  0  0  0
  139.5120   78.0600  221.0880 C   0  0  0  0  0  0  0  0  0  0  0  0
  138.3840   77.2070  221.6850 C   0  0  0  0  0  0  0  0  0  0  0  0
  138.7990   72.7120  222.3320 C   0  0  0  0  0  0  0  0  0  0  0  0
  139.9610   71.3710  224.5820 N   0  0  0  0  0  0  0  0  0  0  0  0
  140.2760   70.8890  225.8580 C   0  0  0  0  0  0  0  0  0  0  0  0
  140.8240   71.7520  226.7810 C   0  0  0  0  0  0  0  0  0  0  0  0
  141.1340   71.2740  228.0350 C   0  0  0  0  0  0  0  0  0  0  0  0
  140.8920   69.9450  228.3410 C   0  0  0  0  0  0  0  0  0  0  0  0
  140.3380   69.0990  227.3830 C   0  0  0  0  0  0  0  0  0  0  0  0
  140.0210   69.5540  226.1290 C   0  0  0  0  0  0  0  0  0  0  0  0
  139.6836   68.7100  222.9675 H   0  0  0  0  0  0  0  0  0  0  0  0
  138.0328   69.1506  223.5532 H   0  0  0  0  0  0  0  0  0  0  0  0
  139.6720   69.6754  221.1142 H   0  0  0  0  0  0  0  0  0  0  0  0
  139.2442   70.8768  218.9664 H   0  0  0  0  0  0  0  0  0  0  0  0
  138.5467   73.2291  219.0333 H   0  0  0  0  0  0  0  0  0  0  0  0
  140.0426   75.0728  223.2640 H   0  0  0  0  0  0  0  0  0  0  0  0
  140.7955   75.1134  221.5738 H   0  0  0  0  0  0  0  0  0  0  0  0
  140.9658   76.9541  223.7660 H   0  0  0  0  0  0  0  0  0  0  0  0
  141.9666   76.6829  222.2250 H   0  0  0  0  0  0  0  0  0  0  0  0
  142.6734   78.2829  223.6620 H   0  0  0  0  0  0  0  0  0  0  0  0
  143.6561   80.4249  224.5023 H   0  0  0  0  0  0  0  0  0  0  0  0
  142.5744   82.6030  223.8705 H   0  0  0  0  0  0  0  0  0  0  0  0
  140.5532   82.5678  222.4214 H   0  0  0  0  0  0  0  0  0  0  0  0
  139.1556   79.0770  220.8672 H   0  0  0  0  0  0  0  0  0  0  0  0
  139.8883   77.6519  220.1384 H   0  0  0  0  0  0  0  0  0  0  0  0
  138.1309   77.5560  222.6970 H   0  0  0  0  0  0  0  0  0  0  0  0
  137.4620   77.2688  221.0882 H   0  0  0  0  0  0  0  0  0  0  0  0
  138.6734   73.2309  223.2938 H   0  0  0  0  0  0  0  0  0  0  0  0
  141.0108   72.8044  226.5213 H   0  0  0  0  0  0  0  0  0  0  0  0
  141.5715   71.9442  228.7896 H   0  0  0  0  0  0  0  0  0  0  0  0
  141.1374   69.5575  229.3408 H   0  0  0  0  0  0  0  0  0  0  0  0
  140.1512   68.0453  227.6375 H   0  0  0  0  0  0  0  0  0  0  0  0
  1  2  2  0
  2  3  1  0
  3  4  1  0
  4  5  1  0
  5  6  2  0
  6  7  1  0
  7  8  2  0
  8  9  1  0
  9 10  1  0
 10 11  2  0
 10 12  1  0
 12 13  1  0
 13 14  1  0
 14 15  1  0
 15 16  1  0
 16 17  2  0
 17 18  1  0
 18 19  2  0
 19 20  1  0
 20 21  2  0
 15 22  1  0
 22 23  1  0
  9 24  2  0
  4 25  2  0
 25 26  1  0
 26 27  2  0
 27 28  1  0
 28 29  2  0
 29 30  1  0
 30 31  2  0
 31  2  1  0
 24  5  1  0
 31 26  1  0
 23 12  1  0
 21 16  1  0
  3 32  1  0
  3 33  1  0
  6 34  1  0
  7 35  1  0
  8 36  1  0
 13 37  1  0
 13 38  1  0
 14 39  1  0
 14 40  1  0
 17 41  1  0
 18 42  1  0
 19 43  1  0
 20 44  1  0
 22 45  1  0
 22 46  1  0
 23 47  1  0
 23 48  1  0
 24 49  1  0
 27 50  1  0
 28 51  1  0
 29 52  1  0
 30 53  1  0
M  END
>  <smiles>  (9) 
O=C1CC(c2cccc(C(=O)N3CCN(c4ccccn4)CC3)c2)=Nc2ccccc21

>  <score_type>  (9) 
oracle

>  <origin>  (9) 
autodockgpu

>  <m_score__min__energy>  (9) 
-9.1400000000000006

>  <m_primary>  (9) 
energy

>  <rmsd>  (9) 
4.668880540551323

>  <m_score__min__rmsd>  (9) 
4.668880540551323

>  <meeko>  (9) 
{"free_energy": -9.13, "intermolecular_energy": -10.02, "internal_energy": -0.92, "cluster_size": 49, "cluster_id": 1, "rank_in_cluster": 20}

>  <energy>  (9) 
-9.14

>  <cluster_rmsd>  (9) 
0.04

>  <cluster>  (9) 
1

$$$$

     RDKit          3D

 53 57  0  0  0  0  0  0  0  0999 V2000
  138.2200   79.3870  223.5020 O   0  0  0  0  0  0  0  0  0  0  0  0
  139.2390   78.8420  223.0180 C   0  0  0  0  0  0  0  0  0  0  0  0
  139.0460   77.5540  222.3020 C   0  0  0  0  0  0  0  0  0  0  0  0
  140.3270   77.0410  221.7960 C   0  0  0  0  0  0  0  0  0  0  0  0
  140.3420   75.7680  221.0630 C   0  0  0  0  0  0  0  0  0  0  0  0
  140.9580   75.6710  219.8210 C   0  0  0  0  0  0  0  0  0  0  0  0
  140.9600   74.4680  219.1350 C   0  0  0  0  0  0  0  0  0  0  0  0
  140.3390   73.3880  219.7160 C   0  0  0  0  0  0  0  0  0  0  0  0
  139.7140   73.4240  220.9430 C   0  0  0  0  0  0  0  0  0  0  0  0
  139.0580   72.2570  221.5340 C   0  0  0  0  0  0  0  0  0  0  0  0
  137.9980   71.8730  220.9260 O   0  0  0  0  0  0  0  0  0  0  0  0
  139.5320   71.5920  222.6760 N   0  0  0  0  0  0  0  0  0  0  0  0
  140.7130   71.9870  223.3890 C   0  0  0  0  0  0  0  0  0  0  0  0
  140.9540   71.3210  224.6870 C   0  0  0  0  0  0  0  0  0  0  0  0
  139.8760   70.5770  225.2490 N   0  0  0  0  0  0  0  0  0  0  0  0
  140.1320   69.7380  226.3660 C   0  0  0  0  0  0  0  0  0  0  0  0
  140.8430   68.5760  226.1910 C   0  0  0  0  0  0  0  0  0  0  0  0
  141.0820   67.7630  227.2900 C   0  0  0  0  0  0  0  0  0  0  0  0
  140.5950   68.1420  228.5420 C   0  0  0  0  0  0  0  0  0  0  0  0
  139.8860   69.3280  228.6450 C   0  0  0  0  0  0  0  0  0  0  0  0
  139.6630   70.1070  227.5690 N   0  0  0  0  0  0  0  0  0  0  0  0
  138.5580   70.7090  224.6580 C   0  0  0  0  0  0  0  0  0  0  0  0
  138.7800   70.4410  223.1630 C   0  0  0  0  0  0  0  0  0  0  0  0
  139.7340   74.6520  221.6010 C   0  0  0  0  0  0  0  0  0  0  0  0
  141.4420   77.6640  221.9740 N   0  0  0  0  0  0  0  0  0  0  0  0
  141.6270   78.8770  222.6460 C   0  0  0  0  0  0  0  0  0  0  0  0
  142.8980   79.4000  222.7420 C   0  0  0  0  0  0  0  0  0  0  0  0
  143.0760   80.5940  223.4050 C   0  0  0  0  0  0  0  0  0  0  0  0
  141.9830   81.2400  223.9580 C   0  0  0  0  0  0  0  0  0  0  0  0
  140.7120   80.6830  223.8440 C   0  0  0  0  0  0  0  0  0  0  0  0
  140.5110   79.4960  223.1870 C   0  0  0  0  0  0  0  0  0  0  0  0
  138.6111   76.8182  222.9944 H   0  0  0  0  0  0  0  0  0  0  0  0
  138.3720   77.7223  221.4491 H   0  0  0  0  0  0  0  0  0  0  0  0
  141.4459   76.5533  219.3811 H   0  0  0  0  0  0  0  0  0  0  0  0
  141.4454   74.3791  218.1519 H   0  0  0  0  0  0  0  0  0  0  0  0
  140.3413   72.4351  219.1665 H   0  0  0  0  0  0  0  0  0  0  0  0
  141.5785   71.7811  222.7420 H   0  0  0  0  0  0  0  0  0  0  0  0
  140.5654   73.0500  223.6303 H   0  0  0  0  0  0  0  0  0  0  0  0
  141.7983   70.6290  224.5518 H   0  0  0  0  0  0  0  0  0  0  0  0
  141.1318   72.1418  225.3974 H   0  0  0  0  0  0  0  0  0  0  0  0
  141.2170   68.2943  225.1956 H   0  0  0  0  0  0  0  0  0  0  0  0
  141.6502   66.8281  227.1755 H   0  0  0  0  0  0  0  0  0  0  0  0
  140.7702   67.5131  229.4273 H   0  0  0  0  0  0  0  0  0  0  0  0
  139.4973   69.6398  229.6257 H   0  0  0  0  0  0  0  0  0  0  0  0
  137.8638   69.9712  225.0866 H   0  0  0  0  0  0  0  0  0  0  0  0
  138.1124   71.6972  224.8447 H   0  0  0  0  0  0  0  0  0  0  0  0
  139.3556   69.5149  223.0184 H   0  0  0  0  0  0  0  0  0  0  0  0
  137.8305   70.3117  222.6229 H   0  0  0  0  0  0  0  0  0  0  0  0
  139.2479   74.7349  222.5843 H   0  0  0  0  0  0  0  0  0  0  0  0
  143.7552   78.8734  222.2971 H   0  0  0  0  0  0  0  0  0  0  0  0
  144.0810   81.0321  223.4948 H   0  0  0  0  0  0  0  0  0  0  0  0
  142.1191   82.1943  224.4879 H   0  0  0  0  0  0  0  0  0  0  0  0
  139.8524   81.2051  224.2895 H   0  0  0  0  0  0  0  0  0  0  0  0
  1  2  2  0
  2  3  1  0
  3  4  1  0
  4  5  1  0
  5  6  2  0
  6  7  1  0
  7  8  2  0
  8  9  1  0
  9 10  1  0
 10 11  2  0
 10 12  1  0
 12 13  1  0
 13 14  1  0
 14 15  1  0
 15 16  1  0
 16 17  2  0
 17 18  1  0
 18 19  2  0
 19 20  1  0
 20 21  2  0
 15 22  1  0
 22 23  1  0
  9 24  2  0
  4 25  2  0
 25 26  1  0
 26 27  2  0
 27 28  1  0
 28 29  2  0
 29 30  1  0
 30 31  2  0
 31  2  1  0
 24  5  1  0
 31 26  1  0
 23 12  1  0
 21 16  1  0
  3 32  1  0
  3 33  1  0
  6 34  1  0
  7 35  1  0
  8 36  1  0
 13 37  1  0
 13 38  1  0
 14 39  1  0
 14 40  1  0
 17 41  1  0
 18 42  1  0
 19 43  1  0
 20 44  1  0
 22 45  1  0
 22 46  1  0
 23 47  1  0
 23 48  1  0
 24 49  1  0
 27 50  1  0
 28 51  1  0
 29 52  1  0
 30 53  1  0
M  END
>  <smiles>  (10) 
O=C1CC(c2cccc(C(=O)N3CCN(c4ccccn4)CC3)c2)=Nc2ccccc21

>  <score_type>  (10) 
oracle

>  <origin>  (10) 
autodockgpu

>  <m_score__min__energy>  (10) 
-9.1400000000000006

>  <m_primary>  (10) 
energy

>  <rmsd>  (10) 
8.62519658698212

>  <m_score__min__rmsd>  (10) 
8.62519658698212

>  <meeko>  (10) 
{"free_energy": -8.63, "intermolecular_energy": -9.52, "internal_energy": -0.92, "cluster_size": 1, "cluster_id": 2, "rank_in_cluster": 1}

>  <energy>  (10) 
-9.14

>  <cluster_rmsd>  (10) 
0.03

>  <cluster>  (10) 
1

$$$$

     RDKit          3D

 53 57  0  0  0  0  0  0  0  0999 V2000
  139.2150   67.4190  225.8010 O   0  0  0  0  0  0  0  0  0  0  0  0
  139.3890   68.5910  225.3930 C   0  0  0  0  0  0  0  0  0  0  0  0
  138.9300   68.9080  224.0160 C   0  0  0  0  0  0  0  0  0  0  0  0
  139.2030   70.3130  223.6850 C   0  0  0  0  0  0  0  0  0  0  0  0
  138.8250   70.8150  222.3580 C   0  0  0  0  0  0  0  0  0  0  0  0
  137.8640   70.1600  221.5970 C   0  0  0  0  0  0  0  0  0  0  0  0
  137.5200   70.6380  220.3440 C   0  0  0  0  0  0  0  0  0  0  0  0
  138.1550   71.7660  219.8820 C   0  0  0  0  0  0  0  0  0  0  0  0
  139.1140   72.4570  220.5900 C   0  0  0  0  0  0  0  0  0  0  0  0
  139.7740   73.6540  220.0690 C   0  0  0  0  0  0  0  0  0  0  0  0
  140.3380   73.5030  218.9290 O   0  0  0  0  0  0  0  0  0  0  0  0
  139.8030   74.8850  220.7460 N   0  0  0  0  0  0  0  0  0  0  0  0
  139.1860   75.1010  222.0230 C   0  0  0  0  0  0  0  0  0  0  0  0
  139.4910   76.3820  222.6940 C   0  0  0  0  0  0  0  0  0  0  0  0
  140.5700   77.1520  222.1730 N   0  0  0  0  0  0  0  0  0  0  0  0
  140.7470   78.4850  222.6330 C   0  0  0  0  0  0  0  0  0  0  0  0
  142.0050   79.0340  222.6470 C   0  0  0  0  0  0  0  0  0  0  0  0
  142.1640   80.3360  223.1040 C   0  0  0  0  0  0  0  0  0  0  0  0
  141.0470   81.0510  223.5370 C   0  0  0  0  0  0  0  0  0  0  0  0
  139.8070   80.4330  223.4950 C   0  0  0  0  0  0  0  0  0  0  0  0
  139.6690   79.1700  223.0480 N   0  0  0  0  0  0  0  0  0  0  0  0
  141.4480   76.5440  221.1920 C   0  0  0  0  0  0  0  0  0  0  0  0
  140.4990   76.0010  220.1140 C   0  0  0  0  0  0  0  0  0  0  0  0
  139.4300   71.9450  221.8460 C   0  0  0  0  0  0  0  0  0  0  0  0
  139.7670   71.1230  224.5140 N   0  0  0  0  0  0  0  0  0  0  0  0
  140.1980   70.8290  225.8120 C   0  0  0  0  0  0  0  0  0  0  0  0
  140.7850   71.8250  226.5630 C   0  0  0  0  0  0  0  0  0  0  0  0
  141.2100   71.5310  227.8390 C   0  0  0  0  0  0  0  0  0  0  0  0
  141.0410   70.2510  228.3400 C   0  0  0  0  0  0  0  0  0  0  0  0
  140.4450   69.2680  227.5540 C   0  0  0  0  0  0  0  0  0  0  0  0
  140.0140   69.5380  226.2810 C   0  0  0  0  0  0  0  0  0  0  0  0
  139.4588   68.2600  223.3016 H   0  0  0  0  0  0  0  0  0  0  0  0
  137.8449   68.7368  223.9581 H   0  0  0  0  0  0  0  0  0  0  0  0
  137.3744   69.2576  221.9921 H   0  0  0  0  0  0  0  0  0  0  0  0
  136.7589   70.1287  219.7346 H   0  0  0  0  0  0  0  0  0  0  0  0
  137.8805   72.1405  218.8848 H   0  0  0  0  0  0  0  0  0  0  0  0
  138.0965   75.0492  221.8809 H   0  0  0  0  0  0  0  0  0  0  0  0
  139.5982   74.3220  222.6812 H   0  0  0  0  0  0  0  0  0  0  0  0
  138.5859   77.0051  222.6435 H   0  0  0  0  0  0  0  0  0  0  0  0
  139.8093   76.1004  223.7086 H   0  0  0  0  0  0  0  0  0  0  0  0
  142.8727   78.4526  222.3021 H   0  0  0  0  0  0  0  0  0  0  0  0
  143.1615   80.7991  223.1243 H   0  0  0  0  0  0  0  0  0  0  0  0
  141.1482   82.0831  223.9039 H   0  0  0  0  0  0  0  0  0  0  0  0
  138.9179   80.9851  223.8335 H   0  0  0  0  0  0  0  0  0  0  0  0
  142.1332   77.2919  220.7664 H   0  0  0  0  0  0  0  0  0  0  0  0
  142.0818   75.7573  221.6273 H   0  0  0  0  0  0  0  0  0  0  0  0
  139.7832   76.7765  219.8038 H   0  0  0  0  0  0  0  0  0  0  0  0
  141.0400   75.6891  219.2084 H   0  0  0  0  0  0  0  0  0  0  0  0
  140.1897   72.4601  222.4523 H   0  0  0  0  0  0  0  0  0  0  0  0
  140.9115   72.8366  226.1500 H   0  0  0  0  0  0  0  0  0  0  0  0
  141.6815   72.3089  228.4576 H   0  0  0  0  0  0  0  0  0  0  0  0
  141.3777   70.0107  229.3593 H   0  0  0  0  0  0  0  0  0  0  0  0
  140.3176   68.2547  227.9628 H   0  0  0  0  0  0  0  0  0  0  0  0
  1  2  2  0
  2  3  1  0
  3  4  1  0
  4  5  1  0
  5  6  2  0
  6  7  1  0
  7  8  2  0
  8  9  1  0
  9 10  1  0
 10 11  2  0
 10 12  1  0
 12 13  1  0
 13 14  1  0
 14 15  1  0
 15 16  1  0
 16 17  2  0
 17 18  1  0
 18 19  2  0
 19 20  1  0
 20 21  2  0
 15 22  1  0
 22 23  1  0
  9 24  2  0
  4 25  2  0
 25 26  1  0
 26 27  2  0
 27 28  1  0
 28 29  2  0
 29 30  1  0
 30 31  2  0
 31  2  1  0
 24  5  1  0
 31 26  1  0
 23 12  1  0
 21 16  1  0
  3 32  1  0
  3 33  1  0
  6 34  1  0
  7 35  1  0
  8 36  1  0
 13 37  1  0
 13 38  1  0
 14 39  1  0
 14 40  1  0
 17 41  1  0
 18 42  1  0
 19 43  1  0
 20 44  1  0
 22 45  1  0
 22 46  1  0
 23 47  1  0
 23 48  1  0
 24 49  1  0
 27 50  1  0
 28 51  1  0
 29 52  1  0
 30 53  1  0
M  END
>  <smiles>  (11) 
O=C1CC(c2cccc(C(=O)N3CCN(c4ccccn4)CC3)c2)=Nc2ccccc21

>  <score_type>  (11) 
oracle

>  <origin>  (11) 
autodockgpu

>  <m_score__min__energy>  (11) 
-9.1400000000000006

>  <m_primary>  (11) 
energy

>  <rmsd>  (11) 
4.170358085568207

>  <m_score__min__rmsd>  (11) 
4.170358085568207

>  <meeko>  (11) 
{"free_energy": -8.97, "intermolecular_energy": -9.87, "internal_energy": -0.92, "cluster_size": 49, "cluster_id": 1, "rank_in_cluster": 49}

>  <energy>  (11) 
-9.14

>  <cluster_rmsd>  (11) 
0.02

>  <cluster>  (11) 
1

$$$$

     RDKit          3D

 53 57  0  0  0  0  0  0  0  0999 V2000
  139.2060   67.3840  225.7900 O   0  0  0  0  0  0  0  0  0  0  0  0
  139.3320   68.5730  225.4170 C   0  0  0  0  0  0  0  0  0  0  0  0
  138.8010   68.9250  224.0740 C   0  0  0  0  0  0  0  0  0  0  0  0
  139.0230   70.3480  223.7810 C   0  0  0  0  0  0  0  0  0  0  0  0
  138.5710   70.8850  222.4910 C   0  0  0  0  0  0  0  0  0  0  0  0
  137.4290   70.3860  221.8750 C   0  0  0  0  0  0  0  0  0  0  0  0
  137.0160   70.8950  220.6550 C   0  0  0  0  0  0  0  0  0  0  0  0
  137.7630   71.8950  220.0820 C   0  0  0  0  0  0  0  0  0  0  0  0
  138.9010   72.4290  220.6450 C   0  0  0  0  0  0  0  0  0  0  0  0
  139.6780   73.4920  220.0070 C   0  0  0  0  0  0  0  0  0  0  0  0
  140.1420   73.1970  218.8500 O   0  0  0  0  0  0  0  0  0  0  0  0
  139.9120   74.7470  220.5940 N   0  0  0  0  0  0  0  0  0  0  0  0
  139.4130   75.1210  221.8860 C   0  0  0  0  0  0  0  0  0  0  0  0
  139.9250   76.3880  222.4490 C   0  0  0  0  0  0  0  0  0  0  0  0
  141.0600   76.9720  221.8170 N   0  0  0  0  0  0  0  0  0  0  0  0
  141.4400   78.2940  222.1740 C   0  0  0  0  0  0  0  0  0  0  0  0
  141.7500   78.5780  223.4810 C   0  0  0  0  0  0  0  0  0  0  0  0
  142.1150   79.8750  223.8170 C   0  0  0  0  0  0  0  0  0  0  0  0
  142.1570   80.8540  222.8230 C   0  0  0  0  0  0  0  0  0  0  0  0
  141.8320   80.4950  221.5250 C   0  0  0  0  0  0  0  0  0  0  0  0
  141.4800   79.2320  221.2150 N   0  0  0  0  0  0  0  0  0  0  0  0
  141.7860   76.1920  220.8320 C   0  0  0  0  0  0  0  0  0  0  0  0
  140.7060   75.7180  219.8500 C   0  0  0  0  0  0  0  0  0  0  0  0
  139.2840   71.8910  221.8710 C   0  0  0  0  0  0  0  0  0  0  0  0
  139.6060   71.1430  224.6110 N   0  0  0  0  0  0  0  0  0  0  0  0
  140.1060   70.8160  225.8770 C   0  0  0  0  0  0  0  0  0  0  0  0
  140.7040   71.8010  226.6340 C   0  0  0  0  0  0  0  0  0  0  0  0
  141.1960   71.4750  227.8780 C   0  0  0  0  0  0  0  0  0  0  0  0
  141.0820   70.1740  228.3400 C   0  0  0  0  0  0  0  0  0  0  0  0
  140.4730   69.2040  227.5490 C   0  0  0  0  0  0  0  0  0  0  0  0
  139.9750   69.5060  226.3080 C   0  0  0  0  0  0  0  0  0  0  0  0
  139.3119   68.3163  223.3134 H   0  0  0  0  0  0  0  0  0  0  0  0
  137.7191   68.7270  224.0599 H   0  0  0  0  0  0  0  0  0  0  0  0
  136.8515   69.5842  222.3582 H   0  0  0  0  0  0  0  0  0  0  0  0
  136.1138   70.5087  220.1582 H   0  0  0  0  0  0  0  0  0  0  0  0
  137.4315   72.2947  219.1123 H   0  0  0  0  0  0  0  0  0  0  0  0
  138.3190   75.2071  221.8097 H   0  0  0  0  0  0  0  0  0  0  0  0
  139.7626   74.3353  222.5718 H   0  0  0  0  0  0  0  0  0  0  0  0
  139.1078   77.1231  222.4054 H   0  0  0  0  0  0  0  0  0  0  0  0
  140.2677   76.1290  223.4617 H   0  0  0  0  0  0  0  0  0  0  0  0
  141.7099   77.7915  224.2490 H   0  0  0  0  0  0  0  0  0  0  0  0
  142.3687   80.1285  224.8569 H   0  0  0  0  0  0  0  0  0  0  0  0
  142.4420   81.8885  223.0651 H   0  0  0  0  0  0  0  0  0  0  0  0
  141.8619   81.2564  220.7316 H   0  0  0  0  0  0  0  0  0  0  0  0
  142.5341   76.8133  220.3179 H   0  0  0  0  0  0  0  0  0  0  0  0
  142.3386   75.3551  221.2839 H   0  0  0  0  0  0  0  0  0  0  0  0
  140.0795   76.5630  219.5283 H   0  0  0  0  0  0  0  0  0  0  0  0
  141.1417   75.2813  218.9393 H   0  0  0  0  0  0  0  0  0  0  0  0
  140.1870   72.2818  222.3628 H   0  0  0  0  0  0  0  0  0  0  0  0
  140.7866   72.8289  226.2510 H   0  0  0  0  0  0  0  0  0  0  0  0
  141.6768   72.2432  228.5014 H   0  0  0  0  0  0  0  0  0  0  0  0
  141.4731   69.9072  229.3329 H   0  0  0  0  0  0  0  0  0  0  0  0
  140.3897   68.1745  227.9273 H   0  0  0  0  0  0  0  0  0  0  0  0
  1  2  2  0
  2  3  1  0
  3  4  1  0
  4  5  1  0
  5  6  2  0
  6  7  1  0
  7  8  2  0
  8  9  1  0
  9 10  1  0
 10 11  2  0
 10 12  1  0
 12 13  1  0
 13 14  1  0
 14 15  1  0
 15 16  1  0
 16 17  2  0
 17 18  1  0
 18 19  2  0
 19 20  1  0
 20 21  2  0
 15 22  1  0
 22 23  1  0
  9 24  2  0
  4 25  2  0
 25 26  1  0
 26 27  2  0
 27 28  1  0
 28 29  2  0
 29 30  1  0
 30 31  2  0
 31  2  1  0
 24  5  1  0
 31 26  1  0
 23 12  1  0
 21 16  1  0
  3 32  1  0
  3 33  1  0
  6 34  1  0
  7 35  1  0
  8 36  1  0
 13 37  1  0
 13 38  1  0
 14 39  1  0
 14 40  1  0
 17 41  1  0
 18 42  1  0
 19 43  1  0
 20 44  1  0
 22 45  1  0
 22 46  1  0
 23 47  1  0
 23 48  1  0
 24 49  1  0
 27 50  1  0
 28 51  1  0
 29 52  1  0
 30 53  1  0
M  END
>  <smiles>  (12) 
O=C1CC(c2cccc(C(=O)N3CCN(c4ccccn4)CC3)c2)=Nc2ccccc21

>  <score_type>  (12) 
oracle

>  <origin>  (12) 
autodockgpu

>  <m_score__min__energy>  (12) 
-9.1400000000000006

>  <m_primary>  (12) 
energy

>  <rmsd>  (12) 
4.2352785632819705

>  <m_score__min__rmsd>  (12) 
4.2352785632819705

>  <meeko>  (12) 
{"free_energy": -9.08, "intermolecular_energy": -9.98, "internal_energy": -0.94, "cluster_size": 49, "cluster_id": 1, "rank_in_cluster": 30}

>  <energy>  (12) 
-9.14

>  <cluster_rmsd>  (12) 
0.09

>  <cluster>  (12) 
1

$$$$

     RDKit          3D

 53 57  0  0  0  0  0  0  0  0999 V2000
  139.1950   67.3990  225.8140 O   0  0  0  0  0  0  0  0  0  0  0  0
  139.3330   68.5800  225.4220 C   0  0  0  0  0  0  0  0  0  0  0  0
  138.8140   68.9130  224.0700 C   0  0  0  0  0  0  0  0  0  0  0  0
  139.0500   70.3290  223.7540 C   0  0  0  0  0  0  0  0  0  0  0  0
  138.6110   70.8480  222.4520 C   0  0  0  0  0  0  0  0  0  0  0  0
  137.4940   70.3190  221.8170 C   0  0  0  0  0  0  0  0  0  0  0  0
  137.0930   70.8110  220.5860 C   0  0  0  0  0  0  0  0  0  0  0  0
  137.8280   71.8240  220.0200 C   0  0  0  0  0  0  0  0  0  0  0  0
  138.9430   72.3870  220.6020 C   0  0  0  0  0  0  0  0  0  0  0  0
  139.7070   73.4640  219.9720 C   0  0  0  0  0  0  0  0  0  0  0  0
  140.1690   73.1850  218.8100 O   0  0  0  0  0  0  0  0  0  0  0  0
  139.9340   74.7130  220.5720 N   0  0  0  0  0  0  0  0  0  0  0  0
  139.4370   75.0700  221.8710 C   0  0  0  0  0  0  0  0  0  0  0  0
  139.9420   76.3340  222.4450 C   0  0  0  0  0  0  0  0  0  0  0  0
  141.0690   76.9350  221.8140 N   0  0  0  0  0  0  0  0  0  0  0  0
  141.4390   78.2560  222.1840 C   0  0  0  0  0  0  0  0  0  0  0  0
  141.7650   79.1650  221.2090 C   0  0  0  0  0  0  0  0  0  0  0  0
  142.1290   80.4510  221.5850 C   0  0  0  0  0  0  0  0  0  0  0  0
  142.1570   80.7870  222.9390 C   0  0  0  0  0  0  0  0  0  0  0  0
  141.8160   79.8180  223.8690 C   0  0  0  0  0  0  0  0  0  0  0  0
  141.4630   78.5750  223.4880 N   0  0  0  0  0  0  0  0  0  0  0  0
  141.7970   76.1720  220.8180 C   0  0  0  0  0  0  0  0  0  0  0  0
  140.7160   75.6990  219.8350 C   0  0  0  0  0  0  0  0  0  0  0  0
  139.3130   71.8650  221.8390 C   0  0  0  0  0  0  0  0  0  0  0  0
  139.6330   71.1340  224.5750 N   0  0  0  0  0  0  0  0  0  0  0  0
  140.1210   70.8250  225.8490 C   0  0  0  0  0  0  0  0  0  0  0  0
  140.7210   71.8170  226.5930 C   0  0  0  0  0  0  0  0  0  0  0  0
  141.2010   71.5080  227.8470 C   0  0  0  0  0  0  0  0  0  0  0  0
  141.0740   70.2170  228.3300 C   0  0  0  0  0  0  0  0  0  0  0  0
  140.4630   69.2380  227.5510 C   0  0  0  0  0  0  0  0  0  0  0  0
  139.9770   69.5220  226.3010 C   0  0  0  0  0  0  0  0  0  0  0  0
  139.3247   68.2870  223.3235 H   0  0  0  0  0  0  0  0  0  0  0  0
  137.7305   68.7238  224.0520 H   0  0  0  0  0  0  0  0  0  0  0  0
  136.9261   69.5065  222.2938 H   0  0  0  0  0  0  0  0  0  0  0  0
  136.2092   70.4013  220.0750 H   0  0  0  0  0  0  0  0  0  0  0  0
  137.5066   72.2098  219.0413 H   0  0  0  0  0  0  0  0  0  0  0  0
  138.3421   75.1491  221.7999 H   0  0  0  0  0  0  0  0  0  0  0  0
  139.7948   74.2796  222.5471 H   0  0  0  0  0  0  0  0  0  0  0  0
  139.1187   77.0628  222.4142 H   0  0  0  0  0  0  0  0  0  0  0  0
  140.2928   76.0658  223.4525 H   0  0  0  0  0  0  0  0  0  0  0  0
  141.7384   78.8795  220.1470 H   0  0  0  0  0  0  0  0  0  0  0  0
  142.3930   81.1984  220.8223 H   0  0  0  0  0  0  0  0  0  0  0  0
  142.4435   81.7990  223.2611 H   0  0  0  0  0  0  0  0  0  0  0  0
  141.8339   80.0688  224.9399 H   0  0  0  0  0  0  0  0  0  0  0  0
  142.5376   76.8050  220.3073 H   0  0  0  0  0  0  0  0  0  0  0  0
  142.3586   75.3351  221.2586 H   0  0  0  0  0  0  0  0  0  0  0  0
  140.0807   76.5419  219.5254 H   0  0  0  0  0  0  0  0  0  0  0  0
  141.1512   75.2761  218.9175 H   0  0  0  0  0  0  0  0  0  0  0  0
  140.1973   72.2788  222.3457 H   0  0  0  0  0  0  0  0  0  0  0  0
  140.8152   72.8374  226.1932 H   0  0  0  0  0  0  0  0  0  0  0  0
  141.6826   72.2832  228.4611 H   0  0  0  0  0  0  0  0  0  0  0  0
  141.4561   69.9643  229.3301 H   0  0  0  0  0  0  0  0  0  0  0  0
  140.3683   68.2160  227.9466 H   0  0  0  0  0  0  0  0  0  0  0  0
  1  2  2  0
  2  3  1  0
  3  4  1  0
  4  5  1  0
  5  6  2  0
  6  7  1  0
  7  8  2  0
  8  9  1  0
  9 10  1  0
 10 11  2  0
 10 12  1  0
 12 13  1  0
 13 14  1  0
 14 15  1  0
 15 16  1  0
 16 17  2  0
 17 18  1  0
 18 19  2  0
 19 20  1  0
 20 21  2  0
 15 22  1  0
 22 23  1  0
  9 24  2  0
  4 25  2  0
 25 26  1  0
 26 27  2  0
 27 28  1  0
 28 29  2  0
 29 30  1  0
 30 31  2  0
 31  2  1  0
 24  5  1  0
 31 26  1  0
 23 12  1  0
 21 16  1  0
  3 32  1  0
  3 33  1  0
  6 34  1  0
  7 35  1  0
  8 36  1  0
 13 37  1  0
 13 38  1  0
 14 39  1  0
 14 40  1  0
 17 41  1  0
 18 42  1  0
 19 43  1  0
 20 44  1  0
 22 45  1  0
 22 46  1  0
 23 47  1  0
 23 48  1  0
 24 49  1  0
 27 50  1  0
 28 51  1  0
 29 52  1  0
 30 53  1  0
M  END
>  <smiles>  (13) 
O=C1CC(c2cccc(C(=O)N3CCN(c4ccccn4)CC3)c2)=Nc2ccccc21

>  <score_type>  (13) 
oracle

>  <origin>  (13) 
autodockgpu

>  <m_score__min__energy>  (13) 
-9.1400000000000006

>  <m_primary>  (13) 
energy

>  <rmsd>  (13) 
3.7874309877375425

>  <m_score__min__rmsd>  (13) 
3.7874309877375425

>  <meeko>  (13) 
{"free_energy": -9.03, "intermolecular_energy": -9.92, "internal_energy": -0.93, "cluster_size": 49, "cluster_id": 1, "rank_in_cluster": 42}

>  <energy>  (13) 
-9.14

>  <cluster_rmsd>  (13) 
0.04

>  <cluster>  (13) 
1

$$$$

     RDKit          3D

 53 57  0  0  0  0  0  0  0  0999 V2000
  139.2050   67.4060  225.6970 O   0  0  0  0  0  0  0  0  0  0  0  0
  139.3290   68.6080  225.3670 C   0  0  0  0  0  0  0  0  0  0  0  0
  138.7880   69.0110  224.0430 C   0  0  0  0  0  0  0  0  0  0  0  0
  139.0110   70.4430  223.8010 C   0  0  0  0  0  0  0  0  0  0  0  0
  138.5490   71.0290  222.5360 C   0  0  0  0  0  0  0  0  0  0  0  0
  137.4350   70.5170  221.8820 C   0  0  0  0  0  0  0  0  0  0  0  0
  137.0120   71.0720  220.6850 C   0  0  0  0  0  0  0  0  0  0  0  0
  137.7230   72.1310  220.1730 C   0  0  0  0  0  0  0  0  0  0  0  0
  138.8340   72.6800  220.7770 C   0  0  0  0  0  0  0  0  0  0  0  0
  139.5720   73.8060  220.2040 C   0  0  0  0  0  0  0  0  0  0  0  0
  140.1140   73.5690  219.0680 O   0  0  0  0  0  0  0  0  0  0  0  0
  139.6930   75.0570  220.8300 N   0  0  0  0  0  0  0  0  0  0  0  0
  139.1040   75.3670  222.1010 C   0  0  0  0  0  0  0  0  0  0  0  0
  139.5030   76.6500  222.7170 C   0  0  0  0  0  0  0  0  0  0  0  0
  140.6290   77.3200  222.1590 N   0  0  0  0  0  0  0  0  0  0  0  0
  140.9030   78.6540  222.5640 C   0  0  0  0  0  0  0  0  0  0  0  0
  142.1820   79.1440  222.4600 C   0  0  0  0  0  0  0  0  0  0  0  0
  142.4370   80.4480  222.8640 C   0  0  0  0  0  0  0  0  0  0  0  0
  141.3920   81.2260  223.3640 C   0  0  0  0  0  0  0  0  0  0  0  0
  140.1260   80.6670  223.4400 C   0  0  0  0  0  0  0  0  0  0  0  0
  139.8950   79.4000  223.0440 N   0  0  0  0  0  0  0  0  0  0  0  0
  141.4550   76.6120  221.1990 C   0  0  0  0  0  0  0  0  0  0  0  0
  140.4610   76.0950  220.1500 C   0  0  0  0  0  0  0  0  0  0  0  0
  139.2260   72.0940  221.9780 C   0  0  0  0  0  0  0  0  0  0  0  0
  139.6010   71.2060  224.6560 N   0  0  0  0  0  0  0  0  0  0  0  0
  140.1100   70.8320  225.9040 C   0  0  0  0  0  0  0  0  0  0  0  0
  140.7150   71.7860  226.6930 C   0  0  0  0  0  0  0  0  0  0  0  0
  141.2160   71.4140  227.9200 C   0  0  0  0  0  0  0  0  0  0  0  0
  141.1040   70.0970  228.3350 C   0  0  0  0  0  0  0  0  0  0  0  0
  140.4880   69.1570  227.5120 C   0  0  0  0  0  0  0  0  0  0  0  0
  139.9810   69.5060  226.2870 C   0  0  0  0  0  0  0  0  0  0  0  0
  139.2910   68.4299  223.2561 H   0  0  0  0  0  0  0  0  0  0  0  0
  137.7054   68.8162  224.0309 H   0  0  0  0  0  0  0  0  0  0  0  0
  136.8869   69.6679  222.3162 H   0  0  0  0  0  0  0  0  0  0  0  0
  136.1310   70.6758  220.1587 H   0  0  0  0  0  0  0  0  0  0  0  0
  137.3844   72.5678  219.2219 H   0  0  0  0  0  0  0  0  0  0  0  0
  138.0122   75.3853  221.9679 H   0  0  0  0  0  0  0  0  0  0  0  0
  139.4673   74.5886  222.7880 H   0  0  0  0  0  0  0  0  0  0  0  0
  138.6434   77.3325  222.6452 H   0  0  0  0  0  0  0  0  0  0  0  0
  139.8086   76.3888  223.7409 H   0  0  0  0  0  0  0  0  0  0  0  0
  142.9914   78.5136  222.0631 H   0  0  0  0  0  0  0  0  0  0  0  0
  143.4528   80.8635  222.7906 H   0  0  0  0  0  0  0  0  0  0  0  0
  141.5693   82.2612  223.6910 H   0  0  0  0  0  0  0  0  0  0  0  0
  139.2932   81.2697  223.8314 H   0  0  0  0  0  0  0  0  0  0  0  0
  142.1877   77.2917  220.7395 H   0  0  0  0  0  0  0  0  0  0  0  0
  142.0359   75.8010  221.6625 H   0  0  0  0  0  0  0  0  0  0  0  0
  139.7991   76.9063  219.8129 H   0  0  0  0  0  0  0  0  0  0  0  0
  140.9711   75.7094  219.2549 H   0  0  0  0  0  0  0  0  0  0  0  0
  140.1071   72.4946  222.5006 H   0  0  0  0  0  0  0  0  0  0  0  0
  140.7963   72.8274  226.3481 H   0  0  0  0  0  0  0  0  0  0  0  0
  141.7026   72.1584  228.5674 H   0  0  0  0  0  0  0  0  0  0  0  0
  141.5016   69.7935  229.3147 H   0  0  0  0  0  0  0  0  0  0  0  0
  140.4068   68.1139  227.8517 H   0  0  0  0  0  0  0  0  0  0  0  0
  1  2  2  0
  2  3  1  0
  3  4  1  0
  4  5  1  0
  5  6  2  0
  6  7  1  0
  7  8  2  0
  8  9  1  0
  9 10  1  0
 10 11  2  0
 10 12  1  0
 12 13  1  0
 13 14  1  0
 14 15  1  0
 15 16  1  0
 16 17  2  0
 17 18  1  0
 18 19  2  0
 19 20  1  0
 20 21  2  0
 15 22  1  0
 22 23  1  0
  9 24  2  0
  4 25  2  0
 25 26  1  0
 26 27  2  0
 27 28  1  0
 28 29  2  0
 29 30  1  0
 30 31  2  0
 31  2  1  0
 24  5  1  0
 31 26  1  0
 23 12  1  0
 21 16  1  0
  3 32  1  0
  3 33  1  0
  6 34  1  0
  7 35  1  0
  8 36  1  0
 13 37  1  0
 13 38  1  0
 14 39  1  0
 14 40  1  0
 17 41  1  0
 18 42  1  0
 19 43  1  0
 20 44  1  0
 22 45  1  0
 22 46  1  0
 23 47  1  0
 23 48  1  0
 24 49  1  0
 27 50  1  0
 28 51  1  0
 29 52  1  0
 30 53  1  0
M  END
>  <smiles>  (14) 
O=C1CC(c2cccc(C(=O)N3CCN(c4ccccn4)CC3)c2)=Nc2ccccc21

>  <score_type>  (14) 
oracle

>  <origin>  (14) 
autodockgpu

>  <m_score__min__energy>  (14) 
-9.1400000000000006

>  <m_primary>  (14) 
energy

>  <rmsd>  (14) 
4.188903297573431

>  <m_score__min__rmsd>  (14) 
4.188903297573431

>  <meeko>  (14) 
{"free_energy": -9.02, "intermolecular_energy": -9.92, "internal_energy": -0.93, "cluster_size": 49, "cluster_id": 1, "rank_in_cluster": 43}

>  <energy>  (14) 
-9.13

>  <cluster_rmsd>  (14) 
0.07

>  <cluster>  (14) 
1

$$$$

     RDKit          3D

 53 57  0  0  0  0  0  0  0  0999 V2000
  139.2180   67.3880  225.1480 O   0  0  0  0  0  0  0  0  0  0  0  0
  139.4930   68.5970  224.9710 C   0  0  0  0  0  0  0  0  0  0  0  0
  139.2330   69.1640  223.6230 C   0  0  0  0  0  0  0  0  0  0  0  0
  139.6050   70.5850  223.5730 C   0  0  0  0  0  0  0  0  0  0  0  0
  139.4270   71.3210  222.3150 C   0  0  0  0  0  0  0  0  0  0  0  0
  139.7680   70.7420  221.0980 C   0  0  0  0  0  0  0  0  0  0  0  0
  139.6020   71.4480  219.9190 C   0  0  0  0  0  0  0  0  0  0  0  0
  139.0980   72.7240  219.9900 C   0  0  0  0  0  0  0  0  0  0  0  0
  138.7430   73.3490  221.1650 C   0  0  0  0  0  0  0  0  0  0  0  0
  138.2110   74.7120  221.2080 C   0  0  0  0  0  0  0  0  0  0  0  0
  137.0080   74.8320  220.7860 O   0  0  0  0  0  0  0  0  0  0  0  0
  138.9420   75.8190  221.6710 N   0  0  0  0  0  0  0  0  0  0  0  0
  140.2910   75.7320  222.1520 C   0  0  0  0  0  0  0  0  0  0  0  0
  140.9860   77.0130  222.3980 C   0  0  0  0  0  0  0  0  0  0  0  0
  140.3850   78.1940  221.8750 N   0  0  0  0  0  0  0  0  0  0  0  0
  140.8890   79.4580  222.2820 C   0  0  0  0  0  0  0  0  0  0  0  0
  141.8030   79.5250  223.3050 C   0  0  0  0  0  0  0  0  0  0  0  0
  142.2840   80.7680  223.6960 C   0  0  0  0  0  0  0  0  0  0  0  0
  141.8290   81.9140  223.0430 C   0  0  0  0  0  0  0  0  0  0  0  0
  140.9070   81.7720  222.0180 C   0  0  0  0  0  0  0  0  0  0  0  0
  140.4500   80.5590  221.6500 N   0  0  0  0  0  0  0  0  0  0  0  0
  139.2810   78.0580  220.9440 C   0  0  0  0  0  0  0  0  0  0  0  0
  138.2920   77.1250  221.6580 C   0  0  0  0  0  0  0  0  0  0  0  0
  138.9240   72.6060  222.3290 C   0  0  0  0  0  0  0  0  0  0  0  0
  140.0890   71.2110  224.5910 N   0  0  0  0  0  0  0  0  0  0  0  0
  140.3330   70.6810  225.8630 C   0  0  0  0  0  0  0  0  0  0  0  0
  140.8570   71.5000  226.8390 C   0  0  0  0  0  0  0  0  0  0  0  0
  141.0980   70.9750  228.0890 C   0  0  0  0  0  0  0  0  0  0  0  0
  140.8110   69.6430  228.3390 C   0  0  0  0  0  0  0  0  0  0  0  0
  140.2830   68.8420  227.3290 C   0  0  0  0  0  0  0  0  0  0  0  0
  140.0350   69.3440  226.0780 C   0  0  0  0  0  0  0  0  0  0  0  0
  139.8242   68.6102  222.8788 H   0  0  0  0  0  0  0  0  0  0  0  0
  138.1589   69.0732  223.4039 H   0  0  0  0  0  0  0  0  0  0  0  0
  140.1713   69.7189  221.0719 H   0  0  0  0  0  0  0  0  0  0  0  0
  139.8668   70.9990  218.9504 H   0  0  0  0  0  0  0  0  0  0  0  0
  138.9700   73.2811  219.0502 H   0  0  0  0  0  0  0  0  0  0  0  0
  140.2728   75.1740  223.0998 H   0  0  0  0  0  0  0  0  0  0  0  0
  140.8573   75.2431  221.3456 H   0  0  0  0  0  0  0  0  0  0  0  0
  141.0695   77.1396  223.4875 H   0  0  0  0  0  0  0  0  0  0  0  0
  141.9426   76.9224  221.8625 H   0  0  0  0  0  0  0  0  0  0  0  0
  142.1485   78.6090  223.8066 H   0  0  0  0  0  0  0  0  0  0  0  0
  143.0166   80.8481  224.5126 H   0  0  0  0  0  0  0  0  0  0  0  0
  142.1944   82.9094  223.3356 H   0  0  0  0  0  0  0  0  0  0  0  0
  140.5410   82.6675  221.4944 H   0  0  0  0  0  0  0  0  0  0  0  0
  138.8183   79.0356  220.7434 H   0  0  0  0  0  0  0  0  0  0  0  0
  139.6012   77.6624  219.9688 H   0  0  0  0  0  0  0  0  0  0  0  0
  138.1050   77.4734  222.6845 H   0  0  0  0  0  0  0  0  0  0  0  0
  137.3160   77.0942  221.1516 H   0  0  0  0  0  0  0  0  0  0  0  0
  138.6563   73.0599  223.2945 H   0  0  0  0  0  0  0  0  0  0  0  0
  141.0791   72.5555  226.6234 H   0  0  0  0  0  0  0  0  0  0  0  0
  141.5160   71.6096  228.8844 H   0  0  0  0  0  0  0  0  0  0  0  0
  141.0002   69.2176  229.3356 H   0  0  0  0  0  0  0  0  0  0  0  0
  140.0607   67.7855  227.5397 H   0  0  0  0  0  0  0  0  0  0  0  0
  1  2  2  0
  2  3  1  0
  3  4  1  0
  4  5  1  0
  5  6  2  0
  6  7  1  0
  7  8  2  0
  8  9  1  0
  9 10  1  0
 10 11  2  0
 10 12  1  0
 12 13  1  0
 13 14  1  0
 14 15  1  0
 15 16  1  0
 16 17  2  0
 17 18  1  0
 18 19  2  0
 19 20  1  0
 20 21  2  0
 15 22  1  0
 22 23  1  0
  9 24  2  0
  4 25  2  0
 25 26  1  0
 26 27  2  0
 27 28  1  0
 28 29  2  0
 29 30  1  0
 30 31  2  0
 31  2  1  0
 24  5  1  0
 31 26  1  0
 23 12  1  0
 21 16  1  0
  3 32  1  0
  3 33  1  0
  6 34  1  0
  7 35  1  0
  8 36  1  0
 13 37  1  0
 13 38  1  0
 14 39  1  0
 14 40  1  0
 17 41  1  0
 18 42  1  0
 19 43  1  0
 20 44  1  0
 22 45  1  0
 22 46  1  0
 23 47  1  0
 23 48  1  0
 24 49  1  0
 27 50  1  0
 28 51  1  0
 29 52  1  0
 30 53  1  0
M  END
>  <smiles>  (15) 
O=C1CC(c2cccc(C(=O)N3CCN(c4ccccn4)CC3)c2)=Nc2ccccc21

>  <score_type>  (15) 
oracle

>  <origin>  (15) 
autodockgpu

>  <m_score__min__energy>  (15) 
-9.1400000000000006

>  <m_primary>  (15) 
energy

>  <rmsd>  (15) 
4.6345001012594285

>  <m_score__min__rmsd>  (15) 
4.6345001012594285

>  <meeko>  (15) 
{"free_energy": -9.01, "intermolecular_energy": -9.91, "internal_energy": -0.92, "cluster_size": 49, "cluster_id": 1, "rank_in_cluster": 47}

>  <energy>  (15) 
-9.13

>  <cluster_rmsd>  (15) 
0.04

>  <cluster>  (15) 
1

$$$$

     RDKit          3D

 53 57  0  0  0  0  0  0  0  0999 V2000
  139.2230   67.5500  225.2870 O   0  0  0  0  0  0  0  0  0  0  0  0
  139.4610   68.7590  225.0640 C   0  0  0  0  0  0  0  0  0  0  0  0
  139.1350   69.2790  223.7110 C   0  0  0  0  0  0  0  0  0  0  0  0
  139.4710   70.7050  223.6040 C   0  0  0  0  0  0  0  0  0  0  0  0
  139.2260   71.3990  222.3330 C   0  0  0  0  0  0  0  0  0  0  0  0
  139.3970   70.7410  221.1210 C   0  0  0  0  0  0  0  0  0  0  0  0
  139.1700   71.4060  219.9280 C   0  0  0  0  0  0  0  0  0  0  0  0
  138.7770   72.7220  219.9820 C   0  0  0  0  0  0  0  0  0  0  0  0
  138.5920   73.4250  221.1520 C   0  0  0  0  0  0  0  0  0  0  0  0
  138.1770   74.8280  221.1770 C   0  0  0  0  0  0  0  0  0  0  0  0
  137.0330   75.0570  220.6490 O   0  0  0  0  0  0  0  0  0  0  0  0
  138.9530   75.8610  221.7280 N   0  0  0  0  0  0  0  0  0  0  0  0
  140.2390   75.6510  222.3290 C   0  0  0  0  0  0  0  0  0  0  0  0
  141.0150   76.8630  222.6640 C   0  0  0  0  0  0  0  0  0  0  0  0
  140.5670   78.0990  222.1150 N   0  0  0  0  0  0  0  0  0  0  0  0
  141.1370   79.3090  222.5940 C   0  0  0  0  0  0  0  0  0  0  0  0
  142.2590   79.2620  223.3850 C   0  0  0  0  0  0  0  0  0  0  0  0
  142.8020   80.4520  223.8500 C   0  0  0  0  0  0  0  0  0  0  0  0
  142.1990   81.6620  223.5040 C   0  0  0  0  0  0  0  0  0  0  0  0
  141.0700   81.6340  222.7020 C   0  0  0  0  0  0  0  0  0  0  0  0
  140.5540   80.4710  222.2580 N   0  0  0  0  0  0  0  0  0  0  0  0
  139.5460   78.0730  221.0850 C   0  0  0  0  0  0  0  0  0  0  0  0
  138.4210   77.2190  221.6850 C   0  0  0  0  0  0  0  0  0  0  0  0
  138.8300   72.7200  222.3300 C   0  0  0  0  0  0  0  0  0  0  0  0
  139.9800   71.3720  224.5840 N   0  0  0  0  0  0  0  0  0  0  0  0
  140.2860   70.8870  225.8590 C   0  0  0  0  0  0  0  0  0  0  0  0
  140.8290   71.7470  226.7890 C   0  0  0  0  0  0  0  0  0  0  0  0
  141.1310   71.2650  228.0430 C   0  0  0  0  0  0  0  0  0  0  0  0
  140.8860   69.9360  228.3430 C   0  0  0  0  0  0  0  0  0  0  0  0
  140.3380   69.0930  227.3800 C   0  0  0  0  0  0  0  0  0  0  0  0
  140.0290   69.5510  226.1260 C   0  0  0  0  0  0  0  0  0  0  0  0
  139.7094   68.7161  222.9605 H   0  0  0  0  0  0  0  0  0  0  0  0
  138.0555   69.1577  223.5379 H   0  0  0  0  0  0  0  0  0  0  0  0
  139.7139   69.6877  221.1094 H   0  0  0  0  0  0  0  0  0  0  0  0
  139.3007   70.8948  218.9628 H   0  0  0  0  0  0  0  0  0  0  0  0
  138.5991   73.2465  219.0316 H   0  0  0  0  0  0  0  0  0  0  0  0
  140.0848   75.0849  223.2594 H   0  0  0  0  0  0  0  0  0  0  0  0
  140.8341   75.1249  221.5680 H   0  0  0  0  0  0  0  0  0  0  0  0
  141.0093   76.9666  223.7591 H   0  0  0  0  0  0  0  0  0  0  0  0
  142.0052   76.6971  222.2145 H   0  0  0  0  0  0  0  0  0  0  0  0
  142.7195   78.2976  223.6456 H   0  0  0  0  0  0  0  0  0  0  0  0
  143.6997   80.4412  224.4856 H   0  0  0  0  0  0  0  0  0  0  0  0
  142.6114   82.6174  223.8605 H   0  0  0  0  0  0  0  0  0  0  0  0
  140.5847   82.5805  222.4218 H   0  0  0  0  0  0  0  0  0  0  0  0
  139.1882   79.0898  220.8657 H   0  0  0  0  0  0  0  0  0  0  0  0
  139.9199   77.6661  220.1339 H   0  0  0  0  0  0  0  0  0  0  0  0
  138.1705   77.5674  222.6978 H   0  0  0  0  0  0  0  0  0  0  0  0
  137.4971   77.2800  221.0911 H   0  0  0  0  0  0  0  0  0  0  0  0
  138.6972   73.2358  223.2925 H   0  0  0  0  0  0  0  0  0  0  0  0
  141.0179   72.8002  226.5339 H   0  0  0  0  0  0  0  0  0  0  0  0
  141.5646   71.9324  228.8023 H   0  0  0  0  0  0  0  0  0  0  0  0
  141.1246   69.5456  229.3433 H   0  0  0  0  0  0  0  0  0  0  0  0
  140.1494   68.0387  227.6307 H   0  0  0  0  0  0  0  0  0  0  0  0
  1  2  2  0
  2  3  1  0
  3  4  1  0
  4  5  1  0
  5  6  2  0
  6  7  1  0
  7  8  2  0
  8  9  1  0
  9 10  1  0
 10 11  2  0
 10 12  1  0
 12 13  1  0
 13 14  1  0
 14 15  1  0
 15 16  1  0
 16 17  2  0
 17 18  1  0
 18 19  2  0
 19 20  1  0
 20 21  2  0
 15 22  1  0
 22 23  1  0
  9 24  2  0
  4 25  2  0
 25 26  1  0
 26 27  2  0
 27 28  1  0
 28 29  2  0
 29 30  1  0
 30 31  2  0
 31  2  1  0
 24  5  1  0
 31 26  1  0
 23 12  1  0
 21 16  1  0
  3 32  1  0
  3 33  1  0
  6 34  1  0
  7 35  1  0
  8 36  1  0
 13 37  1  0
 13 38  1  0
 14 39  1  0
 14 40  1  0
 17 41  1  0
 18 42  1  0
 19 43  1  0
 20 44  1  0
 22 45  1  0
 22 46  1  0
 23 47  1  0
 23 48  1  0
 24 49  1  0
 27 50  1  0
 28 51  1  0
 29 52  1  0
 30 53  1  0
M  END
>  <smiles>  (16) 
O=C1CC(c2cccc(C(=O)N3CCN(c4ccccn4)CC3)c2)=Nc2ccccc21

>  <score_type>  (16) 
oracle

>  <origin>  (16) 
autodockgpu

>  <m_score__min__energy>  (16) 
-9.1400000000000006

>  <m_primary>  (16) 
energy

>  <rmsd>  (16) 
4.677537843599303

>  <m_score__min__rmsd>  (16) 
4.677537843599303

>  <meeko>  (16) 
{"free_energy": -9.13, "intermolecular_energy": -10.02, "internal_energy": -0.92, "cluster_size": 49, "cluster_id": 1, "rank_in_cluster": 17}

>  <energy>  (16) 
-9.13

>  <cluster_rmsd>  (16) 
0.05

>  <cluster>  (16) 
1

$$$$

     RDKit          3D

 53 57  0  0  0  0  0  0  0  0999 V2000
  139.2160   67.5700  225.2890 O   0  0  0  0  0  0  0  0  0  0  0  0
  139.4610   68.7760  225.0570 C   0  0  0  0  0  0  0  0  0  0  0  0
  139.1530   69.2830  223.6940 C   0  0  0  0  0  0  0  0  0  0  0  0
  139.4940   70.7070  223.5770 C   0  0  0  0  0  0  0  0  0  0  0  0
  139.2670   71.3880  222.2970 C   0  0  0  0  0  0  0  0  0  0  0  0
  139.4570   70.7190  221.0930 C   0  0  0  0  0  0  0  0  0  0  0  0
  139.2470   71.3730  219.8900 C   0  0  0  0  0  0  0  0  0  0  0  0
  138.8510   72.6880  219.9260 C   0  0  0  0  0  0  0  0  0  0  0  0
  138.6470   73.4020  221.0870 C   0  0  0  0  0  0  0  0  0  0  0  0
  138.2290   74.8040  221.0920 C   0  0  0  0  0  0  0  0  0  0  0  0
  137.1020   75.0290  220.5270 O   0  0  0  0  0  0  0  0  0  0  0  0
  138.9850   75.8410  221.6630 N   0  0  0  0  0  0  0  0  0  0  0  0
  140.2520   75.6360  222.3050 C   0  0  0  0  0  0  0  0  0  0  0  0
  141.0150   76.8510  222.6590 C   0  0  0  0  0  0  0  0  0  0  0  0
  140.5830   78.0840  222.0900 N   0  0  0  0  0  0  0  0  0  0  0  0
  141.1350   79.2970  222.5820 C   0  0  0  0  0  0  0  0  0  0  0  0
  142.2590   79.2580  223.3700 C   0  0  0  0  0  0  0  0  0  0  0  0
  142.7850   80.4510  223.8470 C   0  0  0  0  0  0  0  0  0  0  0  0
  142.1630   81.6560  223.5160 C   0  0  0  0  0  0  0  0  0  0  0  0
  141.0330   81.6190  222.7150 C   0  0  0  0  0  0  0  0  0  0  0  0
  140.5340   80.4540  222.2590 N   0  0  0  0  0  0  0  0  0  0  0  0
  139.5950   78.0510  221.0290 C   0  0  0  0  0  0  0  0  0  0  0  0
  138.4520   77.1980  221.5970 C   0  0  0  0  0  0  0  0  0  0  0  0
  138.8680   72.7090  222.2740 C   0  0  0  0  0  0  0  0  0  0  0  0
  139.9920   71.3830  224.5560 N   0  0  0  0  0  0  0  0  0  0  0  0
  140.2810   70.9100  225.8410 C   0  0  0  0  0  0  0  0  0  0  0  0
  140.8140   71.7780  226.7680 C   0  0  0  0  0  0  0  0  0  0  0  0
  141.0990   71.3090  228.0310 C   0  0  0  0  0  0  0  0  0  0  0  0
  140.8470   69.9830  228.3420 C   0  0  0  0  0  0  0  0  0  0  0  0
  140.3080   69.1320  227.3800 C   0  0  0  0  0  0  0  0  0  0  0  0
  140.0160   69.5780  226.1170 C   0  0  0  0  0  0  0  0  0  0  0  0
  139.7353   68.7111  222.9565 H   0  0  0  0  0  0  0  0  0  0  0  0
  138.0755   69.1624  223.5084 H   0  0  0  0  0  0  0  0  0  0  0  0
  139.7754   69.6661  221.0958 H   0  0  0  0  0  0  0  0  0  0  0  0
  139.3934   70.8533  218.9316 H   0  0  0  0  0  0  0  0  0  0  0  0
  138.6864   73.2033  218.9682 H   0  0  0  0  0  0  0  0  0  0  0  0
  140.0697   75.0735  223.2326 H   0  0  0  0  0  0  0  0  0  0  0  0
  140.8716   75.1079  221.5653 H   0  0  0  0  0  0  0  0  0  0  0  0
  140.9739   76.9597  223.7528 H   0  0  0  0  0  0  0  0  0  0  0  0
  142.0193   76.6847  222.2422 H   0  0  0  0  0  0  0  0  0  0  0  0
  142.7345   78.2979  223.6190 H   0  0  0  0  0  0  0  0  0  0  0  0
  143.6843   80.4467  224.4804 H   0  0  0  0  0  0  0  0  0  0  0  0
  142.5610   82.6136  223.8829 H   0  0  0  0  0  0  0  0  0  0  0  0
  140.5329   82.5610  222.4458 H   0  0  0  0  0  0  0  0  0  0  0  0
  139.2429   79.0662  220.7934 H   0  0  0  0  0  0  0  0  0  0  0  0
  139.9995   77.6395  220.0925 H   0  0  0  0  0  0  0  0  0  0  0  0
  138.1688   77.5506  222.5997 H   0  0  0  0  0  0  0  0  0  0  0  0
  137.5472   77.2549  220.9741 H   0  0  0  0  0  0  0  0  0  0  0  0
  138.7191   73.2338  223.2292 H   0  0  0  0  0  0  0  0  0  0  0  0
  141.0087   72.8280  226.5040 H   0  0  0  0  0  0  0  0  0  0  0  0
  141.5244   71.9836  228.7886 H   0  0  0  0  0  0  0  0  0  0  0  0
  141.0726   69.6019  229.3489 H   0  0  0  0  0  0  0  0  0  0  0  0
  140.1127   68.0809  227.6389 H   0  0  0  0  0  0  0  0  0  0  0  0
  1  2  2  0
  2  3  1  0
  3  4  1  0
  4  5  1  0
  5  6  2  0
  6  7  1  0
  7  8  2  0
  8  9  1  0
  9 10  1  0
 10 11  2  0
 10 12  1  0
 12 13  1  0
 13 14  1  0
 14 15  1  0
 15 16  1  0
 16 17  2  0
 17 18  1  0
 18 19  2  0
 19 20  1  0
 20 21  2  0
 15 22  1  0
 22 23  1  0
  9 24  2  0
  4 25  2  0
 25 26  1  0
 26 27  2  0
 27 28  1  0
 28 29  2  0
 29 30  1  0
 30 31  2  0
 31  2  1  0
 24  5  1  0
 31 26  1  0
 23 12  1  0
 21 16  1  0
  3 32  1  0
  3 33  1  0
  6 34  1  0
  7 35  1  0
  8 36  1  0
 13 37  1  0
 13 38  1  0
 14 39  1  0
 14 40  1  0
 17 41  1  0
 18 42  1  0
 19 43  1  0
 20 44  1  0
 22 45  1  0
 22 46  1  0
 23 47  1  0
 23 48  1  0
 24 49  1  0
 27 50  1  0
 28 51  1  0
 29 52  1  0
 30 53  1  0
M  END
>  <smiles>  (17) 
O=C1CC(c2cccc(C(=O)N3CCN(c4ccccn4)CC3)c2)=Nc2ccccc21

>  <score_type>  (17) 
oracle

>  <origin>  (17) 
autodockgpu

>  <m_score__min__energy>  (17) 
-9.1400000000000006

>  <m_primary>  (17) 
energy

>  <rmsd>  (17) 
4.666279682535675

>  <m_score__min__rmsd>  (17) 
4.666279682535675

>  <meeko>  (17) 
{"free_energy": -9.12, "intermolecular_energy": -10.01, "internal_energy": -0.92, "cluster_size": 49, "cluster_id": 1, "rank_in_cluster": 23}

>  <energy>  (17) 
-9.13

>  <cluster_rmsd>  (17) 
0.05

>  <cluster>  (17) 
1

$$$$

     RDKit          3D

 53 57  0  0  0  0  0  0  0  0999 V2000
  139.2210   67.3990  225.8560 O   0  0  0  0  0  0  0  0  0  0  0  0
  139.3630   68.5740  225.4450 C   0  0  0  0  0  0  0  0  0  0  0  0
  138.8580   68.8830  224.0820 C   0  0  0  0  0  0  0  0  0  0  0  0
  139.0970   70.2940  223.7440 C   0  0  0  0  0  0  0  0  0  0  0  0
  138.6710   70.7900  222.4290 C   0  0  0  0  0  0  0  0  0  0  0  0
  137.5730   70.2350  221.7820 C   0  0  0  0  0  0  0  0  0  0  0  0
  137.1840   70.7060  220.5390 C   0  0  0  0  0  0  0  0  0  0  0  0
  137.9120   71.7250  219.9740 C   0  0  0  0  0  0  0  0  0  0  0  0
  139.0080   72.3130  220.5670 C   0  0  0  0  0  0  0  0  0  0  0  0
  139.7650   73.3950  219.9360 C   0  0  0  0  0  0  0  0  0  0  0  0
  140.2380   73.1150  218.7800 O   0  0  0  0  0  0  0  0  0  0  0  0
  139.9720   74.6500  220.5310 N   0  0  0  0  0  0  0  0  0  0  0  0
  139.4620   75.0080  221.8240 C   0  0  0  0  0  0  0  0  0  0  0  0
  139.9480   76.2820  222.3950 C   0  0  0  0  0  0  0  0  0  0  0  0
  141.0730   76.8920  221.7690 N   0  0  0  0  0  0  0  0  0  0  0  0
  141.4250   78.2190  222.1340 C   0  0  0  0  0  0  0  0  0  0  0  0
  141.6430   79.1550  221.1540 C   0  0  0  0  0  0  0  0  0  0  0  0
  141.9920   80.4470  221.5250 C   0  0  0  0  0  0  0  0  0  0  0  0
  142.1120   80.7620  222.8790 C   0  0  0  0  0  0  0  0  0  0  0  0
  141.8760   79.7660  223.8140 C   0  0  0  0  0  0  0  0  0  0  0  0
  141.5380   78.5170  223.4380 N   0  0  0  0  0  0  0  0  0  0  0  0
  141.8160   76.1310  220.7830 C   0  0  0  0  0  0  0  0  0  0  0  0
  140.7490   75.6410  219.7940 C   0  0  0  0  0  0  0  0  0  0  0  0
  139.3660   71.8120  221.8160 C   0  0  0  0  0  0  0  0  0  0  0  0
  139.6720   71.1130  224.5570 N   0  0  0  0  0  0  0  0  0  0  0  0
  140.1470   70.8260  225.8410 C   0  0  0  0  0  0  0  0  0  0  0  0
  140.7390   71.8310  226.5740 C   0  0  0  0  0  0  0  0  0  0  0  0
  141.2070   71.5440  227.8370 C   0  0  0  0  0  0  0  0  0  0  0  0
  141.0750   70.2610  228.3420 C   0  0  0  0  0  0  0  0  0  0  0  0
  140.4720   69.2680  227.5730 C   0  0  0  0  0  0  0  0  0  0  0  0
  139.9980   69.5310  226.3140 C   0  0  0  0  0  0  0  0  0  0  0  0
  139.3767   68.2444  223.3519 H   0  0  0  0  0  0  0  0  0  0  0  0
  137.7749   68.6928  224.0558 H   0  0  0  0  0  0  0  0  0  0  0  0
  137.0109   69.4186  222.2590 H   0  0  0  0  0  0  0  0  0  0  0  0
  136.3158   70.2759  220.0183 H   0  0  0  0  0  0  0  0  0  0  0  0
  137.6003   72.0947  218.9860 H   0  0  0  0  0  0  0  0  0  0  0  0
  138.3668   75.0734  221.7449 H   0  0  0  0  0  0  0  0  0  0  0  0
  139.8248   74.2257  222.5069 H   0  0  0  0  0  0  0  0  0  0  0  0
  139.1166   77.0011  222.3534 H   0  0  0  0  0  0  0  0  0  0  0  0
  140.2936   76.0241  223.4070 H   0  0  0  0  0  0  0  0  0  0  0  0
  141.5429   78.8861  220.0921 H   0  0  0  0  0  0  0  0  0  0  0  0
  142.1722   81.2150  220.7584 H   0  0  0  0  0  0  0  0  0  0  0  0
  142.3877   81.7781  223.1975 H   0  0  0  0  0  0  0  0  0  0  0  0
  141.9666   80.0002  224.8850 H   0  0  0  0  0  0  0  0  0  0  0  0
  142.5541   76.7688  220.2746 H   0  0  0  0  0  0  0  0  0  0  0  0
  142.3821   75.3022  221.2331 H   0  0  0  0  0  0  0  0  0  0  0  0
  140.1069   76.4750  219.4745 H   0  0  0  0  0  0  0  0  0  0  0  0
  141.1961   75.2183  218.8822 H   0  0  0  0  0  0  0  0  0  0  0  0
  140.2344   72.2469  222.3325 H   0  0  0  0  0  0  0  0  0  0  0  0
  140.8362   72.8446  226.1579 H   0  0  0  0  0  0  0  0  0  0  0  0
  141.6833   72.3298  228.4418 H   0  0  0  0  0  0  0  0  0  0  0  0
  141.4463   70.0261  229.3504 H   0  0  0  0  0  0  0  0  0  0  0  0
  140.3743   68.2525  227.9844 H   0  0  0  0  0  0  0  0  0  0  0  0
  1  2  2  0
  2  3  1  0
  3  4  1  0
  4  5  1  0
  5  6  2  0
  6  7  1  0
  7  8  2  0
  8  9  1  0
  9 10  1  0
 10 11  2  0
 10 12  1  0
 12 13  1  0
 13 14  1  0
 14 15  1  0
 15 16  1  0
 16 17  2  0
 17 18  1  0
 18 19  2  0
 19 20  1  0
 20 21  2  0
 15 22  1  0
 22 23  1  0
  9 24  2  0
  4 25  2  0
 25 26  1  0
 26 27  2  0
 27 28  1  0
 28 29  2  0
 29 30  1  0
 30 31  2  0
 31  2  1  0
 24  5  1  0
 31 26  1  0
 23 12  1  0
 21 16  1  0
  3 32  1  0
  3 33  1  0
  6 34  1  0
  7 35  1  0
  8 36  1  0
 13 37  1  0
 13 38  1  0
 14 39  1  0
 14 40  1  0
 17 41  1  0
 18 42  1  0
 19 43  1  0
 20 44  1  0
 22 45  1  0
 22 46  1  0
 23 47  1  0
 23 48  1  0
 24 49  1  0
 27 50  1  0
 28 51  1  0
 29 52  1  0
 30 53  1  0
M  END
>  <smiles>  (18) 
O=C1CC(c2cccc(C(=O)N3CCN(c4ccccn4)CC3)c2)=Nc2ccccc21

>  <score_type>  (18) 
oracle

>  <origin>  (18) 
autodockgpu

>  <m_score__min__energy>  (18) 
-9.1400000000000006

>  <m_primary>  (18) 
energy

>  <rmsd>  (18) 
3.7474726482269083

>  <m_score__min__rmsd>  (18) 
3.7474726482269083

>  <meeko>  (18) 
{"free_energy": -9.01, "intermolecular_energy": -9.91, "internal_energy": -0.93, "cluster_size": 49, "cluster_id": 1, "rank_in_cluster": 45}

>  <energy>  (18) 
-9.13

>  <cluster_rmsd>  (18) 
0.04

>  <cluster>  (18) 
1

$$$$

     RDKit          3D

 53 57  0  0  0  0  0  0  0  0999 V2000
  139.1880   67.3890  225.7900 O   0  0  0  0  0  0  0  0  0  0  0  0
  139.3190   68.5760  225.4120 C   0  0  0  0  0  0  0  0  0  0  0  0
  138.8010   68.9210  224.0620 C   0  0  0  0  0  0  0  0  0  0  0  0
  139.0290   70.3420  223.7640 C   0  0  0  0  0  0  0  0  0  0  0  0
  138.5900   70.8740  222.4670 C   0  0  0  0  0  0  0  0  0  0  0  0
  137.4590   70.3660  221.8380 C   0  0  0  0  0  0  0  0  0  0  0  0
  137.0580   70.8690  220.6120 C   0  0  0  0  0  0  0  0  0  0  0  0
  137.8050   71.8730  220.0450 C   0  0  0  0  0  0  0  0  0  0  0  0
  138.9330   72.4150  220.6210 C   0  0  0  0  0  0  0  0  0  0  0  0
  139.7110   73.4820  219.9900 C   0  0  0  0  0  0  0  0  0  0  0  0
  140.1850   73.1890  218.8370 O   0  0  0  0  0  0  0  0  0  0  0  0
  139.9350   74.7370  220.5810 N   0  0  0  0  0  0  0  0  0  0  0  0
  139.4240   75.1080  221.8690 C   0  0  0  0  0  0  0  0  0  0  0  0
  139.9280   76.3760  222.4370 C   0  0  0  0  0  0  0  0  0  0  0  0
  141.0650   76.9650  221.8140 N   0  0  0  0  0  0  0  0  0  0  0  0
  141.4370   78.2880  222.1760 C   0  0  0  0  0  0  0  0  0  0  0  0
  141.5420   79.2510  221.2030 C   0  0  0  0  0  0  0  0  0  0  0  0
  141.9110   80.5380  221.5700 C   0  0  0  0  0  0  0  0  0  0  0  0
  142.1660   80.8220  222.9120 C   0  0  0  0  0  0  0  0  0  0  0  0
  142.0390   79.8010  223.8410 C   0  0  0  0  0  0  0  0  0  0  0  0
  141.6800   78.5570  223.4690 N   0  0  0  0  0  0  0  0  0  0  0  0
  141.8020   76.1890  220.8350 C   0  0  0  0  0  0  0  0  0  0  0  0
  140.7320   75.7110  219.8430 C   0  0  0  0  0  0  0  0  0  0  0  0
  139.3030   71.8830  221.8540 C   0  0  0  0  0  0  0  0  0  0  0  0
  139.6060   71.1410  224.5950 N   0  0  0  0  0  0  0  0  0  0  0  0
  140.0930   70.8200  225.8670 C   0  0  0  0  0  0  0  0  0  0  0  0
  140.6850   71.8070  226.6240 C   0  0  0  0  0  0  0  0  0  0  0  0
  141.1650   71.4870  227.8750 C   0  0  0  0  0  0  0  0  0  0  0  0
  141.0450   70.1890  228.3430 C   0  0  0  0  0  0  0  0  0  0  0  0
  140.4420   69.2150  227.5500 C   0  0  0  0  0  0  0  0  0  0  0  0
  139.9560   69.5120  226.3040 C   0  0  0  0  0  0  0  0  0  0  0  0
  139.3177   68.3071  223.3095 H   0  0  0  0  0  0  0  0  0  0  0  0
  137.7189   68.7245  224.0383 H   0  0  0  0  0  0  0  0  0  0  0  0
  136.8807   69.5616  222.3161 H   0  0  0  0  0  0  0  0  0  0  0  0
  136.1647   70.4751  220.1052 H   0  0  0  0  0  0  0  0  0  0  0  0
  137.4824   72.2687  219.0706 H   0  0  0  0  0  0  0  0  0  0  0  0
  138.3305   75.1911  221.7837 H   0  0  0  0  0  0  0  0  0  0  0  0
  139.7696   74.3225  222.5571 H   0  0  0  0  0  0  0  0  0  0  0  0
  139.1086   77.1083  222.3888 H   0  0  0  0  0  0  0  0  0  0  0  0
  140.2649   76.1165  223.4515 H   0  0  0  0  0  0  0  0  0  0  0  0
  141.3372   79.0068  220.1502 H   0  0  0  0  0  0  0  0  0  0  0  0
  142.0016   81.3272  220.8092 H   0  0  0  0  0  0  0  0  0  0  0  0
  142.4614   81.8340  223.2260 H   0  0  0  0  0  0  0  0  0  0  0  0
  142.2352   80.0107  224.9028 H   0  0  0  0  0  0  0  0  0  0  0  0
  142.5519   76.8137  220.3277 H   0  0  0  0  0  0  0  0  0  0  0  0
  142.3540   75.3540  221.2911 H   0  0  0  0  0  0  0  0  0  0  0  0
  140.1053   76.5537  219.5156 H   0  0  0  0  0  0  0  0  0  0  0  0
  141.1769   75.2759  218.9360 H   0  0  0  0  0  0  0  0  0  0  0  0
  140.1962   72.2821  222.3570 H   0  0  0  0  0  0  0  0  0  0  0  0
  140.7729   72.8327  226.2363 H   0  0  0  0  0  0  0  0  0  0  0  0
  141.6409   72.2581  228.4987 H   0  0  0  0  0  0  0  0  0  0  0  0
  141.4259   69.9270  229.3411 H   0  0  0  0  0  0  0  0  0  0  0  0
  140.3544   68.1871  227.9319 H   0  0  0  0  0  0  0  0  0  0  0  0
  1  2  2  0
  2  3  1  0
  3  4  1  0
  4  5  1  0
  5  6  2  0
  6  7  1  0
  7  8  2  0
  8  9  1  0
  9 10  1  0
 10 11  2  0
 10 12  1  0
 12 13  1  0
 13 14  1  0
 14 15  1  0
 15 16  1  0
 16 17  2  0
 17 18  1  0
 18 19  2  0
 19 20  1  0
 20 21  2  0
 15 22  1  0
 22 23  1  0
  9 24  2  0
  4 25  2  0
 25 26  1  0
 26 27  2  0
 27 28  1  0
 28 29  2  0
 29 30  1  0
 30 31  2  0
 31  2  1  0
 24  5  1  0
 31 26  1  0
 23 12  1  0
 21 16  1  0
  3 32  1  0
  3 33  1  0
  6 34  1  0
  7 35  1  0
  8 36  1  0
 13 37  1  0
 13 38  1  0
 14 39  1  0
 14 40  1  0
 17 41  1  0
 18 42  1  0
 19 43  1  0
 20 44  1  0
 22 45  1  0
 22 46  1  0
 23 47  1  0
 23 48  1  0
 24 49  1  0
 27 50  1  0
 28 51  1  0
 29 52  1  0
 30 53  1  0
M  END
>  <smiles>  (19) 
O=C1CC(c2cccc(C(=O)N3CCN(c4ccccn4)CC3)c2)=Nc2ccccc21

>  <score_type>  (19) 
oracle

>  <origin>  (19) 
autodockgpu

>  <m_score__min__energy>  (19) 
-9.1400000000000006

>  <m_primary>  (19) 
energy

>  <rmsd>  (19) 
3.787703954777706

>  <m_score__min__rmsd>  (19) 
3.787703954777706

>  <meeko>  (19) 
{"free_energy": -9.04, "intermolecular_energy": -9.94, "internal_energy": -0.93, "cluster_size": 49, "cluster_id": 1, "rank_in_cluster": 36}

>  <energy>  (19) 
-9.13

>  <cluster_rmsd>  (19) 
0.04

>  <cluster>  (19) 
1

$$$$

     RDKit          3D

 53 57  0  0  0  0  0  0  0  0999 V2000
  139.1720   67.3920  225.6330 O   0  0  0  0  0  0  0  0  0  0  0  0
  139.2340   68.6230  225.4150 C   0  0  0  0  0  0  0  0  0  0  0  0
  138.5680   69.1320  224.1880 C   0  0  0  0  0  0  0  0  0  0  0  0
  138.7280   70.5880  224.0710 C   0  0  0  0  0  0  0  0  0  0  0  0
  138.1430   71.2750  222.9140 C   0  0  0  0  0  0  0  0  0  0  0  0
  136.8500   70.9840  222.4940 C   0  0  0  0  0  0  0  0  0  0  0  0
  136.3090   71.6340  221.3970 C   0  0  0  0  0  0  0  0  0  0  0  0
  137.0840   72.5620  220.7450 C   0  0  0  0  0  0  0  0  0  0  0  0
  138.3700   72.8920  221.1140 C   0  0  0  0  0  0  0  0  0  0  0  0
  139.1710   73.8830  220.3960 C   0  0  0  0  0  0  0  0  0  0  0  0
  139.5700   73.5120  219.2370 O   0  0  0  0  0  0  0  0  0  0  0  0
  139.4930   75.1480  220.9140 N   0  0  0  0  0  0  0  0  0  0  0  0
  139.0690   75.6060  222.2060 C   0  0  0  0  0  0  0  0  0  0  0  0
  139.6690   76.8680  222.6880 C   0  0  0  0  0  0  0  0  0  0  0  0
  140.8040   77.3630  221.9830 N   0  0  0  0  0  0  0  0  0  0  0  0
  141.2650   78.6770  222.2620 C   0  0  0  0  0  0  0  0  0  0  0  0
  141.7550   78.9710  223.5110 C   0  0  0  0  0  0  0  0  0  0  0  0
  142.1970   80.2620  223.7710 C   0  0  0  0  0  0  0  0  0  0  0  0
  142.1350   81.2240  222.7630 C   0  0  0  0  0  0  0  0  0  0  0  0
  141.6290   80.8560  221.5260 C   0  0  0  0  0  0  0  0  0  0  0  0
  141.2040   79.6000  221.2890 N   0  0  0  0  0  0  0  0  0  0  0  0
  141.4470   76.5020  221.0080 C   0  0  0  0  0  0  0  0  0  0  0  0
  140.3030   76.0420  220.0930 C   0  0  0  0  0  0  0  0  0  0  0  0
  138.8760   72.2170  222.2220 C   0  0  0  0  0  0  0  0  0  0  0  0
  139.3700   71.2860  224.9450 N   0  0  0  0  0  0  0  0  0  0  0  0
  139.9960   70.8120  226.1030 C   0  0  0  0  0  0  0  0  0  0  0  0
  140.6400   71.7070  226.9280 C   0  0  0  0  0  0  0  0  0  0  0  0
  141.2570   71.2360  228.0660 C   0  0  0  0  0  0  0  0  0  0  0  0
  141.2180   69.8820  228.3560 C   0  0  0  0  0  0  0  0  0  0  0  0
  140.5590   69.0050  227.4990 C   0  0  0  0  0  0  0  0  0  0  0  0
  139.9380   69.4510  226.3620 C   0  0  0  0  0  0  0  0  0  0  0  0
  139.0164   68.6484  223.3076 H   0  0  0  0  0  0  0  0  0  0  0  0
  137.4945   68.8998  224.2484 H   0  0  0  0  0  0  0  0  0  0  0  0
  136.2541   70.2344  223.0352 H   0  0  0  0  0  0  0  0  0  0  0  0
  135.2864   71.4130  221.0571 H   0  0  0  0  0  0  0  0  0  0  0  0
  136.6507   73.0741  219.8732 H   0  0  0  0  0  0  0  0  0  0  0  0
  137.9787   75.7469  222.1694 H   0  0  0  0  0  0  0  0  0  0  0  0
  139.4064   74.8343  222.9136 H   0  0  0  0  0  0  0  0  0  0  0  0
  138.8892   77.6425  222.6442 H   0  0  0  0  0  0  0  0  0  0  0  0
  140.0420   76.6363  223.6966 H   0  0  0  0  0  0  0  0  0  0  0  0
  141.7967   78.1975  224.2920 H   0  0  0  0  0  0  0  0  0  0  0  0
  142.5926   80.5234  224.7635 H   0  0  0  0  0  0  0  0  0  0  0  0
  142.4801   82.2524  222.9456 H   0  0  0  0  0  0  0  0  0  0  0  0
  141.5734   81.6046  220.7219 H   0  0  0  0  0  0  0  0  0  0  0  0
  142.2035   77.0588  220.4356 H   0  0  0  0  0  0  0  0  0  0  0  0
  141.9748   75.6583  221.4766 H   0  0  0  0  0  0  0  0  0  0  0  0
  139.7071   76.9036  219.7575 H   0  0  0  0  0  0  0  0  0  0  0  0
  140.6765   75.5428  219.1868 H   0  0  0  0  0  0  0  0  0  0  0  0
  139.8986   72.4434  222.5581 H   0  0  0  0  0  0  0  0  0  0  0  0
  140.6613   72.7791  226.6826 H   0  0  0  0  0  0  0  0  0  0  0  0
  141.7778   71.9313  228.7408 H   0  0  0  0  0  0  0  0  0  0  0  0
  141.7079   69.4997  229.2637 H   0  0  0  0  0  0  0  0  0  0  0  0
  140.5364   67.9319  227.7396 H   0  0  0  0  0  0  0  0  0  0  0  0
  1  2  2  0
  2  3  1  0
  3  4  1  0
  4  5  1  0
  5  6  2  0
  6  7  1  0
  7  8  2  0
  8  9  1  0
  9 10  1  0
 10 11  2  0
 10 12  1  0
 12 13  1  0
 13 14  1  0
 14 15  1  0
 15 16  1  0
 16 17  2  0
 17 18  1  0
 18 19  2  0
 19 20  1  0
 20 21  2  0
 15 22  1  0
 22 23  1  0
  9 24  2  0
  4 25  2  0
 25 26  1  0
 26 27  2  0
 27 28  1  0
 28 29  2  0
 29 30  1  0
 30 31  2  0
 31  2  1  0
 24  5  1  0
 31 26  1  0
 23 12  1  0
 21 16  1  0
  3 32  1  0
  3 33  1  0
  6 34  1  0
  7 35  1  0
  8 36  1  0
 13 37  1  0
 13 38  1  0
 14 39  1  0
 14 40  1  0
 17 41  1  0
 18 42  1  0
 19 43  1  0
 20 44  1  0
 22 45  1  0
 22 46  1  0
 23 47  1  0
 23 48  1  0
 24 49  1  0
 27 50  1  0
 28 51  1  0
 29 52  1  0
 30 53  1  0
M  END
>  <smiles>  (20) 
O=C1CC(c2cccc(C(=O)N3CCN(c4ccccn4)CC3)c2)=Nc2ccccc21

>  <score_type>  (20) 
oracle

>  <origin>  (20) 
autodockgpu

>  <m_score__min__energy>  (20) 
-9.1400000000000006

>  <m_primary>  (20) 
energy

>  <rmsd>  (20) 
4.353817062927667

>  <m_score__min__rmsd>  (20) 
4.353817062927667

>  <meeko>  (20) 
{"free_energy": -9.01, "intermolecular_energy": -9.91, "internal_energy": -0.94, "cluster_size": 49, "cluster_id": 1, "rank_in_cluster": 46}

>  <energy>  (20) 
-9.13

>  <cluster_rmsd>  (20) 
0.06

>  <cluster>  (20) 
1

$$$$

     RDKit          3D

 53 57  0  0  0  0  0  0  0  0999 V2000
  139.2040   67.4540  225.8030 O   0  0  0  0  0  0  0  0  0  0  0  0
  139.3400   68.6370  225.4170 C   0  0  0  0  0  0  0  0  0  0  0  0
  138.8260   68.9750  224.0640 C   0  0  0  0  0  0  0  0  0  0  0  0
  139.0590   70.3930  223.7560 C   0  0  0  0  0  0  0  0  0  0  0  0
  138.6250   70.9170  222.4550 C   0  0  0  0  0  0  0  0  0  0  0  0
  137.5040   70.3960  221.8180 C   0  0  0  0  0  0  0  0  0  0  0  0
  137.1070   70.8920  220.5870 C   0  0  0  0  0  0  0  0  0  0  0  0
  137.8490   71.9020  220.0240 C   0  0  0  0  0  0  0  0  0  0  0  0
  138.9670   72.4570  220.6070 C   0  0  0  0  0  0  0  0  0  0  0  0
  139.7380   73.5300  219.9800 C   0  0  0  0  0  0  0  0  0  0  0  0
  140.2190   73.2420  218.8290 O   0  0  0  0  0  0  0  0  0  0  0  0
  139.9500   74.7860  220.5720 N   0  0  0  0  0  0  0  0  0  0  0  0
  139.4320   75.1530  221.8590 C   0  0  0  0  0  0  0  0  0  0  0  0
  139.9230   76.4250  222.4290 C   0  0  0  0  0  0  0  0  0  0  0  0
  141.0580   77.0230  221.8110 N   0  0  0  0  0  0  0  0  0  0  0  0
  141.4180   78.3490  222.1740 C   0  0  0  0  0  0  0  0  0  0  0  0
  141.7740   78.6210  223.4720 C   0  0  0  0  0  0  0  0  0  0  0  0
  142.1190   79.9220  223.8140 C   0  0  0  0  0  0  0  0  0  0  0  0
  142.0960   80.9170  222.8360 C   0  0  0  0  0  0  0  0  0  0  0  0
  141.7280   80.5690  221.5460 C   0  0  0  0  0  0  0  0  0  0  0  0
  141.3960   79.3030  221.2290 N   0  0  0  0  0  0  0  0  0  0  0  0
  141.8050   76.2530  220.8340 C   0  0  0  0  0  0  0  0  0  0  0  0
  140.7420   75.7680  219.8380 C   0  0  0  0  0  0  0  0  0  0  0  0
  139.3320   71.9310  221.8440 C   0  0  0  0  0  0  0  0  0  0  0  0
  139.6360   71.1960  224.5830 N   0  0  0  0  0  0  0  0  0  0  0  0
  140.1190   70.8820  225.8580 C   0  0  0  0  0  0  0  0  0  0  0  0
  140.7130   71.8730  226.6100 C   0  0  0  0  0  0  0  0  0  0  0  0
  141.1890   71.5600  227.8640 C   0  0  0  0  0  0  0  0  0  0  0  0
  141.0630   70.2660  228.3410 C   0  0  0  0  0  0  0  0  0  0  0  0
  140.4590   69.2880  227.5540 C   0  0  0  0  0  0  0  0  0  0  0  0
  139.9770   69.5770  226.3040 C   0  0  0  0  0  0  0  0  0  0  0  0
  139.3421   68.3542  223.3168 H   0  0  0  0  0  0  0  0  0  0  0  0
  137.7432   68.7825  224.0401 H   0  0  0  0  0  0  0  0  0  0  0  0
  136.9303   69.5868  222.2935 H   0  0  0  0  0  0  0  0  0  0  0  0
  136.2216   70.4881  220.0741 H   0  0  0  0  0  0  0  0  0  0  0  0
  137.5303   72.2921  219.0461 H   0  0  0  0  0  0  0  0  0  0  0  0
  138.3381   75.2267  221.7704 H   0  0  0  0  0  0  0  0  0  0  0  0
  139.7828   74.3706  222.5480 H   0  0  0  0  0  0  0  0  0  0  0  0
  139.0979   77.1506  222.3770 H   0  0  0  0  0  0  0  0  0  0  0  0
  140.2573   76.1685  223.4451 H   0  0  0  0  0  0  0  0  0  0  0  0
  141.7857   77.8220  224.2280 H   0  0  0  0  0  0  0  0  0  0  0  0
  142.4079   80.1660  224.8469 H   0  0  0  0  0  0  0  0  0  0  0  0
  142.3640   81.9547  223.0835 H   0  0  0  0  0  0  0  0  0  0  0  0
  141.7067   81.3431  220.7647 H   0  0  0  0  0  0  0  0  0  0  0  0
  142.5521   76.8836  220.3299 H   0  0  0  0  0  0  0  0  0  0  0  0
  142.3618   75.4219  221.2914 H   0  0  0  0  0  0  0  0  0  0  0  0
  140.1097   76.6062  219.5100 H   0  0  0  0  0  0  0  0  0  0  0  0
  141.1934   75.3378  218.9318 H   0  0  0  0  0  0  0  0  0  0  0  0
  140.2175   72.3399  222.3526 H   0  0  0  0  0  0  0  0  0  0  0  0
  140.8052   72.8957  226.2155 H   0  0  0  0  0  0  0  0  0  0  0  0
  141.6666   72.3336  228.4832 H   0  0  0  0  0  0  0  0  0  0  0  0
  141.4402   70.0102  229.3422 H   0  0  0  0  0  0  0  0  0  0  0  0
  140.3671   68.2634  227.9436 H   0  0  0  0  0  0  0  0  0  0  0  0
  1  2  2  0
  2  3  1  0
  3  4  1  0
  4  5  1  0
  5  6  2  0
  6  7  1  0
  7  8  2  0
  8  9  1  0
  9 10  1  0
 10 11  2  0
 10 12  1  0
 12 13  1  0
 13 14  1  0
 14 15  1  0
 15 16  1  0
 16 17  2  0
 17 18  1  0
 18 19  2  0
 19 20  1  0
 20 21  2  0
 15 22  1  0
 22 23  1  0
  9 24  2  0
  4 25  2  0
 25 26  1  0
 26 27  2  0
 27 28  1  0
 28 29  2  0
 29 30  1  0
 30 31  2  0
 31  2  1  0
 24  5  1  0
 31 26  1  0
 23 12  1  0
 21 16  1  0
  3 32  1  0
  3 33  1  0
  6 34  1  0
  7 35  1  0
  8 36  1  0
 13 37  1  0
 13 38  1  0
 14 39  1  0
 14 40  1  0
 17 41  1  0
 18 42  1  0
 19 43  1  0
 20 44  1  0
 22 45  1  0
 22 46  1  0
 23 47  1  0
 23 48  1  0
 24 49  1  0
 27 50  1  0
 28 51  1  0
 29 52  1  0
 30 53  1  0
M  END
>  <smiles>  (21) 
O=C1CC(c2cccc(C(=O)N3CCN(c4ccccn4)CC3)c2)=Nc2ccccc21

>  <score_type>  (21) 
oracle

>  <origin>  (21) 
autodockgpu

>  <m_score__min__energy>  (21) 
-9.1400000000000006

>  <m_primary>  (21) 
energy

>  <rmsd>  (21) 
4.253788750472676

>  <m_score__min__rmsd>  (21) 
4.253788750472676

>  <meeko>  (21) 
{"free_energy": -9.06, "intermolecular_energy": -9.96, "internal_energy": -0.94, "cluster_size": 49, "cluster_id": 1, "rank_in_cluster": 32}

>  <energy>  (21) 
-9.13

>  <cluster_rmsd>  (21) 
0.07

>  <cluster>  (21) 
1

$$$$

     RDKit          3D

 53 57  0  0  0  0  0  0  0  0999 V2000
  139.1950   67.4570  225.2090 O   0  0  0  0  0  0  0  0  0  0  0  0
  139.4290   68.6710  225.0090 C   0  0  0  0  0  0  0  0  0  0  0  0
  139.1090   69.2140  223.6630 C   0  0  0  0  0  0  0  0  0  0  0  0
  139.4390   70.6430  223.5850 C   0  0  0  0  0  0  0  0  0  0  0  0
  139.2000   71.3580  222.3250 C   0  0  0  0  0  0  0  0  0  0  0  0
  139.3830   70.7230  221.1020 C   0  0  0  0  0  0  0  0  0  0  0  0
  139.1610   71.4090  219.9190 C   0  0  0  0  0  0  0  0  0  0  0  0
  138.7600   72.7210  219.9950 C   0  0  0  0  0  0  0  0  0  0  0  0
  138.5620   73.4020  221.1760 C   0  0  0  0  0  0  0  0  0  0  0  0
  138.1370   74.8010  221.2230 C   0  0  0  0  0  0  0  0  0  0  0  0
  136.9710   75.0240  220.7420 O   0  0  0  0  0  0  0  0  0  0  0  0
  138.9270   75.8380  221.7460 N   0  0  0  0  0  0  0  0  0  0  0  0
  140.2380   75.6360  222.2940 C   0  0  0  0  0  0  0  0  0  0  0  0
  141.0190   76.8520  222.6030 C   0  0  0  0  0  0  0  0  0  0  0  0
  140.5400   78.0870  222.0770 N   0  0  0  0  0  0  0  0  0  0  0  0
  141.1200   79.2990  222.5370 C   0  0  0  0  0  0  0  0  0  0  0  0
  142.1870   79.2540  223.3990 C   0  0  0  0  0  0  0  0  0  0  0  0
  142.7410   80.4460  223.8450 C   0  0  0  0  0  0  0  0  0  0  0  0
  142.2030   81.6580  223.4080 C   0  0  0  0  0  0  0  0  0  0  0  0
  141.1260   81.6280  222.5370 C   0  0  0  0  0  0  0  0  0  0  0  0
  140.6000   80.4620  222.1130 N   0  0  0  0  0  0  0  0  0  0  0  0
  139.4780   78.0560  221.0880 C   0  0  0  0  0  0  0  0  0  0  0  0
  138.3840   77.1920  221.7300 C   0  0  0  0  0  0  0  0  0  0  0  0
  138.7950   72.6770  222.3420 C   0  0  0  0  0  0  0  0  0  0  0  0
  139.9380   71.2950  224.5790 N   0  0  0  0  0  0  0  0  0  0  0  0
  140.2380   70.7880  225.8480 C   0  0  0  0  0  0  0  0  0  0  0  0
  140.7710   71.6340  226.7970 C   0  0  0  0  0  0  0  0  0  0  0  0
  141.0670   71.1320  228.0440 C   0  0  0  0  0  0  0  0  0  0  0  0
  140.8260   69.7960  228.3190 C   0  0  0  0  0  0  0  0  0  0  0  0
  140.2880   68.9680  227.3370 C   0  0  0  0  0  0  0  0  0  0  0  0
  139.9850   69.4470  226.0890 C   0  0  0  0  0  0  0  0  0  0  0  0
  139.6909   68.6677  222.9061 H   0  0  0  0  0  0  0  0  0  0  0  0
  138.0313   69.0906  223.4801 H   0  0  0  0  0  0  0  0  0  0  0  0
  139.7053   69.6717  221.0734 H   0  0  0  0  0  0  0  0  0  0  0  0
  139.3019   70.9167  218.9454 H   0  0  0  0  0  0  0  0  0  0  0  0
  138.5860   73.2619  219.0531 H   0  0  0  0  0  0  0  0  0  0  0  0
  140.1255   75.0651  223.2275 H   0  0  0  0  0  0  0  0  0  0  0  0
  140.8056   75.1182  221.5068 H   0  0  0  0  0  0  0  0  0  0  0  0
  141.0565   76.9514  223.6979 H   0  0  0  0  0  0  0  0  0  0  0  0
  141.9919   76.6949  222.1142 H   0  0  0  0  0  0  0  0  0  0  0  0
  142.5966   78.2887  223.7312 H   0  0  0  0  0  0  0  0  0  0  0  0
  143.5963   80.4358  224.5366 H   0  0  0  0  0  0  0  0  0  0  0  0
  142.6249   82.6154  223.7477 H   0  0  0  0  0  0  0  0  0  0  0  0
  140.6915   82.5751  222.1844 H   0  0  0  0  0  0  0  0  0  0  0  0
  139.1043   79.0707  220.8861 H   0  0  0  0  0  0  0  0  0  0  0  0
  139.8165   77.6542  220.1216 H   0  0  0  0  0  0  0  0  0  0  0  0
  138.1724   77.5350  222.7535 H   0  0  0  0  0  0  0  0  0  0  0  0
  137.4362   77.2486  221.1746 H   0  0  0  0  0  0  0  0  0  0  0  0
  138.6508   73.1743  223.3125 H   0  0  0  0  0  0  0  0  0  0  0  0
  140.9566   72.6924  226.5617 H   0  0  0  0  0  0  0  0  0  0  0  0
  141.4925   71.7880  228.8177 H   0  0  0  0  0  0  0  0  0  0  0  0
  141.0597   69.3888  229.3137 H   0  0  0  0  0  0  0  0  0  0  0  0
  140.1025   67.9085  227.5675 H   0  0  0  0  0  0  0  0  0  0  0  0
  1  2  2  0
  2  3  1  0
  3  4  1  0
  4  5  1  0
  5  6  2  0
  6  7  1  0
  7  8  2  0
  8  9  1  0
  9 10  1  0
 10 11  2  0
 10 12  1  0
 12 13  1  0
 13 14  1  0
 14 15  1  0
 15 16  1  0
 16 17  2  0
 17 18  1  0
 18 19  2  0
 19 20  1  0
 20 21  2  0
 15 22  1  0
 22 23  1  0
  9 24  2  0
  4 25  2  0
 25 26  1  0
 26 27  2  0
 27 28  1  0
 28 29  2  0
 29 30  1  0
 30 31  2  0
 31  2  1  0
 24  5  1  0
 31 26  1  0
 23 12  1  0
 21 16  1  0
  3 32  1  0
  3 33  1  0
  6 34  1  0
  7 35  1  0
  8 36  1  0
 13 37  1  0
 13 38  1  0
 14 39  1  0
 14 40  1  0
 17 41  1  0
 18 42  1  0
 19 43  1  0
 20 44  1  0
 22 45  1  0
 22 46  1  0
 23 47  1  0
 23 48  1  0
 24 49  1  0
 27 50  1  0
 28 51  1  0
 29 52  1  0
 30 53  1  0
M  END
>  <smiles>  (22) 
O=C1CC(c2cccc(C(=O)N3CCN(c4ccccn4)CC3)c2)=Nc2ccccc21

>  <score_type>  (22) 
oracle

>  <origin>  (22) 
autodockgpu

>  <m_score__min__energy>  (22) 
-9.1400000000000006

>  <m_primary>  (22) 
energy

>  <rmsd>  (22) 
4.668625662375924

>  <m_score__min__rmsd>  (22) 
4.668625662375924

>  <meeko>  (22) 
{"free_energy": -9.13, "intermolecular_energy": -10.02, "internal_energy": -0.92, "cluster_size": 49, "cluster_id": 1, "rank_in_cluster": 18}

>  <energy>  (22) 
-9.12

>  <cluster_rmsd>  (22) 
0.05

>  <cluster>  (22) 
1

$$$$

     RDKit          3D

 53 57  0  0  0  0  0  0  0  0999 V2000
  139.2040   67.3780  225.7560 O   0  0  0  0  0  0  0  0  0  0  0  0
  139.3180   68.5750  225.4040 C   0  0  0  0  0  0  0  0  0  0  0  0
  138.7690   68.9480  224.0750 C   0  0  0  0  0  0  0  0  0  0  0  0
  138.9790   70.3780  223.8060 C   0  0  0  0  0  0  0  0  0  0  0  0
  138.5080   70.9360  222.5320 C   0  0  0  0  0  0  0  0  0  0  0  0
  137.3340   70.4780  221.9460 C   0  0  0  0  0  0  0  0  0  0  0  0
  136.9030   71.0060  220.7410 C   0  0  0  0  0  0  0  0  0  0  0  0
  137.6660   71.9850  220.1510 C   0  0  0  0  0  0  0  0  0  0  0  0
  138.8370   72.4780  220.6840 C   0  0  0  0  0  0  0  0  0  0  0  0
  139.6290   73.5190  220.0290 C   0  0  0  0  0  0  0  0  0  0  0  0
  140.0880   73.1990  218.8770 O   0  0  0  0  0  0  0  0  0  0  0  0
  139.8820   74.7790  220.5960 N   0  0  0  0  0  0  0  0  0  0  0  0
  139.3900   75.1820  221.8820 C   0  0  0  0  0  0  0  0  0  0  0  0
  139.9220   76.4490  222.4250 C   0  0  0  0  0  0  0  0  0  0  0  0
  141.0660   77.0050  221.7830 N   0  0  0  0  0  0  0  0  0  0  0  0
  141.4660   78.3270  222.1190 C   0  0  0  0  0  0  0  0  0  0  0  0
  141.8040   78.6220  223.4170 C   0  0  0  0  0  0  0  0  0  0  0  0
  142.1880   79.9180  223.7320 C   0  0  0  0  0  0  0  0  0  0  0  0
  142.2220   80.8860  222.7280 C   0  0  0  0  0  0  0  0  0  0  0  0
  141.8690   80.5170  221.4400 C   0  0  0  0  0  0  0  0  0  0  0  0
  141.4990   79.2550  221.1490 N   0  0  0  0  0  0  0  0  0  0  0  0
  141.7790   76.1990  220.8110 C   0  0  0  0  0  0  0  0  0  0  0  0
  140.6920   75.7260  219.8360 C   0  0  0  0  0  0  0  0  0  0  0  0
  139.2350   71.9220  221.8960 C   0  0  0  0  0  0  0  0  0  0  0  0
  139.5650   71.1610  224.6450 N   0  0  0  0  0  0  0  0  0  0  0  0
  140.0810   70.8140  225.8980 C   0  0  0  0  0  0  0  0  0  0  0  0
  140.6810   71.7880  226.6670 C   0  0  0  0  0  0  0  0  0  0  0  0
  141.1890   71.4420  227.8990 C   0  0  0  0  0  0  0  0  0  0  0  0
  141.0890   70.1320  228.3380 C   0  0  0  0  0  0  0  0  0  0  0  0
  140.4780   69.1720  227.5350 C   0  0  0  0  0  0  0  0  0  0  0  0
  139.9650   69.4940  226.3060 C   0  0  0  0  0  0  0  0  0  0  0  0
  139.2744   68.3567  223.2972 H   0  0  0  0  0  0  0  0  0  0  0  0
  137.6882   68.7433  224.0699 H   0  0  0  0  0  0  0  0  0  0  0  0
  136.7447   69.6926  222.4418 H   0  0  0  0  0  0  0  0  0  0  0  0
  135.9750   70.6515  220.2686 H   0  0  0  0  0  0  0  0  0  0  0  0
  137.3202   72.4011  219.1933 H   0  0  0  0  0  0  0  0  0  0  0  0
  138.2975   75.2844  221.8046 H   0  0  0  0  0  0  0  0  0  0  0  0
  139.7280   74.4019  222.5800 H   0  0  0  0  0  0  0  0  0  0  0  0
  139.1165   77.1961  222.3704 H   0  0  0  0  0  0  0  0  0  0  0  0
  140.2610   76.2007  223.4416 H   0  0  0  0  0  0  0  0  0  0  0  0
  141.7709   77.8441  224.1940 H   0  0  0  0  0  0  0  0  0  0  0  0
  142.4632   80.1796  224.7644 H   0  0  0  0  0  0  0  0  0  0  0  0
  142.5225   81.9197  222.9540 H   0  0  0  0  0  0  0  0  0  0  0  0
  141.8914   81.2702  220.6386 H   0  0  0  0  0  0  0  0  0  0  0  0
  142.5366   76.8005  220.2873 H   0  0  0  0  0  0  0  0  0  0  0  0
  142.3183   75.3608  221.2763 H   0  0  0  0  0  0  0  0  0  0  0  0
  140.0790   76.5754  219.5002 H   0  0  0  0  0  0  0  0  0  0  0  0
  141.1211   75.2678  218.9327 H   0  0  0  0  0  0  0  0  0  0  0  0
  140.1631   72.2815  222.3644 H   0  0  0  0  0  0  0  0  0  0  0  0
  140.7527   72.8235  226.3028 H   0  0  0  0  0  0  0  0  0  0  0  0
  141.6717   72.2018  228.5313 H   0  0  0  0  0  0  0  0  0  0  0  0
  141.4925   69.8497  229.3216 H   0  0  0  0  0  0  0  0  0  0  0  0
  140.4059   68.1349  227.8945 H   0  0  0  0  0  0  0  0  0  0  0  0
  1  2  2  0
  2  3  1  0
  3  4  1  0
  4  5  1  0
  5  6  2  0
  6  7  1  0
  7  8  2  0
  8  9  1  0
  9 10  1  0
 10 11  2  0
 10 12  1  0
 12 13  1  0
 13 14  1  0
 14 15  1  0
 15 16  1  0
 16 17  2  0
 17 18  1  0
 18 19  2  0
 19 20  1  0
 20 21  2  0
 15 22  1  0
 22 23  1  0
  9 24  2  0
  4 25  2  0
 25 26  1  0
 26 27  2  0
 27 28  1  0
 28 29  2  0
 29 30  1  0
 30 31  2  0
 31  2  1  0
 24  5  1  0
 31 26  1  0
 23 12  1  0
 21 16  1  0
  3 32  1  0
  3 33  1  0
  6 34  1  0
  7 35  1  0
  8 36  1  0
 13 37  1  0
 13 38  1  0
 14 39  1  0
 14 40  1  0
 17 41  1  0
 18 42  1  0
 19 43  1  0
 20 44  1  0
 22 45  1  0
 22 46  1  0
 23 47  1  0
 23 48  1  0
 24 49  1  0
 27 50  1  0
 28 51  1  0
 29 52  1  0
 30 53  1  0
M  END
>  <smiles>  (23) 
O=C1CC(c2cccc(C(=O)N3CCN(c4ccccn4)CC3)c2)=Nc2ccccc21

>  <score_type>  (23) 
oracle

>  <origin>  (23) 
autodockgpu

>  <m_score__min__energy>  (23) 
-9.1400000000000006

>  <m_primary>  (23) 
energy

>  <rmsd>  (23) 
4.22820473149499

>  <m_score__min__rmsd>  (23) 
4.22820473149499

>  <meeko>  (23) 
{"free_energy": -9.09, "intermolecular_energy": -9.98, "internal_energy": -0.94, "cluster_size": 49, "cluster_id": 1, "rank_in_cluster": 29}

>  <energy>  (23) 
-9.12

>  <cluster_rmsd>  (23) 
0.09

>  <cluster>  (23) 
1

$$$$

     RDKit          3D

 53 57  0  0  0  0  0  0  0  0999 V2000
  139.2010   67.3950  225.7850 O   0  0  0  0  0  0  0  0  0  0  0  0
  139.3190   68.5860  225.4160 C   0  0  0  0  0  0  0  0  0  0  0  0
  138.7750   68.9410  224.0790 C   0  0  0  0  0  0  0  0  0  0  0  0
  138.9890   70.3660  223.7900 C   0  0  0  0  0  0  0  0  0  0  0  0
  138.5240   70.9070  222.5060 C   0  0  0  0  0  0  0  0  0  0  0  0
  137.3700   70.4160  221.9050 C   0  0  0  0  0  0  0  0  0  0  0  0
  136.9450   70.9280  220.6910 C   0  0  0  0  0  0  0  0  0  0  0  0
  137.6920   71.9230  220.1070 C   0  0  0  0  0  0  0  0  0  0  0  0
  138.8420   72.4480  220.6550 C   0  0  0  0  0  0  0  0  0  0  0  0
  139.6180   73.5060  220.0070 C   0  0  0  0  0  0  0  0  0  0  0  0
  140.0680   73.2050  218.8460 O   0  0  0  0  0  0  0  0  0  0  0  0
  139.8650   74.7590  220.5900 N   0  0  0  0  0  0  0  0  0  0  0  0
  139.3820   75.1390  221.8860 C   0  0  0  0  0  0  0  0  0  0  0  0
  139.9090   76.4040  222.4410 C   0  0  0  0  0  0  0  0  0  0  0  0
  141.0400   76.9800  221.7960 N   0  0  0  0  0  0  0  0  0  0  0  0
  141.4320   78.3000  222.1460 C   0  0  0  0  0  0  0  0  0  0  0  0
  141.6820   78.6050  223.4610 C   0  0  0  0  0  0  0  0  0  0  0  0
  142.0590   79.9000  223.7910 C   0  0  0  0  0  0  0  0  0  0  0  0
  142.1740   80.8570  222.7820 C   0  0  0  0  0  0  0  0  0  0  0  0
  141.9070   80.4790  221.4760 C   0  0  0  0  0  0  0  0  0  0  0  0
  141.5420   79.2180  221.1720 N   0  0  0  0  0  0  0  0  0  0  0  0
  141.7510   76.1940  220.8050 C   0  0  0  0  0  0  0  0  0  0  0  0
  140.6580   75.7240  219.8350 C   0  0  0  0  0  0  0  0  0  0  0  0
  139.2360   71.9070  221.8770 C   0  0  0  0  0  0  0  0  0  0  0  0
  139.5750   71.1610  224.6190 N   0  0  0  0  0  0  0  0  0  0  0  0
  140.0860   70.8310  225.8790 C   0  0  0  0  0  0  0  0  0  0  0  0
  140.6850   71.8140  226.6350 C   0  0  0  0  0  0  0  0  0  0  0  0
  141.1890   71.4850  227.8740 C   0  0  0  0  0  0  0  0  0  0  0  0
  141.0840   70.1820  228.3320 C   0  0  0  0  0  0  0  0  0  0  0  0
  140.4740   69.2120  227.5410 C   0  0  0  0  0  0  0  0  0  0  0  0
  139.9650   69.5170  226.3050 C   0  0  0  0  0  0  0  0  0  0  0  0
  139.2817   68.3374  223.3116 H   0  0  0  0  0  0  0  0  0  0  0  0
  137.6938   68.7386  224.0732 H   0  0  0  0  0  0  0  0  0  0  0  0
  136.7931   69.6183  222.3958 H   0  0  0  0  0  0  0  0  0  0  0  0
  136.0333   70.5484  220.2065 H   0  0  0  0  0  0  0  0  0  0  0  0
  137.3504   72.3253  219.1419 H   0  0  0  0  0  0  0  0  0  0  0  0
  138.2879   75.2327  221.8208 H   0  0  0  0  0  0  0  0  0  0  0  0
  139.7329   74.3522  222.5700 H   0  0  0  0  0  0  0  0  0  0  0  0
  139.0961   77.1442  222.4055 H   0  0  0  0  0  0  0  0  0  0  0  0
  140.2619   76.1439  223.4499 H   0  0  0  0  0  0  0  0  0  0  0  0
  141.5852   77.8355  224.2410 H   0  0  0  0  0  0  0  0  0  0  0  0
  142.2650   80.1689  224.8376 H   0  0  0  0  0  0  0  0  0  0  0  0
  142.4703   81.8896  223.0184 H   0  0  0  0  0  0  0  0  0  0  0  0
  141.9948   81.2234  220.6710 H   0  0  0  0  0  0  0  0  0  0  0  0
  142.4972   76.8100  220.2818 H   0  0  0  0  0  0  0  0  0  0  0  0
  142.3034   75.3548  221.2529 H   0  0  0  0  0  0  0  0  0  0  0  0
  140.0335   76.5720  219.5174 H   0  0  0  0  0  0  0  0  0  0  0  0
  141.0818   75.2823  218.9211 H   0  0  0  0  0  0  0  0  0  0  0  0
  140.1478   72.2912  222.3575 H   0  0  0  0  0  0  0  0  0  0  0  0
  140.7597   72.8440  226.2560 H   0  0  0  0  0  0  0  0  0  0  0  0
  141.6721   72.2527  228.4962 H   0  0  0  0  0  0  0  0  0  0  0  0
  141.4828   69.9134  229.3213 H   0  0  0  0  0  0  0  0  0  0  0  0
  140.3990   68.1803  227.9152 H   0  0  0  0  0  0  0  0  0  0  0  0
  1  2  2  0
  2  3  1  0
  3  4  1  0
  4  5  1  0
  5  6  2  0
  6  7  1  0
  7  8  2  0
  8  9  1  0
  9 10  1  0
 10 11  2  0
 10 12  1  0
 12 13  1  0
 13 14  1  0
 14 15  1  0
 15 16  1  0
 16 17  2  0
 17 18  1  0
 18 19  2  0
 19 20  1  0
 20 21  2  0
 15 22  1  0
 22 23  1  0
  9 24  2  0
  4 25  2  0
 25 26  1  0
 26 27  2  0
 27 28  1  0
 28 29  2  0
 29 30  1  0
 30 31  2  0
 31  2  1  0
 24  5  1  0
 31 26  1  0
 23 12  1  0
 21 16  1  0
  3 32  1  0
  3 33  1  0
  6 34  1  0
  7 35  1  0
  8 36  1  0
 13 37  1  0
 13 38  1  0
 14 39  1  0
 14 40  1  0
 17 41  1  0
 18 42  1  0
 19 43  1  0
 20 44  1  0
 22 45  1  0
 22 46  1  0
 23 47  1  0
 23 48  1  0
 24 49  1  0
 27 50  1  0
 28 51  1  0
 29 52  1  0
 30 53  1  0
M  END
>  <smiles>  (24) 
O=C1CC(c2cccc(C(=O)N3CCN(c4ccccn4)CC3)c2)=Nc2ccccc21

>  <score_type>  (24) 
oracle

>  <origin>  (24) 
autodockgpu

>  <m_score__min__energy>  (24) 
-9.1400000000000006

>  <m_primary>  (24) 
energy

>  <rmsd>  (24) 
4.221736684288469

>  <m_score__min__rmsd>  (24) 
4.221736684288469

>  <meeko>  (24) 
{"free_energy": -9.08, "intermolecular_energy": -9.97, "internal_energy": -0.94, "cluster_size": 49, "cluster_id": 1, "rank_in_cluster": 31}

>  <energy>  (24) 
-9.12

>  <cluster_rmsd>  (24) 
0.07

>  <cluster>  (24) 
1

$$$$

     RDKit          3D

 53 57  0  0  0  0  0  0  0  0999 V2000
  139.2020   67.4390  225.1910 O   0  0  0  0  0  0  0  0  0  0  0  0
  139.4380   68.6540  224.9990 C   0  0  0  0  0  0  0  0  0  0  0  0
  139.1270   69.2040  223.6540 C   0  0  0  0  0  0  0  0  0  0  0  0
  139.4570   70.6340  223.5850 C   0  0  0  0  0  0  0  0  0  0  0  0
  139.2260   71.3560  222.3270 C   0  0  0  0  0  0  0  0  0  0  0  0
  139.4240   70.7290  221.1020 C   0  0  0  0  0  0  0  0  0  0  0  0
  139.2100   71.4210  219.9210 C   0  0  0  0  0  0  0  0  0  0  0  0
  138.8010   72.7300  220.0010 C   0  0  0  0  0  0  0  0  0  0  0  0
  138.5880   73.4030  221.1840 C   0  0  0  0  0  0  0  0  0  0  0  0
  138.1560   74.8000  221.2360 C   0  0  0  0  0  0  0  0  0  0  0  0
  136.9890   75.0180  220.7550 O   0  0  0  0  0  0  0  0  0  0  0  0
  138.9400   75.8390  221.7640 N   0  0  0  0  0  0  0  0  0  0  0  0
  140.2510   75.6420  222.3120 C   0  0  0  0  0  0  0  0  0  0  0  0
  141.0240   76.8620  222.6260 C   0  0  0  0  0  0  0  0  0  0  0  0
  140.5390   78.0950  222.1040 N   0  0  0  0  0  0  0  0  0  0  0  0
  141.1120   79.3090  222.5700 C   0  0  0  0  0  0  0  0  0  0  0  0
  142.2120   79.2670  223.3910 C   0  0  0  0  0  0  0  0  0  0  0  0
  142.7580   80.4610  223.8420 C   0  0  0  0  0  0  0  0  0  0  0  0
  142.1800   81.6700  223.4530 C   0  0  0  0  0  0  0  0  0  0  0  0
  141.0720   81.6370  222.6210 C   0  0  0  0  0  0  0  0  0  0  0  0
  140.5530   80.4700  222.1910 N   0  0  0  0  0  0  0  0  0  0  0  0
  139.4790   78.0630  221.1150 C   0  0  0  0  0  0  0  0  0  0  0  0
  138.3890   77.1900  221.7520 C   0  0  0  0  0  0  0  0  0  0  0  0
  138.8140   72.6720  222.3480 C   0  0  0  0  0  0  0  0  0  0  0  0
  139.9500   71.2810  224.5860 N   0  0  0  0  0  0  0  0  0  0  0  0
  140.2420   70.7670  225.8540 C   0  0  0  0  0  0  0  0  0  0  0  0
  140.7680   71.6080  226.8100 C   0  0  0  0  0  0  0  0  0  0  0  0
  141.0560   71.0990  228.0570 C   0  0  0  0  0  0  0  0  0  0  0  0
  140.8130   69.7620  228.3230 C   0  0  0  0  0  0  0  0  0  0  0  0
  140.2820   68.9390  227.3330 C   0  0  0  0  0  0  0  0  0  0  0  0
  139.9870   69.4250  226.0860 C   0  0  0  0  0  0  0  0  0  0  0  0
  139.7141   68.6617  222.8982 H   0  0  0  0  0  0  0  0  0  0  0  0
  138.0505   69.0814  223.4637 H   0  0  0  0  0  0  0  0  0  0  0  0
  139.7518   69.6795  221.0704 H   0  0  0  0  0  0  0  0  0  0  0  0
  139.3634   70.9355  218.9459 H   0  0  0  0  0  0  0  0  0  0  0  0
  138.6329   73.2755  219.0607 H   0  0  0  0  0  0  0  0  0  0  0  0
  140.1412   75.0669  223.2432 H   0  0  0  0  0  0  0  0  0  0  0  0
  140.8224   75.1298  221.5238 H   0  0  0  0  0  0  0  0  0  0  0  0
  141.0594   76.9580  223.7212 H   0  0  0  0  0  0  0  0  0  0  0  0
  141.9983   76.7124  222.1378 H   0  0  0  0  0  0  0  0  0  0  0  0
  142.6530   78.3035  223.6863 H   0  0  0  0  0  0  0  0  0  0  0  0
  143.6390   80.4541  224.5006 H   0  0  0  0  0  0  0  0  0  0  0  0
  142.5946   82.6283  223.7991 H   0  0  0  0  0  0  0  0  0  0  0  0
  140.6069   82.5825  222.3053 H   0  0  0  0  0  0  0  0  0  0  0  0
  139.1000   79.0766  220.9177 H   0  0  0  0  0  0  0  0  0  0  0  0
  139.8205   77.6676  220.1470 H   0  0  0  0  0  0  0  0  0  0  0  0
  138.1737   77.5280  222.7764 H   0  0  0  0  0  0  0  0  0  0  0  0
  137.4419   77.2430  221.1951 H   0  0  0  0  0  0  0  0  0  0  0  0
  138.6581   73.1626  223.3201 H   0  0  0  0  0  0  0  0  0  0  0  0
  140.9548   72.6677  226.5814 H   0  0  0  0  0  0  0  0  0  0  0  0
  141.4765   71.7507  228.8370 H   0  0  0  0  0  0  0  0  0  0  0  0
  141.0396   69.3496  229.3172 H   0  0  0  0  0  0  0  0  0  0  0  0
  140.0957   67.8781  227.5563 H   0  0  0  0  0  0  0  0  0  0  0  0
  1  2  2  0
  2  3  1  0
  3  4  1  0
  4  5  1  0
  5  6  2  0
  6  7  1  0
  7  8  2  0
  8  9  1  0
  9 10  1  0
 10 11  2  0
 10 12  1  0
 12 13  1  0
 13 14  1  0
 14 15  1  0
 15 16  1  0
 16 17  2  0
 17 18  1  0
 18 19  2  0
 19 20  1  0
 20 21  2  0
 15 22  1  0
 22 23  1  0
  9 24  2  0
  4 25  2  0
 25 26  1  0
 26 27  2  0
 27 28  1  0
 28 29  2  0
 29 30  1  0
 30 31  2  0
 31  2  1  0
 24  5  1  0
 31 26  1  0
 23 12  1  0
 21 16  1  0
  3 32  1  0
  3 33  1  0
  6 34  1  0
  7 35  1  0
  8 36  1  0
 13 37  1  0
 13 38  1  0
 14 39  1  0
 14 40  1  0
 17 41  1  0
 18 42  1  0
 19 43  1  0
 20 44  1  0
 22 45  1  0
 22 46  1  0
 23 47  1  0
 23 48  1  0
 24 49  1  0
 27 50  1  0
 28 51  1  0
 29 52  1  0
 30 53  1  0
M  END
>  <smiles>  (25) 
O=C1CC(c2cccc(C(=O)N3CCN(c4ccccn4)CC3)c2)=Nc2ccccc21

>  <score_type>  (25) 
oracle

>  <origin>  (25) 
autodockgpu

>  <m_score__min__energy>  (25) 
-9.1400000000000006

>  <m_primary>  (25) 
energy

>  <rmsd>  (25) 
4.677305949634138

>  <m_score__min__rmsd>  (25) 
4.677305949634138

>  <meeko>  (25) 
{"free_energy": -9.14, "intermolecular_energy": -10.03, "internal_energy": -0.92, "cluster_size": 49, "cluster_id": 1, "rank_in_cluster": 7}

>  <energy>  (25) 
-9.11

>  <cluster_rmsd>  (25) 
0.08

>  <cluster>  (25) 
1

$$$$

     RDKit          3D

 53 57  0  0  0  0  0  0  0  0999 V2000
  139.1970   67.5460  225.2840 O   0  0  0  0  0  0  0  0  0  0  0  0
  139.4390   68.7540  225.0570 C   0  0  0  0  0  0  0  0  0  0  0  0
  139.1090   69.2720  223.7040 C   0  0  0  0  0  0  0  0  0  0  0  0
  139.4500   70.6970  223.5930 C   0  0  0  0  0  0  0  0  0  0  0  0
  139.2020   71.3890  222.3220 C   0  0  0  0  0  0  0  0  0  0  0  0
  139.3690   70.7290  221.1100 C   0  0  0  0  0  0  0  0  0  0  0  0
  139.1390   71.3930  219.9160 C   0  0  0  0  0  0  0  0  0  0  0  0
  138.7470   72.7080  219.9700 C   0  0  0  0  0  0  0  0  0  0  0  0
  138.5640   73.4130  221.1390 C   0  0  0  0  0  0  0  0  0  0  0  0
  138.1490   74.8160  221.1630 C   0  0  0  0  0  0  0  0  0  0  0  0
  137.0020   75.0440  220.6390 O   0  0  0  0  0  0  0  0  0  0  0  0
  138.9260   75.8500  221.7100 N   0  0  0  0  0  0  0  0  0  0  0  0
  140.2140   75.6420  222.3060 C   0  0  0  0  0  0  0  0  0  0  0  0
  140.9920   76.8550  222.6370 C   0  0  0  0  0  0  0  0  0  0  0  0
  140.5410   78.0890  222.0870 N   0  0  0  0  0  0  0  0  0  0  0  0
  141.1130   79.3000  222.5610 C   0  0  0  0  0  0  0  0  0  0  0  0
  142.2230   79.2540  223.3670 C   0  0  0  0  0  0  0  0  0  0  0  0
  142.7680   80.4450  223.8280 C   0  0  0  0  0  0  0  0  0  0  0  0
  142.1780   81.6560  223.4630 C   0  0  0  0  0  0  0  0  0  0  0  0
  141.0590   81.6270  222.6450 C   0  0  0  0  0  0  0  0  0  0  0  0
  140.5420   80.4630  222.2060 N   0  0  0  0  0  0  0  0  0  0  0  0
  139.5170   78.0610  221.0600 C   0  0  0  0  0  0  0  0  0  0  0  0
  138.3930   77.2080  221.6660 C   0  0  0  0  0  0  0  0  0  0  0  0
  138.8050   72.7100  222.3170 C   0  0  0  0  0  0  0  0  0  0  0  0
  139.9650   71.3640  224.5690 N   0  0  0  0  0  0  0  0  0  0  0  0
  140.2760   70.8810  225.8440 C   0  0  0  0  0  0  0  0  0  0  0  0
  140.8260   71.7410  226.7700 C   0  0  0  0  0  0  0  0  0  0  0  0
  141.1320   71.2610  228.0230 C   0  0  0  0  0  0  0  0  0  0  0  0
  140.8830   69.9330  228.3280 C   0  0  0  0  0  0  0  0  0  0  0  0
  140.3280   69.0900  227.3680 C   0  0  0  0  0  0  0  0  0  0  0  0
  140.0140   69.5460  226.1150 C   0  0  0  0  0  0  0  0  0  0  0  0
  139.6781   68.7054  222.9523 H   0  0  0  0  0  0  0  0  0  0  0  0
  138.0284   69.1540  223.5353 H   0  0  0  0  0  0  0  0  0  0  0  0
  139.6850   69.6754  221.0989 H   0  0  0  0  0  0  0  0  0  0  0  0
  139.2669   70.8808  218.9510 H   0  0  0  0  0  0  0  0  0  0  0  0
  138.5678   73.2315  219.0193 H   0  0  0  0  0  0  0  0  0  0  0  0
  140.0637   75.0769  223.2377 H   0  0  0  0  0  0  0  0  0  0  0  0
  140.8062   75.1159  221.5427 H   0  0  0  0  0  0  0  0  0  0  0  0
  140.9900   76.9606  223.7319 H   0  0  0  0  0  0  0  0  0  0  0  0
  141.9812   76.6887  222.1856 H   0  0  0  0  0  0  0  0  0  0  0  0
  142.6735   78.2893  223.6433 H   0  0  0  0  0  0  0  0  0  0  0  0
  143.6572   80.4341  224.4754 H   0  0  0  0  0  0  0  0  0  0  0  0
  142.5915   82.6121  223.8164 H   0  0  0  0  0  0  0  0  0  0  0  0
  140.5837   82.5736  222.3484 H   0  0  0  0  0  0  0  0  0  0  0  0
  139.1588   79.0774  220.8394 H   0  0  0  0  0  0  0  0  0  0  0  0
  139.8879   77.6520  220.1086 H   0  0  0  0  0  0  0  0  0  0  0  0
  138.1458   77.5586  222.6789 H   0  0  0  0  0  0  0  0  0  0  0  0
  137.4669   77.2677  221.0754 H   0  0  0  0  0  0  0  0  0  0  0  0
  138.6739   73.2273  223.2789 H   0  0  0  0  0  0  0  0  0  0  0  0
  141.0171   72.7931  226.5120 H   0  0  0  0  0  0  0  0  0  0  0  0
  141.5721   71.9286  228.7784 H   0  0  0  0  0  0  0  0  0  0  0  0
  141.1235   69.5441  229.3284 H   0  0  0  0  0  0  0  0  0  0  0  0
  140.1380   68.0365  227.6212 H   0  0  0  0  0  0  0  0  0  0  0  0
  1  2  2  0
  2  3  1  0
  3  4  1  0
  4  5  1  0
  5  6  2  0
  6  7  1  0
  7  8  2  0
  8  9  1  0
  9 10  1  0
 10 11  2  0
 10 12  1  0
 12 13  1  0
 13 14  1  0
 14 15  1  0
 15 16  1  0
 16 17  2  0
 17 18  1  0
 18 19  2  0
 19 20  1  0
 20 21  2  0
 15 22  1  0
 22 23  1  0
  9 24  2  0
  4 25  2  0
 25 26  1  0
 26 27  2  0
 27 28  1  0
 28 29  2  0
 29 30  1  0
 30 31  2  0
 31  2  1  0
 24  5  1  0
 31 26  1  0
 23 12  1  0
 21 16  1  0
  3 32  1  0
  3 33  1  0
  6 34  1  0
  7 35  1  0
  8 36  1  0
 13 37  1  0
 13 38  1  0
 14 39  1  0
 14 40  1  0
 17 41  1  0
 18 42  1  0
 19 43  1  0
 20 44  1  0
 22 45  1  0
 22 46  1  0
 23 47  1  0
 23 48  1  0
 24 49  1  0
 27 50  1  0
 28 51  1  0
 29 52  1  0
 30 53  1  0
M  END
>  <smiles>  (26) 
O=C1CC(c2cccc(C(=O)N3CCN(c4ccccn4)CC3)c2)=Nc2ccccc21

>  <score_type>  (26) 
oracle

>  <origin>  (26) 
autodockgpu

>  <m_score__min__energy>  (26) 
-9.1400000000000006

>  <m_primary>  (26) 
energy

>  <rmsd>  (26) 
4.661837645637681

>  <m_score__min__rmsd>  (26) 
4.661837645637681

>  <meeko>  (26) 
{"free_energy": -9.12, "intermolecular_energy": -10.02, "internal_energy": -0.92, "cluster_size": 49, "cluster_id": 1, "rank_in_cluster": 22}

>  <energy>  (26) 
-9.11

>  <cluster_rmsd>  (26) 
0.08

>  <cluster>  (26) 
1

$$$$

     RDKit          3D

 53 57  0  0  0  0  0  0  0  0999 V2000
  139.2030   67.4440  225.2040 O   0  0  0  0  0  0  0  0  0  0  0  0
  139.4400   68.6580  225.0070 C   0  0  0  0  0  0  0  0  0  0  0  0
  139.1240   69.2030  223.6610 C   0  0  0  0  0  0  0  0  0  0  0  0
  139.4560   70.6320  223.5860 C   0  0  0  0  0  0  0  0  0  0  0  0
  139.2200   71.3500  222.3260 C   0  0  0  0  0  0  0  0  0  0  0  0
  139.4130   70.7190  221.1030 C   0  0  0  0  0  0  0  0  0  0  0  0
  139.1940   71.4070  219.9210 C   0  0  0  0  0  0  0  0  0  0  0  0
  138.7870   72.7170  219.9970 C   0  0  0  0  0  0  0  0  0  0  0  0
  138.5790   73.3930  221.1790 C   0  0  0  0  0  0  0  0  0  0  0  0
  138.1480   74.7910  221.2280 C   0  0  0  0  0  0  0  0  0  0  0  0
  136.9840   75.0100  220.7410 O   0  0  0  0  0  0  0  0  0  0  0  0
  138.9300   75.8300  221.7590 N   0  0  0  0  0  0  0  0  0  0  0  0
  140.2390   75.6320  222.3130 C   0  0  0  0  0  0  0  0  0  0  0  0
  141.0120   76.8510  222.6300 C   0  0  0  0  0  0  0  0  0  0  0  0
  140.5300   78.0850  222.1040 N   0  0  0  0  0  0  0  0  0  0  0  0
  141.1020   79.2990  222.5710 C   0  0  0  0  0  0  0  0  0  0  0  0
  142.2040   79.2570  223.3890 C   0  0  0  0  0  0  0  0  0  0  0  0
  142.7500   80.4500  223.8420 C   0  0  0  0  0  0  0  0  0  0  0  0
  142.1680   81.6590  223.4570 C   0  0  0  0  0  0  0  0  0  0  0  0
  141.0570   81.6260  222.6300 C   0  0  0  0  0  0  0  0  0  0  0  0
  140.5400   80.4590  222.1980 N   0  0  0  0  0  0  0  0  0  0  0  0
  139.4750   78.0520  221.1100 C   0  0  0  0  0  0  0  0  0  0  0  0
  138.3810   77.1810  221.7430 C   0  0  0  0  0  0  0  0  0  0  0  0
  138.8090   72.6670  222.3450 C   0  0  0  0  0  0  0  0  0  0  0  0
  139.9530   71.2820  224.5820 N   0  0  0  0  0  0  0  0  0  0  0  0
  140.2500   70.7730  225.8510 C   0  0  0  0  0  0  0  0  0  0  0  0
  140.7810   71.6160  226.8020 C   0  0  0  0  0  0  0  0  0  0  0  0
  141.0740   71.1110  228.0500 C   0  0  0  0  0  0  0  0  0  0  0  0
  140.8310   69.7750  228.3220 C   0  0  0  0  0  0  0  0  0  0  0  0
  140.2940   68.9500  227.3370 C   0  0  0  0  0  0  0  0  0  0  0  0
  139.9940   69.4310  226.0890 C   0  0  0  0  0  0  0  0  0  0  0  0
  139.7072   68.6571  222.9048 H   0  0  0  0  0  0  0  0  0  0  0  0
  138.0467   69.0810  223.4751 H   0  0  0  0  0  0  0  0  0  0  0  0
  139.7408   69.6694  221.0735 H   0  0  0  0  0  0  0  0  0  0  0  0
  139.3420   70.9174  218.9471 H   0  0  0  0  0  0  0  0  0  0  0  0
  138.6167   73.2597  219.0555 H   0  0  0  0  0  0  0  0  0  0  0  0
  140.1245   75.0573  223.2439 H   0  0  0  0  0  0  0  0  0  0  0  0
  140.8132   75.1192  221.5273 H   0  0  0  0  0  0  0  0  0  0  0  0
  141.0422   76.9478  223.7253 H   0  0  0  0  0  0  0  0  0  0  0  0
  141.9887   76.7000  222.1471 H   0  0  0  0  0  0  0  0  0  0  0  0
  142.6470   78.2933  223.6807 H   0  0  0  0  0  0  0  0  0  0  0  0
  143.6329   80.4428  224.4981 H   0  0  0  0  0  0  0  0  0  0  0  0
  142.5826   82.6174  223.8028 H   0  0  0  0  0  0  0  0  0  0  0  0
  140.5876   82.5712  222.3199 H   0  0  0  0  0  0  0  0  0  0  0  0
  139.0978   79.0656  220.9089 H   0  0  0  0  0  0  0  0  0  0  0  0
  139.8210   77.6545  220.1445 H   0  0  0  0  0  0  0  0  0  0  0  0
  138.1614   77.5204  222.7660 H   0  0  0  0  0  0  0  0  0  0  0  0
  137.4365   77.2345  221.1817 H   0  0  0  0  0  0  0  0  0  0  0  0
  138.6576   73.1613  223.3160 H   0  0  0  0  0  0  0  0  0  0  0  0
  140.9680   72.6747  226.5691 H   0  0  0  0  0  0  0  0  0  0  0  0
  141.4985   71.7652  228.8258 H   0  0  0  0  0  0  0  0  0  0  0  0
  141.0622   69.3654  229.3164 H   0  0  0  0  0  0  0  0  0  0  0  0
  140.1067   67.8904  227.5652 H   0  0  0  0  0  0  0  0  0  0  0  0
  1  2  2  0
  2  3  1  0
  3  4  1  0
  4  5  1  0
  5  6  2  0
  6  7  1  0
  7  8  2  0
  8  9  1  0
  9 10  1  0
 10 11  2  0
 10 12  1  0
 12 13  1  0
 13 14  1  0
 14 15  1  0
 15 16  1  0
 16 17  2  0
 17 18  1  0
 18 19  2  0
 19 20  1  0
 20 21  2  0
 15 22  1  0
 22 23  1  0
  9 24  2  0
  4 25  2  0
 25 26  1  0
 26 27  2  0
 27 28  1  0
 28 29  2  0
 29 30  1  0
 30 31  2  0
 31  2  1  0
 24  5  1  0
 31 26  1  0
 23 12  1  0
 21 16  1  0
  3 32  1  0
  3 33  1  0
  6 34  1  0
  7 35  1  0
  8 36  1  0
 13 37  1  0
 13 38  1  0
 14 39  1  0
 14 40  1  0
 17 41  1  0
 18 42  1  0
 19 43  1  0
 20 44  1  0
 22 45  1  0
 22 46  1  0
 23 47  1  0
 23 48  1  0
 24 49  1  0
 27 50  1  0
 28 51  1  0
 29 52  1  0
 30 53  1  0
M  END
>  <smiles>  (27) 
O=C1CC(c2cccc(C(=O)N3CCN(c4ccccn4)CC3)c2)=Nc2ccccc21

>  <score_type>  (27) 
oracle

>  <origin>  (27) 
autodockgpu

>  <m_score__min__energy>  (27) 
-9.1400000000000006

>  <m_primary>  (27) 
energy

>  <rmsd>  (27) 
4.670021889308958

>  <m_score__min__rmsd>  (27) 
4.670021889308958

>  <meeko>  (27) 
{"free_energy": -9.14, "intermolecular_energy": -10.03, "internal_energy": -0.92, "cluster_size": 49, "cluster_id": 1, "rank_in_cluster": 4}

>  <energy>  (27) 
-9.11

>  <cluster_rmsd>  (27) 
0.11

>  <cluster>  (27) 
1

$$$$

     RDKit          3D

 53 57  0  0  0  0  0  0  0  0999 V2000
  139.2160   67.4860  225.2400 O   0  0  0  0  0  0  0  0  0  0  0  0
  139.4520   68.6990  225.0330 C   0  0  0  0  0  0  0  0  0  0  0  0
  139.1320   69.2340  223.6840 C   0  0  0  0  0  0  0  0  0  0  0  0
  139.4630   70.6630  223.5970 C   0  0  0  0  0  0  0  0  0  0  0  0
  139.2230   71.3710  222.3340 C   0  0  0  0  0  0  0  0  0  0  0  0
  139.4080   70.7300  221.1140 C   0  0  0  0  0  0  0  0  0  0  0  0
  139.1860   71.4090  219.9280 C   0  0  0  0  0  0  0  0  0  0  0  0
  138.7830   72.7210  219.9960 C   0  0  0  0  0  0  0  0  0  0  0  0
  138.5830   73.4070  221.1740 C   0  0  0  0  0  0  0  0  0  0  0  0
  138.1560   74.8070  221.2130 C   0  0  0  0  0  0  0  0  0  0  0  0
  136.9930   75.0260  220.7230 O   0  0  0  0  0  0  0  0  0  0  0  0
  138.9410   75.8460  221.7390 N   0  0  0  0  0  0  0  0  0  0  0  0
  140.2480   75.6470  222.2970 C   0  0  0  0  0  0  0  0  0  0  0  0
  141.0240   76.8660  222.6080 C   0  0  0  0  0  0  0  0  0  0  0  0
  140.5480   78.0980  222.0740 N   0  0  0  0  0  0  0  0  0  0  0  0
  141.1230   79.3130  222.5350 C   0  0  0  0  0  0  0  0  0  0  0  0
  142.3690   79.2950  223.1110 C   0  0  0  0  0  0  0  0  0  0  0  0
  142.9170   80.4890  223.5620 C   0  0  0  0  0  0  0  0  0  0  0  0
  142.1920   81.6730  223.4190 C   0  0  0  0  0  0  0  0  0  0  0  0
  140.9400   81.6150  222.8270 C   0  0  0  0  0  0  0  0  0  0  0  0
  140.4220   80.4490  222.3940 N   0  0  0  0  0  0  0  0  0  0  0  0
  139.4940   78.0630  221.0780 C   0  0  0  0  0  0  0  0  0  0  0  0
  138.3960   77.1990  221.7140 C   0  0  0  0  0  0  0  0  0  0  0  0
  138.8160   72.6890  222.3440 C   0  0  0  0  0  0  0  0  0  0  0  0
  139.9630   71.3200  224.5880 N   0  0  0  0  0  0  0  0  0  0  0  0
  140.2640   70.8200  225.8590 C   0  0  0  0  0  0  0  0  0  0  0  0
  140.7980   71.6710  226.8030 C   0  0  0  0  0  0  0  0  0  0  0  0
  141.0940   71.1740  228.0530 C   0  0  0  0  0  0  0  0  0  0  0  0
  140.8520   69.8400  228.3350 C   0  0  0  0  0  0  0  0  0  0  0  0
  140.3130   69.0080  227.3580 C   0  0  0  0  0  0  0  0  0  0  0  0
  140.0090   69.4800  226.1080 C   0  0  0  0  0  0  0  0  0  0  0  0
  139.7133   68.6827  222.9303 H   0  0  0  0  0  0  0  0  0  0  0  0
  138.0542   69.1102  223.5023 H   0  0  0  0  0  0  0  0  0  0  0  0
  139.7321   69.6791  221.0911 H   0  0  0  0  0  0  0  0  0  0  0  0
  139.3284   70.9116  218.9573 H   0  0  0  0  0  0  0  0  0  0  0  0
  138.6093   73.2569  219.0512 H   0  0  0  0  0  0  0  0  0  0  0  0
  140.1297   75.0785  223.2312 H   0  0  0  0  0  0  0  0  0  0  0  0
  140.8223   75.1272  221.5160 H   0  0  0  0  0  0  0  0  0  0  0  0
  141.0521   76.9694  223.7028 H   0  0  0  0  0  0  0  0  0  0  0  0
  142.0009   76.7089  222.1275 H   0  0  0  0  0  0  0  0  0  0  0  0
  142.9241   78.3509  223.2136 H   0  0  0  0  0  0  0  0  0  0  0  0
  143.9135   80.5013  224.0277 H   0  0  0  0  0  0  0  0  0  0  0  0
  142.6049   82.6308  223.7683 H   0  0  0  0  0  0  0  0  0  0  0  0
  140.3571   82.5403  222.7082 H   0  0  0  0  0  0  0  0  0  0  0  0
  139.1205   79.0767  220.8708 H   0  0  0  0  0  0  0  0  0  0  0  0
  139.8403   77.6591  220.1152 H   0  0  0  0  0  0  0  0  0  0  0  0
  138.1755   77.5450  222.7346 H   0  0  0  0  0  0  0  0  0  0  0  0
  137.4528   77.2521  221.1506 H   0  0  0  0  0  0  0  0  0  0  0  0
  138.6702   73.1912  223.3118 H   0  0  0  0  0  0  0  0  0  0  0  0
  140.9844   72.7280  226.5623 H   0  0  0  0  0  0  0  0  0  0  0  0
  141.5204   71.8334  228.8233 H   0  0  0  0  0  0  0  0  0  0  0  0
  141.0859   69.4377  229.3317 H   0  0  0  0  0  0  0  0  0  0  0  0
  140.1272   67.9498  227.5942 H   0  0  0  0  0  0  0  0  0  0  0  0
  1  2  2  0
  2  3  1  0
  3  4  1  0
  4  5  1  0
  5  6  2  0
  6  7  1  0
  7  8  2  0
  8  9  1  0
  9 10  1  0
 10 11  2  0
 10 12  1  0
 12 13  1  0
 13 14  1  0
 14 15  1  0
 15 16  1  0
 16 17  2  0
 17 18  1  0
 18 19  2  0
 19 20  1  0
 20 21  2  0
 15 22  1  0
 22 23  1  0
  9 24  2  0
  4 25  2  0
 25 26  1  0
 26 27  2  0
 27 28  1  0
 28 29  2  0
 29 30  1  0
 30 31  2  0
 31  2  1  0
 24  5  1  0
 31 26  1  0
 23 12  1  0
 21 16  1  0
  3 32  1  0
  3 33  1  0
  6 34  1  0
  7 35  1  0
  8 36  1  0
 13 37  1  0
 13 38  1  0
 14 39  1  0
 14 40  1  0
 17 41  1  0
 18 42  1  0
 19 43  1  0
 20 44  1  0
 22 45  1  0
 22 46  1  0
 23 47  1  0
 23 48  1  0
 24 49  1  0
 27 50  1  0
 28 51  1  0
 29 52  1  0
 30 53  1  0
M  END
>  <smiles>  (28) 
O=C1CC(c2cccc(C(=O)N3CCN(c4ccccn4)CC3)c2)=Nc2ccccc21

>  <score_type>  (28) 
oracle

>  <origin>  (28) 
autodockgpu

>  <m_score__min__energy>  (28) 
-9.1400000000000006

>  <m_primary>  (28) 
energy

>  <rmsd>  (28) 
4.62368768328903

>  <m_score__min__rmsd>  (28) 
4.62368768328903

>  <meeko>  (28) 
{"free_energy": -9.11, "intermolecular_energy": -10.0, "internal_energy": -0.92, "cluster_size": 49, "cluster_id": 1, "rank_in_cluster": 27}

>  <energy>  (28) 
-9.09

>  <cluster_rmsd>  (28) 
0.17

>  <cluster>  (28) 
1

$$$$

     RDKit          3D

 53 57  0  0  0  0  0  0  0  0999 V2000
  139.1920   67.3990  225.7240 O   0  0  0  0  0  0  0  0  0  0  0  0
  139.3240   68.5970  225.3800 C   0  0  0  0  0  0  0  0  0  0  0  0
  138.8010   68.9830  224.0440 C   0  0  0  0  0  0  0  0  0  0  0  0
  139.0310   70.4110  223.7860 C   0  0  0  0  0  0  0  0  0  0  0  0
  138.5870   70.9820  222.5080 C   0  0  0  0  0  0  0  0  0  0  0  0
  137.4980   70.4440  221.8310 C   0  0  0  0  0  0  0  0  0  0  0  0
  137.0920   70.9850  220.6220 C   0  0  0  0  0  0  0  0  0  0  0  0
  137.7920   72.0560  220.1220 C   0  0  0  0  0  0  0  0  0  0  0  0
  138.8770   72.6310  220.7480 C   0  0  0  0  0  0  0  0  0  0  0  0
  139.6050   73.7690  220.1870 C   0  0  0  0  0  0  0  0  0  0  0  0
  140.1560   73.5470  219.0520 O   0  0  0  0  0  0  0  0  0  0  0  0
  139.7070   75.0180  220.8220 N   0  0  0  0  0  0  0  0  0  0  0  0
  139.1080   75.3120  222.0920 C   0  0  0  0  0  0  0  0  0  0  0  0
  139.4890   76.5950  222.7200 C   0  0  0  0  0  0  0  0  0  0  0  0
  140.6100   77.2830  222.1720 N   0  0  0  0  0  0  0  0  0  0  0  0
  140.8660   78.6170  222.5880 C   0  0  0  0  0  0  0  0  0  0  0  0
  142.1380   79.1240  222.4900 C   0  0  0  0  0  0  0  0  0  0  0  0
  142.3750   80.4280  222.9050 C   0  0  0  0  0  0  0  0  0  0  0  0
  141.3190   81.1890  223.4090 C   0  0  0  0  0  0  0  0  0  0  0  0
  140.0610   80.6120  223.4780 C   0  0  0  0  0  0  0  0  0  0  0  0
  139.8470   79.3460  223.0710 N   0  0  0  0  0  0  0  0  0  0  0  0
  141.4480   76.5910  221.2110 C   0  0  0  0  0  0  0  0  0  0  0  0
  140.4660   76.0690  220.1530 C   0  0  0  0  0  0  0  0  0  0  0  0
  139.2530   72.0580  221.9600 C   0  0  0  0  0  0  0  0  0  0  0  0
  139.6140   71.1840  224.6380 N   0  0  0  0  0  0  0  0  0  0  0  0
  140.1070   70.8240  225.8970 C   0  0  0  0  0  0  0  0  0  0  0  0
  140.7060   71.7870  226.6800 C   0  0  0  0  0  0  0  0  0  0  0  0
  141.1910   71.4290  227.9180 C   0  0  0  0  0  0  0  0  0  0  0  0
  141.0690   70.1180  228.3490 C   0  0  0  0  0  0  0  0  0  0  0  0
  140.4590   69.1700  227.5310 C   0  0  0  0  0  0  0  0  0  0  0  0
  139.9680   69.5040  226.2960 C   0  0  0  0  0  0  0  0  0  0  0  0
  139.3125   68.3901  223.2715 H   0  0  0  0  0  0  0  0  0  0  0  0
  137.7182   68.7905  224.0203 H   0  0  0  0  0  0  0  0  0  0  0  0
  136.9571   69.5860  222.2568 H   0  0  0  0  0  0  0  0  0  0  0  0
  136.2322   70.5682  220.0770 H   0  0  0  0  0  0  0  0  0  0  0  0
  137.4661   72.4815  219.1614 H   0  0  0  0  0  0  0  0  0  0  0  0
  138.0168   75.3189  221.9532 H   0  0  0  0  0  0  0  0  0  0  0  0
  139.4769   74.5327  222.7751 H   0  0  0  0  0  0  0  0  0  0  0  0
  138.6216   77.2678  222.6497 H   0  0  0  0  0  0  0  0  0  0  0  0
  139.7931   76.3294  223.7432 H   0  0  0  0  0  0  0  0  0  0  0  0
  142.9562   78.5075  222.0893 H   0  0  0  0  0  0  0  0  0  0  0  0
  143.3856   80.8571  222.8371 H   0  0  0  0  0  0  0  0  0  0  0  0
  141.4818   82.2240  223.7440 H   0  0  0  0  0  0  0  0  0  0  0  0
  139.2197   81.2001  223.8734 H   0  0  0  0  0  0  0  0  0  0  0  0
  142.1749   77.2823  220.7597 H   0  0  0  0  0  0  0  0  0  0  0  0
  142.0353   75.7833  221.6722 H   0  0  0  0  0  0  0  0  0  0  0  0
  139.7963   76.8745  219.8173 H   0  0  0  0  0  0  0  0  0  0  0  0
  140.9855   75.6953  219.2583 H   0  0  0  0  0  0  0  0  0  0  0  0
  140.1134   72.4793  222.5006 H   0  0  0  0  0  0  0  0  0  0  0  0
  140.7951   72.8234  226.3223 H   0  0  0  0  0  0  0  0  0  0  0  0
  141.6728   72.1800  228.5614 H   0  0  0  0  0  0  0  0  0  0  0  0
  141.4539   69.8258  229.3372 H   0  0  0  0  0  0  0  0  0  0  0  0
  140.3695   68.1319  227.8836 H   0  0  0  0  0  0  0  0  0  0  0  0
  1  2  2  0
  2  3  1  0
  3  4  1  0
  4  5  1  0
  5  6  2  0
  6  7  1  0
  7  8  2  0
  8  9  1  0
  9 10  1  0
 10 11  2  0
 10 12  1  0
 12 13  1  0
 13 14  1  0
 14 15  1  0
 15 16  1  0
 16 17  2  0
 17 18  1  0
 18 19  2  0
 19 20  1  0
 20 21  2  0
 15 22  1  0
 22 23  1  0
  9 24  2  0
  4 25  2  0
 25 26  1  0
 26 27  2  0
 27 28  1  0
 28 29  2  0
 29 30  1  0
 30 31  2  0
 31  2  1  0
 24  5  1  0
 31 26  1  0
 23 12  1  0
 21 16  1  0
  3 32  1  0
  3 33  1  0
  6 34  1  0
  7 35  1  0
  8 36  1  0
 13 37  1  0
 13 38  1  0
 14 39  1  0
 14 40  1  0
 17 41  1  0
 18 42  1  0
 19 43  1  0
 20 44  1  0
 22 45  1  0
 22 46  1  0
 23 47  1  0
 23 48  1  0
 24 49  1  0
 27 50  1  0
 28 51  1  0
 29 52  1  0
 30 53  1  0
M  END
>  <smiles>  (29) 
O=C1CC(c2cccc(C(=O)N3CCN(c4ccccn4)CC3)c2)=Nc2ccccc21

>  <score_type>  (29) 
oracle

>  <origin>  (29) 
autodockgpu

>  <m_score__min__energy>  (29) 
-9.1400000000000006

>  <m_primary>  (29) 
energy

>  <rmsd>  (29) 
4.18100068145446

>  <m_score__min__rmsd>  (29) 
4.18100068145446

>  <meeko>  (29) 
{"free_energy": -9.03, "intermolecular_energy": -9.93, "internal_energy": -0.93, "cluster_size": 49, "cluster_id": 1, "rank_in_cluster": 40}

>  <energy>  (29) 
-9.09

>  <cluster_rmsd>  (29) 
1.45

>  <cluster>  (29) 
1

$$$$

     RDKit          3D

 53 57  0  0  0  0  0  0  0  0999 V2000
  139.2110   67.4240  225.8100 O   0  0  0  0  0  0  0  0  0  0  0  0
  139.3260   68.6150  225.4410 C   0  0  0  0  0  0  0  0  0  0  0  0
  138.7790   68.9710  224.1060 C   0  0  0  0  0  0  0  0  0  0  0  0
  138.9900   70.3960  223.8180 C   0  0  0  0  0  0  0  0  0  0  0  0
  138.5210   70.9380  222.5360 C   0  0  0  0  0  0  0  0  0  0  0  0
  137.3650   70.4470  221.9380 C   0  0  0  0  0  0  0  0  0  0  0  0
  136.9360   70.9600  220.7260 C   0  0  0  0  0  0  0  0  0  0  0  0
  137.6810   71.9550  220.1410 C   0  0  0  0  0  0  0  0  0  0  0  0
  138.8320   72.4810  220.6850 C   0  0  0  0  0  0  0  0  0  0  0  0
  139.6050   73.5390  220.0350 C   0  0  0  0  0  0  0  0  0  0  0  0
  140.0640   73.2340  218.8790 O   0  0  0  0  0  0  0  0  0  0  0  0
  139.8420   74.7970  220.6120 N   0  0  0  0  0  0  0  0  0  0  0  0
  139.3490   75.1820  221.9040 C   0  0  0  0  0  0  0  0  0  0  0  0
  139.8640   76.4530  222.4540 C   0  0  0  0  0  0  0  0  0  0  0  0
  140.9960   77.0320  221.8120 N   0  0  0  0  0  0  0  0  0  0  0  0
  141.3780   78.3570  222.1570 C   0  0  0  0  0  0  0  0  0  0  0  0
  141.5650   78.6840  223.4770 C   0  0  0  0  0  0  0  0  0  0  0  0
  141.9330   79.9840  223.8000 C   0  0  0  0  0  0  0  0  0  0  0  0
  142.1030   80.9210  222.7810 C   0  0  0  0  0  0  0  0  0  0  0  0
  141.8970   80.5200  221.4710 C   0  0  0  0  0  0  0  0  0  0  0  0
  141.5410   79.2550  221.1730 N   0  0  0  0  0  0  0  0  0  0  0  0
  141.7170   76.2440  220.8300 C   0  0  0  0  0  0  0  0  0  0  0  0
  140.6330   75.7630  219.8560 C   0  0  0  0  0  0  0  0  0  0  0  0
  139.2300   71.9390  221.9050 C   0  0  0  0  0  0  0  0  0  0  0  0
  139.5770   71.1910  224.6460 N   0  0  0  0  0  0  0  0  0  0  0  0
  140.0920   70.8610  225.9040 C   0  0  0  0  0  0  0  0  0  0  0  0
  140.6920   71.8440  226.6600 C   0  0  0  0  0  0  0  0  0  0  0  0
  141.1990   71.5150  227.8980 C   0  0  0  0  0  0  0  0  0  0  0  0
  141.0970   70.2110  228.3540 C   0  0  0  0  0  0  0  0  0  0  0  0
  140.4860   69.2410  227.5640 C   0  0  0  0  0  0  0  0  0  0  0  0
  139.9730   69.5470  226.3300 C   0  0  0  0  0  0  0  0  0  0  0  0
  139.2850   68.3690  223.3369 H   0  0  0  0  0  0  0  0  0  0  0  0
  137.6980   68.7672  224.1025 H   0  0  0  0  0  0  0  0  0  0  0  0
  136.7900   69.6486  222.4298 H   0  0  0  0  0  0  0  0  0  0  0  0
  136.0227   70.5810  220.2440 H   0  0  0  0  0  0  0  0  0  0  0  0
  137.3365   72.3572  219.1769 H   0  0  0  0  0  0  0  0  0  0  0  0
  138.2547   75.2679  221.8322 H   0  0  0  0  0  0  0  0  0  0  0  0
  139.7016   74.4018  222.5946 H   0  0  0  0  0  0  0  0  0  0  0  0
  139.0467   77.1878  222.4086 H   0  0  0  0  0  0  0  0  0  0  0  0
  140.2118   76.2018  223.4669 H   0  0  0  0  0  0  0  0  0  0  0  0
  141.4259   77.9296  224.2654 H   0  0  0  0  0  0  0  0  0  0  0  0
  142.0889   80.2719  224.8502 H   0  0  0  0  0  0  0  0  0  0  0  0
  142.3944   81.9561  223.0125 H   0  0  0  0  0  0  0  0  0  0  0  0
  142.0267   81.2491  220.6576 H   0  0  0  0  0  0  0  0  0  0  0  0
  142.4634   76.8608  220.3080 H   0  0  0  0  0  0  0  0  0  0  0  0
  142.2706   75.4101  221.2862 H   0  0  0  0  0  0  0  0  0  0  0  0
  140.0051   76.6056  219.5306 H   0  0  0  0  0  0  0  0  0  0  0  0
  141.0644   75.3197  218.9464 H   0  0  0  0  0  0  0  0  0  0  0  0
  140.1432   72.3234  222.3828 H   0  0  0  0  0  0  0  0  0  0  0  0
  140.7650   72.8743  226.2815 H   0  0  0  0  0  0  0  0  0  0  0  0
  141.6817   72.2829  228.5204 H   0  0  0  0  0  0  0  0  0  0  0  0
  141.4993   69.9415  229.3417 H   0  0  0  0  0  0  0  0  0  0  0  0
  140.4134   68.2088  227.9373 H   0  0  0  0  0  0  0  0  0  0  0  0
  1  2  2  0
  2  3  1  0
  3  4  1  0
  4  5  1  0
  5  6  2  0
  6  7  1  0
  7  8  2  0
  8  9  1  0
  9 10  1  0
 10 11  2  0
 10 12  1  0
 12 13  1  0
 13 14  1  0
 14 15  1  0
 15 16  1  0
 16 17  2  0
 17 18  1  0
 18 19  2  0
 19 20  1  0
 20 21  2  0
 15 22  1  0
 22 23  1  0
  9 24  2  0
  4 25  2  0
 25 26  1  0
 26 27  2  0
 27 28  1  0
 28 29  2  0
 29 30  1  0
 30 31  2  0
 31  2  1  0
 24  5  1  0
 31 26  1  0
 23 12  1  0
 21 16  1  0
  3 32  1  0
  3 33  1  0
  6 34  1  0
  7 35  1  0
  8 36  1  0
 13 37  1  0
 13 38  1  0
 14 39  1  0
 14 40  1  0
 17 41  1  0
 18 42  1  0
 19 43  1  0
 20 44  1  0
 22 45  1  0
 22 46  1  0
 23 47  1  0
 23 48  1  0
 24 49  1  0
 27 50  1  0
 28 51  1  0
 29 52  1  0
 30 53  1  0
M  END
>  <smiles>  (30) 
O=C1CC(c2cccc(C(=O)N3CCN(c4ccccn4)CC3)c2)=Nc2ccccc21

>  <score_type>  (30) 
oracle

>  <origin>  (30) 
autodockgpu

>  <m_score__min__energy>  (30) 
-9.1400000000000006

>  <m_primary>  (30) 
energy

>  <rmsd>  (30) 
4.2294380550401325

>  <m_score__min__rmsd>  (30) 
4.2294380550401325

>  <meeko>  (30) 
{"free_energy": -9.05, "intermolecular_energy": -9.94, "internal_energy": -0.94, "cluster_size": 49, "cluster_id": 1, "rank_in_cluster": 35}

>  <energy>  (30) 
-9.08

>  <cluster_rmsd>  (30) 
1.44

>  <cluster>  (30) 
1

$$$$

     RDKit          3D

 53 57  0  0  0  0  0  0  0  0999 V2000
  139.1720   67.5290  225.2940 O   0  0  0  0  0  0  0  0  0  0  0  0
  139.4060   68.7390  225.0720 C   0  0  0  0  0  0  0  0  0  0  0  0
  139.0730   69.2600  223.7210 C   0  0  0  0  0  0  0  0  0  0  0  0
  139.4050   70.6870  223.6150 C   0  0  0  0  0  0  0  0  0  0  0  0
  139.1520   71.3820  222.3460 C   0  0  0  0  0  0  0  0  0  0  0  0
  139.3120   70.7240  221.1320 C   0  0  0  0  0  0  0  0  0  0  0  0
  139.0780   71.3900  219.9410 C   0  0  0  0  0  0  0  0  0  0  0  0
  138.6890   72.7070  219.9990 C   0  0  0  0  0  0  0  0  0  0  0  0
  138.5140   73.4100  221.1700 C   0  0  0  0  0  0  0  0  0  0  0  0
  138.1020   74.8140  221.1980 C   0  0  0  0  0  0  0  0  0  0  0  0
  136.9530   75.0460  220.6820 O   0  0  0  0  0  0  0  0  0  0  0  0
  138.8860   75.8450  221.7410 N   0  0  0  0  0  0  0  0  0  0  0  0
  140.1780   75.6330  222.3290 C   0  0  0  0  0  0  0  0  0  0  0  0
  140.9600   76.8430  222.6560 C   0  0  0  0  0  0  0  0  0  0  0  0
  140.5100   78.0800  222.1100 N   0  0  0  0  0  0  0  0  0  0  0  0
  141.0880   79.2890  222.5830 C   0  0  0  0  0  0  0  0  0  0  0  0
  142.2080   79.2390  223.3740 C   0  0  0  0  0  0  0  0  0  0  0  0
  142.7590   80.4280  223.8330 C   0  0  0  0  0  0  0  0  0  0  0  0
  142.1650   81.6400  223.4800 C   0  0  0  0  0  0  0  0  0  0  0  0
  141.0350   81.6150  222.6770 C   0  0  0  0  0  0  0  0  0  0  0  0
  140.5130   80.4530  222.2400 N   0  0  0  0  0  0  0  0  0  0  0  0
  139.4780   78.0550  221.0900 C   0  0  0  0  0  0  0  0  0  0  0  0
  138.3570   77.2040  221.7020 C   0  0  0  0  0  0  0  0  0  0  0  0
  138.7590   72.7040  222.3460 C   0  0  0  0  0  0  0  0  0  0  0  0
  139.9160   71.3540  224.5930 N   0  0  0  0  0  0  0  0  0  0  0  0
  140.2290   70.8680  225.8670 C   0  0  0  0  0  0  0  0  0  0  0  0
  140.7740   71.7290  226.7950 C   0  0  0  0  0  0  0  0  0  0  0  0
  141.0830   71.2460  228.0470 C   0  0  0  0  0  0  0  0  0  0  0  0
  140.8430   69.9150  228.3470 C   0  0  0  0  0  0  0  0  0  0  0  0
  140.2920   69.0720  227.3840 C   0  0  0  0  0  0  0  0  0  0  0  0
  139.9760   69.5310  226.1320 C   0  0  0  0  0  0  0  0  0  0  0  0
  139.6457   68.6997  222.9673 H   0  0  0  0  0  0  0  0  0  0  0  0
  137.9932   69.1361  223.5520 H   0  0  0  0  0  0  0  0  0  0  0  0
  139.6258   69.6698  221.1176 H   0  0  0  0  0  0  0  0  0  0  0  0
  139.2001   70.8790  218.9746 H   0  0  0  0  0  0  0  0  0  0  0  0
  138.5059   73.2325  219.0502 H   0  0  0  0  0  0  0  0  0  0  0  0
  140.0322   75.0673  223.2610 H   0  0  0  0  0  0  0  0  0  0  0  0
  140.7641   75.1061  221.5616 H   0  0  0  0  0  0  0  0  0  0  0  0
  140.9645   76.9474  223.7510 H   0  0  0  0  0  0  0  0  0  0  0  0
  141.9457   76.6743  222.1978 H   0  0  0  0  0  0  0  0  0  0  0  0
  142.6619   78.2730  223.6401 H   0  0  0  0  0  0  0  0  0  0  0  0
  143.6561   80.4144  224.4694 H   0  0  0  0  0  0  0  0  0  0  0  0
  142.5840   82.5946  223.8311 H   0  0  0  0  0  0  0  0  0  0  0  0
  140.5555   82.5628  222.3913 H   0  0  0  0  0  0  0  0  0  0  0  0
  139.1202   79.0724  220.8732 H   0  0  0  0  0  0  0  0  0  0  0  0
  139.8415   77.6461  220.1357 H   0  0  0  0  0  0  0  0  0  0  0  0
  138.1174   77.5539  222.7170 H   0  0  0  0  0  0  0  0  0  0  0  0
  137.4274   77.2666  221.1172 H   0  0  0  0  0  0  0  0  0  0  0  0
  138.6344   73.2198  223.3095 H   0  0  0  0  0  0  0  0  0  0  0  0
  140.9588   72.7830  226.5401 H   0  0  0  0  0  0  0  0  0  0  0  0
  141.5182   71.9137  228.8051 H   0  0  0  0  0  0  0  0  0  0  0  0
  141.0874   69.5236  229.3455 H   0  0  0  0  0  0  0  0  0  0  0  0
  140.1070   68.0168  227.6338 H   0  0  0  0  0  0  0  0  0  0  0  0
  1  2  2  0
  2  3  1  0
  3  4  1  0
  4  5  1  0
  5  6  2  0
  6  7  1  0
  7  8  2  0
  8  9  1  0
  9 10  1  0
 10 11  2  0
 10 12  1  0
 12 13  1  0
 13 14  1  0
 14 15  1  0
 15 16  1  0
 16 17  2  0
 17 18  1  0
 18 19  2  0
 19 20  1  0
 20 21  2  0
 15 22  1  0
 22 23  1  0
  9 24  2  0
  4 25  2  0
 25 26  1  0
 26 27  2  0
 27 28  1  0
 28 29  2  0
 29 30  1  0
 30 31  2  0
 31  2  1  0
 24  5  1  0
 31 26  1  0
 23 12  1  0
 21 16  1  0
  3 32  1  0
  3 33  1  0
  6 34  1  0
  7 35  1  0
  8 36  1  0
 13 37  1  0
 13 38  1  0
 14 39  1  0
 14 40  1  0
 17 41  1  0
 18 42  1  0
 19 43  1  0
 20 44  1  0
 22 45  1  0
 22 46  1  0
 23 47  1  0
 23 48  1  0
 24 49  1  0
 27 50  1  0
 28 51  1  0
 29 52  1  0
 30 53  1  0
M  END
>  <smiles>  (31) 
O=C1CC(c2cccc(C(=O)N3CCN(c4ccccn4)CC3)c2)=Nc2ccccc21

>  <score_type>  (31) 
oracle

>  <origin>  (31) 
autodockgpu

>  <m_score__min__energy>  (31) 
-9.1400000000000006

>  <m_primary>  (31) 
energy

>  <rmsd>  (31) 
4.659055273408784

>  <m_score__min__rmsd>  (31) 
4.659055273408784

>  <meeko>  (31) 
{"free_energy": -9.13, "intermolecular_energy": -10.03, "internal_energy": -0.92, "cluster_size": 49, "cluster_id": 1, "rank_in_cluster": 16}

>  <energy>  (31) 
-9.08

>  <cluster_rmsd>  (31) 
1.45

>  <cluster>  (31) 
1

$$$$

     RDKit          3D

 53 57  0  0  0  0  0  0  0  0999 V2000
  139.2140   67.4570  225.1930 O   0  0  0  0  0  0  0  0  0  0  0  0
  139.4410   68.6730  224.9950 C   0  0  0  0  0  0  0  0  0  0  0  0
  139.1090   69.2170  223.6530 C   0  0  0  0  0  0  0  0  0  0  0  0
  139.4320   70.6490  223.5760 C   0  0  0  0  0  0  0  0  0  0  0  0
  139.1800   71.3660  222.3200 C   0  0  0  0  0  0  0  0  0  0  0  0
  139.3550   70.7340  221.0940 C   0  0  0  0  0  0  0  0  0  0  0  0
  139.1210   71.4220  219.9150 C   0  0  0  0  0  0  0  0  0  0  0  0
  138.7170   72.7330  219.9960 C   0  0  0  0  0  0  0  0  0  0  0  0
  138.5260   73.4100  221.1810 C   0  0  0  0  0  0  0  0  0  0  0  0
  138.0980   74.8080  221.2340 C   0  0  0  0  0  0  0  0  0  0  0  0
  136.9230   75.0270  220.7730 O   0  0  0  0  0  0  0  0  0  0  0  0
  138.8930   75.8480  221.7450 N   0  0  0  0  0  0  0  0  0  0  0  0
  140.2130   75.6500  222.2710 C   0  0  0  0  0  0  0  0  0  0  0  0
  140.9950   76.8690  222.5670 C   0  0  0  0  0  0  0  0  0  0  0  0
  140.5030   78.1020  222.0480 N   0  0  0  0  0  0  0  0  0  0  0  0
  141.0870   79.3160  222.4990 C   0  0  0  0  0  0  0  0  0  0  0  0
  142.1180   79.2760  223.4040 C   0  0  0  0  0  0  0  0  0  0  0  0
  142.6760   80.4710  223.8400 C   0  0  0  0  0  0  0  0  0  0  0  0
  142.1770   81.6790  223.3490 C   0  0  0  0  0  0  0  0  0  0  0  0
  141.1350   81.6430  222.4370 C   0  0  0  0  0  0  0  0  0  0  0  0
  140.6050   80.4760  222.0240 N   0  0  0  0  0  0  0  0  0  0  0  0
  139.4260   78.0680  221.0780 C   0  0  0  0  0  0  0  0  0  0  0  0
  138.3450   77.2000  221.7370 C   0  0  0  0  0  0  0  0  0  0  0  0
  138.7710   72.6840  222.3430 C   0  0  0  0  0  0  0  0  0  0  0  0
  139.9350   71.3000  224.5680 N   0  0  0  0  0  0  0  0  0  0  0  0
  140.2470   70.7910  225.8340 C   0  0  0  0  0  0  0  0  0  0  0  0
  140.7820   71.6370  226.7810 C   0  0  0  0  0  0  0  0  0  0  0  0
  141.0900   71.1330  228.0250 C   0  0  0  0  0  0  0  0  0  0  0  0
  140.8570   69.7950  228.2970 C   0  0  0  0  0  0  0  0  0  0  0  0
  140.3160   68.9670  227.3170 C   0  0  0  0  0  0  0  0  0  0  0  0
  140.0020   69.4480  226.0730 C   0  0  0  0  0  0  0  0  0  0  0  0
  139.6881   68.6751  222.8908 H   0  0  0  0  0  0  0  0  0  0  0  0
  138.0307   69.0887  223.4773 H   0  0  0  0  0  0  0  0  0  0  0  0
  139.6805   69.6838  221.0603 H   0  0  0  0  0  0  0  0  0  0  0  0
  139.2550   70.9319  218.9394 H   0  0  0  0  0  0  0  0  0  0  0  0
  138.5348   73.2756  219.0567 H   0  0  0  0  0  0  0  0  0  0  0  0
  140.1178   75.0788  223.2062 H   0  0  0  0  0  0  0  0  0  0  0  0
  140.7692   75.1337  221.4747 H   0  0  0  0  0  0  0  0  0  0  0  0
  141.0498   76.9691  223.6611 H   0  0  0  0  0  0  0  0  0  0  0  0
  141.9606   76.7151  222.0630 H   0  0  0  0  0  0  0  0  0  0  0  0
  142.4963   78.3132  223.7780 H   0  0  0  0  0  0  0  0  0  0  0  0
  143.5031   80.4656  224.5652 H   0  0  0  0  0  0  0  0  0  0  0  0
  142.6020   82.6383  223.6792 H   0  0  0  0  0  0  0  0  0  0  0  0
  140.7321   82.5873  222.0419 H   0  0  0  0  0  0  0  0  0  0  0  0
  139.0458   79.0816  220.8830 H   0  0  0  0  0  0  0  0  0  0  0  0
  139.7500   77.6676  220.1060 H   0  0  0  0  0  0  0  0  0  0  0  0
  138.1479   77.5425  222.7636 H   0  0  0  0  0  0  0  0  0  0  0  0
  137.3886   77.2530  221.1961 H   0  0  0  0  0  0  0  0  0  0  0  0
  138.6336   73.1790  223.3157 H   0  0  0  0  0  0  0  0  0  0  0  0
  140.9600   72.6970  226.5473 H   0  0  0  0  0  0  0  0  0  0  0  0
  141.5182   71.7886  228.7975 H   0  0  0  0  0  0  0  0  0  0  0  0
  141.0997   69.3859  229.2888 H   0  0  0  0  0  0  0  0  0  0  0  0
  140.1372   67.9060  227.5459 H   0  0  0  0  0  0  0  0  0  0  0  0
  1  2  2  0
  2  3  1  0
  3  4  1  0
  4  5  1  0
  5  6  2  0
  6  7  1  0
  7  8  2  0
  8  9  1  0
  9 10  1  0
 10 11  2  0
 10 12  1  0
 12 13  1  0
 13 14  1  0
 14 15  1  0
 15 16  1  0
 16 17  2  0
 17 18  1  0
 18 19  2  0
 19 20  1  0
 20 21  2  0
 15 22  1  0
 22 23  1  0
  9 24  2  0
  4 25  2  0
 25 26  1  0
 26 27  2  0
 27 28  1  0
 28 29  2  0
 29 30  1  0
 30 31  2  0
 31  2  1  0
 24  5  1  0
 31 26  1  0
 23 12  1  0
 21 16  1  0
  3 32  1  0
  3 33  1  0
  6 34  1  0
  7 35  1  0
  8 36  1  0
 13 37  1  0
 13 38  1  0
 14 39  1  0
 14 40  1  0
 17 41  1  0
 18 42  1  0
 19 43  1  0
 20 44  1  0
 22 45  1  0
 22 46  1  0
 23 47  1  0
 23 48  1  0
 24 49  1  0
 27 50  1  0
 28 51  1  0
 29 52  1  0
 30 53  1  0
M  END
>  <smiles>  (32) 
O=C1CC(c2cccc(C(=O)N3CCN(c4ccccn4)CC3)c2)=Nc2ccccc21

>  <score_type>  (32) 
oracle

>  <origin>  (32) 
autodockgpu

>  <m_score__min__energy>  (32) 
-9.1400000000000006

>  <m_primary>  (32) 
energy

>  <rmsd>  (32) 
4.666072933059847

>  <m_score__min__rmsd>  (32) 
4.666072933059847

>  <meeko>  (32) 
{"free_energy": -9.11, "intermolecular_energy": -10.0, "internal_energy": -0.92, "cluster_size": 49, "cluster_id": 1, "rank_in_cluster": 26}

>  <energy>  (32) 
-9.06

>  <cluster_rmsd>  (32) 
1.43

>  <cluster>  (32) 
1

$$$$

     RDKit          3D

 53 57  0  0  0  0  0  0  0  0999 V2000
  139.1980   67.4850  225.2080 O   0  0  0  0  0  0  0  0  0  0  0  0
  139.4370   68.6990  225.0120 C   0  0  0  0  0  0  0  0  0  0  0  0
  139.1240   69.2450  223.6660 C   0  0  0  0  0  0  0  0  0  0  0  0
  139.4600   70.6740  223.5910 C   0  0  0  0  0  0  0  0  0  0  0  0
  139.2270   71.3930  222.3320 C   0  0  0  0  0  0  0  0  0  0  0  0
  139.4230   70.7630  221.1080 C   0  0  0  0  0  0  0  0  0  0  0  0
  139.2080   71.4520  219.9270 C   0  0  0  0  0  0  0  0  0  0  0  0
  138.7990   72.7610  220.0030 C   0  0  0  0  0  0  0  0  0  0  0  0
  138.5880   73.4370  221.1850 C   0  0  0  0  0  0  0  0  0  0  0  0
  138.1570   74.8340  221.2330 C   0  0  0  0  0  0  0  0  0  0  0  0
  136.9910   75.0520  220.7480 O   0  0  0  0  0  0  0  0  0  0  0  0
  138.9390   75.8740  221.7620 N   0  0  0  0  0  0  0  0  0  0  0  0
  140.2490   75.6770  222.3150 C   0  0  0  0  0  0  0  0  0  0  0  0
  141.0220   76.8970  222.6290 C   0  0  0  0  0  0  0  0  0  0  0  0
  140.5390   78.1300  222.1040 N   0  0  0  0  0  0  0  0  0  0  0  0
  141.1110   79.3440  222.5690 C   0  0  0  0  0  0  0  0  0  0  0  0
  142.2010   79.3020  223.4030 C   0  0  0  0  0  0  0  0  0  0  0  0
  142.7470   80.4970  223.8540 C   0  0  0  0  0  0  0  0  0  0  0  0
  142.1780   81.7060  223.4520 C   0  0  0  0  0  0  0  0  0  0  0  0
  141.0780   81.6720  222.6090 C   0  0  0  0  0  0  0  0  0  0  0  0
  140.5600   80.5050  222.1790 N   0  0  0  0  0  0  0  0  0  0  0  0
  139.4820   78.0960  221.1110 C   0  0  0  0  0  0  0  0  0  0  0  0
  138.3890   77.2250  221.7470 C   0  0  0  0  0  0  0  0  0  0  0  0
  138.8150   72.7090  222.3510 C   0  0  0  0  0  0  0  0  0  0  0  0
  139.9570   71.3220  224.5890 N   0  0  0  0  0  0  0  0  0  0  0  0
  140.2510   70.8120  225.8580 C   0  0  0  0  0  0  0  0  0  0  0  0
  140.7830   71.6540  226.8100 C   0  0  0  0  0  0  0  0  0  0  0  0
  141.0720   71.1480  228.0580 C   0  0  0  0  0  0  0  0  0  0  0  0
  140.8260   69.8130  228.3290 C   0  0  0  0  0  0  0  0  0  0  0  0
  140.2890   68.9880  227.3430 C   0  0  0  0  0  0  0  0  0  0  0  0
  139.9920   69.4710  226.0950 C   0  0  0  0  0  0  0  0  0  0  0  0
  139.7065   68.6975  222.9104 H   0  0  0  0  0  0  0  0  0  0  0  0
  138.0465   69.1260  223.4792 H   0  0  0  0  0  0  0  0  0  0  0  0
  139.7501   69.7132  221.0782 H   0  0  0  0  0  0  0  0  0  0  0  0
  139.3607   70.9640  218.9531 H   0  0  0  0  0  0  0  0  0  0  0  0
  138.6293   73.3036  219.0613 H   0  0  0  0  0  0  0  0  0  0  0  0
  140.1357   75.1039  223.2471 H   0  0  0  0  0  0  0  0  0  0  0  0
  140.8225   75.1628  221.5297 H   0  0  0  0  0  0  0  0  0  0  0  0
  141.0549   76.9945  223.7242 H   0  0  0  0  0  0  0  0  0  0  0  0
  141.9973   76.7461  222.1431 H   0  0  0  0  0  0  0  0  0  0  0  0
  142.6345   78.3384  223.7088 H   0  0  0  0  0  0  0  0  0  0  0  0
  143.6206   80.4903  224.5224 H   0  0  0  0  0  0  0  0  0  0  0  0
  142.5930   82.6647  223.7963 H   0  0  0  0  0  0  0  0  0  0  0  0
  140.6186   82.6173  222.2845 H   0  0  0  0  0  0  0  0  0  0  0  0
  139.1043   79.1093  220.9096 H   0  0  0  0  0  0  0  0  0  0  0  0
  139.8265   77.6979  220.1451 H   0  0  0  0  0  0  0  0  0  0  0  0
  138.1716   77.5646  222.7704 H   0  0  0  0  0  0  0  0  0  0  0  0
  137.4430   77.2782  221.1882 H   0  0  0  0  0  0  0  0  0  0  0  0
  138.6600   73.2018  223.3221 H   0  0  0  0  0  0  0  0  0  0  0  0
  140.9736   72.7121  226.5774 H   0  0  0  0  0  0  0  0  0  0  0  0
  141.4959   71.8011  228.8350 H   0  0  0  0  0  0  0  0  0  0  0  0
  141.0547   69.4031  229.3238 H   0  0  0  0  0  0  0  0  0  0  0  0
  140.0997   67.9285  227.5704 H   0  0  0  0  0  0  0  0  0  0  0  0
  1  2  2  0
  2  3  1  0
  3  4  1  0
  4  5  1  0
  5  6  2  0
  6  7  1  0
  7  8  2  0
  8  9  1  0
  9 10  1  0
 10 11  2  0
 10 12  1  0
 12 13  1  0
 13 14  1  0
 14 15  1  0
 15 16  1  0
 16 17  2  0
 17 18  1  0
 18 19  2  0
 19 20  1  0
 20 21  2  0
 15 22  1  0
 22 23  1  0
  9 24  2  0
  4 25  2  0
 25 26  1  0
 26 27  2  0
 27 28  1  0
 28 29  2  0
 29 30  1  0
 30 31  2  0
 31  2  1  0
 24  5  1  0
 31 26  1  0
 23 12  1  0
 21 16  1  0
  3 32  1  0
  3 33  1  0
  6 34  1  0
  7 35  1  0
  8 36  1  0
 13 37  1  0
 13 38  1  0
 14 39  1  0
 14 40  1  0
 17 41  1  0
 18 42  1  0
 19 43  1  0
 20 44  1  0
 22 45  1  0
 22 46  1  0
 23 47  1  0
 23 48  1  0
 24 49  1  0
 27 50  1  0
 28 51  1  0
 29 52  1  0
 30 53  1  0
M  END
>  <smiles>  (33) 
O=C1CC(c2cccc(C(=O)N3CCN(c4ccccn4)CC3)c2)=Nc2ccccc21

>  <score_type>  (33) 
oracle

>  <origin>  (33) 
autodockgpu

>  <m_score__min__energy>  (33) 
-9.1400000000000006

>  <m_primary>  (33) 
energy

>  <rmsd>  (33) 
4.693020698195083

>  <m_score__min__rmsd>  (33) 
4.693020698195083

>  <meeko>  (33) 
{"free_energy": -9.13, "intermolecular_energy": -10.02, "internal_energy": -0.92, "cluster_size": 49, "cluster_id": 1, "rank_in_cluster": 19}

>  <energy>  (33) 
-9.06

>  <cluster_rmsd>  (33) 
1.44

>  <cluster>  (33) 
1

$$$$

     RDKit          3D

 53 57  0  0  0  0  0  0  0  0999 V2000
  139.2120   67.4880  225.2510 O   0  0  0  0  0  0  0  0  0  0  0  0
  139.4450   68.7010  225.0430 C   0  0  0  0  0  0  0  0  0  0  0  0
  139.1260   69.2330  223.6920 C   0  0  0  0  0  0  0  0  0  0  0  0
  139.4560   70.6620  223.6040 C   0  0  0  0  0  0  0  0  0  0  0  0
  139.2160   71.3680  222.3380 C   0  0  0  0  0  0  0  0  0  0  0  0
  139.4010   70.7240  221.1200 C   0  0  0  0  0  0  0  0  0  0  0  0
  139.1790   71.4010  219.9330 C   0  0  0  0  0  0  0  0  0  0  0  0
  138.7770   72.7130  219.9980 C   0  0  0  0  0  0  0  0  0  0  0  0
  138.5780   73.4030  221.1740 C   0  0  0  0  0  0  0  0  0  0  0  0
  138.1530   74.8020  221.2100 C   0  0  0  0  0  0  0  0  0  0  0  0
  136.9950   75.0240  220.7090 O   0  0  0  0  0  0  0  0  0  0  0  0
  138.9330   75.8400  221.7460 N   0  0  0  0  0  0  0  0  0  0  0  0
  140.2340   75.6390  222.3170 C   0  0  0  0  0  0  0  0  0  0  0  0
  141.0090   76.8560  222.6370 C   0  0  0  0  0  0  0  0  0  0  0  0
  140.5400   78.0900  222.1000 N   0  0  0  0  0  0  0  0  0  0  0  0
  141.1110   79.3030  222.5680 C   0  0  0  0  0  0  0  0  0  0  0  0
  142.2260   79.2610  223.3690 C   0  0  0  0  0  0  0  0  0  0  0  0
  142.7710   80.4550  223.8230 C   0  0  0  0  0  0  0  0  0  0  0  0
  142.1770   81.6630  223.4570 C   0  0  0  0  0  0  0  0  0  0  0  0
  141.0540   81.6290  222.6450 C   0  0  0  0  0  0  0  0  0  0  0  0
  140.5370   80.4630  222.2120 N   0  0  0  0  0  0  0  0  0  0  0  0
  139.4960   78.0570  221.0930 C   0  0  0  0  0  0  0  0  0  0  0  0
  138.3900   77.1940  221.7170 C   0  0  0  0  0  0  0  0  0  0  0  0
  138.8110   72.6870  222.3460 C   0  0  0  0  0  0  0  0  0  0  0  0
  139.9530   71.3220  224.5940 N   0  0  0  0  0  0  0  0  0  0  0  0
  140.2530   70.8240  225.8670 C   0  0  0  0  0  0  0  0  0  0  0  0
  140.7840   71.6780  226.8090 C   0  0  0  0  0  0  0  0  0  0  0  0
  141.0790   71.1840  228.0610 C   0  0  0  0  0  0  0  0  0  0  0  0
  140.8390   69.8500  228.3450 C   0  0  0  0  0  0  0  0  0  0  0  0
  140.3030   69.0150  227.3680 C   0  0  0  0  0  0  0  0  0  0  0  0
  140.0000   69.4850  226.1170 C   0  0  0  0  0  0  0  0  0  0  0  0
  139.7089   68.6811  222.9399 H   0  0  0  0  0  0  0  0  0  0  0  0
  138.0487   69.1074  223.5084 H   0  0  0  0  0  0  0  0  0  0  0  0
  139.7249   69.6730  221.0993 H   0  0  0  0  0  0  0  0  0  0  0  0
  139.3208   70.9015  218.9633 H   0  0  0  0  0  0  0  0  0  0  0  0
  138.6030   73.2462  219.0518 H   0  0  0  0  0  0  0  0  0  0  0  0
  140.1054   75.0699  223.2495 H   0  0  0  0  0  0  0  0  0  0  0  0
  140.8153   75.1194  221.5410 H   0  0  0  0  0  0  0  0  0  0  0  0
  141.0269   76.9578  223.7321 H   0  0  0  0  0  0  0  0  0  0  0  0
  141.9902   76.6978  222.1656 H   0  0  0  0  0  0  0  0  0  0  0  0
  142.6796   78.2980  223.6462 H   0  0  0  0  0  0  0  0  0  0  0  0
  143.6636   80.4482  224.4658 H   0  0  0  0  0  0  0  0  0  0  0  0
  142.5905   82.6211  223.8050 H   0  0  0  0  0  0  0  0  0  0  0  0
  140.5752   82.5738  222.3481 H   0  0  0  0  0  0  0  0  0  0  0  0
  139.1261   79.0713  220.8826 H   0  0  0  0  0  0  0  0  0  0  0  0
  139.8517   77.6531  220.1337 H   0  0  0  0  0  0  0  0  0  0  0  0
  138.1596   77.5393  222.7357 H   0  0  0  0  0  0  0  0  0  0  0  0
  137.4525   77.2492  221.1442 H   0  0  0  0  0  0  0  0  0  0  0  0
  138.6669   73.1914  223.3128 H   0  0  0  0  0  0  0  0  0  0  0  0
  140.9690   72.7347  226.5660 H   0  0  0  0  0  0  0  0  0  0  0  0
  141.5028   71.8457  228.8308 H   0  0  0  0  0  0  0  0  0  0  0  0
  141.0719   69.4498  229.3428 H   0  0  0  0  0  0  0  0  0  0  0  0
  140.1191   67.9567  227.6052 H   0  0  0  0  0  0  0  0  0  0  0  0
  1  2  2  0
  2  3  1  0
  3  4  1  0
  4  5  1  0
  5  6  2  0
  6  7  1  0
  7  8  2  0
  8  9  1  0
  9 10  1  0
 10 11  2  0
 10 12  1  0
 12 13  1  0
 13 14  1  0
 14 15  1  0
 15 16  1  0
 16 17  2  0
 17 18  1  0
 18 19  2  0
 19 20  1  0
 20 21  2  0
 15 22  1  0
 22 23  1  0
  9 24  2  0
  4 25  2  0
 25 26  1  0
 26 27  2  0
 27 28  1  0
 28 29  2  0
 29 30  1  0
 30 31  2  0
 31  2  1  0
 24  5  1  0
 31 26  1  0
 23 12  1  0
 21 16  1  0
  3 32  1  0
  3 33  1  0
  6 34  1  0
  7 35  1  0
  8 36  1  0
 13 37  1  0
 13 38  1  0
 14 39  1  0
 14 40  1  0
 17 41  1  0
 18 42  1  0
 19 43  1  0
 20 44  1  0
 22 45  1  0
 22 46  1  0
 23 47  1  0
 23 48  1  0
 24 49  1  0
 27 50  1  0
 28 51  1  0
 29 52  1  0
 30 53  1  0
M  END
>  <smiles>  (34) 
O=C1CC(c2cccc(C(=O)N3CCN(c4ccccn4)CC3)c2)=Nc2ccccc21

>  <score_type>  (34) 
oracle

>  <origin>  (34) 
autodockgpu

>  <m_score__min__energy>  (34) 
-9.1400000000000006

>  <m_primary>  (34) 
energy

>  <rmsd>  (34) 
4.665411732938215

>  <m_score__min__rmsd>  (34) 
4.665411732938215

>  <meeko>  (34) 
{"free_energy": -9.14, "intermolecular_energy": -10.04, "internal_energy": -0.92, "cluster_size": 49, "cluster_id": 1, "rank_in_cluster": 2}

>  <energy>  (34) 
-9.06

>  <cluster_rmsd>  (34) 
1.43

>  <cluster>  (34) 
1

$$$$

     RDKit          3D

 53 57  0  0  0  0  0  0  0  0999 V2000
  139.2100   67.4770  225.2500 O   0  0  0  0  0  0  0  0  0  0  0  0
  139.4440   68.6900  225.0420 C   0  0  0  0  0  0  0  0  0  0  0  0
  139.1250   69.2230  223.6920 C   0  0  0  0  0  0  0  0  0  0  0  0
  139.4550   70.6520  223.6030 C   0  0  0  0  0  0  0  0  0  0  0  0
  139.2160   71.3580  222.3370 C   0  0  0  0  0  0  0  0  0  0  0  0
  139.4040   70.7150  221.1190 C   0  0  0  0  0  0  0  0  0  0  0  0
  139.1820   71.3920  219.9310 C   0  0  0  0  0  0  0  0  0  0  0  0
  138.7770   72.7030  219.9970 C   0  0  0  0  0  0  0  0  0  0  0  0
  138.5740   73.3910  221.1730 C   0  0  0  0  0  0  0  0  0  0  0  0
  138.1460   74.7900  221.2090 C   0  0  0  0  0  0  0  0  0  0  0  0
  136.9900   75.0090  220.7040 O   0  0  0  0  0  0  0  0  0  0  0  0
  138.9220   75.8290  221.7480 N   0  0  0  0  0  0  0  0  0  0  0  0
  140.2220   75.6310  222.3230 C   0  0  0  0  0  0  0  0  0  0  0  0
  140.9920   76.8490  222.6470 C   0  0  0  0  0  0  0  0  0  0  0  0
  140.5220   78.0820  222.1090 N   0  0  0  0  0  0  0  0  0  0  0  0
  141.0890   79.2960  222.5800 C   0  0  0  0  0  0  0  0  0  0  0  0
  142.1860   79.2550  223.4050 C   0  0  0  0  0  0  0  0  0  0  0  0
  142.7270   80.4500  223.8620 C   0  0  0  0  0  0  0  0  0  0  0  0
  142.1470   81.6580  223.4740 C   0  0  0  0  0  0  0  0  0  0  0  0
  141.0420   81.6230  222.6380 C   0  0  0  0  0  0  0  0  0  0  0  0
  140.5280   80.4560  222.2030 N   0  0  0  0  0  0  0  0  0  0  0  0
  139.4820   78.0480  221.0990 C   0  0  0  0  0  0  0  0  0  0  0  0
  138.3760   77.1820  221.7180 C   0  0  0  0  0  0  0  0  0  0  0  0
  138.8070   72.6750  222.3450 C   0  0  0  0  0  0  0  0  0  0  0  0
  139.9520   71.3110  224.5930 N   0  0  0  0  0  0  0  0  0  0  0  0
  140.2510   70.8140  225.8660 C   0  0  0  0  0  0  0  0  0  0  0  0
  140.7820   71.6670  226.8090 C   0  0  0  0  0  0  0  0  0  0  0  0
  141.0780   71.1740  228.0600 C   0  0  0  0  0  0  0  0  0  0  0  0
  140.8370   69.8400  228.3440 C   0  0  0  0  0  0  0  0  0  0  0  0
  140.3010   69.0040  227.3680 C   0  0  0  0  0  0  0  0  0  0  0  0
  139.9990   69.4740  226.1160 C   0  0  0  0  0  0  0  0  0  0  0  0
  139.7074   68.6710  222.9396 H   0  0  0  0  0  0  0  0  0  0  0  0
  138.0474   69.0983  223.5097 H   0  0  0  0  0  0  0  0  0  0  0  0
  139.7303   69.6647  221.0985 H   0  0  0  0  0  0  0  0  0  0  0  0
  139.3261   70.8934  218.9612 H   0  0  0  0  0  0  0  0  0  0  0  0
  138.6039   73.2371  219.0511 H   0  0  0  0  0  0  0  0  0  0  0  0
  140.0920   75.0602  223.2543 H   0  0  0  0  0  0  0  0  0  0  0  0
  140.8073   75.1142  221.5481 H   0  0  0  0  0  0  0  0  0  0  0  0
  141.0050   76.9500  223.7423 H   0  0  0  0  0  0  0  0  0  0  0  0
  141.9756   76.6938  222.1797 H   0  0  0  0  0  0  0  0  0  0  0  0
  142.6289   78.2920  223.6990 H   0  0  0  0  0  0  0  0  0  0  0  0
  143.6053   80.4439  224.5242 H   0  0  0  0  0  0  0  0  0  0  0  0
  142.5574   82.6168  223.8237 H   0  0  0  0  0  0  0  0  0  0  0  0
  140.5749   82.5678  222.3231 H   0  0  0  0  0  0  0  0  0  0  0  0
  139.1105   79.0618  220.8886 H   0  0  0  0  0  0  0  0  0  0  0  0
  139.8418   77.6461  220.1404 H   0  0  0  0  0  0  0  0  0  0  0  0
  138.1410   77.5259  222.7361 H   0  0  0  0  0  0  0  0  0  0  0  0
  137.4406   77.2355  221.1416 H   0  0  0  0  0  0  0  0  0  0  0  0
  138.6594   73.1783  223.3119 H   0  0  0  0  0  0  0  0  0  0  0  0
  140.9663   72.7240  226.5664 H   0  0  0  0  0  0  0  0  0  0  0  0
  141.5033   71.8355  228.8291 H   0  0  0  0  0  0  0  0  0  0  0  0
  141.0694   69.4403  229.3421 H   0  0  0  0  0  0  0  0  0  0  0  0
  140.1163   67.9461  227.6061 H   0  0  0  0  0  0  0  0  0  0  0  0
  1  2  2  0
  2  3  1  0
  3  4  1  0
  4  5  1  0
  5  6  2  0
  6  7  1  0
  7  8  2  0
  8  9  1  0
  9 10  1  0
 10 11  2  0
 10 12  1  0
 12 13  1  0
 13 14  1  0
 14 15  1  0
 15 16  1  0
 16 17  2  0
 17 18  1  0
 18 19  2  0
 19 20  1  0
 20 21  2  0
 15 22  1  0
 22 23  1  0
  9 24  2  0
  4 25  2  0
 25 26  1  0
 26 27  2  0
 27 28  1  0
 28 29  2  0
 29 30  1  0
 30 31  2  0
 31  2  1  0
 24  5  1  0
 31 26  1  0
 23 12  1  0
 21 16  1  0
  3 32  1  0
  3 33  1  0
  6 34  1  0
  7 35  1  0
  8 36  1  0
 13 37  1  0
 13 38  1  0
 14 39  1  0
 14 40  1  0
 17 41  1  0
 18 42  1  0
 19 43  1  0
 20 44  1  0
 22 45  1  0
 22 46  1  0
 23 47  1  0
 23 48  1  0
 24 49  1  0
 27 50  1  0
 28 51  1  0
 29 52  1  0
 30 53  1  0
M  END
>  <smiles>  (35) 
O=C1CC(c2cccc(C(=O)N3CCN(c4ccccn4)CC3)c2)=Nc2ccccc21

>  <score_type>  (35) 
oracle

>  <origin>  (35) 
autodockgpu

>  <m_score__min__energy>  (35) 
-9.1400000000000006

>  <m_primary>  (35) 
energy

>  <rmsd>  (35) 
4.667179101953708

>  <m_score__min__rmsd>  (35) 
4.667179101953708

>  <meeko>  (35) 
{"free_energy": -9.14, "intermolecular_energy": -10.03, "internal_energy": -0.92, "cluster_size": 49, "cluster_id": 1, "rank_in_cluster": 10}

>  <energy>  (35) 
-9.05

>  <cluster_rmsd>  (35) 
1.44

>  <cluster>  (35) 
1

$$$$

     RDKit          3D

 53 57  0  0  0  0  0  0  0  0999 V2000
  139.1780   67.5170  225.2620 O   0  0  0  0  0  0  0  0  0  0  0  0
  139.4190   68.7270  225.0470 C   0  0  0  0  0  0  0  0  0  0  0  0
  139.1000   69.2550  223.6950 C   0  0  0  0  0  0  0  0  0  0  0  0
  139.4370   70.6820  223.5980 C   0  0  0  0  0  0  0  0  0  0  0  0
  139.1990   71.3830  222.3300 C   0  0  0  0  0  0  0  0  0  0  0  0
  139.3750   70.7310  221.1140 C   0  0  0  0  0  0  0  0  0  0  0  0
  139.1550   71.4040  219.9240 C   0  0  0  0  0  0  0  0  0  0  0  0
  138.7630   72.7190  219.9840 C   0  0  0  0  0  0  0  0  0  0  0  0
  138.5720   73.4160  221.1570 C   0  0  0  0  0  0  0  0  0  0  0  0
  138.1570   74.8180  221.1870 C   0  0  0  0  0  0  0  0  0  0  0  0
  137.0080   75.0490  220.6700 O   0  0  0  0  0  0  0  0  0  0  0  0
  138.9370   75.8510  221.7330 N   0  0  0  0  0  0  0  0  0  0  0  0
  140.2290   75.6400  222.3210 C   0  0  0  0  0  0  0  0  0  0  0  0
  141.0080   76.8520  222.6520 C   0  0  0  0  0  0  0  0  0  0  0  0
  140.5560   78.0880  222.1080 N   0  0  0  0  0  0  0  0  0  0  0  0
  141.1300   79.2980  222.5830 C   0  0  0  0  0  0  0  0  0  0  0  0
  142.2420   79.2480  223.3860 C   0  0  0  0  0  0  0  0  0  0  0  0
  142.7910   80.4380  223.8480 C   0  0  0  0  0  0  0  0  0  0  0  0
  142.2010   81.6500  223.4870 C   0  0  0  0  0  0  0  0  0  0  0  0
  141.0790   81.6240  222.6720 C   0  0  0  0  0  0  0  0  0  0  0  0
  140.5600   80.4610  222.2320 N   0  0  0  0  0  0  0  0  0  0  0  0
  139.5250   78.0630  221.0870 C   0  0  0  0  0  0  0  0  0  0  0  0
  138.4050   77.2090  221.6960 C   0  0  0  0  0  0  0  0  0  0  0  0
  138.8030   72.7040  222.3310 C   0  0  0  0  0  0  0  0  0  0  0  0
  139.9410   71.3430  224.5840 N   0  0  0  0  0  0  0  0  0  0  0  0
  140.2410   70.8500  225.8580 C   0  0  0  0  0  0  0  0  0  0  0  0
  140.7790   71.7050  226.7950 C   0  0  0  0  0  0  0  0  0  0  0  0
  141.0750   71.2160  228.0480 C   0  0  0  0  0  0  0  0  0  0  0  0
  140.8270   69.8850  228.3400 C   0  0  0  0  0  0  0  0  0  0  0  0
  140.2830   69.0480  227.3690 C   0  0  0  0  0  0  0  0  0  0  0  0
  139.9810   69.5130  226.1160 C   0  0  0  0  0  0  0  0  0  0  0  0
  139.6781   68.6963  222.9442 H   0  0  0  0  0  0  0  0  0  0  0  0
  138.0214   69.1350  223.5156 H   0  0  0  0  0  0  0  0  0  0  0  0
  139.6900   69.6772  221.0976 H   0  0  0  0  0  0  0  0  0  0  0  0
  139.2906   70.8989  218.9563 H   0  0  0  0  0  0  0  0  0  0  0  0
  138.5907   73.2491  219.0357 H   0  0  0  0  0  0  0  0  0  0  0  0
  140.0841   75.0712  223.2513 H   0  0  0  0  0  0  0  0  0  0  0  0
  140.8169   75.1164  221.5528 H   0  0  0  0  0  0  0  0  0  0  0  0
  141.0104   76.9543  223.7472 H   0  0  0  0  0  0  0  0  0  0  0  0
  141.9949   76.6867  222.1952 H   0  0  0  0  0  0  0  0  0  0  0  0
  142.6912   78.2818  223.6593 H   0  0  0  0  0  0  0  0  0  0  0  0
  143.6824   80.4248  224.4924 H   0  0  0  0  0  0  0  0  0  0  0  0
  142.6166   82.6050  223.8410 H   0  0  0  0  0  0  0  0  0  0  0  0
  140.6034   82.5716  222.3790 H   0  0  0  0  0  0  0  0  0  0  0  0
  139.1656   79.0801  220.8718 H   0  0  0  0  0  0  0  0  0  0  0  0
  139.8902   77.6564  220.1324 H   0  0  0  0  0  0  0  0  0  0  0  0
  138.1635   77.5565  222.7113 H   0  0  0  0  0  0  0  0  0  0  0  0
  137.4759   77.2709  221.1104 H   0  0  0  0  0  0  0  0  0  0  0  0
  138.6644   73.2143  223.2955 H   0  0  0  0  0  0  0  0  0  0  0  0
  140.9688   72.7597  226.5466 H   0  0  0  0  0  0  0  0  0  0  0  0
  141.5060   71.8789  228.8127 H   0  0  0  0  0  0  0  0  0  0  0  0
  141.0599   69.4888  229.3394 H   0  0  0  0  0  0  0  0  0  0  0  0
  140.0919   67.9925  227.6128 H   0  0  0  0  0  0  0  0  0  0  0  0
  1  2  2  0
  2  3  1  0
  3  4  1  0
  4  5  1  0
  5  6  2  0
  6  7  1  0
  7  8  2  0
  8  9  1  0
  9 10  1  0
 10 11  2  0
 10 12  1  0
 12 13  1  0
 13 14  1  0
 14 15  1  0
 15 16  1  0
 16 17  2  0
 17 18  1  0
 18 19  2  0
 19 20  1  0
 20 21  2  0
 15 22  1  0
 22 23  1  0
  9 24  2  0
  4 25  2  0
 25 26  1  0
 26 27  2  0
 27 28  1  0
 28 29  2  0
 29 30  1  0
 30 31  2  0
 31  2  1  0
 24  5  1  0
 31 26  1  0
 23 12  1  0
 21 16  1  0
  3 32  1  0
  3 33  1  0
  6 34  1  0
  7 35  1  0
  8 36  1  0
 13 37  1  0
 13 38  1  0
 14 39  1  0
 14 40  1  0
 17 41  1  0
 18 42  1  0
 19 43  1  0
 20 44  1  0
 22 45  1  0
 22 46  1  0
 23 47  1  0
 23 48  1  0
 24 49  1  0
 27 50  1  0
 28 51  1  0
 29 52  1  0
 30 53  1  0
M  END
>  <smiles>  (36) 
O=C1CC(c2cccc(C(=O)N3CCN(c4ccccn4)CC3)c2)=Nc2ccccc21

>  <score_type>  (36) 
oracle

>  <origin>  (36) 
autodockgpu

>  <m_score__min__energy>  (36) 
-9.1400000000000006

>  <m_primary>  (36) 
energy

>  <rmsd>  (36) 
4.67313282851314

>  <m_score__min__rmsd>  (36) 
4.67313282851314

>  <meeko>  (36) 
{"free_energy": -9.14, "intermolecular_energy": -10.03, "internal_energy": -0.92, "cluster_size": 49, "cluster_id": 1, "rank_in_cluster": 11}

>  <energy>  (36) 
-9.04

>  <cluster_rmsd>  (36) 
1.5

>  <cluster>  (36) 
1

$$$$

     RDKit          3D

 53 57  0  0  0  0  0  0  0  0999 V2000
  139.1760   67.3780  225.7800 O   0  0  0  0  0  0  0  0  0  0  0  0
  139.2920   68.5720  225.4220 C   0  0  0  0  0  0  0  0  0  0  0  0
  138.7410   68.9410  224.0920 C   0  0  0  0  0  0  0  0  0  0  0  0
  138.9530   70.3690  223.8170 C   0  0  0  0  0  0  0  0  0  0  0  0
  138.4810   70.9230  222.5410 C   0  0  0  0  0  0  0  0  0  0  0  0
  137.3140   70.4530  221.9520 C   0  0  0  0  0  0  0  0  0  0  0  0
  136.8810   70.9770  220.7450 C   0  0  0  0  0  0  0  0  0  0  0  0
  137.6350   71.9640  220.1580 C   0  0  0  0  0  0  0  0  0  0  0  0
  138.8000   72.4690  220.6940 C   0  0  0  0  0  0  0  0  0  0  0  0
  139.5830   73.5180  220.0420 C   0  0  0  0  0  0  0  0  0  0  0  0
  140.0330   73.2090  218.8830 O   0  0  0  0  0  0  0  0  0  0  0  0
  139.8380   74.7730  220.6180 N   0  0  0  0  0  0  0  0  0  0  0  0
  139.3550   75.1630  221.9120 C   0  0  0  0  0  0  0  0  0  0  0  0
  139.8880   76.4270  222.4620 C   0  0  0  0  0  0  0  0  0  0  0  0
  141.0240   76.9930  221.8150 N   0  0  0  0  0  0  0  0  0  0  0  0
  141.4230   78.3120  222.1590 C   0  0  0  0  0  0  0  0  0  0  0  0
  141.5230   79.2670  221.1780 C   0  0  0  0  0  0  0  0  0  0  0  0
  141.9190   80.5510  221.5280 C   0  0  0  0  0  0  0  0  0  0  0  0
  142.2050   80.8400  222.8630 C   0  0  0  0  0  0  0  0  0  0  0  0
  142.0820   79.8270  223.8010 C   0  0  0  0  0  0  0  0  0  0  0  0
  141.6960   78.5860  223.4450 N   0  0  0  0  0  0  0  0  0  0  0  0
  141.7320   76.1970  220.8300 C   0  0  0  0  0  0  0  0  0  0  0  0
  140.6370   75.7290  219.8600 C   0  0  0  0  0  0  0  0  0  0  0  0
  139.2000   71.9160  221.9080 C   0  0  0  0  0  0  0  0  0  0  0  0
  139.5450   71.1550  224.6500 N   0  0  0  0  0  0  0  0  0  0  0  0
  140.0630   70.8120  225.9030 C   0  0  0  0  0  0  0  0  0  0  0  0
  140.6680   71.7870  226.6660 C   0  0  0  0  0  0  0  0  0  0  0  0
  141.1790   71.4460  227.8990 C   0  0  0  0  0  0  0  0  0  0  0  0
  141.0760   70.1380  228.3440 C   0  0  0  0  0  0  0  0  0  0  0  0
  140.4600   69.1760  227.5470 C   0  0  0  0  0  0  0  0  0  0  0  0
  139.9440   69.4940  226.3170 C   0  0  0  0  0  0  0  0  0  0  0  0
  139.2438   68.3457  223.3156 H   0  0  0  0  0  0  0  0  0  0  0  0
  137.6598   68.7383  224.0898 H   0  0  0  0  0  0  0  0  0  0  0  0
  136.7314   69.6615  222.4461 H   0  0  0  0  0  0  0  0  0  0  0  0
  135.9584   70.6127  220.2694 H   0  0  0  0  0  0  0  0  0  0  0  0
  137.2870   72.3773  219.1998 H   0  0  0  0  0  0  0  0  0  0  0  0
  138.2616   75.2629  221.8443 H   0  0  0  0  0  0  0  0  0  0  0  0
  139.7007   74.3777  222.6003 H   0  0  0  0  0  0  0  0  0  0  0  0
  139.0795   77.1718  222.4218 H   0  0  0  0  0  0  0  0  0  0  0  0
  140.2374   76.1702  223.4729 H   0  0  0  0  0  0  0  0  0  0  0  0
  141.2931   79.0190  220.1313 H   0  0  0  0  0  0  0  0  0  0  0  0
  142.0065   81.3335  220.7598 H   0  0  0  0  0  0  0  0  0  0  0  0
  142.5211   81.8496  223.1643 H   0  0  0  0  0  0  0  0  0  0  0  0
  142.3039   80.0404  224.8570 H   0  0  0  0  0  0  0  0  0  0  0  0
  142.4834   76.8051  220.3050 H   0  0  0  0  0  0  0  0  0  0  0  0
  142.2781   75.3567  221.2834 H   0  0  0  0  0  0  0  0  0  0  0  0
  140.0180   76.5793  219.5377 H   0  0  0  0  0  0  0  0  0  0  0  0
  141.0592   75.2807  218.9486 H   0  0  0  0  0  0  0  0  0  0  0  0
  140.1230   72.2844  222.3795 H   0  0  0  0  0  0  0  0  0  0  0  0
  140.7417   72.8205  226.2966 H   0  0  0  0  0  0  0  0  0  0  0  0
  141.6657   72.2074  228.5263 H   0  0  0  0  0  0  0  0  0  0  0  0
  141.4812   69.8589  229.3278 H   0  0  0  0  0  0  0  0  0  0  0  0
  140.3860   68.1408  227.9115 H   0  0  0  0  0  0  0  0  0  0  0  0
  1  2  2  0
  2  3  1  0
  3  4  1  0
  4  5  1  0
  5  6  2  0
  6  7  1  0
  7  8  2  0
  8  9  1  0
  9 10  1  0
 10 11  2  0
 10 12  1  0
 12 13  1  0
 13 14  1  0
 14 15  1  0
 15 16  1  0
 16 17  2  0
 17 18  1  0
 18 19  2  0
 19 20  1  0
 20 21  2  0
 15 22  1  0
 22 23  1  0
  9 24  2  0
  4 25  2  0
 25 26  1  0
 26 27  2  0
 27 28  1  0
 28 29  2  0
 29 30  1  0
 30 31  2  0
 31  2  1  0
 24  5  1  0
 31 26  1  0
 23 12  1  0
 21 16  1  0
  3 32  1  0
  3 33  1  0
  6 34  1  0
  7 35  1  0
  8 36  1  0
 13 37  1  0
 13 38  1  0
 14 39  1  0
 14 40  1  0
 17 41  1  0
 18 42  1  0
 19 43  1  0
 20 44  1  0
 22 45  1  0
 22 46  1  0
 23 47  1  0
 23 48  1  0
 24 49  1  0
 27 50  1  0
 28 51  1  0
 29 52  1  0
 30 53  1  0
M  END
>  <smiles>  (37) 
O=C1CC(c2cccc(C(=O)N3CCN(c4ccccn4)CC3)c2)=Nc2ccccc21

>  <score_type>  (37) 
oracle

>  <origin>  (37) 
autodockgpu

>  <m_score__min__energy>  (37) 
-9.1400000000000006

>  <m_primary>  (37) 
energy

>  <rmsd>  (37) 
3.777264589974978

>  <m_score__min__rmsd>  (37) 
3.777264589974978

>  <meeko>  (37) 
{"free_energy": -9.03, "intermolecular_energy": -9.92, "internal_energy": -0.93, "cluster_size": 49, "cluster_id": 1, "rank_in_cluster": 41}

>  <energy>  (37) 
-9.04

>  <cluster_rmsd>  (37) 
1.45

>  <cluster>  (37) 
1

$$$$

     RDKit          3D

 53 57  0  0  0  0  0  0  0  0999 V2000
  139.2020   67.6080  225.3080 O   0  0  0  0  0  0  0  0  0  0  0  0
  139.4750   68.8060  225.0660 C   0  0  0  0  0  0  0  0  0  0  0  0
  139.1940   69.3050  223.6940 C   0  0  0  0  0  0  0  0  0  0  0  0
  139.5680   70.7200  223.5660 C   0  0  0  0  0  0  0  0  0  0  0  0
  139.3700   71.3920  222.2760 C   0  0  0  0  0  0  0  0  0  0  0  0
  139.5940   70.7160  221.0820 C   0  0  0  0  0  0  0  0  0  0  0  0
  139.4120   71.3610  219.8700 C   0  0  0  0  0  0  0  0  0  0  0  0
  139.0100   72.6740  219.8870 C   0  0  0  0  0  0  0  0  0  0  0  0
  138.7730   73.3950  221.0370 C   0  0  0  0  0  0  0  0  0  0  0  0
  138.3480   74.7950  221.0220 C   0  0  0  0  0  0  0  0  0  0  0  0
  137.2390   75.0120  220.4190 O   0  0  0  0  0  0  0  0  0  0  0  0
  139.0800   75.8380  221.6140 N   0  0  0  0  0  0  0  0  0  0  0  0
  140.3250   75.6420  222.2990 C   0  0  0  0  0  0  0  0  0  0  0  0
  141.0700   76.8620  222.6740 C   0  0  0  0  0  0  0  0  0  0  0  0
  140.6520   78.0900  222.0860 N   0  0  0  0  0  0  0  0  0  0  0  0
  141.1820   79.3080  222.5900 C   0  0  0  0  0  0  0  0  0  0  0  0
  142.2520   79.2750  223.4490 C   0  0  0  0  0  0  0  0  0  0  0  0
  142.7570   80.4730  223.9380 C   0  0  0  0  0  0  0  0  0  0  0  0
  142.1670   81.6750  223.5470 C   0  0  0  0  0  0  0  0  0  0  0  0
  141.0900   81.6330  222.6770 C   0  0  0  0  0  0  0  0  0  0  0  0
  140.6120   80.4630  222.2100 N   0  0  0  0  0  0  0  0  0  0  0  0
  139.7000   78.0480  220.9910 C   0  0  0  0  0  0  0  0  0  0  0  0
  138.5430   77.1920  221.5240 C   0  0  0  0  0  0  0  0  0  0  0  0
  138.9660   72.7110  222.2350 C   0  0  0  0  0  0  0  0  0  0  0  0
  140.0680   71.3960  224.5440 N   0  0  0  0  0  0  0  0  0  0  0  0
  140.3320   70.9310  225.8370 C   0  0  0  0  0  0  0  0  0  0  0  0
  140.8730   71.7980  226.7610 C   0  0  0  0  0  0  0  0  0  0  0  0
  141.1320   71.3360  228.0320 C   0  0  0  0  0  0  0  0  0  0  0  0
  140.8480   70.0190  228.3540 C   0  0  0  0  0  0  0  0  0  0  0  0
  140.3030   69.1690  227.3950 C   0  0  0  0  0  0  0  0  0  0  0  0
  140.0350   69.6080  226.1240 C   0  0  0  0  0  0  0  0  0  0  0  0
  139.7718   68.7124  222.9695 H   0  0  0  0  0  0  0  0  0  0  0  0
  138.1163   69.2063  223.4971 H   0  0  0  0  0  0  0  0  0  0  0  0
  139.9171   69.6647  221.1000 H   0  0  0  0  0  0  0  0  0  0  0  0
  139.5848   70.8356  218.9192 H   0  0  0  0  0  0  0  0  0  0  0  0
  138.8683   73.1821  218.9217 H   0  0  0  0  0  0  0  0  0  0  0  0
  140.1141   75.0821  223.2221 H   0  0  0  0  0  0  0  0  0  0  0  0
  140.9718   75.1144  221.5825 H   0  0  0  0  0  0  0  0  0  0  0  0
  140.9913   76.9747  223.7654 H   0  0  0  0  0  0  0  0  0  0  0  0
  142.0887   76.6989  222.2924 H   0  0  0  0  0  0  0  0  0  0  0  0
  142.7020   78.3160  223.7452 H   0  0  0  0  0  0  0  0  0  0  0  0
  143.6143   80.4739  224.6272 H   0  0  0  0  0  0  0  0  0  0  0  0
  142.5490   82.6361  223.9217 H   0  0  0  0  0  0  0  0  0  0  0  0
  140.6154   82.5737  222.3610 H   0  0  0  0  0  0  0  0  0  0  0  0
  139.3513   79.0604  220.7392 H   0  0  0  0  0  0  0  0  0  0  0  0
  140.1378   77.6349  220.0703 H   0  0  0  0  0  0  0  0  0  0  0  0
  138.2246   77.5475  222.5151 H   0  0  0  0  0  0  0  0  0  0  0  0
  137.6594   77.2417  220.8708 H   0  0  0  0  0  0  0  0  0  0  0  0
  138.7901   73.2413  223.1825 H   0  0  0  0  0  0  0  0  0  0  0  0
  141.0940   72.8405  226.4883 H   0  0  0  0  0  0  0  0  0  0  0  0
  141.5623   72.0094  228.7879 H   0  0  0  0  0  0  0  0  0  0  0  0
  141.0531   69.6444  229.3677 H   0  0  0  0  0  0  0  0  0  0  0  0
  140.0832   68.1249  227.6624 H   0  0  0  0  0  0  0  0  0  0  0  0
  1  2  2  0
  2  3  1  0
  3  4  1  0
  4  5  1  0
  5  6  2  0
  6  7  1  0
  7  8  2  0
  8  9  1  0
  9 10  1  0
 10 11  2  0
 10 12  1  0
 12 13  1  0
 13 14  1  0
 14 15  1  0
 15 16  1  0
 16 17  2  0
 17 18  1  0
 18 19  2  0
 19 20  1  0
 20 21  2  0
 15 22  1  0
 22 23  1  0
  9 24  2  0
  4 25  2  0
 25 26  1  0
 26 27  2  0
 27 28  1  0
 28 29  2  0
 29 30  1  0
 30 31  2  0
 31  2  1  0
 24  5  1  0
 31 26  1  0
 23 12  1  0
 21 16  1  0
  3 32  1  0
  3 33  1  0
  6 34  1  0
  7 35  1  0
  8 36  1  0
 13 37  1  0
 13 38  1  0
 14 39  1  0
 14 40  1  0
 17 41  1  0
 18 42  1  0
 19 43  1  0
 20 44  1  0
 22 45  1  0
 22 46  1  0
 23 47  1  0
 23 48  1  0
 24 49  1  0
 27 50  1  0
 28 51  1  0
 29 52  1  0
 30 53  1  0
M  END
>  <smiles>  (38) 
O=C1CC(c2cccc(C(=O)N3CCN(c4ccccn4)CC3)c2)=Nc2ccccc21

>  <score_type>  (38) 
oracle

>  <origin>  (38) 
autodockgpu

>  <m_score__min__energy>  (38) 
-9.1400000000000006

>  <m_primary>  (38) 
energy

>  <rmsd>  (38) 
4.689899455702244

>  <m_score__min__rmsd>  (38) 
4.689899455702244

>  <meeko>  (38) 
{"free_energy": -9.09, "intermolecular_energy": -9.99, "internal_energy": -0.92, "cluster_size": 49, "cluster_id": 1, "rank_in_cluster": 28}

>  <energy>  (38) 
-9.04

>  <cluster_rmsd>  (38) 
1.48

>  <cluster>  (38) 
1

$$$$

     RDKit          3D

 53 57  0  0  0  0  0  0  0  0999 V2000
  139.2060   67.5280  225.2890 O   0  0  0  0  0  0  0  0  0  0  0  0
  139.4360   68.7400  225.0690 C   0  0  0  0  0  0  0  0  0  0  0  0
  139.0990   69.2610  223.7190 C   0  0  0  0  0  0  0  0  0  0  0  0
  139.4250   70.6900  223.6140 C   0  0  0  0  0  0  0  0  0  0  0  0
  139.1690   71.3850  222.3470 C   0  0  0  0  0  0  0  0  0  0  0  0
  139.3270   70.7290  221.1320 C   0  0  0  0  0  0  0  0  0  0  0  0
  139.0900   71.3960  219.9420 C   0  0  0  0  0  0  0  0  0  0  0  0
  138.6990   72.7120  220.0010 C   0  0  0  0  0  0  0  0  0  0  0  0
  138.5250   73.4140  221.1740 C   0  0  0  0  0  0  0  0  0  0  0  0
  138.1100   74.8160  221.2040 C   0  0  0  0  0  0  0  0  0  0  0  0
  136.9610   75.0470  220.6890 O   0  0  0  0  0  0  0  0  0  0  0  0
  138.8930   75.8490  221.7480 N   0  0  0  0  0  0  0  0  0  0  0  0
  140.1850   75.6380  222.3340 C   0  0  0  0  0  0  0  0  0  0  0  0
  140.9660   76.8490  222.6630 C   0  0  0  0  0  0  0  0  0  0  0  0
  140.5120   78.0860  222.1190 N   0  0  0  0  0  0  0  0  0  0  0  0
  141.0880   79.2950  222.5930 C   0  0  0  0  0  0  0  0  0  0  0  0
  142.2070   79.2460  223.3870 C   0  0  0  0  0  0  0  0  0  0  0  0
  142.7560   80.4350  223.8470 C   0  0  0  0  0  0  0  0  0  0  0  0
  142.1610   81.6470  223.4930 C   0  0  0  0  0  0  0  0  0  0  0  0
  141.0340   81.6210  222.6880 C   0  0  0  0  0  0  0  0  0  0  0  0
  140.5130   80.4590  222.2490 N   0  0  0  0  0  0  0  0  0  0  0  0
  139.4800   78.0610  221.1000 C   0  0  0  0  0  0  0  0  0  0  0  0
  138.3610   77.2070  221.7110 C   0  0  0  0  0  0  0  0  0  0  0  0
  138.7730   72.7070  222.3480 C   0  0  0  0  0  0  0  0  0  0  0  0
  139.9340   71.3580  224.5930 N   0  0  0  0  0  0  0  0  0  0  0  0
  140.2500   70.8710  225.8660 C   0  0  0  0  0  0  0  0  0  0  0  0
  140.7920   71.7320  226.7950 C   0  0  0  0  0  0  0  0  0  0  0  0
  141.1040   71.2490  228.0460 C   0  0  0  0  0  0  0  0  0  0  0  0
  140.8700   69.9170  228.3440 C   0  0  0  0  0  0  0  0  0  0  0  0
  140.3220   69.0730  227.3810 C   0  0  0  0  0  0  0  0  0  0  0  0
  140.0030   69.5330  226.1300 C   0  0  0  0  0  0  0  0  0  0  0  0
  139.6730   68.7039  222.9639 H   0  0  0  0  0  0  0  0  0  0  0  0
  138.0195   69.1327  223.5513 H   0  0  0  0  0  0  0  0  0  0  0  0
  139.6417   69.6751  221.1157 H   0  0  0  0  0  0  0  0  0  0  0  0
  139.2115   70.8859  218.9750 H   0  0  0  0  0  0  0  0  0  0  0  0
  138.5133   73.2379  219.0529 H   0  0  0  0  0  0  0  0  0  0  0  0
  140.0409   75.0702  223.2650 H   0  0  0  0  0  0  0  0  0  0  0  0
  140.7712   75.1137  221.5649 H   0  0  0  0  0  0  0  0  0  0  0  0
  140.9715   76.9515  223.7582 H   0  0  0  0  0  0  0  0  0  0  0  0
  141.9520   76.6831  222.2045 H   0  0  0  0  0  0  0  0  0  0  0  0
  142.6610   78.2804  223.6542 H   0  0  0  0  0  0  0  0  0  0  0  0
  143.6521   80.4222  224.4849 H   0  0  0  0  0  0  0  0  0  0  0  0
  142.5779   82.6019  223.8456 H   0  0  0  0  0  0  0  0  0  0  0  0
  140.5547   82.5687  222.4014 H   0  0  0  0  0  0  0  0  0  0  0  0
  139.1203   79.0781  220.8853 H   0  0  0  0  0  0  0  0  0  0  0  0
  139.8437   77.6545  220.1448 H   0  0  0  0  0  0  0  0  0  0  0  0
  138.1209   77.5550  222.7265 H   0  0  0  0  0  0  0  0  0  0  0  0
  137.4312   77.2685  221.1265 H   0  0  0  0  0  0  0  0  0  0  0  0
  138.6486   73.2216  223.3122 H   0  0  0  0  0  0  0  0  0  0  0  0
  140.9724   72.7871  226.5416 H   0  0  0  0  0  0  0  0  0  0  0  0
  141.5368   71.9176  228.8047 H   0  0  0  0  0  0  0  0  0  0  0  0
  141.1170   69.5253  229.3418 H   0  0  0  0  0  0  0  0  0  0  0  0
  140.1418   68.0167  227.6294 H   0  0  0  0  0  0  0  0  0  0  0  0
  1  2  2  0
  2  3  1  0
  3  4  1  0
  4  5  1  0
  5  6  2  0
  6  7  1  0
  7  8  2  0
  8  9  1  0
  9 10  1  0
 10 11  2  0
 10 12  1  0
 12 13  1  0
 13 14  1  0
 14 15  1  0
 15 16  1  0
 16 17  2  0
 17 18  1  0
 18 19  2  0
 19 20  1  0
 20 21  2  0
 15 22  1  0
 22 23  1  0
  9 24  2  0
  4 25  2  0
 25 26  1  0
 26 27  2  0
 27 28  1  0
 28 29  2  0
 29 30  1  0
 30 31  2  0
 31  2  1  0
 24  5  1  0
 31 26  1  0
 23 12  1  0
 21 16  1  0
  3 32  1  0
  3 33  1  0
  6 34  1  0
  7 35  1  0
  8 36  1  0
 13 37  1  0
 13 38  1  0
 14 39  1  0
 14 40  1  0
 17 41  1  0
 18 42  1  0
 19 43  1  0
 20 44  1  0
 22 45  1  0
 22 46  1  0
 23 47  1  0
 23 48  1  0
 24 49  1  0
 27 50  1  0
 28 51  1  0
 29 52  1  0
 30 53  1  0
M  END
>  <smiles>  (39) 
O=C1CC(c2cccc(C(=O)N3CCN(c4ccccn4)CC3)c2)=Nc2ccccc21

>  <score_type>  (39) 
oracle

>  <origin>  (39) 
autodockgpu

>  <m_score__min__energy>  (39) 
-9.1400000000000006

>  <m_primary>  (39) 
energy

>  <rmsd>  (39) 
4.665056447319666

>  <m_score__min__rmsd>  (39) 
4.665056447319666

>  <meeko>  (39) 
{"free_energy": -9.14, "intermolecular_energy": -10.03, "internal_energy": -0.92, "cluster_size": 49, "cluster_id": 1, "rank_in_cluster": 3}

>  <energy>  (39) 
-9.04

>  <cluster_rmsd>  (39) 
1.5

>  <cluster>  (39) 
1

$$$$

     RDKit          3D

 53 57  0  0  0  0  0  0  0  0999 V2000
  139.1930   67.4990  225.2450 O   0  0  0  0  0  0  0  0  0  0  0  0
  139.4300   68.7110  225.0360 C   0  0  0  0  0  0  0  0  0  0  0  0
  139.1120   69.2440  223.6860 C   0  0  0  0  0  0  0  0  0  0  0  0
  139.4440   70.6720  223.5960 C   0  0  0  0  0  0  0  0  0  0  0  0
  139.2060   71.3780  222.3310 C   0  0  0  0  0  0  0  0  0  0  0  0
  139.3880   70.7330  221.1130 C   0  0  0  0  0  0  0  0  0  0  0  0
  139.1680   71.4100  219.9250 C   0  0  0  0  0  0  0  0  0  0  0  0
  138.7700   72.7230  219.9900 C   0  0  0  0  0  0  0  0  0  0  0  0
  138.5740   73.4140  221.1660 C   0  0  0  0  0  0  0  0  0  0  0  0
  138.1530   74.8150  221.2010 C   0  0  0  0  0  0  0  0  0  0  0  0
  136.9980   75.0400  220.6970 O   0  0  0  0  0  0  0  0  0  0  0  0
  138.9360   75.8500  221.7390 N   0  0  0  0  0  0  0  0  0  0  0  0
  140.2350   75.6440  222.3140 C   0  0  0  0  0  0  0  0  0  0  0  0
  141.0120   76.8590  222.6360 C   0  0  0  0  0  0  0  0  0  0  0  0
  140.5490   78.0940  222.0980 N   0  0  0  0  0  0  0  0  0  0  0  0
  141.1230   79.3050  222.5680 C   0  0  0  0  0  0  0  0  0  0  0  0
  142.2220   79.2590  223.3900 C   0  0  0  0  0  0  0  0  0  0  0  0
  142.7710   80.4500  223.8460 C   0  0  0  0  0  0  0  0  0  0  0  0
  142.1950   81.6610  223.4600 C   0  0  0  0  0  0  0  0  0  0  0  0
  141.0860   81.6320  222.6280 C   0  0  0  0  0  0  0  0  0  0  0  0
  140.5660   80.4680  222.1940 N   0  0  0  0  0  0  0  0  0  0  0  0
  139.5070   78.0650  221.0890 C   0  0  0  0  0  0  0  0  0  0  0  0
  138.3970   77.2050  221.7090 C   0  0  0  0  0  0  0  0  0  0  0  0
  138.8050   72.6980  222.3380 C   0  0  0  0  0  0  0  0  0  0  0  0
  139.9440   71.3300  224.5860 N   0  0  0  0  0  0  0  0  0  0  0  0
  140.2430   70.8330  225.8590 C   0  0  0  0  0  0  0  0  0  0  0  0
  140.7760   71.6850  226.8010 C   0  0  0  0  0  0  0  0  0  0  0  0
  141.0710   71.1920  228.0520 C   0  0  0  0  0  0  0  0  0  0  0  0
  140.8270   69.8580  228.3370 C   0  0  0  0  0  0  0  0  0  0  0  0
  140.2880   69.0240  227.3610 C   0  0  0  0  0  0  0  0  0  0  0  0
  139.9870   69.4940  226.1100 C   0  0  0  0  0  0  0  0  0  0  0  0
  139.6936   68.6907  222.9339 H   0  0  0  0  0  0  0  0  0  0  0  0
  138.0341   69.1211  223.5040 H   0  0  0  0  0  0  0  0  0  0  0  0
  139.7080   69.6808  221.0928 H   0  0  0  0  0  0  0  0  0  0  0  0
  139.3082   70.9097  218.9555 H   0  0  0  0  0  0  0  0  0  0  0  0
  138.5968   73.2565  219.0438 H   0  0  0  0  0  0  0  0  0  0  0  0
  140.1019   75.0753  223.2461 H   0  0  0  0  0  0  0  0  0  0  0  0
  140.8171   75.1218  221.5404 H   0  0  0  0  0  0  0  0  0  0  0  0
  141.0267   76.9608  223.7312 H   0  0  0  0  0  0  0  0  0  0  0  0
  141.9939   76.6979  222.1670 H   0  0  0  0  0  0  0  0  0  0  0  0
  142.6606   78.2936  223.6827 H   0  0  0  0  0  0  0  0  0  0  0  0
  143.6515   80.4391  224.5052 H   0  0  0  0  0  0  0  0  0  0  0  0
  142.6116   82.6177  223.8081 H   0  0  0  0  0  0  0  0  0  0  0  0
  140.6215   82.5791  222.3161 H   0  0  0  0  0  0  0  0  0  0  0  0
  139.1406   79.0807  220.8789 H   0  0  0  0  0  0  0  0  0  0  0  0
  139.8637   77.6607  220.1302 H   0  0  0  0  0  0  0  0  0  0  0  0
  138.1644   77.5504  222.7271 H   0  0  0  0  0  0  0  0  0  0  0  0
  137.4614   77.2631  221.1334 H   0  0  0  0  0  0  0  0  0  0  0  0
  138.6625   73.2034  223.3046 H   0  0  0  0  0  0  0  0  0  0  0  0
  140.9628   72.7414  226.5578 H   0  0  0  0  0  0  0  0  0  0  0  0
  141.4978   71.8530  228.8207 H   0  0  0  0  0  0  0  0  0  0  0  0
  141.0593   69.4577  229.3349 H   0  0  0  0  0  0  0  0  0  0  0  0
  140.1001   67.9667  227.5992 H   0  0  0  0  0  0  0  0  0  0  0  0
  1  2  2  0
  2  3  1  0
  3  4  1  0
  4  5  1  0
  5  6  2  0
  6  7  1  0
  7  8  2  0
  8  9  1  0
  9 10  1  0
 10 11  2  0
 10 12  1  0
 12 13  1  0
 13 14  1  0
 14 15  1  0
 15 16  1  0
 16 17  2  0
 17 18  1  0
 18 19  2  0
 19 20  1  0
 20 21  2  0
 15 22  1  0
 22 23  1  0
  9 24  2  0
  4 25  2  0
 25 26  1  0
 26 27  2  0
 27 28  1  0
 28 29  2  0
 29 30  1  0
 30 31  2  0
 31  2  1  0
 24  5  1  0
 31 26  1  0
 23 12  1  0
 21 16  1  0
  3 32  1  0
  3 33  1  0
  6 34  1  0
  7 35  1  0
  8 36  1  0
 13 37  1  0
 13 38  1  0
 14 39  1  0
 14 40  1  0
 17 41  1  0
 18 42  1  0
 19 43  1  0
 20 44  1  0
 22 45  1  0
 22 46  1  0
 23 47  1  0
 23 48  1  0
 24 49  1  0
 27 50  1  0
 28 51  1  0
 29 52  1  0
 30 53  1  0
M  END
>  <smiles>  (40) 
O=C1CC(c2cccc(C(=O)N3CCN(c4ccccn4)CC3)c2)=Nc2ccccc21

>  <score_type>  (40) 
oracle

>  <origin>  (40) 
autodockgpu

>  <m_score__min__energy>  (40) 
-9.1400000000000006

>  <m_primary>  (40) 
energy

>  <rmsd>  (40) 
4.673532986885914

>  <m_score__min__rmsd>  (40) 
4.673532986885914

>  <meeko>  (40) 
{"free_energy": -9.14, "intermolecular_energy": -10.04, "internal_energy": -0.92, "cluster_size": 49, "cluster_id": 1, "rank_in_cluster": 1}

>  <energy>  (40) 
-9.03

>  <cluster_rmsd>  (40) 
1.33

>  <cluster>  (40) 
1

$$$$

     RDKit          3D

 53 57  0  0  0  0  0  0  0  0999 V2000
  139.1880   67.4490  225.2190 O   0  0  0  0  0  0  0  0  0  0  0  0
  139.4270   68.6620  225.0210 C   0  0  0  0  0  0  0  0  0  0  0  0
  139.1130   69.2060  223.6740 C   0  0  0  0  0  0  0  0  0  0  0  0
  139.4480   70.6350  223.5960 C   0  0  0  0  0  0  0  0  0  0  0  0
  139.2140   71.3510  222.3360 C   0  0  0  0  0  0  0  0  0  0  0  0
  139.4080   70.7180  221.1130 C   0  0  0  0  0  0  0  0  0  0  0  0
  139.1920   71.4050  219.9300 C   0  0  0  0  0  0  0  0  0  0  0  0
  138.7860   72.7150  220.0050 C   0  0  0  0  0  0  0  0  0  0  0  0
  138.5770   73.3940  221.1860 C   0  0  0  0  0  0  0  0  0  0  0  0
  138.1480   74.7920  221.2320 C   0  0  0  0  0  0  0  0  0  0  0  0
  136.9850   75.0110  220.7410 O   0  0  0  0  0  0  0  0  0  0  0  0
  138.9290   75.8300  221.7650 N   0  0  0  0  0  0  0  0  0  0  0  0
  140.2360   75.6310  222.3230 C   0  0  0  0  0  0  0  0  0  0  0  0
  141.0090   76.8500  222.6420 C   0  0  0  0  0  0  0  0  0  0  0  0
  140.5310   78.0830  222.1140 N   0  0  0  0  0  0  0  0  0  0  0  0
  141.1030   79.2970  222.5820 C   0  0  0  0  0  0  0  0  0  0  0  0
  142.2000   79.2540  223.4060 C   0  0  0  0  0  0  0  0  0  0  0  0
  142.7460   80.4480  223.8600 C   0  0  0  0  0  0  0  0  0  0  0  0
  142.1680   81.6570  223.4700 C   0  0  0  0  0  0  0  0  0  0  0  0
  141.0620   81.6240  222.6370 C   0  0  0  0  0  0  0  0  0  0  0  0
  140.5440   80.4580  222.2040 N   0  0  0  0  0  0  0  0  0  0  0  0
  139.4780   78.0520  221.1160 C   0  0  0  0  0  0  0  0  0  0  0  0
  138.3810   77.1820  221.7460 C   0  0  0  0  0  0  0  0  0  0  0  0
  138.8050   72.6680  222.3520 C   0  0  0  0  0  0  0  0  0  0  0  0
  139.9460   71.2840  224.5930 N   0  0  0  0  0  0  0  0  0  0  0  0
  140.2400   70.7760  225.8620 C   0  0  0  0  0  0  0  0  0  0  0  0
  140.7730   71.6210  226.8130 C   0  0  0  0  0  0  0  0  0  0  0  0
  141.0640   71.1160  228.0610 C   0  0  0  0  0  0  0  0  0  0  0  0
  140.8170   69.7810  228.3350 C   0  0  0  0  0  0  0  0  0  0  0  0
  140.2800   68.9550  227.3510 C   0  0  0  0  0  0  0  0  0  0  0  0
  139.9820   69.4360  226.1020 C   0  0  0  0  0  0  0  0  0  0  0  0
  139.6954   68.6575  222.9190 H   0  0  0  0  0  0  0  0  0  0  0  0
  138.0354   69.0863  223.4883 H   0  0  0  0  0  0  0  0  0  0  0  0
  139.7342   69.6679  221.0852 H   0  0  0  0  0  0  0  0  0  0  0  0
  139.3415   70.9148  218.9567 H   0  0  0  0  0  0  0  0  0  0  0  0
  138.6169   73.2566  219.0626 H   0  0  0  0  0  0  0  0  0  0  0  0
  140.1182   75.0567  223.2538 H   0  0  0  0  0  0  0  0  0  0  0  0
  140.8122   75.1173  221.5394 H   0  0  0  0  0  0  0  0  0  0  0  0
  141.0351   76.9475  223.7374 H   0  0  0  0  0  0  0  0  0  0  0  0
  141.9872   76.6977  222.1626 H   0  0  0  0  0  0  0  0  0  0  0  0
  142.6395   78.2900  223.7020 H   0  0  0  0  0  0  0  0  0  0  0  0
  143.6255   80.4406  224.5206 H   0  0  0  0  0  0  0  0  0  0  0  0
  142.5819   82.6154  223.8167 H   0  0  0  0  0  0  0  0  0  0  0  0
  140.5966   82.5697  222.3223 H   0  0  0  0  0  0  0  0  0  0  0  0
  139.1028   79.0662  220.9143 H   0  0  0  0  0  0  0  0  0  0  0  0
  139.8261   77.6547  220.1511 H   0  0  0  0  0  0  0  0  0  0  0  0
  138.1581   77.5223  222.7680 H   0  0  0  0  0  0  0  0  0  0  0  0
  137.4385   77.2358  221.1813 H   0  0  0  0  0  0  0  0  0  0  0  0
  138.6532   73.1634  223.3223 H   0  0  0  0  0  0  0  0  0  0  0  0
  140.9622   72.6790  226.5790 H   0  0  0  0  0  0  0  0  0  0  0  0
  141.4904   71.7697  228.8362 H   0  0  0  0  0  0  0  0  0  0  0  0
  141.0452   69.3729  229.3307 H   0  0  0  0  0  0  0  0  0  0  0  0
  140.0911   67.8958  227.5801 H   0  0  0  0  0  0  0  0  0  0  0  0
  1  2  2  0
  2  3  1  0
  3  4  1  0
  4  5  1  0
  5  6  2  0
  6  7  1  0
  7  8  2  0
  8  9  1  0
  9 10  1  0
 10 11  2  0
 10 12  1  0
 12 13  1  0
 13 14  1  0
 14 15  1  0
 15 16  1  0
 16 17  2  0
 17 18  1  0
 18 19  2  0
 19 20  1  0
 20 21  2  0
 15 22  1  0
 22 23  1  0
  9 24  2  0
  4 25  2  0
 25 26  1  0
 26 27  2  0
 27 28  1  0
 28 29  2  0
 29 30  1  0
 30 31  2  0
 31  2  1  0
 24  5  1  0
 31 26  1  0
 23 12  1  0
 21 16  1  0
  3 32  1  0
  3 33  1  0
  6 34  1  0
  7 35  1  0
  8 36  1  0
 13 37  1  0
 13 38  1  0
 14 39  1  0
 14 40  1  0
 17 41  1  0
 18 42  1  0
 19 43  1  0
 20 44  1  0
 22 45  1  0
 22 46  1  0
 23 47  1  0
 23 48  1  0
 24 49  1  0
 27 50  1  0
 28 51  1  0
 29 52  1  0
 30 53  1  0
M  END
>  <smiles>  (41) 
O=C1CC(c2cccc(C(=O)N3CCN(c4ccccn4)CC3)c2)=Nc2ccccc21

>  <score_type>  (41) 
oracle

>  <origin>  (41) 
autodockgpu

>  <m_score__min__energy>  (41) 
-9.1400000000000006

>  <m_primary>  (41) 
energy

>  <rmsd>  (41) 
4.67350944265309

>  <m_score__min__rmsd>  (41) 
4.67350944265309

>  <meeko>  (41) 
{"free_energy": -9.13, "intermolecular_energy": -10.03, "internal_energy": -0.92, "cluster_size": 49, "cluster_id": 1, "rank_in_cluster": 15}

>  <energy>  (41) 
-9.03

>  <cluster_rmsd>  (41) 
1.49

>  <cluster>  (41) 
1

$$$$

     RDKit          3D

 53 57  0  0  0  0  0  0  0  0999 V2000
  139.2010   67.4830  225.2330 O   0  0  0  0  0  0  0  0  0  0  0  0
  139.4380   68.6960  225.0320 C   0  0  0  0  0  0  0  0  0  0  0  0
  139.1200   69.2370  223.6850 C   0  0  0  0  0  0  0  0  0  0  0  0
  139.4520   70.6660  223.6040 C   0  0  0  0  0  0  0  0  0  0  0  0
  139.2150   71.3800  222.3430 C   0  0  0  0  0  0  0  0  0  0  0  0
  139.4010   70.7440  221.1210 C   0  0  0  0  0  0  0  0  0  0  0  0
  139.1810   71.4280  219.9370 C   0  0  0  0  0  0  0  0  0  0  0  0
  138.7790   72.7390  220.0100 C   0  0  0  0  0  0  0  0  0  0  0  0
  138.5780   73.4220  221.1900 C   0  0  0  0  0  0  0  0  0  0  0  0
  138.1520   74.8210  221.2350 C   0  0  0  0  0  0  0  0  0  0  0  0
  136.9920   75.0440  220.7410 O   0  0  0  0  0  0  0  0  0  0  0  0
  138.9360   75.8570  221.7700 N   0  0  0  0  0  0  0  0  0  0  0  0
  140.2400   75.6540  222.3330 C   0  0  0  0  0  0  0  0  0  0  0  0
  141.0160   76.8700  222.6530 C   0  0  0  0  0  0  0  0  0  0  0  0
  140.5440   78.1050  222.1240 N   0  0  0  0  0  0  0  0  0  0  0  0
  141.1180   79.3170  222.5930 C   0  0  0  0  0  0  0  0  0  0  0  0
  142.2230   79.2710  223.4060 C   0  0  0  0  0  0  0  0  0  0  0  0
  142.7710   80.4630  223.8620 C   0  0  0  0  0  0  0  0  0  0  0  0
  142.1880   81.6740  223.4850 C   0  0  0  0  0  0  0  0  0  0  0  0
  141.0740   81.6440  222.6610 C   0  0  0  0  0  0  0  0  0  0  0  0
  140.5540   80.4790  222.2270 N   0  0  0  0  0  0  0  0  0  0  0  0
  139.4940   78.0770  221.1230 C   0  0  0  0  0  0  0  0  0  0  0  0
  138.3920   77.2110  221.7500 C   0  0  0  0  0  0  0  0  0  0  0  0
  138.8090   72.6980  222.3580 C   0  0  0  0  0  0  0  0  0  0  0  0
  139.9520   71.3190  224.5980 N   0  0  0  0  0  0  0  0  0  0  0  0
  140.2500   70.8130  225.8680 C   0  0  0  0  0  0  0  0  0  0  0  0
  140.7840   71.6600  226.8150 C   0  0  0  0  0  0  0  0  0  0  0  0
  141.0780   71.1580  228.0640 C   0  0  0  0  0  0  0  0  0  0  0  0
  140.8350   69.8230  228.3410 C   0  0  0  0  0  0  0  0  0  0  0  0
  140.2960   68.9950  227.3590 C   0  0  0  0  0  0  0  0  0  0  0  0
  139.9950   69.4730  226.1110 C   0  0  0  0  0  0  0  0  0  0  0  0
  139.7018   68.6884  222.9296 H   0  0  0  0  0  0  0  0  0  0  0  0
  138.0422   69.1149  223.5018 H   0  0  0  0  0  0  0  0  0  0  0  0
  139.7243   69.6929  221.0943 H   0  0  0  0  0  0  0  0  0  0  0  0
  139.3244   70.9344  218.9645 H   0  0  0  0  0  0  0  0  0  0  0  0
  138.6065   73.2782  219.0669 H   0  0  0  0  0  0  0  0  0  0  0  0
  140.1167   75.0815  223.2641 H   0  0  0  0  0  0  0  0  0  0  0  0
  140.8172   75.1371  221.5522 H   0  0  0  0  0  0  0  0  0  0  0  0
  141.0401   76.9676  223.7484 H   0  0  0  0  0  0  0  0  0  0  0  0
  141.9944   76.7141  222.1751 H   0  0  0  0  0  0  0  0  0  0  0  0
  142.6672   78.3061  223.6917 H   0  0  0  0  0  0  0  0  0  0  0  0
  143.6566   80.4528  224.5144 H   0  0  0  0  0  0  0  0  0  0  0  0
  142.6035   82.6308  223.8341 H   0  0  0  0  0  0  0  0  0  0  0  0
  140.6047   82.5906  222.3550 H   0  0  0  0  0  0  0  0  0  0  0  0
  139.1228   79.0923  220.9197 H   0  0  0  0  0  0  0  0  0  0  0  0
  139.8437   77.6779  220.1594 H   0  0  0  0  0  0  0  0  0  0  0  0
  138.1675   77.5519  222.7715 H   0  0  0  0  0  0  0  0  0  0  0  0
  137.4510   77.2682  221.1832 H   0  0  0  0  0  0  0  0  0  0  0  0
  138.6621   73.1960  223.3277 H   0  0  0  0  0  0  0  0  0  0  0  0
  140.9721   72.7176  226.5780 H   0  0  0  0  0  0  0  0  0  0  0  0
  141.5036   71.8143  228.8373 H   0  0  0  0  0  0  0  0  0  0  0  0
  141.0676   69.4165  229.3363 H   0  0  0  0  0  0  0  0  0  0  0  0
  140.1083   67.9361  227.5903 H   0  0  0  0  0  0  0  0  0  0  0  0
  1  2  2  0
  2  3  1  0
  3  4  1  0
  4  5  1  0
  5  6  2  0
  6  7  1  0
  7  8  2  0
  8  9  1  0
  9 10  1  0
 10 11  2  0
 10 12  1  0
 12 13  1  0
 13 14  1  0
 14 15  1  0
 15 16  1  0
 16 17  2  0
 17 18  1  0
 18 19  2  0
 19 20  1  0
 20 21  2  0
 15 22  1  0
 22 23  1  0
  9 24  2  0
  4 25  2  0
 25 26  1  0
 26 27  2  0
 27 28  1  0
 28 29  2  0
 29 30  1  0
 30 31  2  0
 31  2  1  0
 24  5  1  0
 31 26  1  0
 23 12  1  0
 21 16  1  0
  3 32  1  0
  3 33  1  0
  6 34  1  0
  7 35  1  0
  8 36  1  0
 13 37  1  0
 13 38  1  0
 14 39  1  0
 14 40  1  0
 17 41  1  0
 18 42  1  0
 19 43  1  0
 20 44  1  0
 22 45  1  0
 22 46  1  0
 23 47  1  0
 23 48  1  0
 24 49  1  0
 27 50  1  0
 28 51  1  0
 29 52  1  0
 30 53  1  0
M  END
>  <smiles>  (42) 
O=C1CC(c2cccc(C(=O)N3CCN(c4ccccn4)CC3)c2)=Nc2ccccc21

>  <score_type>  (42) 
oracle

>  <origin>  (42) 
autodockgpu

>  <m_score__min__energy>  (42) 
-9.1400000000000006

>  <m_primary>  (42) 
energy

>  <rmsd>  (42) 
4.685799643269263

>  <m_score__min__rmsd>  (42) 
4.685799643269263

>  <meeko>  (42) 
{"free_energy": -9.14, "intermolecular_energy": -10.03, "internal_energy": -0.92, "cluster_size": 49, "cluster_id": 1, "rank_in_cluster": 5}

>  <energy>  (42) 
-9.03

>  <cluster_rmsd>  (42) 
1.5

>  <cluster>  (42) 
1

$$$$

     RDKit          3D

 53 57  0  0  0  0  0  0  0  0999 V2000
  139.2000   67.4380  225.2040 O   0  0  0  0  0  0  0  0  0  0  0  0
  139.4400   68.6520  225.0120 C   0  0  0  0  0  0  0  0  0  0  0  0
  139.1320   69.2010  223.6650 C   0  0  0  0  0  0  0  0  0  0  0  0
  139.4680   70.6300  223.5950 C   0  0  0  0  0  0  0  0  0  0  0  0
  139.2400   71.3510  222.3360 C   0  0  0  0  0  0  0  0  0  0  0  0
  139.4440   70.7250  221.1120 C   0  0  0  0  0  0  0  0  0  0  0  0
  139.2330   71.4160  219.9310 C   0  0  0  0  0  0  0  0  0  0  0  0
  138.8230   72.7250  220.0080 C   0  0  0  0  0  0  0  0  0  0  0  0
  138.6060   73.3980  221.1910 C   0  0  0  0  0  0  0  0  0  0  0  0
  138.1720   74.7940  221.2400 C   0  0  0  0  0  0  0  0  0  0  0  0
  137.0050   75.0110  220.7600 O   0  0  0  0  0  0  0  0  0  0  0  0
  138.9550   75.8350  221.7660 N   0  0  0  0  0  0  0  0  0  0  0  0
  140.2670   75.6400  222.3140 C   0  0  0  0  0  0  0  0  0  0  0  0
  141.0390   76.8610  222.6260 C   0  0  0  0  0  0  0  0  0  0  0  0
  140.5530   78.0930  222.1020 N   0  0  0  0  0  0  0  0  0  0  0  0
  141.1250   79.3090  222.5650 C   0  0  0  0  0  0  0  0  0  0  0  0
  142.2160   79.2690  223.3970 C   0  0  0  0  0  0  0  0  0  0  0  0
  142.7620   80.4640  223.8460 C   0  0  0  0  0  0  0  0  0  0  0  0
  142.1920   81.6720  223.4430 C   0  0  0  0  0  0  0  0  0  0  0  0
  141.0920   81.6360  222.6000 C   0  0  0  0  0  0  0  0  0  0  0  0
  140.5740   80.4690  222.1730 N   0  0  0  0  0  0  0  0  0  0  0  0
  139.4920   78.0580  221.1130 C   0  0  0  0  0  0  0  0  0  0  0  0
  138.4030   77.1860  221.7520 C   0  0  0  0  0  0  0  0  0  0  0  0
  138.8280   72.6680  222.3560 C   0  0  0  0  0  0  0  0  0  0  0  0
  139.9610   71.2760  224.5960 N   0  0  0  0  0  0  0  0  0  0  0  0
  140.2500   70.7630  225.8650 C   0  0  0  0  0  0  0  0  0  0  0  0
  140.7770   71.6040  226.8220 C   0  0  0  0  0  0  0  0  0  0  0  0
  141.0620   71.0950  228.0690 C   0  0  0  0  0  0  0  0  0  0  0  0
  140.8150   69.7590  228.3370 C   0  0  0  0  0  0  0  0  0  0  0  0
  140.2820   68.9370  227.3470 C   0  0  0  0  0  0  0  0  0  0  0  0
  139.9900   69.4220  226.0990 C   0  0  0  0  0  0  0  0  0  0  0  0
  139.7177   68.6554  222.9105 H   0  0  0  0  0  0  0  0  0  0  0  0
  138.0554   69.0819  223.4732 H   0  0  0  0  0  0  0  0  0  0  0  0
  139.7744   69.6762  221.0815 H   0  0  0  0  0  0  0  0  0  0  0  0
  139.3895   70.9298  218.9568 H   0  0  0  0  0  0  0  0  0  0  0  0
  138.6576   73.2699  219.0668 H   0  0  0  0  0  0  0  0  0  0  0  0
  140.1581   75.0661  223.2461 H   0  0  0  0  0  0  0  0  0  0  0  0
  140.8385   75.1274  221.5262 H   0  0  0  0  0  0  0  0  0  0  0  0
  141.0743   76.9587  223.7211 H   0  0  0  0  0  0  0  0  0  0  0  0
  142.0134   76.7114  222.1379 H   0  0  0  0  0  0  0  0  0  0  0  0
  142.6506   78.3060  223.7030 H   0  0  0  0  0  0  0  0  0  0  0  0
  143.6362   80.4584  224.5136 H   0  0  0  0  0  0  0  0  0  0  0  0
  142.6061   82.6315  223.7864 H   0  0  0  0  0  0  0  0  0  0  0  0
  140.6328   82.5807  222.2732 H   0  0  0  0  0  0  0  0  0  0  0  0
  139.1123   79.0709  220.9135 H   0  0  0  0  0  0  0  0  0  0  0  0
  139.8334   77.6606  220.1458 H   0  0  0  0  0  0  0  0  0  0  0  0
  138.1881   77.5257  222.7759 H   0  0  0  0  0  0  0  0  0  0  0  0
  137.4555   77.2376  221.1957 H   0  0  0  0  0  0  0  0  0  0  0  0
  138.6692   73.1590  223.3275 H   0  0  0  0  0  0  0  0  0  0  0  0
  140.9664   72.6631  226.5932 H   0  0  0  0  0  0  0  0  0  0  0  0
  141.4838   71.7463  228.8486 H   0  0  0  0  0  0  0  0  0  0  0  0
  141.0398   69.3470  229.3318 H   0  0  0  0  0  0  0  0  0  0  0  0
  140.0916   67.8771  227.5714 H   0  0  0  0  0  0  0  0  0  0  0  0
  1  2  2  0
  2  3  1  0
  3  4  1  0
  4  5  1  0
  5  6  2  0
  6  7  1  0
  7  8  2  0
  8  9  1  0
  9 10  1  0
 10 11  2  0
 10 12  1  0
 12 13  1  0
 13 14  1  0
 14 15  1  0
 15 16  1  0
 16 17  2  0
 17 18  1  0
 18 19  2  0
 19 20  1  0
 20 21  2  0
 15 22  1  0
 22 23  1  0
  9 24  2  0
  4 25  2  0
 25 26  1  0
 26 27  2  0
 27 28  1  0
 28 29  2  0
 29 30  1  0
 30 31  2  0
 31  2  1  0
 24  5  1  0
 31 26  1  0
 23 12  1  0
 21 16  1  0
  3 32  1  0
  3 33  1  0
  6 34  1  0
  7 35  1  0
  8 36  1  0
 13 37  1  0
 13 38  1  0
 14 39  1  0
 14 40  1  0
 17 41  1  0
 18 42  1  0
 19 43  1  0
 20 44  1  0
 22 45  1  0
 22 46  1  0
 23 47  1  0
 23 48  1  0
 24 49  1  0
 27 50  1  0
 28 51  1  0
 29 52  1  0
 30 53  1  0
M  END
>  <smiles>  (43) 
O=C1CC(c2cccc(C(=O)N3CCN(c4ccccn4)CC3)c2)=Nc2ccccc21

>  <score_type>  (43) 
oracle

>  <origin>  (43) 
autodockgpu

>  <m_score__min__energy>  (43) 
-9.1400000000000006

>  <m_primary>  (43) 
energy

>  <rmsd>  (43) 
4.67727376728907

>  <m_score__min__rmsd>  (43) 
4.67727376728907

>  <meeko>  (43) 
{"free_energy": -9.14, "intermolecular_energy": -10.03, "internal_energy": -0.92, "cluster_size": 49, "cluster_id": 1, "rank_in_cluster": 6}

>  <energy>  (43) 
-9.02

>  <cluster_rmsd>  (43) 
1.32

>  <cluster>  (43) 
1

$$$$

     RDKit          3D

 53 57  0  0  0  0  0  0  0  0999 V2000
  139.1970   67.4570  225.1940 O   0  0  0  0  0  0  0  0  0  0  0  0
  139.4360   68.6700  224.9990 C   0  0  0  0  0  0  0  0  0  0  0  0
  139.1210   69.2180  223.6530 C   0  0  0  0  0  0  0  0  0  0  0  0
  139.4570   70.6470  223.5790 C   0  0  0  0  0  0  0  0  0  0  0  0
  139.2220   71.3660  222.3210 C   0  0  0  0  0  0  0  0  0  0  0  0
  139.4150   70.7360  221.0970 C   0  0  0  0  0  0  0  0  0  0  0  0
  139.1990   71.4260  219.9150 C   0  0  0  0  0  0  0  0  0  0  0  0
  138.7930   72.7360  219.9930 C   0  0  0  0  0  0  0  0  0  0  0  0
  138.5860   73.4120  221.1760 C   0  0  0  0  0  0  0  0  0  0  0  0
  138.1570   74.8100  221.2250 C   0  0  0  0  0  0  0  0  0  0  0  0
  136.9950   75.0320  220.7330 O   0  0  0  0  0  0  0  0  0  0  0  0
  138.9380   75.8460  221.7630 N   0  0  0  0  0  0  0  0  0  0  0  0
  140.2430   75.6440  222.3230 C   0  0  0  0  0  0  0  0  0  0  0  0
  141.0170   76.8620  222.6470 C   0  0  0  0  0  0  0  0  0  0  0  0
  140.5400   78.0970  222.1220 N   0  0  0  0  0  0  0  0  0  0  0  0
  141.1120   79.3090  222.5950 C   0  0  0  0  0  0  0  0  0  0  0  0
  142.2140   79.2630  223.4120 C   0  0  0  0  0  0  0  0  0  0  0  0
  142.7590   80.4550  223.8710 C   0  0  0  0  0  0  0  0  0  0  0  0
  142.1770   81.6650  223.4930 C   0  0  0  0  0  0  0  0  0  0  0  0
  141.0660   81.6360  222.6650 C   0  0  0  0  0  0  0  0  0  0  0  0
  140.5490   80.4710  222.2280 N   0  0  0  0  0  0  0  0  0  0  0  0
  139.4890   78.0690  221.1220 C   0  0  0  0  0  0  0  0  0  0  0  0
  138.3910   77.1980  221.7470 C   0  0  0  0  0  0  0  0  0  0  0  0
  138.8140   72.6830  222.3410 C   0  0  0  0  0  0  0  0  0  0  0  0
  139.9550   71.2940  224.5770 N   0  0  0  0  0  0  0  0  0  0  0  0
  140.2500   70.7830  225.8450 C   0  0  0  0  0  0  0  0  0  0  0  0
  140.7830   71.6240  226.7970 C   0  0  0  0  0  0  0  0  0  0  0  0
  141.0740   71.1170  228.0440 C   0  0  0  0  0  0  0  0  0  0  0  0
  140.8280   69.7820  228.3150 C   0  0  0  0  0  0  0  0  0  0  0  0
  140.2900   68.9580  227.3290 C   0  0  0  0  0  0  0  0  0  0  0  0
  139.9920   69.4410  226.0820 C   0  0  0  0  0  0  0  0  0  0  0  0
  139.7024   68.6713  222.8960 H   0  0  0  0  0  0  0  0  0  0  0  0
  138.0432   69.0994  223.4676 H   0  0  0  0  0  0  0  0  0  0  0  0
  139.7404   69.6857  221.0667 H   0  0  0  0  0  0  0  0  0  0  0  0
  139.3486   70.9380  218.9406 H   0  0  0  0  0  0  0  0  0  0  0  0
  138.6224   73.2796  219.0521 H   0  0  0  0  0  0  0  0  0  0  0  0
  140.1226   75.0674  223.2520 H   0  0  0  0  0  0  0  0  0  0  0  0
  140.8203   75.1316  221.5393 H   0  0  0  0  0  0  0  0  0  0  0  0
  141.0419   76.9562  223.7427 H   0  0  0  0  0  0  0  0  0  0  0  0
  141.9959   76.7106  222.1686 H   0  0  0  0  0  0  0  0  0  0  0  0
  142.6580   78.2982  223.6984 H   0  0  0  0  0  0  0  0  0  0  0  0
  143.6420   80.4451  224.5270 H   0  0  0  0  0  0  0  0  0  0  0  0
  142.5909   82.6216  223.8445 H   0  0  0  0  0  0  0  0  0  0  0  0
  140.5971   82.5827  222.3585 H   0  0  0  0  0  0  0  0  0  0  0  0
  139.1144   79.0838  220.9224 H   0  0  0  0  0  0  0  0  0  0  0  0
  139.8389   77.6742  220.1568 H   0  0  0  0  0  0  0  0  0  0  0  0
  138.1664   77.5354  222.7696 H   0  0  0  0  0  0  0  0  0  0  0  0
  137.4497   77.2539  221.1806 H   0  0  0  0  0  0  0  0  0  0  0  0
  138.6630   73.1761  223.3126 H   0  0  0  0  0  0  0  0  0  0  0  0
  140.9729   72.6824  226.5652 H   0  0  0  0  0  0  0  0  0  0  0  0
  141.4997   71.7695  228.8206 H   0  0  0  0  0  0  0  0  0  0  0  0
  141.0575   69.3716  229.3094 H   0  0  0  0  0  0  0  0  0  0  0  0
  140.1007   67.8985  227.5561 H   0  0  0  0  0  0  0  0  0  0  0  0
  1  2  2  0
  2  3  1  0
  3  4  1  0
  4  5  1  0
  5  6  2  0
  6  7  1  0
  7  8  2  0
  8  9  1  0
  9 10  1  0
 10 11  2  0
 10 12  1  0
 12 13  1  0
 13 14  1  0
 14 15  1  0
 15 16  1  0
 16 17  2  0
 17 18  1  0
 18 19  2  0
 19 20  1  0
 20 21  2  0
 15 22  1  0
 22 23  1  0
  9 24  2  0
  4 25  2  0
 25 26  1  0
 26 27  2  0
 27 28  1  0
 28 29  2  0
 29 30  1  0
 30 31  2  0
 31  2  1  0
 24  5  1  0
 31 26  1  0
 23 12  1  0
 21 16  1  0
  3 32  1  0
  3 33  1  0
  6 34  1  0
  7 35  1  0
  8 36  1  0
 13 37  1  0
 13 38  1  0
 14 39  1  0
 14 40  1  0
 17 41  1  0
 18 42  1  0
 19 43  1  0
 20 44  1  0
 22 45  1  0
 22 46  1  0
 23 47  1  0
 23 48  1  0
 24 49  1  0
 27 50  1  0
 28 51  1  0
 29 52  1  0
 30 53  1  0
M  END
>  <smiles>  (44) 
O=C1CC(c2cccc(C(=O)N3CCN(c4ccccn4)CC3)c2)=Nc2ccccc21

>  <score_type>  (44) 
oracle

>  <origin>  (44) 
autodockgpu

>  <m_score__min__energy>  (44) 
-9.1400000000000006

>  <m_primary>  (44) 
energy

>  <rmsd>  (44) 
4.685984217449181

>  <m_score__min__rmsd>  (44) 
4.685984217449181

>  <meeko>  (44) 
{"free_energy": -9.14, "intermolecular_energy": -10.03, "internal_energy": -0.92, "cluster_size": 49, "cluster_id": 1, "rank_in_cluster": 9}

>  <energy>  (44) 
-9.02

>  <cluster_rmsd>  (44) 
1.47

>  <cluster>  (44) 
1

$$$$

     RDKit          3D

 53 57  0  0  0  0  0  0  0  0999 V2000
  139.1980   67.4010  225.8140 O   0  0  0  0  0  0  0  0  0  0  0  0
  139.3310   68.5860  225.4320 C   0  0  0  0  0  0  0  0  0  0  0  0
  138.8080   68.9290  224.0840 C   0  0  0  0  0  0  0  0  0  0  0  0
  139.0380   70.3480  223.7800 C   0  0  0  0  0  0  0  0  0  0  0  0
  138.5950   70.8770  222.4840 C   0  0  0  0  0  0  0  0  0  0  0  0
  137.4640   70.3650  221.8570 C   0  0  0  0  0  0  0  0  0  0  0  0
  137.0590   70.8650  220.6310 C   0  0  0  0  0  0  0  0  0  0  0  0
  137.8020   71.8710  220.0620 C   0  0  0  0  0  0  0  0  0  0  0  0
  138.9290   72.4180  220.6350 C   0  0  0  0  0  0  0  0  0  0  0  0
  139.7020   73.4870  220.0020 C   0  0  0  0  0  0  0  0  0  0  0  0
  140.1660   73.1990  218.8440 O   0  0  0  0  0  0  0  0  0  0  0  0
  139.9330   74.7380  220.5960 N   0  0  0  0  0  0  0  0  0  0  0  0
  139.4350   75.1050  221.8910 C   0  0  0  0  0  0  0  0  0  0  0  0
  139.9440   76.3700  222.4600 C   0  0  0  0  0  0  0  0  0  0  0  0
  141.0770   76.9600  221.8290 N   0  0  0  0  0  0  0  0  0  0  0  0
  141.4540   78.2810  222.1930 C   0  0  0  0  0  0  0  0  0  0  0  0
  141.6520   79.2220  221.2130 C   0  0  0  0  0  0  0  0  0  0  0  0
  142.0240   80.5080  221.5830 C   0  0  0  0  0  0  0  0  0  0  0  0
  142.1880   80.8120  222.9350 C   0  0  0  0  0  0  0  0  0  0  0  0
  141.9700   79.8120  223.8700 C   0  0  0  0  0  0  0  0  0  0  0  0
  141.6090   78.5690  223.4950 N   0  0  0  0  0  0  0  0  0  0  0  0
  141.8040   76.1870  220.8400 C   0  0  0  0  0  0  0  0  0  0  0  0
  140.7240   75.7150  219.8560 C   0  0  0  0  0  0  0  0  0  0  0  0
  139.3040   71.8870  221.8680 C   0  0  0  0  0  0  0  0  0  0  0  0
  139.6200   71.1480  224.6060 N   0  0  0  0  0  0  0  0  0  0  0  0
  140.1120   70.8300  225.8770 C   0  0  0  0  0  0  0  0  0  0  0  0
  140.7100   71.8170  226.6290 C   0  0  0  0  0  0  0  0  0  0  0  0
  141.1940   71.5000  227.8780 C   0  0  0  0  0  0  0  0  0  0  0  0
  141.0720   70.2030  228.3510 C   0  0  0  0  0  0  0  0  0  0  0  0
  140.4630   69.2290  227.5640 C   0  0  0  0  0  0  0  0  0  0  0  0
  139.9740   69.5230  226.3180 C   0  0  0  0  0  0  0  0  0  0  0  0
  139.3195   68.3115  223.3310 H   0  0  0  0  0  0  0  0  0  0  0  0
  137.7252   68.7360  224.0666 H   0  0  0  0  0  0  0  0  0  0  0  0
  136.8889   69.5595  222.3371 H   0  0  0  0  0  0  0  0  0  0  0  0
  136.1663   70.4675  220.1260 H   0  0  0  0  0  0  0  0  0  0  0  0
  137.4764   72.2643  219.0877 H   0  0  0  0  0  0  0  0  0  0  0  0
  138.3407   75.1887  221.8166 H   0  0  0  0  0  0  0  0  0  0  0  0
  139.7883   74.3170  222.5723 H   0  0  0  0  0  0  0  0  0  0  0  0
  139.1249   77.1032  222.4213 H   0  0  0  0  0  0  0  0  0  0  0  0
  140.2883   76.1071  223.4711 H   0  0  0  0  0  0  0  0  0  0  0  0
  141.5182   78.9618  220.1526 H   0  0  0  0  0  0  0  0  0  0  0  0
  142.1879   81.2802  220.8169 H   0  0  0  0  0  0  0  0  0  0  0  0
  142.4838   81.8230  223.2519 H   0  0  0  0  0  0  0  0  0  0  0  0
  142.0942   80.0376  224.9394 H   0  0  0  0  0  0  0  0  0  0  0  0
  142.5502   76.8127  220.3284 H   0  0  0  0  0  0  0  0  0  0  0  0
  142.3590   75.3493  221.2874 H   0  0  0  0  0  0  0  0  0  0  0  0
  140.0951   76.5600  219.5390 H   0  0  0  0  0  0  0  0  0  0  0  0
  141.1600   75.2840  218.9427 H   0  0  0  0  0  0  0  0  0  0  0  0
  140.1980   72.2881  222.3680 H   0  0  0  0  0  0  0  0  0  0  0  0
  140.7993   72.8413  226.2380 H   0  0  0  0  0  0  0  0  0  0  0  0
  141.6748   72.2717  228.4972 H   0  0  0  0  0  0  0  0  0  0  0  0
  141.4564   69.9430  229.3483 H   0  0  0  0  0  0  0  0  0  0  0  0
  140.3726   68.2030  227.9502 H   0  0  0  0  0  0  0  0  0  0  0  0
  1  2  2  0
  2  3  1  0
  3  4  1  0
  4  5  1  0
  5  6  2  0
  6  7  1  0
  7  8  2  0
  8  9  1  0
  9 10  1  0
 10 11  2  0
 10 12  1  0
 12 13  1  0
 13 14  1  0
 14 15  1  0
 15 16  1  0
 16 17  2  0
 17 18  1  0
 18 19  2  0
 19 20  1  0
 20 21  2  0
 15 22  1  0
 22 23  1  0
  9 24  2  0
  4 25  2  0
 25 26  1  0
 26 27  2  0
 27 28  1  0
 28 29  2  0
 29 30  1  0
 30 31  2  0
 31  2  1  0
 24  5  1  0
 31 26  1  0
 23 12  1  0
 21 16  1  0
  3 32  1  0
  3 33  1  0
  6 34  1  0
  7 35  1  0
  8 36  1  0
 13 37  1  0
 13 38  1  0
 14 39  1  0
 14 40  1  0
 17 41  1  0
 18 42  1  0
 19 43  1  0
 20 44  1  0
 22 45  1  0
 22 46  1  0
 23 47  1  0
 23 48  1  0
 24 49  1  0
 27 50  1  0
 28 51  1  0
 29 52  1  0
 30 53  1  0
M  END
>  <smiles>  (45) 
O=C1CC(c2cccc(C(=O)N3CCN(c4ccccn4)CC3)c2)=Nc2ccccc21

>  <score_type>  (45) 
oracle

>  <origin>  (45) 
autodockgpu

>  <m_score__min__energy>  (45) 
-9.1400000000000006

>  <m_primary>  (45) 
energy

>  <rmsd>  (45) 
3.792863308515506

>  <m_score__min__rmsd>  (45) 
3.792863308515506

>  <meeko>  (45) 
{"free_energy": -9.04, "intermolecular_energy": -9.93, "internal_energy": -0.93, "cluster_size": 49, "cluster_id": 1, "rank_in_cluster": 39}

>  <energy>  (45) 
-9.01

>  <cluster_rmsd>  (45) 
1.52

>  <cluster>  (45) 
1

$$$$

     RDKit          3D

 53 57  0  0  0  0  0  0  0  0999 V2000
  139.1990   67.4070  225.8760 O   0  0  0  0  0  0  0  0  0  0  0  0
  139.3530   68.5750  225.4480 C   0  0  0  0  0  0  0  0  0  0  0  0
  138.8590   68.8680  224.0780 C   0  0  0  0  0  0  0  0  0  0  0  0
  139.1120   70.2710  223.7200 C   0  0  0  0  0  0  0  0  0  0  0  0
  138.6990   70.7510  222.3960 C   0  0  0  0  0  0  0  0  0  0  0  0
  137.6220   70.1720  221.7340 C   0  0  0  0  0  0  0  0  0  0  0  0
  137.2450   70.6270  220.4820 C   0  0  0  0  0  0  0  0  0  0  0  0
  137.9630   71.6560  219.9220 C   0  0  0  0  0  0  0  0  0  0  0  0
  139.0380   72.2680  220.5290 C   0  0  0  0  0  0  0  0  0  0  0  0
  139.7850   73.3600  219.9040 C   0  0  0  0  0  0  0  0  0  0  0  0
  140.2620   73.0900  218.7470 O   0  0  0  0  0  0  0  0  0  0  0  0
  139.9790   74.6150  220.5040 N   0  0  0  0  0  0  0  0  0  0  0  0
  139.4640   74.9620  221.7980 C   0  0  0  0  0  0  0  0  0  0  0  0
  139.9370   76.2380  222.3750 C   0  0  0  0  0  0  0  0  0  0  0  0
  141.0560   76.8620  221.7530 N   0  0  0  0  0  0  0  0  0  0  0  0
  141.3950   78.1910  222.1240 C   0  0  0  0  0  0  0  0  0  0  0  0
  141.6150   79.1300  221.1480 C   0  0  0  0  0  0  0  0  0  0  0  0
  141.9500   80.4240  221.5250 C   0  0  0  0  0  0  0  0  0  0  0  0
  142.0550   80.7370  222.8810 C   0  0  0  0  0  0  0  0  0  0  0  0
  141.8190   79.7380  223.8120 C   0  0  0  0  0  0  0  0  0  0  0  0
  141.4940   78.4870  223.4300 N   0  0  0  0  0  0  0  0  0  0  0  0
  141.8090   76.1130  220.7640 C   0  0  0  0  0  0  0  0  0  0  0  0
  140.7470   75.6160  219.7720 C   0  0  0  0  0  0  0  0  0  0  0  0
  139.3840   71.7820  221.7870 C   0  0  0  0  0  0  0  0  0  0  0  0
  139.6880   71.0970  224.5250 N   0  0  0  0  0  0  0  0  0  0  0  0
  140.1520   70.8260  225.8160 C   0  0  0  0  0  0  0  0  0  0  0  0
  140.7480   71.8370  226.5390 C   0  0  0  0  0  0  0  0  0  0  0  0
  141.2050   71.5650  227.8090 C   0  0  0  0  0  0  0  0  0  0  0  0
  141.0590   70.2910  228.3310 C   0  0  0  0  0  0  0  0  0  0  0  0
  140.4530   69.2920  227.5740 C   0  0  0  0  0  0  0  0  0  0  0  0
  139.9900   69.5400  226.3080 C   0  0  0  0  0  0  0  0  0  0  0  0
  139.3764   68.2140  223.3607 H   0  0  0  0  0  0  0  0  0  0  0  0
  137.7744   68.6870  224.0485 H   0  0  0  0  0  0  0  0  0  0  0  0
  137.0670   69.3486  222.2073 H   0  0  0  0  0  0  0  0  0  0  0  0
  136.3938   70.1770  219.9500 H   0  0  0  0  0  0  0  0  0  0  0  0
  137.6607   72.0136  218.9267 H   0  0  0  0  0  0  0  0  0  0  0  0
  138.3683   75.0171  221.7180 H   0  0  0  0  0  0  0  0  0  0  0  0
  139.8334   74.1801  222.4779 H   0  0  0  0  0  0  0  0  0  0  0  0
  139.0985   76.9490  222.3361 H   0  0  0  0  0  0  0  0  0  0  0  0
  140.2846   75.9787  223.3859 H   0  0  0  0  0  0  0  0  0  0  0  0
  141.5275   78.8623  220.0847 H   0  0  0  0  0  0  0  0  0  0  0  0
  142.1309   81.1952  220.7618 H   0  0  0  0  0  0  0  0  0  0  0  0
  142.3194   81.7548  223.2038 H   0  0  0  0  0  0  0  0  0  0  0  0
  141.8985   79.9707  224.8842 H   0  0  0  0  0  0  0  0  0  0  0  0
  142.5406   76.7609  220.2590 H   0  0  0  0  0  0  0  0  0  0  0  0
  142.3842   75.2886  221.2107 H   0  0  0  0  0  0  0  0  0  0  0  0
  140.0971   76.4450  219.4551 H   0  0  0  0  0  0  0  0  0  0  0  0
  141.1992   75.2008  218.8592 H   0  0  0  0  0  0  0  0  0  0  0  0
  140.2351   72.2370  222.3149 H   0  0  0  0  0  0  0  0  0  0  0  0
  140.8566   72.8436  226.1088 H   0  0  0  0  0  0  0  0  0  0  0  0
  141.6835   72.3556  228.4057 H   0  0  0  0  0  0  0  0  0  0  0  0
  141.4222   70.0678  229.3450 H   0  0  0  0  0  0  0  0  0  0  0  0
  140.3436   68.2839  228.0003 H   0  0  0  0  0  0  0  0  0  0  0  0
  1  2  2  0
  2  3  1  0
  3  4  1  0
  4  5  1  0
  5  6  2  0
  6  7  1  0
  7  8  2  0
  8  9  1  0
  9 10  1  0
 10 11  2  0
 10 12  1  0
 12 13  1  0
 13 14  1  0
 14 15  1  0
 15 16  1  0
 16 17  2  0
 17 18  1  0
 18 19  2  0
 19 20  1  0
 20 21  2  0
 15 22  1  0
 22 23  1  0
  9 24  2  0
  4 25  2  0
 25 26  1  0
 26 27  2  0
 27 28  1  0
 28 29  2  0
 29 30  1  0
 30 31  2  0
 31  2  1  0
 24  5  1  0
 31 26  1  0
 23 12  1  0
 21 16  1  0
  3 32  1  0
  3 33  1  0
  6 34  1  0
  7 35  1  0
  8 36  1  0
 13 37  1  0
 13 38  1  0
 14 39  1  0
 14 40  1  0
 17 41  1  0
 18 42  1  0
 19 43  1  0
 20 44  1  0
 22 45  1  0
 22 46  1  0
 23 47  1  0
 23 48  1  0
 24 49  1  0
 27 50  1  0
 28 51  1  0
 29 52  1  0
 30 53  1  0
M  END
>  <smiles>  (46) 
O=C1CC(c2cccc(C(=O)N3CCN(c4ccccn4)CC3)c2)=Nc2ccccc21

>  <score_type>  (46) 
oracle

>  <origin>  (46) 
autodockgpu

>  <m_score__min__energy>  (46) 
-9.1400000000000006

>  <m_primary>  (46) 
energy

>  <rmsd>  (46) 
3.731854843681255

>  <m_score__min__rmsd>  (46) 
3.731854843681255

>  <meeko>  (46) 
{"free_energy": -9.0, "intermolecular_energy": -9.89, "internal_energy": -0.92, "cluster_size": 49, "cluster_id": 1, "rank_in_cluster": 48}

>  <energy>  (46) 
-9.01

>  <cluster_rmsd>  (46) 
1.33

>  <cluster>  (46) 
1

$$$$

     RDKit          3D

 53 57  0  0  0  0  0  0  0  0999 V2000
  139.2090   67.4380  225.1970 O   0  0  0  0  0  0  0  0  0  0  0  0
  139.4490   68.6520  225.0040 C   0  0  0  0  0  0  0  0  0  0  0  0
  139.1430   69.2000  223.6570 C   0  0  0  0  0  0  0  0  0  0  0  0
  139.4790   70.6290  223.5860 C   0  0  0  0  0  0  0  0  0  0  0  0
  139.2530   71.3490  222.3270 C   0  0  0  0  0  0  0  0  0  0  0  0
  139.4650   70.7240  221.1030 C   0  0  0  0  0  0  0  0  0  0  0  0
  139.2550   71.4150  219.9210 C   0  0  0  0  0  0  0  0  0  0  0  0
  138.8380   72.7220  219.9980 C   0  0  0  0  0  0  0  0  0  0  0  0
  138.6110   73.3930  221.1800 C   0  0  0  0  0  0  0  0  0  0  0  0
  138.1700   74.7870  221.2280 C   0  0  0  0  0  0  0  0  0  0  0  0
  137.0010   74.9960  220.7480 O   0  0  0  0  0  0  0  0  0  0  0  0
  138.9480   75.8330  221.7510 N   0  0  0  0  0  0  0  0  0  0  0  0
  140.2620   75.6460  222.2970 C   0  0  0  0  0  0  0  0  0  0  0  0
  141.0270   76.8720  222.6060 C   0  0  0  0  0  0  0  0  0  0  0  0
  140.5330   78.1010  222.0810 N   0  0  0  0  0  0  0  0  0  0  0  0
  141.0990   79.3200  222.5420 C   0  0  0  0  0  0  0  0  0  0  0  0
  142.1640   79.2870  223.4070 C   0  0  0  0  0  0  0  0  0  0  0  0
  142.7040   80.4860  223.8530 C   0  0  0  0  0  0  0  0  0  0  0  0
  142.1540   81.6910  223.4140 C   0  0  0  0  0  0  0  0  0  0  0  0
  141.0800   81.6480  222.5390 C   0  0  0  0  0  0  0  0  0  0  0  0
  140.5670   80.4770  222.1150 N   0  0  0  0  0  0  0  0  0  0  0  0
  139.4710   78.0580  221.0940 C   0  0  0  0  0  0  0  0  0  0  0  0
  138.3880   77.1800  221.7360 C   0  0  0  0  0  0  0  0  0  0  0  0
  138.8330   72.6630  222.3450 C   0  0  0  0  0  0  0  0  0  0  0  0
  139.9720   71.2760  224.5870 N   0  0  0  0  0  0  0  0  0  0  0  0
  140.2590   70.7630  225.8570 C   0  0  0  0  0  0  0  0  0  0  0  0
  140.7860   71.6040  226.8130 C   0  0  0  0  0  0  0  0  0  0  0  0
  141.0700   71.0960  228.0610 C   0  0  0  0  0  0  0  0  0  0  0  0
  140.8220   69.7600  228.3290 C   0  0  0  0  0  0  0  0  0  0  0  0
  140.2890   68.9380  227.3400 C   0  0  0  0  0  0  0  0  0  0  0  0
  139.9990   69.4220  226.0910 C   0  0  0  0  0  0  0  0  0  0  0  0
  139.7297   68.6538  222.9037 H   0  0  0  0  0  0  0  0  0  0  0  0
  138.0666   69.0810  223.4643 H   0  0  0  0  0  0  0  0  0  0  0  0
  139.8007   69.6769  221.0733 H   0  0  0  0  0  0  0  0  0  0  0  0
  139.4177   70.9305  218.9470 H   0  0  0  0  0  0  0  0  0  0  0  0
  138.6751   73.2671  219.0566 H   0  0  0  0  0  0  0  0  0  0  0  0
  140.1580   75.0726  223.2300 H   0  0  0  0  0  0  0  0  0  0  0  0
  140.8352   75.1354  221.5092 H   0  0  0  0  0  0  0  0  0  0  0  0
  141.0634   76.9714  223.7009 H   0  0  0  0  0  0  0  0  0  0  0  0
  142.0013   76.7274  222.1163 H   0  0  0  0  0  0  0  0  0  0  0  0
  142.5830   78.3265  223.7415 H   0  0  0  0  0  0  0  0  0  0  0  0
  143.5579   80.4859  224.5464 H   0  0  0  0  0  0  0  0  0  0  0  0
  142.5636   82.6534  223.7547 H   0  0  0  0  0  0  0  0  0  0  0  0
  140.6372   82.5901  222.1833 H   0  0  0  0  0  0  0  0  0  0  0  0
  139.0847   79.0683  220.8936 H   0  0  0  0  0  0  0  0  0  0  0  0
  139.8134   77.6612  220.1269 H   0  0  0  0  0  0  0  0  0  0  0  0
  138.1725   77.5198  222.7598 H   0  0  0  0  0  0  0  0  0  0  0  0
  137.4393   77.2250  221.1810 H   0  0  0  0  0  0  0  0  0  0  0  0
  138.6672   73.1525  223.3161 H   0  0  0  0  0  0  0  0  0  0  0  0
  140.9765   72.6627  226.5832 H   0  0  0  0  0  0  0  0  0  0  0  0
  141.4914   71.7476  228.8406 H   0  0  0  0  0  0  0  0  0  0  0  0
  141.0464   69.3482  229.3240 H   0  0  0  0  0  0  0  0  0  0  0  0
  140.0967   67.8787  227.5655 H   0  0  0  0  0  0  0  0  0  0  0  0
  1  2  2  0
  2  3  1  0
  3  4  1  0
  4  5  1  0
  5  6  2  0
  6  7  1  0
  7  8  2  0
  8  9  1  0
  9 10  1  0
 10 11  2  0
 10 12  1  0
 12 13  1  0
 13 14  1  0
 14 15  1  0
 15 16  1  0
 16 17  2  0
 17 18  1  0
 18 19  2  0
 19 20  1  0
 20 21  2  0
 15 22  1  0
 22 23  1  0
  9 24  2  0
  4 25  2  0
 25 26  1  0
 26 27  2  0
 27 28  1  0
 28 29  2  0
 29 30  1  0
 30 31  2  0
 31  2  1  0
 24  5  1  0
 31 26  1  0
 23 12  1  0
 21 16  1  0
  3 32  1  0
  3 33  1  0
  6 34  1  0
  7 35  1  0
  8 36  1  0
 13 37  1  0
 13 38  1  0
 14 39  1  0
 14 40  1  0
 17 41  1  0
 18 42  1  0
 19 43  1  0
 20 44  1  0
 22 45  1  0
 22 46  1  0
 23 47  1  0
 23 48  1  0
 24 49  1  0
 27 50  1  0
 28 51  1  0
 29 52  1  0
 30 53  1  0
M  END
>  <smiles>  (47) 
O=C1CC(c2cccc(C(=O)N3CCN(c4ccccn4)CC3)c2)=Nc2ccccc21

>  <score_type>  (47) 
oracle

>  <origin>  (47) 
autodockgpu

>  <m_score__min__energy>  (47) 
-9.1400000000000006

>  <m_primary>  (47) 
energy

>  <rmsd>  (47) 
4.674667559284005

>  <m_score__min__rmsd>  (47) 
4.674667559284005

>  <meeko>  (47) 
{"free_energy": -9.13, "intermolecular_energy": -10.02, "internal_energy": -0.92, "cluster_size": 49, "cluster_id": 1, "rank_in_cluster": 21}

>  <energy>  (47) 
-9.01

>  <cluster_rmsd>  (47) 
0.32

>  <cluster>  (47) 
1

$$$$

     RDKit          3D

 53 57  0  0  0  0  0  0  0  0999 V2000
  139.2120   67.3740  225.7520 O   0  0  0  0  0  0  0  0  0  0  0  0
  139.3350   68.5690  225.3980 C   0  0  0  0  0  0  0  0  0  0  0  0
  138.7950   68.9430  224.0650 C   0  0  0  0  0  0  0  0  0  0  0  0
  139.0160   70.3700  223.7930 C   0  0  0  0  0  0  0  0  0  0  0  0
  138.5550   70.9290  222.5160 C   0  0  0  0  0  0  0  0  0  0  0  0
  137.3920   70.4620  221.9150 C   0  0  0  0  0  0  0  0  0  0  0  0
  136.9700   70.9910  220.7060 C   0  0  0  0  0  0  0  0  0  0  0  0
  137.7310   71.9780  220.1280 C   0  0  0  0  0  0  0  0  0  0  0  0
  138.8910   72.4800  220.6760 C   0  0  0  0  0  0  0  0  0  0  0  0
  139.6820   73.5290  220.0330 C   0  0  0  0  0  0  0  0  0  0  0  0
  140.1660   73.2120  218.8900 O   0  0  0  0  0  0  0  0  0  0  0  0
  139.9090   74.7930  220.6020 N   0  0  0  0  0  0  0  0  0  0  0  0
  139.3890   75.1920  221.8790 C   0  0  0  0  0  0  0  0  0  0  0  0
  139.8960   76.4670  222.4280 C   0  0  0  0  0  0  0  0  0  0  0  0
  141.0430   77.0360  221.8060 N   0  0  0  0  0  0  0  0  0  0  0  0
  141.4210   78.3630  222.1460 C   0  0  0  0  0  0  0  0  0  0  0  0
  141.8560   78.6370  223.4190 C   0  0  0  0  0  0  0  0  0  0  0  0
  142.2170   79.9390  223.7400 C   0  0  0  0  0  0  0  0  0  0  0  0
  142.1290   80.9340  222.7650 C   0  0  0  0  0  0  0  0  0  0  0  0
  141.6820   80.5850  221.5010 C   0  0  0  0  0  0  0  0  0  0  0  0
  141.3360   79.3170  221.2050 N   0  0  0  0  0  0  0  0  0  0  0  0
  141.7840   76.2370  220.8480 C   0  0  0  0  0  0  0  0  0  0  0  0
  140.7200   75.7490  219.8550 C   0  0  0  0  0  0  0  0  0  0  0  0
  139.2810   71.9220  221.8910 C   0  0  0  0  0  0  0  0  0  0  0  0
  139.6050   71.1520  224.6320 N   0  0  0  0  0  0  0  0  0  0  0  0
  140.1130   70.8040  225.8890 C   0  0  0  0  0  0  0  0  0  0  0  0
  140.7160   71.7760  226.6580 C   0  0  0  0  0  0  0  0  0  0  0  0
  141.2170   71.4290  227.8930 C   0  0  0  0  0  0  0  0  0  0  0  0
  141.1050   70.1210  228.3350 C   0  0  0  0  0  0  0  0  0  0  0  0
  140.4910   69.1640  227.5320 C   0  0  0  0  0  0  0  0  0  0  0  0
  139.9850   69.4870  226.2990 C   0  0  0  0  0  0  0  0  0  0  0  0
  139.2999   68.3462  223.2912 H   0  0  0  0  0  0  0  0  0  0  0  0
  137.7128   68.7462  224.0557 H   0  0  0  0  0  0  0  0  0  0  0  0
  136.8043   69.6693  222.4011 H   0  0  0  0  0  0  0  0  0  0  0  0
  136.0504   70.6304  220.2219 H   0  0  0  0  0  0  0  0  0  0  0  0
  137.3929   72.3936  219.1673 H   0  0  0  0  0  0  0  0  0  0  0  0
  138.2968   75.2805  221.7823 H   0  0  0  0  0  0  0  0  0  0  0  0
  139.7238   74.4175  222.5847 H   0  0  0  0  0  0  0  0  0  0  0  0
  139.0823   77.2038  222.3574 H   0  0  0  0  0  0  0  0  0  0  0  0
  140.2207   76.2246  223.4507 H   0  0  0  0  0  0  0  0  0  0  0  0
  141.9176   77.8381  224.1726 H   0  0  0  0  0  0  0  0  0  0  0  0
  142.5689   80.1839  224.7530 H   0  0  0  0  0  0  0  0  0  0  0  0
  142.4085   81.9727  222.9953 H   0  0  0  0  0  0  0  0  0  0  0  0
  141.6081   81.3591  220.7230 H   0  0  0  0  0  0  0  0  0  0  0  0
  142.5432   76.8471  220.3367 H   0  0  0  0  0  0  0  0  0  0  0  0
  142.3258   75.4065  221.3242 H   0  0  0  0  0  0  0  0  0  0  0  0
  140.1023   76.5901  219.5073 H   0  0  0  0  0  0  0  0  0  0  0  0
  141.1705   75.2950  218.9600 H   0  0  0  0  0  0  0  0  0  0  0  0
  140.2018   72.2864  222.3700 H   0  0  0  0  0  0  0  0  0  0  0  0
  140.7956   72.8102  226.2919 H   0  0  0  0  0  0  0  0  0  0  0  0
  141.7035   72.1865  228.5251 H   0  0  0  0  0  0  0  0  0  0  0  0
  141.5016   69.8383  229.3213 H   0  0  0  0  0  0  0  0  0  0  0  0
  140.4101   68.1283  227.8936 H   0  0  0  0  0  0  0  0  0  0  0  0
  1  2  2  0
  2  3  1  0
  3  4  1  0
  4  5  1  0
  5  6  2  0
  6  7  1  0
  7  8  2  0
  8  9  1  0
  9 10  1  0
 10 11  2  0
 10 12  1  0
 12 13  1  0
 13 14  1  0
 14 15  1  0
 15 16  1  0
 16 17  2  0
 17 18  1  0
 18 19  2  0
 19 20  1  0
 20 21  2  0
 15 22  1  0
 22 23  1  0
  9 24  2  0
  4 25  2  0
 25 26  1  0
 26 27  2  0
 27 28  1  0
 28 29  2  0
 29 30  1  0
 30 31  2  0
 31  2  1  0
 24  5  1  0
 31 26  1  0
 23 12  1  0
 21 16  1  0
  3 32  1  0
  3 33  1  0
  6 34  1  0
  7 35  1  0
  8 36  1  0
 13 37  1  0
 13 38  1  0
 14 39  1  0
 14 40  1  0
 17 41  1  0
 18 42  1  0
 19 43  1  0
 20 44  1  0
 22 45  1  0
 22 46  1  0
 23 47  1  0
 23 48  1  0
 24 49  1  0
 27 50  1  0
 28 51  1  0
 29 52  1  0
 30 53  1  0
M  END
>  <smiles>  (48) 
O=C1CC(c2cccc(C(=O)N3CCN(c4ccccn4)CC3)c2)=Nc2ccccc21

>  <score_type>  (48) 
oracle

>  <origin>  (48) 
autodockgpu

>  <m_score__min__energy>  (48) 
-9.1400000000000006

>  <m_primary>  (48) 
energy

>  <rmsd>  (48) 
4.24538726977533

>  <m_score__min__rmsd>  (48) 
4.24538726977533

>  <meeko>  (48) 
{"free_energy": -9.06, "intermolecular_energy": -9.95, "internal_energy": -0.94, "cluster_size": 49, "cluster_id": 1, "rank_in_cluster": 34}

>  <energy>  (48) 
-9.0

>  <cluster_rmsd>  (48) 
1.53

>  <cluster>  (48) 
1

$$$$

     RDKit          3D

 53 57  0  0  0  0  0  0  0  0999 V2000
  139.1630   67.3900  225.7380 O   0  0  0  0  0  0  0  0  0  0  0  0
  139.2640   68.5950  225.4100 C   0  0  0  0  0  0  0  0  0  0  0  0
  138.6950   68.9910  224.0950 C   0  0  0  0  0  0  0  0  0  0  0  0
  138.8910   70.4270  223.8530 C   0  0  0  0  0  0  0  0  0  0  0  0
  138.4000   71.0080  222.5970 C   0  0  0  0  0  0  0  0  0  0  0  0
  137.1970   70.5860  222.0420 C   0  0  0  0  0  0  0  0  0  0  0  0
  136.7470   71.1350  220.8530 C   0  0  0  0  0  0  0  0  0  0  0  0
  137.5190   72.0980  220.2480 C   0  0  0  0  0  0  0  0  0  0  0  0
  138.7180   72.5550  220.7510 C   0  0  0  0  0  0  0  0  0  0  0  0
  139.5190   73.5790  220.0800 C   0  0  0  0  0  0  0  0  0  0  0  0
  139.9580   73.2450  218.9250 O   0  0  0  0  0  0  0  0  0  0  0  0
  139.8010   74.8370  220.6380 N   0  0  0  0  0  0  0  0  0  0  0  0
  139.3310   75.2550  221.9280 C   0  0  0  0  0  0  0  0  0  0  0  0
  139.8920   76.5150  222.4580 C   0  0  0  0  0  0  0  0  0  0  0  0
  141.0360   77.0490  221.7980 N   0  0  0  0  0  0  0  0  0  0  0  0
  141.4630   78.3650  222.1230 C   0  0  0  0  0  0  0  0  0  0  0  0
  141.8040   78.6660  223.4180 C   0  0  0  0  0  0  0  0  0  0  0  0
  142.2140   79.9570  223.7220 C   0  0  0  0  0  0  0  0  0  0  0  0
  142.2700   80.9150  222.7080 C   0  0  0  0  0  0  0  0  0  0  0  0
  141.9110   80.5400  221.4230 C   0  0  0  0  0  0  0  0  0  0  0  0
  141.5150   79.2830  221.1440 N   0  0  0  0  0  0  0  0  0  0  0  0
  141.7230   76.2260  220.8220 C   0  0  0  0  0  0  0  0  0  0  0  0
  140.6160   75.7660  219.8630 C   0  0  0  0  0  0  0  0  0  0  0  0
  139.1350   71.9780  221.9470 C   0  0  0  0  0  0  0  0  0  0  0  0
  139.4840   71.1980  224.6990 N   0  0  0  0  0  0  0  0  0  0  0  0
  140.0190   70.8290  225.9380 C   0  0  0  0  0  0  0  0  0  0  0  0
  140.6230   71.7910  226.7190 C   0  0  0  0  0  0  0  0  0  0  0  0
  141.1500   71.4230  227.9370 C   0  0  0  0  0  0  0  0  0  0  0  0
  141.0650   70.1040  228.3500 C   0  0  0  0  0  0  0  0  0  0  0  0
  140.4490   69.1570  227.5360 C   0  0  0  0  0  0  0  0  0  0  0  0
  139.9170   69.5000  226.3200 C   0  0  0  0  0  0  0  0  0  0  0  0
  139.1948   68.4196  223.2990 H   0  0  0  0  0  0  0  0  0  0  0  0
  137.6158   68.7781  224.0992 H   0  0  0  0  0  0  0  0  0  0  0  0
  136.6006   69.8133  222.5492 H   0  0  0  0  0  0  0  0  0  0  0  0
  135.7969   70.8091  220.4046 H   0  0  0  0  0  0  0  0  0  0  0  0
  137.1573   72.5308  219.3036 H   0  0  0  0  0  0  0  0  0  0  0  0
  138.2397   75.3765  221.8627 H   0  0  0  0  0  0  0  0  0  0  0  0
  139.6628   74.4724  222.6262 H   0  0  0  0  0  0  0  0  0  0  0  0
  139.0986   77.2755  222.4114 H   0  0  0  0  0  0  0  0  0  0  0  0
  140.2411   76.2650  223.4707 H   0  0  0  0  0  0  0  0  0  0  0  0
  141.7532   77.8965  224.2025 H   0  0  0  0  0  0  0  0  0  0  0  0
  142.4922   80.2227  224.7525 H   0  0  0  0  0  0  0  0  0  0  0  0
  142.5919   81.9444  222.9241 H   0  0  0  0  0  0  0  0  0  0  0  0
  141.9502   81.2843  220.6140 H   0  0  0  0  0  0  0  0  0  0  0  0
  142.4840   76.8118  220.2856 H   0  0  0  0  0  0  0  0  0  0  0  0
  142.2539   75.3813  221.2853 H   0  0  0  0  0  0  0  0  0  0  0  0
  140.0127   76.6236  219.5304 H   0  0  0  0  0  0  0  0  0  0  0  0
  141.0259   75.2963  218.9567 H   0  0  0  0  0  0  0  0  0  0  0  0
  140.0861   72.3076  222.3906 H   0  0  0  0  0  0  0  0  0  0  0  0
  140.6830   72.8342  226.3754 H   0  0  0  0  0  0  0  0  0  0  0  0
  141.6359   72.1729  228.5784 H   0  0  0  0  0  0  0  0  0  0  0  0
  141.4844   69.8042  229.3217 H   0  0  0  0  0  0  0  0  0  0  0  0
  140.3880   68.1125  227.8755 H   0  0  0  0  0  0  0  0  0  0  0  0
  1  2  2  0
  2  3  1  0
  3  4  1  0
  4  5  1  0
  5  6  2  0
  6  7  1  0
  7  8  2  0
  8  9  1  0
  9 10  1  0
 10 11  2  0
 10 12  1  0
 12 13  1  0
 13 14  1  0
 14 15  1  0
 15 16  1  0
 16 17  2  0
 17 18  1  0
 18 19  2  0
 19 20  1  0
 20 21  2  0
 15 22  1  0
 22 23  1  0
  9 24  2  0
  4 25  2  0
 25 26  1  0
 26 27  2  0
 27 28  1  0
 28 29  2  0
 29 30  1  0
 30 31  2  0
 31  2  1  0
 24  5  1  0
 31 26  1  0
 23 12  1  0
 21 16  1  0
  3 32  1  0
  3 33  1  0
  6 34  1  0
  7 35  1  0
  8 36  1  0
 13 37  1  0
 13 38  1  0
 14 39  1  0
 14 40  1  0
 17 41  1  0
 18 42  1  0
 19 43  1  0
 20 44  1  0
 22 45  1  0
 22 46  1  0
 23 47  1  0
 23 48  1  0
 24 49  1  0
 27 50  1  0
 28 51  1  0
 29 52  1  0
 30 53  1  0
M  END
>  <smiles>  (49) 
O=C1CC(c2cccc(C(=O)N3CCN(c4ccccn4)CC3)c2)=Nc2ccccc21

>  <score_type>  (49) 
oracle

>  <origin>  (49) 
autodockgpu

>  <m_score__min__energy>  (49) 
-9.1400000000000006

>  <m_primary>  (49) 
energy

>  <rmsd>  (49) 
4.237538317988065

>  <m_score__min__rmsd>  (49) 
4.237538317988065

>  <meeko>  (49) 
{"free_energy": -9.06, "intermolecular_energy": -9.96, "internal_energy": -0.94, "cluster_size": 49, "cluster_id": 1, "rank_in_cluster": 33}

>  <energy>  (49) 
-8.97

>  <cluster_rmsd>  (49) 
1.36

>  <cluster>  (49) 
1

$$$$

     RDKit          3D

 53 57  0  0  0  0  0  0  0  0999 V2000
  139.2140   67.4410  225.8690 O   0  0  0  0  0  0  0  0  0  0  0  0
  139.3650   68.6120  225.4510 C   0  0  0  0  0  0  0  0  0  0  0  0
  138.8660   68.9170  224.0850 C   0  0  0  0  0  0  0  0  0  0  0  0
  139.1150   70.3230  223.7390 C   0  0  0  0  0  0  0  0  0  0  0  0
  138.6960   70.8140  222.4200 C   0  0  0  0  0  0  0  0  0  0  0  0
  137.6060   70.2520  221.7660 C   0  0  0  0  0  0  0  0  0  0  0  0
  137.2240   70.7180  220.5190 C   0  0  0  0  0  0  0  0  0  0  0  0
  137.9510   71.7390  219.9560 C   0  0  0  0  0  0  0  0  0  0  0  0
  139.0390   72.3350  220.5560 C   0  0  0  0  0  0  0  0  0  0  0  0
  139.7950   73.4190  219.9290 C   0  0  0  0  0  0  0  0  0  0  0  0
  140.2770   73.1390  218.7760 O   0  0  0  0  0  0  0  0  0  0  0  0
  139.9920   74.6770  220.5230 N   0  0  0  0  0  0  0  0  0  0  0  0
  139.4710   75.0340  221.8120 C   0  0  0  0  0  0  0  0  0  0  0  0
  139.9470   76.3110  222.3840 C   0  0  0  0  0  0  0  0  0  0  0  0
  141.0730   76.9250  221.7640 N   0  0  0  0  0  0  0  0  0  0  0  0
  141.4170   78.2550  222.1290 C   0  0  0  0  0  0  0  0  0  0  0  0
  141.6070   78.5650  223.4530 C   0  0  0  0  0  0  0  0  0  0  0  0
  141.9370   79.8690  223.7960 C   0  0  0  0  0  0  0  0  0  0  0  0
  142.0680   80.8300  222.7930 C   0  0  0  0  0  0  0  0  0  0  0  0
  141.8620   80.4450  221.4770 C   0  0  0  0  0  0  0  0  0  0  0  0
  141.5430   79.1750  221.1600 N   0  0  0  0  0  0  0  0  0  0  0  0
  141.8270   76.1670  220.7840 C   0  0  0  0  0  0  0  0  0  0  0  0
  140.7690   75.6700  219.7890 C   0  0  0  0  0  0  0  0  0  0  0  0
  139.3900   71.8390  221.8090 C   0  0  0  0  0  0  0  0  0  0  0  0
  139.6920   71.1440  224.5490 N   0  0  0  0  0  0  0  0  0  0  0  0
  140.1610   70.8620  225.8360 C   0  0  0  0  0  0  0  0  0  0  0  0
  140.7580   71.8670  226.5650 C   0  0  0  0  0  0  0  0  0  0  0  0
  141.2200   71.5850  227.8310 C   0  0  0  0  0  0  0  0  0  0  0  0
  141.0780   70.3060  228.3430 C   0  0  0  0  0  0  0  0  0  0  0  0
  140.4710   69.3130  227.5790 C   0  0  0  0  0  0  0  0  0  0  0  0
  140.0030   69.5710  226.3170 C   0  0  0  0  0  0  0  0  0  0  0  0
  139.3823   68.2706  223.3600 H   0  0  0  0  0  0  0  0  0  0  0  0
  137.7816   68.7345  224.0575 H   0  0  0  0  0  0  0  0  0  0  0  0
  137.0445   69.4338  222.2407 H   0  0  0  0  0  0  0  0  0  0  0  0
  136.3615   70.2823  219.9933 H   0  0  0  0  0  0  0  0  0  0  0  0
  137.6454   72.1035  218.9641 H   0  0  0  0  0  0  0  0  0  0  0  0
  138.3761   75.0940  221.7252 H   0  0  0  0  0  0  0  0  0  0  0  0
  139.8323   74.2543  222.4987 H   0  0  0  0  0  0  0  0  0  0  0  0
  139.1125   77.0261  222.3359 H   0  0  0  0  0  0  0  0  0  0  0  0
  140.2871   76.0566  223.3987 H   0  0  0  0  0  0  0  0  0  0  0  0
  141.4995   77.7929  224.2290 H   0  0  0  0  0  0  0  0  0  0  0  0
  142.0939   80.1424  224.8499 H   0  0  0  0  0  0  0  0  0  0  0  0
  142.3288   81.8695  223.0407 H   0  0  0  0  0  0  0  0  0  0  0  0
  141.9611   81.1917  220.6754 H   0  0  0  0  0  0  0  0  0  0  0  0
  142.5648   76.8083  220.2796 H   0  0  0  0  0  0  0  0  0  0  0  0
  142.3950   75.3421  221.2387 H   0  0  0  0  0  0  0  0  0  0  0  0
  140.1251   76.5003  219.4635 H   0  0  0  0  0  0  0  0  0  0  0  0
  141.2241   75.2476  218.8810 H   0  0  0  0  0  0  0  0  0  0  0  0
  140.2519   72.2802  222.3310 H   0  0  0  0  0  0  0  0  0  0  0  0
  140.8637   72.8773  226.1430 H   0  0  0  0  0  0  0  0  0  0  0  0
  141.6993   72.3713  228.4326 H   0  0  0  0  0  0  0  0  0  0  0  0
  141.4450   70.0746  229.3538 H   0  0  0  0  0  0  0  0  0  0  0  0
  140.3649   68.3009  227.9967 H   0  0  0  0  0  0  0  0  0  0  0  0
  1  2  2  0
  2  3  1  0
  3  4  1  0
  4  5  1  0
  5  6  2  0
  6  7  1  0
  7  8  2  0
  8  9  1  0
  9 10  1  0
 10 11  2  0
 10 12  1  0
 12 13  1  0
 13 14  1  0
 14 15  1  0
 15 16  1  0
 16 17  2  0
 17 18  1  0
 18 19  2  0
 19 20  1  0
 20 21  2  0
 15 22  1  0
 22 23  1  0
  9 24  2  0
  4 25  2  0
 25 26  1  0
 26 27  2  0
 27 28  1  0
 28 29  2  0
 29 30  1  0
 30 31  2  0
 31  2  1  0
 24  5  1  0
 31 26  1  0
 23 12  1  0
 21 16  1  0
  3 32  1  0
  3 33  1  0
  6 34  1  0
  7 35  1  0
  8 36  1  0
 13 37  1  0
 13 38  1  0
 14 39  1  0
 14 40  1  0
 17 41  1  0
 18 42  1  0
 19 43  1  0
 20 44  1  0
 22 45  1  0
 22 46  1  0
 23 47  1  0
 23 48  1  0
 24 49  1  0
 27 50  1  0
 28 51  1  0
 29 52  1  0
 30 53  1  0
M  END
>  <smiles>  (50) 
O=C1CC(c2cccc(C(=O)N3CCN(c4ccccn4)CC3)c2)=Nc2ccccc21

>  <score_type>  (50) 
oracle

>  <origin>  (50) 
autodockgpu

>  <m_score__min__energy>  (50) 
-9.1400000000000006

>  <m_primary>  (50) 
energy

>  <rmsd>  (50) 
4.202235631188078

>  <m_score__min__rmsd>  (50) 
4.202235631188078

>  <meeko>  (50) 
{"free_energy": -9.04, "intermolecular_energy": -9.93, "internal_energy": -0.94, "cluster_size": 49, "cluster_id": 1, "rank_in_cluster": 38}

>  <energy>  (50) 
-8.63

>  <cluster_rmsd>  (50) 
0.0

>  <cluster>  (50) 
2

$$$$
