
     RDKit          3D

 46 49  0  0  0  0  0  0  0  0999 V2000
  140.9570   71.5820  221.2070 O   0  0  0  0  0  0  0  0  0  0  0  0
  140.4250   72.1260  222.2100 C   0  0  0  0  0  0  0  0  0  0  0  0
  140.0130   73.4860  222.2410 N   0  0  0  0  0  0  0  0  0  0  0  0
  140.1860   74.3440  221.0870 C   0  0  0  0  0  0  0  0  0  0  0  0
  140.5130   75.7410  221.5620 C   0  0  0  0  0  0  0  0  0  0  0  0
  139.9500   76.0760  222.6340 O   0  0  0  0  0  0  0  0  0  0  0  0
  141.3760   76.4950  220.7870 N   0  0  0  0  0  0  0  0  0  0  0  0
  142.1110   76.0590  219.5650 C   0  0  0  0  0  0  0  0  0  0  0  0
  141.6130   77.1300  218.6250 C   0  0  0  0  0  0  0  0  0  0  0  0
  141.7110   78.3790  219.4730 C   0  0  0  0  0  0  0  0  0  0  0  0
  141.8350   77.8930  220.8710 C   0  0  1  0  0  0  0  0  0  0  0  0
  141.2480   78.6800  221.9280 C   0  0  0  0  0  0  0  0  0  0  0  0
  141.6180   78.6880  223.2560 C   0  0  0  0  0  0  0  0  0  0  0  0
  140.9870   79.4390  224.1800 N   0  0  0  0  0  0  0  0  0  0  0  0
  139.9440   80.2380  223.8520 C   0  0  0  0  0  0  0  0  0  0  0  0
  139.5710   80.2430  222.5660 N   0  0  0  0  0  0  0  0  0  0  0  0
  140.1660   79.5130  221.6080 C   0  0  0  0  0  0  0  0  0  0  0  0
  140.2130   71.3180  223.4290 C   0  0  0  0  0  0  0  0  0  0  0  0
  139.5550   70.1030  223.3550 C   0  0  0  0  0  0  0  0  0  0  0  0
  139.3510   69.3390  224.4920 C   0  0  0  0  0  0  0  0  0  0  0  0
  139.8210   69.8160  225.7060 C   0  0  0  0  0  0  0  0  0  0  0  0
  139.6330   69.0700  226.8720 C   0  0  0  0  0  0  0  0  0  0  0  0
  140.1150   69.5730  228.0790 C   0  0  0  0  0  0  0  0  0  0  0  0
  139.9120   68.8230  229.1770 F   0  0  0  0  0  0  0  0  0  0  0  0
  140.7660   70.7840  228.1250 C   0  0  0  0  0  0  0  0  0  0  0  0
  140.9490   71.5190  226.9550 C   0  0  0  0  0  0  0  0  0  0  0  0
  140.4730   71.0280  225.7510 C   0  0  0  0  0  0  0  0  0  0  0  0
  140.6470   71.7310  224.6310 N   0  0  0  0  0  0  0  0  0  0  0  0
  139.5700   73.9070  223.1060 H   0  0  0  0  0  0  0  0  0  0  0  0
  141.0087   73.9636  220.4638 H   0  0  0  0  0  0  0  0  0  0  0  0
  139.2615   74.3592  220.4912 H   0  0  0  0  0  0  0  0  0  0  0  0
  143.2021   76.0974  219.6994 H   0  0  0  0  0  0  0  0  0  0  0  0
  141.9416   75.0202  219.2454 H   0  0  0  0  0  0  0  0  0  0  0  0
  142.2515   77.2041  217.7324 H   0  0  0  0  0  0  0  0  0  0  0  0
  140.6007   76.9395  218.2391 H   0  0  0  0  0  0  0  0  0  0  0  0
  142.5953   78.9688  219.1900 H   0  0  0  0  0  0  0  0  0  0  0  0
  140.8371   79.0341  219.3419 H   0  0  0  0  0  0  0  0  0  0  0  0
  142.8750   77.9913  221.2155 H   0  0  0  0  0  0  0  0  0  0  0  0
  142.4610   78.0568  223.5737 H   0  0  0  0  0  0  0  0  0  0  0  0
  139.4287   80.8525  224.6048 H   0  0  0  0  0  0  0  0  0  0  0  0
  139.8039   79.5687  220.5708 H   0  0  0  0  0  0  0  0  0  0  0  0
  139.1901   69.7401  222.3828 H   0  0  0  0  0  0  0  0  0  0  0  0
  138.8269   68.3737  224.4331 H   0  0  0  0  0  0  0  0  0  0  0  0
  139.1130   68.1013  226.8380 H   0  0  0  0  0  0  0  0  0  0  0  0
  141.1415   71.1716  229.0835 H   0  0  0  0  0  0  0  0  0  0  0  0
  141.4704   72.4870  226.9880 H   0  0  0  0  0  0  0  0  0  0  0  0
  1  2  2  0
  2  3  1  0
  3  4  1  0
  4  5  1  0
  5  6  2  0
  5  7  1  0
  7  8  1  0
  8  9  1  0
  9 10  1  0
 10 11  1  0
 11 12  1  0
 12 13  2  0
 13 14  1  0
 14 15  2  0
 15 16  1  0
 16 17  2  0
  2 18  1  0
 18 19  2  0
 19 20  1  0
 20 21  2  0
 21 22  1  0
 22 23  2  0
 23 24  1  0
 23 25  1  0
 25 26  2  0
 26 27  1  0
 27 28  2  0
 11  7  1  0
 17 12  1  0
 28 18  1  0
 27 21  1  0
  3 29  1  0
  4 30  1  0
  4 31  1  0
  8 32  1  0
  8 33  1  0
  9 34  1  0
  9 35  1  0
 10 36  1  0
 10 37  1  0
 11 38  1  1
 13 39  1  0
 15 40  1  0
 17 41  1  0
 19 42  1  0
 20 43  1  0
 22 44  1  0
 25 45  1  0
 26 46  1  0
M  END
>  <smiles>  (1) 
O=C(NCC(=O)N1CCC[C@H]1c1cncnc1)c1ccc2cc(F)ccc2n1

>  <score_type>  (1) 
oracle

>  <origin>  (1) 
autodockgpu

>  <m_score__min__energy>  (1) 
-8.0999999999999996

>  <m_primary>  (1) 
energy

>  <rmsd>  (1) 
1.888683738774671

>  <m_score__min__rmsd>  (1) 
1.888683738774671

>  <meeko>  (1) 
{"free_energy": -7.87, "intermolecular_energy": -9.36, "internal_energy": -1.67, "cluster_size": 20, "cluster_id": 1, "rank_in_cluster": 14}

>  <energy>  (1) 
-8.1

>  <cluster_rmsd>  (1) 
0.0

>  <cluster>  (1) 
1

$$$$

     RDKit          3D

 46 49  0  0  0  0  0  0  0  0999 V2000
  140.8380   71.7100  221.1200 O   0  0  0  0  0  0  0  0  0  0  0  0
  140.3500   72.2430  222.1500 C   0  0  0  0  0  0  0  0  0  0  0  0
  139.9600   73.6090  222.2200 N   0  0  0  0  0  0  0  0  0  0  0  0
  140.1070   74.4850  221.0750 C   0  0  0  0  0  0  0  0  0  0  0  0
  139.7720   75.8970  221.4960 C   0  0  0  0  0  0  0  0  0  0  0  0
  139.6190   76.0550  222.7320 O   0  0  0  0  0  0  0  0  0  0  0  0
  139.6680   76.8530  220.5010 N   0  0  0  0  0  0  0  0  0  0  0  0
  138.9670   76.7240  219.1910 C   0  0  0  0  0  0  0  0  0  0  0  0
  138.0520   77.9180  219.3230 C   0  0  0  0  0  0  0  0  0  0  0  0
  138.9780   78.9800  219.8750 C   0  0  0  0  0  0  0  0  0  0  0  0
  140.1580   78.2380  220.3890 C   0  0  1  0  0  0  0  0  0  0  0  0
  140.8420   78.7540  221.5490 C   0  0  0  0  0  0  0  0  0  0  0  0
  142.1920   79.0110  221.6670 C   0  0  0  0  0  0  0  0  0  0  0  0
  142.7470   79.4670  222.8070 N   0  0  0  0  0  0  0  0  0  0  0  0
  142.0010   79.7010  223.9130 C   0  0  0  0  0  0  0  0  0  0  0  0
  140.6890   79.4570  223.8170 N   0  0  0  0  0  0  0  0  0  0  0  0
  140.0880   79.0020  222.7050 C   0  0  0  0  0  0  0  0  0  0  0  0
  140.1680   71.4170  223.3620 C   0  0  0  0  0  0  0  0  0  0  0  0
  139.5610   70.1770  223.2760 C   0  0  0  0  0  0  0  0  0  0  0  0
  139.3850   69.3960  224.4060 C   0  0  0  0  0  0  0  0  0  0  0  0
  139.8300   69.8810  225.6250 C   0  0  0  0  0  0  0  0  0  0  0  0
  139.6690   69.1180  226.7840 C   0  0  0  0  0  0  0  0  0  0  0  0
  140.1250   69.6300  227.9970 C   0  0  0  0  0  0  0  0  0  0  0  0
  139.9500   68.8630  229.0890 F   0  0  0  0  0  0  0  0  0  0  0  0
  140.7260   70.8670  228.0560 C   0  0  0  0  0  0  0  0  0  0  0  0
  140.8820   71.6180  226.8930 C   0  0  0  0  0  0  0  0  0  0  0  0
  140.4310   71.1180  225.6830 C   0  0  0  0  0  0  0  0  0  0  0  0
  140.5800   71.8380  224.5700 N   0  0  0  0  0  0  0  0  0  0  0  0
  139.5540   74.0210  223.1060 H   0  0  0  0  0  0  0  0  0  0  0  0
  141.1436   74.4444  220.7091 H   0  0  0  0  0  0  0  0  0  0  0  0
  139.4296   74.1644  220.2698 H   0  0  0  0  0  0  0  0  0  0  0  0
  139.6559   76.8193  218.3388 H   0  0  0  0  0  0  0  0  0  0  0  0
  138.4758   75.7585  218.9996 H   0  0  0  0  0  0  0  0  0  0  0  0
  137.6432   78.2156  218.3461 H   0  0  0  0  0  0  0  0  0  0  0  0
  137.1733   77.7294  219.9572 H   0  0  0  0  0  0  0  0  0  0  0  0
  139.2782   79.6804  219.0817 H   0  0  0  0  0  0  0  0  0  0  0  0
  138.4947   79.5793  220.6606 H   0  0  0  0  0  0  0  0  0  0  0  0
  141.0050   78.3454  219.6954 H   0  0  0  0  0  0  0  0  0  0  0  0
  142.8411   78.8368  220.7962 H   0  0  0  0  0  0  0  0  0  0  0  0
  142.4518   80.0735  224.8447 H   0  0  0  0  0  0  0  0  0  0  0  0
  139.0026   78.8237  222.7013 H   0  0  0  0  0  0  0  0  0  0  0  0
  139.2144   69.8073  222.2997 H   0  0  0  0  0  0  0  0  0  0  0  0
  138.9015   68.4103  224.3370 H   0  0  0  0  0  0  0  0  0  0  0  0
  139.1899   68.1288  226.7397 H   0  0  0  0  0  0  0  0  0  0  0  0
  141.0822   71.2615  229.0190 H   0  0  0  0  0  0  0  0  0  0  0  0
  141.3626   72.6065  226.9359 H   0  0  0  0  0  0  0  0  0  0  0  0
  1  2  2  0
  2  3  1  0
  3  4  1  0
  4  5  1  0
  5  6  2  0
  5  7  1  0
  7  8  1  0
  8  9  1  0
  9 10  1  0
 10 11  1  0
 11 12  1  0
 12 13  2  0
 13 14  1  0
 14 15  2  0
 15 16  1  0
 16 17  2  0
  2 18  1  0
 18 19  2  0
 19 20  1  0
 20 21  2  0
 21 22  1  0
 22 23  2  0
 23 24  1  0
 23 25  1  0
 25 26  2  0
 26 27  1  0
 27 28  2  0
 11  7  1  0
 17 12  1  0
 28 18  1  0
 27 21  1  0
  3 29  1  0
  4 30  1  0
  4 31  1  0
  8 32  1  0
  8 33  1  0
  9 34  1  0
  9 35  1  0
 10 36  1  0
 10 37  1  0
 11 38  1  6
 13 39  1  0
 15 40  1  0
 17 41  1  0
 19 42  1  0
 20 43  1  0
 22 44  1  0
 25 45  1  0
 26 46  1  0
M  END
>  <smiles>  (2) 
O=C(NCC(=O)N1CCC[C@H]1c1cncnc1)c1ccc2cc(F)ccc2n1

>  <score_type>  (2) 
oracle

>  <origin>  (2) 
autodockgpu

>  <m_score__min__energy>  (2) 
-8.0999999999999996

>  <m_primary>  (2) 
energy

>  <rmsd>  (2) 
1.8802397138502325

>  <m_score__min__rmsd>  (2) 
1.8802397138502325

>  <meeko>  (2) 
{"free_energy": -7.27, "intermolecular_energy": -8.76, "internal_energy": -1.73, "cluster_size": 20, "cluster_id": 1, "rank_in_cluster": 20}

>  <energy>  (2) 
-8.09

>  <cluster_rmsd>  (2) 
1.5

>  <cluster>  (2) 
1

$$$$

     RDKit          3D

 46 49  0  0  0  0  0  0  0  0999 V2000
  141.0380   71.7430  221.2160 O   0  0  0  0  0  0  0  0  0  0  0  0
  140.4680   72.2670  222.2080 C   0  0  0  0  0  0  0  0  0  0  0  0
  140.0330   73.6200  222.2410 N   0  0  0  0  0  0  0  0  0  0  0  0
  140.2270   74.4930  221.1010 C   0  0  0  0  0  0  0  0  0  0  0  0
  140.5650   75.8790  221.5990 C   0  0  0  0  0  0  0  0  0  0  0  0
  140.0000   76.2040  222.6730 O   0  0  0  0  0  0  0  0  0  0  0  0
  141.4410   76.6350  220.8410 N   0  0  0  0  0  0  0  0  0  0  0  0
  142.2690   76.1770  219.6880 C   0  0  0  0  0  0  0  0  0  0  0  0
  141.7830   77.1790  218.6690 C   0  0  0  0  0  0  0  0  0  0  0  0
  141.7740   78.4700  219.4580 C   0  0  0  0  0  0  0  0  0  0  0  0
  141.8320   78.0550  220.8830 C   0  0  1  0  0  0  0  0  0  0  0  0
  141.1470   78.8630  221.8630 C   0  0  0  0  0  0  0  0  0  0  0  0
  139.8050   79.1790  221.8810 C   0  0  0  0  0  0  0  0  0  0  0  0
  139.2600   79.9700  222.8260 N   0  0  0  0  0  0  0  0  0  0  0  0
  140.0070   80.5040  223.8220 C   0  0  0  0  0  0  0  0  0  0  0  0
  141.3130   80.2080  223.8180 N   0  0  0  0  0  0  0  0  0  0  0  0
  141.9040   79.4260  222.9000 C   0  0  0  0  0  0  0  0  0  0  0  0
  140.2330   71.4440  223.4120 C   0  0  0  0  0  0  0  0  0  0  0  0
  139.5440   70.2470  223.3150 C   0  0  0  0  0  0  0  0  0  0  0  0
  139.3180   69.4690  224.4380 C   0  0  0  0  0  0  0  0  0  0  0  0
  139.7970   69.9110  225.6610 C   0  0  0  0  0  0  0  0  0  0  0  0
  139.5870   69.1500  226.8130 C   0  0  0  0  0  0  0  0  0  0  0  0
  140.0790   69.6190  228.0300 C   0  0  0  0  0  0  0  0  0  0  0  0
  139.8550   68.8550  229.1140 F   0  0  0  0  0  0  0  0  0  0  0  0
  140.7610   70.8120  228.0990 C   0  0  0  0  0  0  0  0  0  0  0  0
  140.9650   71.5620  226.9430 C   0  0  0  0  0  0  0  0  0  0  0  0
  140.4800   71.1050  225.7290 C   0  0  0  0  0  0  0  0  0  0  0  0
  140.6740   71.8240  224.6220 N   0  0  0  0  0  0  0  0  0  0  0  0
  139.5580   74.0250  223.0960 H   0  0  0  0  0  0  0  0  0  0  0  0
  141.0514   74.1123  220.4802 H   0  0  0  0  0  0  0  0  0  0  0  0
  139.3084   74.5274  220.4968 H   0  0  0  0  0  0  0  0  0  0  0  0
  143.3470   76.2727  219.8851 H   0  0  0  0  0  0  0  0  0  0  0  0
  142.1660   75.1176  219.4104 H   0  0  0  0  0  0  0  0  0  0  0  0
  142.4710   77.2410  217.8130 H   0  0  0  0  0  0  0  0  0  0  0  0
  140.8052   76.9237  218.2346 H   0  0  0  0  0  0  0  0  0  0  0  0
  142.6478   79.0862  219.1997 H   0  0  0  0  0  0  0  0  0  0  0  0
  140.8829   79.0778  219.2424 H   0  0  0  0  0  0  0  0  0  0  0  0
  142.8435   78.2165  221.2839 H   0  0  0  0  0  0  0  0  0  0  0  0
  139.1545   78.7698  221.0940 H   0  0  0  0  0  0  0  0  0  0  0  0
  139.5631   81.1483  224.5952 H   0  0  0  0  0  0  0  0  0  0  0  0
  142.9841   79.2269  222.9618 H   0  0  0  0  0  0  0  0  0  0  0  0
  139.1724   69.9106  222.3359 H   0  0  0  0  0  0  0  0  0  0  0  0
  138.7691   68.5189  224.3609 H   0  0  0  0  0  0  0  0  0  0  0  0
  139.0421   68.1959  226.7609 H   0  0  0  0  0  0  0  0  0  0  0  0
  141.1443   71.1727  229.0649 H   0  0  0  0  0  0  0  0  0  0  0  0
  141.5105   72.5158  226.9943 H   0  0  0  0  0  0  0  0  0  0  0  0
  1  2  2  0
  2  3  1  0
  3  4  1  0
  4  5  1  0
  5  6  2  0
  5  7  1  0
  7  8  1  0
  8  9  1  0
  9 10  1  0
 10 11  1  0
 11 12  1  0
 12 13  2  0
 13 14  1  0
 14 15  2  0
 15 16  1  0
 16 17  2  0
  2 18  1  0
 18 19  2  0
 19 20  1  0
 20 21  2  0
 21 22  1  0
 22 23  2  0
 23 24  1  0
 23 25  1  0
 25 26  2  0
 26 27  1  0
 27 28  2  0
 11  7  1  0
 17 12  1  0
 28 18  1  0
 27 21  1  0
  3 29  1  0
  4 30  1  0
  4 31  1  0
  8 32  1  0
  8 33  1  0
  9 34  1  0
  9 35  1  0
 10 36  1  0
 10 37  1  0
 11 38  1  1
 13 39  1  0
 15 40  1  0
 17 41  1  0
 19 42  1  0
 20 43  1  0
 22 44  1  0
 25 45  1  0
 26 46  1  0
M  END
>  <smiles>  (3) 
O=C(NCC(=O)N1CCC[C@H]1c1cncnc1)c1ccc2cc(F)ccc2n1

>  <score_type>  (3) 
oracle

>  <origin>  (3) 
autodockgpu

>  <m_score__min__energy>  (3) 
-8.0999999999999996

>  <m_primary>  (3) 
energy

>  <rmsd>  (3) 
2.0016397451797556

>  <m_score__min__rmsd>  (3) 
2.0016397451797556

>  <meeko>  (3) 
{"free_energy": -8.0, "intermolecular_energy": -9.49, "internal_energy": -1.63, "cluster_size": 20, "cluster_id": 1, "rank_in_cluster": 5}

>  <energy>  (3) 
-8.06

>  <cluster_rmsd>  (3) 
1.54

>  <cluster>  (3) 
1

$$$$

     RDKit          3D

 46 49  0  0  0  0  0  0  0  0999 V2000
  140.8930   71.6030  221.1490 O   0  0  0  0  0  0  0  0  0  0  0  0
  140.3890   72.1400  222.1700 C   0  0  0  0  0  0  0  0  0  0  0  0
  139.9920   73.5040  222.2270 N   0  0  0  0  0  0  0  0  0  0  0  0
  140.1500   74.3740  221.0800 C   0  0  0  0  0  0  0  0  0  0  0  0
  140.5150   75.7590  221.5640 C   0  0  0  0  0  0  0  0  0  0  0  0
  139.9800   76.0930  222.6500 O   0  0  0  0  0  0  0  0  0  0  0  0
  141.3800   76.5020  220.7820 N   0  0  0  0  0  0  0  0  0  0  0  0
  142.1040   76.0560  219.5560 C   0  0  0  0  0  0  0  0  0  0  0  0
  141.6090   77.1280  218.6160 C   0  0  0  0  0  0  0  0  0  0  0  0
  141.7230   78.3800  219.4590 C   0  0  0  0  0  0  0  0  0  0  0  0
  141.8510   77.8970  220.8580 C   0  0  1  0  0  0  0  0  0  0  0  0
  141.2770   78.6920  221.9150 C   0  0  0  0  0  0  0  0  0  0  0  0
  141.5970   78.6400  223.2560 C   0  0  0  0  0  0  0  0  0  0  0  0
  140.9820   79.4060  224.1780 N   0  0  0  0  0  0  0  0  0  0  0  0
  140.0060   80.2810  223.8360 C   0  0  0  0  0  0  0  0  0  0  0  0
  139.6820   80.3440  222.5390 N   0  0  0  0  0  0  0  0  0  0  0  0
  140.2640   79.6020  221.5820 C   0  0  0  0  0  0  0  0  0  0  0  0
  140.1950   71.3190  223.3840 C   0  0  0  0  0  0  0  0  0  0  0  0
  139.5510   70.0970  223.3040 C   0  0  0  0  0  0  0  0  0  0  0  0
  139.3630   69.3220  224.4360 C   0  0  0  0  0  0  0  0  0  0  0  0
  139.8350   69.7930  225.6500 C   0  0  0  0  0  0  0  0  0  0  0  0
  139.6630   69.0360  226.8110 C   0  0  0  0  0  0  0  0  0  0  0  0
  140.1470   69.5340  228.0190 C   0  0  0  0  0  0  0  0  0  0  0  0
  139.9600   68.7730  229.1120 F   0  0  0  0  0  0  0  0  0  0  0  0
  140.7840   70.7520  228.0710 C   0  0  0  0  0  0  0  0  0  0  0  0
  140.9500   71.4990  226.9070 C   0  0  0  0  0  0  0  0  0  0  0  0
  140.4730   71.0120  225.7010 C   0  0  0  0  0  0  0  0  0  0  0  0
  140.6310   71.7270  224.5870 N   0  0  0  0  0  0  0  0  0  0  0  0
  139.5730   73.9180  223.1060 H   0  0  0  0  0  0  0  0  0  0  0  0
  140.9488   73.9872  220.4302 H   0  0  0  0  0  0  0  0  0  0  0  0
  139.2104   74.4136  220.5094 H   0  0  0  0  0  0  0  0  0  0  0  0
  143.1962   76.0858  219.6834 H   0  0  0  0  0  0  0  0  0  0  0  0
  141.9240   75.0176  219.2407 H   0  0  0  0  0  0  0  0  0  0  0  0
  142.2422   77.1936  217.7189 H   0  0  0  0  0  0  0  0  0  0  0  0
  140.5925   76.9447  218.2378 H   0  0  0  0  0  0  0  0  0  0  0  0
  142.6108   78.9610  219.1687 H   0  0  0  0  0  0  0  0  0  0  0  0
  140.8545   79.0427  219.3306 H   0  0  0  0  0  0  0  0  0  0  0  0
  142.8940   77.9874  221.1956 H   0  0  0  0  0  0  0  0  0  0  0  0
  142.3847   77.9463  223.5851 H   0  0  0  0  0  0  0  0  0  0  0  0
  139.5045   80.9088  224.5873 H   0  0  0  0  0  0  0  0  0  0  0  0
  139.9449   79.7088  220.5347 H   0  0  0  0  0  0  0  0  0  0  0  0
  139.1846   69.7375  222.3311 H   0  0  0  0  0  0  0  0  0  0  0  0
  138.8490   68.3515  224.3724 H   0  0  0  0  0  0  0  0  0  0  0  0
  139.1534   68.0619  226.7724 H   0  0  0  0  0  0  0  0  0  0  0  0
  141.1617   71.1356  229.0303 H   0  0  0  0  0  0  0  0  0  0  0  0
  141.4588   72.4735  226.9454 H   0  0  0  0  0  0  0  0  0  0  0  0
  1  2  2  0
  2  3  1  0
  3  4  1  0
  4  5  1  0
  5  6  2  0
  5  7  1  0
  7  8  1  0
  8  9  1  0
  9 10  1  0
 10 11  1  0
 11 12  1  0
 12 13  2  0
 13 14  1  0
 14 15  2  0
 15 16  1  0
 16 17  2  0
  2 18  1  0
 18 19  2  0
 19 20  1  0
 20 21  2  0
 21 22  1  0
 22 23  2  0
 23 24  1  0
 23 25  1  0
 25 26  2  0
 26 27  1  0
 27 28  2  0
 11  7  1  0
 17 12  1  0
 28 18  1  0
 27 21  1  0
  3 29  1  0
  4 30  1  0
  4 31  1  0
  8 32  1  0
  8 33  1  0
  9 34  1  0
  9 35  1  0
 10 36  1  0
 10 37  1  0
 11 38  1  1
 13 39  1  0
 15 40  1  0
 17 41  1  0
 19 42  1  0
 20 43  1  0
 22 44  1  0
 25 45  1  0
 26 46  1  0
M  END
>  <smiles>  (4) 
O=C(NCC(=O)N1CCC[C@H]1c1cncnc1)c1ccc2cc(F)ccc2n1

>  <score_type>  (4) 
oracle

>  <origin>  (4) 
autodockgpu

>  <m_score__min__energy>  (4) 
-8.0999999999999996

>  <m_primary>  (4) 
energy

>  <rmsd>  (4) 
1.872748798788413

>  <m_score__min__rmsd>  (4) 
1.872748798788413

>  <meeko>  (4) 
{"free_energy": -7.88, "intermolecular_energy": -9.38, "internal_energy": -1.66, "cluster_size": 20, "cluster_id": 1, "rank_in_cluster": 13}

>  <energy>  (4) 
-8.01

>  <cluster_rmsd>  (4) 
1.59

>  <cluster>  (4) 
1

$$$$

     RDKit          3D

 46 49  0  0  0  0  0  0  0  0999 V2000
  141.1620   71.5040  221.3920 O   0  0  0  0  0  0  0  0  0  0  0  0
  140.5400   72.0620  222.3330 C   0  0  0  0  0  0  0  0  0  0  0  0
  140.0920   73.4100  222.2900 N   0  0  0  0  0  0  0  0  0  0  0  0
  140.3340   74.2390  221.1260 C   0  0  0  0  0  0  0  0  0  0  0  0
  140.5600   75.6630  221.5800 C   0  0  0  0  0  0  0  0  0  0  0  0
  139.9270   75.9920  222.6140 O   0  0  0  0  0  0  0  0  0  0  0  0
  141.4190   76.4450  220.8290 N   0  0  0  0  0  0  0  0  0  0  0  0
  142.2030   76.0340  219.6280 C   0  0  0  0  0  0  0  0  0  0  0  0
  141.6940   77.0860  218.6730 C   0  0  0  0  0  0  0  0  0  0  0  0
  141.7250   78.3390  219.5200 C   0  0  0  0  0  0  0  0  0  0  0  0
  141.8260   77.8580  220.9230 C   0  0  1  0  0  0  0  0  0  0  0  0
  141.1830   78.6260  221.9610 C   0  0  0  0  0  0  0  0  0  0  0  0
  141.5590   78.7020  223.2850 C   0  0  0  0  0  0  0  0  0  0  0  0
  140.8740   79.4270  224.1920 N   0  0  0  0  0  0  0  0  0  0  0  0
  139.7670   80.1290  223.8490 C   0  0  0  0  0  0  0  0  0  0  0  0
  139.3890   80.0650  222.5670 N   0  0  0  0  0  0  0  0  0  0  0  0
  140.0360   79.3580  221.6260 C   0  0  0  0  0  0  0  0  0  0  0  0
  140.2520   71.2840  223.5560 C   0  0  0  0  0  0  0  0  0  0  0  0
  139.5510   70.0950  223.4780 C   0  0  0  0  0  0  0  0  0  0  0  0
  139.2760   69.3590  224.6190 C   0  0  0  0  0  0  0  0  0  0  0  0
  139.7190   69.8380  225.8410 C   0  0  0  0  0  0  0  0  0  0  0  0
  139.4600   69.1210  227.0110 C   0  0  0  0  0  0  0  0  0  0  0  0
  139.9170   69.6260  228.2270 C   0  0  0  0  0  0  0  0  0  0  0  0
  139.6460   68.9040  229.3290 F   0  0  0  0  0  0  0  0  0  0  0  0
  140.6140   70.8120  228.2780 C   0  0  0  0  0  0  0  0  0  0  0  0
  140.8670   71.5190  227.1040 C   0  0  0  0  0  0  0  0  0  0  0  0
  140.4160   71.0250  225.8910 C   0  0  0  0  0  0  0  0  0  0  0  0
  140.6580   71.7020  224.7670 N   0  0  0  0  0  0  0  0  0  0  0  0
  139.5720   73.8440  223.1040 H   0  0  0  0  0  0  0  0  0  0  0  0
  141.2244   73.8756  220.5921 H   0  0  0  0  0  0  0  0  0  0  0  0
  139.4675   74.1956  220.4498 H   0  0  0  0  0  0  0  0  0  0  0  0
  143.2879   76.1109  219.7926 H   0  0  0  0  0  0  0  0  0  0  0  0
  142.0792   74.9896  219.3056 H   0  0  0  0  0  0  0  0  0  0  0  0
  142.3537   77.1812  217.7979 H   0  0  0  0  0  0  0  0  0  0  0  0
  140.6997   76.8598  218.2605 H   0  0  0  0  0  0  0  0  0  0  0  0
  142.5963   78.9584  219.2608 H   0  0  0  0  0  0  0  0  0  0  0  0
  140.8337   78.9641  219.3626 H   0  0  0  0  0  0  0  0  0  0  0  0
  142.8518   77.9918  221.2970 H   0  0  0  0  0  0  0  0  0  0  0  0
  142.4519   78.1502  223.6140 H   0  0  0  0  0  0  0  0  0  0  0  0
  139.2071   80.7218  224.5874 H   0  0  0  0  0  0  0  0  0  0  0  0
  139.6648   79.3536  220.5905 H   0  0  0  0  0  0  0  0  0  0  0  0
  139.2077   69.7293  222.4990 H   0  0  0  0  0  0  0  0  0  0  0  0
  138.7173   68.4136  224.5559 H   0  0  0  0  0  0  0  0  0  0  0  0
  138.9041   68.1726  226.9735 H   0  0  0  0  0  0  0  0  0  0  0  0
  140.9705   71.2008  229.2433 H   0  0  0  0  0  0  0  0  0  0  0  0
  141.4235   72.4671  227.1405 H   0  0  0  0  0  0  0  0  0  0  0  0
  1  2  2  0
  2  3  1  0
  3  4  1  0
  4  5  1  0
  5  6  2  0
  5  7  1  0
  7  8  1  0
  8  9  1  0
  9 10  1  0
 10 11  1  0
 11 12  1  0
 12 13  2  0
 13 14  1  0
 14 15  2  0
 15 16  1  0
 16 17  2  0
  2 18  1  0
 18 19  2  0
 19 20  1  0
 20 21  2  0
 21 22  1  0
 22 23  2  0
 23 24  1  0
 23 25  1  0
 25 26  2  0
 26 27  1  0
 27 28  2  0
 11  7  1  0
 17 12  1  0
 28 18  1  0
 27 21  1  0
  3 29  1  0
  4 30  1  0
  4 31  1  0
  8 32  1  0
  8 33  1  0
  9 34  1  0
  9 35  1  0
 10 36  1  0
 10 37  1  0
 11 38  1  1
 13 39  1  0
 15 40  1  0
 17 41  1  0
 19 42  1  0
 20 43  1  0
 22 44  1  0
 25 45  1  0
 26 46  1  0
M  END
>  <smiles>  (5) 
O=C(NCC(=O)N1CCC[C@H]1c1cncnc1)c1ccc2cc(F)ccc2n1

>  <score_type>  (5) 
oracle

>  <origin>  (5) 
autodockgpu

>  <m_score__min__energy>  (5) 
-8.0999999999999996

>  <m_primary>  (5) 
energy

>  <rmsd>  (5) 
1.9590437928889204

>  <m_score__min__rmsd>  (5) 
1.9590437928889204

>  <meeko>  (5) 
{"free_energy": -7.87, "intermolecular_energy": -9.36, "internal_energy": -1.68, "cluster_size": 20, "cluster_id": 1, "rank_in_cluster": 15}

>  <energy>  (5) 
-8.0

>  <cluster_rmsd>  (5) 
1.59

>  <cluster>  (5) 
1

$$$$

     RDKit          3D

 46 49  0  0  0  0  0  0  0  0999 V2000
  139.9560   71.2720  220.9430 O   0  0  0  0  0  0  0  0  0  0  0  0
  139.8160   71.8830  222.0340 C   0  0  0  0  0  0  0  0  0  0  0  0
  139.6510   73.2920  222.1300 N   0  0  0  0  0  0  0  0  0  0  0  0
  139.6340   74.1230  220.9430 C   0  0  0  0  0  0  0  0  0  0  0  0
  140.4900   75.3440  221.1910 C   0  0  0  0  0  0  0  0  0  0  0  0
  140.5720   75.6930  222.3940 O   0  0  0  0  0  0  0  0  0  0  0  0
  141.0820   75.9430  220.0930 N   0  0  0  0  0  0  0  0  0  0  0  0
  140.5940   77.1310  219.3360 C   0  0  0  0  0  0  0  0  0  0  0  0
  141.8320   77.9860  219.4640 C   0  0  0  0  0  0  0  0  0  0  0  0
  142.9430   76.9960  219.1870 C   0  0  0  0  0  0  0  0  0  0  0  0
  142.3190   75.6570  219.3440 C   0  0  1  0  0  0  0  0  0  0  0  0
  143.1260   74.5780  219.8580 C   0  0  0  0  0  0  0  0  0  0  0  0
  142.7320   73.2710  220.0530 C   0  0  0  0  0  0  0  0  0  0  0  0
  143.5530   72.3360  220.5700 N   0  0  0  0  0  0  0  0  0  0  0  0
  144.8250   72.6310  220.9300 C   0  0  0  0  0  0  0  0  0  0  0  0
  145.2240   73.8960  220.7480 N   0  0  0  0  0  0  0  0  0  0  0  0
  144.4450   74.8640  220.2380 C   0  0  0  0  0  0  0  0  0  0  0  0
  139.8220   71.1080  223.2920 C   0  0  0  0  0  0  0  0  0  0  0  0
  139.2710   69.8390  223.3310 C   0  0  0  0  0  0  0  0  0  0  0  0
  139.2720   69.1050  224.5060 C   0  0  0  0  0  0  0  0  0  0  0  0
  139.8360   69.6650  225.6400 C   0  0  0  0  0  0  0  0  0  0  0  0
  139.8550   68.9510  226.8400 C   0  0  0  0  0  0  0  0  0  0  0  0
  140.4280   69.5390  227.9660 C   0  0  0  0  0  0  0  0  0  0  0  0
  140.4240   68.8170  229.1010 F   0  0  0  0  0  0  0  0  0  0  0  0
  140.9700   70.8020  227.8990 C   0  0  0  0  0  0  0  0  0  0  0  0
  140.9470   71.5050  226.6970 C   0  0  0  0  0  0  0  0  0  0  0  0
  140.3790   70.9290  225.5720 C   0  0  0  0  0  0  0  0  0  0  0  0
  140.3560   71.6020  224.4210 N   0  0  0  0  0  0  0  0  0  0  0  0
  139.5370   73.7700  223.0680 H   0  0  0  0  0  0  0  0  0  0  0  0
  140.0357   73.5570  220.0896 H   0  0  0  0  0  0  0  0  0  0  0  0
  138.6023   74.4296  220.7161 H   0  0  0  0  0  0  0  0  0  0  0  0
  140.3606   76.8902  218.2884 H   0  0  0  0  0  0  0  0  0  0  0  0
  139.6574   77.5813  219.6965 H   0  0  0  0  0  0  0  0  0  0  0  0
  141.8312   78.8001  218.7243 H   0  0  0  0  0  0  0  0  0  0  0  0
  141.9219   78.4846  220.4404 H   0  0  0  0  0  0  0  0  0  0  0  0
  143.3284   77.1246  218.1648 H   0  0  0  0  0  0  0  0  0  0  0  0
  143.7963   77.1344  219.8672 H   0  0  0  0  0  0  0  0  0  0  0  0
  142.1364   75.2057  218.3576 H   0  0  0  0  0  0  0  0  0  0  0  0
  141.7079   72.9805  219.7758 H   0  0  0  0  0  0  0  0  0  0  0  0
  145.4971   71.8688  221.3511 H   0  0  0  0  0  0  0  0  0  0  0  0
  144.8424   75.8827  220.1183 H   0  0  0  0  0  0  0  0  0  0  0  0
  138.8281   69.4091  222.4205 H   0  0  0  0  0  0  0  0  0  0  0  0
  138.8332   68.0968  224.5375 H   0  0  0  0  0  0  0  0  0  0  0  0
  139.4244   67.9403  226.8955 H   0  0  0  0  0  0  0  0  0  0  0  0
  141.4209   71.2559  228.7938 H   0  0  0  0  0  0  0  0  0  0  0  0
  141.3788   72.5152  226.6408 H   0  0  0  0  0  0  0  0  0  0  0  0
  1  2  2  0
  2  3  1  0
  3  4  1  0
  4  5  1  0
  5  6  2  0
  5  7  1  0
  7  8  1  0
  8  9  1  0
  9 10  1  0
 10 11  1  0
 11 12  1  0
 12 13  2  0
 13 14  1  0
 14 15  2  0
 15 16  1  0
 16 17  2  0
  2 18  1  0
 18 19  2  0
 19 20  1  0
 20 21  2  0
 21 22  1  0
 22 23  2  0
 23 24  1  0
 23 25  1  0
 25 26  2  0
 26 27  1  0
 27 28  2  0
 11  7  1  0
 17 12  1  0
 28 18  1  0
 27 21  1  0
  3 29  1  0
  4 30  1  0
  4 31  1  0
  8 32  1  0
  8 33  1  0
  9 34  1  0
  9 35  1  0
 10 36  1  0
 10 37  1  0
 11 38  1  6
 13 39  1  0
 15 40  1  0
 17 41  1  0
 19 42  1  0
 20 43  1  0
 22 44  1  0
 25 45  1  0
 26 46  1  0
M  END
>  <smiles>  (6) 
O=C(NCC(=O)N1CCC[C@H]1c1cncnc1)c1ccc2cc(F)ccc2n1

>  <score_type>  (6) 
oracle

>  <origin>  (6) 
autodockgpu

>  <m_score__min__energy>  (6) 
-8.0999999999999996

>  <m_primary>  (6) 
energy

>  <rmsd>  (6) 
1.8045899316639873

>  <m_score__min__rmsd>  (6) 
1.8045899316639873

>  <meeko>  (6) 
{"free_energy": -7.62, "intermolecular_energy": -9.11, "internal_energy": -1.93, "cluster_size": 24, "cluster_id": 2, "rank_in_cluster": 8}

>  <energy>  (6) 
-8.0

>  <cluster_rmsd>  (6) 
1.56

>  <cluster>  (6) 
1

$$$$

     RDKit          3D

 46 49  0  0  0  0  0  0  0  0999 V2000
  138.9300   71.3750  221.3040 O   0  0  0  0  0  0  0  0  0  0  0  0
  139.9250   71.3800  222.0750 C   0  0  0  0  0  0  0  0  0  0  0  0
  141.1450   72.0480  221.7800 N   0  0  0  0  0  0  0  0  0  0  0  0
  141.3130   72.7800  220.5410 C   0  0  0  0  0  0  0  0  0  0  0  0
  141.3000   74.2610  220.8450 C   0  0  0  0  0  0  0  0  0  0  0  0
  140.8680   74.5600  221.9860 O   0  0  0  0  0  0  0  0  0  0  0  0
  141.7530   75.1200  219.8600 N   0  0  0  0  0  0  0  0  0  0  0  0
  141.0050   76.2410  219.2210 C   0  0  0  0  0  0  0  0  0  0  0  0
  141.9900   77.3470  219.5170 C   0  0  0  0  0  0  0  0  0  0  0  0
  143.3170   76.6990  219.1880 C   0  0  0  0  0  0  0  0  0  0  0  0
  143.0400   75.2400  219.1510 C   0  0  1  0  0  0  0  0  0  0  0  0
  144.0760   74.3330  219.5800 C   0  0  0  0  0  0  0  0  0  0  0  0
  144.6000   74.2170  220.8500 C   0  0  0  0  0  0  0  0  0  0  0  0
  145.5930   73.3560  221.1480 N   0  0  0  0  0  0  0  0  0  0  0  0
  146.1360   72.5470  220.2080 C   0  0  0  0  0  0  0  0  0  0  0  0
  145.6390   72.6470  218.9690 N   0  0  0  0  0  0  0  0  0  0  0  0
  144.6520   73.4880  218.6200 C   0  0  0  0  0  0  0  0  0  0  0  0
  139.8350   70.6550  223.3590 C   0  0  0  0  0  0  0  0  0  0  0  0
  139.1280   69.4690  223.4430 C   0  0  0  0  0  0  0  0  0  0  0  0
  139.0380   68.7820  224.6420 C   0  0  0  0  0  0  0  0  0  0  0  0
  139.6710   69.3070  225.7570 C   0  0  0  0  0  0  0  0  0  0  0  0
  139.6010   68.6390  226.9820 C   0  0  0  0  0  0  0  0  0  0  0  0
  140.2470   69.1900  228.0880 C   0  0  0  0  0  0  0  0  0  0  0  0
  140.1540   68.5150  229.2480 F   0  0  0  0  0  0  0  0  0  0  0  0
  140.9440   70.3710  227.9780 C   0  0  0  0  0  0  0  0  0  0  0  0
  141.0080   71.0270  226.7510 C   0  0  0  0  0  0  0  0  0  0  0  0
  140.3690   70.4890  225.6460 C   0  0  0  0  0  0  0  0  0  0  0  0
  140.4300   71.1170  224.4720 N   0  0  0  0  0  0  0  0  0  0  0  0
  141.9600   72.0270  222.4540 H   0  0  0  0  0  0  0  0  0  0  0  0
  142.2720   72.5062  220.0768 H   0  0  0  0  0  0  0  0  0  0  0  0
  140.4957   72.5335  219.8473 H   0  0  0  0  0  0  0  0  0  0  0  0
  140.8647   76.0861  218.1410 H   0  0  0  0  0  0  0  0  0  0  0  0
  139.9773   76.4014  219.5789 H   0  0  0  0  0  0  0  0  0  0  0  0
  141.8067   78.2241  218.8789 H   0  0  0  0  0  0  0  0  0  0  0  0
  141.9295   77.7242  220.5485 H   0  0  0  0  0  0  0  0  0  0  0  0
  143.6843   77.0467  218.2112 H   0  0  0  0  0  0  0  0  0  0  0  0
  144.0920   76.9515  219.9267 H   0  0  0  0  0  0  0  0  0  0  0  0
  142.9987   74.8876  218.1098 H   0  0  0  0  0  0  0  0  0  0  0  0
  144.1920   74.8515  221.6506 H   0  0  0  0  0  0  0  0  0  0  0  0
  146.9453   71.8425  220.4503 H   0  0  0  0  0  0  0  0  0  0  0  0
  144.2947   73.5143  217.5800 H   0  0  0  0  0  0  0  0  0  0  0  0
  138.6317   69.0671  222.5473 H   0  0  0  0  0  0  0  0  0  0  0  0
  138.4755   67.8390  224.7078 H   0  0  0  0  0  0  0  0  0  0  0  0
  139.0454   67.6939  227.0725 H   0  0  0  0  0  0  0  0  0  0  0  0
  141.4498   70.7964  228.8574 H   0  0  0  0  0  0  0  0  0  0  0  0
  141.5652   71.9710  226.6596 H   0  0  0  0  0  0  0  0  0  0  0  0
  1  2  2  0
  2  3  1  0
  3  4  1  0
  4  5  1  0
  5  6  2  0
  5  7  1  0
  7  8  1  0
  8  9  1  0
  9 10  1  0
 10 11  1  0
 11 12  1  0
 12 13  2  0
 13 14  1  0
 14 15  2  0
 15 16  1  0
 16 17  2  0
  2 18  1  0
 18 19  2  0
 19 20  1  0
 20 21  2  0
 21 22  1  0
 22 23  2  0
 23 24  1  0
 23 25  1  0
 25 26  2  0
 26 27  1  0
 27 28  2  0
 11  7  1  0
 17 12  1  0
 28 18  1  0
 27 21  1  0
  3 29  1  0
  4 30  1  0
  4 31  1  0
  8 32  1  0
  8 33  1  0
  9 34  1  0
  9 35  1  0
 10 36  1  0
 10 37  1  0
 11 38  1  6
 13 39  1  0
 15 40  1  0
 17 41  1  0
 19 42  1  0
 20 43  1  0
 22 44  1  0
 25 45  1  0
 26 46  1  0
M  END
>  <smiles>  (7) 
O=C(NCC(=O)N1CCC[C@H]1c1cncnc1)c1ccc2cc(F)ccc2n1

>  <score_type>  (7) 
oracle

>  <origin>  (7) 
autodockgpu

>  <m_score__min__energy>  (7) 
-8.0999999999999996

>  <m_primary>  (7) 
energy

>  <rmsd>  (7) 
2.207680895352785

>  <m_score__min__rmsd>  (7) 
2.207680895352785

>  <meeko>  (7) 
{"free_energy": -7.73, "intermolecular_energy": -9.22, "internal_energy": -1.35, "cluster_size": 24, "cluster_id": 2, "rank_in_cluster": 3}

>  <energy>  (7) 
-8.0

>  <cluster_rmsd>  (7) 
1.57

>  <cluster>  (7) 
1

$$$$

     RDKit          3D

 46 49  0  0  0  0  0  0  0  0999 V2000
  141.3460   72.2710  221.5190 O   0  0  0  0  0  0  0  0  0  0  0  0
  140.4660   72.5380  222.3770 C   0  0  0  0  0  0  0  0  0  0  0  0
  139.6480   73.7000  222.3300 N   0  0  0  0  0  0  0  0  0  0  0  0
  139.7870   74.6660  221.2590 C   0  0  0  0  0  0  0  0  0  0  0  0
  140.1430   76.0090  221.8550 C   0  0  0  0  0  0  0  0  0  0  0  0
  141.3010   76.0800  222.3360 O   0  0  0  0  0  0  0  0  0  0  0  0
  139.1800   77.0010  221.8150 N   0  0  0  0  0  0  0  0  0  0  0  0
  137.7350   76.8490  221.4780 C   0  0  0  0  0  0  0  0  0  0  0  0
  137.1600   77.4550  222.7360 C   0  0  0  0  0  0  0  0  0  0  0  0
  138.0290   78.6780  222.9360 C   0  0  0  0  0  0  0  0  0  0  0  0
  139.2250   78.4500  222.0840 C   0  0  1  0  0  0  0  0  0  0  0  0
  140.4960   78.9630  222.5320 C   0  0  0  0  0  0  0  0  0  0  0  0
  140.9660   78.9900  223.8280 C   0  0  0  0  0  0  0  0  0  0  0  0
  142.1610   79.5210  224.1540 N   0  0  0  0  0  0  0  0  0  0  0  0
  142.9760   80.0620  223.2170 C   0  0  0  0  0  0  0  0  0  0  0  0
  142.5350   80.0440  221.9540 N   0  0  0  0  0  0  0  0  0  0  0  0
  141.3530   79.5280  221.5770 C   0  0  0  0  0  0  0  0  0  0  0  0
  140.2610   71.6030  223.5030 C   0  0  0  0  0  0  0  0  0  0  0  0
  139.5830   70.4140  223.3070 C   0  0  0  0  0  0  0  0  0  0  0  0
  139.3860   69.5310  224.3560 C   0  0  0  0  0  0  0  0  0  0  0  0
  139.8830   69.8620  225.6060 C   0  0  0  0  0  0  0  0  0  0  0  0
  139.7020   68.9940  226.6850 C   0  0  0  0  0  0  0  0  0  0  0  0
  140.2120   69.3530  227.9310 C   0  0  0  0  0  0  0  0  0  0  0  0
  140.0160   68.4880  228.9440 F   0  0  0  0  0  0  0  0  0  0  0  0
  140.8840   70.5420  228.1000 C   0  0  0  0  0  0  0  0  0  0  0  0
  141.0590   71.3990  227.0160 C   0  0  0  0  0  0  0  0  0  0  0  0
  140.5550   71.0520  225.7730 C   0  0  0  0  0  0  0  0  0  0  0  0
  140.7220   71.8730  224.7360 N   0  0  0  0  0  0  0  0  0  0  0  0
  138.9190   73.8900  223.0730 H   0  0  0  0  0  0  0  0  0  0  0  0
  140.5835   74.3439  220.5721 H   0  0  0  0  0  0  0  0  0  0  0  0
  138.8417   74.7439  220.7020 H   0  0  0  0  0  0  0  0  0  0  0  0
  137.4555   77.4154  220.5774 H   0  0  0  0  0  0  0  0  0  0  0  0
  137.4005   75.8291  221.2373 H   0  0  0  0  0  0  0  0  0  0  0  0
  136.1054   77.7350  222.5965 H   0  0  0  0  0  0  0  0  0  0  0  0
  137.1640   76.7684  223.5954 H   0  0  0  0  0  0  0  0  0  0  0  0
  137.4961   79.5861  222.6176 H   0  0  0  0  0  0  0  0  0  0  0  0
  138.2986   78.8224  223.9927 H   0  0  0  0  0  0  0  0  0  0  0  0
  139.1652   79.0645  221.1736 H   0  0  0  0  0  0  0  0  0  0  0  0
  140.3418   78.5618  224.6262 H   0  0  0  0  0  0  0  0  0  0  0  0
  143.9521   80.4947  223.4814 H   0  0  0  0  0  0  0  0  0  0  0  0
  141.0573   79.5489  220.5177 H   0  0  0  0  0  0  0  0  0  0  0  0
  139.1959   70.1667  222.3075 H   0  0  0  0  0  0  0  0  0  0  0  0
  138.8456   68.5857  224.1995 H   0  0  0  0  0  0  0  0  0  0  0  0
  139.1657   68.0427  226.5534 H   0  0  0  0  0  0  0  0  0  0  0  0
  141.2819   70.8149  229.0886 H   0  0  0  0  0  0  0  0  0  0  0  0
  141.5965   72.3498  227.1466 H   0  0  0  0  0  0  0  0  0  0  0  0
  1  2  2  0
  2  3  1  0
  3  4  1  0
  4  5  1  0
  5  6  2  0
  5  7  1  0
  7  8  1  0
  8  9  1  0
  9 10  1  0
 10 11  1  0
 11 12  1  0
 12 13  2  0
 13 14  1  0
 14 15  2  0
 15 16  1  0
 16 17  2  0
  2 18  1  0
 18 19  2  0
 19 20  1  0
 20 21  2  0
 21 22  1  0
 22 23  2  0
 23 24  1  0
 23 25  1  0
 25 26  2  0
 26 27  1  0
 27 28  2  0
 11  7  1  0
 17 12  1  0
 28 18  1  0
 27 21  1  0
  3 29  1  0
  4 30  1  0
  4 31  1  0
  8 32  1  0
  8 33  1  0
  9 34  1  0
  9 35  1  0
 10 36  1  0
 10 37  1  0
 11 38  1  6
 13 39  1  0
 15 40  1  0
 17 41  1  0
 19 42  1  0
 20 43  1  0
 22 44  1  0
 25 45  1  0
 26 46  1  0
M  END
>  <smiles>  (8) 
O=C(NCC(=O)N1CCC[C@H]1c1cncnc1)c1ccc2cc(F)ccc2n1

>  <score_type>  (8) 
oracle

>  <origin>  (8) 
autodockgpu

>  <m_score__min__energy>  (8) 
-8.0999999999999996

>  <m_primary>  (8) 
energy

>  <rmsd>  (8) 
2.973383467993949

>  <m_score__min__rmsd>  (8) 
2.973383467993949

>  <meeko>  (8) 
{"free_energy": -8.1, "intermolecular_energy": -9.59, "internal_energy": -1.11, "cluster_size": 20, "cluster_id": 1, "rank_in_cluster": 1}

>  <energy>  (8) 
-8.0

>  <cluster_rmsd>  (8) 
1.56

>  <cluster>  (8) 
1

$$$$

     RDKit          3D

 46 49  0  0  0  0  0  0  0  0999 V2000
  139.9110   71.3590  220.9490 O   0  0  0  0  0  0  0  0  0  0  0  0
  139.8100   71.9640  222.0470 C   0  0  0  0  0  0  0  0  0  0  0  0
  139.6610   73.3730  222.1590 N   0  0  0  0  0  0  0  0  0  0  0  0
  139.6150   74.2130  220.9790 C   0  0  0  0  0  0  0  0  0  0  0  0
  140.5140   75.4090  221.1960 C   0  0  0  0  0  0  0  0  0  0  0  0
  140.6410   75.7600  222.3950 O   0  0  0  0  0  0  0  0  0  0  0  0
  141.0930   75.9840  220.0790 N   0  0  0  0  0  0  0  0  0  0  0  0
  140.5970   77.1590  219.3050 C   0  0  0  0  0  0  0  0  0  0  0  0
  141.8390   78.0130  219.4000 C   0  0  0  0  0  0  0  0  0  0  0  0
  142.9430   77.0150  219.1270 C   0  0  0  0  0  0  0  0  0  0  0  0
  142.3180   75.6810  219.3180 C   0  0  1  0  0  0  0  0  0  0  0  0
  143.1300   74.6100  219.8420 C   0  0  0  0  0  0  0  0  0  0  0  0
  142.7370   73.3070  220.0650 C   0  0  0  0  0  0  0  0  0  0  0  0
  143.5630   72.3800  220.5880 N   0  0  0  0  0  0  0  0  0  0  0  0
  144.8390   72.6790  220.9290 C   0  0  0  0  0  0  0  0  0  0  0  0
  145.2370   73.9410  220.7200 N   0  0  0  0  0  0  0  0  0  0  0  0
  144.4540   74.9010  220.2020 C   0  0  0  0  0  0  0  0  0  0  0  0
  139.8480   71.1790  223.2990 C   0  0  0  0  0  0  0  0  0  0  0  0
  139.3390   69.8930  223.3320 C   0  0  0  0  0  0  0  0  0  0  0  0
  139.3690   69.1500  224.5000 C   0  0  0  0  0  0  0  0  0  0  0  0
  139.9210   69.7200  225.6360 C   0  0  0  0  0  0  0  0  0  0  0  0
  139.9690   68.9980  226.8300 C   0  0  0  0  0  0  0  0  0  0  0  0
  140.5290   69.5950  227.9580 C   0  0  0  0  0  0  0  0  0  0  0  0
  140.5540   68.8640  229.0870 F   0  0  0  0  0  0  0  0  0  0  0  0
  141.0290   70.8760  227.8990 C   0  0  0  0  0  0  0  0  0  0  0  0
  140.9770   71.5860  226.7020 C   0  0  0  0  0  0  0  0  0  0  0  0
  140.4220   71.0010  225.5760 C   0  0  0  0  0  0  0  0  0  0  0  0
  140.3710   71.6820  224.4300 N   0  0  0  0  0  0  0  0  0  0  0  0
  139.5800   73.8450  223.1030 H   0  0  0  0  0  0  0  0  0  0  0  0
  139.9634   73.6425  220.1054 H   0  0  0  0  0  0  0  0  0  0  0  0
  138.5831   74.5492  220.8000 H   0  0  0  0  0  0  0  0  0  0  0  0
  140.3490   76.8985  218.2654 H   0  0  0  0  0  0  0  0  0  0  0  0
  139.6662   77.6186  219.6689 H   0  0  0  0  0  0  0  0  0  0  0  0
  141.8303   78.8129  218.6450 H   0  0  0  0  0  0  0  0  0  0  0  0
  141.9435   78.5299  220.3653 H   0  0  0  0  0  0  0  0  0  0  0  0
  143.3147   77.1230  218.0973 H   0  0  0  0  0  0  0  0  0  0  0  0
  143.8058   77.1639  219.7929 H   0  0  0  0  0  0  0  0  0  0  0  0
  142.1202   75.2120  218.3428 H   0  0  0  0  0  0  0  0  0  0  0  0
  141.7092   73.0132  219.8058 H   0  0  0  0  0  0  0  0  0  0  0  0
  145.5148   71.9235  221.3562 H   0  0  0  0  0  0  0  0  0  0  0  0
  144.8514   75.9168  220.0598 H   0  0  0  0  0  0  0  0  0  0  0  0
  138.9057   69.4559  222.4203 H   0  0  0  0  0  0  0  0  0  0  0  0
  138.9629   68.1280  224.5256 H   0  0  0  0  0  0  0  0  0  0  0  0
  139.5709   67.9738  226.8797 H   0  0  0  0  0  0  0  0  0  0  0  0
  141.4687   71.3379  228.7953 H   0  0  0  0  0  0  0  0  0  0  0  0
  141.3761   72.6098  226.6510 H   0  0  0  0  0  0  0  0  0  0  0  0
  1  2  2  0
  2  3  1  0
  3  4  1  0
  4  5  1  0
  5  6  2  0
  5  7  1  0
  7  8  1  0
  8  9  1  0
  9 10  1  0
 10 11  1  0
 11 12  1  0
 12 13  2  0
 13 14  1  0
 14 15  2  0
 15 16  1  0
 16 17  2  0
  2 18  1  0
 18 19  2  0
 19 20  1  0
 20 21  2  0
 21 22  1  0
 22 23  2  0
 23 24  1  0
 23 25  1  0
 25 26  2  0
 26 27  1  0
 27 28  2  0
 11  7  1  0
 17 12  1  0
 28 18  1  0
 27 21  1  0
  3 29  1  0
  4 30  1  0
  4 31  1  0
  8 32  1  0
  8 33  1  0
  9 34  1  0
  9 35  1  0
 10 36  1  0
 10 37  1  0
 11 38  1  6
 13 39  1  0
 15 40  1  0
 17 41  1  0
 19 42  1  0
 20 43  1  0
 22 44  1  0
 25 45  1  0
 26 46  1  0
M  END
>  <smiles>  (9) 
O=C(NCC(=O)N1CCC[C@H]1c1cncnc1)c1ccc2cc(F)ccc2n1

>  <score_type>  (9) 
oracle

>  <origin>  (9) 
autodockgpu

>  <m_score__min__energy>  (9) 
-8.0999999999999996

>  <m_primary>  (9) 
energy

>  <rmsd>  (9) 
1.8119070864222862

>  <m_score__min__rmsd>  (9) 
1.8119070864222862

>  <meeko>  (9) 
{"free_energy": -7.63, "intermolecular_energy": -9.12, "internal_energy": -1.94, "cluster_size": 24, "cluster_id": 2, "rank_in_cluster": 7}

>  <energy>  (9) 
-7.98

>  <cluster_rmsd>  (9) 
1.57

>  <cluster>  (9) 
1

$$$$

     RDKit          3D

 46 49  0  0  0  0  0  0  0  0999 V2000
  139.3210   70.7140  220.9710 O   0  0  0  0  0  0  0  0  0  0  0  0
  139.8690   71.2600  221.9630 C   0  0  0  0  0  0  0  0  0  0  0  0
  140.5290   72.5180  221.9040 N   0  0  0  0  0  0  0  0  0  0  0  0
  140.6060   73.2610  220.6630 C   0  0  0  0  0  0  0  0  0  0  0  0
  141.0250   74.6810  220.9680 C   0  0  0  0  0  0  0  0  0  0  0  0
  140.8780   75.0250  222.1680 O   0  0  0  0  0  0  0  0  0  0  0  0
  141.5160   75.4420  219.9230 N   0  0  0  0  0  0  0  0  0  0  0  0
  140.8490   76.5950  219.2520 C   0  0  0  0  0  0  0  0  0  0  0  0
  141.9420   77.6170  219.4530 C   0  0  0  0  0  0  0  0  0  0  0  0
  143.1900   76.8320  219.1120 C   0  0  0  0  0  0  0  0  0  0  0  0
  142.7790   75.4060  219.1650 C   0  0  1  0  0  0  0  0  0  0  0  0
  143.7430   74.4280  219.6050 C   0  0  0  0  0  0  0  0  0  0  0  0
  143.7570   73.0840  219.2970 C   0  0  0  0  0  0  0  0  0  0  0  0
  144.6880   72.2380  219.7830 N   0  0  0  0  0  0  0  0  0  0  0  0
  145.6720   72.6670  220.6090 C   0  0  0  0  0  0  0  0  0  0  0  0
  145.6730   73.9690  220.9190 N   0  0  0  0  0  0  0  0  0  0  0  0
  144.7690   74.8510  220.4620 C   0  0  0  0  0  0  0  0  0  0  0  0
  139.8340   70.5670  223.2680 C   0  0  0  0  0  0  0  0  0  0  0  0
  139.2300   69.3280  223.3830 C   0  0  0  0  0  0  0  0  0  0  0  0
  139.1920   68.6710  224.6020 C   0  0  0  0  0  0  0  0  0  0  0  0
  139.7730   69.2780  225.7030 C   0  0  0  0  0  0  0  0  0  0  0  0
  139.7530   68.6430  226.9470 C   0  0  0  0  0  0  0  0  0  0  0  0
  140.3440   69.2770  228.0380 C   0  0  0  0  0  0  0  0  0  0  0  0
  140.3020   68.6290  229.2170 F   0  0  0  0  0  0  0  0  0  0  0  0
  140.9390   70.5090  227.8960 C   0  0  0  0  0  0  0  0  0  0  0  0
  140.9530   71.1340  226.6510 C   0  0  0  0  0  0  0  0  0  0  0  0
  140.3680   70.5120  225.5610 C   0  0  0  0  0  0  0  0  0  0  0  0
  140.3810   71.1100  224.3690 N   0  0  0  0  0  0  0  0  0  0  0  0
  140.9790   72.9450  222.7620 H   0  0  0  0  0  0  0  0  0  0  0  0
  141.3459   72.7925  219.9974 H   0  0  0  0  0  0  0  0  0  0  0  0
  139.6244   73.2604  220.1666 H   0  0  0  0  0  0  0  0  0  0  0  0
  140.6516   76.4001  218.1876 H   0  0  0  0  0  0  0  0  0  0  0  0
  139.8557   76.8687  219.6373 H   0  0  0  0  0  0  0  0  0  0  0  0
  141.8141   78.4744  218.7759 H   0  0  0  0  0  0  0  0  0  0  0  0
  141.9581   78.0492  220.4644 H   0  0  0  0  0  0  0  0  0  0  0  0
  143.5471   77.0934  218.1050 H   0  0  0  0  0  0  0  0  0  0  0  0
  144.0148   77.0485  219.8069 H   0  0  0  0  0  0  0  0  0  0  0  0
  142.6645   75.0076  218.1461 H   0  0  0  0  0  0  0  0  0  0  0  0
  142.9787   72.6865  218.6290 H   0  0  0  0  0  0  0  0  0  0  0  0
  146.4331   71.9790  221.0056 H   0  0  0  0  0  0  0  0  0  0  0  0
  144.8337   75.9077  220.7608 H   0  0  0  0  0  0  0  0  0  0  0  0
  138.7753   68.8597  222.4976 H   0  0  0  0  0  0  0  0  0  0  0  0
  138.7099   67.6866  224.6937 H   0  0  0  0  0  0  0  0  0  0  0  0
  139.2781   67.6577  227.0636 H   0  0  0  0  0  0  0  0  0  0  0  0
  141.4030   71.0000  228.7641 H   0  0  0  0  0  0  0  0  0  0  0  0
  141.4277   72.1194  226.5342 H   0  0  0  0  0  0  0  0  0  0  0  0
  1  2  2  0
  2  3  1  0
  3  4  1  0
  4  5  1  0
  5  6  2  0
  5  7  1  0
  7  8  1  0
  8  9  1  0
  9 10  1  0
 10 11  1  0
 11 12  1  0
 12 13  2  0
 13 14  1  0
 14 15  2  0
 15 16  1  0
 16 17  2  0
  2 18  1  0
 18 19  2  0
 19 20  1  0
 20 21  2  0
 21 22  1  0
 22 23  2  0
 23 24  1  0
 23 25  1  0
 25 26  2  0
 26 27  1  0
 27 28  2  0
 11  7  1  0
 17 12  1  0
 28 18  1  0
 27 21  1  0
  3 29  1  0
  4 30  1  0
  4 31  1  0
  8 32  1  0
  8 33  1  0
  9 34  1  0
  9 35  1  0
 10 36  1  0
 10 37  1  0
 11 38  1  6
 13 39  1  0
 15 40  1  0
 17 41  1  0
 19 42  1  0
 20 43  1  0
 22 44  1  0
 25 45  1  0
 26 46  1  0
M  END
>  <smiles>  (10) 
O=C(NCC(=O)N1CCC[C@H]1c1cncnc1)c1ccc2cc(F)ccc2n1

>  <score_type>  (10) 
oracle

>  <origin>  (10) 
autodockgpu

>  <m_score__min__energy>  (10) 
-8.0999999999999996

>  <m_primary>  (10) 
energy

>  <rmsd>  (10) 
1.9689540248196953

>  <m_score__min__rmsd>  (10) 
1.9689540248196953

>  <meeko>  (10) 
{"free_energy": -7.06, "intermolecular_energy": -8.55, "internal_energy": -2.01, "cluster_size": 24, "cluster_id": 2, "rank_in_cluster": 23}

>  <energy>  (10) 
-7.98

>  <cluster_rmsd>  (10) 
1.56

>  <cluster>  (10) 
1

$$$$

     RDKit          3D

 46 49  0  0  0  0  0  0  0  0999 V2000
  139.8000   71.2540  220.9650 O   0  0  0  0  0  0  0  0  0  0  0  0
  139.7440   71.8720  222.0600 C   0  0  0  0  0  0  0  0  0  0  0  0
  139.6570   73.2870  222.1610 N   0  0  0  0  0  0  0  0  0  0  0  0
  139.6250   74.1190  220.9750 C   0  0  0  0  0  0  0  0  0  0  0  0
  140.4940   75.3330  221.2070 C   0  0  0  0  0  0  0  0  0  0  0  0
  140.5780   75.6980  222.4060 O   0  0  0  0  0  0  0  0  0  0  0  0
  141.0950   75.9100  220.1030 N   0  0  0  0  0  0  0  0  0  0  0  0
  140.6050   77.0730  219.3080 C   0  0  0  0  0  0  0  0  0  0  0  0
  141.8300   77.9450  219.4310 C   0  0  0  0  0  0  0  0  0  0  0  0
  142.9560   76.9620  219.1960 C   0  0  0  0  0  0  0  0  0  0  0  0
  142.3460   75.6200  219.3790 C   0  0  1  0  0  0  0  0  0  0  0  0
  143.1580   74.5650  219.9330 C   0  0  0  0  0  0  0  0  0  0  0  0
  142.7560   73.2790  220.2260 C   0  0  0  0  0  0  0  0  0  0  0  0
  143.5840   72.3670  220.7730 N   0  0  0  0  0  0  0  0  0  0  0  0
  144.8720   72.6660  221.0670 C   0  0  0  0  0  0  0  0  0  0  0  0
  145.2790   73.9100  220.7880 N   0  0  0  0  0  0  0  0  0  0  0  0
  144.4940   74.8550  220.2450 C   0  0  0  0  0  0  0  0  0  0  0  0
  139.7710   71.0960  223.3180 C   0  0  0  0  0  0  0  0  0  0  0  0
  139.2710   69.8070  223.3530 C   0  0  0  0  0  0  0  0  0  0  0  0
  139.2920   69.0730  224.5270 C   0  0  0  0  0  0  0  0  0  0  0  0
  139.8250   69.6550  225.6660 C   0  0  0  0  0  0  0  0  0  0  0  0
  139.8620   68.9420  226.8660 C   0  0  0  0  0  0  0  0  0  0  0  0
  140.4030   69.5510  227.9960 C   0  0  0  0  0  0  0  0  0  0  0  0
  140.4190   68.8290  229.1310 F   0  0  0  0  0  0  0  0  0  0  0  0
  140.8950   70.8350  227.9340 C   0  0  0  0  0  0  0  0  0  0  0  0
  140.8530   71.5360  226.7310 C   0  0  0  0  0  0  0  0  0  0  0  0
  140.3170   70.9390  225.6030 C   0  0  0  0  0  0  0  0  0  0  0  0
  140.2760   71.6110  224.4510 N   0  0  0  0  0  0  0  0  0  0  0  0
  139.6130   73.7700  223.1020 H   0  0  0  0  0  0  0  0  0  0  0  0
  140.0068   73.5503  220.1143 H   0  0  0  0  0  0  0  0  0  0  0  0
  138.5916   74.4338  220.7676 H   0  0  0  0  0  0  0  0  0  0  0  0
  140.3897   76.8024  218.2638 H   0  0  0  0  0  0  0  0  0  0  0  0
  139.6583   77.5216  219.6435 H   0  0  0  0  0  0  0  0  0  0  0  0
  141.8305   78.7395  218.6702 H   0  0  0  0  0  0  0  0  0  0  0  0
  141.8999   78.4698  220.3952 H   0  0  0  0  0  0  0  0  0  0  0  0
  143.3547   77.0687  218.1764 H   0  0  0  0  0  0  0  0  0  0  0  0
  143.7975   77.1285  219.8846 H   0  0  0  0  0  0  0  0  0  0  0  0
  142.1834   75.1413  218.4021 H   0  0  0  0  0  0  0  0  0  0  0  0
  141.7191   72.9860  220.0047 H   0  0  0  0  0  0  0  0  0  0  0  0
  145.5498   71.9232  221.5129 H   0  0  0  0  0  0  0  0  0  0  0  0
  144.8997   75.8577  220.0448 H   0  0  0  0  0  0  0  0  0  0  0  0
  138.8524   69.3604  222.4390 H   0  0  0  0  0  0  0  0  0  0  0  0
  138.8935   68.0481  224.5549 H   0  0  0  0  0  0  0  0  0  0  0  0
  139.4701   67.9155  226.9182 H   0  0  0  0  0  0  0  0  0  0  0  0
  141.3203   71.3064  228.8323 H   0  0  0  0  0  0  0  0  0  0  0  0
  141.2451   72.5623  226.6775 H   0  0  0  0  0  0  0  0  0  0  0  0
  1  2  2  0
  2  3  1  0
  3  4  1  0
  4  5  1  0
  5  6  2  0
  5  7  1  0
  7  8  1  0
  8  9  1  0
  9 10  1  0
 10 11  1  0
 11 12  1  0
 12 13  2  0
 13 14  1  0
 14 15  2  0
 15 16  1  0
 16 17  2  0
  2 18  1  0
 18 19  2  0
 19 20  1  0
 20 21  2  0
 21 22  1  0
 22 23  2  0
 23 24  1  0
 23 25  1  0
 25 26  2  0
 26 27  1  0
 27 28  2  0
 11  7  1  0
 17 12  1  0
 28 18  1  0
 27 21  1  0
  3 29  1  0
  4 30  1  0
  4 31  1  0
  8 32  1  0
  8 33  1  0
  9 34  1  0
  9 35  1  0
 10 36  1  0
 10 37  1  0
 11 38  1  6
 13 39  1  0
 15 40  1  0
 17 41  1  0
 19 42  1  0
 20 43  1  0
 22 44  1  0
 25 45  1  0
 26 46  1  0
M  END
>  <smiles>  (11) 
O=C(NCC(=O)N1CCC[C@H]1c1cncnc1)c1ccc2cc(F)ccc2n1

>  <score_type>  (11) 
oracle

>  <origin>  (11) 
autodockgpu

>  <m_score__min__energy>  (11) 
-8.0999999999999996

>  <m_primary>  (11) 
energy

>  <rmsd>  (11) 
1.7890335985357455

>  <m_score__min__rmsd>  (11) 
1.7890335985357455

>  <meeko>  (11) 
{"free_energy": -7.57, "intermolecular_energy": -9.06, "internal_energy": -1.97, "cluster_size": 24, "cluster_id": 2, "rank_in_cluster": 15}

>  <energy>  (11) 
-7.94

>  <cluster_rmsd>  (11) 
1.57

>  <cluster>  (11) 
1

$$$$

     RDKit          3D

 46 49  0  0  0  0  0  0  0  0999 V2000
  140.8440   71.7510  221.1390 O   0  0  0  0  0  0  0  0  0  0  0  0
  140.3510   72.2880  222.1640 C   0  0  0  0  0  0  0  0  0  0  0  0
  139.9670   73.6560  222.2280 N   0  0  0  0  0  0  0  0  0  0  0  0
  140.1260   74.5290  221.0830 C   0  0  0  0  0  0  0  0  0  0  0  0
  140.6110   75.8780  221.5610 C   0  0  0  0  0  0  0  0  0  0  0  0
  140.1850   76.2180  222.6930 O   0  0  0  0  0  0  0  0  0  0  0  0
  141.4530   76.5880  220.7250 N   0  0  0  0  0  0  0  0  0  0  0  0
  142.1210   76.0990  219.4840 C   0  0  0  0  0  0  0  0  0  0  0  0
  141.6030   77.1530  218.5360 C   0  0  0  0  0  0  0  0  0  0  0  0
  141.7670   78.4250  219.3400 C   0  0  0  0  0  0  0  0  0  0  0  0
  141.9450   77.9770  220.7450 C   0  0  1  0  0  0  0  0  0  0  0  0
  141.4250   78.8090  221.8030 C   0  0  0  0  0  0  0  0  0  0  0  0
  142.1270   79.3150  222.8760 C   0  0  0  0  0  0  0  0  0  0  0  0
  141.5450   80.0620  223.8350 N   0  0  0  0  0  0  0  0  0  0  0  0
  140.2240   80.3610  223.7970 C   0  0  0  0  0  0  0  0  0  0  0  0
  139.5280   79.8760  222.7620 N   0  0  0  0  0  0  0  0  0  0  0  0
  140.0600   79.1280  221.7810 C   0  0  0  0  0  0  0  0  0  0  0  0
  140.1550   71.4660  223.3760 C   0  0  0  0  0  0  0  0  0  0  0  0
  139.4740   70.2640  223.3010 C   0  0  0  0  0  0  0  0  0  0  0  0
  139.2850   69.4860  224.4320 C   0  0  0  0  0  0  0  0  0  0  0  0
  139.7940   69.9350  225.6390 C   0  0  0  0  0  0  0  0  0  0  0  0
  139.6230   69.1750  226.7980 C   0  0  0  0  0  0  0  0  0  0  0  0
  140.1450   69.6500  228.0000 C   0  0  0  0  0  0  0  0  0  0  0  0
  139.9560   68.8860  229.0920 F   0  0  0  0  0  0  0  0  0  0  0  0
  140.8190   70.8480  228.0470 C   0  0  0  0  0  0  0  0  0  0  0  0
  140.9850   71.5980  226.8850 C   0  0  0  0  0  0  0  0  0  0  0  0
  140.4700   71.1340  225.6860 C   0  0  0  0  0  0  0  0  0  0  0  0
  140.6280   71.8520  224.5730 N   0  0  0  0  0  0  0  0  0  0  0  0
  139.5560   74.0710  223.1110 H   0  0  0  0  0  0  0  0  0  0  0  0
  140.8613   74.0969  220.3883 H   0  0  0  0  0  0  0  0  0  0  0  0
  139.1633   74.6414  220.5629 H   0  0  0  0  0  0  0  0  0  0  0  0
  143.2177   76.1162  219.5669 H   0  0  0  0  0  0  0  0  0  0  0  0
  141.9146   75.0554  219.2043 H   0  0  0  0  0  0  0  0  0  0  0  0
  142.2007   77.1861  217.6131 H   0  0  0  0  0  0  0  0  0  0  0  0
  140.5698   76.9743  218.2034 H   0  0  0  0  0  0  0  0  0  0  0  0
  142.6498   78.9858  218.9991 H   0  0  0  0  0  0  0  0  0  0  0  0
  140.9027   79.0962  219.2287 H   0  0  0  0  0  0  0  0  0  0  0  0
  143.0018   78.0605  221.0386 H   0  0  0  0  0  0  0  0  0  0  0  0
  143.2033   79.1009  222.9525 H   0  0  0  0  0  0  0  0  0  0  0  0
  139.7475   80.9719  224.5779 H   0  0  0  0  0  0  0  0  0  0  0  0
  139.4241   78.7656  220.9599 H   0  0  0  0  0  0  0  0  0  0  0  0
  139.0784   69.9223  222.3332 H   0  0  0  0  0  0  0  0  0  0  0  0
  138.7418   68.5313  224.3722 H   0  0  0  0  0  0  0  0  0  0  0  0
  139.0847   68.2164  226.7629 H   0  0  0  0  0  0  0  0  0  0  0  0
  141.2265   71.2135  229.0011 H   0  0  0  0  0  0  0  0  0  0  0  0
  141.5238   72.5564  226.9196 H   0  0  0  0  0  0  0  0  0  0  0  0
  1  2  2  0
  2  3  1  0
  3  4  1  0
  4  5  1  0
  5  6  2  0
  5  7  1  0
  7  8  1  0
  8  9  1  0
  9 10  1  0
 10 11  1  0
 11 12  1  0
 12 13  2  0
 13 14  1  0
 14 15  2  0
 15 16  1  0
 16 17  2  0
  2 18  1  0
 18 19  2  0
 19 20  1  0
 20 21  2  0
 21 22  1  0
 22 23  2  0
 23 24  1  0
 23 25  1  0
 25 26  2  0
 26 27  1  0
 27 28  2  0
 11  7  1  0
 17 12  1  0
 28 18  1  0
 27 21  1  0
  3 29  1  0
  4 30  1  0
  4 31  1  0
  8 32  1  0
  8 33  1  0
  9 34  1  0
  9 35  1  0
 10 36  1  0
 10 37  1  0
 11 38  1  1
 13 39  1  0
 15 40  1  0
 17 41  1  0
 19 42  1  0
 20 43  1  0
 22 44  1  0
 25 45  1  0
 26 46  1  0
M  END
>  <smiles>  (12) 
O=C(NCC(=O)N1CCC[C@H]1c1cncnc1)c1ccc2cc(F)ccc2n1

>  <score_type>  (12) 
oracle

>  <origin>  (12) 
autodockgpu

>  <m_score__min__energy>  (12) 
-8.0999999999999996

>  <m_primary>  (12) 
energy

>  <rmsd>  (12) 
1.9016578660385344

>  <m_score__min__rmsd>  (12) 
1.9016578660385344

>  <meeko>  (12) 
{"free_energy": -7.94, "intermolecular_energy": -9.43, "internal_energy": -1.62, "cluster_size": 20, "cluster_id": 1, "rank_in_cluster": 11}

>  <energy>  (12) 
-7.94

>  <cluster_rmsd>  (12) 
1.57

>  <cluster>  (12) 
1

$$$$

     RDKit          3D

 46 49  0  0  0  0  0  0  0  0999 V2000
  141.4410   72.6930  221.9590 O   0  0  0  0  0  0  0  0  0  0  0  0
  140.3510   72.6250  222.5840 C   0  0  0  0  0  0  0  0  0  0  0  0
  139.2200   73.4330  222.2830 N   0  0  0  0  0  0  0  0  0  0  0  0
  139.2640   74.4050  221.2090 C   0  0  0  0  0  0  0  0  0  0  0  0
  140.0090   75.6300  221.6880 C   0  0  0  0  0  0  0  0  0  0  0  0
  139.5620   76.1350  222.7480 O   0  0  0  0  0  0  0  0  0  0  0  0
  141.0820   76.0630  220.9310 N   0  0  0  0  0  0  0  0  0  0  0  0
  141.8390   75.2870  219.9060 C   0  0  0  0  0  0  0  0  0  0  0  0
  141.6660   76.2400  218.7490 C   0  0  0  0  0  0  0  0  0  0  0  0
  141.9220   77.5860  219.3920 C   0  0  0  0  0  0  0  0  0  0  0  0
  141.7990   77.3480  220.8540 C   0  0  1  0  0  0  0  0  0  0  0  0
  141.2730   78.4070  221.6800 C   0  0  0  0  0  0  0  0  0  0  0  0
  140.5310   79.4910  221.2620 C   0  0  0  0  0  0  0  0  0  0  0  0
  140.1080   80.4500  222.1090 N   0  0  0  0  0  0  0  0  0  0  0  0
  140.3900   80.4010  223.4330 C   0  0  0  0  0  0  0  0  0  0  0  0
  141.1110   79.3550  223.8560 N   0  0  0  0  0  0  0  0  0  0  0  0
  141.5560   78.3750  223.0530 C   0  0  0  0  0  0  0  0  0  0  0  0
  140.2240   71.6590  223.6950 C   0  0  0  0  0  0  0  0  0  0  0  0
  139.6250   70.4290  223.4850 C   0  0  0  0  0  0  0  0  0  0  0  0
  139.5020   69.5170  224.5190 C   0  0  0  0  0  0  0  0  0  0  0  0
  139.9910   69.8600  225.7690 C   0  0  0  0  0  0  0  0  0  0  0  0
  139.8830   68.9630  226.8340 C   0  0  0  0  0  0  0  0  0  0  0  0
  140.3830   69.3340  228.0820 C   0  0  0  0  0  0  0  0  0  0  0  0
  140.2580   68.4400  229.0800 F   0  0  0  0  0  0  0  0  0  0  0  0
  140.9740   70.5620  228.2640 C   0  0  0  0  0  0  0  0  0  0  0  0
  141.0770   71.4490  227.1940 C   0  0  0  0  0  0  0  0  0  0  0  0
  140.5830   71.0900  225.9510 C   0  0  0  0  0  0  0  0  0  0  0  0
  140.6800   71.9380  224.9270 N   0  0  0  0  0  0  0  0  0  0  0  0
  138.3200   73.3480  222.8330 H   0  0  0  0  0  0  0  0  0  0  0  0
  139.7833   73.9729  220.3409 H   0  0  0  0  0  0  0  0  0  0  0  0
  138.2410   74.6821  220.9148 H   0  0  0  0  0  0  0  0  0  0  0  0
  142.8956   75.1536  220.1812 H   0  0  0  0  0  0  0  0  0  0  0  0
  141.4999   74.2546  219.7352 H   0  0  0  0  0  0  0  0  0  0  0  0
  142.3962   76.0347  217.9523 H   0  0  0  0  0  0  0  0  0  0  0  0
  140.6817   76.1661  218.2635 H   0  0  0  0  0  0  0  0  0  0  0  0
  142.9309   77.9469  219.1433 H   0  0  0  0  0  0  0  0  0  0  0  0
  141.2157   78.3518  219.0388 H   0  0  0  0  0  0  0  0  0  0  0  0
  142.7954   77.3191  221.3191 H   0  0  0  0  0  0  0  0  0  0  0  0
  140.2743   79.5765  220.1958 H   0  0  0  0  0  0  0  0  0  0  0  0
  140.0439   81.1818  224.1262 H   0  0  0  0  0  0  0  0  0  0  0  0
  142.1437   77.5455  223.4731 H   0  0  0  0  0  0  0  0  0  0  0  0
  139.2426   70.1735  222.4857 H   0  0  0  0  0  0  0  0  0  0  0  0
  139.0256   68.5397  224.3516 H   0  0  0  0  0  0  0  0  0  0  0  0
  139.4112   67.9797  226.6908 H   0  0  0  0  0  0  0  0  0  0  0  0
  141.3650   70.8440  229.2528 H   0  0  0  0  0  0  0  0  0  0  0  0
  141.5496   72.4320  227.3364 H   0  0  0  0  0  0  0  0  0  0  0  0
  1  2  2  0
  2  3  1  0
  3  4  1  0
  4  5  1  0
  5  6  2  0
  5  7  1  0
  7  8  1  0
  8  9  1  0
  9 10  1  0
 10 11  1  0
 11 12  1  0
 12 13  2  0
 13 14  1  0
 14 15  2  0
 15 16  1  0
 16 17  2  0
  2 18  1  0
 18 19  2  0
 19 20  1  0
 20 21  2  0
 21 22  1  0
 22 23  2  0
 23 24  1  0
 23 25  1  0
 25 26  2  0
 26 27  1  0
 27 28  2  0
 11  7  1  0
 17 12  1  0
 28 18  1  0
 27 21  1  0
  3 29  1  0
  4 30  1  0
  4 31  1  0
  8 32  1  0
  8 33  1  0
  9 34  1  0
  9 35  1  0
 10 36  1  0
 10 37  1  0
 11 38  1  1
 13 39  1  0
 15 40  1  0
 17 41  1  0
 19 42  1  0
 20 43  1  0
 22 44  1  0
 25 45  1  0
 26 46  1  0
M  END
>  <smiles>  (13) 
O=C(NCC(=O)N1CCC[C@H]1c1cncnc1)c1ccc2cc(F)ccc2n1

>  <score_type>  (13) 
oracle

>  <origin>  (13) 
autodockgpu

>  <m_score__min__energy>  (13) 
-8.0999999999999996

>  <m_primary>  (13) 
energy

>  <rmsd>  (13) 
1.7461401933186667

>  <m_score__min__rmsd>  (13) 
1.7461401933186667

>  <meeko>  (13) 
{"free_energy": -7.87, "intermolecular_energy": -9.36, "internal_energy": -1.22, "cluster_size": 20, "cluster_id": 1, "rank_in_cluster": 16}

>  <energy>  (13) 
-7.88

>  <cluster_rmsd>  (13) 
1.55

>  <cluster>  (13) 
1

$$$$

     RDKit          3D

 46 49  0  0  0  0  0  0  0  0999 V2000
  139.9640   71.2500  220.9670 O   0  0  0  0  0  0  0  0  0  0  0  0
  139.8390   71.8650  222.0580 C   0  0  0  0  0  0  0  0  0  0  0  0
  139.6890   73.2750  222.1530 N   0  0  0  0  0  0  0  0  0  0  0  0
  139.6680   74.1040  220.9650 C   0  0  0  0  0  0  0  0  0  0  0  0
  140.4450   75.3710  221.2410 C   0  0  0  0  0  0  0  0  0  0  0  0
  140.4570   75.7280  222.4450 O   0  0  0  0  0  0  0  0  0  0  0  0
  141.0490   75.9980  220.1660 N   0  0  0  0  0  0  0  0  0  0  0  0
  140.5750   77.2120  219.4420 C   0  0  0  0  0  0  0  0  0  0  0  0
  141.8180   78.0530  219.6030 C   0  0  0  0  0  0  0  0  0  0  0  0
  142.9230   77.0630  219.3030 C   0  0  0  0  0  0  0  0  0  0  0  0
  142.2880   75.7250  219.4150 C   0  0  1  0  0  0  0  0  0  0  0  0
  143.0830   74.6250  219.9020 C   0  0  0  0  0  0  0  0  0  0  0  0
  142.6620   73.3280  220.1090 C   0  0  0  0  0  0  0  0  0  0  0  0
  143.4760   72.3710  220.5980 N   0  0  0  0  0  0  0  0  0  0  0  0
  144.7670   72.6320  220.9150 C   0  0  0  0  0  0  0  0  0  0  0  0
  145.1920   73.8870  220.7200 N   0  0  0  0  0  0  0  0  0  0  0  0
  144.4210   74.8760  220.2370 C   0  0  0  0  0  0  0  0  0  0  0  0
  139.8500   71.0910  223.3170 C   0  0  0  0  0  0  0  0  0  0  0  0
  139.3390   69.8060  223.3510 C   0  0  0  0  0  0  0  0  0  0  0  0
  139.3450   69.0740  224.5270 C   0  0  0  0  0  0  0  0  0  0  0  0
  139.8730   69.6530  225.6680 C   0  0  0  0  0  0  0  0  0  0  0  0
  139.8950   68.9420  226.8700 C   0  0  0  0  0  0  0  0  0  0  0  0
  140.4320   69.5500  228.0040 C   0  0  0  0  0  0  0  0  0  0  0  0
  140.4330   68.8290  229.1400 F   0  0  0  0  0  0  0  0  0  0  0  0
  140.9350   70.8290  227.9430 C   0  0  0  0  0  0  0  0  0  0  0  0
  140.9080   71.5290  226.7390 C   0  0  0  0  0  0  0  0  0  0  0  0
  140.3760   70.9340  225.6070 C   0  0  0  0  0  0  0  0  0  0  0  0
  140.3500   71.6040  224.4540 N   0  0  0  0  0  0  0  0  0  0  0  0
  139.5880   73.7560  223.0910 H   0  0  0  0  0  0  0  0  0  0  0  0
  140.1309   73.5615  220.1275 H   0  0  0  0  0  0  0  0  0  0  0  0
  138.6294   74.3526  220.7011 H   0  0  0  0  0  0  0  0  0  0  0  0
  140.3465   77.0045  218.3862 H   0  0  0  0  0  0  0  0  0  0  0  0
  139.6396   77.6586  219.8102 H   0  0  0  0  0  0  0  0  0  0  0  0
  141.8280   78.8889  218.8880 H   0  0  0  0  0  0  0  0  0  0  0  0
  141.9056   78.5216  220.5943 H   0  0  0  0  0  0  0  0  0  0  0  0
  143.3161   77.2197  218.2876 H   0  0  0  0  0  0  0  0  0  0  0  0
  143.7728   77.1739  219.9926 H   0  0  0  0  0  0  0  0  0  0  0  0
  142.1083   75.3058  218.4140 H   0  0  0  0  0  0  0  0  0  0  0  0
  141.6222   73.0643  219.8657 H   0  0  0  0  0  0  0  0  0  0  0  0
  145.4330   71.8521  221.3127 H   0  0  0  0  0  0  0  0  0  0  0  0
  144.8404   75.8842  220.1043 H   0  0  0  0  0  0  0  0  0  0  0  0
  138.9237   69.3609  222.4348 H   0  0  0  0  0  0  0  0  0  0  0  0
  138.9381   68.0524  224.5536 H   0  0  0  0  0  0  0  0  0  0  0  0
  139.4950   67.9186  226.9212 H   0  0  0  0  0  0  0  0  0  0  0  0
  141.3578   71.2982  228.8436 H   0  0  0  0  0  0  0  0  0  0  0  0
  141.3084   72.5522  226.6873 H   0  0  0  0  0  0  0  0  0  0  0  0
  1  2  2  0
  2  3  1  0
  3  4  1  0
  4  5  1  0
  5  6  2  0
  5  7  1  0
  7  8  1  0
  8  9  1  0
  9 10  1  0
 10 11  1  0
 11 12  1  0
 12 13  2  0
 13 14  1  0
 14 15  2  0
 15 16  1  0
 16 17  2  0
  2 18  1  0
 18 19  2  0
 19 20  1  0
 20 21  2  0
 21 22  1  0
 22 23  2  0
 23 24  1  0
 23 25  1  0
 25 26  2  0
 26 27  1  0
 27 28  2  0
 11  7  1  0
 17 12  1  0
 28 18  1  0
 27 21  1  0
  3 29  1  0
  4 30  1  0
  4 31  1  0
  8 32  1  0
  8 33  1  0
  9 34  1  0
  9 35  1  0
 10 36  1  0
 10 37  1  0
 11 38  1  6
 13 39  1  0
 15 40  1  0
 17 41  1  0
 19 42  1  0
 20 43  1  0
 22 44  1  0
 25 45  1  0
 26 46  1  0
M  END
>  <smiles>  (14) 
O=C(NCC(=O)N1CCC[C@H]1c1cncnc1)c1ccc2cc(F)ccc2n1

>  <score_type>  (14) 
oracle

>  <origin>  (14) 
autodockgpu

>  <m_score__min__energy>  (14) 
-8.0999999999999996

>  <m_primary>  (14) 
energy

>  <rmsd>  (14) 
1.8295545218618094

>  <m_score__min__rmsd>  (14) 
1.8295545218618094

>  <meeko>  (14) 
{"free_energy": -7.58, "intermolecular_energy": -9.07, "internal_energy": -1.96, "cluster_size": 24, "cluster_id": 2, "rank_in_cluster": 12}

>  <energy>  (14) 
-7.87

>  <cluster_rmsd>  (14) 
1.56

>  <cluster>  (14) 
1

$$$$

     RDKit          3D

 46 49  0  0  0  0  0  0  0  0999 V2000
  140.6580   71.6020  221.1010 O   0  0  0  0  0  0  0  0  0  0  0  0
  140.2450   72.1440  222.1590 C   0  0  0  0  0  0  0  0  0  0  0  0
  139.9130   73.5220  222.2590 N   0  0  0  0  0  0  0  0  0  0  0  0
  140.0330   74.4030  221.1150 C   0  0  0  0  0  0  0  0  0  0  0  0
  140.4550   75.7730  221.5960 C   0  0  0  0  0  0  0  0  0  0  0  0
  139.9400   76.1290  222.6850 O   0  0  0  0  0  0  0  0  0  0  0  0
  141.3430   76.4820  220.8080 N   0  0  0  0  0  0  0  0  0  0  0  0
  142.0530   76.0020  219.5870 C   0  0  0  0  0  0  0  0  0  0  0  0
  141.5910   77.0800  218.6360 C   0  0  0  0  0  0  0  0  0  0  0  0
  141.7430   78.3360  219.4670 C   0  0  0  0  0  0  0  0  0  0  0  0
  141.8550   77.8620  220.8710 C   0  0  1  0  0  0  0  0  0  0  0  0
  141.3060   78.6850  221.9200 C   0  0  0  0  0  0  0  0  0  0  0  0
  141.7770   78.8020  223.2110 C   0  0  0  0  0  0  0  0  0  0  0  0
  141.1750   79.5780  224.1350 N   0  0  0  0  0  0  0  0  0  0  0  0
  140.0630   80.2940  223.8430 C   0  0  0  0  0  0  0  0  0  0  0  0
  139.5930   80.1920  222.5940 N   0  0  0  0  0  0  0  0  0  0  0  0
  140.1550   79.4330  221.6380 C   0  0  0  0  0  0  0  0  0  0  0  0
  140.0940   71.3140  223.3730 C   0  0  0  0  0  0  0  0  0  0  0  0
  139.5300   70.0540  223.2900 C   0  0  0  0  0  0  0  0  0  0  0  0
  139.3840   69.2680  224.4210 C   0  0  0  0  0  0  0  0  0  0  0  0
  139.8150   69.7700  225.6380 C   0  0  0  0  0  0  0  0  0  0  0  0
  139.6830   69.0040  226.7990 C   0  0  0  0  0  0  0  0  0  0  0  0
  140.1250   69.5330  228.0100 C   0  0  0  0  0  0  0  0  0  0  0  0
  139.9780   68.7620  229.1030 F   0  0  0  0  0  0  0  0  0  0  0  0
  140.6830   70.7900  228.0650 C   0  0  0  0  0  0  0  0  0  0  0  0
  140.8100   71.5450  226.9010 C   0  0  0  0  0  0  0  0  0  0  0  0
  140.3740   71.0270  225.6930 C   0  0  0  0  0  0  0  0  0  0  0  0
  140.4950   71.7500  224.5790 N   0  0  0  0  0  0  0  0  0  0  0  0
  139.5690   73.9410  223.1690 H   0  0  0  0  0  0  0  0  0  0  0  0
  140.7883   74.0063  220.4207 H   0  0  0  0  0  0  0  0  0  0  0  0
  139.0669   74.4716  220.5936 H   0  0  0  0  0  0  0  0  0  0  0  0
  143.1456   75.9995  219.7146 H   0  0  0  0  0  0  0  0  0  0  0  0
  141.8413   74.9666  219.2818 H   0  0  0  0  0  0  0  0  0  0  0  0
  142.2262   77.1176  217.7387 H   0  0  0  0  0  0  0  0  0  0  0  0
  140.5694   76.9242  218.2590 H   0  0  0  0  0  0  0  0  0  0  0  0
  142.6485   78.8865  219.1722 H   0  0  0  0  0  0  0  0  0  0  0  0
  140.8956   79.0242  219.3314 H   0  0  0  0  0  0  0  0  0  0  0  0
  142.9000   77.9231  221.2091 H   0  0  0  0  0  0  0  0  0  0  0  0
  142.6784   78.2407  223.4980 H   0  0  0  0  0  0  0  0  0  0  0  0
  139.5706   80.9279  224.5951 H   0  0  0  0  0  0  0  0  0  0  0  0
  139.7107   79.3988  220.6323 H   0  0  0  0  0  0  0  0  0  0  0  0
  139.1936   69.6718  222.3149 H   0  0  0  0  0  0  0  0  0  0  0  0
  138.9351   68.2660  224.3542 H   0  0  0  0  0  0  0  0  0  0  0  0
  139.2372   67.9992  226.7577 H   0  0  0  0  0  0  0  0  0  0  0  0
  141.0281   71.1979  229.0265 H   0  0  0  0  0  0  0  0  0  0  0  0
  141.2554   72.5500  226.9414 H   0  0  0  0  0  0  0  0  0  0  0  0
  1  2  2  0
  2  3  1  0
  3  4  1  0
  4  5  1  0
  5  6  2  0
  5  7  1  0
  7  8  1  0
  8  9  1  0
  9 10  1  0
 10 11  1  0
 11 12  1  0
 12 13  2  0
 13 14  1  0
 14 15  2  0
 15 16  1  0
 16 17  2  0
  2 18  1  0
 18 19  2  0
 19 20  1  0
 20 21  2  0
 21 22  1  0
 22 23  2  0
 23 24  1  0
 23 25  1  0
 25 26  2  0
 26 27  1  0
 27 28  2  0
 11  7  1  0
 17 12  1  0
 28 18  1  0
 27 21  1  0
  3 29  1  0
  4 30  1  0
  4 31  1  0
  8 32  1  0
  8 33  1  0
  9 34  1  0
  9 35  1  0
 10 36  1  0
 10 37  1  0
 11 38  1  1
 13 39  1  0
 15 40  1  0
 17 41  1  0
 19 42  1  0
 20 43  1  0
 22 44  1  0
 25 45  1  0
 26 46  1  0
M  END
>  <smiles>  (15) 
O=C(NCC(=O)N1CCC[C@H]1c1cncnc1)c1ccc2cc(F)ccc2n1

>  <score_type>  (15) 
oracle

>  <origin>  (15) 
autodockgpu

>  <m_score__min__energy>  (15) 
-8.0999999999999996

>  <m_primary>  (15) 
energy

>  <rmsd>  (15) 
1.8260765849713227

>  <m_score__min__rmsd>  (15) 
1.8260765849713227

>  <meeko>  (15) 
{"free_energy": -7.83, "intermolecular_energy": -9.32, "internal_energy": -1.7, "cluster_size": 20, "cluster_id": 1, "rank_in_cluster": 17}

>  <energy>  (15) 
-7.87

>  <cluster_rmsd>  (15) 
1.58

>  <cluster>  (15) 
1

$$$$

     RDKit          3D

 46 49  0  0  0  0  0  0  0  0999 V2000
  140.8560   71.7580  221.1720 O   0  0  0  0  0  0  0  0  0  0  0  0
  140.3560   72.2940  222.1950 C   0  0  0  0  0  0  0  0  0  0  0  0
  139.9710   73.6610  222.2580 N   0  0  0  0  0  0  0  0  0  0  0  0
  140.1370   74.5350  221.1150 C   0  0  0  0  0  0  0  0  0  0  0  0
  140.5950   75.8920  221.6000 C   0  0  0  0  0  0  0  0  0  0  0  0
  140.1290   76.2360  222.7150 O   0  0  0  0  0  0  0  0  0  0  0  0
  141.4600   76.6030  220.7880 N   0  0  0  0  0  0  0  0  0  0  0  0
  142.1890   76.1050  219.5860 C   0  0  0  0  0  0  0  0  0  0  0  0
  141.6930   77.1320  218.5970 C   0  0  0  0  0  0  0  0  0  0  0  0
  141.8000   78.4210  219.3840 C   0  0  0  0  0  0  0  0  0  0  0  0
  141.9250   78.0010  220.8030 C   0  0  1  0  0  0  0  0  0  0  0  0
  141.3460   78.8410  221.8230 C   0  0  0  0  0  0  0  0  0  0  0  0
  140.0230   79.2140  221.9330 C   0  0  0  0  0  0  0  0  0  0  0  0
  139.5790   80.0310  222.9080 N   0  0  0  0  0  0  0  0  0  0  0  0
  140.4160   80.5360  223.8450 C   0  0  0  0  0  0  0  0  0  0  0  0
  141.7050   80.1850  223.7520 N   0  0  0  0  0  0  0  0  0  0  0  0
  142.1970   79.3750  222.8000 C   0  0  0  0  0  0  0  0  0  0  0  0
  140.1540   71.4700  223.4050 C   0  0  0  0  0  0  0  0  0  0  0  0
  139.4610   70.2750  223.3260 C   0  0  0  0  0  0  0  0  0  0  0  0
  139.2660   69.4950  224.4550 C   0  0  0  0  0  0  0  0  0  0  0  0
  139.7800   69.9360  225.6630 C   0  0  0  0  0  0  0  0  0  0  0  0
  139.6020   69.1740  226.8200 C   0  0  0  0  0  0  0  0  0  0  0  0
  140.1280   69.6410  228.0230 C   0  0  0  0  0  0  0  0  0  0  0  0
  139.9330   68.8760  229.1130 F   0  0  0  0  0  0  0  0  0  0  0  0
  140.8140   70.8330  228.0740 C   0  0  0  0  0  0  0  0  0  0  0  0
  140.9860   71.5840  226.9130 C   0  0  0  0  0  0  0  0  0  0  0  0
  140.4660   71.1290  225.7130 C   0  0  0  0  0  0  0  0  0  0  0  0
  140.6300   71.8480  224.6020 N   0  0  0  0  0  0  0  0  0  0  0  0
  139.5550   74.0750  223.1390 H   0  0  0  0  0  0  0  0  0  0  0  0
  140.8900   74.1128  220.4333 H   0  0  0  0  0  0  0  0  0  0  0  0
  139.1817   74.6333  220.5785 H   0  0  0  0  0  0  0  0  0  0  0  0
  143.2807   76.1445  219.7151 H   0  0  0  0  0  0  0  0  0  0  0  0
  142.0136   75.0528  219.3173 H   0  0  0  0  0  0  0  0  0  0  0  0
  142.3288   77.1598  217.6998 H   0  0  0  0  0  0  0  0  0  0  0  0
  140.6784   76.9282  218.2240 H   0  0  0  0  0  0  0  0  0  0  0  0
  142.6868   78.9917  219.0710 H   0  0  0  0  0  0  0  0  0  0  0  0
  140.9297   79.0744  219.2235 H   0  0  0  0  0  0  0  0  0  0  0  0
  142.9667   78.1099  221.1393 H   0  0  0  0  0  0  0  0  0  0  0  0
  139.3023   78.8296  221.1962 H   0  0  0  0  0  0  0  0  0  0  0  0
  140.0551   81.2015  224.6430 H   0  0  0  0  0  0  0  0  0  0  0  0
  143.2694   79.1305  222.7873 H   0  0  0  0  0  0  0  0  0  0  0  0
  139.0608   69.9407  222.3575 H   0  0  0  0  0  0  0  0  0  0  0  0
  138.7144   68.5453  224.3928 H   0  0  0  0  0  0  0  0  0  0  0  0
  139.0552   68.2203  226.7822 H   0  0  0  0  0  0  0  0  0  0  0  0
  141.2255   71.1920  229.0289 H   0  0  0  0  0  0  0  0  0  0  0  0
  141.5341   72.5370  226.9497 H   0  0  0  0  0  0  0  0  0  0  0  0
  1  2  2  0
  2  3  1  0
  3  4  1  0
  4  5  1  0
  5  6  2  0
  5  7  1  0
  7  8  1  0
  8  9  1  0
  9 10  1  0
 10 11  1  0
 11 12  1  0
 12 13  2  0
 13 14  1  0
 14 15  2  0
 15 16  1  0
 16 17  2  0
  2 18  1  0
 18 19  2  0
 19 20  1  0
 20 21  2  0
 21 22  1  0
 22 23  2  0
 23 24  1  0
 23 25  1  0
 25 26  2  0
 26 27  1  0
 27 28  2  0
 11  7  1  0
 17 12  1  0
 28 18  1  0
 27 21  1  0
  3 29  1  0
  4 30  1  0
  4 31  1  0
  8 32  1  0
  8 33  1  0
  9 34  1  0
  9 35  1  0
 10 36  1  0
 10 37  1  0
 11 38  1  1
 13 39  1  0
 15 40  1  0
 17 41  1  0
 19 42  1  0
 20 43  1  0
 22 44  1  0
 25 45  1  0
 26 46  1  0
M  END
>  <smiles>  (16) 
O=C(NCC(=O)N1CCC[C@H]1c1cncnc1)c1ccc2cc(F)ccc2n1

>  <score_type>  (16) 
oracle

>  <origin>  (16) 
autodockgpu

>  <m_score__min__energy>  (16) 
-8.0999999999999996

>  <m_primary>  (16) 
energy

>  <rmsd>  (16) 
1.9387412209282096

>  <m_score__min__rmsd>  (16) 
1.9387412209282096

>  <meeko>  (16) 
{"free_energy": -8.0, "intermolecular_energy": -9.49, "internal_energy": -1.62, "cluster_size": 20, "cluster_id": 1, "rank_in_cluster": 6}

>  <energy>  (16) 
-7.87

>  <cluster_rmsd>  (16) 
1.44

>  <cluster>  (16) 
1

$$$$

     RDKit          3D

 46 49  0  0  0  0  0  0  0  0999 V2000
  134.9120   68.3860  224.7160 O   0  0  0  0  0  0  0  0  0  0  0  0
  135.4090   69.5400  224.6610 C   0  0  0  0  0  0  0  0  0  0  0  0
  136.6220   69.8430  223.9840 N   0  0  0  0  0  0  0  0  0  0  0  0
  137.3720   68.8080  223.3010 C   0  0  0  0  0  0  0  0  0  0  0  0
  138.6960   68.6190  224.0050 C   0  0  0  0  0  0  0  0  0  0  0  0
  138.8320   67.5110  224.5800 O   0  0  0  0  0  0  0  0  0  0  0  0
  139.6050   69.6610  223.9490 N   0  0  0  0  0  0  0  0  0  0  0  0
  139.8880   70.5540  222.7880 C   0  0  0  0  0  0  0  0  0  0  0  0
  139.6310   71.8750  223.4720 C   0  0  0  0  0  0  0  0  0  0  0  0
  140.3270   71.6950  224.8030 C   0  0  0  0  0  0  0  0  0  0  0  0
  140.5360   70.2310  224.9380 C   0  0  1  0  0  0  0  0  0  0  0  0
  140.4820   69.6470  226.2560 C   0  0  0  0  0  0  0  0  0  0  0  0
  139.9300   70.2100  227.3870 C   0  0  0  0  0  0  0  0  0  0  0  0
  139.9540   69.5970  228.5870 N   0  0  0  0  0  0  0  0  0  0  0  0
  140.5270   68.3800  228.7510 C   0  0  0  0  0  0  0  0  0  0  0  0
  141.0680   67.8190  227.6620 N   0  0  0  0  0  0  0  0  0  0  0  0
  141.0700   68.3890  226.4450 C   0  0  0  0  0  0  0  0  0  0  0  0
  134.7050   70.6520  225.3320 C   0  0  0  0  0  0  0  0  0  0  0  0
  133.7460   70.3910  226.2950 C   0  0  0  0  0  0  0  0  0  0  0  0
  133.0810   71.4270  226.9300 C   0  0  0  0  0  0  0  0  0  0  0  0
  133.3960   72.7300  226.5830 C   0  0  0  0  0  0  0  0  0  0  0  0
  132.7440   73.7980  227.2040 C   0  0  0  0  0  0  0  0  0  0  0  0
  133.0800   75.0990  226.8360 C   0  0  0  0  0  0  0  0  0  0  0  0
  132.4280   76.0980  227.4590 F   0  0  0  0  0  0  0  0  0  0  0  0
  134.0380   75.3320  225.8760 C   0  0  0  0  0  0  0  0  0  0  0  0
  134.6810   74.2600  225.2630 C   0  0  0  0  0  0  0  0  0  0  0  0
  134.3540   72.9630  225.6220 C   0  0  0  0  0  0  0  0  0  0  0  0
  134.9700   71.9360  225.0350 N   0  0  0  0  0  0  0  0  0  0  0  0
  137.0090   70.8280  223.9610 H   0  0  0  0  0  0  0  0  0  0  0  0
  136.8047   67.8658  223.3218 H   0  0  0  0  0  0  0  0  0  0  0  0
  137.5441   69.1006  222.2547 H   0  0  0  0  0  0  0  0  0  0  0  0
  140.9258   70.4624  222.4351 H   0  0  0  0  0  0  0  0  0  0  0  0
  139.3037   70.3606  221.8763 H   0  0  0  0  0  0  0  0  0  0  0  0
  140.0691   72.7088  222.9038 H   0  0  0  0  0  0  0  0  0  0  0  0
  138.5627   72.1202  223.5652 H   0  0  0  0  0  0  0  0  0  0  0  0
  141.2912   72.2245  224.8089 H   0  0  0  0  0  0  0  0  0  0  0  0
  139.7354   72.1044  225.6351 H   0  0  0  0  0  0  0  0  0  0  0  0
  141.5885   69.9789  224.7415 H   0  0  0  0  0  0  0  0  0  0  0  0
  139.4517   71.1973  227.3069 H   0  0  0  0  0  0  0  0  0  0  0  0
  140.5467   67.8781  229.7296 H   0  0  0  0  0  0  0  0  0  0  0  0
  141.5342   67.8670  225.5953 H   0  0  0  0  0  0  0  0  0  0  0  0
  133.5093   69.3497  226.5590 H   0  0  0  0  0  0  0  0  0  0  0  0
  132.3180   71.2188  227.6945 H   0  0  0  0  0  0  0  0  0  0  0  0
  131.9775   73.6147  227.9714 H   0  0  0  0  0  0  0  0  0  0  0  0
  134.2953   76.3635  225.5934 H   0  0  0  0  0  0  0  0  0  0  0  0
  135.4471   74.4428  224.4951 H   0  0  0  0  0  0  0  0  0  0  0  0
  1  2  2  0
  2  3  1  0
  3  4  1  0
  4  5  1  0
  5  6  2  0
  5  7  1  0
  7  8  1  0
  8  9  1  0
  9 10  1  0
 10 11  1  0
 11 12  1  0
 12 13  2  0
 13 14  1  0
 14 15  2  0
 15 16  1  0
 16 17  2  0
  2 18  1  0
 18 19  2  0
 19 20  1  0
 20 21  2  0
 21 22  1  0
 22 23  2  0
 23 24  1  0
 23 25  1  0
 25 26  2  0
 26 27  1  0
 27 28  2  0
 11  7  1  0
 17 12  1  0
 28 18  1  0
 27 21  1  0
  3 29  1  0
  4 30  1  0
  4 31  1  0
  8 32  1  0
  8 33  1  0
  9 34  1  0
  9 35  1  0
 10 36  1  0
 10 37  1  0
 11 38  1  6
 13 39  1  0
 15 40  1  0
 17 41  1  0
 19 42  1  0
 20 43  1  0
 22 44  1  0
 25 45  1  0
 26 46  1  0
M  END
>  <smiles>  (17) 
O=C(NCC(=O)N1CCC[C@H]1c1cncnc1)c1ccc2cc(F)ccc2n1

>  <score_type>  (17) 
oracle

>  <origin>  (17) 
autodockgpu

>  <m_score__min__energy>  (17) 
-8.0999999999999996

>  <m_primary>  (17) 
energy

>  <rmsd>  (17) 
7.326559533859732

>  <m_score__min__rmsd>  (17) 
7.326559533859732

>  <meeko>  (17) 
{"free_energy": -7.28, "intermolecular_energy": -8.77, "internal_energy": -1.58, "cluster_size": 1, "cluster_id": 4, "rank_in_cluster": 1}

>  <energy>  (17) 
-7.83

>  <cluster_rmsd>  (17) 
1.55

>  <cluster>  (17) 
1

$$$$

     RDKit          3D

 46 49  0  0  0  0  0  0  0  0999 V2000
  139.6000   70.6400  220.8850 O   0  0  0  0  0  0  0  0  0  0  0  0
  140.1270   71.1860  221.8880 C   0  0  0  0  0  0  0  0  0  0  0  0
  140.9210   72.3630  221.8160 N   0  0  0  0  0  0  0  0  0  0  0  0
  141.1730   73.0160  220.5480 C   0  0  0  0  0  0  0  0  0  0  0  0
  141.3970   74.4900  220.7930 C   0  0  0  0  0  0  0  0  0  0  0  0
  141.1970   74.8620  221.9760 O   0  0  0  0  0  0  0  0  0  0  0  0
  141.7880   75.2660  219.7160 N   0  0  0  0  0  0  0  0  0  0  0  0
  141.0120   76.3540  219.0540 C   0  0  0  0  0  0  0  0  0  0  0  0
  142.0340   77.4570  219.1940 C   0  0  0  0  0  0  0  0  0  0  0  0
  143.3220   76.7580  218.8160 C   0  0  0  0  0  0  0  0  0  0  0  0
  143.0190   75.3070  218.9080 C   0  0  1  0  0  0  0  0  0  0  0  0
  144.0700   74.4100  219.3230 C   0  0  0  0  0  0  0  0  0  0  0  0
  144.6750   73.4360  218.5590 C   0  0  0  0  0  0  0  0  0  0  0  0
  145.6330   72.6220  219.0470 N   0  0  0  0  0  0  0  0  0  0  0  0
  146.0580   72.7180  220.3290 C   0  0  0  0  0  0  0  0  0  0  0  0
  145.4800   73.6590  221.0860 N   0  0  0  0  0  0  0  0  0  0  0  0
  144.5230   74.4930  220.6470 C   0  0  0  0  0  0  0  0  0  0  0  0
  139.9180   70.5830  223.2210 C   0  0  0  0  0  0  0  0  0  0  0  0
  139.1930   69.4110  223.3500 C   0  0  0  0  0  0  0  0  0  0  0  0
  138.9920   68.8380  224.5950 C   0  0  0  0  0  0  0  0  0  0  0  0
  139.5310   69.4610  225.7080 C   0  0  0  0  0  0  0  0  0  0  0  0
  139.3480   68.9090  226.9780 C   0  0  0  0  0  0  0  0  0  0  0  0
  139.9010   69.5570  228.0810 C   0  0  0  0  0  0  0  0  0  0  0  0
  139.6990   68.9910  229.2860 F   0  0  0  0  0  0  0  0  0  0  0  0
  140.6170   70.7210  227.9260 C   0  0  0  0  0  0  0  0  0  0  0  0
  140.7950   71.2620  226.6540 C   0  0  0  0  0  0  0  0  0  0  0  0
  140.2490   70.6260  225.5520 C   0  0  0  0  0  0  0  0  0  0  0  0
  140.4180   71.1440  224.3350 N   0  0  0  0  0  0  0  0  0  0  0  0
  141.3490   72.7930  222.6840 H   0  0  0  0  0  0  0  0  0  0  0  0
  142.0672   72.5795  220.0791 H   0  0  0  0  0  0  0  0  0  0  0  0
  140.3113   72.8760  219.8788 H   0  0  0  0  0  0  0  0  0  0  0  0
  140.7879   76.1249  218.0017 H   0  0  0  0  0  0  0  0  0  0  0  0
  140.0171   76.5618  219.4747 H   0  0  0  0  0  0  0  0  0  0  0  0
  141.8172   78.2895  218.5085 H   0  0  0  0  0  0  0  0  0  0  0  0
  142.0576   77.9090  220.1965 H   0  0  0  0  0  0  0  0  0  0  0  0
  143.6199   77.0257  217.7915 H   0  0  0  0  0  0  0  0  0  0  0  0
  144.1549   77.0466  219.4740 H   0  0  0  0  0  0  0  0  0  0  0  0
  142.8931   74.8813  217.9015 H   0  0  0  0  0  0  0  0  0  0  0  0
  144.3645   73.3178  217.5104 H   0  0  0  0  0  0  0  0  0  0  0  0
  146.8397   72.0555  220.7289 H   0  0  0  0  0  0  0  0  0  0  0  0
  144.0938   75.2428  221.3279 H   0  0  0  0  0  0  0  0  0  0  0  0
  138.7722   68.9298  222.4548 H   0  0  0  0  0  0  0  0  0  0  0  0
  138.4157   67.9067  224.6975 H   0  0  0  0  0  0  0  0  0  0  0  0
  138.7766   67.9778  227.1055 H   0  0  0  0  0  0  0  0  0  0  0  0
  141.0483   71.2239  228.8041 H   0  0  0  0  0  0  0  0  0  0  0  0
  141.3680   72.1922  226.5258 H   0  0  0  0  0  0  0  0  0  0  0  0
  1  2  2  0
  2  3  1  0
  3  4  1  0
  4  5  1  0
  5  6  2  0
  5  7  1  0
  7  8  1  0
  8  9  1  0
  9 10  1  0
 10 11  1  0
 11 12  1  0
 12 13  2  0
 13 14  1  0
 14 15  2  0
 15 16  1  0
 16 17  2  0
  2 18  1  0
 18 19  2  0
 19 20  1  0
 20 21  2  0
 21 22  1  0
 22 23  2  0
 23 24  1  0
 23 25  1  0
 25 26  2  0
 26 27  1  0
 27 28  2  0
 11  7  1  0
 17 12  1  0
 28 18  1  0
 27 21  1  0
  3 29  1  0
  4 30  1  0
  4 31  1  0
  8 32  1  0
  8 33  1  0
  9 34  1  0
  9 35  1  0
 10 36  1  0
 10 37  1  0
 11 38  1  6
 13 39  1  0
 15 40  1  0
 17 41  1  0
 19 42  1  0
 20 43  1  0
 22 44  1  0
 25 45  1  0
 26 46  1  0
M  END
>  <smiles>  (18) 
O=C(NCC(=O)N1CCC[C@H]1c1cncnc1)c1ccc2cc(F)ccc2n1

>  <score_type>  (18) 
oracle

>  <origin>  (18) 
autodockgpu

>  <m_score__min__energy>  (18) 
-8.0999999999999996

>  <m_primary>  (18) 
energy

>  <rmsd>  (18) 
2.145683637031111

>  <m_score__min__rmsd>  (18) 
2.145683637031111

>  <meeko>  (18) 
{"free_energy": -7.39, "intermolecular_energy": -8.88, "internal_energy": -1.92, "cluster_size": 24, "cluster_id": 2, "rank_in_cluster": 21}

>  <energy>  (18) 
-7.46

>  <cluster_rmsd>  (18) 
1.12

>  <cluster>  (18) 
1

$$$$

     RDKit          3D

 46 49  0  0  0  0  0  0  0  0999 V2000
  139.9150   70.9420  221.2990 O   0  0  0  0  0  0  0  0  0  0  0  0
  139.9110   71.5230  222.4150 C   0  0  0  0  0  0  0  0  0  0  0  0
  139.9490   72.9360  222.5660 N   0  0  0  0  0  0  0  0  0  0  0  0
  139.9940   73.8080  221.4090 C   0  0  0  0  0  0  0  0  0  0  0  0
  141.4050   73.8280  220.8670 C   0  0  0  0  0  0  0  0  0  0  0  0
  142.1200   72.8610  221.2270 O   0  0  0  0  0  0  0  0  0  0  0  0
  141.7600   74.8860  220.0490 N   0  0  0  0  0  0  0  0  0  0  0  0
  140.9130   76.0470  219.6500 C   0  0  0  0  0  0  0  0  0  0  0  0
  141.8300   77.1490  220.1240 C   0  0  0  0  0  0  0  0  0  0  0  0
  143.1850   76.6750  219.6470 C   0  0  0  0  0  0  0  0  0  0  0  0
  143.0080   75.2310  219.3460 C   0  0  1  0  0  0  0  0  0  0  0  0
  144.1200   74.3400  219.5720 C   0  0  0  0  0  0  0  0  0  0  0  0
  144.6470   73.4320  218.6770 C   0  0  0  0  0  0  0  0  0  0  0  0
  145.6730   72.6170  218.9910 N   0  0  0  0  0  0  0  0  0  0  0  0
  146.2500   72.6440  220.2160 C   0  0  0  0  0  0  0  0  0  0  0  0
  145.7500   73.5200  221.0970 N   0  0  0  0  0  0  0  0  0  0  0  0
  144.7300   74.3530  220.8340 C   0  0  0  0  0  0  0  0  0  0  0  0
  139.8670   70.7050  223.6450 C   0  0  0  0  0  0  0  0  0  0  0  0
  139.2470   69.4680  223.6380 C   0  0  0  0  0  0  0  0  0  0  0  0
  139.2000   68.6940  224.7860 C   0  0  0  0  0  0  0  0  0  0  0  0
  139.7880   69.1830  225.9410 C   0  0  0  0  0  0  0  0  0  0  0  0
  139.7600   68.4280  227.1160 C   0  0  0  0  0  0  0  0  0  0  0  0
  140.3580   68.9440  228.2640 C   0  0  0  0  0  0  0  0  0  0  0  0
  140.3070   68.1840  229.3730 F   0  0  0  0  0  0  0  0  0  0  0  0
  140.9690   70.1760  228.2440 C   0  0  0  0  0  0  0  0  0  0  0  0
  140.9920   70.9210  227.0660 C   0  0  0  0  0  0  0  0  0  0  0  0
  140.3990   70.4170  225.9200 C   0  0  0  0  0  0  0  0  0  0  0  0
  140.4210   71.1290  224.7930 N   0  0  0  0  0  0  0  0  0  0  0  0
  139.9460   73.3880  223.5230 H   0  0  0  0  0  0  0  0  0  0  0  0
  139.3068   73.4326  220.6365 H   0  0  0  0  0  0  0  0  0  0  0  0
  139.6902   74.8254  221.6964 H   0  0  0  0  0  0  0  0  0  0  0  0
  140.7429   76.0849  218.5639 H   0  0  0  0  0  0  0  0  0  0  0  0
  139.8910   76.0612  220.0565 H   0  0  0  0  0  0  0  0  0  0  0  0
  141.5625   78.1130  219.6667 H   0  0  0  0  0  0  0  0  0  0  0  0
  141.7830   77.3222  221.2093 H   0  0  0  0  0  0  0  0  0  0  0  0
  143.4893   77.2231  218.7431 H   0  0  0  0  0  0  0  0  0  0  0  0
  143.9688   76.8453  220.3998 H   0  0  0  0  0  0  0  0  0  0  0  0
  142.9523   75.0747  218.2586 H   0  0  0  0  0  0  0  0  0  0  0  0
  144.2129   73.3710  217.6681 H   0  0  0  0  0  0  0  0  0  0  0  0
  147.0876   71.9795  220.4745 H   0  0  0  0  0  0  0  0  0  0  0  0
  144.3728   75.0463  221.6098 H   0  0  0  0  0  0  0  0  0  0  0  0
  138.7866   69.0953  222.7111 H   0  0  0  0  0  0  0  0  0  0  0  0
  138.7059   67.7112  224.7805 H   0  0  0  0  0  0  0  0  0  0  0  0
  139.2735   67.4416  227.1347 H   0  0  0  0  0  0  0  0  0  0  0  0
  141.4387   70.5728  229.1561 H   0  0  0  0  0  0  0  0  0  0  0  0
  141.4799   71.9067  227.0465 H   0  0  0  0  0  0  0  0  0  0  0  0
  1  2  2  0
  2  3  1  0
  3  4  1  0
  4  5  1  0
  5  6  2  0
  5  7  1  0
  7  8  1  0
  8  9  1  0
  9 10  1  0
 10 11  1  0
 11 12  1  0
 12 13  2  0
 13 14  1  0
 14 15  2  0
 15 16  1  0
 16 17  2  0
  2 18  1  0
 18 19  2  0
 19 20  1  0
 20 21  2  0
 21 22  1  0
 22 23  2  0
 23 24  1  0
 23 25  1  0
 25 26  2  0
 26 27  1  0
 27 28  2  0
 11  7  1  0
 17 12  1  0
 28 18  1  0
 27 21  1  0
  3 29  1  0
  4 30  1  0
  4 31  1  0
  8 32  1  0
  8 33  1  0
  9 34  1  0
  9 35  1  0
 10 36  1  0
 10 37  1  0
 11 38  1  6
 13 39  1  0
 15 40  1  0
 17 41  1  0
 19 42  1  0
 20 43  1  0
 22 44  1  0
 25 45  1  0
 26 46  1  0
M  END
>  <smiles>  (19) 
O=C(NCC(=O)N1CCC[C@H]1c1cncnc1)c1ccc2cc(F)ccc2n1

>  <score_type>  (19) 
oracle

>  <origin>  (19) 
autodockgpu

>  <m_score__min__energy>  (19) 
-8.0999999999999996

>  <m_primary>  (19) 
energy

>  <rmsd>  (19) 
2.015278643706653

>  <m_score__min__rmsd>  (19) 
2.015278643706653

>  <meeko>  (19) 
{"free_energy": -7.98, "intermolecular_energy": -9.47, "internal_energy": -1.26, "cluster_size": 24, "cluster_id": 2, "rank_in_cluster": 1}

>  <energy>  (19) 
-7.29

>  <cluster_rmsd>  (19) 
1.12

>  <cluster>  (19) 
1

$$$$

     RDKit          3D

 46 49  0  0  0  0  0  0  0  0999 V2000
  141.0700   72.0100  221.3030 O   0  0  0  0  0  0  0  0  0  0  0  0
  140.2780   72.3570  222.2180 C   0  0  0  0  0  0  0  0  0  0  0  0
  139.4840   73.5350  222.1650 N   0  0  0  0  0  0  0  0  0  0  0  0
  139.5450   74.4240  221.0230 C   0  0  0  0  0  0  0  0  0  0  0  0
  140.8680   75.1550  221.0430 C   0  0  0  0  0  0  0  0  0  0  0  0
  141.3900   75.2650  222.1800 O   0  0  0  0  0  0  0  0  0  0  0  0
  141.3590   75.6210  219.8370 N   0  0  0  0  0  0  0  0  0  0  0  0
  140.7080   76.5880  218.9060 C   0  0  0  0  0  0  0  0  0  0  0  0
  141.8260   77.6000  218.8370 C   0  0  0  0  0  0  0  0  0  0  0  0
  143.0510   76.7240  218.6910 C   0  0  0  0  0  0  0  0  0  0  0  0
  142.6100   75.3660  219.1000 C   0  0  1  0  0  0  0  0  0  0  0  0
  143.5590   74.5040  219.7600 C   0  0  0  0  0  0  0  0  0  0  0  0
  144.6810   74.8930  220.4600 C   0  0  0  0  0  0  0  0  0  0  0  0
  145.5300   74.0080  221.0200 N   0  0  0  0  0  0  0  0  0  0  0  0
  145.3240   72.6730  220.9270 C   0  0  0  0  0  0  0  0  0  0  0  0
  144.2390   72.2780  220.2500 N   0  0  0  0  0  0  0  0  0  0  0  0
  143.3640   73.1190  219.6740 C   0  0  0  0  0  0  0  0  0  0  0  0
  140.1570   71.5040  223.4180 C   0  0  0  0  0  0  0  0  0  0  0  0
  139.5430   70.2670  223.3360 C   0  0  0  0  0  0  0  0  0  0  0  0
  139.4250   69.4600  224.4550 C   0  0  0  0  0  0  0  0  0  0  0  0
  139.9350   69.9160  225.6600 C   0  0  0  0  0  0  0  0  0  0  0  0
  139.8330   69.1280  226.8080 C   0  0  0  0  0  0  0  0  0  0  0  0
  140.3550   69.6110  228.0070 C   0  0  0  0  0  0  0  0  0  0  0  0
  140.2350   68.8200  229.0880 F   0  0  0  0  0  0  0  0  0  0  0  0
  140.9610   70.8450  228.0610 C   0  0  0  0  0  0  0  0  0  0  0  0
  141.0580   71.6230  226.9100 C   0  0  0  0  0  0  0  0  0  0  0  0
  140.5420   71.1510  225.7140 C   0  0  0  0  0  0  0  0  0  0  0  0
  140.6340   71.8960  224.6110 N   0  0  0  0  0  0  0  0  0  0  0  0
  138.8300   73.7940  222.9560 H   0  0  0  0  0  0  0  0  0  0  0  0
  139.4598   73.8397  220.0949 H   0  0  0  0  0  0  0  0  0  0  0  0
  138.7180   75.1479  221.0690 H   0  0  0  0  0  0  0  0  0  0  0  0
  140.4907   76.1399  217.9252 H   0  0  0  0  0  0  0  0  0  0  0  0
  139.7268   76.9738  219.2199 H   0  0  0  0  0  0  0  0  0  0  0  0
  141.7072   78.2653  217.9691 H   0  0  0  0  0  0  0  0  0  0  0  0
  141.8665   78.2693  219.7090 H   0  0  0  0  0  0  0  0  0  0  0  0
  143.3991   76.7185  217.6475 H   0  0  0  0  0  0  0  0  0  0  0  0
  143.8901   77.0855  219.3035 H   0  0  0  0  0  0  0  0  0  0  0  0
  142.4717   74.7298  218.2134 H   0  0  0  0  0  0  0  0  0  0  0  0
  144.8918   75.9674  220.5658 H   0  0  0  0  0  0  0  0  0  0  0  0
  146.0140   71.9490  221.3850 H   0  0  0  0  0  0  0  0  0  0  0  0
  142.4929   72.7197  219.1339 H   0  0  0  0  0  0  0  0  0  0  0  0
  139.1441   69.9207  222.3711 H   0  0  0  0  0  0  0  0  0  0  0  0
  138.9363   68.4768  224.3887 H   0  0  0  0  0  0  0  0  0  0  0  0
  139.3483   68.1414  226.7670 H   0  0  0  0  0  0  0  0  0  0  0  0
  141.3686   71.2168  229.0126 H   0  0  0  0  0  0  0  0  0  0  0  0
  141.5429   72.6095  226.9504 H   0  0  0  0  0  0  0  0  0  0  0  0
  1  2  2  0
  2  3  1  0
  3  4  1  0
  4  5  1  0
  5  6  2  0
  5  7  1  0
  7  8  1  0
  8  9  1  0
  9 10  1  0
 10 11  1  0
 11 12  1  0
 12 13  2  0
 13 14  1  0
 14 15  2  0
 15 16  1  0
 16 17  2  0
  2 18  1  0
 18 19  2  0
 19 20  1  0
 20 21  2  0
 21 22  1  0
 22 23  2  0
 23 24  1  0
 23 25  1  0
 25 26  2  0
 26 27  1  0
 27 28  2  0
 11  7  1  0
 17 12  1  0
 28 18  1  0
 27 21  1  0
  3 29  1  0
  4 30  1  0
  4 31  1  0
  8 32  1  0
  8 33  1  0
  9 34  1  0
  9 35  1  0
 10 36  1  0
 10 37  1  0
 11 38  1  6
 13 39  1  0
 15 40  1  0
 17 41  1  0
 19 42  1  0
 20 43  1  0
 22 44  1  0
 25 45  1  0
 26 46  1  0
M  END
>  <smiles>  (20) 
O=C(NCC(=O)N1CCC[C@H]1c1cncnc1)c1ccc2cc(F)ccc2n1

>  <score_type>  (20) 
oracle

>  <origin>  (20) 
autodockgpu

>  <m_score__min__energy>  (20) 
-8.0999999999999996

>  <m_primary>  (20) 
energy

>  <rmsd>  (20) 
1.834474929073102

>  <m_score__min__rmsd>  (20) 
1.834474929073102

>  <meeko>  (20) 
{"free_energy": -7.73, "intermolecular_energy": -9.22, "internal_energy": -1.47, "cluster_size": 24, "cluster_id": 2, "rank_in_cluster": 2}

>  <energy>  (20) 
-7.27

>  <cluster_rmsd>  (20) 
1.12

>  <cluster>  (20) 
1

$$$$

     RDKit          3D

 46 49  0  0  0  0  0  0  0  0999 V2000
  141.4360   72.2000  221.5950 O   0  0  0  0  0  0  0  0  0  0  0  0
  140.4910   72.4560  222.3850 C   0  0  0  0  0  0  0  0  0  0  0  0
  139.6090   73.5590  222.2260 N   0  0  0  0  0  0  0  0  0  0  0  0
  139.7540   74.4750  221.1130 C   0  0  0  0  0  0  0  0  0  0  0  0
  140.3400   75.7720  221.6200 C   0  0  0  0  0  0  0  0  0  0  0  0
  139.8880   76.1550  222.7280 O   0  0  0  0  0  0  0  0  0  0  0  0
  141.2910   76.3960  220.8330 N   0  0  0  0  0  0  0  0  0  0  0  0
  142.0230   75.8190  219.6690 C   0  0  0  0  0  0  0  0  0  0  0  0
  141.6520   76.8650  218.6460 C   0  0  0  0  0  0  0  0  0  0  0  0
  141.8330   78.1550  219.4170 C   0  0  0  0  0  0  0  0  0  0  0  0
  141.8690   77.7520  220.8470 C   0  0  1  0  0  0  0  0  0  0  0  0
  141.3210   78.6540  221.8290 C   0  0  0  0  0  0  0  0  0  0  0  0
  140.0310   79.1400  221.8770 C   0  0  0  0  0  0  0  0  0  0  0  0
  139.6190   80.0080  222.8220 N   0  0  0  0  0  0  0  0  0  0  0  0
  140.4560   80.4550  223.7890 C   0  0  0  0  0  0  0  0  0  0  0  0
  141.7120   79.9930  223.7560 N   0  0  0  0  0  0  0  0  0  0  0  0
  142.1720   79.1290  222.8370 C   0  0  0  0  0  0  0  0  0  0  0  0
  140.2750   71.5700  223.5480 C   0  0  0  0  0  0  0  0  0  0  0  0
  139.5690   70.3890  223.4030 C   0  0  0  0  0  0  0  0  0  0  0  0
  139.3610   69.5520  224.4880 C   0  0  0  0  0  0  0  0  0  0  0  0
  139.8760   69.9200  225.7200 C   0  0  0  0  0  0  0  0  0  0  0  0
  139.6850   69.0990  226.8330 C   0  0  0  0  0  0  0  0  0  0  0  0
  140.2130   69.4940  228.0610 C   0  0  0  0  0  0  0  0  0  0  0  0
  140.0060   68.6740  229.1070 F   0  0  0  0  0  0  0  0  0  0  0  0
  140.9120   70.6730  228.1780 C   0  0  0  0  0  0  0  0  0  0  0  0
  141.0970   71.4840  227.0600 C   0  0  0  0  0  0  0  0  0  0  0  0
  140.5760   71.1010  225.8360 C   0  0  0  0  0  0  0  0  0  0  0  0
  140.7520   71.8770  224.7660 N   0  0  0  0  0  0  0  0  0  0  0  0
  138.8260   73.7420  222.9150 H   0  0  0  0  0  0  0  0  0  0  0  0
  140.4243   74.0367  220.3590 H   0  0  0  0  0  0  0  0  0  0  0  0
  138.7718   74.6636  220.6550 H   0  0  0  0  0  0  0  0  0  0  0  0
  143.1084   75.7718  219.8415 H   0  0  0  0  0  0  0  0  0  0  0  0
  141.7725   74.7800  219.4089 H   0  0  0  0  0  0  0  0  0  0  0  0
  142.3227   76.8249  217.7750 H   0  0  0  0  0  0  0  0  0  0  0  0
  140.6395   76.7375  218.2355 H   0  0  0  0  0  0  0  0  0  0  0  0
  142.7745   78.6466  219.1309 H   0  0  0  0  0  0  0  0  0  0  0  0
  141.0254   78.8733  219.2123 H   0  0  0  0  0  0  0  0  0  0  0  0
  142.9020   77.7818  221.2238 H   0  0  0  0  0  0  0  0  0  0  0  0
  139.3112   78.8064  221.1150 H   0  0  0  0  0  0  0  0  0  0  0  0
  140.1205   81.1618  224.5622 H   0  0  0  0  0  0  0  0  0  0  0  0
  143.2188   78.7931  222.8750 H   0  0  0  0  0  0  0  0  0  0  0  0
  139.1688   70.1115  222.4167 H   0  0  0  0  0  0  0  0  0  0  0  0
  138.7980   68.6140  224.3730 H   0  0  0  0  0  0  0  0  0  0  0  0
  139.1268   68.1555  226.7422 H   0  0  0  0  0  0  0  0  0  0  0  0
  141.3241   70.9750  229.1521 H   0  0  0  0  0  0  0  0  0  0  0  0
  141.6561   72.4270  227.1500 H   0  0  0  0  0  0  0  0  0  0  0  0
  1  2  2  0
  2  3  1  0
  3  4  1  0
  4  5  1  0
  5  6  2  0
  5  7  1  0
  7  8  1  0
  8  9  1  0
  9 10  1  0
 10 11  1  0
 11 12  1  0
 12 13  2  0
 13 14  1  0
 14 15  2  0
 15 16  1  0
 16 17  2  0
  2 18  1  0
 18 19  2  0
 19 20  1  0
 20 21  2  0
 21 22  1  0
 22 23  2  0
 23 24  1  0
 23 25  1  0
 25 26  2  0
 26 27  1  0
 27 28  2  0
 11  7  1  0
 17 12  1  0
 28 18  1  0
 27 21  1  0
  3 29  1  0
  4 30  1  0
  4 31  1  0
  8 32  1  0
  8 33  1  0
  9 34  1  0
  9 35  1  0
 10 36  1  0
 10 37  1  0
 11 38  1  1
 13 39  1  0
 15 40  1  0
 17 41  1  0
 19 42  1  0
 20 43  1  0
 22 44  1  0
 25 45  1  0
 26 46  1  0
M  END
>  <smiles>  (21) 
O=C(NCC(=O)N1CCC[C@H]1c1cncnc1)c1ccc2cc(F)ccc2n1

>  <score_type>  (21) 
oracle

>  <origin>  (21) 
autodockgpu

>  <m_score__min__energy>  (21) 
-8.0999999999999996

>  <m_primary>  (21) 
energy

>  <rmsd>  (21) 
1.851907742189185

>  <m_score__min__rmsd>  (21) 
1.851907742189185

>  <meeko>  (21) 
{"free_energy": -8.09, "intermolecular_energy": -9.59, "internal_energy": -1.28, "cluster_size": 20, "cluster_id": 1, "rank_in_cluster": 2}

>  <energy>  (21) 
-7.98

>  <cluster_rmsd>  (21) 
0.0

>  <cluster>  (21) 
2

$$$$

     RDKit          3D

 46 49  0  0  0  0  0  0  0  0999 V2000
  139.3050   70.8240  221.5100 O   0  0  0  0  0  0  0  0  0  0  0  0
  139.6750   71.3420  222.5950 C   0  0  0  0  0  0  0  0  0  0  0  0
  140.0400   72.7090  222.7300 N   0  0  0  0  0  0  0  0  0  0  0  0
  140.0020   73.6060  221.5930 C   0  0  0  0  0  0  0  0  0  0  0  0
  141.3290   73.5380  220.8730 C   0  0  0  0  0  0  0  0  0  0  0  0
  142.0020   72.5040  221.1080 O   0  0  0  0  0  0  0  0  0  0  0  0
  141.6640   74.5960  220.0470 N   0  0  0  0  0  0  0  0  0  0  0  0
  140.7730   75.6970  219.5790 C   0  0  0  0  0  0  0  0  0  0  0  0
  141.6010   76.8610  220.0680 C   0  0  0  0  0  0  0  0  0  0  0  0
  143.0030   76.4550  219.6690 C   0  0  0  0  0  0  0  0  0  0  0  0
  142.9230   74.9970  219.3950 C   0  0  1  0  0  0  0  0  0  0  0  0
  144.0710   74.1770  219.6950 C   0  0  0  0  0  0  0  0  0  0  0  0
  144.7620   74.1280  220.8870 C   0  0  0  0  0  0  0  0  0  0  0  0
  145.8470   73.3480  221.0640 N   0  0  0  0  0  0  0  0  0  0  0  0
  146.3240   72.5600  220.0710 C   0  0  0  0  0  0  0  0  0  0  0  0
  145.6640   72.5960  218.9060 N   0  0  0  0  0  0  0  0  0  0  0  0
  144.5800   73.3560  218.6790 C   0  0  0  0  0  0  0  0  0  0  0  0
  139.7420   70.4940  223.8030 C   0  0  0  0  0  0  0  0  0  0  0  0
  139.1960   69.2220  223.7940 C   0  0  0  0  0  0  0  0  0  0  0  0
  139.2530   68.4200  224.9210 C   0  0  0  0  0  0  0  0  0  0  0  0
  139.8680   68.9160  226.0590 C   0  0  0  0  0  0  0  0  0  0  0  0
  139.9430   68.1330  227.2130 C   0  0  0  0  0  0  0  0  0  0  0  0
  140.5670   68.6570  228.3440 C   0  0  0  0  0  0  0  0  0  0  0  0
  140.6170   67.8690  229.4340 F   0  0  0  0  0  0  0  0  0  0  0  0
  141.1020   69.9240  228.3270 C   0  0  0  0  0  0  0  0  0  0  0  0
  141.0210   70.6960  227.1710 C   0  0  0  0  0  0  0  0  0  0  0  0
  140.4030   70.1850  226.0420 C   0  0  0  0  0  0  0  0  0  0  0  0
  140.3260   70.9230  224.9340 N   0  0  0  0  0  0  0  0  0  0  0  0
  140.3480   73.1070  223.6610 H   0  0  0  0  0  0  0  0  0  0  0  0
  139.1950   73.3026  220.9098 H   0  0  0  0  0  0  0  0  0  0  0  0
  139.8153   74.6346  221.9352 H   0  0  0  0  0  0  0  0  0  0  0  0
  140.6545   75.7005  218.4854 H   0  0  0  0  0  0  0  0  0  0  0  0
  139.7332   75.6609  219.9362 H   0  0  0  0  0  0  0  0  0  0  0  0
  141.3022   77.7971  219.5736 H   0  0  0  0  0  0  0  0  0  0  0  0
  141.4904   77.0565  221.1448 H   0  0  0  0  0  0  0  0  0  0  0  0
  143.3207   77.0000  218.7679 H   0  0  0  0  0  0  0  0  0  0  0  0
  143.7373   76.6861  220.4547 H   0  0  0  0  0  0  0  0  0  0  0  0
  142.9291   74.8142  218.3103 H   0  0  0  0  0  0  0  0  0  0  0  0
  144.4146   74.7492  221.7257 H   0  0  0  0  0  0  0  0  0  0  0  0
  147.2089   71.9225  220.2141 H   0  0  0  0  0  0  0  0  0  0  0  0
  144.0907   73.3342  217.6940 H   0  0  0  0  0  0  0  0  0  0  0  0
  138.7116   68.8444  222.8815 H   0  0  0  0  0  0  0  0  0  0  0  0
  138.8188   67.4094  224.9131 H   0  0  0  0  0  0  0  0  0  0  0  0
  139.5165   67.1192  227.2292 H   0  0  0  0  0  0  0  0  0  0  0  0
  141.5931   70.3268  229.2251 H   0  0  0  0  0  0  0  0  0  0  0  0
  141.4471   71.7100  227.1546 H   0  0  0  0  0  0  0  0  0  0  0  0
  1  2  2  0
  2  3  1  0
  3  4  1  0
  4  5  1  0
  5  6  2  0
  5  7  1  0
  7  8  1  0
  8  9  1  0
  9 10  1  0
 10 11  1  0
 11 12  1  0
 12 13  2  0
 13 14  1  0
 14 15  2  0
 15 16  1  0
 16 17  2  0
  2 18  1  0
 18 19  2  0
 19 20  1  0
 20 21  2  0
 21 22  1  0
 22 23  2  0
 23 24  1  0
 23 25  1  0
 25 26  2  0
 26 27  1  0
 27 28  2  0
 11  7  1  0
 17 12  1  0
 28 18  1  0
 27 21  1  0
  3 29  1  0
  4 30  1  0
  4 31  1  0
  8 32  1  0
  8 33  1  0
  9 34  1  0
  9 35  1  0
 10 36  1  0
 10 37  1  0
 11 38  1  6
 13 39  1  0
 15 40  1  0
 17 41  1  0
 19 42  1  0
 20 43  1  0
 22 44  1  0
 25 45  1  0
 26 46  1  0
M  END
>  <smiles>  (22) 
O=C(NCC(=O)N1CCC[C@H]1c1cncnc1)c1ccc2cc(F)ccc2n1

>  <score_type>  (22) 
oracle

>  <origin>  (22) 
autodockgpu

>  <m_score__min__energy>  (22) 
-8.0999999999999996

>  <m_primary>  (22) 
energy

>  <rmsd>  (22) 
1.9961169593217012

>  <m_score__min__rmsd>  (22) 
1.9961169593217012

>  <meeko>  (22) 
{"free_energy": -7.66, "intermolecular_energy": -9.15, "internal_energy": -1.38, "cluster_size": 24, "cluster_id": 2, "rank_in_cluster": 5}

>  <energy>  (22) 
-7.73

>  <cluster_rmsd>  (22) 
1.09

>  <cluster>  (22) 
2

$$$$

     RDKit          3D

 46 49  0  0  0  0  0  0  0  0999 V2000
  140.0170   71.1700  220.9210 O   0  0  0  0  0  0  0  0  0  0  0  0
  139.8600   71.7900  222.0050 C   0  0  0  0  0  0  0  0  0  0  0  0
  139.7110   73.2020  222.0880 N   0  0  0  0  0  0  0  0  0  0  0  0
  139.7290   74.0250  220.8960 C   0  0  0  0  0  0  0  0  0  0  0  0
  140.4640   75.3100  221.2010 C   0  0  0  0  0  0  0  0  0  0  0  0
  140.4430   75.6520  222.4090 O   0  0  0  0  0  0  0  0  0  0  0  0
  141.0700   75.9660  220.1450 N   0  0  0  0  0  0  0  0  0  0  0  0
  140.5890   77.1930  219.4450 C   0  0  0  0  0  0  0  0  0  0  0  0
  141.8230   78.0420  219.6350 C   0  0  0  0  0  0  0  0  0  0  0  0
  142.9400   77.0700  219.3220 C   0  0  0  0  0  0  0  0  0  0  0  0
  142.3170   75.7230  219.3990 C   0  0  1  0  0  0  0  0  0  0  0  0
  143.1200   74.6200  219.8670 C   0  0  0  0  0  0  0  0  0  0  0  0
  142.7230   73.3070  219.9990 C   0  0  0  0  0  0  0  0  0  0  0  0
  143.5400   72.3470  220.4760 N   0  0  0  0  0  0  0  0  0  0  0  0
  144.8110   72.6220  220.8550 C   0  0  0  0  0  0  0  0  0  0  0  0
  145.2130   73.8930  220.7340 N   0  0  0  0  0  0  0  0  0  0  0  0
  144.4380   74.8850  220.2650 C   0  0  0  0  0  0  0  0  0  0  0  0
  139.8300   71.0240  223.2680 C   0  0  0  0  0  0  0  0  0  0  0  0
  139.2750   69.7570  223.3010 C   0  0  0  0  0  0  0  0  0  0  0  0
  139.2420   69.0310  224.4800 C   0  0  0  0  0  0  0  0  0  0  0  0
  139.7770   69.5980  225.6250 C   0  0  0  0  0  0  0  0  0  0  0  0
  139.7600   68.8920  226.8300 C   0  0  0  0  0  0  0  0  0  0  0  0
  140.3050   69.4870  227.9670 C   0  0  0  0  0  0  0  0  0  0  0  0
  140.2680   68.7720  229.1070 F   0  0  0  0  0  0  0  0  0  0  0  0
  140.8520   70.7480  227.9070 C   0  0  0  0  0  0  0  0  0  0  0  0
  140.8630   71.4420  226.6990 C   0  0  0  0  0  0  0  0  0  0  0  0
  140.3240   70.8600  225.5640 C   0  0  0  0  0  0  0  0  0  0  0  0
  140.3350   71.5240  224.4080 N   0  0  0  0  0  0  0  0  0  0  0  0
  139.5820   73.6870  223.0200 H   0  0  0  0  0  0  0  0  0  0  0  0
  140.2431   73.4889  220.0846 H   0  0  0  0  0  0  0  0  0  0  0  0
  138.6990   74.2496  220.5819 H   0  0  0  0  0  0  0  0  0  0  0  0
  140.3703   77.0079  218.3830 H   0  0  0  0  0  0  0  0  0  0  0  0
  139.6466   77.6220  219.8162 H   0  0  0  0  0  0  0  0  0  0  0  0
  141.8306   78.8939  218.9391 H   0  0  0  0  0  0  0  0  0  0  0  0
  141.8981   78.4887  220.6374 H   0  0  0  0  0  0  0  0  0  0  0  0
  143.3396   77.2532  218.3136 H   0  0  0  0  0  0  0  0  0  0  0  0
  143.7832   77.1737  220.0208 H   0  0  0  0  0  0  0  0  0  0  0  0
  142.1488   75.3248  218.3875 H   0  0  0  0  0  0  0  0  0  0  0  0
  141.6998   73.0318  219.7036 H   0  0  0  0  0  0  0  0  0  0  0  0
  145.4797   71.8395  221.2430 H   0  0  0  0  0  0  0  0  0  0  0  0
  144.8382   75.9071  220.1931 H   0  0  0  0  0  0  0  0  0  0  0  0
  138.8558   69.3220  222.3817 H   0  0  0  0  0  0  0  0  0  0  0  0
  138.7998   68.0242  224.5066 H   0  0  0  0  0  0  0  0  0  0  0  0
  139.3239   67.8834  226.8811 H   0  0  0  0  0  0  0  0  0  0  0  0
  141.2796   71.2071  228.8105 H   0  0  0  0  0  0  0  0  0  0  0  0
  141.2991   72.4505  226.6469 H   0  0  0  0  0  0  0  0  0  0  0  0
  1  2  2  0
  2  3  1  0
  3  4  1  0
  4  5  1  0
  5  6  2  0
  5  7  1  0
  7  8  1  0
  8  9  1  0
  9 10  1  0
 10 11  1  0
 11 12  1  0
 12 13  2  0
 13 14  1  0
 14 15  2  0
 15 16  1  0
 16 17  2  0
  2 18  1  0
 18 19  2  0
 19 20  1  0
 20 21  2  0
 21 22  1  0
 22 23  2  0
 23 24  1  0
 23 25  1  0
 25 26  2  0
 26 27  1  0
 27 28  2  0
 11  7  1  0
 17 12  1  0
 28 18  1  0
 27 21  1  0
  3 29  1  0
  4 30  1  0
  4 31  1  0
  8 32  1  0
  8 33  1  0
  9 34  1  0
  9 35  1  0
 10 36  1  0
 10 37  1  0
 11 38  1  6
 13 39  1  0
 15 40  1  0
 17 41  1  0
 19 42  1  0
 20 43  1  0
 22 44  1  0
 25 45  1  0
 26 46  1  0
M  END
>  <smiles>  (23) 
O=C(NCC(=O)N1CCC[C@H]1c1cncnc1)c1ccc2cc(F)ccc2n1

>  <score_type>  (23) 
oracle

>  <origin>  (23) 
autodockgpu

>  <m_score__min__energy>  (23) 
-8.0999999999999996

>  <m_primary>  (23) 
energy

>  <rmsd>  (23) 
1.8340010001364226

>  <m_score__min__rmsd>  (23) 
1.8340010001364226

>  <meeko>  (23) 
{"free_energy": -7.57, "intermolecular_energy": -9.06, "internal_energy": -1.96, "cluster_size": 24, "cluster_id": 2, "rank_in_cluster": 16}

>  <energy>  (23) 
-7.73

>  <cluster_rmsd>  (23) 
0.83

>  <cluster>  (23) 
2

$$$$

     RDKit          3D

 46 49  0  0  0  0  0  0  0  0999 V2000
  140.9160   71.7500  221.1760 O   0  0  0  0  0  0  0  0  0  0  0  0
  140.4000   72.2740  222.1970 C   0  0  0  0  0  0  0  0  0  0  0  0
  139.9920   73.6350  222.2610 N   0  0  0  0  0  0  0  0  0  0  0  0
  140.1530   74.5160  221.1220 C   0  0  0  0  0  0  0  0  0  0  0  0
  140.5430   75.8890  221.6180 C   0  0  0  0  0  0  0  0  0  0  0  0
  140.0190   76.2220  222.7100 O   0  0  0  0  0  0  0  0  0  0  0  0
  141.4170   76.6260  220.8390 N   0  0  0  0  0  0  0  0  0  0  0  0
  142.2080   76.1510  219.6680 C   0  0  0  0  0  0  0  0  0  0  0  0
  141.7190   77.1610  218.6580 C   0  0  0  0  0  0  0  0  0  0  0  0
  141.7540   78.4530  219.4450 C   0  0  0  0  0  0  0  0  0  0  0  0
  141.8360   78.0390  220.8700 C   0  0  1  0  0  0  0  0  0  0  0  0
  141.1910   78.8610  221.8630 C   0  0  0  0  0  0  0  0  0  0  0  0
  139.8590   79.2160  221.9040 C   0  0  0  0  0  0  0  0  0  0  0  0
  139.3520   80.0180  222.8610 N   0  0  0  0  0  0  0  0  0  0  0  0
  140.1300   80.5240  223.8480 C   0  0  0  0  0  0  0  0  0  0  0  0
  141.4260   80.1900  223.8230 N   0  0  0  0  0  0  0  0  0  0  0  0
  141.9800   79.3950  222.8920 C   0  0  0  0  0  0  0  0  0  0  0  0
  140.2010   71.4430  223.4020 C   0  0  0  0  0  0  0  0  0  0  0  0
  139.5380   70.2320  223.3120 C   0  0  0  0  0  0  0  0  0  0  0  0
  139.3470   69.4460  224.4370 C   0  0  0  0  0  0  0  0  0  0  0  0
  139.8330   69.8960  225.6530 C   0  0  0  0  0  0  0  0  0  0  0  0
  139.6580   69.1280  226.8060 C   0  0  0  0  0  0  0  0  0  0  0  0
  140.1570   69.6050  228.0170 C   0  0  0  0  0  0  0  0  0  0  0  0
  139.9660   68.8330  229.1020 F   0  0  0  0  0  0  0  0  0  0  0  0
  140.8120   70.8130  228.0790 C   0  0  0  0  0  0  0  0  0  0  0  0
  140.9820   71.5710  226.9220 C   0  0  0  0  0  0  0  0  0  0  0  0
  140.4890   71.1050  225.7140 C   0  0  0  0  0  0  0  0  0  0  0  0
  140.6510   71.8300  224.6070 N   0  0  0  0  0  0  0  0  0  0  0  0
  139.5620   74.0400  223.1400 H   0  0  0  0  0  0  0  0  0  0  0  0
  140.9401   74.1247  220.4606 H   0  0  0  0  0  0  0  0  0  0  0  0
  139.2091   74.5763  220.5605 H   0  0  0  0  0  0  0  0  0  0  0  0
  143.2919   76.2254  219.8399 H   0  0  0  0  0  0  0  0  0  0  0  0
  142.0768   75.0936  219.3946 H   0  0  0  0  0  0  0  0  0  0  0  0
  142.3884   77.2080  217.7864 H   0  0  0  0  0  0  0  0  0  0  0  0
  140.7268   76.9248  218.2461 H   0  0  0  0  0  0  0  0  0  0  0  0
  142.6340   79.0511  219.1658 H   0  0  0  0  0  0  0  0  0  0  0  0
  140.8705   79.0781  219.2486 H   0  0  0  0  0  0  0  0  0  0  0  0
  142.8590   78.1816  221.2483 H   0  0  0  0  0  0  0  0  0  0  0  0
  139.1845   78.8297  221.1257 H   0  0  0  0  0  0  0  0  0  0  0  0
  139.7171   81.1769  224.6311 H   0  0  0  0  0  0  0  0  0  0  0  0
  143.0542   79.1627  222.9371 H   0  0  0  0  0  0  0  0  0  0  0  0
  139.1588   69.8898  222.3378 H   0  0  0  0  0  0  0  0  0  0  0  0
  138.8196   68.4833  224.3655 H   0  0  0  0  0  0  0  0  0  0  0  0
  139.1346   68.1617  226.7594 H   0  0  0  0  0  0  0  0  0  0  0  0
  141.2010   71.1801  229.0402 H   0  0  0  0  0  0  0  0  0  0  0  0
  141.5063   72.5369  226.9677 H   0  0  0  0  0  0  0  0  0  0  0  0
  1  2  2  0
  2  3  1  0
  3  4  1  0
  4  5  1  0
  5  6  2  0
  5  7  1  0
  7  8  1  0
  8  9  1  0
  9 10  1  0
 10 11  1  0
 11 12  1  0
 12 13  2  0
 13 14  1  0
 14 15  2  0
 15 16  1  0
 16 17  2  0
  2 18  1  0
 18 19  2  0
 19 20  1  0
 20 21  2  0
 21 22  1  0
 22 23  2  0
 23 24  1  0
 23 25  1  0
 25 26  2  0
 26 27  1  0
 27 28  2  0
 11  7  1  0
 17 12  1  0
 28 18  1  0
 27 21  1  0
  3 29  1  0
  4 30  1  0
  4 31  1  0
  8 32  1  0
  8 33  1  0
  9 34  1  0
  9 35  1  0
 10 36  1  0
 10 37  1  0
 11 38  1  1
 13 39  1  0
 15 40  1  0
 17 41  1  0
 19 42  1  0
 20 43  1  0
 22 44  1  0
 25 45  1  0
 26 46  1  0
M  END
>  <smiles>  (24) 
O=C(NCC(=O)N1CCC[C@H]1c1cncnc1)c1ccc2cc(F)ccc2n1

>  <score_type>  (24) 
oracle

>  <origin>  (24) 
autodockgpu

>  <m_score__min__energy>  (24) 
-8.0999999999999996

>  <m_primary>  (24) 
energy

>  <rmsd>  (24) 
1.9596513367129003

>  <m_score__min__rmsd>  (24) 
1.9596513367129003

>  <meeko>  (24) 
{"free_energy": -8.0, "intermolecular_energy": -9.49, "internal_energy": -1.64, "cluster_size": 20, "cluster_id": 1, "rank_in_cluster": 7}

>  <energy>  (24) 
-7.71

>  <cluster_rmsd>  (24) 
1.14

>  <cluster>  (24) 
2

$$$$

     RDKit          3D

 46 49  0  0  0  0  0  0  0  0999 V2000
  139.9610   71.2310  220.9080 O   0  0  0  0  0  0  0  0  0  0  0  0
  139.8250   71.8550  221.9930 C   0  0  0  0  0  0  0  0  0  0  0  0
  139.6910   73.2670  222.0760 N   0  0  0  0  0  0  0  0  0  0  0  0
  139.7010   74.0890  220.8830 C   0  0  0  0  0  0  0  0  0  0  0  0
  140.5640   75.3050  221.1350 C   0  0  0  0  0  0  0  0  0  0  0  0
  140.6700   75.6320  222.3430 O   0  0  0  0  0  0  0  0  0  0  0  0
  141.1350   75.9220  220.0370 N   0  0  0  0  0  0  0  0  0  0  0  0
  140.6250   77.1140  219.3000 C   0  0  0  0  0  0  0  0  0  0  0  0
  141.8550   77.9800  219.4220 C   0  0  0  0  0  0  0  0  0  0  0  0
  142.9720   77.0060  219.1190 C   0  0  0  0  0  0  0  0  0  0  0  0
  142.3640   75.6580  219.2680 C   0  0  1  0  0  0  0  0  0  0  0  0
  143.1900   74.5820  219.7590 C   0  0  0  0  0  0  0  0  0  0  0  0
  142.8940   73.2360  219.7330 C   0  0  0  0  0  0  0  0  0  0  0  0
  143.7190   72.3020  220.2460 N   0  0  0  0  0  0  0  0  0  0  0  0
  144.8990   72.6380  220.8210 C   0  0  0  0  0  0  0  0  0  0  0  0
  145.2020   73.9420  220.8550 N   0  0  0  0  0  0  0  0  0  0  0  0
  144.4140   74.9100  220.3590 C   0  0  0  0  0  0  0  0  0  0  0  0
  139.8040   71.0900  223.2570 C   0  0  0  0  0  0  0  0  0  0  0  0
  139.2550   69.8200  223.2950 C   0  0  0  0  0  0  0  0  0  0  0  0
  139.2300   69.0960  224.4750 C   0  0  0  0  0  0  0  0  0  0  0  0
  139.7680   69.6670  225.6170 C   0  0  0  0  0  0  0  0  0  0  0  0
  139.7600   68.9630  226.8230 C   0  0  0  0  0  0  0  0  0  0  0  0
  140.3080   69.5610  227.9560 C   0  0  0  0  0  0  0  0  0  0  0  0
  140.2790   68.8480  229.0970 F   0  0  0  0  0  0  0  0  0  0  0  0
  140.8490   70.8240  227.8920 C   0  0  0  0  0  0  0  0  0  0  0  0
  140.8520   71.5170  226.6830 C   0  0  0  0  0  0  0  0  0  0  0  0
  140.3100   70.9310  225.5510 C   0  0  0  0  0  0  0  0  0  0  0  0
  140.3120   71.5940  224.3940 N   0  0  0  0  0  0  0  0  0  0  0  0
  139.5800   73.7560  223.0090 H   0  0  0  0  0  0  0  0  0  0  0  0
  140.1114   73.5128  220.0407 H   0  0  0  0  0  0  0  0  0  0  0  0
  138.6758   74.4032  220.6375 H   0  0  0  0  0  0  0  0  0  0  0  0
  140.3806   76.8829  218.2527 H   0  0  0  0  0  0  0  0  0  0  0  0
  139.6886   77.5503  219.6778 H   0  0  0  0  0  0  0  0  0  0  0  0
  141.8360   78.8027  218.6921 H   0  0  0  0  0  0  0  0  0  0  0  0
  141.9525   78.4679  220.4031 H   0  0  0  0  0  0  0  0  0  0  0  0
  143.3427   77.1509  218.0935 H   0  0  0  0  0  0  0  0  0  0  0  0
  143.8326   77.1455  219.7897 H   0  0  0  0  0  0  0  0  0  0  0  0
  142.1724   75.2163  218.2790 H   0  0  0  0  0  0  0  0  0  0  0  0
  141.9476   72.9116  219.2757 H   0  0  0  0  0  0  0  0  0  0  0  0
  145.5746   71.8773  221.2392 H   0  0  0  0  0  0  0  0  0  0  0  0
  144.7295   75.9618  220.4236 H   0  0  0  0  0  0  0  0  0  0  0  0
  138.8342   69.3813  222.3782 H   0  0  0  0  0  0  0  0  0  0  0  0
  138.7917   68.0875  224.5052 H   0  0  0  0  0  0  0  0  0  0  0  0
  139.3281   67.9528  226.8777 H   0  0  0  0  0  0  0  0  0  0  0  0
  141.2784   71.2860  228.7932 H   0  0  0  0  0  0  0  0  0  0  0  0
  141.2839   72.5272  226.6278 H   0  0  0  0  0  0  0  0  0  0  0  0
  1  2  2  0
  2  3  1  0
  3  4  1  0
  4  5  1  0
  5  6  2  0
  5  7  1  0
  7  8  1  0
  8  9  1  0
  9 10  1  0
 10 11  1  0
 11 12  1  0
 12 13  2  0
 13 14  1  0
 14 15  2  0
 15 16  1  0
 16 17  2  0
  2 18  1  0
 18 19  2  0
 19 20  1  0
 20 21  2  0
 21 22  1  0
 22 23  2  0
 23 24  1  0
 23 25  1  0
 25 26  2  0
 26 27  1  0
 27 28  2  0
 11  7  1  0
 17 12  1  0
 28 18  1  0
 27 21  1  0
  3 29  1  0
  4 30  1  0
  4 31  1  0
  8 32  1  0
  8 33  1  0
  9 34  1  0
  9 35  1  0
 10 36  1  0
 10 37  1  0
 11 38  1  6
 13 39  1  0
 15 40  1  0
 17 41  1  0
 19 42  1  0
 20 43  1  0
 22 44  1  0
 25 45  1  0
 26 46  1  0
M  END
>  <smiles>  (25) 
O=C(NCC(=O)N1CCC[C@H]1c1cncnc1)c1ccc2cc(F)ccc2n1

>  <score_type>  (25) 
oracle

>  <origin>  (25) 
autodockgpu

>  <m_score__min__energy>  (25) 
-8.0999999999999996

>  <m_primary>  (25) 
energy

>  <rmsd>  (25) 
1.8150413421014808

>  <m_score__min__rmsd>  (25) 
1.8150413421014808

>  <meeko>  (25) 
{"free_energy": -7.55, "intermolecular_energy": -9.04, "internal_energy": -1.97, "cluster_size": 24, "cluster_id": 2, "rank_in_cluster": 17}

>  <energy>  (25) 
-7.66

>  <cluster_rmsd>  (25) 
0.32

>  <cluster>  (25) 
2

$$$$

     RDKit          3D

 46 49  0  0  0  0  0  0  0  0999 V2000
  140.7770   71.7170  221.1310 O   0  0  0  0  0  0  0  0  0  0  0  0
  140.3170   72.2530  222.1730 C   0  0  0  0  0  0  0  0  0  0  0  0
  139.9490   73.6240  222.2560 N   0  0  0  0  0  0  0  0  0  0  0  0
  140.0860   74.5020  221.1120 C   0  0  0  0  0  0  0  0  0  0  0  0
  140.5410   75.8610  221.5920 C   0  0  0  0  0  0  0  0  0  0  0  0
  140.0520   76.2200  222.6920 O   0  0  0  0  0  0  0  0  0  0  0  0
  141.4280   76.5590  220.7920 N   0  0  0  0  0  0  0  0  0  0  0  0
  142.1640   76.0500  219.5990 C   0  0  0  0  0  0  0  0  0  0  0  0
  141.6980   77.0860  218.6050 C   0  0  0  0  0  0  0  0  0  0  0  0
  141.8160   78.3720  219.3940 C   0  0  0  0  0  0  0  0  0  0  0  0
  141.9160   77.9490  220.8150 C   0  0  1  0  0  0  0  0  0  0  0  0
  141.3380   78.7980  221.8280 C   0  0  0  0  0  0  0  0  0  0  0  0
  140.0180   79.1850  221.9270 C   0  0  0  0  0  0  0  0  0  0  0  0
  139.5750   80.0090  222.8960 N   0  0  0  0  0  0  0  0  0  0  0  0
  140.4110   80.5080  223.8390 C   0  0  0  0  0  0  0  0  0  0  0  0
  141.6960   80.1430  223.7570 N   0  0  0  0  0  0  0  0  0  0  0  0
  142.1870   79.3250  222.8110 C   0  0  0  0  0  0  0  0  0  0  0  0
  140.1470   71.4240  223.3850 C   0  0  0  0  0  0  0  0  0  0  0  0
  139.5550   70.1770  223.2990 C   0  0  0  0  0  0  0  0  0  0  0  0
  139.3910   69.3930  224.4290 C   0  0  0  0  0  0  0  0  0  0  0  0
  139.8310   69.8830  225.6470 C   0  0  0  0  0  0  0  0  0  0  0  0
  139.6810   69.1180  226.8060 C   0  0  0  0  0  0  0  0  0  0  0  0
  140.1330   69.6360  228.0190 C   0  0  0  0  0  0  0  0  0  0  0  0
  139.9680   68.8660  229.1110 F   0  0  0  0  0  0  0  0  0  0  0  0
  140.7180   70.8800  228.0770 C   0  0  0  0  0  0  0  0  0  0  0  0
  140.8630   71.6330  226.9150 C   0  0  0  0  0  0  0  0  0  0  0  0
  140.4170   71.1280  225.7050 C   0  0  0  0  0  0  0  0  0  0  0  0
  140.5550   71.8500  224.5920 N   0  0  0  0  0  0  0  0  0  0  0  0
  139.5670   74.0380  223.1520 H   0  0  0  0  0  0  0  0  0  0  0  0
  140.8298   74.0880  220.4153 H   0  0  0  0  0  0  0  0  0  0  0  0
  139.1202   74.5932  220.5934 H   0  0  0  0  0  0  0  0  0  0  0  0
  143.2544   76.0711  219.7422 H   0  0  0  0  0  0  0  0  0  0  0  0
  141.9746   75.0012  219.3269 H   0  0  0  0  0  0  0  0  0  0  0  0
  142.3458   77.1039  217.7161 H   0  0  0  0  0  0  0  0  0  0  0  0
  140.6850   76.8994  218.2189 H   0  0  0  0  0  0  0  0  0  0  0  0
  142.7159   78.9282  219.0928 H   0  0  0  0  0  0  0  0  0  0  0  0
  140.9586   79.0396  219.2230 H   0  0  0  0  0  0  0  0  0  0  0  0
  142.9547   78.0403  221.1655 H   0  0  0  0  0  0  0  0  0  0  0  0
  139.2990   78.8060  221.1858 H   0  0  0  0  0  0  0  0  0  0  0  0
  140.0512   81.1797  224.6324 H   0  0  0  0  0  0  0  0  0  0  0  0
  143.2567   79.0685  222.8079 H   0  0  0  0  0  0  0  0  0  0  0  0
  139.2108   69.8040  222.3231 H   0  0  0  0  0  0  0  0  0  0  0  0
  138.9207   68.4010  224.3602 H   0  0  0  0  0  0  0  0  0  0  0  0
  139.2139   68.1231  226.7625 H   0  0  0  0  0  0  0  0  0  0  0  0
  141.0705   71.2788  229.0396 H   0  0  0  0  0  0  0  0  0  0  0  0
  141.3311   72.6275  226.9579 H   0  0  0  0  0  0  0  0  0  0  0  0
  1  2  2  0
  2  3  1  0
  3  4  1  0
  4  5  1  0
  5  6  2  0
  5  7  1  0
  7  8  1  0
  8  9  1  0
  9 10  1  0
 10 11  1  0
 11 12  1  0
 12 13  2  0
 13 14  1  0
 14 15  2  0
 15 16  1  0
 16 17  2  0
  2 18  1  0
 18 19  2  0
 19 20  1  0
 20 21  2  0
 21 22  1  0
 22 23  2  0
 23 24  1  0
 23 25  1  0
 25 26  2  0
 26 27  1  0
 27 28  2  0
 11  7  1  0
 17 12  1  0
 28 18  1  0
 27 21  1  0
  3 29  1  0
  4 30  1  0
  4 31  1  0
  8 32  1  0
  8 33  1  0
  9 34  1  0
  9 35  1  0
 10 36  1  0
 10 37  1  0
 11 38  1  1
 13 39  1  0
 15 40  1  0
 17 41  1  0
 19 42  1  0
 20 43  1  0
 22 44  1  0
 25 45  1  0
 26 46  1  0
M  END
>  <smiles>  (26) 
O=C(NCC(=O)N1CCC[C@H]1c1cncnc1)c1ccc2cc(F)ccc2n1

>  <score_type>  (26) 
oracle

>  <origin>  (26) 
autodockgpu

>  <m_score__min__energy>  (26) 
-8.0999999999999996

>  <m_primary>  (26) 
energy

>  <rmsd>  (26) 
1.9016670731651288

>  <m_score__min__rmsd>  (26) 
1.9016670731651288

>  <meeko>  (26) 
{"free_energy": -7.98, "intermolecular_energy": -9.47, "internal_energy": -1.64, "cluster_size": 20, "cluster_id": 1, "rank_in_cluster": 10}

>  <energy>  (26) 
-7.64

>  <cluster_rmsd>  (26) 
1.21

>  <cluster>  (26) 
2

$$$$

     RDKit          3D

 46 49  0  0  0  0  0  0  0  0999 V2000
  141.0430   71.8410  221.2570 O   0  0  0  0  0  0  0  0  0  0  0  0
  140.4080   72.3240  222.2300 C   0  0  0  0  0  0  0  0  0  0  0  0
  139.8780   73.6430  222.2470 N   0  0  0  0  0  0  0  0  0  0  0  0
  140.0450   74.5280  221.1110 C   0  0  0  0  0  0  0  0  0  0  0  0
  140.5370   75.8690  221.6060 C   0  0  0  0  0  0  0  0  0  0  0  0
  140.0760   76.2190  222.7200 O   0  0  0  0  0  0  0  0  0  0  0  0
  141.4230   76.5620  220.8010 N   0  0  0  0  0  0  0  0  0  0  0  0
  142.1590   76.0460  219.6110 C   0  0  0  0  0  0  0  0  0  0  0  0
  141.6910   77.0750  218.6100 C   0  0  0  0  0  0  0  0  0  0  0  0
  141.8080   78.3660  219.3900 C   0  0  0  0  0  0  0  0  0  0  0  0
  141.9090   77.9530  220.8140 C   0  0  1  0  0  0  0  0  0  0  0  0
  141.3300   78.8070  221.8210 C   0  0  0  0  0  0  0  0  0  0  0  0
  140.0050   79.1730  221.9320 C   0  0  0  0  0  0  0  0  0  0  0  0
  139.5620   80.0050  222.8950 N   0  0  0  0  0  0  0  0  0  0  0  0
  140.4010   80.5340  223.8170 C   0  0  0  0  0  0  0  0  0  0  0  0
  141.6910   80.1890  223.7230 N   0  0  0  0  0  0  0  0  0  0  0  0
  142.1830   79.3650  222.7840 C   0  0  0  0  0  0  0  0  0  0  0  0
  140.1940   71.4850  223.4280 C   0  0  0  0  0  0  0  0  0  0  0  0
  139.4860   70.3010  223.3320 C   0  0  0  0  0  0  0  0  0  0  0  0
  139.2800   69.5090  224.4500 C   0  0  0  0  0  0  0  0  0  0  0  0
  139.7980   69.9250  225.6650 C   0  0  0  0  0  0  0  0  0  0  0  0
  139.6100   69.1500  226.8110 C   0  0  0  0  0  0  0  0  0  0  0  0
  140.1420   69.5930  228.0200 C   0  0  0  0  0  0  0  0  0  0  0  0
  139.9360   68.8160  229.0990 F   0  0  0  0  0  0  0  0  0  0  0  0
  140.8430   70.7750  228.0880 C   0  0  0  0  0  0  0  0  0  0  0  0
  141.0250   71.5400  226.9380 C   0  0  0  0  0  0  0  0  0  0  0  0
  140.5000   71.1080  225.7310 C   0  0  0  0  0  0  0  0  0  0  0  0
  140.6740   71.8410  224.6310 N   0  0  0  0  0  0  0  0  0  0  0  0
  139.3500   74.0130  223.0860 H   0  0  0  0  0  0  0  0  0  0  0  0
  140.7795   74.0993  220.4133 H   0  0  0  0  0  0  0  0  0  0  0  0
  139.0845   74.6517  220.5894 H   0  0  0  0  0  0  0  0  0  0  0  0
  143.2495   76.0695  219.7534 H   0  0  0  0  0  0  0  0  0  0  0  0
  141.9708   74.9951  219.3460 H   0  0  0  0  0  0  0  0  0  0  0  0
  142.3381   77.0877  217.7206 H   0  0  0  0  0  0  0  0  0  0  0  0
  140.6780   76.8846  218.2258 H   0  0  0  0  0  0  0  0  0  0  0  0
  142.7073   78.9210  219.0846 H   0  0  0  0  0  0  0  0  0  0  0  0
  140.9498   79.0315  219.2148 H   0  0  0  0  0  0  0  0  0  0  0  0
  142.9478   78.0489  221.1630 H   0  0  0  0  0  0  0  0  0  0  0  0
  139.2823   78.7705  221.2069 H   0  0  0  0  0  0  0  0  0  0  0  0
  140.0406   81.2131  224.6037 H   0  0  0  0  0  0  0  0  0  0  0  0
  143.2569   79.1273  222.7701 H   0  0  0  0  0  0  0  0  0  0  0  0
  139.0825   69.9850  222.3587 H   0  0  0  0  0  0  0  0  0  0  0  0
  138.7158   68.5678  224.3739 H   0  0  0  0  0  0  0  0  0  0  0  0
  139.0505   68.2043  226.7601 H   0  0  0  0  0  0  0  0  0  0  0  0
  141.2587   71.1151  229.0480 H   0  0  0  0  0  0  0  0  0  0  0  0
  141.5847   72.4856  226.9883 H   0  0  0  0  0  0  0  0  0  0  0  0
  1  2  2  0
  2  3  1  0
  3  4  1  0
  4  5  1  0
  5  6  2  0
  5  7  1  0
  7  8  1  0
  8  9  1  0
  9 10  1  0
 10 11  1  0
 11 12  1  0
 12 13  2  0
 13 14  1  0
 14 15  2  0
 15 16  1  0
 16 17  2  0
  2 18  1  0
 18 19  2  0
 19 20  1  0
 20 21  2  0
 21 22  1  0
 22 23  2  0
 23 24  1  0
 23 25  1  0
 25 26  2  0
 26 27  1  0
 27 28  2  0
 11  7  1  0
 17 12  1  0
 28 18  1  0
 27 21  1  0
  3 29  1  0
  4 30  1  0
  4 31  1  0
  8 32  1  0
  8 33  1  0
  9 34  1  0
  9 35  1  0
 10 36  1  0
 10 37  1  0
 11 38  1  1
 13 39  1  0
 15 40  1  0
 17 41  1  0
 19 42  1  0
 20 43  1  0
 22 44  1  0
 25 45  1  0
 26 46  1  0
M  END
>  <smiles>  (27) 
O=C(NCC(=O)N1CCC[C@H]1c1cncnc1)c1ccc2cc(F)ccc2n1

>  <score_type>  (27) 
oracle

>  <origin>  (27) 
autodockgpu

>  <m_score__min__energy>  (27) 
-8.0999999999999996

>  <m_primary>  (27) 
energy

>  <rmsd>  (27) 
1.9189730651729069

>  <m_score__min__rmsd>  (27) 
1.9189730651729069

>  <meeko>  (27) 
{"free_energy": -8.06, "intermolecular_energy": -9.55, "internal_energy": -1.51, "cluster_size": 20, "cluster_id": 1, "rank_in_cluster": 3}

>  <energy>  (27) 
-7.63

>  <cluster_rmsd>  (27) 
1.2

>  <cluster>  (27) 
2

$$$$

     RDKit          3D

 46 49  0  0  0  0  0  0  0  0999 V2000
  139.6770   71.2800  220.9570 O   0  0  0  0  0  0  0  0  0  0  0  0
  139.6640   71.8890  222.0590 C   0  0  0  0  0  0  0  0  0  0  0  0
  139.6020   73.3040  222.1750 N   0  0  0  0  0  0  0  0  0  0  0  0
  139.5470   74.1470  220.9970 C   0  0  0  0  0  0  0  0  0  0  0  0
  140.4890   75.3140  221.1870 C   0  0  0  0  0  0  0  0  0  0  0  0
  140.6410   75.6770  222.3800 O   0  0  0  0  0  0  0  0  0  0  0  0
  141.0740   75.8540  220.0570 N   0  0  0  0  0  0  0  0  0  0  0  0
  140.5710   76.9910  219.2320 C   0  0  0  0  0  0  0  0  0  0  0  0
  141.7980   77.8670  219.3090 C   0  0  0  0  0  0  0  0  0  0  0  0
  142.9210   76.8770  219.0890 C   0  0  0  0  0  0  0  0  0  0  0  0
  142.3140   75.5410  219.3240 C   0  0  1  0  0  0  0  0  0  0  0  0
  143.1340   74.5040  219.9000 C   0  0  0  0  0  0  0  0  0  0  0  0
  142.7470   73.2160  220.2040 C   0  0  0  0  0  0  0  0  0  0  0  0
  143.5810   72.3230  220.7710 N   0  0  0  0  0  0  0  0  0  0  0  0
  144.8610   72.6440  221.0770 C   0  0  0  0  0  0  0  0  0  0  0  0
  145.2540   73.8910  220.7890 N   0  0  0  0  0  0  0  0  0  0  0  0
  144.4620   74.8180  220.2250 C   0  0  0  0  0  0  0  0  0  0  0  0
  139.7180   71.1020  223.3080 C   0  0  0  0  0  0  0  0  0  0  0  0
  139.2330   69.8070  223.3380 C   0  0  0  0  0  0  0  0  0  0  0  0
  139.2780   69.0610  224.5050 C   0  0  0  0  0  0  0  0  0  0  0  0
  139.8210   69.6380  225.6410 C   0  0  0  0  0  0  0  0  0  0  0  0
  139.8840   68.9140  226.8340 C   0  0  0  0  0  0  0  0  0  0  0  0
  140.4350   69.5190  227.9620 C   0  0  0  0  0  0  0  0  0  0  0  0
  140.4750   68.7860  229.0900 F   0  0  0  0  0  0  0  0  0  0  0  0
  140.9110   70.8080  227.9050 C   0  0  0  0  0  0  0  0  0  0  0  0
  140.8450   71.5210  226.7100 C   0  0  0  0  0  0  0  0  0  0  0  0
  140.2980   70.9290  225.5840 C   0  0  0  0  0  0  0  0  0  0  0  0
  140.2340   71.6110  224.4400 N   0  0  0  0  0  0  0  0  0  0  0  0
  139.5950   73.7790  223.1210 H   0  0  0  0  0  0  0  0  0  0  0  0
  139.8509   73.5670  220.1131 H   0  0  0  0  0  0  0  0  0  0  0  0
  138.5212   74.5157  220.8495 H   0  0  0  0  0  0  0  0  0  0  0  0
  140.3405   76.6869  218.2003 H   0  0  0  0  0  0  0  0  0  0  0  0
  139.6290   77.4500  219.5666 H   0  0  0  0  0  0  0  0  0  0  0  0
  141.7869   78.6367  218.5233 H   0  0  0  0  0  0  0  0  0  0  0  0
  141.8818   78.4224  220.2548 H   0  0  0  0  0  0  0  0  0  0  0  0
  143.3046   76.9510  218.0607 H   0  0  0  0  0  0  0  0  0  0  0  0
  143.7725   77.0654  219.7594 H   0  0  0  0  0  0  0  0  0  0  0  0
  142.1376   75.0318  218.3651 H   0  0  0  0  0  0  0  0  0  0  0  0
  141.7170   72.9056  219.9745 H   0  0  0  0  0  0  0  0  0  0  0  0
  145.5438   71.9160  221.5393 H   0  0  0  0  0  0  0  0  0  0  0  0
  144.8552   75.8242  220.0179 H   0  0  0  0  0  0  0  0  0  0  0  0
  138.8069   69.3644  222.4255 H   0  0  0  0  0  0  0  0  0  0  0  0
  138.8904   68.0318  224.5286 H   0  0  0  0  0  0  0  0  0  0  0  0
  139.5047   67.8826  226.8823 H   0  0  0  0  0  0  0  0  0  0  0  0
  141.3433   71.2755  228.8020 H   0  0  0  0  0  0  0  0  0  0  0  0
  141.2264   72.5516  226.6610 H   0  0  0  0  0  0  0  0  0  0  0  0
  1  2  2  0
  2  3  1  0
  3  4  1  0
  4  5  1  0
  5  6  2  0
  5  7  1  0
  7  8  1  0
  8  9  1  0
  9 10  1  0
 10 11  1  0
 11 12  1  0
 12 13  2  0
 13 14  1  0
 14 15  2  0
 15 16  1  0
 16 17  2  0
  2 18  1  0
 18 19  2  0
 19 20  1  0
 20 21  2  0
 21 22  1  0
 22 23  2  0
 23 24  1  0
 23 25  1  0
 25 26  2  0
 26 27  1  0
 27 28  2  0
 11  7  1  0
 17 12  1  0
 28 18  1  0
 27 21  1  0
  3 29  1  0
  4 30  1  0
  4 31  1  0
  8 32  1  0
  8 33  1  0
  9 34  1  0
  9 35  1  0
 10 36  1  0
 10 37  1  0
 11 38  1  6
 13 39  1  0
 15 40  1  0
 17 41  1  0
 19 42  1  0
 20 43  1  0
 22 44  1  0
 25 45  1  0
 26 46  1  0
M  END
>  <smiles>  (28) 
O=C(NCC(=O)N1CCC[C@H]1c1cncnc1)c1ccc2cc(F)ccc2n1

>  <score_type>  (28) 
oracle

>  <origin>  (28) 
autodockgpu

>  <m_score__min__energy>  (28) 
-8.0999999999999996

>  <m_primary>  (28) 
energy

>  <rmsd>  (28) 
1.7434767350734832

>  <m_score__min__rmsd>  (28) 
1.7434767350734832

>  <meeko>  (28) 
{"free_energy": -7.58, "intermolecular_energy": -9.07, "internal_energy": -1.96, "cluster_size": 24, "cluster_id": 2, "rank_in_cluster": 14}

>  <energy>  (28) 
-7.62

>  <cluster_rmsd>  (28) 
1.18

>  <cluster>  (28) 
2

$$$$

     RDKit          3D

 46 49  0  0  0  0  0  0  0  0999 V2000
  139.8180   70.5290  220.9860 O   0  0  0  0  0  0  0  0  0  0  0  0
  140.2130   71.1640  221.9980 C   0  0  0  0  0  0  0  0  0  0  0  0
  140.9060   72.4030  221.9280 N   0  0  0  0  0  0  0  0  0  0  0  0
  141.2020   73.0210  220.6510 C   0  0  0  0  0  0  0  0  0  0  0  0
  141.2970   74.5170  220.8430 C   0  0  0  0  0  0  0  0  0  0  0  0
  140.9570   74.9230  221.9810 O   0  0  0  0  0  0  0  0  0  0  0  0
  141.7380   75.2720  219.7710 N   0  0  0  0  0  0  0  0  0  0  0  0
  141.0010   76.3590  219.0640 C   0  0  0  0  0  0  0  0  0  0  0  0
  142.0300   77.4520  219.2280 C   0  0  0  0  0  0  0  0  0  0  0  0
  143.3230   76.7340  218.9090 C   0  0  0  0  0  0  0  0  0  0  0  0
  143.0000   75.2880  219.0100 C   0  0  1  0  0  0  0  0  0  0  0  0
  144.0240   74.3860  219.4780 C   0  0  0  0  0  0  0  0  0  0  0  0
  144.5270   74.3010  220.7590 C   0  0  0  0  0  0  0  0  0  0  0  0
  145.5100   73.4420  221.0970 N   0  0  0  0  0  0  0  0  0  0  0  0
  146.0630   72.6050  220.1860 C   0  0  0  0  0  0  0  0  0  0  0  0
  145.5860   72.6750  218.9370 N   0  0  0  0  0  0  0  0  0  0  0  0
  144.6090   73.5130  218.5510 C   0  0  0  0  0  0  0  0  0  0  0  0
  139.9500   70.6020  223.3390 C   0  0  0  0  0  0  0  0  0  0  0  0
  139.2060   69.4440  223.4760 C   0  0  0  0  0  0  0  0  0  0  0  0
  138.9550   68.9090  224.7290 C   0  0  0  0  0  0  0  0  0  0  0  0
  139.4640   69.5570  225.8420 C   0  0  0  0  0  0  0  0  0  0  0  0
  139.2300   69.0440  227.1200 C   0  0  0  0  0  0  0  0  0  0  0  0
  139.7540   69.7170  228.2230 C   0  0  0  0  0  0  0  0  0  0  0  0
  139.5040   69.1890  229.4350 F   0  0  0  0  0  0  0  0  0  0  0  0
  140.4920   70.8660  228.0590 C   0  0  0  0  0  0  0  0  0  0  0  0
  140.7200   71.3680  226.7800 C   0  0  0  0  0  0  0  0  0  0  0  0
  140.2030   70.7080  225.6780 C   0  0  0  0  0  0  0  0  0  0  0  0
  140.4200   71.1880  224.4530 N   0  0  0  0  0  0  0  0  0  0  0  0
  141.2240   72.9060  222.8030 H   0  0  0  0  0  0  0  0  0  0  0  0
  142.1584   72.6363  220.2672 H   0  0  0  0  0  0  0  0  0  0  0  0
  140.4053   72.7871  219.9295 H   0  0  0  0  0  0  0  0  0  0  0  0
  140.8149   76.1171  218.0072 H   0  0  0  0  0  0  0  0  0  0  0  0
  139.9931   76.5842  219.4427 H   0  0  0  0  0  0  0  0  0  0  0  0
  141.8492   78.2773  218.5236 H   0  0  0  0  0  0  0  0  0  0  0  0
  142.0208   77.9173  220.2247 H   0  0  0  0  0  0  0  0  0  0  0  0
  143.6623   76.9835  217.8928 H   0  0  0  0  0  0  0  0  0  0  0  0
  144.1338   77.0232  219.5938 H   0  0  0  0  0  0  0  0  0  0  0  0
  142.9077   74.8492  218.0055 H   0  0  0  0  0  0  0  0  0  0  0  0
  144.1102   74.9595  221.5354 H   0  0  0  0  0  0  0  0  0  0  0  0
  146.8643   71.9027  220.4592 H   0  0  0  0  0  0  0  0  0  0  0  0
  144.2678   73.5137  217.5053 H   0  0  0  0  0  0  0  0  0  0  0  0
  138.8095   68.9427  222.5807 H   0  0  0  0  0  0  0  0  0  0  0  0
  138.3633   67.9881  224.8376 H   0  0  0  0  0  0  0  0  0  0  0  0
  138.6419   68.1241  227.2540 H   0  0  0  0  0  0  0  0  0  0  0  0
  140.9015   71.3876  228.9366 H   0  0  0  0  0  0  0  0  0  0  0  0
  141.3096   72.2869  226.6456 H   0  0  0  0  0  0  0  0  0  0  0  0
  1  2  2  0
  2  3  1  0
  3  4  1  0
  4  5  1  0
  5  6  2  0
  5  7  1  0
  7  8  1  0
  8  9  1  0
  9 10  1  0
 10 11  1  0
 11 12  1  0
 12 13  2  0
 13 14  1  0
 14 15  2  0
 15 16  1  0
 16 17  2  0
  2 18  1  0
 18 19  2  0
 19 20  1  0
 20 21  2  0
 21 22  1  0
 22 23  2  0
 23 24  1  0
 23 25  1  0
 25 26  2  0
 26 27  1  0
 27 28  2  0
 11  7  1  0
 17 12  1  0
 28 18  1  0
 27 21  1  0
  3 29  1  0
  4 30  1  0
  4 31  1  0
  8 32  1  0
  8 33  1  0
  9 34  1  0
  9 35  1  0
 10 36  1  0
 10 37  1  0
 11 38  1  6
 13 39  1  0
 15 40  1  0
 17 41  1  0
 19 42  1  0
 20 43  1  0
 22 44  1  0
 25 45  1  0
 26 46  1  0
M  END
>  <smiles>  (29) 
O=C(NCC(=O)N1CCC[C@H]1c1cncnc1)c1ccc2cc(F)ccc2n1

>  <score_type>  (29) 
oracle

>  <origin>  (29) 
autodockgpu

>  <m_score__min__energy>  (29) 
-8.0999999999999996

>  <m_primary>  (29) 
energy

>  <rmsd>  (29) 
2.166323071759413

>  <m_score__min__rmsd>  (29) 
2.166323071759413

>  <meeko>  (29) 
{"free_energy": -7.45, "intermolecular_energy": -8.95, "internal_energy": -1.94, "cluster_size": 24, "cluster_id": 2, "rank_in_cluster": 19}

>  <energy>  (29) 
-7.62

>  <cluster_rmsd>  (29) 
1.19

>  <cluster>  (29) 
2

$$$$

     RDKit          3D

 46 49  0  0  0  0  0  0  0  0999 V2000
  140.2380   73.6870  222.3480 O   0  0  0  0  0  0  0  0  0  0  0  0
  140.3410   72.4440  222.1780 C   0  0  0  0  0  0  0  0  0  0  0  0
  140.5810   71.8400  220.9140 N   0  0  0  0  0  0  0  0  0  0  0  0
  140.7240   72.6460  219.7180 C   0  0  0  0  0  0  0  0  0  0  0  0
  142.1510   72.5450  219.2300 C   0  0  0  0  0  0  0  0  0  0  0  0
  142.2730   72.1520  218.0440 O   0  0  0  0  0  0  0  0  0  0  0  0
  143.1560   72.8860  220.1170 N   0  0  0  0  0  0  0  0  0  0  0  0
  144.0980   71.9660  220.8170 C   0  0  0  0  0  0  0  0  0  0  0  0
  145.3900   72.5950  220.3550 C   0  0  0  0  0  0  0  0  0  0  0  0
  145.1110   74.0730  220.5200 C   0  0  0  0  0  0  0  0  0  0  0  0
  143.6340   74.1790  220.6390 C   0  0  1  0  0  0  0  0  0  0  0  0
  142.9830   75.3490  220.1020 C   0  0  0  0  0  0  0  0  0  0  0  0
  143.4070   76.1150  219.0360 C   0  0  0  0  0  0  0  0  0  0  0  0
  142.7440   77.2130  218.6240 N   0  0  0  0  0  0  0  0  0  0  0  0
  141.6120   77.6300  219.2390 C   0  0  0  0  0  0  0  0  0  0  0  0
  141.1860   76.8980  220.2760 N   0  0  0  0  0  0  0  0  0  0  0  0
  141.8100   75.7970  220.7260 C   0  0  0  0  0  0  0  0  0  0  0  0
  140.2070   71.5520  223.3490 C   0  0  0  0  0  0  0  0  0  0  0  0
  139.5860   70.3220  223.2200 C   0  0  0  0  0  0  0  0  0  0  0  0
  139.4560   69.4790  224.3110 C   0  0  0  0  0  0  0  0  0  0  0  0
  139.9600   69.8910  225.5340 C   0  0  0  0  0  0  0  0  0  0  0  0
  139.8460   69.0640  226.6540 C   0  0  0  0  0  0  0  0  0  0  0  0
  140.3630   69.5030  227.8710 C   0  0  0  0  0  0  0  0  0  0  0  0
  140.2310   68.6760  228.9250 F   0  0  0  0  0  0  0  0  0  0  0  0
  140.9760   70.7310  227.9720 C   0  0  0  0  0  0  0  0  0  0  0  0
  141.0850   71.5460  226.8480 C   0  0  0  0  0  0  0  0  0  0  0  0
  140.5750   71.1190  225.6340 C   0  0  0  0  0  0  0  0  0  0  0  0
  140.6780   71.9000  224.5570 N   0  0  0  0  0  0  0  0  0  0  0  0
  140.6600   70.7900  220.8120 H   0  0  0  0  0  0  0  0  0  0  0  0
  140.0401   72.2769  218.9395 H   0  0  0  0  0  0  0  0  0  0  0  0
  140.4793   73.6946  219.9427 H   0  0  0  0  0  0  0  0  0  0  0  0
  143.9833   72.0053  221.9103 H   0  0  0  0  0  0  0  0  0  0  0  0
  143.9778   70.8947  220.5982 H   0  0  0  0  0  0  0  0  0  0  0  0
  146.2344   72.2770  220.9842 H   0  0  0  0  0  0  0  0  0  0  0  0
  145.6732   72.3136  219.3300 H   0  0  0  0  0  0  0  0  0  0  0  0
  145.5998   74.4591  221.4266 H   0  0  0  0  0  0  0  0  0  0  0  0
  145.4990   74.6617  219.6757 H   0  0  0  0  0  0  0  0  0  0  0  0
  143.3499   74.3576  221.6866 H   0  0  0  0  0  0  0  0  0  0  0  0
  144.3215   75.8179  218.5018 H   0  0  0  0  0  0  0  0  0  0  0  0
  141.0692   78.5259  218.9032 H   0  0  0  0  0  0  0  0  0  0  0  0
  141.4002   75.2460  221.5853 H   0  0  0  0  0  0  0  0  0  0  0  0
  139.1918   70.0109  222.2413 H   0  0  0  0  0  0  0  0  0  0  0  0
  138.9622   68.5014  224.2086 H   0  0  0  0  0  0  0  0  0  0  0  0
  139.3560   68.0822  226.5764 H   0  0  0  0  0  0  0  0  0  0  0  0
  141.3790   71.0681  228.9384 H   0  0  0  0  0  0  0  0  0  0  0  0
  141.5756   72.5275  226.9248 H   0  0  0  0  0  0  0  0  0  0  0  0
  1  2  2  0
  2  3  1  0
  3  4  1  0
  4  5  1  0
  5  6  2  0
  5  7  1  0
  7  8  1  0
  8  9  1  0
  9 10  1  0
 10 11  1  0
 11 12  1  0
 12 13  2  0
 13 14  1  0
 14 15  2  0
 15 16  1  0
 16 17  2  0
  2 18  1  0
 18 19  2  0
 19 20  1  0
 20 21  2  0
 21 22  1  0
 22 23  2  0
 23 24  1  0
 23 25  1  0
 25 26  2  0
 26 27  1  0
 27 28  2  0
 11  7  1  0
 17 12  1  0
 28 18  1  0
 27 21  1  0
  3 29  1  0
  4 30  1  0
  4 31  1  0
  8 32  1  0
  8 33  1  0
  9 34  1  0
  9 35  1  0
 10 36  1  0
 10 37  1  0
 11 38  1  1
 13 39  1  0
 15 40  1  0
 17 41  1  0
 19 42  1  0
 20 43  1  0
 22 44  1  0
 25 45  1  0
 26 46  1  0
M  END
>  <smiles>  (30) 
O=C(NCC(=O)N1CCC[C@H]1c1cncnc1)c1ccc2cc(F)ccc2n1

>  <score_type>  (30) 
oracle

>  <origin>  (30) 
autodockgpu

>  <m_score__min__energy>  (30) 
-8.0999999999999996

>  <m_primary>  (30) 
energy

>  <rmsd>  (30) 
3.7459678717253904

>  <m_score__min__rmsd>  (30) 
3.7459678717253904

>  <meeko>  (30) 
{"free_energy": -7.34, "intermolecular_energy": -8.83, "internal_energy": -1.48, "cluster_size": 2, "cluster_id": 3, "rank_in_cluster": 2}

>  <energy>  (30) 
-7.62

>  <cluster_rmsd>  (30) 
1.22

>  <cluster>  (30) 
2

$$$$

     RDKit          3D

 46 49  0  0  0  0  0  0  0  0999 V2000
  138.3620   71.1330  221.5520 O   0  0  0  0  0  0  0  0  0  0  0  0
  138.9800   71.6310  222.5290 C   0  0  0  0  0  0  0  0  0  0  0  0
  139.4060   72.9860  222.5830 N   0  0  0  0  0  0  0  0  0  0  0  0
  139.1430   73.8940  221.4850 C   0  0  0  0  0  0  0  0  0  0  0  0
  139.5100   75.2960  221.9120 C   0  0  0  0  0  0  0  0  0  0  0  0
  140.6830   75.4240  222.3440 O   0  0  0  0  0  0  0  0  0  0  0  0
  138.5410   76.2760  221.7910 N   0  0  0  0  0  0  0  0  0  0  0  0
  137.0870   76.0840  221.5210 C   0  0  0  0  0  0  0  0  0  0  0  0
  136.5490   76.8270  222.7190 C   0  0  0  0  0  0  0  0  0  0  0  0
  137.4170   78.0670  222.7510 C   0  0  0  0  0  0  0  0  0  0  0  0
  138.5860   77.7460  221.8920 C   0  0  1  0  0  0  0  0  0  0  0  0
  139.8680   78.3090  222.2370 C   0  0  0  0  0  0  0  0  0  0  0  0
  141.0180   78.2740  221.4770 C   0  0  0  0  0  0  0  0  0  0  0  0
  142.1820   78.8060  221.8990 N   0  0  0  0  0  0  0  0  0  0  0  0
  142.2890   79.4110  223.1060 C   0  0  0  0  0  0  0  0  0  0  0  0
  141.1820   79.4530  223.8570 N   0  0  0  0  0  0  0  0  0  0  0  0
  139.9990   78.9390  223.4830 C   0  0  0  0  0  0  0  0  0  0  0  0
  139.2880   70.7700  223.6900 C   0  0  0  0  0  0  0  0  0  0  0  0
  138.9760   69.4230  223.6620 C   0  0  0  0  0  0  0  0  0  0  0  0
  139.2610   68.6080  224.7460 C   0  0  0  0  0  0  0  0  0  0  0  0
  139.8650   69.1700  225.8590 C   0  0  0  0  0  0  0  0  0  0  0  0
  140.1660   68.3770  226.9690 C   0  0  0  0  0  0  0  0  0  0  0  0
  140.7730   68.9680  228.0750 C   0  0  0  0  0  0  0  0  0  0  0  0
  141.0450   68.1680  229.1220 F   0  0  0  0  0  0  0  0  0  0  0  0
  141.0730   70.3110  228.0770 C   0  0  0  0  0  0  0  0  0  0  0  0
  140.7690   71.0920  226.9650 C   0  0  0  0  0  0  0  0  0  0  0  0
  140.1650   70.5140  225.8610 C   0  0  0  0  0  0  0  0  0  0  0  0
  139.8730   71.2620  224.7950 N   0  0  0  0  0  0  0  0  0  0  0  0
  139.9250   73.3670  223.4230 H   0  0  0  0  0  0  0  0  0  0  0  0
  139.7469   73.6035  220.6127 H   0  0  0  0  0  0  0  0  0  0  0  0
  138.0776   73.8533  221.2142 H   0  0  0  0  0  0  0  0  0  0  0  0
  136.7756   76.5439  220.5715 H   0  0  0  0  0  0  0  0  0  0  0  0
  136.7510   75.0426  221.4089 H   0  0  0  0  0  0  0  0  0  0  0  0
  135.4889   77.0870  222.5826 H   0  0  0  0  0  0  0  0  0  0  0  0
  136.5841   76.2425  223.6502 H   0  0  0  0  0  0  0  0  0  0  0  0
  136.8690   78.9320  222.3493 H   0  0  0  0  0  0  0  0  0  0  0  0
  137.7193   78.3311  223.7751 H   0  0  0  0  0  0  0  0  0  0  0  0
  138.4930   78.2530  220.9202 H   0  0  0  0  0  0  0  0  0  0  0  0
  140.9840   77.7933  220.4882 H   0  0  0  0  0  0  0  0  0  0  0  0
  143.2383   79.8461  223.4518 H   0  0  0  0  0  0  0  0  0  0  0  0
  139.1313   79.0123  224.1552 H   0  0  0  0  0  0  0  0  0  0  0  0
  138.4965   68.9939  222.7698 H   0  0  0  0  0  0  0  0  0  0  0  0
  139.0127   67.5366  224.7232 H   0  0  0  0  0  0  0  0  0  0  0  0
  139.9276   67.3032  226.9698 H   0  0  0  0  0  0  0  0  0  0  0  0
  141.5523   70.7669  228.9558 H   0  0  0  0  0  0  0  0  0  0  0  0
  141.0081   72.1657  226.9635 H   0  0  0  0  0  0  0  0  0  0  0  0
  1  2  2  0
  2  3  1  0
  3  4  1  0
  4  5  1  0
  5  6  2  0
  5  7  1  0
  7  8  1  0
  8  9  1  0
  9 10  1  0
 10 11  1  0
 11 12  1  0
 12 13  2  0
 13 14  1  0
 14 15  2  0
 15 16  1  0
 16 17  2  0
  2 18  1  0
 18 19  2  0
 19 20  1  0
 20 21  2  0
 21 22  1  0
 22 23  2  0
 23 24  1  0
 23 25  1  0
 25 26  2  0
 26 27  1  0
 27 28  2  0
 11  7  1  0
 17 12  1  0
 28 18  1  0
 27 21  1  0
  3 29  1  0
  4 30  1  0
  4 31  1  0
  8 32  1  0
  8 33  1  0
  9 34  1  0
  9 35  1  0
 10 36  1  0
 10 37  1  0
 11 38  1  6
 13 39  1  0
 15 40  1  0
 17 41  1  0
 19 42  1  0
 20 43  1  0
 22 44  1  0
 25 45  1  0
 26 46  1  0
M  END
>  <smiles>  (31) 
O=C(NCC(=O)N1CCC[C@H]1c1cncnc1)c1ccc2cc(F)ccc2n1

>  <score_type>  (31) 
oracle

>  <origin>  (31) 
autodockgpu

>  <m_score__min__energy>  (31) 
-8.0999999999999996

>  <m_primary>  (31) 
energy

>  <rmsd>  (31) 
2.831597962952889

>  <m_score__min__rmsd>  (31) 
2.831597962952889

>  <meeko>  (31) 
{"free_energy": -7.46, "intermolecular_energy": -8.95, "internal_energy": -1.64, "cluster_size": 20, "cluster_id": 1, "rank_in_cluster": 18}

>  <energy>  (31) 
-7.58

>  <cluster_rmsd>  (31) 
1.18

>  <cluster>  (31) 
2

$$$$

     RDKit          3D

 46 49  0  0  0  0  0  0  0  0999 V2000
  140.1900   71.5290  220.9740 O   0  0  0  0  0  0  0  0  0  0  0  0
  139.9690   72.1050  222.0700 C   0  0  0  0  0  0  0  0  0  0  0  0
  139.7210   73.4990  222.1910 N   0  0  0  0  0  0  0  0  0  0  0  0
  139.7090   74.3570  221.0240 C   0  0  0  0  0  0  0  0  0  0  0  0
  140.8090   75.3850  221.1610 C   0  0  0  0  0  0  0  0  0  0  0  0
  141.0810   75.7080  222.3440 O   0  0  0  0  0  0  0  0  0  0  0  0
  141.3910   75.8580  219.9990 N   0  0  0  0  0  0  0  0  0  0  0  0
  140.8930   76.9510  219.1160 C   0  0  0  0  0  0  0  0  0  0  0  0
  142.1270   77.8200  219.1380 C   0  0  0  0  0  0  0  0  0  0  0  0
  143.2410   76.8090  218.9660 C   0  0  0  0  0  0  0  0  0  0  0  0
  142.6240   75.4940  219.2780 C   0  0  1  0  0  0  0  0  0  0  0  0
  143.4400   74.4840  219.9050 C   0  0  0  0  0  0  0  0  0  0  0  0
  143.1090   73.1590  220.1030 C   0  0  0  0  0  0  0  0  0  0  0  0
  143.9290   72.2930  220.7290 N   0  0  0  0  0  0  0  0  0  0  0  0
  145.1380   72.6790  221.2040 C   0  0  0  0  0  0  0  0  0  0  0  0
  145.4750   73.9610  221.0210 N   0  0  0  0  0  0  0  0  0  0  0  0
  144.6930   74.8630  220.4040 C   0  0  0  0  0  0  0  0  0  0  0  0
  139.9640   71.3000  223.3100 C   0  0  0  0  0  0  0  0  0  0  0  0
  139.4520   70.0150  223.3050 C   0  0  0  0  0  0  0  0  0  0  0  0
  139.4430   69.2530  224.4620 C   0  0  0  0  0  0  0  0  0  0  0  0
  139.9590   69.8030  225.6240 C   0  0  0  0  0  0  0  0  0  0  0  0
  139.9660   69.0610  226.8070 C   0  0  0  0  0  0  0  0  0  0  0  0
  140.4900   69.6390  227.9620 C   0  0  0  0  0  0  0  0  0  0  0  0
  140.4770   68.8900  229.0800 F   0  0  0  0  0  0  0  0  0  0  0  0
  140.9940   70.9190  227.9400 C   0  0  0  0  0  0  0  0  0  0  0  0
  140.9820   71.6490  226.7530 C   0  0  0  0  0  0  0  0  0  0  0  0
  140.4630   71.0840  225.6010 C   0  0  0  0  0  0  0  0  0  0  0  0
  140.4510   71.7830  224.4650 N   0  0  0  0  0  0  0  0  0  0  0  0
  139.5400   73.9470  223.1330 H   0  0  0  0  0  0  0  0  0  0  0  0
  139.8781   73.7534  220.1201 H   0  0  0  0  0  0  0  0  0  0  0  0
  138.7351   74.8618  220.9424 H   0  0  0  0  0  0  0  0  0  0  0  0
  140.6543   76.5924  218.1039 H   0  0  0  0  0  0  0  0  0  0  0  0
  139.9566   77.4354  219.4299 H   0  0  0  0  0  0  0  0  0  0  0  0
  142.1173   78.5457  218.3114 H   0  0  0  0  0  0  0  0  0  0  0  0
  142.2211   78.4260  220.0512 H   0  0  0  0  0  0  0  0  0  0  0  0
  143.6185   76.8227  217.9329 H   0  0  0  0  0  0  0  0  0  0  0  0
  144.0986   77.0265  219.6195 H   0  0  0  0  0  0  0  0  0  0  0  0
  142.4360   74.9333  218.3505 H   0  0  0  0  0  0  0  0  0  0  0  0
  142.1379   72.7960  219.7353 H   0  0  0  0  0  0  0  0  0  0  0  0
  145.8094   71.9732  221.7149 H   0  0  0  0  0  0  0  0  0  0  0  0
  145.0375   75.9015  220.2905 H   0  0  0  0  0  0  0  0  0  0  0  0
  139.0478   69.5938  222.3727 H   0  0  0  0  0  0  0  0  0  0  0  0
  139.0343   68.2317  224.4580 H   0  0  0  0  0  0  0  0  0  0  0  0
  139.5645   68.0371  226.8270 H   0  0  0  0  0  0  0  0  0  0  0  0
  141.4055   71.3652  228.8574 H   0  0  0  0  0  0  0  0  0  0  0  0
  141.3843   72.6726  226.7316 H   0  0  0  0  0  0  0  0  0  0  0  0
  1  2  2  0
  2  3  1  0
  3  4  1  0
  4  5  1  0
  5  6  2  0
  5  7  1  0
  7  8  1  0
  8  9  1  0
  9 10  1  0
 10 11  1  0
 11 12  1  0
 12 13  2  0
 13 14  1  0
 14 15  2  0
 15 16  1  0
 16 17  2  0
  2 18  1  0
 18 19  2  0
 19 20  1  0
 20 21  2  0
 21 22  1  0
 22 23  2  0
 23 24  1  0
 23 25  1  0
 25 26  2  0
 26 27  1  0
 27 28  2  0
 11  7  1  0
 17 12  1  0
 28 18  1  0
 27 21  1  0
  3 29  1  0
  4 30  1  0
  4 31  1  0
  8 32  1  0
  8 33  1  0
  9 34  1  0
  9 35  1  0
 10 36  1  0
 10 37  1  0
 11 38  1  6
 13 39  1  0
 15 40  1  0
 17 41  1  0
 19 42  1  0
 20 43  1  0
 22 44  1  0
 25 45  1  0
 26 46  1  0
M  END
>  <smiles>  (32) 
O=C(NCC(=O)N1CCC[C@H]1c1cncnc1)c1ccc2cc(F)ccc2n1

>  <score_type>  (32) 
oracle

>  <origin>  (32) 
autodockgpu

>  <m_score__min__energy>  (32) 
-8.0999999999999996

>  <m_primary>  (32) 
energy

>  <rmsd>  (32) 
1.8984330831761618

>  <m_score__min__rmsd>  (32) 
1.8984330831761618

>  <meeko>  (32) 
{"free_energy": -7.71, "intermolecular_energy": -9.2, "internal_energy": -1.78, "cluster_size": 24, "cluster_id": 2, "rank_in_cluster": 4}

>  <energy>  (32) 
-7.58

>  <cluster_rmsd>  (32) 
1.2

>  <cluster>  (32) 
2

$$$$

     RDKit          3D

 46 49  0  0  0  0  0  0  0  0999 V2000
  138.6710   71.2210  221.3070 O   0  0  0  0  0  0  0  0  0  0  0  0
  139.4420   71.6400  222.2090 C   0  0  0  0  0  0  0  0  0  0  0  0
  140.2020   72.8360  222.1020 N   0  0  0  0  0  0  0  0  0  0  0  0
  140.1270   73.6630  220.9150 C   0  0  0  0  0  0  0  0  0  0  0  0
  140.9540   74.9090  221.1350 C   0  0  0  0  0  0  0  0  0  0  0  0
  141.0670   75.2590  222.3360 O   0  0  0  0  0  0  0  0  0  0  0  0
  141.4890   75.5270  220.0190 N   0  0  0  0  0  0  0  0  0  0  0  0
  140.8820   76.6240  219.2120 C   0  0  0  0  0  0  0  0  0  0  0  0
  142.0170   77.6140  219.3140 C   0  0  0  0  0  0  0  0  0  0  0  0
  143.2320   76.7430  219.0850 C   0  0  0  0  0  0  0  0  0  0  0  0
  142.7580   75.3500  219.2900 C   0  0  1  0  0  0  0  0  0  0  0  0
  143.6730   74.3880  219.8520 C   0  0  0  0  0  0  0  0  0  0  0  0
  143.5190   73.0180  219.8770 C   0  0  0  0  0  0  0  0  0  0  0  0
  144.4190   72.1980  220.4550 N   0  0  0  0  0  0  0  0  0  0  0  0
  145.5370   72.6790  221.0490 C   0  0  0  0  0  0  0  0  0  0  0  0
  145.7020   74.0070  221.0340 N   0  0  0  0  0  0  0  0  0  0  0  0
  144.8350   74.8660  220.4720 C   0  0  0  0  0  0  0  0  0  0  0  0
  139.5760   70.8540  223.4530 C   0  0  0  0  0  0  0  0  0  0  0  0
  139.1060   69.5530  223.5100 C   0  0  0  0  0  0  0  0  0  0  0  0
  139.2270   68.8090  224.6720 C   0  0  0  0  0  0  0  0  0  0  0  0
  139.8270   69.3920  225.7760 C   0  0  0  0  0  0  0  0  0  0  0  0
  139.9650   68.6680  226.9630 C   0  0  0  0  0  0  0  0  0  0  0  0
  140.5730   69.2800  228.0580 C   0  0  0  0  0  0  0  0  0  0  0  0
  140.6860   68.5470  229.1810 F   0  0  0  0  0  0  0  0  0  0  0  0
  141.0320   70.5740  227.9750 C   0  0  0  0  0  0  0  0  0  0  0  0
  140.8890   71.2860  226.7860 C   0  0  0  0  0  0  0  0  0  0  0  0
  140.2860   70.6870  225.6920 C   0  0  0  0  0  0  0  0  0  0  0  0
  140.1490   71.3680  224.5530 N   0  0  0  0  0  0  0  0  0  0  0  0
  140.8410   73.1540  222.8840 H   0  0  0  0  0  0  0  0  0  0  0  0
  140.5200   73.1064  220.0514 H   0  0  0  0  0  0  0  0  0  0  0  0
  139.0807   73.9394  220.7181 H   0  0  0  0  0  0  0  0  0  0  0  0
  140.6879   76.3185  218.1733 H   0  0  0  0  0  0  0  0  0  0  0  0
  139.8978   76.9823  219.5481 H   0  0  0  0  0  0  0  0  0  0  0  0
  141.9353   78.3934  218.5421 H   0  0  0  0  0  0  0  0  0  0  0  0
  142.0406   78.1573  220.2702 H   0  0  0  0  0  0  0  0  0  0  0  0
  143.6129   76.8740  218.0614 H   0  0  0  0  0  0  0  0  0  0  0  0
  144.0564   77.0008  219.7661 H   0  0  0  0  0  0  0  0  0  0  0  0
  142.6374   74.8432  218.3212 H   0  0  0  0  0  0  0  0  0  0  0  0
  142.6273   72.5774  219.4071 H   0  0  0  0  0  0  0  0  0  0  0  0
  146.2730   72.0112  221.5205 H   0  0  0  0  0  0  0  0  0  0  0  0
  145.0379   75.9468  220.4987 H   0  0  0  0  0  0  0  0  0  0  0  0
  138.6319   69.1059  222.6238 H   0  0  0  0  0  0  0  0  0  0  0  0
  138.8539   67.7752  224.7172 H   0  0  0  0  0  0  0  0  0  0  0  0
  139.6001   67.6326  227.0323 H   0  0  0  0  0  0  0  0  0  0  0  0
  141.5110   71.0457  228.8456 H   0  0  0  0  0  0  0  0  0  0  0  0
  141.2540   72.3213  226.7161 H   0  0  0  0  0  0  0  0  0  0  0  0
  1  2  2  0
  2  3  1  0
  3  4  1  0
  4  5  1  0
  5  6  2  0
  5  7  1  0
  7  8  1  0
  8  9  1  0
  9 10  1  0
 10 11  1  0
 11 12  1  0
 12 13  2  0
 13 14  1  0
 14 15  2  0
 15 16  1  0
 16 17  2  0
  2 18  1  0
 18 19  2  0
 19 20  1  0
 20 21  2  0
 21 22  1  0
 22 23  2  0
 23 24  1  0
 23 25  1  0
 25 26  2  0
 26 27  1  0
 27 28  2  0
 11  7  1  0
 17 12  1  0
 28 18  1  0
 27 21  1  0
  3 29  1  0
  4 30  1  0
  4 31  1  0
  8 32  1  0
  8 33  1  0
  9 34  1  0
  9 35  1  0
 10 36  1  0
 10 37  1  0
 11 38  1  6
 13 39  1  0
 15 40  1  0
 17 41  1  0
 19 42  1  0
 20 43  1  0
 22 44  1  0
 25 45  1  0
 26 46  1  0
M  END
>  <smiles>  (33) 
O=C(NCC(=O)N1CCC[C@H]1c1cncnc1)c1ccc2cc(F)ccc2n1

>  <score_type>  (33) 
oracle

>  <origin>  (33) 
autodockgpu

>  <m_score__min__energy>  (33) 
-8.0999999999999996

>  <m_primary>  (33) 
energy

>  <rmsd>  (33) 
1.8763772615005005

>  <m_score__min__rmsd>  (33) 
1.8763772615005005

>  <meeko>  (33) 
{"free_energy": -7.16, "intermolecular_energy": -8.65, "internal_energy": -1.98, "cluster_size": 24, "cluster_id": 2, "rank_in_cluster": 22}

>  <energy>  (33) 
-7.58

>  <cluster_rmsd>  (33) 
1.18

>  <cluster>  (33) 
2

$$$$

     RDKit          3D

 46 49  0  0  0  0  0  0  0  0999 V2000
  140.5870   76.9760  219.1950 O   0  0  0  0  0  0  0  0  0  0  0  0
  141.8400   77.0680  219.1390 C   0  0  0  0  0  0  0  0  0  0  0  0
  142.5380   78.3060  219.1130 N   0  0  0  0  0  0  0  0  0  0  0  0
  141.8230   79.5650  219.1510 C   0  0  0  0  0  0  0  0  0  0  0  0
  140.9710   79.6050  220.3990 C   0  0  0  0  0  0  0  0  0  0  0  0
  139.7400   79.7400  220.1900 O   0  0  0  0  0  0  0  0  0  0  0  0
  141.6160   79.4940  221.6170 N   0  0  0  0  0  0  0  0  0  0  0  0
  142.5520   80.4730  222.2410 C   0  0  0  0  0  0  0  0  0  0  0  0
  141.8230   80.6590  223.5490 C   0  0  0  0  0  0  0  0  0  0  0  0
  141.4490   79.2400  223.9200 C   0  0  0  0  0  0  0  0  0  0  0  0
  141.6010   78.4580  222.6660 C   0  0  1  0  0  0  0  0  0  0  0  0
  140.7090   77.3480  222.4360 C   0  0  0  0  0  0  0  0  0  0  0  0
  141.0640   76.0410  222.1810 C   0  0  0  0  0  0  0  0  0  0  0  0
  140.1550   75.0740  221.9480 N   0  0  0  0  0  0  0  0  0  0  0  0
  138.8260   75.3360  221.9510 C   0  0  0  0  0  0  0  0  0  0  0  0
  138.4630   76.6020  222.1960 N   0  0  0  0  0  0  0  0  0  0  0  0
  139.3300   77.6000  222.4340 C   0  0  0  0  0  0  0  0  0  0  0  0
  142.6440   75.8280  219.0970 C   0  0  0  0  0  0  0  0  0  0  0  0
  142.3530   74.8390  218.1750 C   0  0  0  0  0  0  0  0  0  0  0  0
  143.1010   73.6740  218.1280 C   0  0  0  0  0  0  0  0  0  0  0  0
  144.1470   73.5190  219.0230 C   0  0  0  0  0  0  0  0  0  0  0  0
  144.9210   72.3570  219.0020 C   0  0  0  0  0  0  0  0  0  0  0  0
  145.9660   72.2270  219.9140 C   0  0  0  0  0  0  0  0  0  0  0  0
  146.6870   71.0910  219.8600 F   0  0  0  0  0  0  0  0  0  0  0  0
  146.2350   73.2260  220.8220 C   0  0  0  0  0  0  0  0  0  0  0  0
  145.4570   74.3810  220.8330 C   0  0  0  0  0  0  0  0  0  0  0  0
  144.4150   74.5190  219.9310 C   0  0  0  0  0  0  0  0  0  0  0  0
  143.6690   75.6250  219.9410 N   0  0  0  0  0  0  0  0  0  0  0  0
  143.5950   78.3410  219.0650 H   0  0  0  0  0  0  0  0  0  0  0  0
  142.5416   80.3977  219.1673 H   0  0  0  0  0  0  0  0  0  0  0  0
  141.1847   79.6589  218.2601 H   0  0  0  0  0  0  0  0  0  0  0  0
  143.5594   80.0543  222.3817 H   0  0  0  0  0  0  0  0  0  0  0  0
  142.7473   81.3886  221.6635 H   0  0  0  0  0  0  0  0  0  0  0  0
  142.4786   81.1090  224.3090 H   0  0  0  0  0  0  0  0  0  0  0  0
  140.9588   81.3358  223.4771 H   0  0  0  0  0  0  0  0  0  0  0  0
  142.1228   78.8545  224.6994 H   0  0  0  0  0  0  0  0  0  0  0  0
  140.4279   79.1756  224.3241 H   0  0  0  0  0  0  0  0  0  0  0  0
  142.5242   77.8610  222.7009 H   0  0  0  0  0  0  0  0  0  0  0  0
  142.1317   75.7767  222.1671 H   0  0  0  0  0  0  0  0  0  0  0  0
  138.0818   74.5484  221.7617 H   0  0  0  0  0  0  0  0  0  0  0  0
  138.9573   78.6167  222.6277 H   0  0  0  0  0  0  0  0  0  0  0  0
  141.5189   74.9790  217.4717 H   0  0  0  0  0  0  0  0  0  0  0  0
  142.8690   72.8876  217.3946 H   0  0  0  0  0  0  0  0  0  0  0  0
  144.7090   71.5573  218.2771 H   0  0  0  0  0  0  0  0  0  0  0  0
  147.0628   73.1122  221.5374 H   0  0  0  0  0  0  0  0  0  0  0  0
  145.6696   75.1819  221.5564 H   0  0  0  0  0  0  0  0  0  0  0  0
  1  2  2  0
  2  3  1  0
  3  4  1  0
  4  5  1  0
  5  6  2  0
  5  7  1  0
  7  8  1  0
  8  9  1  0
  9 10  1  0
 10 11  1  0
 11 12  1  0
 12 13  2  0
 13 14  1  0
 14 15  2  0
 15 16  1  0
 16 17  2  0
  2 18  1  0
 18 19  2  0
 19 20  1  0
 20 21  2  0
 21 22  1  0
 22 23  2  0
 23 24  1  0
 23 25  1  0
 25 26  2  0
 26 27  1  0
 27 28  2  0
 11  7  1  0
 17 12  1  0
 28 18  1  0
 27 21  1  0
  3 29  1  0
  4 30  1  0
  4 31  1  0
  8 32  1  0
  8 33  1  0
  9 34  1  0
  9 35  1  0
 10 36  1  0
 10 37  1  0
 11 38  1  1
 13 39  1  0
 15 40  1  0
 17 41  1  0
 19 42  1  0
 20 43  1  0
 22 44  1  0
 25 45  1  0
 26 46  1  0
M  END
>  <smiles>  (34) 
O=C(NCC(=O)N1CCC[C@H]1c1cncnc1)c1ccc2cc(F)ccc2n1

>  <score_type>  (34) 
oracle

>  <origin>  (34) 
autodockgpu

>  <m_score__min__energy>  (34) 
-8.0999999999999996

>  <m_primary>  (34) 
energy

>  <rmsd>  (34) 
7.808152350230089

>  <m_score__min__rmsd>  (34) 
7.808152350230089

>  <meeko>  (34) 
{"free_energy": -6.92, "intermolecular_energy": -8.41, "internal_energy": -2.04, "cluster_size": 3, "cluster_id": 5, "rank_in_cluster": 1}

>  <energy>  (34) 
-7.58

>  <cluster_rmsd>  (34) 
1.17

>  <cluster>  (34) 
2

$$$$

     RDKit          3D

 46 49  0  0  0  0  0  0  0  0999 V2000
  140.8530   71.7600  221.1500 O   0  0  0  0  0  0  0  0  0  0  0  0
  140.3600   72.2950  222.1770 C   0  0  0  0  0  0  0  0  0  0  0  0
  139.9730   73.6610  222.2430 N   0  0  0  0  0  0  0  0  0  0  0  0
  140.1280   74.5360  221.0980 C   0  0  0  0  0  0  0  0  0  0  0  0
  140.6020   75.8880  221.5780 C   0  0  0  0  0  0  0  0  0  0  0  0
  140.1740   76.2230  222.7110 O   0  0  0  0  0  0  0  0  0  0  0  0
  141.4380   76.6060  220.7430 N   0  0  0  0  0  0  0  0  0  0  0  0
  142.1100   76.1240  219.5010 C   0  0  0  0  0  0  0  0  0  0  0  0
  141.5820   77.1740  218.5540 C   0  0  0  0  0  0  0  0  0  0  0  0
  141.7350   78.4470  219.3580 C   0  0  0  0  0  0  0  0  0  0  0  0
  141.9180   78.0000  220.7630 C   0  0  1  0  0  0  0  0  0  0  0  0
  141.3910   78.8260  221.8220 C   0  0  0  0  0  0  0  0  0  0  0  0
  142.0920   79.3540  222.8850 C   0  0  0  0  0  0  0  0  0  0  0  0
  141.5040   80.0930  223.8460 N   0  0  0  0  0  0  0  0  0  0  0  0
  140.1770   80.3630  223.8200 C   0  0  0  0  0  0  0  0  0  0  0  0
  139.4810   79.8580  222.7940 N   0  0  0  0  0  0  0  0  0  0  0  0
  140.0190   79.1150  221.8130 C   0  0  0  0  0  0  0  0  0  0  0  0
  140.1690   71.4700  223.3880 C   0  0  0  0  0  0  0  0  0  0  0  0
  139.5250   70.2490  223.3060 C   0  0  0  0  0  0  0  0  0  0  0  0
  139.3410   69.4690  224.4360 C   0  0  0  0  0  0  0  0  0  0  0  0
  139.8160   69.9360  225.6500 C   0  0  0  0  0  0  0  0  0  0  0  0
  139.6480   69.1750  226.8090 C   0  0  0  0  0  0  0  0  0  0  0  0
  140.1350   69.6690  228.0170 C   0  0  0  0  0  0  0  0  0  0  0  0
  139.9520   68.9030  229.1090 F   0  0  0  0  0  0  0  0  0  0  0  0
  140.7730   70.8860  228.0720 C   0  0  0  0  0  0  0  0  0  0  0  0
  140.9360   71.6370  226.9100 C   0  0  0  0  0  0  0  0  0  0  0  0
  140.4550   71.1550  225.7040 C   0  0  0  0  0  0  0  0  0  0  0  0
  140.6100   71.8740  224.5910 N   0  0  0  0  0  0  0  0  0  0  0  0
  139.5630   74.0740  223.1270 H   0  0  0  0  0  0  0  0  0  0  0  0
  140.8680   74.1097  220.4046 H   0  0  0  0  0  0  0  0  0  0  0  0
  139.1657   74.6415  220.5757 H   0  0  0  0  0  0  0  0  0  0  0  0
  143.2066   76.1511  219.5835 H   0  0  0  0  0  0  0  0  0  0  0  0
  141.9129   75.0787  219.2206 H   0  0  0  0  0  0  0  0  0  0  0  0
  142.1788   77.2128  217.6308 H   0  0  0  0  0  0  0  0  0  0  0  0
  140.5502   76.9862  218.2223 H   0  0  0  0  0  0  0  0  0  0  0  0
  142.6125   79.0158  219.0167 H   0  0  0  0  0  0  0  0  0  0  0  0
  140.8646   79.1105  219.2475 H   0  0  0  0  0  0  0  0  0  0  0  0
  142.9743   78.0935  221.0553 H   0  0  0  0  0  0  0  0  0  0  0  0
  143.1735   79.1646  222.9513 H   0  0  0  0  0  0  0  0  0  0  0  0
  139.6952   80.9671  224.6029 H   0  0  0  0  0  0  0  0  0  0  0  0
  139.3824   78.7327  221.0014 H   0  0  0  0  0  0  0  0  0  0  0  0
  139.1549   69.8933  222.3331 H   0  0  0  0  0  0  0  0  0  0  0  0
  138.8279   68.4982  224.3702 H   0  0  0  0  0  0  0  0  0  0  0  0
  139.1390   68.2007  226.7686 H   0  0  0  0  0  0  0  0  0  0  0  0
  141.1538   71.2657  229.0316 H   0  0  0  0  0  0  0  0  0  0  0  0
  141.4458   72.6109  226.9503 H   0  0  0  0  0  0  0  0  0  0  0  0
  1  2  2  0
  2  3  1  0
  3  4  1  0
  4  5  1  0
  5  6  2  0
  5  7  1  0
  7  8  1  0
  8  9  1  0
  9 10  1  0
 10 11  1  0
 11 12  1  0
 12 13  2  0
 13 14  1  0
 14 15  2  0
 15 16  1  0
 16 17  2  0
  2 18  1  0
 18 19  2  0
 19 20  1  0
 20 21  2  0
 21 22  1  0
 22 23  2  0
 23 24  1  0
 23 25  1  0
 25 26  2  0
 26 27  1  0
 27 28  2  0
 11  7  1  0
 17 12  1  0
 28 18  1  0
 27 21  1  0
  3 29  1  0
  4 30  1  0
  4 31  1  0
  8 32  1  0
  8 33  1  0
  9 34  1  0
  9 35  1  0
 10 36  1  0
 10 37  1  0
 11 38  1  1
 13 39  1  0
 15 40  1  0
 17 41  1  0
 19 42  1  0
 20 43  1  0
 22 44  1  0
 25 45  1  0
 26 46  1  0
M  END
>  <smiles>  (35) 
O=C(NCC(=O)N1CCC[C@H]1c1cncnc1)c1ccc2cc(F)ccc2n1

>  <score_type>  (35) 
oracle

>  <origin>  (35) 
autodockgpu

>  <m_score__min__energy>  (35) 
-8.0999999999999996

>  <m_primary>  (35) 
energy

>  <rmsd>  (35) 
1.9074626070122649

>  <m_score__min__rmsd>  (35) 
1.9074626070122649

>  <meeko>  (35) 
{"free_energy": -7.94, "intermolecular_energy": -9.43, "internal_energy": -1.64, "cluster_size": 20, "cluster_id": 1, "rank_in_cluster": 12}

>  <energy>  (35) 
-7.57

>  <cluster_rmsd>  (35) 
1.17

>  <cluster>  (35) 
2

$$$$

     RDKit          3D

 46 49  0  0  0  0  0  0  0  0999 V2000
  139.8390   71.3710  220.9400 O   0  0  0  0  0  0  0  0  0  0  0  0
  139.7570   71.9720  222.0430 C   0  0  0  0  0  0  0  0  0  0  0  0
  139.6190   73.3820  222.1620 N   0  0  0  0  0  0  0  0  0  0  0  0
  139.5620   74.2270  220.9860 C   0  0  0  0  0  0  0  0  0  0  0  0
  140.5300   75.3750  221.1630 C   0  0  0  0  0  0  0  0  0  0  0  0
  140.7040   75.7350  222.3540 O   0  0  0  0  0  0  0  0  0  0  0  0
  141.1110   75.9020  220.0250 N   0  0  0  0  0  0  0  0  0  0  0  0
  140.6190   77.0440  219.2010 C   0  0  0  0  0  0  0  0  0  0  0  0
  141.8600   77.9010  219.2630 C   0  0  0  0  0  0  0  0  0  0  0  0
  142.9650   76.8920  219.0350 C   0  0  0  0  0  0  0  0  0  0  0  0
  142.3390   75.5670  219.2810 C   0  0  1  0  0  0  0  0  0  0  0  0
  143.1490   74.5190  219.8520 C   0  0  0  0  0  0  0  0  0  0  0  0
  142.7550   73.2260  220.1260 C   0  0  0  0  0  0  0  0  0  0  0  0
  143.5790   72.3220  220.6910 N   0  0  0  0  0  0  0  0  0  0  0  0
  144.8540   72.6350  221.0230 C   0  0  0  0  0  0  0  0  0  0  0  0
  145.2530   73.8870  220.7640 N   0  0  0  0  0  0  0  0  0  0  0  0
  144.4710   74.8240  220.2040 C   0  0  0  0  0  0  0  0  0  0  0  0
  139.8060   71.1820  223.2910 C   0  0  0  0  0  0  0  0  0  0  0  0
  139.3000   69.8940  223.3210 C   0  0  0  0  0  0  0  0  0  0  0  0
  139.3420   69.1460  224.4860 C   0  0  0  0  0  0  0  0  0  0  0  0
  139.9010   69.7120  225.6200 C   0  0  0  0  0  0  0  0  0  0  0  0
  139.9590   68.9850  226.8110 C   0  0  0  0  0  0  0  0  0  0  0  0
  140.5260   69.5790  227.9370 C   0  0  0  0  0  0  0  0  0  0  0  0
  140.5620   68.8440  229.0630 F   0  0  0  0  0  0  0  0  0  0  0  0
  141.0220   70.8610  227.8800 C   0  0  0  0  0  0  0  0  0  0  0  0
  140.9590   71.5770  226.6860 C   0  0  0  0  0  0  0  0  0  0  0  0
  140.3970   70.9950  225.5620 C   0  0  0  0  0  0  0  0  0  0  0  0
  140.3360   71.6810  224.4190 N   0  0  0  0  0  0  0  0  0  0  0  0
  139.5540   73.8500  223.1080 H   0  0  0  0  0  0  0  0  0  0  0  0
  139.8406   73.6423  220.0969 H   0  0  0  0  0  0  0  0  0  0  0  0
  138.5414   74.6158  220.8544 H   0  0  0  0  0  0  0  0  0  0  0  0
  140.3739   76.7401  218.1726 H   0  0  0  0  0  0  0  0  0  0  0  0
  139.6878   77.5191  219.5432 H   0  0  0  0  0  0  0  0  0  0  0  0
  141.8532   78.6683  218.4749 H   0  0  0  0  0  0  0  0  0  0  0  0
  141.9620   78.4583  220.2059 H   0  0  0  0  0  0  0  0  0  0  0  0
  143.3391   76.9562  218.0026 H   0  0  0  0  0  0  0  0  0  0  0  0
  143.8264   77.0690  219.6959 H   0  0  0  0  0  0  0  0  0  0  0  0
  142.1442   75.0572  218.3260 H   0  0  0  0  0  0  0  0  0  0  0  0
  141.7287   72.9211  219.8736 H   0  0  0  0  0  0  0  0  0  0  0  0
  145.5285   71.8976  221.4826 H   0  0  0  0  0  0  0  0  0  0  0  0
  144.8687   75.8331  220.0211 H   0  0  0  0  0  0  0  0  0  0  0  0
  138.8603   69.4602  222.4108 H   0  0  0  0  0  0  0  0  0  0  0  0
  138.9394   68.1226  224.5102 H   0  0  0  0  0  0  0  0  0  0  0  0
  139.5634   67.9597  226.8596 H   0  0  0  0  0  0  0  0  0  0  0  0
  141.4674   71.3199  228.7750 H   0  0  0  0  0  0  0  0  0  0  0  0
  141.3548   72.6021  226.6365 H   0  0  0  0  0  0  0  0  0  0  0  0
  1  2  2  0
  2  3  1  0
  3  4  1  0
  4  5  1  0
  5  6  2  0
  5  7  1  0
  7  8  1  0
  8  9  1  0
  9 10  1  0
 10 11  1  0
 11 12  1  0
 12 13  2  0
 13 14  1  0
 14 15  2  0
 15 16  1  0
 16 17  2  0
  2 18  1  0
 18 19  2  0
 19 20  1  0
 20 21  2  0
 21 22  1  0
 22 23  2  0
 23 24  1  0
 23 25  1  0
 25 26  2  0
 26 27  1  0
 27 28  2  0
 11  7  1  0
 17 12  1  0
 28 18  1  0
 27 21  1  0
  3 29  1  0
  4 30  1  0
  4 31  1  0
  8 32  1  0
  8 33  1  0
  9 34  1  0
  9 35  1  0
 10 36  1  0
 10 37  1  0
 11 38  1  6
 13 39  1  0
 15 40  1  0
 17 41  1  0
 19 42  1  0
 20 43  1  0
 22 44  1  0
 25 45  1  0
 26 46  1  0
M  END
>  <smiles>  (36) 
O=C(NCC(=O)N1CCC[C@H]1c1cncnc1)c1ccc2cc(F)ccc2n1

>  <score_type>  (36) 
oracle

>  <origin>  (36) 
autodockgpu

>  <m_score__min__energy>  (36) 
-8.0999999999999996

>  <m_primary>  (36) 
energy

>  <rmsd>  (36) 
1.7815067079969051

>  <m_score__min__rmsd>  (36) 
1.7815067079969051

>  <meeko>  (36) 
{"free_energy": -7.62, "intermolecular_energy": -9.11, "internal_energy": -1.93, "cluster_size": 24, "cluster_id": 2, "rank_in_cluster": 9}

>  <energy>  (36) 
-7.57

>  <cluster_rmsd>  (36) 
1.17

>  <cluster>  (36) 
2

$$$$

     RDKit          3D

 46 49  0  0  0  0  0  0  0  0999 V2000
  139.8970   71.3040  220.9450 O   0  0  0  0  0  0  0  0  0  0  0  0
  139.8090   71.9170  222.0400 C   0  0  0  0  0  0  0  0  0  0  0  0
  139.6970   73.3300  222.1430 N   0  0  0  0  0  0  0  0  0  0  0  0
  139.6750   74.1650  220.9590 C   0  0  0  0  0  0  0  0  0  0  0  0
  140.5280   75.3880  221.2080 C   0  0  0  0  0  0  0  0  0  0  0  0
  140.6190   75.7280  222.4140 O   0  0  0  0  0  0  0  0  0  0  0  0
  141.1090   75.9970  220.1110 N   0  0  0  0  0  0  0  0  0  0  0  0
  140.5860   77.1610  219.3380 C   0  0  0  0  0  0  0  0  0  0  0  0
  141.7910   78.0600  219.4690 C   0  0  0  0  0  0  0  0  0  0  0  0
  142.9390   77.1080  219.2110 C   0  0  0  0  0  0  0  0  0  0  0  0
  142.3610   75.7490  219.3750 C   0  0  1  0  0  0  0  0  0  0  0  0
  143.2020   74.7040  219.9060 C   0  0  0  0  0  0  0  0  0  0  0  0
  144.4790   74.8450  220.4060 C   0  0  0  0  0  0  0  0  0  0  0  0
  145.2010   73.8000  220.8550 N   0  0  0  0  0  0  0  0  0  0  0  0
  144.7070   72.5390  220.8420 C   0  0  0  0  0  0  0  0  0  0  0  0
  143.4680   72.3840  220.3590 N   0  0  0  0  0  0  0  0  0  0  0  0
  142.7080   73.3920  219.9000 C   0  0  0  0  0  0  0  0  0  0  0  0
  139.8230   71.1380  223.2960 C   0  0  0  0  0  0  0  0  0  0  0  0
  139.3140   69.8530  223.3250 C   0  0  0  0  0  0  0  0  0  0  0  0
  139.3230   69.1150  224.4970 C   0  0  0  0  0  0  0  0  0  0  0  0
  139.8530   69.6900  225.6400 C   0  0  0  0  0  0  0  0  0  0  0  0
  139.8780   68.9740  226.8390 C   0  0  0  0  0  0  0  0  0  0  0  0
  140.4170   69.5770  227.9740 C   0  0  0  0  0  0  0  0  0  0  0  0
  140.4210   68.8510  229.1080 F   0  0  0  0  0  0  0  0  0  0  0  0
  140.9180   70.8570  227.9180 C   0  0  0  0  0  0  0  0  0  0  0  0
  140.8890   71.5620  226.7170 C   0  0  0  0  0  0  0  0  0  0  0  0
  140.3540   70.9710  225.5840 C   0  0  0  0  0  0  0  0  0  0  0  0
  140.3260   71.6460  224.4340 N   0  0  0  0  0  0  0  0  0  0  0  0
  139.6260   73.8100  223.0850 H   0  0  0  0  0  0  0  0  0  0  0  0
  140.0762   73.6028  220.1029 H   0  0  0  0  0  0  0  0  0  0  0  0
  138.6418   74.4696  220.7363 H   0  0  0  0  0  0  0  0  0  0  0  0
  140.3710   76.9027  218.2906 H   0  0  0  0  0  0  0  0  0  0  0  0
  139.6307   77.5811  219.6859 H   0  0  0  0  0  0  0  0  0  0  0  0
  141.7681   78.8670  218.7218 H   0  0  0  0  0  0  0  0  0  0  0  0
  141.8542   78.5700  220.4416 H   0  0  0  0  0  0  0  0  0  0  0  0
  143.3289   77.2410  218.1911 H   0  0  0  0  0  0  0  0  0  0  0  0
  143.7808   77.2828  219.8972 H   0  0  0  0  0  0  0  0  0  0  0  0
  142.2023   75.2832  218.3912 H   0  0  0  0  0  0  0  0  0  0  0  0
  144.9257   75.8497  220.4396 H   0  0  0  0  0  0  0  0  0  0  0  0
  145.2944   71.6849  221.2099 H   0  0  0  0  0  0  0  0  0  0  0  0
  141.6966   73.1877  219.5189 H   0  0  0  0  0  0  0  0  0  0  0  0
  138.8974   69.4119  222.4074 H   0  0  0  0  0  0  0  0  0  0  0  0
  138.9174   68.0928  224.5195 H   0  0  0  0  0  0  0  0  0  0  0  0
  139.4785   67.9502  226.8867 H   0  0  0  0  0  0  0  0  0  0  0  0
  141.3408   71.3230  228.8202 H   0  0  0  0  0  0  0  0  0  0  0  0
  141.2898   72.5852  226.6683 H   0  0  0  0  0  0  0  0  0  0  0  0
  1  2  2  0
  2  3  1  0
  3  4  1  0
  4  5  1  0
  5  6  2  0
  5  7  1  0
  7  8  1  0
  8  9  1  0
  9 10  1  0
 10 11  1  0
 11 12  1  0
 12 13  2  0
 13 14  1  0
 14 15  2  0
 15 16  1  0
 16 17  2  0
  2 18  1  0
 18 19  2  0
 19 20  1  0
 20 21  2  0
 21 22  1  0
 22 23  2  0
 23 24  1  0
 23 25  1  0
 25 26  2  0
 26 27  1  0
 27 28  2  0
 11  7  1  0
 17 12  1  0
 28 18  1  0
 27 21  1  0
  3 29  1  0
  4 30  1  0
  4 31  1  0
  8 32  1  0
  8 33  1  0
  9 34  1  0
  9 35  1  0
 10 36  1  0
 10 37  1  0
 11 38  1  6
 13 39  1  0
 15 40  1  0
 17 41  1  0
 19 42  1  0
 20 43  1  0
 22 44  1  0
 25 45  1  0
 26 46  1  0
M  END
>  <smiles>  (37) 
O=C(NCC(=O)N1CCC[C@H]1c1cncnc1)c1ccc2cc(F)ccc2n1

>  <score_type>  (37) 
oracle

>  <origin>  (37) 
autodockgpu

>  <m_score__min__energy>  (37) 
-8.0999999999999996

>  <m_primary>  (37) 
energy

>  <rmsd>  (37) 
1.812235079930535

>  <m_score__min__rmsd>  (37) 
1.812235079930535

>  <meeko>  (37) 
{"free_energy": -7.54, "intermolecular_energy": -9.03, "internal_energy": -1.97, "cluster_size": 24, "cluster_id": 2, "rank_in_cluster": 18}

>  <energy>  (37) 
-7.55

>  <cluster_rmsd>  (37) 
1.14

>  <cluster>  (37) 
2

$$$$

     RDKit          3D

 46 49  0  0  0  0  0  0  0  0999 V2000
  140.0030   71.2130  220.9290 O   0  0  0  0  0  0  0  0  0  0  0  0
  139.8510   71.8310  222.0150 C   0  0  0  0  0  0  0  0  0  0  0  0
  139.6990   73.2420  222.1010 N   0  0  0  0  0  0  0  0  0  0  0  0
  139.7100   74.0670  220.9110 C   0  0  0  0  0  0  0  0  0  0  0  0
  140.4810   75.3350  221.2020 C   0  0  0  0  0  0  0  0  0  0  0  0
  140.4920   75.6760  222.4110 O   0  0  0  0  0  0  0  0  0  0  0  0
  141.0810   75.9780  220.1340 N   0  0  0  0  0  0  0  0  0  0  0  0
  140.5980   77.1970  219.4240 C   0  0  0  0  0  0  0  0  0  0  0  0
  141.8360   78.0450  219.5960 C   0  0  0  0  0  0  0  0  0  0  0  0
  142.9480   77.0670  219.2860 C   0  0  0  0  0  0  0  0  0  0  0  0
  142.3220   75.7230  219.3820 C   0  0  1  0  0  0  0  0  0  0  0  0
  143.1250   74.6230  219.8560 C   0  0  0  0  0  0  0  0  0  0  0  0
  142.7310   73.3080  219.9890 C   0  0  0  0  0  0  0  0  0  0  0  0
  143.5480   72.3520  220.4720 N   0  0  0  0  0  0  0  0  0  0  0  0
  144.8160   72.6310  220.8580 C   0  0  0  0  0  0  0  0  0  0  0  0
  145.2150   73.9030  220.7370 N   0  0  0  0  0  0  0  0  0  0  0  0
  144.4400   74.8930  220.2620 C   0  0  0  0  0  0  0  0  0  0  0  0
  139.8290   71.0620  223.2760 C   0  0  0  0  0  0  0  0  0  0  0  0
  139.2850   69.7900  223.3080 C   0  0  0  0  0  0  0  0  0  0  0  0
  139.2590   69.0620  224.4860 C   0  0  0  0  0  0  0  0  0  0  0  0
  139.7900   69.6320  225.6320 C   0  0  0  0  0  0  0  0  0  0  0  0
  139.7810   68.9240  226.8360 C   0  0  0  0  0  0  0  0  0  0  0  0
  140.3210   69.5220  227.9730 C   0  0  0  0  0  0  0  0  0  0  0  0
  140.2910   68.8050  229.1120 F   0  0  0  0  0  0  0  0  0  0  0  0
  140.8560   70.7880  227.9140 C   0  0  0  0  0  0  0  0  0  0  0  0
  140.8600   71.4840  226.7080 C   0  0  0  0  0  0  0  0  0  0  0  0
  140.3250   70.8990  225.5720 C   0  0  0  0  0  0  0  0  0  0  0  0
  140.3290   71.5650  224.4170 N   0  0  0  0  0  0  0  0  0  0  0  0
  139.5750   73.7260  223.0350 H   0  0  0  0  0  0  0  0  0  0  0  0
  140.1939   73.5212  220.0876 H   0  0  0  0  0  0  0  0  0  0  0  0
  138.6788   74.3159  220.6202 H   0  0  0  0  0  0  0  0  0  0  0  0
  140.3714   77.0004  218.3657 H   0  0  0  0  0  0  0  0  0  0  0  0
  139.6591   77.6324  219.7966 H   0  0  0  0  0  0  0  0  0  0  0  0
  141.8408   78.8891  218.8907 H   0  0  0  0  0  0  0  0  0  0  0  0
  141.9194   78.5024  220.5929 H   0  0  0  0  0  0  0  0  0  0  0  0
  143.3410   77.2381  218.2730 H   0  0  0  0  0  0  0  0  0  0  0  0
  143.7964   77.1760  219.9777 H   0  0  0  0  0  0  0  0  0  0  0  0
  142.1456   75.3141  218.3762 H   0  0  0  0  0  0  0  0  0  0  0  0
  141.7101   73.0290  219.6891 H   0  0  0  0  0  0  0  0  0  0  0  0
  145.4846   71.8511  221.2513 H   0  0  0  0  0  0  0  0  0  0  0  0
  144.8376   75.9162  220.1916 H   0  0  0  0  0  0  0  0  0  0  0  0
  138.8690   69.3526  222.3884 H   0  0  0  0  0  0  0  0  0  0  0  0
  138.8254   68.0514  224.5113 H   0  0  0  0  0  0  0  0  0  0  0  0
  139.3547   67.9112  226.8859 H   0  0  0  0  0  0  0  0  0  0  0  0
  141.2799   71.2497  228.8180 H   0  0  0  0  0  0  0  0  0  0  0  0
  141.2872   72.4964  226.6574 H   0  0  0  0  0  0  0  0  0  0  0  0
  1  2  2  0
  2  3  1  0
  3  4  1  0
  4  5  1  0
  5  6  2  0
  5  7  1  0
  7  8  1  0
  8  9  1  0
  9 10  1  0
 10 11  1  0
 11 12  1  0
 12 13  2  0
 13 14  1  0
 14 15  2  0
 15 16  1  0
 16 17  2  0
  2 18  1  0
 18 19  2  0
 19 20  1  0
 20 21  2  0
 21 22  1  0
 22 23  2  0
 23 24  1  0
 23 25  1  0
 25 26  2  0
 26 27  1  0
 27 28  2  0
 11  7  1  0
 17 12  1  0
 28 18  1  0
 27 21  1  0
  3 29  1  0
  4 30  1  0
  4 31  1  0
  8 32  1  0
  8 33  1  0
  9 34  1  0
  9 35  1  0
 10 36  1  0
 10 37  1  0
 11 38  1  6
 13 39  1  0
 15 40  1  0
 17 41  1  0
 19 42  1  0
 20 43  1  0
 22 44  1  0
 25 45  1  0
 26 46  1  0
M  END
>  <smiles>  (38) 
O=C(NCC(=O)N1CCC[C@H]1c1cncnc1)c1ccc2cc(F)ccc2n1

>  <score_type>  (38) 
oracle

>  <origin>  (38) 
autodockgpu

>  <m_score__min__energy>  (38) 
-8.0999999999999996

>  <m_primary>  (38) 
energy

>  <rmsd>  (38) 
1.8344638393760968

>  <m_score__min__rmsd>  (38) 
1.8344638393760968

>  <meeko>  (38) 
{"free_energy": -7.58, "intermolecular_energy": -9.07, "internal_energy": -1.97, "cluster_size": 24, "cluster_id": 2, "rank_in_cluster": 11}

>  <energy>  (38) 
-7.54

>  <cluster_rmsd>  (38) 
1.19

>  <cluster>  (38) 
2

$$$$

     RDKit          3D

 46 49  0  0  0  0  0  0  0  0999 V2000
  139.8040   73.0280  222.7460 O   0  0  0  0  0  0  0  0  0  0  0  0
  140.0960   71.8070  222.8340 C   0  0  0  0  0  0  0  0  0  0  0  0
  140.2170   70.9450  221.7100 N   0  0  0  0  0  0  0  0  0  0  0  0
  140.0070   71.4400  220.3650 C   0  0  0  0  0  0  0  0  0  0  0  0
  141.3300   71.9130  219.8070 C   0  0  0  0  0  0  0  0  0  0  0  0
  142.2690   71.0840  219.9080 O   0  0  0  0  0  0  0  0  0  0  0  0
  141.3750   73.1800  219.2550 N   0  0  0  0  0  0  0  0  0  0  0  0
  140.2370   73.9660  218.6970 C   0  0  0  0  0  0  0  0  0  0  0  0
  140.3970   75.2030  219.5490 C   0  0  0  0  0  0  0  0  0  0  0  0
  141.8930   75.4280  219.5190 C   0  0  0  0  0  0  0  0  0  0  0  0
  142.4710   74.1430  219.0480 C   0  0  1  0  0  0  0  0  0  0  0  0
  143.7600   73.7420  219.5560 C   0  0  0  0  0  0  0  0  0  0  0  0
  144.1710   73.7580  220.8730 C   0  0  0  0  0  0  0  0  0  0  0  0
  145.4110   73.3900  221.2490 N   0  0  0  0  0  0  0  0  0  0  0  0
  146.3330   72.9790  220.3470 C   0  0  0  0  0  0  0  0  0  0  0  0
  145.9510   72.9580  219.0640 N   0  0  0  0  0  0  0  0  0  0  0  0
  144.7280   73.3140  218.6370 C   0  0  0  0  0  0  0  0  0  0  0  0
  140.3260   71.2230  224.1720 C   0  0  0  0  0  0  0  0  0  0  0  0
  140.8010   72.0120  225.2040 C   0  0  0  0  0  0  0  0  0  0  0  0
  141.0200   71.4740  226.4620 C   0  0  0  0  0  0  0  0  0  0  0  0
  140.7520   70.1300  226.6650 C   0  0  0  0  0  0  0  0  0  0  0  0
  140.9610   69.5560  227.9210 C   0  0  0  0  0  0  0  0  0  0  0  0
  140.6840   68.2010  228.0980 C   0  0  0  0  0  0  0  0  0  0  0  0
  140.9000   67.6890  229.3230 F   0  0  0  0  0  0  0  0  0  0  0  0
  140.2110   67.4390  227.0550 C   0  0  0  0  0  0  0  0  0  0  0  0
  140.0060   68.0230  225.8060 C   0  0  0  0  0  0  0  0  0  0  0  0
  140.2790   69.3680  225.6210 C   0  0  0  0  0  0  0  0  0  0  0  0
  140.0830   69.9270  224.4250 N   0  0  0  0  0  0  0  0  0  0  0  0
  140.4630   69.9220  221.8250 H   0  0  0  0  0  0  0  0  0  0  0  0
  139.6063   70.6339  219.7329 H   0  0  0  0  0  0  0  0  0  0  0  0
  139.2894   72.2735  220.3817 H   0  0  0  0  0  0  0  0  0  0  0  0
  140.3638   74.1791  217.6253 H   0  0  0  0  0  0  0  0  0  0  0  0
  139.2511   73.4796  218.7331 H   0  0  0  0  0  0  0  0  0  0  0  0
  139.8574   76.0576  219.1148 H   0  0  0  0  0  0  0  0  0  0  0  0
  139.9898   75.0923  220.5648 H   0  0  0  0  0  0  0  0  0  0  0  0
  142.1467   76.2425  218.8246 H   0  0  0  0  0  0  0  0  0  0  0  0
  142.2849   75.7181  220.5050 H   0  0  0  0  0  0  0  0  0  0  0  0
  142.7816   74.2295  217.9963 H   0  0  0  0  0  0  0  0  0  0  0  0
  143.4588   74.0837  221.6455 H   0  0  0  0  0  0  0  0  0  0  0  0
  147.3456   72.6773  220.6530 H   0  0  0  0  0  0  0  0  0  0  0  0
  144.4860   73.2696  217.5649 H   0  0  0  0  0  0  0  0  0  0  0  0
  141.0070   73.0775  225.0242 H   0  0  0  0  0  0  0  0  0  0  0  0
  141.3988   72.1011  227.2825 H   0  0  0  0  0  0  0  0  0  0  0  0
  141.3381   70.1632  228.7572 H   0  0  0  0  0  0  0  0  0  0  0  0
  139.9950   66.3711  227.2062 H   0  0  0  0  0  0  0  0  0  0  0  0
  139.6283   67.4169  224.9693 H   0  0  0  0  0  0  0  0  0  0  0  0
  1  2  2  0
  2  3  1  0
  3  4  1  0
  4  5  1  0
  5  6  2  0
  5  7  1  0
  7  8  1  0
  8  9  1  0
  9 10  1  0
 10 11  1  0
 11 12  1  0
 12 13  2  0
 13 14  1  0
 14 15  2  0
 15 16  1  0
 16 17  2  0
  2 18  1  0
 18 19  2  0
 19 20  1  0
 20 21  2  0
 21 22  1  0
 22 23  2  0
 23 24  1  0
 23 25  1  0
 25 26  2  0
 26 27  1  0
 27 28  2  0
 11  7  1  0
 17 12  1  0
 28 18  1  0
 27 21  1  0
  3 29  1  0
  4 30  1  0
  4 31  1  0
  8 32  1  0
  8 33  1  0
  9 34  1  0
  9 35  1  0
 10 36  1  0
 10 37  1  0
 11 38  1  6
 13 39  1  0
 15 40  1  0
 17 41  1  0
 19 42  1  0
 20 43  1  0
 22 44  1  0
 25 45  1  0
 26 46  1  0
M  END
>  <smiles>  (39) 
O=C(NCC(=O)N1CCC[C@H]1c1cncnc1)c1ccc2cc(F)ccc2n1

>  <score_type>  (39) 
oracle

>  <origin>  (39) 
autodockgpu

>  <m_score__min__energy>  (39) 
-8.0999999999999996

>  <m_primary>  (39) 
energy

>  <rmsd>  (39) 
3.216383672671192

>  <m_score__min__rmsd>  (39) 
3.216383672671192

>  <meeko>  (39) 
{"free_energy": -7.01, "intermolecular_energy": -8.5, "internal_energy": -1.58, "cluster_size": 24, "cluster_id": 2, "rank_in_cluster": 24}

>  <energy>  (39) 
-7.45

>  <cluster_rmsd>  (39) 
0.83

>  <cluster>  (39) 
2

$$$$

     RDKit          3D

 46 49  0  0  0  0  0  0  0  0999 V2000
  141.0260   71.8200  221.2460 O   0  0  0  0  0  0  0  0  0  0  0  0
  140.4290   72.3280  222.2310 C   0  0  0  0  0  0  0  0  0  0  0  0
  139.9440   73.6640  222.2530 N   0  0  0  0  0  0  0  0  0  0  0  0
  140.1150   74.5380  221.1100 C   0  0  0  0  0  0  0  0  0  0  0  0
  140.5830   75.8910  221.5960 C   0  0  0  0  0  0  0  0  0  0  0  0
  140.1180   76.2380  222.7100 O   0  0  0  0  0  0  0  0  0  0  0  0
  141.4530   76.5960  220.7840 N   0  0  0  0  0  0  0  0  0  0  0  0
  142.1590   76.1010  219.5670 C   0  0  0  0  0  0  0  0  0  0  0  0
  141.6730   77.1520  218.5990 C   0  0  0  0  0  0  0  0  0  0  0  0
  141.8140   78.4270  219.4020 C   0  0  0  0  0  0  0  0  0  0  0  0
  141.9460   77.9840  220.8140 C   0  0  1  0  0  0  0  0  0  0  0  0
  141.3950   78.8210  221.8510 C   0  0  0  0  0  0  0  0  0  0  0  0
  142.0630   79.3320  222.9440 C   0  0  0  0  0  0  0  0  0  0  0  0
  141.4520   80.0830  223.8810 N   0  0  0  0  0  0  0  0  0  0  0  0
  140.1330   80.3830  223.8000 C   0  0  0  0  0  0  0  0  0  0  0  0
  139.4690   79.8950  222.7450 N   0  0  0  0  0  0  0  0  0  0  0  0
  140.0310   79.1410  221.7860 C   0  0  0  0  0  0  0  0  0  0  0  0
  140.2140   71.5020  223.4370 C   0  0  0  0  0  0  0  0  0  0  0  0
  139.5060   70.3160  223.3540 C   0  0  0  0  0  0  0  0  0  0  0  0
  139.2990   69.5360  224.4790 C   0  0  0  0  0  0  0  0  0  0  0  0
  139.8160   69.9650  225.6900 C   0  0  0  0  0  0  0  0  0  0  0  0
  139.6270   69.2020  226.8440 C   0  0  0  0  0  0  0  0  0  0  0  0
  140.1570   69.6580  228.0500 C   0  0  0  0  0  0  0  0  0  0  0  0
  139.9510   68.8920  229.1360 F   0  0  0  0  0  0  0  0  0  0  0  0
  140.8580   70.8400  228.1050 C   0  0  0  0  0  0  0  0  0  0  0  0
  141.0420   71.5940  226.9480 C   0  0  0  0  0  0  0  0  0  0  0  0
  140.5180   71.1490  225.7450 C   0  0  0  0  0  0  0  0  0  0  0  0
  140.6930   71.8700  224.6370 N   0  0  0  0  0  0  0  0  0  0  0  0
  139.4480   74.0550  223.1020 H   0  0  0  0  0  0  0  0  0  0  0  0
  140.8644   74.1111  220.4272 H   0  0  0  0  0  0  0  0  0  0  0  0
  139.1600   74.6434  220.5743 H   0  0  0  0  0  0  0  0  0  0  0  0
  143.2526   76.1168  219.6845 H   0  0  0  0  0  0  0  0  0  0  0  0
  141.9598   75.0566  219.2851 H   0  0  0  0  0  0  0  0  0  0  0  0
  142.2994   77.1801  217.6952 H   0  0  0  0  0  0  0  0  0  0  0  0
  140.6504   76.9737  218.2351 H   0  0  0  0  0  0  0  0  0  0  0  0
  142.7085   78.9845  219.0872 H   0  0  0  0  0  0  0  0  0  0  0  0
  140.9554   79.0998  219.2602 H   0  0  0  0  0  0  0  0  0  0  0  0
  142.9930   78.0666  221.1410 H   0  0  0  0  0  0  0  0  0  0  0  0
  143.1363   79.1181  223.0551 H   0  0  0  0  0  0  0  0  0  0  0  0
  139.6327   80.9971  224.5633 H   0  0  0  0  0  0  0  0  0  0  0  0
  139.4203   78.7738  220.9480 H   0  0  0  0  0  0  0  0  0  0  0  0
  139.1033   69.9894  222.3838 H   0  0  0  0  0  0  0  0  0  0  0  0
  138.7349   68.5940  224.4122 H   0  0  0  0  0  0  0  0  0  0  0  0
  139.0683   68.2554  226.8021 H   0  0  0  0  0  0  0  0  0  0  0  0
  141.2731   71.1898  229.0617 H   0  0  0  0  0  0  0  0  0  0  0  0
  141.6018   72.5400  226.9894 H   0  0  0  0  0  0  0  0  0  0  0  0
  1  2  2  0
  2  3  1  0
  3  4  1  0
  4  5  1  0
  5  6  2  0
  5  7  1  0
  7  8  1  0
  8  9  1  0
  9 10  1  0
 10 11  1  0
 11 12  1  0
 12 13  2  0
 13 14  1  0
 14 15  2  0
 15 16  1  0
 16 17  2  0
  2 18  1  0
 18 19  2  0
 19 20  1  0
 20 21  2  0
 21 22  1  0
 22 23  2  0
 23 24  1  0
 23 25  1  0
 25 26  2  0
 26 27  1  0
 27 28  2  0
 11  7  1  0
 17 12  1  0
 28 18  1  0
 27 21  1  0
  3 29  1  0
  4 30  1  0
  4 31  1  0
  8 32  1  0
  8 33  1  0
  9 34  1  0
  9 35  1  0
 10 36  1  0
 10 37  1  0
 11 38  1  1
 13 39  1  0
 15 40  1  0
 17 41  1  0
 19 42  1  0
 20 43  1  0
 22 44  1  0
 25 45  1  0
 26 46  1  0
M  END
>  <smiles>  (40) 
O=C(NCC(=O)N1CCC[C@H]1c1cncnc1)c1ccc2cc(F)ccc2n1

>  <score_type>  (40) 
oracle

>  <origin>  (40) 
autodockgpu

>  <m_score__min__energy>  (40) 
-8.0999999999999996

>  <m_primary>  (40) 
energy

>  <rmsd>  (40) 
1.9452067769309553

>  <m_score__min__rmsd>  (40) 
1.9452067769309553

>  <meeko>  (40) 
{"free_energy": -7.98, "intermolecular_energy": -9.48, "internal_energy": -1.56, "cluster_size": 20, "cluster_id": 1, "rank_in_cluster": 9}

>  <energy>  (40) 
-7.41

>  <cluster_rmsd>  (40) 
0.86

>  <cluster>  (40) 
2

$$$$

     RDKit          3D

 46 49  0  0  0  0  0  0  0  0999 V2000
  139.9880   73.6450  222.3560 O   0  0  0  0  0  0  0  0  0  0  0  0
  140.2330   72.4200  222.2070 C   0  0  0  0  0  0  0  0  0  0  0  0
  140.5970   71.8370  220.9620 N   0  0  0  0  0  0  0  0  0  0  0  0
  140.7100   72.6450  219.7650 C   0  0  0  0  0  0  0  0  0  0  0  0
  142.1240   72.5460  219.2410 C   0  0  0  0  0  0  0  0  0  0  0  0
  142.2170   72.1580  218.0500 O   0  0  0  0  0  0  0  0  0  0  0  0
  143.1510   72.8820  220.1040 N   0  0  0  0  0  0  0  0  0  0  0  0
  144.1120   71.9580  220.7730 C   0  0  0  0  0  0  0  0  0  0  0  0
  145.3910   72.5920  220.2830 C   0  0  0  0  0  0  0  0  0  0  0  0
  145.1140   74.0690  220.4650 C   0  0  0  0  0  0  0  0  0  0  0  0
  143.6410   74.1720  220.6220 C   0  0  1  0  0  0  0  0  0  0  0  0
  142.9750   75.3450  220.1100 C   0  0  0  0  0  0  0  0  0  0  0  0
  141.7760   75.8700  220.5430 C   0  0  0  0  0  0  0  0  0  0  0  0
  141.2160   76.9580  219.9790 N   0  0  0  0  0  0  0  0  0  0  0  0
  141.8050   77.6040  218.9440 C   0  0  0  0  0  0  0  0  0  0  0  0
  142.9700   77.1060  218.5110 N   0  0  0  0  0  0  0  0  0  0  0  0
  143.5690   76.0250  219.0380 C   0  0  0  0  0  0  0  0  0  0  0  0
  140.1400   71.5260  223.3800 C   0  0  0  0  0  0  0  0  0  0  0  0
  139.5390   70.2850  223.2650 C   0  0  0  0  0  0  0  0  0  0  0  0
  139.4470   69.4410  224.3590 C   0  0  0  0  0  0  0  0  0  0  0  0
  139.9690   69.8630  225.5700 C   0  0  0  0  0  0  0  0  0  0  0  0
  139.8940   69.0350  226.6930 C   0  0  0  0  0  0  0  0  0  0  0  0
  140.4270   69.4850  227.8990 C   0  0  0  0  0  0  0  0  0  0  0  0
  140.3330   68.6570  228.9560 F   0  0  0  0  0  0  0  0  0  0  0  0
  141.0200   70.7240  227.9860 C   0  0  0  0  0  0  0  0  0  0  0  0
  141.0910   71.5400  226.8600 C   0  0  0  0  0  0  0  0  0  0  0  0
  140.5630   71.1020  225.6570 C   0  0  0  0  0  0  0  0  0  0  0  0
  140.6300   71.8840  224.5780 N   0  0  0  0  0  0  0  0  0  0  0  0
  140.7940   70.8000  220.8770 H   0  0  0  0  0  0  0  0  0  0  0  0
  140.0070   72.2771  219.0031 H   0  0  0  0  0  0  0  0  0  0  0  0
  140.4708   73.6931  219.9981 H   0  0  0  0  0  0  0  0  0  0  0  0
  144.0251   71.9891  221.8691 H   0  0  0  0  0  0  0  0  0  0  0  0
  143.9876   70.8882  220.5493 H   0  0  0  0  0  0  0  0  0  0  0  0
  146.2514   72.2712  220.8887 H   0  0  0  0  0  0  0  0  0  0  0  0
  145.6488   72.3179  219.2494 H   0  0  0  0  0  0  0  0  0  0  0  0
  145.6251   74.4498  221.3615 H   0  0  0  0  0  0  0  0  0  0  0  0
  145.4796   74.6638  219.6150 H   0  0  0  0  0  0  0  0  0  0  0  0
  143.3837   74.3430  221.6777 H   0  0  0  0  0  0  0  0  0  0  0  0
  141.2567   75.3820  221.3809 H   0  0  0  0  0  0  0  0  0  0  0  0
  141.3492   78.4926  218.4828 H   0  0  0  0  0  0  0  0  0  0  0  0
  144.5270   75.6731  218.6275 H   0  0  0  0  0  0  0  0  0  0  0  0
  139.1302   69.9657  222.2950 H   0  0  0  0  0  0  0  0  0  0  0  0
  138.9686   68.4547  224.2677 H   0  0  0  0  0  0  0  0  0  0  0  0
  139.4217   68.0438  226.6260 H   0  0  0  0  0  0  0  0  0  0  0  0
  141.4372   71.0690  228.9435 H   0  0  0  0  0  0  0  0  0  0  0  0
  141.5654   72.5303  226.9259 H   0  0  0  0  0  0  0  0  0  0  0  0
  1  2  2  0
  2  3  1  0
  3  4  1  0
  4  5  1  0
  5  6  2  0
  5  7  1  0
  7  8  1  0
  8  9  1  0
  9 10  1  0
 10 11  1  0
 11 12  1  0
 12 13  2  0
 13 14  1  0
 14 15  2  0
 15 16  1  0
 16 17  2  0
  2 18  1  0
 18 19  2  0
 19 20  1  0
 20 21  2  0
 21 22  1  0
 22 23  2  0
 23 24  1  0
 23 25  1  0
 25 26  2  0
 26 27  1  0
 27 28  2  0
 11  7  1  0
 17 12  1  0
 28 18  1  0
 27 21  1  0
  3 29  1  0
  4 30  1  0
  4 31  1  0
  8 32  1  0
  8 33  1  0
  9 34  1  0
  9 35  1  0
 10 36  1  0
 10 37  1  0
 11 38  1  1
 13 39  1  0
 15 40  1  0
 17 41  1  0
 19 42  1  0
 20 43  1  0
 22 44  1  0
 25 45  1  0
 26 46  1  0
M  END
>  <smiles>  (41) 
O=C(NCC(=O)N1CCC[C@H]1c1cncnc1)c1ccc2cc(F)ccc2n1

>  <score_type>  (41) 
oracle

>  <origin>  (41) 
autodockgpu

>  <m_score__min__energy>  (41) 
-8.0999999999999996

>  <m_primary>  (41) 
energy

>  <rmsd>  (41) 
3.730310762697771

>  <m_score__min__rmsd>  (41) 
3.730310762697771

>  <meeko>  (41) 
{"free_energy": -7.35, "intermolecular_energy": -8.84, "internal_energy": -1.44, "cluster_size": 2, "cluster_id": 3, "rank_in_cluster": 1}

>  <energy>  (41) 
-7.39

>  <cluster_rmsd>  (41) 
0.81

>  <cluster>  (41) 
2

$$$$

     RDKit          3D

 46 49  0  0  0  0  0  0  0  0999 V2000
  140.5780   76.9330  219.1320 O   0  0  0  0  0  0  0  0  0  0  0  0
  141.8330   77.0230  219.1230 C   0  0  0  0  0  0  0  0  0  0  0  0
  142.5320   78.2610  219.1470 N   0  0  0  0  0  0  0  0  0  0  0  0
  141.8170   79.5200  219.1860 C   0  0  0  0  0  0  0  0  0  0  0  0
  140.9610   79.5570  220.4320 C   0  0  0  0  0  0  0  0  0  0  0  0
  139.7370   79.7460  220.2220 O   0  0  0  0  0  0  0  0  0  0  0  0
  141.5950   79.3850  221.6490 N   0  0  0  0  0  0  0  0  0  0  0  0
  142.5760   80.3020  222.2970 C   0  0  0  0  0  0  0  0  0  0  0  0
  141.8530   80.4950  223.6070 C   0  0  0  0  0  0  0  0  0  0  0  0
  141.4080   79.0880  223.9440 C   0  0  0  0  0  0  0  0  0  0  0  0
  141.5250   78.3280  222.6730 C   0  0  1  0  0  0  0  0  0  0  0  0
  140.5790   77.2700  222.4150 C   0  0  0  0  0  0  0  0  0  0  0  0
  139.2040   77.3790  222.3890 C   0  0  0  0  0  0  0  0  0  0  0  0
  138.3980   76.3220  222.1670 N   0  0  0  0  0  0  0  0  0  0  0  0
  138.8980   75.0810  221.9560 C   0  0  0  0  0  0  0  0  0  0  0  0
  140.2310   74.9580  221.9790 N   0  0  0  0  0  0  0  0  0  0  0  0
  141.0770   75.9780  222.1950 C   0  0  0  0  0  0  0  0  0  0  0  0
  142.6360   75.7840  219.0830 C   0  0  0  0  0  0  0  0  0  0  0  0
  142.3470   74.7940  218.1610 C   0  0  0  0  0  0  0  0  0  0  0  0
  143.0950   73.6290  218.1170 C   0  0  0  0  0  0  0  0  0  0  0  0
  144.1390   73.4750  219.0140 C   0  0  0  0  0  0  0  0  0  0  0  0
  144.9130   72.3120  218.9950 C   0  0  0  0  0  0  0  0  0  0  0  0
  145.9570   72.1830  219.9090 C   0  0  0  0  0  0  0  0  0  0  0  0
  146.6770   71.0470  219.8570 F   0  0  0  0  0  0  0  0  0  0  0  0
  146.2250   73.1830  220.8160 C   0  0  0  0  0  0  0  0  0  0  0  0
  145.4460   74.3380  220.8250 C   0  0  0  0  0  0  0  0  0  0  0  0
  144.4060   74.4760  219.9210 C   0  0  0  0  0  0  0  0  0  0  0  0
  143.6600   75.5810  219.9290 N   0  0  0  0  0  0  0  0  0  0  0  0
  143.5900   78.2950  219.1380 H   0  0  0  0  0  0  0  0  0  0  0  0
  142.5356   80.3526  219.2065 H   0  0  0  0  0  0  0  0  0  0  0  0
  141.1814   79.6162  218.2934 H   0  0  0  0  0  0  0  0  0  0  0  0
  143.5609   79.8308  222.4306 H   0  0  0  0  0  0  0  0  0  0  0  0
  142.8183   81.2195  221.7406 H   0  0  0  0  0  0  0  0  0  0  0  0
  142.5276   80.8944  224.3786 H   0  0  0  0  0  0  0  0  0  0  0  0
  141.0241   81.2158  223.5491 H   0  0  0  0  0  0  0  0  0  0  0  0
  142.0593   78.6518  224.7157 H   0  0  0  0  0  0  0  0  0  0  0  0
  140.3835   79.0653  224.3440 H   0  0  0  0  0  0  0  0  0  0  0  0
  142.4169   77.6846  222.6967 H   0  0  0  0  0  0  0  0  0  0  0  0
  138.7482   78.3661  222.5558 H   0  0  0  0  0  0  0  0  0  0  0  0
  138.2415   74.2172  221.7747 H   0  0  0  0  0  0  0  0  0  0  0  0
  142.1624   75.7997  222.1994 H   0  0  0  0  0  0  0  0  0  0  0  0
  141.5146   74.9334  217.4555 H   0  0  0  0  0  0  0  0  0  0  0  0
  142.8644   72.8417  217.3842 H   0  0  0  0  0  0  0  0  0  0  0  0
  144.7018   71.5115  218.2707 H   0  0  0  0  0  0  0  0  0  0  0  0
  147.0524   73.0705  221.5321 H   0  0  0  0  0  0  0  0  0  0  0  0
  145.6566   75.1390  221.5489 H   0  0  0  0  0  0  0  0  0  0  0  0
  1  2  2  0
  2  3  1  0
  3  4  1  0
  4  5  1  0
  5  6  2  0
  5  7  1  0
  7  8  1  0
  8  9  1  0
  9 10  1  0
 10 11  1  0
 11 12  1  0
 12 13  2  0
 13 14  1  0
 14 15  2  0
 15 16  1  0
 16 17  2  0
  2 18  1  0
 18 19  2  0
 19 20  1  0
 20 21  2  0
 21 22  1  0
 22 23  2  0
 23 24  1  0
 23 25  1  0
 25 26  2  0
 26 27  1  0
 27 28  2  0
 11  7  1  0
 17 12  1  0
 28 18  1  0
 27 21  1  0
  3 29  1  0
  4 30  1  0
  4 31  1  0
  8 32  1  0
  8 33  1  0
  9 34  1  0
  9 35  1  0
 10 36  1  0
 10 37  1  0
 11 38  1  1
 13 39  1  0
 15 40  1  0
 17 41  1  0
 19 42  1  0
 20 43  1  0
 22 44  1  0
 25 45  1  0
 26 46  1  0
M  END
>  <smiles>  (42) 
O=C(NCC(=O)N1CCC[C@H]1c1cncnc1)c1ccc2cc(F)ccc2n1

>  <score_type>  (42) 
oracle

>  <origin>  (42) 
autodockgpu

>  <m_score__min__energy>  (42) 
-8.0999999999999996

>  <m_primary>  (42) 
energy

>  <rmsd>  (42) 
7.773740266113036

>  <m_score__min__rmsd>  (42) 
7.773740266113036

>  <meeko>  (42) 
{"free_energy": -6.92, "intermolecular_energy": -8.41, "internal_energy": -2.08, "cluster_size": 3, "cluster_id": 5, "rank_in_cluster": 2}

>  <energy>  (42) 
-7.16

>  <cluster_rmsd>  (42) 
0.94

>  <cluster>  (42) 
2

$$$$

     RDKit          3D

 46 49  0  0  0  0  0  0  0  0999 V2000
  139.8780   70.6470  220.9670 O   0  0  0  0  0  0  0  0  0  0  0  0
  140.3030   71.2560  221.9830 C   0  0  0  0  0  0  0  0  0  0  0  0
  141.0440   72.4680  221.9210 N   0  0  0  0  0  0  0  0  0  0  0  0
  141.3570   73.0850  220.6480 C   0  0  0  0  0  0  0  0  0  0  0  0
  141.4230   74.5840  220.8360 C   0  0  0  0  0  0  0  0  0  0  0  0
  141.1260   74.9820  221.9890 O   0  0  0  0  0  0  0  0  0  0  0  0
  141.7930   75.3490  219.7450 N   0  0  0  0  0  0  0  0  0  0  0  0
  141.0130   76.4450  219.1000 C   0  0  0  0  0  0  0  0  0  0  0  0
  142.0530   77.5340  219.2050 C   0  0  0  0  0  0  0  0  0  0  0  0
  143.3200   76.8180  218.7940 C   0  0  0  0  0  0  0  0  0  0  0  0
  143.0020   75.3710  218.9010 C   0  0  1  0  0  0  0  0  0  0  0  0
  144.0520   74.4630  219.2920 C   0  0  0  0  0  0  0  0  0  0  0  0
  144.6160   73.4690  218.5190 C   0  0  0  0  0  0  0  0  0  0  0  0
  145.5770   72.6470  218.9830 N   0  0  0  0  0  0  0  0  0  0  0  0
  146.0480   72.7510  220.2490 C   0  0  0  0  0  0  0  0  0  0  0  0
  145.5120   73.7100  221.0130 N   0  0  0  0  0  0  0  0  0  0  0  0
  144.5530   74.5550  220.5980 C   0  0  0  0  0  0  0  0  0  0  0  0
  140.0260   70.6920  223.3200 C   0  0  0  0  0  0  0  0  0  0  0  0
  139.2740   69.5370  223.4480 C   0  0  0  0  0  0  0  0  0  0  0  0
  139.0090   69.0010  224.6970 C   0  0  0  0  0  0  0  0  0  0  0  0
  139.5130   69.6430  225.8170 C   0  0  0  0  0  0  0  0  0  0  0  0
  139.2650   69.1280  227.0910 C   0  0  0  0  0  0  0  0  0  0  0  0
  139.7840   69.7940  228.2000 C   0  0  0  0  0  0  0  0  0  0  0  0
  139.5210   69.2640  229.4090 F   0  0  0  0  0  0  0  0  0  0  0  0
  140.5290   70.9400  228.0450 C   0  0  0  0  0  0  0  0  0  0  0  0
  140.7710   71.4440  226.7690 C   0  0  0  0  0  0  0  0  0  0  0  0
  140.2590   70.7900  225.6610 C   0  0  0  0  0  0  0  0  0  0  0  0
  140.4900   71.2720  224.4390 N   0  0  0  0  0  0  0  0  0  0  0  0
  141.3860   72.9500  222.7990 H   0  0  0  0  0  0  0  0  0  0  0  0
  142.3276   72.7147  220.2864 H   0  0  0  0  0  0  0  0  0  0  0  0
  140.5803   72.8347  219.9104 H   0  0  0  0  0  0  0  0  0  0  0  0
  140.7555   76.2142  218.0558 H   0  0  0  0  0  0  0  0  0  0  0  0
  140.0336   76.6684  219.5482 H   0  0  0  0  0  0  0  0  0  0  0  0
  141.8274   78.3662  218.5220 H   0  0  0  0  0  0  0  0  0  0  0  0
  142.1114   77.9894  220.2046 H   0  0  0  0  0  0  0  0  0  0  0  0
  143.5918   77.0778  217.7603 H   0  0  0  0  0  0  0  0  0  0  0  0
  144.1747   77.0989  219.4269 H   0  0  0  0  0  0  0  0  0  0  0  0
  142.8433   74.9433  217.9000 H   0  0  0  0  0  0  0  0  0  0  0  0
  144.2673   73.3429  217.4834 H   0  0  0  0  0  0  0  0  0  0  0  0
  146.8322   72.0803  220.6300 H   0  0  0  0  0  0  0  0  0  0  0  0
  144.1606   75.3200  221.2841 H   0  0  0  0  0  0  0  0  0  0  0  0
  138.8828   69.0397  222.5482 H   0  0  0  0  0  0  0  0  0  0  0  0
  138.4103   68.0838  224.7982 H   0  0  0  0  0  0  0  0  0  0  0  0
  138.6698   68.2116  227.2174 H   0  0  0  0  0  0  0  0  0  0  0  0
  140.9331   71.4577  228.9274 H   0  0  0  0  0  0  0  0  0  0  0  0
  141.3675   72.3595  226.6419 H   0  0  0  0  0  0  0  0  0  0  0  0
  1  2  2  0
  2  3  1  0
  3  4  1  0
  4  5  1  0
  5  6  2  0
  5  7  1  0
  7  8  1  0
  8  9  1  0
  9 10  1  0
 10 11  1  0
 11 12  1  0
 12 13  2  0
 13 14  1  0
 14 15  2  0
 15 16  1  0
 16 17  2  0
  2 18  1  0
 18 19  2  0
 19 20  1  0
 20 21  2  0
 21 22  1  0
 22 23  2  0
 23 24  1  0
 23 25  1  0
 25 26  2  0
 26 27  1  0
 27 28  2  0
 11  7  1  0
 17 12  1  0
 28 18  1  0
 27 21  1  0
  3 29  1  0
  4 30  1  0
  4 31  1  0
  8 32  1  0
  8 33  1  0
  9 34  1  0
  9 35  1  0
 10 36  1  0
 10 37  1  0
 11 38  1  6
 13 39  1  0
 15 40  1  0
 17 41  1  0
 19 42  1  0
 20 43  1  0
 22 44  1  0
 25 45  1  0
 26 46  1  0
M  END
>  <smiles>  (43) 
O=C(NCC(=O)N1CCC[C@H]1c1cncnc1)c1ccc2cc(F)ccc2n1

>  <score_type>  (43) 
oracle

>  <origin>  (43) 
autodockgpu

>  <m_score__min__energy>  (43) 
-8.0999999999999996

>  <m_primary>  (43) 
energy

>  <rmsd>  (43) 
2.212612400084102

>  <m_score__min__rmsd>  (43) 
2.212612400084102

>  <meeko>  (43) 
{"free_energy": -7.41, "intermolecular_energy": -8.9, "internal_energy": -1.91, "cluster_size": 24, "cluster_id": 2, "rank_in_cluster": 20}

>  <energy>  (43) 
-7.06

>  <cluster_rmsd>  (43) 
0.84

>  <cluster>  (43) 
2

$$$$

     RDKit          3D

 46 49  0  0  0  0  0  0  0  0999 V2000
  140.8410   71.7470  221.1610 O   0  0  0  0  0  0  0  0  0  0  0  0
  140.3510   72.2810  222.1890 C   0  0  0  0  0  0  0  0  0  0  0  0
  139.9690   73.6490  222.2590 N   0  0  0  0  0  0  0  0  0  0  0  0
  140.1260   74.5260  221.1170 C   0  0  0  0  0  0  0  0  0  0  0  0
  140.5820   75.8830  221.6030 C   0  0  0  0  0  0  0  0  0  0  0  0
  140.1080   76.2300  222.7130 O   0  0  0  0  0  0  0  0  0  0  0  0
  141.4530   76.5920  220.7950 N   0  0  0  0  0  0  0  0  0  0  0  0
  142.1880   76.0920  219.5970 C   0  0  0  0  0  0  0  0  0  0  0  0
  141.7000   77.1210  218.6060 C   0  0  0  0  0  0  0  0  0  0  0  0
  141.8060   78.4090  219.3940 C   0  0  0  0  0  0  0  0  0  0  0  0
  141.9230   77.9880  220.8140 C   0  0  1  0  0  0  0  0  0  0  0  0
  141.3410   78.8300  221.8300 C   0  0  0  0  0  0  0  0  0  0  0  0
  140.0140   79.1870  221.9480 C   0  0  0  0  0  0  0  0  0  0  0  0
  139.5670   80.0060  222.9200 N   0  0  0  0  0  0  0  0  0  0  0  0
  140.4050   80.5310  223.8450 C   0  0  0  0  0  0  0  0  0  0  0  0
  141.6970   80.1950  223.7450 N   0  0  0  0  0  0  0  0  0  0  0  0
  142.1920   79.3830  222.7970 C   0  0  0  0  0  0  0  0  0  0  0  0
  140.1570   71.4540  223.3990 C   0  0  0  0  0  0  0  0  0  0  0  0
  139.5060   70.2370  223.3140 C   0  0  0  0  0  0  0  0  0  0  0  0
  139.3200   69.4550  224.4420 C   0  0  0  0  0  0  0  0  0  0  0  0
  139.8000   69.9160  225.6570 C   0  0  0  0  0  0  0  0  0  0  0  0
  139.6290   69.1520  226.8140 C   0  0  0  0  0  0  0  0  0  0  0  0
  140.1210   69.6400  228.0230 C   0  0  0  0  0  0  0  0  0  0  0  0
  139.9350   68.8720  229.1120 F   0  0  0  0  0  0  0  0  0  0  0  0
  140.7650   70.8540  228.0800 C   0  0  0  0  0  0  0  0  0  0  0  0
  140.9300   71.6070  226.9200 C   0  0  0  0  0  0  0  0  0  0  0  0
  140.4450   71.1310  225.7130 C   0  0  0  0  0  0  0  0  0  0  0  0
  140.6020   71.8520  224.6020 N   0  0  0  0  0  0  0  0  0  0  0  0
  139.5610   74.0620  223.1440 H   0  0  0  0  0  0  0  0  0  0  0  0
  140.8768   74.1079  220.4304 H   0  0  0  0  0  0  0  0  0  0  0  0
  139.1677   74.6223  220.5855 H   0  0  0  0  0  0  0  0  0  0  0  0
  143.2790   76.1286  219.7323 H   0  0  0  0  0  0  0  0  0  0  0  0
  142.0118   75.0403  219.3269 H   0  0  0  0  0  0  0  0  0  0  0  0
  142.3407   77.1477  217.7123 H   0  0  0  0  0  0  0  0  0  0  0  0
  140.6869   76.9201  218.2275 H   0  0  0  0  0  0  0  0  0  0  0  0
  142.6956   78.9778  219.0857 H   0  0  0  0  0  0  0  0  0  0  0  0
  140.9380   79.0644  219.2295 H   0  0  0  0  0  0  0  0  0  0  0  0
  142.9630   78.0924  221.1569 H   0  0  0  0  0  0  0  0  0  0  0  0
  139.2925   78.7875  221.2202 H   0  0  0  0  0  0  0  0  0  0  0  0
  140.0422   81.2002  224.6391 H   0  0  0  0  0  0  0  0  0  0  0  0
  143.2672   79.1513  222.7792 H   0  0  0  0  0  0  0  0  0  0  0  0
  139.1321   69.8864  222.3407 H   0  0  0  0  0  0  0  0  0  0  0  0
  138.8015   68.4872  224.3744 H   0  0  0  0  0  0  0  0  0  0  0  0
  139.1142   68.1808  226.7714 H   0  0  0  0  0  0  0  0  0  0  0  0
  141.1490   71.2295  229.0400 H   0  0  0  0  0  0  0  0  0  0  0  0
  141.4447   72.5783  226.9623 H   0  0  0  0  0  0  0  0  0  0  0  0
  1  2  2  0
  2  3  1  0
  3  4  1  0
  4  5  1  0
  5  6  2  0
  5  7  1  0
  7  8  1  0
  8  9  1  0
  9 10  1  0
 10 11  1  0
 11 12  1  0
 12 13  2  0
 13 14  1  0
 14 15  2  0
 15 16  1  0
 16 17  2  0
  2 18  1  0
 18 19  2  0
 19 20  1  0
 20 21  2  0
 21 22  1  0
 22 23  2  0
 23 24  1  0
 23 25  1  0
 25 26  2  0
 26 27  1  0
 27 28  2  0
 11  7  1  0
 17 12  1  0
 28 18  1  0
 27 21  1  0
  3 29  1  0
  4 30  1  0
  4 31  1  0
  8 32  1  0
  8 33  1  0
  9 34  1  0
  9 35  1  0
 10 36  1  0
 10 37  1  0
 11 38  1  1
 13 39  1  0
 15 40  1  0
 17 41  1  0
 19 42  1  0
 20 43  1  0
 22 44  1  0
 25 45  1  0
 26 46  1  0
M  END
>  <smiles>  (44) 
O=C(NCC(=O)N1CCC[C@H]1c1cncnc1)c1ccc2cc(F)ccc2n1

>  <score_type>  (44) 
oracle

>  <origin>  (44) 
autodockgpu

>  <m_score__min__energy>  (44) 
-8.0999999999999996

>  <m_primary>  (44) 
energy

>  <rmsd>  (44) 
1.931177103457249

>  <m_score__min__rmsd>  (44) 
1.931177103457249

>  <meeko>  (44) 
{"free_energy": -8.0, "intermolecular_energy": -9.49, "internal_energy": -1.63, "cluster_size": 20, "cluster_id": 1, "rank_in_cluster": 8}

>  <energy>  (44) 
-7.01

>  <cluster_rmsd>  (44) 
1.52

>  <cluster>  (44) 
2

$$$$

     RDKit          3D

 46 49  0  0  0  0  0  0  0  0999 V2000
  139.9170   71.3870  220.9540 O   0  0  0  0  0  0  0  0  0  0  0  0
  139.8120   71.9940  222.0510 C   0  0  0  0  0  0  0  0  0  0  0  0
  139.6600   73.4040  222.1580 N   0  0  0  0  0  0  0  0  0  0  0  0
  139.6140   74.2410  220.9760 C   0  0  0  0  0  0  0  0  0  0  0  0
  140.5290   75.4260  221.1820 C   0  0  0  0  0  0  0  0  0  0  0  0
  140.6730   75.7770  222.3790 O   0  0  0  0  0  0  0  0  0  0  0  0
  141.1010   75.9940  220.0580 N   0  0  0  0  0  0  0  0  0  0  0  0
  140.6070   77.1700  219.2860 C   0  0  0  0  0  0  0  0  0  0  0  0
  141.8550   78.0160  219.3670 C   0  0  0  0  0  0  0  0  0  0  0  0
  142.9500   77.0110  219.0870 C   0  0  0  0  0  0  0  0  0  0  0  0
  142.3180   75.6810  219.2880 C   0  0  1  0  0  0  0  0  0  0  0  0
  143.1270   74.6070  219.8080 C   0  0  0  0  0  0  0  0  0  0  0  0
  142.7330   73.3030  220.0210 C   0  0  0  0  0  0  0  0  0  0  0  0
  143.5560   72.3720  220.5420 N   0  0  0  0  0  0  0  0  0  0  0  0
  144.8320   72.6680  220.8890 C   0  0  0  0  0  0  0  0  0  0  0  0
  145.2310   73.9300  220.6890 N   0  0  0  0  0  0  0  0  0  0  0  0
  144.4500   74.8940  220.1740 C   0  0  0  0  0  0  0  0  0  0  0  0
  139.8490   71.2130  223.3050 C   0  0  0  0  0  0  0  0  0  0  0  0
  139.3440   69.9260  223.3400 C   0  0  0  0  0  0  0  0  0  0  0  0
  139.3740   69.1860  224.5100 C   0  0  0  0  0  0  0  0  0  0  0  0
  139.9220   69.7600  225.6450 C   0  0  0  0  0  0  0  0  0  0  0  0
  139.9680   69.0410  226.8420 C   0  0  0  0  0  0  0  0  0  0  0  0
  140.5240   69.6440  227.9690 C   0  0  0  0  0  0  0  0  0  0  0  0
  140.5490   68.9160  229.1010 F   0  0  0  0  0  0  0  0  0  0  0  0
  141.0200   70.9250  227.9080 C   0  0  0  0  0  0  0  0  0  0  0  0
  140.9690   71.6330  226.7090 C   0  0  0  0  0  0  0  0  0  0  0  0
  140.4180   71.0430  225.5830 C   0  0  0  0  0  0  0  0  0  0  0  0
  140.3690   71.7200  224.4350 N   0  0  0  0  0  0  0  0  0  0  0  0
  139.5760   73.8780  223.1010 H   0  0  0  0  0  0  0  0  0  0  0  0
  139.9479   73.6638  220.1011 H   0  0  0  0  0  0  0  0  0  0  0  0
  138.5847   74.5891  220.8046 H   0  0  0  0  0  0  0  0  0  0  0  0
  140.3478   76.9085  218.2494 H   0  0  0  0  0  0  0  0  0  0  0  0
  139.6830   77.6370  219.6576 H   0  0  0  0  0  0  0  0  0  0  0  0
  141.8444   78.8138  218.6097 H   0  0  0  0  0  0  0  0  0  0  0  0
  141.9715   78.5348  220.3299 H   0  0  0  0  0  0  0  0  0  0  0  0
  143.3129   77.1136  218.0537 H   0  0  0  0  0  0  0  0  0  0  0  0
  143.8200   77.1566  219.7442 H   0  0  0  0  0  0  0  0  0  0  0  0
  142.1092   75.2102  218.3160 H   0  0  0  0  0  0  0  0  0  0  0  0
  141.7063   73.0112  219.7551 H   0  0  0  0  0  0  0  0  0  0  0  0
  145.5060   71.9094  221.3137 H   0  0  0  0  0  0  0  0  0  0  0  0
  144.8489   75.9102  220.0391 H   0  0  0  0  0  0  0  0  0  0  0  0
  138.9138   69.4854  222.4285 H   0  0  0  0  0  0  0  0  0  0  0  0
  138.9707   68.1629  224.5374 H   0  0  0  0  0  0  0  0  0  0  0  0
  139.5720   68.0161  226.8942 H   0  0  0  0  0  0  0  0  0  0  0  0
  141.4563   71.3901  228.8043 H   0  0  0  0  0  0  0  0  0  0  0  0
  141.3652   72.6578  226.6566 H   0  0  0  0  0  0  0  0  0  0  0  0
  1  2  2  0
  2  3  1  0
  3  4  1  0
  4  5  1  0
  5  6  2  0
  5  7  1  0
  7  8  1  0
  8  9  1  0
  9 10  1  0
 10 11  1  0
 11 12  1  0
 12 13  2  0
 13 14  1  0
 14 15  2  0
 15 16  1  0
 16 17  2  0
  2 18  1  0
 18 19  2  0
 19 20  1  0
 20 21  2  0
 21 22  1  0
 22 23  2  0
 23 24  1  0
 23 25  1  0
 25 26  2  0
 26 27  1  0
 27 28  2  0
 11  7  1  0
 17 12  1  0
 28 18  1  0
 27 21  1  0
  3 29  1  0
  4 30  1  0
  4 31  1  0
  8 32  1  0
  8 33  1  0
  9 34  1  0
  9 35  1  0
 10 36  1  0
 10 37  1  0
 11 38  1  6
 13 39  1  0
 15 40  1  0
 17 41  1  0
 19 42  1  0
 20 43  1  0
 22 44  1  0
 25 45  1  0
 26 46  1  0
M  END
>  <smiles>  (45) 
O=C(NCC(=O)N1CCC[C@H]1c1cncnc1)c1ccc2cc(F)ccc2n1

>  <score_type>  (45) 
oracle

>  <origin>  (45) 
autodockgpu

>  <m_score__min__energy>  (45) 
-8.0999999999999996

>  <m_primary>  (45) 
energy

>  <rmsd>  (45) 
1.820941096709139

>  <m_score__min__rmsd>  (45) 
1.820941096709139

>  <meeko>  (45) 
{"free_energy": -7.64, "intermolecular_energy": -9.13, "internal_energy": -1.94, "cluster_size": 24, "cluster_id": 2, "rank_in_cluster": 6}

>  <energy>  (45) 
-7.35

>  <cluster_rmsd>  (45) 
0.0

>  <cluster>  (45) 
3

$$$$

     RDKit          3D

 46 49  0  0  0  0  0  0  0  0999 V2000
  139.8420   71.4130  220.9510 O   0  0  0  0  0  0  0  0  0  0  0  0
  139.7570   72.0110  222.0550 C   0  0  0  0  0  0  0  0  0  0  0  0
  139.6010   73.4180  222.1770 N   0  0  0  0  0  0  0  0  0  0  0  0
  139.5280   74.2650  221.0030 C   0  0  0  0  0  0  0  0  0  0  0  0
  140.5100   75.4030  221.1610 C   0  0  0  0  0  0  0  0  0  0  0  0
  140.6960   75.7760  222.3460 O   0  0  0  0  0  0  0  0  0  0  0  0
  141.0900   75.9110  220.0120 N   0  0  0  0  0  0  0  0  0  0  0  0
  140.6000   77.0430  219.1740 C   0  0  0  0  0  0  0  0  0  0  0  0
  141.8460   77.8940  219.2180 C   0  0  0  0  0  0  0  0  0  0  0  0
  142.9440   76.8760  219.0010 C   0  0  0  0  0  0  0  0  0  0  0  0
  142.3120   75.5580  219.2690 C   0  0  1  0  0  0  0  0  0  0  0  0
  143.1190   74.5140  219.8520 C   0  0  0  0  0  0  0  0  0  0  0  0
  142.7160   73.2310  220.1550 C   0  0  0  0  0  0  0  0  0  0  0  0
  143.5380   72.3300  220.7290 N   0  0  0  0  0  0  0  0  0  0  0  0
  144.8190   72.6380  221.0420 C   0  0  0  0  0  0  0  0  0  0  0  0
  145.2260   73.8800  220.7540 N   0  0  0  0  0  0  0  0  0  0  0  0
  144.4470   74.8140  220.1840 C   0  0  0  0  0  0  0  0  0  0  0  0
  139.8220   71.2190  223.3010 C   0  0  0  0  0  0  0  0  0  0  0  0
  139.3620   69.9150  223.3240 C   0  0  0  0  0  0  0  0  0  0  0  0
  139.4190   69.1650  224.4870 C   0  0  0  0  0  0  0  0  0  0  0  0
  139.9470   69.7470  225.6280 C   0  0  0  0  0  0  0  0  0  0  0  0
  140.0200   69.0190  226.8170 C   0  0  0  0  0  0  0  0  0  0  0  0
  140.5550   69.6290  227.9500 C   0  0  0  0  0  0  0  0  0  0  0  0
  140.6060   68.8920  229.0750 F   0  0  0  0  0  0  0  0  0  0  0  0
  141.0070   70.9280  227.9010 C   0  0  0  0  0  0  0  0  0  0  0  0
  140.9300   71.6450  226.7090 C   0  0  0  0  0  0  0  0  0  0  0  0
  140.3990   71.0470  225.5780 C   0  0  0  0  0  0  0  0  0  0  0  0
  140.3240   71.7330  224.4360 N   0  0  0  0  0  0  0  0  0  0  0  0
  139.5340   73.8850  223.1250 H   0  0  0  0  0  0  0  0  0  0  0  0
  139.7826   73.6787  220.1078 H   0  0  0  0  0  0  0  0  0  0  0  0
  138.5087   74.6637  220.8929 H   0  0  0  0  0  0  0  0  0  0  0  0
  140.3485   76.7255  218.1513 H   0  0  0  0  0  0  0  0  0  0  0  0
  139.6728   77.5279  219.5133 H   0  0  0  0  0  0  0  0  0  0  0  0
  141.8402   78.6493  218.4184 H   0  0  0  0  0  0  0  0  0  0  0  0
  141.9549   78.4649  220.1519 H   0  0  0  0  0  0  0  0  0  0  0  0
  143.3145   76.9229  217.9663 H   0  0  0  0  0  0  0  0  0  0  0  0
  143.8087   77.0581  219.6561 H   0  0  0  0  0  0  0  0  0  0  0  0
  142.1104   75.0345  218.3228 H   0  0  0  0  0  0  0  0  0  0  0  0
  141.6843   72.9310  219.9194 H   0  0  0  0  0  0  0  0  0  0  0  0
  145.4916   71.9039  221.5097 H   0  0  0  0  0  0  0  0  0  0  0  0
  144.8520   75.8157  219.9775 H   0  0  0  0  0  0  0  0  0  0  0  0
  138.9463   69.4686  222.4086 H   0  0  0  0  0  0  0  0  0  0  0  0
  139.0524   68.1280  224.5044 H   0  0  0  0  0  0  0  0  0  0  0  0
  139.6608   67.9801  226.8589 H   0  0  0  0  0  0  0  0  0  0  0  0
  141.4283   71.3992  228.8013 H   0  0  0  0  0  0  0  0  0  0  0  0
  141.2900   72.6835  226.6661 H   0  0  0  0  0  0  0  0  0  0  0  0
  1  2  2  0
  2  3  1  0
  3  4  1  0
  4  5  1  0
  5  6  2  0
  5  7  1  0
  7  8  1  0
  8  9  1  0
  9 10  1  0
 10 11  1  0
 11 12  1  0
 12 13  2  0
 13 14  1  0
 14 15  2  0
 15 16  1  0
 16 17  2  0
  2 18  1  0
 18 19  2  0
 19 20  1  0
 20 21  2  0
 21 22  1  0
 22 23  2  0
 23 24  1  0
 23 25  1  0
 25 26  2  0
 26 27  1  0
 27 28  2  0
 11  7  1  0
 17 12  1  0
 28 18  1  0
 27 21  1  0
  3 29  1  0
  4 30  1  0
  4 31  1  0
  8 32  1  0
  8 33  1  0
  9 34  1  0
  9 35  1  0
 10 36  1  0
 10 37  1  0
 11 38  1  6
 13 39  1  0
 15 40  1  0
 17 41  1  0
 19 42  1  0
 20 43  1  0
 22 44  1  0
 25 45  1  0
 26 46  1  0
M  END
>  <smiles>  (46) 
O=C(NCC(=O)N1CCC[C@H]1c1cncnc1)c1ccc2cc(F)ccc2n1

>  <score_type>  (46) 
oracle

>  <origin>  (46) 
autodockgpu

>  <m_score__min__energy>  (46) 
-8.0999999999999996

>  <m_primary>  (46) 
energy

>  <rmsd>  (46) 
1.7765404047959943

>  <m_score__min__rmsd>  (46) 
1.7765404047959943

>  <meeko>  (46) 
{"free_energy": -7.62, "intermolecular_energy": -9.11, "internal_energy": -1.92, "cluster_size": 24, "cluster_id": 2, "rank_in_cluster": 10}

>  <energy>  (46) 
-7.34

>  <cluster_rmsd>  (46) 
0.14

>  <cluster>  (46) 
3

$$$$

     RDKit          3D

 46 49  0  0  0  0  0  0  0  0999 V2000
  140.5590   76.9550  219.1530 O   0  0  0  0  0  0  0  0  0  0  0  0
  141.8130   77.0520  219.1160 C   0  0  0  0  0  0  0  0  0  0  0  0
  142.5060   78.2920  219.1150 N   0  0  0  0  0  0  0  0  0  0  0  0
  141.7860   79.5490  219.1600 C   0  0  0  0  0  0  0  0  0  0  0  0
  140.9650   79.5960  220.4270 C   0  0  0  0  0  0  0  0  0  0  0  0
  139.7310   79.7510  220.2480 O   0  0  0  0  0  0  0  0  0  0  0  0
  141.6360   79.4690  221.6300 N   0  0  0  0  0  0  0  0  0  0  0  0
  142.5900   80.4390  222.2420 C   0  0  0  0  0  0  0  0  0  0  0  0
  141.8910   80.6130  223.5690 C   0  0  0  0  0  0  0  0  0  0  0  0
  141.5210   79.1920  223.9330 C   0  0  0  0  0  0  0  0  0  0  0  0
  141.6410   78.4220  222.6670 C   0  0  1  0  0  0  0  0  0  0  0  0
  140.7400   77.3190  222.4460 C   0  0  0  0  0  0  0  0  0  0  0  0
  141.0850   76.0080  222.1920 C   0  0  0  0  0  0  0  0  0  0  0  0
  140.1670   75.0470  221.9670 N   0  0  0  0  0  0  0  0  0  0  0  0
  138.8400   75.3190  221.9790 C   0  0  0  0  0  0  0  0  0  0  0  0
  138.4870   76.5870  222.2230 N   0  0  0  0  0  0  0  0  0  0  0  0
  139.3620   77.5800  222.4530 C   0  0  0  0  0  0  0  0  0  0  0  0
  142.6210   75.8160  219.0700 C   0  0  0  0  0  0  0  0  0  0  0  0
  142.3480   74.8380  218.1300 C   0  0  0  0  0  0  0  0  0  0  0  0
  143.1000   73.6760  218.0780 C   0  0  0  0  0  0  0  0  0  0  0  0
  144.1330   73.5130  218.9860 C   0  0  0  0  0  0  0  0  0  0  0  0
  144.9120   72.3540  218.9610 C   0  0  0  0  0  0  0  0  0  0  0  0
  145.9450   72.2150  219.8870 C   0  0  0  0  0  0  0  0  0  0  0  0
  146.6700   71.0830  219.8280 F   0  0  0  0  0  0  0  0  0  0  0  0
  146.1970   73.2030  220.8110 C   0  0  0  0  0  0  0  0  0  0  0  0
  145.4140   74.3550  220.8260 C   0  0  0  0  0  0  0  0  0  0  0  0
  144.3850   74.5020  219.9110 C   0  0  0  0  0  0  0  0  0  0  0  0
  143.6350   75.6050  219.9250 N   0  0  0  0  0  0  0  0  0  0  0  0
  143.5640   78.3320  219.0830 H   0  0  0  0  0  0  0  0  0  0  0  0
  142.5010   80.3849  219.1518 H   0  0  0  0  0  0  0  0  0  0  0  0
  141.1258   79.6325  218.2841 H   0  0  0  0  0  0  0  0  0  0  0  0
  143.5991   80.0160  222.3550 H   0  0  0  0  0  0  0  0  0  0  0  0
  142.7753   81.3600  221.6698 H   0  0  0  0  0  0  0  0  0  0  0  0
  142.5652   81.0527  224.3188 H   0  0  0  0  0  0  0  0  0  0  0  0
  141.0276   81.2931  223.5240 H   0  0  0  0  0  0  0  0  0  0  0  0
  142.2113   78.7960  224.6924 H   0  0  0  0  0  0  0  0  0  0  0  0
  140.5092   79.1269  224.3597 H   0  0  0  0  0  0  0  0  0  0  0  0
  142.5620   77.8206  222.6741 H   0  0  0  0  0  0  0  0  0  0  0  0
  142.1507   75.7361  222.1723 H   0  0  0  0  0  0  0  0  0  0  0  0
  138.0891   74.5360  221.7971 H   0  0  0  0  0  0  0  0  0  0  0  0
  138.9972   78.5994  222.6471 H   0  0  0  0  0  0  0  0  0  0  0  0
  141.5244   74.9850  217.4159 H   0  0  0  0  0  0  0  0  0  0  0  0
  142.8813   72.8987  217.3310 H   0  0  0  0  0  0  0  0  0  0  0  0
  144.7137   71.5633  218.2224 H   0  0  0  0  0  0  0  0  0  0  0  0
  147.0152   73.0833  221.5364 H   0  0  0  0  0  0  0  0  0  0  0  0
  145.6127   75.1466  221.5635 H   0  0  0  0  0  0  0  0  0  0  0  0
  1  2  2  0
  2  3  1  0
  3  4  1  0
  4  5  1  0
  5  6  2  0
  5  7  1  0
  7  8  1  0
  8  9  1  0
  9 10  1  0
 10 11  1  0
 11 12  1  0
 12 13  2  0
 13 14  1  0
 14 15  2  0
 15 16  1  0
 16 17  2  0
  2 18  1  0
 18 19  2  0
 19 20  1  0
 20 21  2  0
 21 22  1  0
 22 23  2  0
 23 24  1  0
 23 25  1  0
 25 26  2  0
 26 27  1  0
 27 28  2  0
 11  7  1  0
 17 12  1  0
 28 18  1  0
 27 21  1  0
  3 29  1  0
  4 30  1  0
  4 31  1  0
  8 32  1  0
  8 33  1  0
  9 34  1  0
  9 35  1  0
 10 36  1  0
 10 37  1  0
 11 38  1  1
 13 39  1  0
 15 40  1  0
 17 41  1  0
 19 42  1  0
 20 43  1  0
 22 44  1  0
 25 45  1  0
 26 46  1  0
M  END
>  <smiles>  (47) 
O=C(NCC(=O)N1CCC[C@H]1c1cncnc1)c1ccc2cc(F)ccc2n1

>  <score_type>  (47) 
oracle

>  <origin>  (47) 
autodockgpu

>  <m_score__min__energy>  (47) 
-8.0999999999999996

>  <m_primary>  (47) 
energy

>  <rmsd>  (47) 
7.805265528588921

>  <m_score__min__rmsd>  (47) 
7.805265528588921

>  <meeko>  (47) 
{"free_energy": -6.89, "intermolecular_energy": -8.38, "internal_energy": -2.06, "cluster_size": 3, "cluster_id": 5, "rank_in_cluster": 3}

>  <energy>  (47) 
-7.28

>  <cluster_rmsd>  (47) 
0.0

>  <cluster>  (47) 
4

$$$$

     RDKit          3D

 46 49  0  0  0  0  0  0  0  0999 V2000
  141.0450   71.7550  221.2000 O   0  0  0  0  0  0  0  0  0  0  0  0
  140.4680   72.2680  222.1940 C   0  0  0  0  0  0  0  0  0  0  0  0
  140.0050   73.6120  222.2280 N   0  0  0  0  0  0  0  0  0  0  0  0
  140.1770   74.4880  221.0860 C   0  0  0  0  0  0  0  0  0  0  0  0
  139.7840   75.8920  221.4850 C   0  0  0  0  0  0  0  0  0  0  0  0
  139.5930   76.0540  222.7160 O   0  0  0  0  0  0  0  0  0  0  0  0
  139.6760   76.8360  220.4800 N   0  0  0  0  0  0  0  0  0  0  0  0
  138.9720   76.6910  219.1730 C   0  0  0  0  0  0  0  0  0  0  0  0
  138.0550   77.8840  219.2940 C   0  0  0  0  0  0  0  0  0  0  0  0
  138.9790   78.9540  219.8310 C   0  0  0  0  0  0  0  0  0  0  0  0
  140.1630   78.2210  220.3510 C   0  0  1  0  0  0  0  0  0  0  0  0
  140.8480   78.7520  221.5040 C   0  0  0  0  0  0  0  0  0  0  0  0
  142.2000   78.9970  221.6210 C   0  0  0  0  0  0  0  0  0  0  0  0
  142.7560   79.4680  222.7550 N   0  0  0  0  0  0  0  0  0  0  0  0
  142.0090   79.7320  223.8540 C   0  0  0  0  0  0  0  0  0  0  0  0
  140.6940   79.5000  223.7570 N   0  0  0  0  0  0  0  0  0  0  0  0
  140.0930   79.0300  222.6510 C   0  0  0  0  0  0  0  0  0  0  0  0
  140.2530   71.4410  223.3990 C   0  0  0  0  0  0  0  0  0  0  0  0
  139.5810   70.2350  223.3070 C   0  0  0  0  0  0  0  0  0  0  0  0
  139.3750   69.4530  224.4310 C   0  0  0  0  0  0  0  0  0  0  0  0
  139.8570   69.9010  225.6500 C   0  0  0  0  0  0  0  0  0  0  0  0
  139.6670   69.1360  226.8030 C   0  0  0  0  0  0  0  0  0  0  0  0
  140.1620   69.6110  228.0160 C   0  0  0  0  0  0  0  0  0  0  0  0
  139.9570   68.8430  229.1020 F   0  0  0  0  0  0  0  0  0  0  0  0
  140.8280   70.8130  228.0810 C   0  0  0  0  0  0  0  0  0  0  0  0
  141.0120   71.5670  226.9240 C   0  0  0  0  0  0  0  0  0  0  0  0
  140.5230   71.1040  225.7140 C   0  0  0  0  0  0  0  0  0  0  0  0
  140.6990   71.8260  224.6070 N   0  0  0  0  0  0  0  0  0  0  0  0
  139.5250   74.0080  223.0840 H   0  0  0  0  0  0  0  0  0  0  0  0
  141.2293   74.4756  220.7658 H   0  0  0  0  0  0  0  0  0  0  0  0
  139.5447   74.1453  220.2537 H   0  0  0  0  0  0  0  0  0  0  0  0
  139.6586   76.7784  218.3181 H   0  0  0  0  0  0  0  0  0  0  0  0
  138.4825   75.7224  218.9935 H   0  0  0  0  0  0  0  0  0  0  0  0
  137.6428   78.1695  218.3149 H   0  0  0  0  0  0  0  0  0  0  0  0
  137.1786   77.7004  219.9330 H   0  0  0  0  0  0  0  0  0  0  0  0
  139.2753   79.6459  219.0289 H   0  0  0  0  0  0  0  0  0  0  0  0
  138.4960   79.5610  220.6109 H   0  0  0  0  0  0  0  0  0  0  0  0
  141.0084   78.3228  219.6547 H   0  0  0  0  0  0  0  0  0  0  0  0
  142.8498   78.8005  220.7555 H   0  0  0  0  0  0  0  0  0  0  0  0
  142.4605   80.1178  224.7799 H   0  0  0  0  0  0  0  0  0  0  0  0
  139.0057   78.8631  222.6461 H   0  0  0  0  0  0  0  0  0  0  0  0
  139.2064   69.8939  222.3306 H   0  0  0  0  0  0  0  0  0  0  0  0
  138.8393   68.4951  224.3574 H   0  0  0  0  0  0  0  0  0  0  0  0
  139.1353   68.1743  226.7544 H   0  0  0  0  0  0  0  0  0  0  0  0
  141.2143   71.1779  229.0441 H   0  0  0  0  0  0  0  0  0  0  0  0
  141.5447   72.5282  226.9716 H   0  0  0  0  0  0  0  0  0  0  0  0
  1  2  2  0
  2  3  1  0
  3  4  1  0
  4  5  1  0
  5  6  2  0
  5  7  1  0
  7  8  1  0
  8  9  1  0
  9 10  1  0
 10 11  1  0
 11 12  1  0
 12 13  2  0
 13 14  1  0
 14 15  2  0
 15 16  1  0
 16 17  2  0
  2 18  1  0
 18 19  2  0
 19 20  1  0
 20 21  2  0
 21 22  1  0
 22 23  2  0
 23 24  1  0
 23 25  1  0
 25 26  2  0
 26 27  1  0
 27 28  2  0
 11  7  1  0
 17 12  1  0
 28 18  1  0
 27 21  1  0
  3 29  1  0
  4 30  1  0
  4 31  1  0
  8 32  1  0
  8 33  1  0
  9 34  1  0
  9 35  1  0
 10 36  1  0
 10 37  1  0
 11 38  1  6
 13 39  1  0
 15 40  1  0
 17 41  1  0
 19 42  1  0
 20 43  1  0
 22 44  1  0
 25 45  1  0
 26 46  1  0
M  END
>  <smiles>  (48) 
O=C(NCC(=O)N1CCC[C@H]1c1cncnc1)c1ccc2cc(F)ccc2n1

>  <score_type>  (48) 
oracle

>  <origin>  (48) 
autodockgpu

>  <m_score__min__energy>  (48) 
-8.0999999999999996

>  <m_primary>  (48) 
energy

>  <rmsd>  (48) 
1.8949325325085074

>  <m_score__min__rmsd>  (48) 
1.8949325325085074

>  <meeko>  (48) 
{"free_energy": -7.29, "intermolecular_energy": -8.78, "internal_energy": -1.71, "cluster_size": 20, "cluster_id": 1, "rank_in_cluster": 19}

>  <energy>  (48) 
-6.92

>  <cluster_rmsd>  (48) 
0.0

>  <cluster>  (48) 
5

$$$$

     RDKit          3D

 46 49  0  0  0  0  0  0  0  0999 V2000
  141.0070   71.7630  221.1940 O   0  0  0  0  0  0  0  0  0  0  0  0
  140.4520   72.2860  222.1950 C   0  0  0  0  0  0  0  0  0  0  0  0
  140.0230   73.6410  222.2380 N   0  0  0  0  0  0  0  0  0  0  0  0
  140.2060   74.5170  221.0990 C   0  0  0  0  0  0  0  0  0  0  0  0
  140.5460   75.9030  221.5990 C   0  0  0  0  0  0  0  0  0  0  0  0
  139.9780   76.2280  222.6710 O   0  0  0  0  0  0  0  0  0  0  0  0
  141.4240   76.6570  220.8430 N   0  0  0  0  0  0  0  0  0  0  0  0
  142.2490   76.2010  219.6870 C   0  0  0  0  0  0  0  0  0  0  0  0
  141.7660   77.2090  218.6730 C   0  0  0  0  0  0  0  0  0  0  0  0
  141.7640   78.4970  219.4670 C   0  0  0  0  0  0  0  0  0  0  0  0
  141.8220   78.0760  220.8910 C   0  0  1  0  0  0  0  0  0  0  0  0
  141.1430   78.8820  221.8740 C   0  0  0  0  0  0  0  0  0  0  0  0
  139.8020   79.2070  221.8940 C   0  0  0  0  0  0  0  0  0  0  0  0
  139.2620   79.9960  222.8440 N   0  0  0  0  0  0  0  0  0  0  0  0
  140.0130   80.5200  223.8420 C   0  0  0  0  0  0  0  0  0  0  0  0
  141.3160   80.2150  223.8370 N   0  0  0  0  0  0  0  0  0  0  0  0
  141.9030   79.4350  222.9150 C   0  0  0  0  0  0  0  0  0  0  0  0
  140.2290   71.4590  223.3990 C   0  0  0  0  0  0  0  0  0  0  0  0
  139.5560   70.2540  223.3020 C   0  0  0  0  0  0  0  0  0  0  0  0
  139.3410   69.4720  224.4250 C   0  0  0  0  0  0  0  0  0  0  0  0
  139.8150   69.9200  225.6470 C   0  0  0  0  0  0  0  0  0  0  0  0
  139.6160   69.1550  226.7990 C   0  0  0  0  0  0  0  0  0  0  0  0
  140.1020   69.6300  228.0160 C   0  0  0  0  0  0  0  0  0  0  0  0
  139.8890   68.8630  229.1000 F   0  0  0  0  0  0  0  0  0  0  0  0
  140.7690   70.8320  228.0850 C   0  0  0  0  0  0  0  0  0  0  0  0
  140.9620   71.5860  226.9300 C   0  0  0  0  0  0  0  0  0  0  0  0
  140.4820   71.1230  225.7160 C   0  0  0  0  0  0  0  0  0  0  0  0
  140.6660   71.8440  224.6090 N   0  0  0  0  0  0  0  0  0  0  0  0
  139.5610   74.0440  223.1010 H   0  0  0  0  0  0  0  0  0  0  0  0
  141.0259   74.1394  220.4703 H   0  0  0  0  0  0  0  0  0  0  0  0
  139.2826   74.5514  220.5022 H   0  0  0  0  0  0  0  0  0  0  0  0
  143.3275   76.2917  219.8834 H   0  0  0  0  0  0  0  0  0  0  0  0
  142.1415   75.1432  219.4049 H   0  0  0  0  0  0  0  0  0  0  0  0
  142.4529   77.2713  217.8161 H   0  0  0  0  0  0  0  0  0  0  0  0
  140.7864   76.9598  218.2392 H   0  0  0  0  0  0  0  0  0  0  0  0
  142.6403   79.1102  219.2099 H   0  0  0  0  0  0  0  0  0  0  0  0
  140.8754   79.1097  219.2549 H   0  0  0  0  0  0  0  0  0  0  0  0
  142.8346   78.2314  221.2917 H   0  0  0  0  0  0  0  0  0  0  0  0
  139.1489   78.8069  221.1045 H   0  0  0  0  0  0  0  0  0  0  0  0
  139.5738   81.1642  224.6179 H   0  0  0  0  0  0  0  0  0  0  0  0
  142.9819   79.2294  222.9763 H   0  0  0  0  0  0  0  0  0  0  0  0
  139.1879   69.9134  222.3230 H   0  0  0  0  0  0  0  0  0  0  0  0
  138.8047   68.5147  224.3479 H   0  0  0  0  0  0  0  0  0  0  0  0
  139.0844   68.1934  226.7464 H   0  0  0  0  0  0  0  0  0  0  0  0
  141.1490   71.1965  229.0508 H   0  0  0  0  0  0  0  0  0  0  0  0
  141.4945   72.5471  226.9818 H   0  0  0  0  0  0  0  0  0  0  0  0
  1  2  2  0
  2  3  1  0
  3  4  1  0
  4  5  1  0
  5  6  2  0
  5  7  1  0
  7  8  1  0
  8  9  1  0
  9 10  1  0
 10 11  1  0
 11 12  1  0
 12 13  2  0
 13 14  1  0
 14 15  2  0
 15 16  1  0
 16 17  2  0
  2 18  1  0
 18 19  2  0
 19 20  1  0
 20 21  2  0
 21 22  1  0
 22 23  2  0
 23 24  1  0
 23 25  1  0
 25 26  2  0
 26 27  1  0
 27 28  2  0
 11  7  1  0
 17 12  1  0
 28 18  1  0
 27 21  1  0
  3 29  1  0
  4 30  1  0
  4 31  1  0
  8 32  1  0
  8 33  1  0
  9 34  1  0
  9 35  1  0
 10 36  1  0
 10 37  1  0
 11 38  1  1
 13 39  1  0
 15 40  1  0
 17 41  1  0
 19 42  1  0
 20 43  1  0
 22 44  1  0
 25 45  1  0
 26 46  1  0
M  END
>  <smiles>  (49) 
O=C(NCC(=O)N1CCC[C@H]1c1cncnc1)c1ccc2cc(F)ccc2n1

>  <score_type>  (49) 
oracle

>  <origin>  (49) 
autodockgpu

>  <m_score__min__energy>  (49) 
-8.0999999999999996

>  <m_primary>  (49) 
energy

>  <rmsd>  (49) 
2.0009358892070526

>  <m_score__min__rmsd>  (49) 
2.0009358892070526

>  <meeko>  (49) 
{"free_energy": -8.01, "intermolecular_energy": -9.5, "internal_energy": -1.64, "cluster_size": 20, "cluster_id": 1, "rank_in_cluster": 4}

>  <energy>  (49) 
-6.92

>  <cluster_rmsd>  (49) 
0.12

>  <cluster>  (49) 
5

$$$$

     RDKit          3D

 46 49  0  0  0  0  0  0  0  0999 V2000
  139.9640   71.2200  220.9170 O   0  0  0  0  0  0  0  0  0  0  0  0
  139.8310   71.8380  222.0040 C   0  0  0  0  0  0  0  0  0  0  0  0
  139.6960   73.2510  222.0940 N   0  0  0  0  0  0  0  0  0  0  0  0
  139.7020   74.0770  220.9040 C   0  0  0  0  0  0  0  0  0  0  0  0
  140.4730   75.3440  221.1950 C   0  0  0  0  0  0  0  0  0  0  0  0
  140.4860   75.6870  222.4030 O   0  0  0  0  0  0  0  0  0  0  0  0
  141.0730   75.9870  220.1260 N   0  0  0  0  0  0  0  0  0  0  0  0
  140.5920   77.2080  219.4180 C   0  0  0  0  0  0  0  0  0  0  0  0
  141.8320   78.0530  219.5880 C   0  0  0  0  0  0  0  0  0  0  0  0
  142.9410   77.0720  219.2750 C   0  0  0  0  0  0  0  0  0  0  0  0
  142.3120   75.7290  219.3710 C   0  0  1  0  0  0  0  0  0  0  0  0
  143.1130   74.6270  219.8430 C   0  0  0  0  0  0  0  0  0  0  0  0
  142.7110   73.3160  219.9890 C   0  0  0  0  0  0  0  0  0  0  0  0
  143.5270   72.3560  220.4680 N   0  0  0  0  0  0  0  0  0  0  0  0
  144.8020   72.6290  220.8370 C   0  0  0  0  0  0  0  0  0  0  0  0
  145.2080   73.8980  220.7020 N   0  0  0  0  0  0  0  0  0  0  0  0
  144.4350   74.8890  220.2300 C   0  0  0  0  0  0  0  0  0  0  0  0
  139.8150   71.0680  223.2650 C   0  0  0  0  0  0  0  0  0  0  0  0
  139.2640   69.7990  223.3000 C   0  0  0  0  0  0  0  0  0  0  0  0
  139.2440   69.0700  224.4770 C   0  0  0  0  0  0  0  0  0  0  0  0
  139.7870   69.6350  225.6190 C   0  0  0  0  0  0  0  0  0  0  0  0
  139.7830   68.9260  226.8230 C   0  0  0  0  0  0  0  0  0  0  0  0
  140.3360   69.5190  227.9560 C   0  0  0  0  0  0  0  0  0  0  0  0
  140.3110   68.8020  229.0940 F   0  0  0  0  0  0  0  0  0  0  0  0
  140.8780   70.7820  227.8950 C   0  0  0  0  0  0  0  0  0  0  0  0
  140.8770   71.4800  226.6890 C   0  0  0  0  0  0  0  0  0  0  0  0
  140.3290   70.8990  225.5570 C   0  0  0  0  0  0  0  0  0  0  0  0
  140.3270   71.5670  224.4020 N   0  0  0  0  0  0  0  0  0  0  0  0
  139.5870   73.7350  223.0290 H   0  0  0  0  0  0  0  0  0  0  0  0
  140.1835   73.5325  220.0783 H   0  0  0  0  0  0  0  0  0  0  0  0
  138.6698   74.3252  220.6159 H   0  0  0  0  0  0  0  0  0  0  0  0
  140.3628   77.0128  218.3600 H   0  0  0  0  0  0  0  0  0  0  0  0
  139.6550   77.6455  219.7931 H   0  0  0  0  0  0  0  0  0  0  0  0
  141.8374   78.8975  218.8832 H   0  0  0  0  0  0  0  0  0  0  0  0
  141.9185   78.5099  220.5849 H   0  0  0  0  0  0  0  0  0  0  0  0
  143.3325   77.2430  218.2613 H   0  0  0  0  0  0  0  0  0  0  0  0
  143.7908   77.1782  219.9654 H   0  0  0  0  0  0  0  0  0  0  0  0
  142.1329   75.3210  218.3653 H   0  0  0  0  0  0  0  0  0  0  0  0
  141.6844   73.0430  219.7034 H   0  0  0  0  0  0  0  0  0  0  0  0
  145.4701   71.8474  221.2279 H   0  0  0  0  0  0  0  0  0  0  0  0
  144.8395   75.9085  220.1467 H   0  0  0  0  0  0  0  0  0  0  0  0
  138.8376   69.3651  222.3835 H   0  0  0  0  0  0  0  0  0  0  0  0
  138.8053   68.0616  224.5045 H   0  0  0  0  0  0  0  0  0  0  0  0
  139.3503   67.9161  226.8755 H   0  0  0  0  0  0  0  0  0  0  0  0
  141.3113   71.2399  228.7964 H   0  0  0  0  0  0  0  0  0  0  0  0
  141.3102   72.4897  226.6359 H   0  0  0  0  0  0  0  0  0  0  0  0
  1  2  2  0
  2  3  1  0
  3  4  1  0
  4  5  1  0
  5  6  2  0
  5  7  1  0
  7  8  1  0
  8  9  1  0
  9 10  1  0
 10 11  1  0
 11 12  1  0
 12 13  2  0
 13 14  1  0
 14 15  2  0
 15 16  1  0
 16 17  2  0
  2 18  1  0
 18 19  2  0
 19 20  1  0
 20 21  2  0
 21 22  1  0
 22 23  2  0
 23 24  1  0
 23 25  1  0
 25 26  2  0
 26 27  1  0
 27 28  2  0
 11  7  1  0
 17 12  1  0
 28 18  1  0
 27 21  1  0
  3 29  1  0
  4 30  1  0
  4 31  1  0
  8 32  1  0
  8 33  1  0
  9 34  1  0
  9 35  1  0
 10 36  1  0
 10 37  1  0
 11 38  1  6
 13 39  1  0
 15 40  1  0
 17 41  1  0
 19 42  1  0
 20 43  1  0
 22 44  1  0
 25 45  1  0
 26 46  1  0
M  END
>  <smiles>  (50) 
O=C(NCC(=O)N1CCC[C@H]1c1cncnc1)c1ccc2cc(F)ccc2n1

>  <score_type>  (50) 
oracle

>  <origin>  (50) 
autodockgpu

>  <m_score__min__energy>  (50) 
-8.0999999999999996

>  <m_primary>  (50) 
energy

>  <rmsd>  (50) 
1.8320712229961922

>  <m_score__min__rmsd>  (50) 
1.8320712229961922

>  <meeko>  (50) 
{"free_energy": -7.58, "intermolecular_energy": -9.07, "internal_energy": -1.96, "cluster_size": 24, "cluster_id": 2, "rank_in_cluster": 13}

>  <energy>  (50) 
-6.89

>  <cluster_rmsd>  (50) 
0.05

>  <cluster>  (50) 
5

$$$$
