
     RDKit          3D

 49 52  0  0  0  0  0  0  0  0999 V2000
  145.9560   73.4250  218.1740 N   0  0  0  0  0  0  0  0  0  0  0  0
  145.8300   72.7780  219.7800 S   0  0  0  0  0  0  0  0  0  0  0  0
  146.5750   73.6350  220.7600 O   0  0  0  0  0  0  0  0  0  0  0  0
  146.4730   71.4210  219.7810 O   0  0  0  0  0  0  0  0  0  0  0  0
  144.1580   72.7230  220.2180 C   0  0  0  0  0  0  0  0  0  0  0  0
  143.2700   73.7470  219.9780 C   0  0  0  0  0  0  0  0  0  0  0  0
  141.9360   73.6650  220.3440 C   0  0  0  0  0  0  0  0  0  0  0  0
  141.4360   72.5590  220.9640 C   0  0  0  0  0  0  0  0  0  0  0  0
  140.0480   72.3980  221.3790 C   0  0  0  0  0  0  0  0  0  0  0  0
  139.6270   72.6190  222.6160 C   0  0  0  0  0  0  0  0  0  0  0  0
  139.7110   71.5490  223.6230 C   0  0  0  0  0  0  0  0  0  0  0  0
  140.3120   71.8770  224.7800 N   0  0  0  0  0  0  0  0  0  0  0  0
  140.4340   71.0020  225.7930 C   0  0  0  0  0  0  0  0  0  0  0  0
  141.0560   71.3870  226.9550 C   0  0  0  0  0  0  0  0  0  0  0  0
  141.1620   70.4650  227.9700 C   0  0  0  0  0  0  0  0  0  0  0  0
  140.6440   69.1930  227.7860 C   0  0  0  0  0  0  0  0  0  0  0  0
  140.7620   68.3090  228.7990 F   0  0  0  0  0  0  0  0  0  0  0  0
  140.0170   68.8270  226.5990 C   0  0  0  0  0  0  0  0  0  0  0  0
  139.9100   69.7430  225.5840 C   0  0  0  0  0  0  0  0  0  0  0  0
  139.2930   69.4280  224.3750 C   0  0  0  0  0  0  0  0  0  0  0  0
  138.8470   68.2580  224.2840 O   0  0  0  0  0  0  0  0  0  0  0  0
  139.1870   70.3380  223.3710 N   0  0  0  0  0  0  0  0  0  0  0  0
  138.5420   69.9700  222.1380 C   0  0  0  0  0  0  0  0  0  0  0  0
  139.2510   68.9230  221.3600 C   0  0  0  0  0  0  0  0  0  0  0  0
  140.2510   69.1600  220.4530 C   0  0  0  0  0  0  0  0  0  0  0  0
  140.8750   68.1370  219.7490 C   0  0  0  0  0  0  0  0  0  0  0  0
  140.5070   66.8220  219.9360 C   0  0  0  0  0  0  0  0  0  0  0  0
  139.5140   66.5640  220.8330 C   0  0  0  0  0  0  0  0  0  0  0  0
  138.8920   67.5810  221.5350 C   0  0  0  0  0  0  0  0  0  0  0  0
  142.3390   71.5210  221.2070 C   0  0  0  0  0  0  0  0  0  0  0  0
  143.6630   71.6000  220.8440 C   0  0  0  0  0  0  0  0  0  0  0  0
  145.2490   72.9090  217.5830 H   0  0  0  0  0  0  0  0  0  0  0  0
  145.6670   74.4290  218.1580 H   0  0  0  0  0  0  0  0  0  0  0  0
  143.6307   74.6591  219.4800 H   0  0  0  0  0  0  0  0  0  0  0  0
  141.2662   74.5108  220.1295 H   0  0  0  0  0  0  0  0  0  0  0  0
  139.3124   72.0766  220.6270 H   0  0  0  0  0  0  0  0  0  0  0  0
  139.2151   73.6015  222.8899 H   0  0  0  0  0  0  0  0  0  0  0  0
  141.4582   72.4043  227.0708 H   0  0  0  0  0  0  0  0  0  0  0  0
  141.6524   70.7343  228.9171 H   0  0  0  0  0  0  0  0  0  0  0  0
  139.6108   67.8122  226.4759 H   0  0  0  0  0  0  0  0  0  0  0  0
  137.5343   69.5983  222.3752 H   0  0  0  0  0  0  0  0  0  0  0  0
  138.5311   70.8727  221.5095 H   0  0  0  0  0  0  0  0  0  0  0  0
  140.5712   70.1974  220.2759 H   0  0  0  0  0  0  0  0  0  0  0  0
  141.6736   68.3802  219.0327 H   0  0  0  0  0  0  0  0  0  0  0  0
  140.9977   66.0091  219.3806 H   0  0  0  0  0  0  0  0  0  0  0  0
  139.1999   65.5235  221.0027 H   0  0  0  0  0  0  0  0  0  0  0  0
  138.0945   67.3287  222.2494 H   0  0  0  0  0  0  0  0  0  0  0  0
  141.9785   70.6093  221.7058 H   0  0  0  0  0  0  0  0  0  0  0  0
  144.3355   70.7557  221.0561 H   0  0  0  0  0  0  0  0  0  0  0  0
  1  2  1  0
  2  3  2  0
  2  4  2  0
  2  5  1  0
  5  6  2  0
  6  7  1  0
  7  8  2  0
  8  9  1  0
  9 10  2  0
 10 11  1  0
 11 12  2  0
 12 13  1  0
 13 14  2  0
 14 15  1  0
 15 16  2  0
 16 17  1  0
 16 18  1  0
 18 19  2  0
 19 20  1  0
 20 21  2  0
 20 22  1  0
 22 23  1  0
 23 24  1  0
 24 25  2  0
 25 26  1  0
 26 27  2  0
 27 28  1  0
 28 29  2  0
  8 30  1  0
 30 31  2  0
 31  5  1  0
 22 11  1  0
 29 24  1  0
 19 13  1  0
  1 32  1  0
  1 33  1  0
  6 34  1  0
  7 35  1  0
  9 36  1  0
 10 37  1  0
 14 38  1  0
 15 39  1  0
 18 40  1  0
 23 41  1  0
 23 42  1  0
 25 43  1  0
 26 44  1  0
 27 45  1  0
 28 46  1  0
 29 47  1  0
 30 48  1  0
 31 49  1  0
M  END
>  <smiles>  (1) 
NS(=O)(=O)c1ccc(/C=C/c2nc3ccc(F)cc3c(=O)n2Cc2ccccc2)cc1

>  <score_type>  (1) 
oracle

>  <origin>  (1) 
autodockgpu

>  <m_score__min__energy>  (1) 
-9.2599999999999998

>  <m_primary>  (1) 
energy

>  <rmsd>  (1) 
12.284694026916053

>  <m_score__min__rmsd>  (1) 
12.284694026916053

>  <meeko>  (1) 
{"free_energy": -8.4, "intermolecular_energy": -10.48, "internal_energy": -1.44, "cluster_size": 15, "cluster_id": 3, "rank_in_cluster": 10}

>  <energy>  (1) 
-9.26

>  <cluster_rmsd>  (1) 
0.0

>  <cluster>  (1) 
1

$$$$

     RDKit          3D

 49 52  0  0  0  0  0  0  0  0999 V2000
  132.8450   74.4570  227.4130 N   0  0  0  0  0  0  0  0  0  0  0  0
  133.3570   73.1800  226.3540 S   0  0  0  0  0  0  0  0  0  0  0  0
  132.1810   72.5600  225.6590 O   0  0  0  0  0  0  0  0  0  0  0  0
  134.0020   72.1160  227.1950 O   0  0  0  0  0  0  0  0  0  0  0  0
  134.4370   73.8440  225.1780 C   0  0  0  0  0  0  0  0  0  0  0  0
  134.9990   73.1130  224.1560 C   0  0  0  0  0  0  0  0  0  0  0  0
  135.8600   73.6820  223.2310 C   0  0  0  0  0  0  0  0  0  0  0  0
  136.1950   75.0010  223.2900 C   0  0  0  0  0  0  0  0  0  0  0  0
  137.0920   75.6710  222.3570 C   0  0  0  0  0  0  0  0  0  0  0  0
  138.2550   76.1960  222.7140 C   0  0  0  0  0  0  0  0  0  0  0  0
  139.4990   75.7170  222.0900 C   0  0  0  0  0  0  0  0  0  0  0  0
  139.7350   74.3970  222.1860 N   0  0  0  0  0  0  0  0  0  0  0  0
  140.8210   73.8250  221.6390 C   0  0  0  0  0  0  0  0  0  0  0  0
  141.0150   72.4710  221.7650 C   0  0  0  0  0  0  0  0  0  0  0  0
  142.1380   71.9210  221.1920 C   0  0  0  0  0  0  0  0  0  0  0  0
  143.0250   72.7440  220.5150 C   0  0  0  0  0  0  0  0  0  0  0  0
  144.1180   72.1760  219.9630 F   0  0  0  0  0  0  0  0  0  0  0  0
  142.8060   74.1120  220.4010 C   0  0  0  0  0  0  0  0  0  0  0  0
  141.6870   74.6660  220.9710 C   0  0  0  0  0  0  0  0  0  0  0  0
  141.4210   76.0300  220.8880 C   0  0  0  0  0  0  0  0  0  0  0  0
  142.2700   76.7090  220.2580 O   0  0  0  0  0  0  0  0  0  0  0  0
  140.3120   76.5760  221.4530 N   0  0  0  0  0  0  0  0  0  0  0  0
  140.0770   77.9910  221.3420 C   0  0  0  0  0  0  0  0  0  0  0  0
  140.9810   78.8340  222.1640 C   0  0  0  0  0  0  0  0  0  0  0  0
  141.2360   78.6430  223.4970 C   0  0  0  0  0  0  0  0  0  0  0  0
  142.0910   79.4700  224.2170 C   0  0  0  0  0  0  0  0  0  0  0  0
  142.7240   80.5330  223.6110 C   0  0  0  0  0  0  0  0  0  0  0  0
  142.4840   80.7410  222.2850 C   0  0  0  0  0  0  0  0  0  0  0  0
  141.6350   79.9190  221.5680 C   0  0  0  0  0  0  0  0  0  0  0  0
  135.6240   75.7420  224.3290 C   0  0  0  0  0  0  0  0  0  0  0  0
  134.7680   75.1790  225.2470 C   0  0  0  0  0  0  0  0  0  0  0  0
  131.8860   74.7560  227.0860 H   0  0  0  0  0  0  0  0  0  0  0  0
  132.7190   74.0990  228.3860 H   0  0  0  0  0  0  0  0  0  0  0  0
  134.7571   72.0433  224.0708 H   0  0  0  0  0  0  0  0  0  0  0  0
  136.2820   73.0549  222.4319 H   0  0  0  0  0  0  0  0  0  0  0  0
  136.7880   75.7446  221.3024 H   0  0  0  0  0  0  0  0  0  0  0  0
  138.2908   76.9888  223.4757 H   0  0  0  0  0  0  0  0  0  0  0  0
  140.2927   71.8443  222.3087 H   0  0  0  0  0  0  0  0  0  0  0  0
  142.3302   70.8407  221.2700 H   0  0  0  0  0  0  0  0  0  0  0  0
  143.5235   74.7452  219.8585 H   0  0  0  0  0  0  0  0  0  0  0  0
  140.2043   78.2783  220.2878 H   0  0  0  0  0  0  0  0  0  0  0  0
  139.0584   78.1682  221.7176 H   0  0  0  0  0  0  0  0  0  0  0  0
  140.7467   77.8055  224.0158 H   0  0  0  0  0  0  0  0  0  0  0  0
  142.2644   79.2728  225.2852 H   0  0  0  0  0  0  0  0  0  0  0  0
  143.3996   81.1911  224.1772 H   0  0  0  0  0  0  0  0  0  0  0  0
  142.9769   81.5815  221.7746 H   0  0  0  0  0  0  0  0  0  0  0  0
  141.4686   80.1229  220.4999 H   0  0  0  0  0  0  0  0  0  0  0  0
  135.8674   76.8112  224.4153 H   0  0  0  0  0  0  0  0  0  0  0  0
  134.3424   75.8032  226.0465 H   0  0  0  0  0  0  0  0  0  0  0  0
  1  2  1  0
  2  3  2  0
  2  4  2  0
  2  5  1  0
  5  6  2  0
  6  7  1  0
  7  8  2  0
  8  9  1  0
  9 10  2  0
 10 11  1  0
 11 12  2  0
 12 13  1  0
 13 14  2  0
 14 15  1  0
 15 16  2  0
 16 17  1  0
 16 18  1  0
 18 19  2  0
 19 20  1  0
 20 21  2  0
 20 22  1  0
 22 23  1  0
 23 24  1  0
 24 25  2  0
 25 26  1  0
 26 27  2  0
 27 28  1  0
 28 29  2  0
  8 30  1  0
 30 31  2  0
 31  5  1  0
 22 11  1  0
 29 24  1  0
 19 13  1  0
  1 32  1  0
  1 33  1  0
  6 34  1  0
  7 35  1  0
  9 36  1  0
 10 37  1  0
 14 38  1  0
 15 39  1  0
 18 40  1  0
 23 41  1  0
 23 42  1  0
 25 43  1  0
 26 44  1  0
 27 45  1  0
 28 46  1  0
 29 47  1  0
 30 48  1  0
 31 49  1  0
M  END
>  <smiles>  (2) 
NS(=O)(=O)c1ccc(/C=C/c2nc3ccc(F)cc3c(=O)n2Cc2ccccc2)cc1

>  <score_type>  (2) 
oracle

>  <origin>  (2) 
autodockgpu

>  <m_score__min__energy>  (2) 
-9.2599999999999998

>  <m_primary>  (2) 
energy

>  <rmsd>  (2) 
4.066992081451935

>  <m_score__min__rmsd>  (2) 
4.066992081451935

>  <meeko>  (2) 
{"free_energy": -8.36, "intermolecular_energy": -10.45, "internal_energy": -1.21, "cluster_size": 2, "cluster_id": 6, "rank_in_cluster": 2}

>  <energy>  (2) 
-9.14

>  <cluster_rmsd>  (2) 
0.43

>  <cluster>  (2) 
1

$$$$

     RDKit          3D

 49 52  0  0  0  0  0  0  0  0999 V2000
  145.9370   73.3910  218.3070 N   0  0  0  0  0  0  0  0  0  0  0  0
  145.8450   72.6030  219.8510 S   0  0  0  0  0  0  0  0  0  0  0  0
  146.6120   73.3690  220.8880 O   0  0  0  0  0  0  0  0  0  0  0  0
  146.4860   71.2510  219.7170 O   0  0  0  0  0  0  0  0  0  0  0  0
  144.1830   72.5080  220.3180 C   0  0  0  0  0  0  0  0  0  0  0  0
  143.4440   73.5900  220.7410 C   0  0  0  0  0  0  0  0  0  0  0  0
  142.1120   73.4740  221.1070 C   0  0  0  0  0  0  0  0  0  0  0  0
  141.4660   72.2750  221.0670 C   0  0  0  0  0  0  0  0  0  0  0  0
  140.0710   72.0720  221.4350 C   0  0  0  0  0  0  0  0  0  0  0  0
  139.5900   72.3380  222.6410 C   0  0  0  0  0  0  0  0  0  0  0  0
  138.5870   71.4460  223.2440 C   0  0  0  0  0  0  0  0  0  0  0  0
  137.3070   71.6920  222.9150 N   0  0  0  0  0  0  0  0  0  0  0  0
  136.2940   70.9390  223.3760 C   0  0  0  0  0  0  0  0  0  0  0  0
  135.0040   71.2320  223.0080 C   0  0  0  0  0  0  0  0  0  0  0  0
  133.9940   70.4390  223.5000 C   0  0  0  0  0  0  0  0  0  0  0  0
  134.3090   69.3830  224.3400 C   0  0  0  0  0  0  0  0  0  0  0  0
  133.2970   68.6210  224.8060 F   0  0  0  0  0  0  0  0  0  0  0  0
  135.6250   69.1050  224.6970 C   0  0  0  0  0  0  0  0  0  0  0  0
  136.6360   69.8940  224.2100 C   0  0  0  0  0  0  0  0  0  0  0  0
  137.9690   69.6610  224.5370 C   0  0  0  0  0  0  0  0  0  0  0  0
  138.1770   68.6860  225.3010 O   0  0  0  0  0  0  0  0  0  0  0  0
  138.9700   70.4430  224.0530 N   0  0  0  0  0  0  0  0  0  0  0  0
  140.3340   70.1660  224.4170 C   0  0  0  0  0  0  0  0  0  0  0  0
  140.6980   70.5700  225.7980 C   0  0  0  0  0  0  0  0  0  0  0  0
  140.6670   69.7460  226.8930 C   0  0  0  0  0  0  0  0  0  0  0  0
  141.0150   70.1850  228.1650 C   0  0  0  0  0  0  0  0  0  0  0  0
  141.4110   71.4880  228.3800 C   0  0  0  0  0  0  0  0  0  0  0  0
  141.4490   72.3240  227.3050 C   0  0  0  0  0  0  0  0  0  0  0  0
  141.1030   71.8890  226.0390 C   0  0  0  0  0  0  0  0  0  0  0  0
  142.2180   71.1780  220.6380 C   0  0  0  0  0  0  0  0  0  0  0  0
  143.5400   71.2910  220.2730 C   0  0  0  0  0  0  0  0  0  0  0  0
  145.1910   74.1390  218.3030 H   0  0  0  0  0  0  0  0  0  0  0  0
  146.8480   73.8930  218.2040 H   0  0  0  0  0  0  0  0  0  0  0  0
  143.9258   74.5777  220.7901 H   0  0  0  0  0  0  0  0  0  0  0  0
  141.5647   74.3693  221.4369 H   0  0  0  0  0  0  0  0  0  0  0  0
  139.3821   71.6780  220.6733 H   0  0  0  0  0  0  0  0  0  0  0  0
  139.9401   73.2243  223.1904 H   0  0  0  0  0  0  0  0  0  0  0  0
  134.7847   72.0770  222.3387 H   0  0  0  0  0  0  0  0  0  0  0  0
  132.9470   70.6409  223.2296 H   0  0  0  0  0  0  0  0  0  0  0  0
  135.8525   68.2602  225.3637 H   0  0  0  0  0  0  0  0  0  0  0  0
  140.5020   69.0832  224.3205 H   0  0  0  0  0  0  0  0  0  0  0  0
  140.9648   70.7618  223.7409 H   0  0  0  0  0  0  0  0  0  0  0  0
  140.3554   68.6994  226.7602 H   0  0  0  0  0  0  0  0  0  0  0  0
  140.9739   69.4836  229.0113 H   0  0  0  0  0  0  0  0  0  0  0  0
  141.6867   71.8404  229.3849 H   0  0  0  0  0  0  0  0  0  0  0  0
  141.7621   73.3688  227.4474 H   0  0  0  0  0  0  0  0  0  0  0  0
  141.1469   72.5976  225.1988 H   0  0  0  0  0  0  0  0  0  0  0  0
  141.7366   70.1901  220.5905 H   0  0  0  0  0  0  0  0  0  0  0  0
  144.0900   70.3981  219.9411 H   0  0  0  0  0  0  0  0  0  0  0  0
  1  2  1  0
  2  3  2  0
  2  4  2  0
  2  5  1  0
  5  6  2  0
  6  7  1  0
  7  8  2  0
  8  9  1  0
  9 10  2  0
 10 11  1  0
 11 12  2  0
 12 13  1  0
 13 14  2  0
 14 15  1  0
 15 16  2  0
 16 17  1  0
 16 18  1  0
 18 19  2  0
 19 20  1  0
 20 21  2  0
 20 22  1  0
 22 23  1  0
 23 24  1  0
 24 25  2  0
 25 26  1  0
 26 27  2  0
 27 28  1  0
 28 29  2  0
  8 30  1  0
 30 31  2  0
 31  5  1  0
 22 11  1  0
 29 24  1  0
 19 13  1  0
  1 32  1  0
  1 33  1  0
  6 34  1  0
  7 35  1  0
  9 36  1  0
 10 37  1  0
 14 38  1  0
 15 39  1  0
 18 40  1  0
 23 41  1  0
 23 42  1  0
 25 43  1  0
 26 44  1  0
 27 45  1  0
 28 46  1  0
 29 47  1  0
 30 48  1  0
 31 49  1  0
M  END
>  <smiles>  (3) 
NS(=O)(=O)c1ccc(/C=C/c2nc3ccc(F)cc3c(=O)n2Cc2ccccc2)cc1

>  <score_type>  (3) 
oracle

>  <origin>  (3) 
autodockgpu

>  <m_score__min__energy>  (3) 
-9.2599999999999998

>  <m_primary>  (3) 
energy

>  <rmsd>  (3) 
10.804376787429453

>  <m_score__min__rmsd>  (3) 
10.804376787429453

>  <meeko>  (3) 
{"free_energy": -8.77, "intermolecular_energy": -10.86, "internal_energy": -1.3, "cluster_size": 3, "cluster_id": 4, "rank_in_cluster": 1}

>  <energy>  (3) 
-9.12

>  <cluster_rmsd>  (3) 
0.34

>  <cluster>  (3) 
1

$$$$

     RDKit          3D

 49 52  0  0  0  0  0  0  0  0999 V2000
  139.1670   67.0710  226.4190 N   0  0  0  0  0  0  0  0  0  0  0  0
  140.3110   68.3180  226.8080 S   0  0  0  0  0  0  0  0  0  0  0  0
  141.7110   67.7810  226.7920 O   0  0  0  0  0  0  0  0  0  0  0  0
  140.0200   68.7910  228.2030 O   0  0  0  0  0  0  0  0  0  0  0  0
  140.1640   69.5790  225.6340 C   0  0  0  0  0  0  0  0  0  0  0  0
  140.8380   70.7780  225.7100 C   0  0  0  0  0  0  0  0  0  0  0  0
  140.6950   71.7650  224.7480 C   0  0  0  0  0  0  0  0  0  0  0  0
  139.8750   71.5960  223.6730 C   0  0  0  0  0  0  0  0  0  0  0  0
  139.6720   72.5840  222.6220 C   0  0  0  0  0  0  0  0  0  0  0  0
  140.5900   72.8820  221.7140 C   0  0  0  0  0  0  0  0  0  0  0  0
  140.8330   74.2870  221.3490 C   0  0  0  0  0  0  0  0  0  0  0  0
  140.2200   75.2070  222.1130 N   0  0  0  0  0  0  0  0  0  0  0  0
  140.3750   76.5260  221.9040 C   0  0  0  0  0  0  0  0  0  0  0  0
  139.7270   77.4260  222.7150 C   0  0  0  0  0  0  0  0  0  0  0  0
  139.9110   78.7670  222.4710 C   0  0  0  0  0  0  0  0  0  0  0  0
  140.7330   79.1590  221.4270 C   0  0  0  0  0  0  0  0  0  0  0  0
  140.8940   80.4820  221.2120 F   0  0  0  0  0  0  0  0  0  0  0  0
  141.3790   78.2280  220.6200 C   0  0  0  0  0  0  0  0  0  0  0  0
  141.1990   76.8890  220.8590 C   0  0  0  0  0  0  0  0  0  0  0  0
  141.8210   75.9170  220.0810 C   0  0  0  0  0  0  0  0  0  0  0  0
  142.5510   76.3490  219.1550 O   0  0  0  0  0  0  0  0  0  0  0  0
  141.6420   74.5900  220.3200 N   0  0  0  0  0  0  0  0  0  0  0  0
  142.3040   73.6190  219.4900 C   0  0  0  0  0  0  0  0  0  0  0  0
  143.6980   73.3090  219.8960 C   0  0  0  0  0  0  0  0  0  0  0  0
  144.4550   74.0670  220.7520 C   0  0  0  0  0  0  0  0  0  0  0  0
  145.7600   73.7270  221.0910 C   0  0  0  0  0  0  0  0  0  0  0  0
  146.3550   72.5980  220.5720 C   0  0  0  0  0  0  0  0  0  0  0  0
  145.6200   71.8300  219.7190 C   0  0  0  0  0  0  0  0  0  0  0  0
  144.3220   72.1660  219.3810 C   0  0  0  0  0  0  0  0  0  0  0  0
  139.1920   70.3790  223.5970 C   0  0  0  0  0  0  0  0  0  0  0  0
  139.3330   69.3970  224.5510 C   0  0  0  0  0  0  0  0  0  0  0  0
  139.2080   66.3670  227.2050 H   0  0  0  0  0  0  0  0  0  0  0  0
  138.1940   67.4500  226.4220 H   0  0  0  0  0  0  0  0  0  0  0  0
  141.5110   70.9576  226.5613 H   0  0  0  0  0  0  0  0  0  0  0  0
  141.2557   72.7054  224.8545 H   0  0  0  0  0  0  0  0  0  0  0  0
  138.7068   73.1099  222.5799 H   0  0  0  0  0  0  0  0  0  0  0  0
  141.1698   72.0802  221.2336 H   0  0  0  0  0  0  0  0  0  0  0  0
  139.0796   77.0839  223.5359 H   0  0  0  0  0  0  0  0  0  0  0  0
  139.4110   79.5200  223.0979 H   0  0  0  0  0  0  0  0  0  0  0  0
  142.0284   78.5624  219.7975 H   0  0  0  0  0  0  0  0  0  0  0  0
  141.7217   72.6863  219.5214 H   0  0  0  0  0  0  0  0  0  0  0  0
  142.3620   74.0567  218.4825 H   0  0  0  0  0  0  0  0  0  0  0  0
  144.0141   74.9766  221.1860 H   0  0  0  0  0  0  0  0  0  0  0  0
  146.3252   74.3684  221.7832 H   0  0  0  0  0  0  0  0  0  0  0  0
  147.3874   72.3258  220.8368 H   0  0  0  0  0  0  0  0  0  0  0  0
  146.0695   70.9224  219.2898 H   0  0  0  0  0  0  0  0  0  0  0  0
  143.7645   71.5179  218.6888 H   0  0  0  0  0  0  0  0  0  0  0  0
  138.5188   70.1999  222.7457 H   0  0  0  0  0  0  0  0  0  0  0  0
  138.7748   68.4548  224.4471 H   0  0  0  0  0  0  0  0  0  0  0  0
  1  2  1  0
  2  3  2  0
  2  4  2  0
  2  5  1  0
  5  6  2  0
  6  7  1  0
  7  8  2  0
  8  9  1  0
  9 10  2  0
 10 11  1  0
 11 12  2  0
 12 13  1  0
 13 14  2  0
 14 15  1  0
 15 16  2  0
 16 17  1  0
 16 18  1  0
 18 19  2  0
 19 20  1  0
 20 21  2  0
 20 22  1  0
 22 23  1  0
 23 24  1  0
 24 25  2  0
 25 26  1  0
 26 27  2  0
 27 28  1  0
 28 29  2  0
  8 30  1  0
 30 31  2  0
 31  5  1  0
 22 11  1  0
 29 24  1  0
 19 13  1  0
  1 32  1  0
  1 33  1  0
  6 34  1  0
  7 35  1  0
  9 36  1  0
 10 37  1  0
 14 38  1  0
 15 39  1  0
 18 40  1  0
 23 41  1  0
 23 42  1  0
 25 43  1  0
 26 44  1  0
 27 45  1  0
 28 46  1  0
 29 47  1  0
 30 48  1  0
 31 49  1  0
M  END
>  <smiles>  (4) 
NS(=O)(=O)c1ccc(/C=C/c2nc3ccc(F)cc3c(=O)n2Cc2ccccc2)cc1

>  <score_type>  (4) 
oracle

>  <origin>  (4) 
autodockgpu

>  <m_score__min__energy>  (4) 
-9.2599999999999998

>  <m_primary>  (4) 
energy

>  <rmsd>  (4) 
8.321481884268715

>  <m_score__min__rmsd>  (4) 
8.321481884268715

>  <meeko>  (4) 
{"free_energy": -9.12, "intermolecular_energy": -11.21, "internal_energy": -1.2, "cluster_size": 8, "cluster_id": 1, "rank_in_cluster": 3}

>  <energy>  (4) 
-9.12

>  <cluster_rmsd>  (4) 
0.45

>  <cluster>  (4) 
1

$$$$

     RDKit          3D

 49 52  0  0  0  0  0  0  0  0999 V2000
  145.9440   73.4580  218.2990 N   0  0  0  0  0  0  0  0  0  0  0  0
  145.8320   72.7540  219.8810 S   0  0  0  0  0  0  0  0  0  0  0  0
  146.7190   73.4770  220.8510 O   0  0  0  0  0  0  0  0  0  0  0  0
  146.3180   71.3360  219.7900 O   0  0  0  0  0  0  0  0  0  0  0  0
  144.1900   72.8610  220.4130 C   0  0  0  0  0  0  0  0  0  0  0  0
  143.4810   74.0390  220.4740 C   0  0  0  0  0  0  0  0  0  0  0  0
  142.1640   74.0840  220.9050 C   0  0  0  0  0  0  0  0  0  0  0  0
  141.5050   72.9570  221.2940 C   0  0  0  0  0  0  0  0  0  0  0  0
  140.1240   72.9230  221.7590 C   0  0  0  0  0  0  0  0  0  0  0  0
  139.4340   71.8030  221.9100 C   0  0  0  0  0  0  0  0  0  0  0  0
  139.5730   71.0150  223.1450 C   0  0  0  0  0  0  0  0  0  0  0  0
  140.1570   71.6430  224.1800 N   0  0  0  0  0  0  0  0  0  0  0  0
  140.3250   71.0480  225.3730 C   0  0  0  0  0  0  0  0  0  0  0  0
  140.9280   71.7340  226.3990 C   0  0  0  0  0  0  0  0  0  0  0  0
  141.0820   71.0930  227.6060 C   0  0  0  0  0  0  0  0  0  0  0  0
  140.6290   69.7900  227.7430 C   0  0  0  0  0  0  0  0  0  0  0  0
  140.7940   69.1860  228.9390 F   0  0  0  0  0  0  0  0  0  0  0  0
  140.0220   69.1160  226.6890 C   0  0  0  0  0  0  0  0  0  0  0  0
  139.8660   69.7520  225.4830 C   0  0  0  0  0  0  0  0  0  0  0  0
  139.2660   69.1220  224.3950 C   0  0  0  0  0  0  0  0  0  0  0  0
  138.8800   67.9440  224.5960 O   0  0  0  0  0  0  0  0  0  0  0  0
  139.1120   69.7540  223.2010 N   0  0  0  0  0  0  0  0  0  0  0  0
  138.4860   69.0660  222.1040 C   0  0  0  0  0  0  0  0  0  0  0  0
  139.4160   68.2730  221.2620 C   0  0  0  0  0  0  0  0  0  0  0  0
  140.3910   68.8000  220.4560 C   0  0  0  0  0  0  0  0  0  0  0  0
  141.2300   68.0050  219.6850 C   0  0  0  0  0  0  0  0  0  0  0  0
  141.1140   66.6320  219.6980 C   0  0  0  0  0  0  0  0  0  0  0  0
  140.1500   66.0860  220.4930 C   0  0  0  0  0  0  0  0  0  0  0  0
  139.3150   66.8760  221.2610 C   0  0  0  0  0  0  0  0  0  0  0  0
  142.2270   71.7620  221.2320 C   0  0  0  0  0  0  0  0  0  0  0  0
  143.5330   71.7150  220.8030 C   0  0  0  0  0  0  0  0  0  0  0  0
  145.1960   74.2010  218.2430 H   0  0  0  0  0  0  0  0  0  0  0  0
  146.8540   73.9570  218.1820 H   0  0  0  0  0  0  0  0  0  0  0  0
  143.9747   74.9742  220.1713 H   0  0  0  0  0  0  0  0  0  0  0  0
  141.6399   75.0507  220.9334 H   0  0  0  0  0  0  0  0  0  0  0  0
  139.6297   73.8765  221.9966 H   0  0  0  0  0  0  0  0  0  0  0  0
  138.7573   71.4618  221.1127 H   0  0  0  0  0  0  0  0  0  0  0  0
  141.2780   72.7674  226.2591 H   0  0  0  0  0  0  0  0  0  0  0  0
  141.5590   71.6082  228.4528 H   0  0  0  0  0  0  0  0  0  0  0  0
  139.6700   68.0822  226.8207 H   0  0  0  0  0  0  0  0  0  0  0  0
  137.7278   68.3831  222.5148 H   0  0  0  0  0  0  0  0  0  0  0  0
  138.0588   69.8419  221.4518 H   0  0  0  0  0  0  0  0  0  0  0  0
  140.5139   69.8925  220.4181 H   0  0  0  0  0  0  0  0  0  0  0  0
  141.9977   68.4783  219.0553 H   0  0  0  0  0  0  0  0  0  0  0  0
  141.7756   65.9988  219.0886 H   0  0  0  0  0  0  0  0  0  0  0  0
  140.0342   64.9926  220.5239 H   0  0  0  0  0  0  0  0  0  0  0  0
  138.5505   66.3944  221.8884 H   0  0  0  0  0  0  0  0  0  0  0  0
  141.7340   70.8271  221.5367 H   0  0  0  0  0  0  0  0  0  0  0  0
  144.0595   70.7497  220.7710 H   0  0  0  0  0  0  0  0  0  0  0  0
  1  2  1  0
  2  3  2  0
  2  4  2  0
  2  5  1  0
  5  6  2  0
  6  7  1  0
  7  8  2  0
  8  9  1  0
  9 10  2  0
 10 11  1  0
 11 12  2  0
 12 13  1  0
 13 14  2  0
 14 15  1  0
 15 16  2  0
 16 17  1  0
 16 18  1  0
 18 19  2  0
 19 20  1  0
 20 21  2  0
 20 22  1  0
 22 23  1  0
 23 24  1  0
 24 25  2  0
 25 26  1  0
 26 27  2  0
 27 28  1  0
 28 29  2  0
  8 30  1  0
 30 31  2  0
 31  5  1  0
 22 11  1  0
 29 24  1  0
 19 13  1  0
  1 32  1  0
  1 33  1  0
  6 34  1  0
  7 35  1  0
  9 36  1  0
 10 37  1  0
 14 38  1  0
 15 39  1  0
 18 40  1  0
 23 41  1  0
 23 42  1  0
 25 43  1  0
 26 44  1  0
 27 45  1  0
 28 46  1  0
 29 47  1  0
 30 48  1  0
 31 49  1  0
M  END
>  <smiles>  (5) 
NS(=O)(=O)c1ccc(/C=C/c2nc3ccc(F)cc3c(=O)n2Cc2ccccc2)cc1

>  <score_type>  (5) 
oracle

>  <origin>  (5) 
autodockgpu

>  <m_score__min__energy>  (5) 
-9.2599999999999998

>  <m_primary>  (5) 
energy

>  <rmsd>  (5) 
12.49611338456099

>  <m_score__min__rmsd>  (5) 
12.49611338456099

>  <meeko>  (5) 
{"free_energy": -9.07, "intermolecular_energy": -11.16, "internal_energy": -1.63, "cluster_size": 15, "cluster_id": 3, "rank_in_cluster": 1}

>  <energy>  (5) 
-8.93

>  <cluster_rmsd>  (5) 
0.49

>  <cluster>  (5) 
1

$$$$

     RDKit          3D

 49 52  0  0  0  0  0  0  0  0999 V2000
  139.1110   67.2120  226.4660 N   0  0  0  0  0  0  0  0  0  0  0  0
  140.3740   68.3930  226.6190 S   0  0  0  0  0  0  0  0  0  0  0  0
  141.7230   67.7550  226.4620 O   0  0  0  0  0  0  0  0  0  0  0  0
  140.3020   68.9680  228.0050 O   0  0  0  0  0  0  0  0  0  0  0  0
  140.1570   69.5900  225.3910 C   0  0  0  0  0  0  0  0  0  0  0  0
  139.5440   69.3440  224.1830 C   0  0  0  0  0  0  0  0  0  0  0  0
  139.3870   70.3310  223.2220 C   0  0  0  0  0  0  0  0  0  0  0  0
  139.8360   71.6000  223.4280 C   0  0  0  0  0  0  0  0  0  0  0  0
  139.7100   72.6900  222.4690 C   0  0  0  0  0  0  0  0  0  0  0  0
  140.6360   72.9780  221.5670 C   0  0  0  0  0  0  0  0  0  0  0  0
  140.9280   74.3810  221.2360 C   0  0  0  0  0  0  0  0  0  0  0  0
  140.3700   75.3030  222.0390 N   0  0  0  0  0  0  0  0  0  0  0  0
  140.5740   76.6200  221.8640 C   0  0  0  0  0  0  0  0  0  0  0  0
  139.9800   77.5210  222.7140 C   0  0  0  0  0  0  0  0  0  0  0  0
  140.2130   78.8600  222.5040 C   0  0  0  0  0  0  0  0  0  0  0  0
  141.0290   79.2490  221.4540 C   0  0  0  0  0  0  0  0  0  0  0  0
  141.2400   80.5700  221.2730 F   0  0  0  0  0  0  0  0  0  0  0  0
  141.6200   78.3170  220.6070 C   0  0  0  0  0  0  0  0  0  0  0  0
  141.3910   76.9800  220.8120 C   0  0  0  0  0  0  0  0  0  0  0  0
  141.9560   76.0060  219.9930 C   0  0  0  0  0  0  0  0  0  0  0  0
  142.6840   76.4360  219.0650 O   0  0  0  0  0  0  0  0  0  0  0  0
  141.7280   74.6820  220.1990 N   0  0  0  0  0  0  0  0  0  0  0  0
  142.3330   73.7090  219.3280 C   0  0  0  0  0  0  0  0  0  0  0  0
  143.7050   73.2990  219.7200 C   0  0  0  0  0  0  0  0  0  0  0  0
  144.3290   72.1500  219.3090 C   0  0  0  0  0  0  0  0  0  0  0  0
  145.6160   71.8160  219.7150 C   0  0  0  0  0  0  0  0  0  0  0  0
  146.3270   72.6400  220.5610 C   0  0  0  0  0  0  0  0  0  0  0  0
  145.7250   73.7880  220.9820 C   0  0  0  0  0  0  0  0  0  0  0  0
  144.4450   74.1210  220.5790 C   0  0  0  0  0  0  0  0  0  0  0  0
  140.4580   71.8480  224.6550 C   0  0  0  0  0  0  0  0  0  0  0  0
  140.6140   70.8710  225.6100 C   0  0  0  0  0  0  0  0  0  0  0  0
  139.2610   66.7250  225.5410 H   0  0  0  0  0  0  0  0  0  0  0  0
  139.2070   66.4740  227.1990 H   0  0  0  0  0  0  0  0  0  0  0  0
  139.1668   68.3321  223.9736 H   0  0  0  0  0  0  0  0  0  0  0  0
  138.8891   70.0837  222.2728 H   0  0  0  0  0  0  0  0  0  0  0  0
  138.7987   73.3054  222.4957 H   0  0  0  0  0  0  0  0  0  0  0  0
  141.1865   72.1683  221.0656 H   0  0  0  0  0  0  0  0  0  0  0  0
  139.3365   77.1812  223.5389 H   0  0  0  0  0  0  0  0  0  0  0  0
  139.7566   79.6138  223.1624 H   0  0  0  0  0  0  0  0  0  0  0  0
  142.2651   78.6491  219.7803 H   0  0  0  0  0  0  0  0  0  0  0  0
  141.6959   72.8123  219.3197 H   0  0  0  0  0  0  0  0  0  0  0  0
  142.4195   74.1850  218.3401 H   0  0  0  0  0  0  0  0  0  0  0  0
  143.7922   71.4676  218.6336 H   0  0  0  0  0  0  0  0  0  0  0  0
  146.0730   70.8819  219.3564 H   0  0  0  0  0  0  0  0  0  0  0  0
  147.3454   72.3799  220.8852 H   0  0  0  0  0  0  0  0  0  0  0  0
  146.2695   74.4645  221.6572 H   0  0  0  0  0  0  0  0  0  0  0  0
  143.9958   75.0568  220.9429 H   0  0  0  0  0  0  0  0  0  0  0  0
  140.8358   72.8598  224.8639 H   0  0  0  0  0  0  0  0  0  0  0  0
  141.1100   71.1154  226.5609 H   0  0  0  0  0  0  0  0  0  0  0  0
  1  2  1  0
  2  3  2  0
  2  4  2  0
  2  5  1  0
  5  6  2  0
  6  7  1  0
  7  8  2  0
  8  9  1  0
  9 10  2  0
 10 11  1  0
 11 12  2  0
 12 13  1  0
 13 14  2  0
 14 15  1  0
 15 16  2  0
 16 17  1  0
 16 18  1  0
 18 19  2  0
 19 20  1  0
 20 21  2  0
 20 22  1  0
 22 23  1  0
 23 24  1  0
 24 25  2  0
 25 26  1  0
 26 27  2  0
 27 28  1  0
 28 29  2  0
  8 30  1  0
 30 31  2  0
 31  5  1  0
 22 11  1  0
 29 24  1  0
 19 13  1  0
  1 32  1  0
  1 33  1  0
  6 34  1  0
  7 35  1  0
  9 36  1  0
 10 37  1  0
 14 38  1  0
 15 39  1  0
 18 40  1  0
 23 41  1  0
 23 42  1  0
 25 43  1  0
 26 44  1  0
 27 45  1  0
 28 46  1  0
 29 47  1  0
 30 48  1  0
 31 49  1  0
M  END
>  <smiles>  (6) 
NS(=O)(=O)c1ccc(/C=C/c2nc3ccc(F)cc3c(=O)n2Cc2ccccc2)cc1

>  <score_type>  (6) 
oracle

>  <origin>  (6) 
autodockgpu

>  <m_score__min__energy>  (6) 
-9.2599999999999998

>  <m_primary>  (6) 
energy

>  <rmsd>  (6) 
8.219754502736102

>  <m_score__min__rmsd>  (6) 
8.219754502736102

>  <meeko>  (6) 
{"free_energy": -9.14, "intermolecular_energy": -11.22, "internal_energy": -1.2, "cluster_size": 8, "cluster_id": 1, "rank_in_cluster": 2}

>  <energy>  (6) 
-8.85

>  <cluster_rmsd>  (6) 
1.1

>  <cluster>  (6) 
1

$$$$

     RDKit          3D

 49 52  0  0  0  0  0  0  0  0999 V2000
  145.9320   73.3890  218.2490 N   0  0  0  0  0  0  0  0  0  0  0  0
  145.8170   72.6790  219.8290 S   0  0  0  0  0  0  0  0  0  0  0  0
  146.6510   73.4400  220.8170 O   0  0  0  0  0  0  0  0  0  0  0  0
  146.3660   71.2840  219.7480 O   0  0  0  0  0  0  0  0  0  0  0  0
  144.1610   72.7150  220.3250 C   0  0  0  0  0  0  0  0  0  0  0  0
  143.3170   71.6300  220.2550 C   0  0  0  0  0  0  0  0  0  0  0  0
  141.9950   71.6980  220.6640 C   0  0  0  0  0  0  0  0  0  0  0  0
  141.4620   72.8510  221.1580 C   0  0  0  0  0  0  0  0  0  0  0  0
  140.0840   73.0010  221.6070 C   0  0  0  0  0  0  0  0  0  0  0  0
  139.2770   71.9760  221.8370 C   0  0  0  0  0  0  0  0  0  0  0  0
  139.4730   71.1410  223.0320 C   0  0  0  0  0  0  0  0  0  0  0  0
  140.0760   71.7390  224.0750 N   0  0  0  0  0  0  0  0  0  0  0  0
  140.2960   71.0980  225.2350 C   0  0  0  0  0  0  0  0  0  0  0  0
  140.9150   71.7550  226.2700 C   0  0  0  0  0  0  0  0  0  0  0  0
  141.1220   71.0670  227.4430 C   0  0  0  0  0  0  0  0  0  0  0  0
  140.7040   69.7490  227.5390 C   0  0  0  0  0  0  0  0  0  0  0  0
  140.9200   69.1000  228.7020 F   0  0  0  0  0  0  0  0  0  0  0  0
  140.0780   69.1060  226.4760 C   0  0  0  0  0  0  0  0  0  0  0  0
  139.8690   69.7880  225.3040 C   0  0  0  0  0  0  0  0  0  0  0  0
  139.2480   69.1910  224.2100 C   0  0  0  0  0  0  0  0  0  0  0  0
  138.8960   67.9960  224.3720 O   0  0  0  0  0  0  0  0  0  0  0  0
  139.0420   69.8690  223.0490 N   0  0  0  0  0  0  0  0  0  0  0  0
  138.3960   69.2120  221.9440 C   0  0  0  0  0  0  0  0  0  0  0  0
  139.2850   68.9340  220.7870 C   0  0  0  0  0  0  0  0  0  0  0  0
  139.3120   69.6600  219.6250 C   0  0  0  0  0  0  0  0  0  0  0  0
  140.1640   69.3480  218.5720 C   0  0  0  0  0  0  0  0  0  0  0  0
  141.0290   68.2780  218.6550 C   0  0  0  0  0  0  0  0  0  0  0  0
  141.0170   67.5420  219.8020 C   0  0  0  0  0  0  0  0  0  0  0  0
  140.1710   67.8520  220.8500 C   0  0  0  0  0  0  0  0  0  0  0  0
  142.3200   73.9510  221.2280 C   0  0  0  0  0  0  0  0  0  0  0  0
  143.6330   73.8860  220.8240 C   0  0  0  0  0  0  0  0  0  0  0  0
  145.2010   74.1500  218.2030 H   0  0  0  0  0  0  0  0  0  0  0  0
  146.8530   73.8660  218.1270 H   0  0  0  0  0  0  0  0  0  0  0  0
  143.7044   70.6785  219.8618 H   0  0  0  0  0  0  0  0  0  0  0  0
  141.3617   70.8018  220.5884 H   0  0  0  0  0  0  0  0  0  0  0  0
  139.6938   74.0176  221.7630 H   0  0  0  0  0  0  0  0  0  0  0  0
  138.4610   71.7495  221.1350 H   0  0  0  0  0  0  0  0  0  0  0  0
  141.2361   72.8017  226.1640 H   0  0  0  0  0  0  0  0  0  0  0  0
  141.6140   71.5576  228.2958 H   0  0  0  0  0  0  0  0  0  0  0  0
  139.7533   68.0596  226.5743 H   0  0  0  0  0  0  0  0  0  0  0  0
  137.9902   68.2547  222.3032 H   0  0  0  0  0  0  0  0  0  0  0  0
  137.6182   69.9006  221.5823 H   0  0  0  0  0  0  0  0  0  0  0  0
  138.6349   70.5208  219.5219 H   0  0  0  0  0  0  0  0  0  0  0  0
  140.1477   69.9632  217.6603 H   0  0  0  0  0  0  0  0  0  0  0  0
  141.7053   68.0270  217.8246 H   0  0  0  0  0  0  0  0  0  0  0  0
  141.6961   66.6817  219.8958 H   0  0  0  0  0  0  0  0  0  0  0  0
  140.1945   67.2318  221.7582 H   0  0  0  0  0  0  0  0  0  0  0  0
  141.9319   74.9027  221.6200 H   0  0  0  0  0  0  0  0  0  0  0  0
  144.2696   74.7798  220.9001 H   0  0  0  0  0  0  0  0  0  0  0  0
  1  2  1  0
  2  3  2  0
  2  4  2  0
  2  5  1  0
  5  6  2  0
  6  7  1  0
  7  8  2  0
  8  9  1  0
  9 10  2  0
 10 11  1  0
 11 12  2  0
 12 13  1  0
 13 14  2  0
 14 15  1  0
 15 16  2  0
 16 17  1  0
 16 18  1  0
 18 19  2  0
 19 20  1  0
 20 21  2  0
 20 22  1  0
 22 23  1  0
 23 24  1  0
 24 25  2  0
 25 26  1  0
 26 27  2  0
 27 28  1  0
 28 29  2  0
  8 30  1  0
 30 31  2  0
 31  5  1  0
 22 11  1  0
 29 24  1  0
 19 13  1  0
  1 32  1  0
  1 33  1  0
  6 34  1  0
  7 35  1  0
  9 36  1  0
 10 37  1  0
 14 38  1  0
 15 39  1  0
 18 40  1  0
 23 41  1  0
 23 42  1  0
 25 43  1  0
 26 44  1  0
 27 45  1  0
 28 46  1  0
 29 47  1  0
 30 48  1  0
 31 49  1  0
M  END
>  <smiles>  (7) 
NS(=O)(=O)c1ccc(/C=C/c2nc3ccc(F)cc3c(=O)n2Cc2ccccc2)cc1

>  <score_type>  (7) 
oracle

>  <origin>  (7) 
autodockgpu

>  <m_score__min__energy>  (7) 
-9.2599999999999998

>  <m_primary>  (7) 
energy

>  <rmsd>  (7) 
11.785604278520497

>  <m_score__min__rmsd>  (7) 
11.785604278520497

>  <meeko>  (7) 
{"free_energy": -8.22, "intermolecular_energy": -10.3, "internal_energy": -1.83, "cluster_size": 15, "cluster_id": 3, "rank_in_cluster": 13}

>  <energy>  (7) 
-8.44

>  <cluster_rmsd>  (7) 
0.64

>  <cluster>  (7) 
1

$$$$

     RDKit          3D

 49 52  0  0  0  0  0  0  0  0999 V2000
  141.5390   68.4090  226.4870 N   0  0  0  0  0  0  0  0  0  0  0  0
  139.8390   68.7040  226.2930 S   0  0  0  0  0  0  0  0  0  0  0  0
  139.2330   69.1920  227.5750 O   0  0  0  0  0  0  0  0  0  0  0  0
  139.1820   67.3980  225.9470 O   0  0  0  0  0  0  0  0  0  0  0  0
  139.6290   69.9010  225.0640 C   0  0  0  0  0  0  0  0  0  0  0  0
  140.6140   70.7800  224.6740 C   0  0  0  0  0  0  0  0  0  0  0  0
  140.4070   71.7260  223.6830 C   0  0  0  0  0  0  0  0  0  0  0  0
  139.2090   71.8330  223.0430 C   0  0  0  0  0  0  0  0  0  0  0  0
  138.9140   72.8000  221.9930 C   0  0  0  0  0  0  0  0  0  0  0  0
  139.4400   74.0150  221.9530 C   0  0  0  0  0  0  0  0  0  0  0  0
  140.7890   74.2130  221.3980 C   0  0  0  0  0  0  0  0  0  0  0  0
  141.5690   73.1190  221.3450 N   0  0  0  0  0  0  0  0  0  0  0  0
  142.8140   73.1550  220.8390 C   0  0  0  0  0  0  0  0  0  0  0  0
  143.5690   72.0080  220.8070 C   0  0  0  0  0  0  0  0  0  0  0  0
  144.8380   72.0830  220.2820 C   0  0  0  0  0  0  0  0  0  0  0  0
  145.3050   73.2990  219.8090 C   0  0  0  0  0  0  0  0  0  0  0  0
  146.5540   73.3420  219.2990 F   0  0  0  0  0  0  0  0  0  0  0  0
  144.5200   74.4460  219.8520 C   0  0  0  0  0  0  0  0  0  0  0  0
  143.2540   74.3770  220.3750 C   0  0  0  0  0  0  0  0  0  0  0  0
  142.4270   75.4960  220.4430 C   0  0  0  0  0  0  0  0  0  0  0  0
  142.9190   76.5600  219.9940 O   0  0  0  0  0  0  0  0  0  0  0  0
  141.1720   75.4250  220.9610 N   0  0  0  0  0  0  0  0  0  0  0  0
  140.3520   76.6060  221.0110 C   0  0  0  0  0  0  0  0  0  0  0  0
  140.9830   77.7670  221.6870 C   0  0  0  0  0  0  0  0  0  0  0  0
  141.4110   78.9060  221.0560 C   0  0  0  0  0  0  0  0  0  0  0  0
  142.0010   79.9610  221.7430 C   0  0  0  0  0  0  0  0  0  0  0  0
  142.1850   79.9020  223.1070 C   0  0  0  0  0  0  0  0  0  0  0  0
  141.7670   78.7780  223.7550 C   0  0  0  0  0  0  0  0  0  0  0  0
  141.1790   77.7280  223.0730 C   0  0  0  0  0  0  0  0  0  0  0  0
  138.2100   70.9410  223.4390 C   0  0  0  0  0  0  0  0  0  0  0  0
  138.4130   70.0000  224.4220 C   0  0  0  0  0  0  0  0  0  0  0  0
  141.9590   69.2970  226.8740 H   0  0  0  0  0  0  0  0  0  0  0  0
  141.7040   67.6730  227.2110 H   0  0  0  0  0  0  0  0  0  0  0  0
  141.5971   70.7298  225.1649 H   0  0  0  0  0  0  0  0  0  0  0  0
  141.2273   72.4050  223.4071 H   0  0  0  0  0  0  0  0  0  0  0  0
  138.2190   72.5057  221.1928 H   0  0  0  0  0  0  0  0  0  0  0  0
  138.8696   74.8749  222.3340 H   0  0  0  0  0  0  0  0  0  0  0  0
  143.1703   71.0571  221.1901 H   0  0  0  0  0  0  0  0  0  0  0  0
  145.4753   71.1875  220.2380 H   0  0  0  0  0  0  0  0  0  0  0  0
  144.9111   75.4005  219.4698 H   0  0  0  0  0  0  0  0  0  0  0  0
  140.1098   76.8997  219.9790 H   0  0  0  0  0  0  0  0  0  0  0  0
  139.4635   76.3443  221.6044 H   0  0  0  0  0  0  0  0  0  0  0  0
  141.2830   78.9884  219.9666 H   0  0  0  0  0  0  0  0  0  0  0  0
  142.3253   80.8549  221.1899 H   0  0  0  0  0  0  0  0  0  0  0  0
  142.6531   80.7334  223.6544 H   0  0  0  0  0  0  0  0  0  0  0  0
  141.9002   78.7043  224.8444 H   0  0  0  0  0  0  0  0  0  0  0  0
  140.8568   76.8386  223.6344 H   0  0  0  0  0  0  0  0  0  0  0  0
  137.2270   70.9925  222.9481 H   0  0  0  0  0  0  0  0  0  0  0  0
  137.5952   69.3185  224.6990 H   0  0  0  0  0  0  0  0  0  0  0  0
  1  2  1  0
  2  3  2  0
  2  4  2  0
  2  5  1  0
  5  6  2  0
  6  7  1  0
  7  8  2  0
  8  9  1  0
  9 10  2  0
 10 11  1  0
 11 12  2  0
 12 13  1  0
 13 14  2  0
 14 15  1  0
 15 16  2  0
 16 17  1  0
 16 18  1  0
 18 19  2  0
 19 20  1  0
 20 21  2  0
 20 22  1  0
 22 23  1  0
 23 24  1  0
 24 25  2  0
 25 26  1  0
 26 27  2  0
 27 28  1  0
 28 29  2  0
  8 30  1  0
 30 31  2  0
 31  5  1  0
 22 11  1  0
 29 24  1  0
 19 13  1  0
  1 32  1  0
  1 33  1  0
  6 34  1  0
  7 35  1  0
  9 36  1  0
 10 37  1  0
 14 38  1  0
 15 39  1  0
 18 40  1  0
 23 41  1  0
 23 42  1  0
 25 43  1  0
 26 44  1  0
 27 45  1  0
 28 46  1  0
 29 47  1  0
 30 48  1  0
 31 49  1  0
M  END
>  <smiles>  (8) 
NS(=O)(=O)c1ccc(/C=C/c2nc3ccc(F)cc3c(=O)n2Cc2ccccc2)cc1

>  <score_type>  (8) 
oracle

>  <origin>  (8) 
autodockgpu

>  <m_score__min__energy>  (8) 
-9.2599999999999998

>  <m_primary>  (8) 
energy

>  <rmsd>  (8) 
4.963163870101856

>  <m_score__min__rmsd>  (8) 
4.963163870101856

>  <meeko>  (8) 
{"free_energy": -8.77, "intermolecular_energy": -10.85, "internal_energy": -1.24, "cluster_size": 6, "cluster_id": 2, "rank_in_cluster": 3}

>  <energy>  (8) 
-8.14

>  <cluster_rmsd>  (8) 
1.14

>  <cluster>  (8) 
1

$$$$

     RDKit          3D

 49 52  0  0  0  0  0  0  0  0999 V2000
  139.2040   67.3030  226.2350 N   0  0  0  0  0  0  0  0  0  0  0  0
  140.1600   68.7420  226.4120 S   0  0  0  0  0  0  0  0  0  0  0  0
  141.6250   68.4160  226.3760 O   0  0  0  0  0  0  0  0  0  0  0  0
  139.8590   69.3310  227.7600 O   0  0  0  0  0  0  0  0  0  0  0  0
  139.7770   69.8170  225.1140 C   0  0  0  0  0  0  0  0  0  0  0  0
  138.7210   69.6280  224.2500 C   0  0  0  0  0  0  0  0  0  0  0  0
  138.4450   70.5150  223.2210 C   0  0  0  0  0  0  0  0  0  0  0  0
  139.2110   71.6220  223.0130 C   0  0  0  0  0  0  0  0  0  0  0  0
  138.9850   72.5980  221.9550 C   0  0  0  0  0  0  0  0  0  0  0  0
  139.5010   73.8190  221.9680 C   0  0  0  0  0  0  0  0  0  0  0  0
  140.8430   74.0550  221.4130 C   0  0  0  0  0  0  0  0  0  0  0  0
  141.6470   72.9800  221.3420 N   0  0  0  0  0  0  0  0  0  0  0  0
  142.8890   73.0510  220.8350 C   0  0  0  0  0  0  0  0  0  0  0  0
  143.6710   71.9220  220.7840 C   0  0  0  0  0  0  0  0  0  0  0  0
  144.9360   72.0330  220.2580 C   0  0  0  0  0  0  0  0  0  0  0  0
  145.3750   73.2660  219.8020 C   0  0  0  0  0  0  0  0  0  0  0  0
  146.6210   73.3440  219.2900 F   0  0  0  0  0  0  0  0  0  0  0  0
  144.5640   74.3940  219.8630 C   0  0  0  0  0  0  0  0  0  0  0  0
  143.3010   74.2890  220.3880 C   0  0  0  0  0  0  0  0  0  0  0  0
  142.4500   75.3880  220.4730 C   0  0  0  0  0  0  0  0  0  0  0  0
  142.9160   76.4700  220.0390 O   0  0  0  0  0  0  0  0  0  0  0  0
  141.1980   75.2810  220.9930 N   0  0  0  0  0  0  0  0  0  0  0  0
  140.3520   76.4430  221.0620 C   0  0  0  0  0  0  0  0  0  0  0  0
  140.9730   77.6200  221.7190 C   0  0  0  0  0  0  0  0  0  0  0  0
  141.3500   78.7710  221.0760 C   0  0  0  0  0  0  0  0  0  0  0  0
  141.9330   79.8400  221.7450 C   0  0  0  0  0  0  0  0  0  0  0  0
  142.1610   79.7860  223.1030 C   0  0  0  0  0  0  0  0  0  0  0  0
  141.7940   78.6510  223.7620 C   0  0  0  0  0  0  0  0  0  0  0  0
  141.2130   77.5860  223.0980 C   0  0  0  0  0  0  0  0  0  0  0  0
  140.2810   71.8120  223.8900 C   0  0  0  0  0  0  0  0  0  0  0  0
  140.5570   70.9340  224.9130 C   0  0  0  0  0  0  0  0  0  0  0  0
  139.5180   66.6350  226.9910 H   0  0  0  0  0  0  0  0  0  0  0  0
  138.1980   67.5050  226.4290 H   0  0  0  0  0  0  0  0  0  0  0  0
  138.0768   68.7460  224.3806 H   0  0  0  0  0  0  0  0  0  0  0  0
  137.5889   70.3207  222.5581 H   0  0  0  0  0  0  0  0  0  0  0  0
  138.3542   72.3069  221.1022 H   0  0  0  0  0  0  0  0  0  0  0  0
  138.9264   74.6550  222.3934 H   0  0  0  0  0  0  0  0  0  0  0  0
  143.2951   70.9566  221.1537 H   0  0  0  0  0  0  0  0  0  0  0  0
  145.5929   71.1526  220.1996 H   0  0  0  0  0  0  0  0  0  0  0  0
  144.9322   75.3624  219.4934 H   0  0  0  0  0  0  0  0  0  0  0  0
  140.0763   76.7283  220.0360 H   0  0  0  0  0  0  0  0  0  0  0  0
  139.4856   76.1622  221.6788 H   0  0  0  0  0  0  0  0  0  0  0  0
  141.1849   78.8508  219.9914 H   0  0  0  0  0  0  0  0  0  0  0  0
  142.2165   80.7420  221.1829 H   0  0  0  0  0  0  0  0  0  0  0  0
  142.6231   80.6297  223.6365 H   0  0  0  0  0  0  0  0  0  0  0  0
  141.9637   78.5803  224.8465 H   0  0  0  0  0  0  0  0  0  0  0  0
  140.9320   76.6884  223.6684 H   0  0  0  0  0  0  0  0  0  0  0  0
  140.9253   72.6938  223.7585 H   0  0  0  0  0  0  0  0  0  0  0  0
  141.4114   71.1268  225.5785 H   0  0  0  0  0  0  0  0  0  0  0  0
  1  2  1  0
  2  3  2  0
  2  4  2  0
  2  5  1  0
  5  6  2  0
  6  7  1  0
  7  8  2  0
  8  9  1  0
  9 10  2  0
 10 11  1  0
 11 12  2  0
 12 13  1  0
 13 14  2  0
 14 15  1  0
 15 16  2  0
 16 17  1  0
 16 18  1  0
 18 19  2  0
 19 20  1  0
 20 21  2  0
 20 22  1  0
 22 23  1  0
 23 24  1  0
 24 25  2  0
 25 26  1  0
 26 27  2  0
 27 28  1  0
 28 29  2  0
  8 30  1  0
 30 31  2  0
 31  5  1  0
 22 11  1  0
 29 24  1  0
 19 13  1  0
  1 32  1  0
  1 33  1  0
  6 34  1  0
  7 35  1  0
  9 36  1  0
 10 37  1  0
 14 38  1  0
 15 39  1  0
 18 40  1  0
 23 41  1  0
 23 42  1  0
 25 43  1  0
 26 44  1  0
 27 45  1  0
 28 46  1  0
 29 47  1  0
 30 48  1  0
 31 49  1  0
M  END
>  <smiles>  (9) 
NS(=O)(=O)c1ccc(/C=C/c2nc3ccc(F)cc3c(=O)n2Cc2ccccc2)cc1

>  <score_type>  (9) 
oracle

>  <origin>  (9) 
autodockgpu

>  <m_score__min__energy>  (9) 
-9.2599999999999998

>  <m_primary>  (9) 
energy

>  <rmsd>  (9) 
5.042965177257198

>  <m_score__min__rmsd>  (9) 
5.042965177257198

>  <meeko>  (9) 
{"free_energy": -9.06, "intermolecular_energy": -11.15, "internal_energy": -1.28, "cluster_size": 6, "cluster_id": 2, "rank_in_cluster": 2}

>  <energy>  (9) 
-9.1

>  <cluster_rmsd>  (9) 
0.0

>  <cluster>  (9) 
2

$$$$

     RDKit          3D

 49 52  0  0  0  0  0  0  0  0999 V2000
  145.7640   71.5840  220.0270 N   0  0  0  0  0  0  0  0  0  0  0  0
  145.7540   73.2410  219.5070 S   0  0  0  0  0  0  0  0  0  0  0  0
  146.3280   73.3690  218.1260 O   0  0  0  0  0  0  0  0  0  0  0  0
  146.6350   74.0220  220.4400 O   0  0  0  0  0  0  0  0  0  0  0  0
  144.1200   73.8040  219.5050 C   0  0  0  0  0  0  0  0  0  0  0  0
  143.1750   73.4100  218.5850 C   0  0  0  0  0  0  0  0  0  0  0  0
  141.8730   73.8850  218.6170 C   0  0  0  0  0  0  0  0  0  0  0  0
  141.4630   74.7700  219.5680 C   0  0  0  0  0  0  0  0  0  0  0  0
  140.1150   75.3140  219.6680 C   0  0  0  0  0  0  0  0  0  0  0  0
  139.8110   76.5690  219.3700 C   0  0  0  0  0  0  0  0  0  0  0  0
  140.5180   77.6730  220.0380 C   0  0  0  0  0  0  0  0  0  0  0  0
  140.5710   77.6120  221.3800 N   0  0  0  0  0  0  0  0  0  0  0  0
  141.2060   78.5430  222.1120 C   0  0  0  0  0  0  0  0  0  0  0  0
  141.2300   78.4330  223.4820 C   0  0  0  0  0  0  0  0  0  0  0  0
  141.8910   79.4040  224.1980 C   0  0  0  0  0  0  0  0  0  0  0  0
  142.5010   80.4480  223.5210 C   0  0  0  0  0  0  0  0  0  0  0  0
  143.1420   81.3860  224.2500 F   0  0  0  0  0  0  0  0  0  0  0  0
  142.4630   80.5360  222.1330 C   0  0  0  0  0  0  0  0  0  0  0  0
  141.8050   79.5700  221.4140 C   0  0  0  0  0  0  0  0  0  0  0  0
  141.7360   79.6120  220.0240 C   0  0  0  0  0  0  0  0  0  0  0  0
  142.3140   80.5860  219.4820 O   0  0  0  0  0  0  0  0  0  0  0  0
  141.0840   78.6530  219.3130 N   0  0  0  0  0  0  0  0  0  0  0  0
  141.0370   78.7360  217.8780 C   0  0  0  0  0  0  0  0  0  0  0  0
  142.0640   77.9220  217.1790 C   0  0  0  0  0  0  0  0  0  0  0  0
  142.9720   77.1020  217.7980 C   0  0  0  0  0  0  0  0  0  0  0  0
  143.9150   76.3680  217.0890 C   0  0  0  0  0  0  0  0  0  0  0  0
  143.9770   76.4350  215.7140 C   0  0  0  0  0  0  0  0  0  0  0  0
  143.0840   77.2450  215.0790 C   0  0  0  0  0  0  0  0  0  0  0  0
  142.1450   77.9760  215.7820 C   0  0  0  0  0  0  0  0  0  0  0  0
  142.4230   75.1690  220.5010 C   0  0  0  0  0  0  0  0  0  0  0  0
  143.7160   74.6990  220.4720 C   0  0  0  0  0  0  0  0  0  0  0  0
  146.6850   71.4260  220.5190 H   0  0  0  0  0  0  0  0  0  0  0  0
  145.0220   71.4200  220.7450 H   0  0  0  0  0  0  0  0  0  0  0  0
  143.4620   72.6955  217.7994 H   0  0  0  0  0  0  0  0  0  0  0  0
  141.1555   73.5398  217.8581 H   0  0  0  0  0  0  0  0  0  0  0  0
  139.3080   74.6486  220.0085 H   0  0  0  0  0  0  0  0  0  0  0  0
  139.0315   76.7850  218.6245 H   0  0  0  0  0  0  0  0  0  0  0  0
  140.7350   77.5929  223.9910 H   0  0  0  0  0  0  0  0  0  0  0  0
  141.9349   79.3523  225.2959 H   0  0  0  0  0  0  0  0  0  0  0  0
  142.9561   81.3727  221.6164 H   0  0  0  0  0  0  0  0  0  0  0  0
  140.0449   78.3954  217.5467 H   0  0  0  0  0  0  0  0  0  0  0  0
  141.2408   79.7855  217.6190 H   0  0  0  0  0  0  0  0  0  0  0  0
  142.9532   77.0224  218.8950 H   0  0  0  0  0  0  0  0  0  0  0  0
  144.6220   75.7244  217.6330 H   0  0  0  0  0  0  0  0  0  0  0  0
  144.7213   75.8549  215.1488 H   0  0  0  0  0  0  0  0  0  0  0  0
  143.1111   77.3188  213.9818 H   0  0  0  0  0  0  0  0  0  0  0  0
  141.4426   78.6173  215.2294 H   0  0  0  0  0  0  0  0  0  0  0  0
  142.1354   75.8837  221.2862 H   0  0  0  0  0  0  0  0  0  0  0  0
  144.4359   75.0418  221.2298 H   0  0  0  0  0  0  0  0  0  0  0  0
  1  2  1  0
  2  3  2  0
  2  4  2  0
  2  5  1  0
  5  6  2  0
  6  7  1  0
  7  8  2  0
  8  9  1  0
  9 10  2  0
 10 11  1  0
 11 12  2  0
 12 13  1  0
 13 14  2  0
 14 15  1  0
 15 16  2  0
 16 17  1  0
 16 18  1  0
 18 19  2  0
 19 20  1  0
 20 21  2  0
 20 22  1  0
 22 23  1  0
 23 24  1  0
 24 25  2  0
 25 26  1  0
 26 27  2  0
 27 28  1  0
 28 29  2  0
  8 30  1  0
 30 31  2  0
 31  5  1  0
 22 11  1  0
 29 24  1  0
 19 13  1  0
  1 32  1  0
  1 33  1  0
  6 34  1  0
  7 35  1  0
  9 36  1  0
 10 37  1  0
 14 38  1  0
 15 39  1  0
 18 40  1  0
 23 41  1  0
 23 42  1  0
 25 43  1  0
 26 44  1  0
 27 45  1  0
 28 46  1  0
 29 47  1  0
 30 48  1  0
 31 49  1  0
M  END
>  <smiles>  (10) 
NS(=O)(=O)c1ccc(/C=C/c2nc3ccc(F)cc3c(=O)n2Cc2ccccc2)cc1

>  <score_type>  (10) 
oracle

>  <origin>  (10) 
autodockgpu

>  <m_score__min__energy>  (10) 
-9.2599999999999998

>  <m_primary>  (10) 
energy

>  <rmsd>  (10) 
6.735422231336911

>  <m_score__min__rmsd>  (10) 
6.735422231336911

>  <meeko>  (10) 
{"free_energy": -7.07, "intermolecular_energy": -9.16, "internal_energy": -2.27, "cluster_size": 2, "cluster_id": 13, "rank_in_cluster": 1}

>  <energy>  (10) 
-9.06

>  <cluster_rmsd>  (10) 
0.39

>  <cluster>  (10) 
2

$$$$

     RDKit          3D

 49 52  0  0  0  0  0  0  0  0999 V2000
  139.3590   67.0120  226.8300 N   0  0  0  0  0  0  0  0  0  0  0  0
  140.4590   68.3540  226.7830 S   0  0  0  0  0  0  0  0  0  0  0  0
  141.8470   67.8950  226.4450 O   0  0  0  0  0  0  0  0  0  0  0  0
  140.5030   68.9620  228.1550 O   0  0  0  0  0  0  0  0  0  0  0  0
  139.9120   69.4680  225.5780 C   0  0  0  0  0  0  0  0  0  0  0  0
  140.6130   70.5920  225.2010 C   0  0  0  0  0  0  0  0  0  0  0  0
  140.1410   71.4600  224.2300 C   0  0  0  0  0  0  0  0  0  0  0  0
  138.9530   71.2440  223.5980 C   0  0  0  0  0  0  0  0  0  0  0  0
  138.3920   72.1090  222.5690 C   0  0  0  0  0  0  0  0  0  0  0  0
  139.1050   73.0040  221.9000 C   0  0  0  0  0  0  0  0  0  0  0  0
  138.8890   74.4400  222.1370 C   0  0  0  0  0  0  0  0  0  0  0  0
  139.9990   75.1870  222.2710 N   0  0  0  0  0  0  0  0  0  0  0  0
  139.9450   76.5150  222.4670 C   0  0  0  0  0  0  0  0  0  0  0  0
  141.1100   77.2320  222.5980 C   0  0  0  0  0  0  0  0  0  0  0  0
  141.0150   78.5900  222.7960 C   0  0  0  0  0  0  0  0  0  0  0  0
  139.7630   79.1810  222.8570 C   0  0  0  0  0  0  0  0  0  0  0  0
  139.7020   80.5150  223.0520 F   0  0  0  0  0  0  0  0  0  0  0  0
  138.5990   78.4320  222.7210 C   0  0  0  0  0  0  0  0  0  0  0  0
  138.6870   77.0780  222.5230 C   0  0  0  0  0  0  0  0  0  0  0  0
  137.5530   76.2830  222.3820 C   0  0  0  0  0  0  0  0  0  0  0  0
  136.4550   76.8890  222.4470 O   0  0  0  0  0  0  0  0  0  0  0  0
  137.6430   74.9400  222.1850 N   0  0  0  0  0  0  0  0  0  0  0  0
  136.4440   74.1570  222.0440 C   0  0  0  0  0  0  0  0  0  0  0  0
  135.7190   73.9050  223.3150 C   0  0  0  0  0  0  0  0  0  0  0  0
  135.3990   74.8630  224.2410 C   0  0  0  0  0  0  0  0  0  0  0  0
  134.7220   74.5650  225.4170 C   0  0  0  0  0  0  0  0  0  0  0  0
  134.3390   73.2730  225.7060 C   0  0  0  0  0  0  0  0  0  0  0  0
  134.6480   72.3040  224.7980 C   0  0  0  0  0  0  0  0  0  0  0  0
  135.3210   72.5990  223.6270 C   0  0  0  0  0  0  0  0  0  0  0  0
  138.2440   70.1030  223.9830 C   0  0  0  0  0  0  0  0  0  0  0  0
  138.7100   69.2380  224.9460 C   0  0  0  0  0  0  0  0  0  0  0  0
  139.9490   66.1360  226.8220 H   0  0  0  0  0  0  0  0  0  0  0  0
  138.8350   66.9980  227.7330 H   0  0  0  0  0  0  0  0  0  0  0  0
  141.5768   70.8070  225.6856 H   0  0  0  0  0  0  0  0  0  0  0  0
  140.7388   72.3439  223.9629 H   0  0  0  0  0  0  0  0  0  0  0  0
  137.3213   72.0146  222.3350 H   0  0  0  0  0  0  0  0  0  0  0  0
  139.8572   72.6736  221.1686 H   0  0  0  0  0  0  0  0  0  0  0  0
  142.0898   76.7346  222.5461 H   0  0  0  0  0  0  0  0  0  0  0  0
  141.9235   79.2005  222.9048 H   0  0  0  0  0  0  0  0  0  0  0  0
  137.6155   78.9220  222.7719 H   0  0  0  0  0  0  0  0  0  0  0  0
  135.7651   74.6886  221.3610 H   0  0  0  0  0  0  0  0  0  0  0  0
  136.7561   73.1737  221.6622 H   0  0  0  0  0  0  0  0  0  0  0  0
  135.6887   75.9061  224.0461 H   0  0  0  0  0  0  0  0  0  0  0  0
  134.4884   75.3716  226.1275 H   0  0  0  0  0  0  0  0  0  0  0  0
  133.8032   73.0322  226.6360 H   0  0  0  0  0  0  0  0  0  0  0  0
  134.3550   71.2635  225.0019 H   0  0  0  0  0  0  0  0  0  0  0  0
  135.5499   71.7865  222.9217 H   0  0  0  0  0  0  0  0  0  0  0  0
  137.2796   69.8890  223.4992 H   0  0  0  0  0  0  0  0  0  0  0  0
  138.1156   68.3522  225.2144 H   0  0  0  0  0  0  0  0  0  0  0  0
  1  2  1  0
  2  3  2  0
  2  4  2  0
  2  5  1  0
  5  6  2  0
  6  7  1  0
  7  8  2  0
  8  9  1  0
  9 10  2  0
 10 11  1  0
 11 12  2  0
 12 13  1  0
 13 14  2  0
 14 15  1  0
 15 16  2  0
 16 17  1  0
 16 18  1  0
 18 19  2  0
 19 20  1  0
 20 21  2  0
 20 22  1  0
 22 23  1  0
 23 24  1  0
 24 25  2  0
 25 26  1  0
 26 27  2  0
 27 28  1  0
 28 29  2  0
  8 30  1  0
 30 31  2  0
 31  5  1  0
 22 11  1  0
 29 24  1  0
 19 13  1  0
  1 32  1  0
  1 33  1  0
  6 34  1  0
  7 35  1  0
  9 36  1  0
 10 37  1  0
 14 38  1  0
 15 39  1  0
 18 40  1  0
 23 41  1  0
 23 42  1  0
 25 43  1  0
 26 44  1  0
 27 45  1  0
 28 46  1  0
 29 47  1  0
 30 48  1  0
 31 49  1  0
M  END
>  <smiles>  (11) 
NS(=O)(=O)c1ccc(/C=C/c2nc3ccc(F)cc3c(=O)n2Cc2ccccc2)cc1

>  <score_type>  (11) 
oracle

>  <origin>  (11) 
autodockgpu

>  <m_score__min__energy>  (11) 
-9.2599999999999998

>  <m_primary>  (11) 
energy

>  <rmsd>  (11) 
8.259591633415692

>  <m_score__min__rmsd>  (11) 
8.259591633415692

>  <meeko>  (11) 
{"free_energy": -8.25, "intermolecular_energy": -10.34, "internal_energy": -1.21, "cluster_size": 2, "cluster_id": 9, "rank_in_cluster": 1}

>  <energy>  (11) 
-8.77

>  <cluster_rmsd>  (11) 
0.99

>  <cluster>  (11) 
2

$$$$

     RDKit          3D

 49 52  0  0  0  0  0  0  0  0999 V2000
  132.8220   74.4990  227.5830 N   0  0  0  0  0  0  0  0  0  0  0  0
  133.3240   73.2850  226.4490 S   0  0  0  0  0  0  0  0  0  0  0  0
  132.1430   72.7150  225.7200 O   0  0  0  0  0  0  0  0  0  0  0  0
  133.9640   72.1680  227.2230 O   0  0  0  0  0  0  0  0  0  0  0  0
  134.4050   74.0110  225.3120 C   0  0  0  0  0  0  0  0  0  0  0  0
  134.6760   75.3610  225.2680 C   0  0  0  0  0  0  0  0  0  0  0  0
  135.5510   75.9050  224.3410 C   0  0  0  0  0  0  0  0  0  0  0  0
  136.1880   75.1270  223.4220 C   0  0  0  0  0  0  0  0  0  0  0  0
  137.1190   75.6250  222.4180 C   0  0  0  0  0  0  0  0  0  0  0  0
  138.2440   76.2580  222.7170 C   0  0  0  0  0  0  0  0  0  0  0  0
  139.5070   75.8510  222.0810 C   0  0  0  0  0  0  0  0  0  0  0  0
  139.8060   74.5420  222.1520 N   0  0  0  0  0  0  0  0  0  0  0  0
  140.9170   74.0330  221.5920 C   0  0  0  0  0  0  0  0  0  0  0  0
  141.1750   72.6880  221.6930 C   0  0  0  0  0  0  0  0  0  0  0  0
  142.3210   72.2030  221.1070 C   0  0  0  0  0  0  0  0  0  0  0  0
  143.1660   73.0790  220.4440 C   0  0  0  0  0  0  0  0  0  0  0  0
  144.2830   72.5740  219.8790 F   0  0  0  0  0  0  0  0  0  0  0  0
  142.8820   74.4370  220.3560 C   0  0  0  0  0  0  0  0  0  0  0  0
  141.7400   74.9260  220.9390 C   0  0  0  0  0  0  0  0  0  0  0  0
  141.4090   76.2770  220.8810 C   0  0  0  0  0  0  0  0  0  0  0  0
  142.2220   77.0080  220.2620 O   0  0  0  0  0  0  0  0  0  0  0  0
  140.2770   76.7600  221.4580 N   0  0  0  0  0  0  0  0  0  0  0  0
  139.9740   78.1640  221.3740 C   0  0  0  0  0  0  0  0  0  0  0  0
  140.8490   79.0340  222.1980 C   0  0  0  0  0  0  0  0  0  0  0  0
  141.3900   78.6850  223.4080 C   0  0  0  0  0  0  0  0  0  0  0  0
  142.1990   79.5470  224.1390 C   0  0  0  0  0  0  0  0  0  0  0  0
  142.4950   80.8080  223.6690 C   0  0  0  0  0  0  0  0  0  0  0  0
  141.9670   81.1760  222.4670 C   0  0  0  0  0  0  0  0  0  0  0  0
  141.1620   80.3200  221.7390 C   0  0  0  0  0  0  0  0  0  0  0  0
  135.9120   73.7580  223.4680 C   0  0  0  0  0  0  0  0  0  0  0  0
  135.0450   73.2150  224.3880 C   0  0  0  0  0  0  0  0  0  0  0  0
  131.8340   74.7670  227.3240 H   0  0  0  0  0  0  0  0  0  0  0  0
  132.7690   74.1020  228.5480 H   0  0  0  0  0  0  0  0  0  0  0  0
  134.1828   76.0276  225.9908 H   0  0  0  0  0  0  0  0  0  0  0  0
  135.7352   76.9894  224.3475 H   0  0  0  0  0  0  0  0  0  0  0  0
  136.8754   75.4673  221.3570 H   0  0  0  0  0  0  0  0  0  0  0  0
  138.2338   77.0870  223.4400 H   0  0  0  0  0  0  0  0  0  0  0  0
  140.4852   72.0179  222.2270 H   0  0  0  0  0  0  0  0  0  0  0  0
  142.5642   71.1317  221.1639 H   0  0  0  0  0  0  0  0  0  0  0  0
  143.5667   75.1136  219.8237 H   0  0  0  0  0  0  0  0  0  0  0  0
  140.0728   78.4743  220.3233 H   0  0  0  0  0  0  0  0  0  0  0  0
  138.9534   78.2872  221.7655 H   0  0  0  0  0  0  0  0  0  0  0  0
  141.1761   77.6859  223.8156 H   0  0  0  0  0  0  0  0  0  0  0  0
  142.6084   79.2182  225.1056 H   0  0  0  0  0  0  0  0  0  0  0  0
  143.1349   81.4939  224.2435 H   0  0  0  0  0  0  0  0  0  0  0  0
  142.1867   82.1770  222.0674 H   0  0  0  0  0  0  0  0  0  0  0  0
  140.7565   80.6575  220.7738 H   0  0  0  0  0  0  0  0  0  0  0  0
  136.4045   73.0920  222.7443 H   0  0  0  0  0  0  0  0  0  0  0  0
  134.8605   72.1306  224.3856 H   0  0  0  0  0  0  0  0  0  0  0  0
  1  2  1  0
  2  3  2  0
  2  4  2  0
  2  5  1  0
  5  6  2  0
  6  7  1  0
  7  8  2  0
  8  9  1  0
  9 10  2  0
 10 11  1  0
 11 12  2  0
 12 13  1  0
 13 14  2  0
 14 15  1  0
 15 16  2  0
 16 17  1  0
 16 18  1  0
 18 19  2  0
 19 20  1  0
 20 21  2  0
 20 22  1  0
 22 23  1  0
 23 24  1  0
 24 25  2  0
 25 26  1  0
 26 27  2  0
 27 28  1  0
 28 29  2  0
  8 30  1  0
 30 31  2  0
 31  5  1  0
 22 11  1  0
 29 24  1  0
 19 13  1  0
  1 32  1  0
  1 33  1  0
  6 34  1  0
  7 35  1  0
  9 36  1  0
 10 37  1  0
 14 38  1  0
 15 39  1  0
 18 40  1  0
 23 41  1  0
 23 42  1  0
 25 43  1  0
 26 44  1  0
 27 45  1  0
 28 46  1  0
 29 47  1  0
 30 48  1  0
 31 49  1  0
M  END
>  <smiles>  (12) 
NS(=O)(=O)c1ccc(/C=C/c2nc3ccc(F)cc3c(=O)n2Cc2ccccc2)cc1

>  <score_type>  (12) 
oracle

>  <origin>  (12) 
autodockgpu

>  <m_score__min__energy>  (12) 
-9.2599999999999998

>  <m_primary>  (12) 
energy

>  <rmsd>  (12) 
3.9624930775647726

>  <m_score__min__rmsd>  (12) 
3.9624930775647726

>  <meeko>  (12) 
{"free_energy": -8.4, "intermolecular_energy": -10.49, "internal_energy": -1.18, "cluster_size": 2, "cluster_id": 6, "rank_in_cluster": 1}

>  <energy>  (12) 
-8.64

>  <cluster_rmsd>  (12) 
0.64

>  <cluster>  (12) 
2

$$$$

     RDKit          3D

 49 52  0  0  0  0  0  0  0  0999 V2000
  145.9110   73.3570  218.2510 N   0  0  0  0  0  0  0  0  0  0  0  0
  145.8470   72.5050  219.7630 S   0  0  0  0  0  0  0  0  0  0  0  0
  146.4810   73.3120  220.8570 O   0  0  0  0  0  0  0  0  0  0  0  0
  146.6420   71.2390  219.6110 O   0  0  0  0  0  0  0  0  0  0  0  0
  144.1900   72.2070  220.1530 C   0  0  0  0  0  0  0  0  0  0  0  0
  143.5270   71.0400  219.8410 C   0  0  0  0  0  0  0  0  0  0  0  0
  142.1970   70.8390  220.1730 C   0  0  0  0  0  0  0  0  0  0  0  0
  141.4750   71.7910  220.8270 C   0  0  0  0  0  0  0  0  0  0  0  0
  140.0750   71.6540  221.2090 C   0  0  0  0  0  0  0  0  0  0  0  0
  139.6060   72.0060  222.3970 C   0  0  0  0  0  0  0  0  0  0  0  0
  138.5880   71.1760  223.0600 C   0  0  0  0  0  0  0  0  0  0  0  0
  137.3180   71.3780  222.6670 N   0  0  0  0  0  0  0  0  0  0  0  0
  136.2940   70.6700  223.1740 C   0  0  0  0  0  0  0  0  0  0  0  0
  135.0150   70.9150  222.7380 C   0  0  0  0  0  0  0  0  0  0  0  0
  133.9920   70.1710  223.2800 C   0  0  0  0  0  0  0  0  0  0  0  0
  134.2860   69.2120  224.2360 C   0  0  0  0  0  0  0  0  0  0  0  0
  133.2620   68.4970  224.7480 F   0  0  0  0  0  0  0  0  0  0  0  0
  135.5900   68.9820  224.6600 C   0  0  0  0  0  0  0  0  0  0  0  0
  136.6130   69.7220  224.1240 C   0  0  0  0  0  0  0  0  0  0  0  0
  137.9360   69.5330  224.5140 C   0  0  0  0  0  0  0  0  0  0  0  0
  138.1230   68.6450  225.3830 O   0  0  0  0  0  0  0  0  0  0  0  0
  138.9490   70.2670  223.9810 N   0  0  0  0  0  0  0  0  0  0  0  0
  140.3020   70.0380  224.4140 C   0  0  0  0  0  0  0  0  0  0  0  0
  140.6290   70.6090  225.7440 C   0  0  0  0  0  0  0  0  0  0  0  0
  141.2140   71.8320  225.9530 C   0  0  0  0  0  0  0  0  0  0  0  0
  141.5010   72.3120  227.2250 C   0  0  0  0  0  0  0  0  0  0  0  0
  141.2060   71.5670  228.3460 C   0  0  0  0  0  0  0  0  0  0  0  0
  140.6240   70.3480  228.1610 C   0  0  0  0  0  0  0  0  0  0  0  0
  140.3370   69.8690  226.8960 C   0  0  0  0  0  0  0  0  0  0  0  0
  142.1490   72.9740  221.1430 C   0  0  0  0  0  0  0  0  0  0  0  0
  143.4690   73.1760  220.8160 C   0  0  0  0  0  0  0  0  0  0  0  0
  145.1950   74.1310  218.3090 H   0  0  0  0  0  0  0  0  0  0  0  0
  146.8360   73.8270  218.1330 H   0  0  0  0  0  0  0  0  0  0  0  0
  144.0705   70.2433  219.3120 H   0  0  0  0  0  0  0  0  0  0  0  0
  141.7131   69.8890  219.9023 H   0  0  0  0  0  0  0  0  0  0  0  0
  139.3718   71.2369  220.4731 H   0  0  0  0  0  0  0  0  0  0  0  0
  139.9774   72.9180  222.8873 H   0  0  0  0  0  0  0  0  0  0  0  0
  134.8140   71.6838  221.9774 H   0  0  0  0  0  0  0  0  0  0  0  0
  132.9531   70.3357  222.9581 H   0  0  0  0  0  0  0  0  0  0  0  0
  135.7994   68.2134  225.4186 H   0  0  0  0  0  0  0  0  0  0  0  0
  140.4697   68.9517  224.4562 H   0  0  0  0  0  0  0  0  0  0  0  0
  140.9526   70.5467  223.6874 H   0  0  0  0  0  0  0  0  0  0  0  0
  141.4650   72.4553  225.0821 H   0  0  0  0  0  0  0  0  0  0  0  0
  141.9702   73.3004  227.3387 H   0  0  0  0  0  0  0  0  0  0  0  0
  141.4321   71.9426  229.3548 H   0  0  0  0  0  0  0  0  0  0  0  0
  140.3771   69.7316  229.0380 H   0  0  0  0  0  0  0  0  0  0  0  0
  139.8667   68.8801  226.7920 H   0  0  0  0  0  0  0  0  0  0  0  0
  141.6047   73.7706  221.6714 H   0  0  0  0  0  0  0  0  0  0  0  0
  143.9561   74.1242  221.0874 H   0  0  0  0  0  0  0  0  0  0  0  0
  1  2  1  0
  2  3  2  0
  2  4  2  0
  2  5  1  0
  5  6  2  0
  6  7  1  0
  7  8  2  0
  8  9  1  0
  9 10  2  0
 10 11  1  0
 11 12  2  0
 12 13  1  0
 13 14  2  0
 14 15  1  0
 15 16  2  0
 16 17  1  0
 16 18  1  0
 18 19  2  0
 19 20  1  0
 20 21  2  0
 20 22  1  0
 22 23  1  0
 23 24  1  0
 24 25  2  0
 25 26  1  0
 26 27  2  0
 27 28  1  0
 28 29  2  0
  8 30  1  0
 30 31  2  0
 31  5  1  0
 22 11  1  0
 29 24  1  0
 19 13  1  0
  1 32  1  0
  1 33  1  0
  6 34  1  0
  7 35  1  0
  9 36  1  0
 10 37  1  0
 14 38  1  0
 15 39  1  0
 18 40  1  0
 23 41  1  0
 23 42  1  0
 25 43  1  0
 26 44  1  0
 27 45  1  0
 28 46  1  0
 29 47  1  0
 30 48  1  0
 31 49  1  0
M  END
>  <smiles>  (13) 
NS(=O)(=O)c1ccc(/C=C/c2nc3ccc(F)cc3c(=O)n2Cc2ccccc2)cc1

>  <score_type>  (13) 
oracle

>  <origin>  (13) 
autodockgpu

>  <m_score__min__energy>  (13) 
-9.2599999999999998

>  <m_primary>  (13) 
energy

>  <rmsd>  (13) 
11.081042132693986

>  <m_score__min__rmsd>  (13) 
11.081042132693986

>  <meeko>  (13) 
{"free_energy": -8.35, "intermolecular_energy": -10.43, "internal_energy": -1.25, "cluster_size": 3, "cluster_id": 4, "rank_in_cluster": 2}

>  <energy>  (13) 
-8.57

>  <cluster_rmsd>  (13) 
1.19

>  <cluster>  (13) 
2

$$$$

     RDKit          3D

 49 52  0  0  0  0  0  0  0  0999 V2000
  141.0590   68.1070  227.5650 N   0  0  0  0  0  0  0  0  0  0  0  0
  140.4370   69.7190  227.7340 S   0  0  0  0  0  0  0  0  0  0  0  0
  141.4670   70.6280  228.3370 O   0  0  0  0  0  0  0  0  0  0  0  0
  139.2690   69.6660  228.6770 O   0  0  0  0  0  0  0  0  0  0  0  0
  140.0000   70.3050  226.1670 C   0  0  0  0  0  0  0  0  0  0  0  0
  139.0030   69.7530  225.3940 C   0  0  0  0  0  0  0  0  0  0  0  0
  138.6820   70.2520  224.1420 C   0  0  0  0  0  0  0  0  0  0  0  0
  139.3420   71.3190  223.6110 C   0  0  0  0  0  0  0  0  0  0  0  0
  139.0630   71.9000  222.3040 C   0  0  0  0  0  0  0  0  0  0  0  0
  139.2690   73.1760  222.0150 C   0  0  0  0  0  0  0  0  0  0  0  0
  140.5740   73.6100  221.4930 C   0  0  0  0  0  0  0  0  0  0  0  0
  141.5360   72.6710  221.4610 N   0  0  0  0  0  0  0  0  0  0  0  0
  142.7670   72.9270  220.9860 C   0  0  0  0  0  0  0  0  0  0  0  0
  143.7140   71.9310  220.9740 C   0  0  0  0  0  0  0  0  0  0  0  0
  144.9620   72.2300  220.4800 C   0  0  0  0  0  0  0  0  0  0  0  0
  145.2180   73.5110  220.0170 C   0  0  0  0  0  0  0  0  0  0  0  0
  146.4520   73.7740  219.5370 F   0  0  0  0  0  0  0  0  0  0  0  0
  144.2420   74.5010  220.0380 C   0  0  0  0  0  0  0  0  0  0  0  0
  142.9960   74.2090  220.5300 C   0  0  0  0  0  0  0  0  0  0  0  0
  141.9840   75.1640  220.5760 C   0  0  0  0  0  0  0  0  0  0  0  0
  142.2910   76.3000  220.1370 O   0  0  0  0  0  0  0  0  0  0  0  0
  140.7480   74.8710  221.0630 N   0  0  0  0  0  0  0  0  0  0  0  0
  139.7320   75.8890  221.0910 C   0  0  0  0  0  0  0  0  0  0  0  0
  140.0270   77.0310  221.9930 C   0  0  0  0  0  0  0  0  0  0  0  0
  141.2280   77.2520  222.6140 C   0  0  0  0  0  0  0  0  0  0  0  0
  141.4430   78.3390  223.4540 C   0  0  0  0  0  0  0  0  0  0  0  0
  140.4410   79.2520  223.7010 C   0  0  0  0  0  0  0  0  0  0  0  0
  139.2380   79.0510  223.0930 C   0  0  0  0  0  0  0  0  0  0  0  0
  139.0220   77.9700  222.2570 C   0  0  0  0  0  0  0  0  0  0  0  0
  140.3540   71.8770  224.3960 C   0  0  0  0  0  0  0  0  0  0  0  0
  140.6750   71.3840  225.6400 C   0  0  0  0  0  0  0  0  0  0  0  0
  141.9340   68.0560  228.1540 H   0  0  0  0  0  0  0  0  0  0  0  0
  140.3950   67.4120  227.9740 H   0  0  0  0  0  0  0  0  0  0  0  0
  138.4441   68.8890  225.7826 H   0  0  0  0  0  0  0  0  0  0  0  0
  137.8763   69.7760  223.5638 H   0  0  0  0  0  0  0  0  0  0  0  0
  138.6607   71.2452  221.5170 H   0  0  0  0  0  0  0  0  0  0  0  0
  138.4645   73.9110  222.1653 H   0  0  0  0  0  0  0  0  0  0  0  0
  143.4803   70.9236  221.3488 H   0  0  0  0  0  0  0  0  0  0  0  0
  145.7482   71.4612  220.4526 H   0  0  0  0  0  0  0  0  0  0  0  0
  144.4676   75.5102  219.6630 H   0  0  0  0  0  0  0  0  0  0  0  0
  139.6101   76.2804  220.0703 H   0  0  0  0  0  0  0  0  0  0  0  0
  138.8214   75.4105  221.4808 H   0  0  0  0  0  0  0  0  0  0  0  0
  142.0520   76.5439  222.4419 H   0  0  0  0  0  0  0  0  0  0  0  0
  142.4267   78.4719  223.9279 H   0  0  0  0  0  0  0  0  0  0  0  0
  140.6063   80.1128  224.3656 H   0  0  0  0  0  0  0  0  0  0  0  0
  138.4200   79.7646  223.2710 H   0  0  0  0  0  0  0  0  0  0  0  0
  138.0352   77.8448  221.7874 H   0  0  0  0  0  0  0  0  0  0  0  0
  140.9135   72.7402  224.0062 H   0  0  0  0  0  0  0  0  0  0  0  0
  141.4805   71.8573  226.2207 H   0  0  0  0  0  0  0  0  0  0  0  0
  1  2  1  0
  2  3  2  0
  2  4  2  0
  2  5  1  0
  5  6  2  0
  6  7  1  0
  7  8  2  0
  8  9  1  0
  9 10  2  0
 10 11  1  0
 11 12  2  0
 12 13  1  0
 13 14  2  0
 14 15  1  0
 15 16  2  0
 16 17  1  0
 16 18  1  0
 18 19  2  0
 19 20  1  0
 20 21  2  0
 20 22  1  0
 22 23  1  0
 23 24  1  0
 24 25  2  0
 25 26  1  0
 26 27  2  0
 27 28  1  0
 28 29  2  0
  8 30  1  0
 30 31  2  0
 31  5  1  0
 22 11  1  0
 29 24  1  0
 19 13  1  0
  1 32  1  0
  1 33  1  0
  6 34  1  0
  7 35  1  0
  9 36  1  0
 10 37  1  0
 14 38  1  0
 15 39  1  0
 18 40  1  0
 23 41  1  0
 23 42  1  0
 25 43  1  0
 26 44  1  0
 27 45  1  0
 28 46  1  0
 29 47  1  0
 30 48  1  0
 31 49  1  0
M  END
>  <smiles>  (14) 
NS(=O)(=O)c1ccc(/C=C/c2nc3ccc(F)cc3c(=O)n2Cc2ccccc2)cc1

>  <score_type>  (14) 
oracle

>  <origin>  (14) 
autodockgpu

>  <m_score__min__energy>  (14) 
-9.2599999999999998

>  <m_primary>  (14) 
energy

>  <rmsd>  (14) 
5.101137354130822

>  <m_score__min__rmsd>  (14) 
5.101137354130822

>  <meeko>  (14) 
{"free_energy": -8.57, "intermolecular_energy": -10.66, "internal_energy": -1.17, "cluster_size": 6, "cluster_id": 2, "rank_in_cluster": 5}

>  <energy>  (14) 
-8.47

>  <cluster_rmsd>  (14) 
1.0

>  <cluster>  (14) 
2

$$$$

     RDKit          3D

 49 52  0  0  0  0  0  0  0  0999 V2000
  139.2110   67.1460  226.4010 N   0  0  0  0  0  0  0  0  0  0  0  0
  140.1320   68.5280  226.9080 S   0  0  0  0  0  0  0  0  0  0  0  0
  141.5680   68.1570  227.1370 O   0  0  0  0  0  0  0  0  0  0  0  0
  139.5700   69.0010  228.2170 O   0  0  0  0  0  0  0  0  0  0  0  0
  140.0400   69.7310  225.6700 C   0  0  0  0  0  0  0  0  0  0  0  0
  140.8060   70.8750  225.6550 C   0  0  0  0  0  0  0  0  0  0  0  0
  140.7040   71.8170  224.6430 C   0  0  0  0  0  0  0  0  0  0  0  0
  139.8320   71.6560  223.6080 C   0  0  0  0  0  0  0  0  0  0  0  0
  139.6660   72.5990  222.5100 C   0  0  0  0  0  0  0  0  0  0  0  0
  140.5880   72.8060  221.5820 C   0  0  0  0  0  0  0  0  0  0  0  0
  140.9500   74.1810  221.2000 C   0  0  0  0  0  0  0  0  0  0  0  0
  140.5910   75.1450  222.0650 N   0  0  0  0  0  0  0  0  0  0  0  0
  140.8810   76.4400  221.8500 C   0  0  0  0  0  0  0  0  0  0  0  0
  140.4920   77.3860  222.7660 C   0  0  0  0  0  0  0  0  0  0  0  0
  140.8070   78.7010  222.5130 C   0  0  0  0  0  0  0  0  0  0  0  0
  141.4970   79.0210  221.3550 C   0  0  0  0  0  0  0  0  0  0  0  0
  141.7920   80.3200  221.1330 F   0  0  0  0  0  0  0  0  0  0  0  0
  141.8800   78.0440  220.4420 C   0  0  0  0  0  0  0  0  0  0  0  0
  141.5680   76.7310  220.6900 C   0  0  0  0  0  0  0  0  0  0  0  0
  141.9280   75.7140  219.8100 C   0  0  0  0  0  0  0  0  0  0  0  0
  142.5520   76.0820  218.7840 O   0  0  0  0  0  0  0  0  0  0  0  0
  141.6180   74.4140  220.0580 N   0  0  0  0  0  0  0  0  0  0  0  0
  142.0090   73.3950  219.1200 C   0  0  0  0  0  0  0  0  0  0  0  0
  143.3770   72.8580  219.3270 C   0  0  0  0  0  0  0  0  0  0  0  0
  144.5180   73.6150  219.3900 C   0  0  0  0  0  0  0  0  0  0  0  0
  145.7750   73.0530  219.5810 C   0  0  0  0  0  0  0  0  0  0  0  0
  145.9280   71.6910  219.7150 C   0  0  0  0  0  0  0  0  0  0  0  0
  144.8060   70.9180  219.6550 C   0  0  0  0  0  0  0  0  0  0  0  0
  143.5550   71.4760  219.4660 C   0  0  0  0  0  0  0  0  0  0  0  0
  139.0540   70.4950  223.6250 C   0  0  0  0  0  0  0  0  0  0  0  0
  139.1550   69.5580  224.6280 C   0  0  0  0  0  0  0  0  0  0  0  0
  139.4950   66.9410  225.4050 H   0  0  0  0  0  0  0  0  0  0  0  0
  139.4780   66.3030  226.9570 H   0  0  0  0  0  0  0  0  0  0  0  0
  141.5219   71.0470  226.4722 H   0  0  0  0  0  0  0  0  0  0  0  0
  141.3405   72.7136  224.6761 H   0  0  0  0  0  0  0  0  0  0  0  0
  138.7268   73.1683  222.4485 H   0  0  0  0  0  0  0  0  0  0  0  0
  141.0828   71.9515  221.0972 H   0  0  0  0  0  0  0  0  0  0  0  0
  139.9441   77.1005  223.6761 H   0  0  0  0  0  0  0  0  0  0  0  0
  140.5144   79.4894  223.2220 H   0  0  0  0  0  0  0  0  0  0  0  0
  142.4280   78.3214  219.5295 H   0  0  0  0  0  0  0  0  0  0  0  0
  141.2967   72.5609  219.2026 H   0  0  0  0  0  0  0  0  0  0  0  0
  142.0062   73.8675  218.1266 H   0  0  0  0  0  0  0  0  0  0  0  0
  144.4360   74.7070  219.2856 H   0  0  0  0  0  0  0  0  0  0  0  0
  146.6597   73.7052  219.6257 H   0  0  0  0  0  0  0  0  0  0  0  0
  146.9209   71.2420  219.8652 H   0  0  0  0  0  0  0  0  0  0  0  0
  144.8982   69.8268  219.7592 H   0  0  0  0  0  0  0  0  0  0  0  0
  142.6757   70.8164  219.4237 H   0  0  0  0  0  0  0  0  0  0  0  0
  138.3365   70.3243  222.8089 H   0  0  0  0  0  0  0  0  0  0  0  0
  138.5212   68.6595  224.5975 H   0  0  0  0  0  0  0  0  0  0  0  0
  1  2  1  0
  2  3  2  0
  2  4  2  0
  2  5  1  0
  5  6  2  0
  6  7  1  0
  7  8  2  0
  8  9  1  0
  9 10  2  0
 10 11  1  0
 11 12  2  0
 12 13  1  0
 13 14  2  0
 14 15  1  0
 15 16  2  0
 16 17  1  0
 16 18  1  0
 18 19  2  0
 19 20  1  0
 20 21  2  0
 20 22  1  0
 22 23  1  0
 23 24  1  0
 24 25  2  0
 25 26  1  0
 26 27  2  0
 27 28  1  0
 28 29  2  0
  8 30  1  0
 30 31  2  0
 31  5  1  0
 22 11  1  0
 29 24  1  0
 19 13  1  0
  1 32  1  0
  1 33  1  0
  6 34  1  0
  7 35  1  0
  9 36  1  0
 10 37  1  0
 14 38  1  0
 15 39  1  0
 18 40  1  0
 23 41  1  0
 23 42  1  0
 25 43  1  0
 26 44  1  0
 27 45  1  0
 28 46  1  0
 29 47  1  0
 30 48  1  0
 31 49  1  0
M  END
>  <smiles>  (15) 
NS(=O)(=O)c1ccc(/C=C/c2nc3ccc(F)cc3c(=O)n2Cc2ccccc2)cc1

>  <score_type>  (15) 
oracle

>  <origin>  (15) 
autodockgpu

>  <m_score__min__energy>  (15) 
-9.2599999999999998

>  <m_primary>  (15) 
energy

>  <rmsd>  (15) 
8.724931415836165

>  <m_score__min__rmsd>  (15) 
8.724931415836165

>  <meeko>  (15) 
{"free_energy": -8.44, "intermolecular_energy": -10.52, "internal_energy": -1.21, "cluster_size": 8, "cluster_id": 1, "rank_in_cluster": 7}

>  <energy>  (15) 
-9.07

>  <cluster_rmsd>  (15) 
0.0

>  <cluster>  (15) 
3

$$$$

     RDKit          3D

 49 52  0  0  0  0  0  0  0  0999 V2000
  146.2700   73.3850  219.1840 N   0  0  0  0  0  0  0  0  0  0  0  0
  145.1600   73.1940  220.5050 S   0  0  0  0  0  0  0  0  0  0  0  0
  145.8590   73.3780  221.8200 O   0  0  0  0  0  0  0  0  0  0  0  0
  144.6320   71.7890  220.4630 O   0  0  0  0  0  0  0  0  0  0  0  0
  143.9110   74.3790  220.3470 C   0  0  0  0  0  0  0  0  0  0  0  0
  144.1000   75.6190  219.7790 C   0  0  0  0  0  0  0  0  0  0  0  0
  143.0730   76.5430  219.6690 C   0  0  0  0  0  0  0  0  0  0  0  0
  141.8170   76.2660  220.1210 C   0  0  0  0  0  0  0  0  0  0  0  0
  140.6870   77.1830  220.0420 C   0  0  0  0  0  0  0  0  0  0  0  0
  139.4440   76.7880  219.8090 C   0  0  0  0  0  0  0  0  0  0  0  0
  138.4910   76.6670  220.9240 C   0  0  0  0  0  0  0  0  0  0  0  0
  138.0010   75.4360  221.1470 N   0  0  0  0  0  0  0  0  0  0  0  0
  137.1410   75.1810  222.1480 C   0  0  0  0  0  0  0  0  0  0  0  0
  136.6690   73.9040  222.3330 C   0  0  0  0  0  0  0  0  0  0  0  0
  135.7910   73.6810  223.3680 C   0  0  0  0  0  0  0  0  0  0  0  0
  135.4160   74.7410  224.1780 C   0  0  0  0  0  0  0  0  0  0  0  0
  134.5540   74.4920  225.1860 F   0  0  0  0  0  0  0  0  0  0  0  0
  135.9080   76.0250  223.9700 C   0  0  0  0  0  0  0  0  0  0  0  0
  136.7840   76.2530  222.9390 C   0  0  0  0  0  0  0  0  0  0  0  0
  137.3050   77.5190  222.6870 C   0  0  0  0  0  0  0  0  0  0  0  0
  136.9210   78.4280  223.4640 O   0  0  0  0  0  0  0  0  0  0  0  0
  138.1740   77.7420  221.6650 N   0  0  0  0  0  0  0  0  0  0  0  0
  138.6880   79.0670  221.4400 C   0  0  0  0  0  0  0  0  0  0  0  0
  139.9720   79.3550  222.1260 C   0  0  0  0  0  0  0  0  0  0  0  0
  140.7540   80.4590  221.9000 C   0  0  0  0  0  0  0  0  0  0  0  0
  141.9530   80.6710  222.5710 C   0  0  0  0  0  0  0  0  0  0  0  0
  142.4120   79.7670  223.5040 C   0  0  0  0  0  0  0  0  0  0  0  0
  141.6500   78.6620  223.7440 C   0  0  0  0  0  0  0  0  0  0  0  0
  140.4570   78.4490  223.0780 C   0  0  0  0  0  0  0  0  0  0  0  0
  141.6270   75.0080  220.6970 C   0  0  0  0  0  0  0  0  0  0  0  0
  142.6450   74.0890  220.8070 C   0  0  0  0  0  0  0  0  0  0  0  0
  145.7190   73.7940  218.3810 H   0  0  0  0  0  0  0  0  0  0  0  0
  147.0030   74.0910  219.4190 H   0  0  0  0  0  0  0  0  0  0  0  0
  145.0981   75.8847  219.4005 H   0  0  0  0  0  0  0  0  0  0  0  0
  143.2755   77.5206  219.2072 H   0  0  0  0  0  0  0  0  0  0  0  0
  140.8757   78.2575  220.1830 H   0  0  0  0  0  0  0  0  0  0  0  0
  139.1247   76.5508  218.7835 H   0  0  0  0  0  0  0  0  0  0  0  0
  136.9844   73.0832  221.6721 H   0  0  0  0  0  0  0  0  0  0  0  0
  135.3910   72.6727  223.5507 H   0  0  0  0  0  0  0  0  0  0  0  0
  135.5974   76.8510  224.6267 H   0  0  0  0  0  0  0  0  0  0  0  0
  138.8399   79.1973  220.3584 H   0  0  0  0  0  0  0  0  0  0  0  0
  137.9473   79.7645  221.8581 H   0  0  0  0  0  0  0  0  0  0  0  0
  140.4206   81.2031  221.1616 H   0  0  0  0  0  0  0  0  0  0  0  0
  142.5436   81.5733  222.3540 H   0  0  0  0  0  0  0  0  0  0  0  0
  143.3603   79.9310  224.0368 H   0  0  0  0  0  0  0  0  0  0  0  0
  141.9919   77.9235  224.4840 H   0  0  0  0  0  0  0  0  0  0  0  0
  139.8732   77.5439  223.3017 H   0  0  0  0  0  0  0  0  0  0  0  0
  140.6289   74.7427  221.0758 H   0  0  0  0  0  0  0  0  0  0  0  0
  142.4457   73.1104  221.2680 H   0  0  0  0  0  0  0  0  0  0  0  0
  1  2  1  0
  2  3  2  0
  2  4  2  0
  2  5  1  0
  5  6  2  0
  6  7  1  0
  7  8  2  0
  8  9  1  0
  9 10  2  0
 10 11  1  0
 11 12  2  0
 12 13  1  0
 13 14  2  0
 14 15  1  0
 15 16  2  0
 16 17  1  0
 16 18  1  0
 18 19  2  0
 19 20  1  0
 20 21  2  0
 20 22  1  0
 22 23  1  0
 23 24  1  0
 24 25  2  0
 25 26  1  0
 26 27  2  0
 27 28  1  0
 28 29  2  0
  8 30  1  0
 30 31  2  0
 31  5  1  0
 22 11  1  0
 29 24  1  0
 19 13  1  0
  1 32  1  0
  1 33  1  0
  6 34  1  0
  7 35  1  0
  9 36  1  0
 10 37  1  0
 14 38  1  0
 15 39  1  0
 18 40  1  0
 23 41  1  0
 23 42  1  0
 25 43  1  0
 26 44  1  0
 27 45  1  0
 28 46  1  0
 29 47  1  0
 30 48  1  0
 31 49  1  0
M  END
>  <smiles>  (16) 
NS(=O)(=O)c1ccc(/C=C/c2nc3ccc(F)cc3c(=O)n2Cc2ccccc2)cc1

>  <score_type>  (16) 
oracle

>  <origin>  (16) 
autodockgpu

>  <m_score__min__energy>  (16) 
-9.2599999999999998

>  <m_primary>  (16) 
energy

>  <rmsd>  (16) 
4.85569798265482

>  <m_score__min__rmsd>  (16) 
4.85569798265482

>  <meeko>  (16) 
{"free_energy": -7.71, "intermolecular_energy": -9.8, "internal_energy": -1.58, "cluster_size": 3, "cluster_id": 8, "rank_in_cluster": 3}

>  <energy>  (16) 
-9.06

>  <cluster_rmsd>  (16) 
0.24

>  <cluster>  (16) 
3

$$$$

     RDKit          3D

 49 52  0  0  0  0  0  0  0  0999 V2000
  139.2290   67.3600  226.3470 N   0  0  0  0  0  0  0  0  0  0  0  0
  139.8930   68.9340  226.6630 S   0  0  0  0  0  0  0  0  0  0  0  0
  141.3760   68.8540  226.8720 O   0  0  0  0  0  0  0  0  0  0  0  0
  139.2800   69.4440  227.9360 O   0  0  0  0  0  0  0  0  0  0  0  0
  139.5560   69.9520  225.3070 C   0  0  0  0  0  0  0  0  0  0  0  0
  138.3610   69.9440  224.6230 C   0  0  0  0  0  0  0  0  0  0  0  0
  138.1290   70.7780  223.5400 C   0  0  0  0  0  0  0  0  0  0  0  0
  139.0770   71.6490  223.0970 C   0  0  0  0  0  0  0  0  0  0  0  0
  138.9090   72.5550  221.9680 C   0  0  0  0  0  0  0  0  0  0  0  0
  139.3590   73.8010  221.9600 C   0  0  0  0  0  0  0  0  0  0  0  0
  140.6840   74.0990  221.3910 C   0  0  0  0  0  0  0  0  0  0  0  0
  141.5760   73.0940  221.4200 N   0  0  0  0  0  0  0  0  0  0  0  0
  142.8130   73.2230  220.9130 C   0  0  0  0  0  0  0  0  0  0  0  0
  143.6870   72.1640  220.9670 C   0  0  0  0  0  0  0  0  0  0  0  0
  144.9440   72.3340  220.4370 C   0  0  0  0  0  0  0  0  0  0  0  0
  145.2830   73.5540  219.8740 C   0  0  0  0  0  0  0  0  0  0  0  0
  146.5240   73.6910  219.3620 F   0  0  0  0  0  0  0  0  0  0  0  0
  144.3800   74.6110  219.8300 C   0  0  0  0  0  0  0  0  0  0  0  0
  143.1250   74.4470  220.3580 C   0  0  0  0  0  0  0  0  0  0  0  0
  142.1830   75.4730  220.3410 C   0  0  0  0  0  0  0  0  0  0  0  0
  142.5630   76.5470  219.8130 O   0  0  0  0  0  0  0  0  0  0  0  0
  140.9390   75.3080  220.8640 N   0  0  0  0  0  0  0  0  0  0  0  0
  139.9980   76.3960  220.8250 C   0  0  0  0  0  0  0  0  0  0  0  0
  140.2240   77.4440  221.8520 C   0  0  0  0  0  0  0  0  0  0  0  0
  141.4530   77.8640  222.2890 C   0  0  0  0  0  0  0  0  0  0  0  0
  141.6010   78.8480  223.2600 C   0  0  0  0  0  0  0  0  0  0  0  0
  140.5010   79.4500  223.8310 C   0  0  0  0  0  0  0  0  0  0  0  0
  139.2690   79.0470  223.4100 C   0  0  0  0  0  0  0  0  0  0  0  0
  139.1200   78.0690  222.4450 C   0  0  0  0  0  0  0  0  0  0  0  0
  140.2890   71.6550  223.7930 C   0  0  0  0  0  0  0  0  0  0  0  0
  140.5220   70.8300  224.8690 C   0  0  0  0  0  0  0  0  0  0  0  0
  139.7340   66.9830  225.5000 H   0  0  0  0  0  0  0  0  0  0  0  0
  139.4490   66.7050  227.1300 H   0  0  0  0  0  0  0  0  0  0  0  0
  137.5664   69.2551  224.9456 H   0  0  0  0  0  0  0  0  0  0  0  0
  137.1569   70.7350  223.0270 H   0  0  0  0  0  0  0  0  0  0  0  0
  138.3813   72.1852  221.0765 H   0  0  0  0  0  0  0  0  0  0  0  0
  138.7438   74.6116  222.3777 H   0  0  0  0  0  0  0  0  0  0  0  0
  143.3893   71.2075  221.4214 H   0  0  0  0  0  0  0  0  0  0  0  0
  145.6729   71.5104  220.4596 H   0  0  0  0  0  0  0  0  0  0  0  0
  144.6699   75.5700  219.3757 H   0  0  0  0  0  0  0  0  0  0  0  0
  140.0598   76.8680  219.8334 H   0  0  0  0  0  0  0  0  0  0  0  0
  139.0094   75.9616  221.0344 H   0  0  0  0  0  0  0  0  0  0  0  0
  142.3547   77.4063  221.8561 H   0  0  0  0  0  0  0  0  0  0  0  0
  142.6102   79.1501  223.5767 H   0  0  0  0  0  0  0  0  0  0  0  0
  140.6133   80.2287  224.5998 H   0  0  0  0  0  0  0  0  0  0  0  0
  138.3729   79.5107  223.8482 H   0  0  0  0  0  0  0  0  0  0  0  0
  138.1070   77.7736  222.1344 H   0  0  0  0  0  0  0  0  0  0  0  0
  141.0839   72.3430  223.4693 H   0  0  0  0  0  0  0  0  0  0  0  0
  141.4921   70.8723  225.3858 H   0  0  0  0  0  0  0  0  0  0  0  0
  1  2  1  0
  2  3  2  0
  2  4  2  0
  2  5  1  0
  5  6  2  0
  6  7  1  0
  7  8  2  0
  8  9  1  0
  9 10  2  0
 10 11  1  0
 11 12  2  0
 12 13  1  0
 13 14  2  0
 14 15  1  0
 15 16  2  0
 16 17  1  0
 16 18  1  0
 18 19  2  0
 19 20  1  0
 20 21  2  0
 20 22  1  0
 22 23  1  0
 23 24  1  0
 24 25  2  0
 25 26  1  0
 26 27  2  0
 27 28  1  0
 28 29  2  0
  8 30  1  0
 30 31  2  0
 31  5  1  0
 22 11  1  0
 29 24  1  0
 19 13  1  0
  1 32  1  0
  1 33  1  0
  6 34  1  0
  7 35  1  0
  9 36  1  0
 10 37  1  0
 14 38  1  0
 15 39  1  0
 18 40  1  0
 23 41  1  0
 23 42  1  0
 25 43  1  0
 26 44  1  0
 27 45  1  0
 28 46  1  0
 29 47  1  0
 30 48  1  0
 31 49  1  0
M  END
>  <smiles>  (17) 
NS(=O)(=O)c1ccc(/C=C/c2nc3ccc(F)cc3c(=O)n2Cc2ccccc2)cc1

>  <score_type>  (17) 
oracle

>  <origin>  (17) 
autodockgpu

>  <m_score__min__energy>  (17) 
-9.2599999999999998

>  <m_primary>  (17) 
energy

>  <rmsd>  (17) 
4.992412799827939

>  <m_score__min__rmsd>  (17) 
4.992412799827939

>  <meeko>  (17) 
{"free_energy": -8.64, "intermolecular_energy": -10.73, "internal_energy": -1.27, "cluster_size": 6, "cluster_id": 2, "rank_in_cluster": 4}

>  <energy>  (17) 
-9.04

>  <cluster_rmsd>  (17) 
0.11

>  <cluster>  (17) 
3

$$$$

     RDKit          3D

 49 52  0  0  0  0  0  0  0  0999 V2000
  145.7210   73.3910  218.0740 N   0  0  0  0  0  0  0  0  0  0  0  0
  145.7660   72.8630  219.7270 S   0  0  0  0  0  0  0  0  0  0  0  0
  146.6420   73.7600  220.5500 O   0  0  0  0  0  0  0  0  0  0  0  0
  146.3680   71.4880  219.7550 O   0  0  0  0  0  0  0  0  0  0  0  0
  144.1560   72.8970  220.3560 C   0  0  0  0  0  0  0  0  0  0  0  0
  143.4830   71.7800  220.7980 C   0  0  0  0  0  0  0  0  0  0  0  0
  142.1910   71.8480  221.2960 C   0  0  0  0  0  0  0  0  0  0  0  0
  141.5210   73.0320  221.3730 C   0  0  0  0  0  0  0  0  0  0  0  0
  140.1640   73.1840  221.8840 C   0  0  0  0  0  0  0  0  0  0  0  0
  139.3380   72.1660  222.0720 C   0  0  0  0  0  0  0  0  0  0  0  0
  139.4960   71.3010  223.2520 C   0  0  0  0  0  0  0  0  0  0  0  0
  140.0980   71.8620  224.3160 N   0  0  0  0  0  0  0  0  0  0  0  0
  140.2840   71.1920  225.4660 C   0  0  0  0  0  0  0  0  0  0  0  0
  140.9040   71.8110  226.5240 C   0  0  0  0  0  0  0  0  0  0  0  0
  141.0760   71.0940  227.6840 C   0  0  0  0  0  0  0  0  0  0  0  0
  140.6240   69.7850  227.7450 C   0  0  0  0  0  0  0  0  0  0  0  0
  140.8070   69.1060  228.8980 F   0  0  0  0  0  0  0  0  0  0  0  0
  139.9980   69.1800  226.6600 C   0  0  0  0  0  0  0  0  0  0  0  0
  139.8250   69.8910  225.5000 C   0  0  0  0  0  0  0  0  0  0  0  0
  139.2060   69.3330  224.3850 C   0  0  0  0  0  0  0  0  0  0  0  0
  138.8220   68.1440  224.5160 O   0  0  0  0  0  0  0  0  0  0  0  0
  139.0340   70.0400  223.2360 N   0  0  0  0  0  0  0  0  0  0  0  0
  138.3890   69.4230  222.1070 C   0  0  0  0  0  0  0  0  0  0  0  0
  139.2570   68.5050  221.3270 C   0  0  0  0  0  0  0  0  0  0  0  0
  139.1890   67.1370  221.3650 C   0  0  0  0  0  0  0  0  0  0  0  0
  140.0340   66.3280  220.6140 C   0  0  0  0  0  0  0  0  0  0  0  0
  140.9900   66.8790  219.7870 C   0  0  0  0  0  0  0  0  0  0  0  0
  141.0740   68.2380  219.7340 C   0  0  0  0  0  0  0  0  0  0  0  0
  140.2340   69.0430  220.4810 C   0  0  0  0  0  0  0  0  0  0  0  0
  142.2050   74.1640  220.9240 C   0  0  0  0  0  0  0  0  0  0  0  0
  143.4870   74.0990  220.4300 C   0  0  0  0  0  0  0  0  0  0  0  0
  144.7970   73.0690  217.6770 H   0  0  0  0  0  0  0  0  0  0  0  0
  145.7100   74.4340  218.0210 H   0  0  0  0  0  0  0  0  0  0  0  0
  143.9864   70.8029  220.7546 H   0  0  0  0  0  0  0  0  0  0  0  0
  141.6961   70.9264  221.6363 H   0  0  0  0  0  0  0  0  0  0  0  0
  139.8079   74.1963  222.1258 H   0  0  0  0  0  0  0  0  0  0  0  0
  138.5349   71.9673  221.3471 H   0  0  0  0  0  0  0  0  0  0  0  0
  141.2530   72.8512  226.4451 H   0  0  0  0  0  0  0  0  0  0  0  0
  141.5669   71.5539  228.5544 H   0  0  0  0  0  0  0  0  0  0  0  0
  139.6449   68.1407  226.7318 H   0  0  0  0  0  0  0  0  0  0  0  0
  137.5261   68.8491  222.4758 H   0  0  0  0  0  0  0  0  0  0  0  0
  138.1044   70.2383  221.4256 H   0  0  0  0  0  0  0  0  0  0  0  0
  138.4384   66.6616  222.0135 H   0  0  0  0  0  0  0  0  0  0  0  0
  139.9388   65.2341  220.6803 H   0  0  0  0  0  0  0  0  0  0  0  0
  141.6614   66.2436  219.1908 H   0  0  0  0  0  0  0  0  0  0  0  0
  141.8270   68.7051  219.0823 H   0  0  0  0  0  0  0  0  0  0  0  0
  140.3362   70.1358  220.4086 H   0  0  0  0  0  0  0  0  0  0  0  0
  141.7012   75.1409  220.9669 H   0  0  0  0  0  0  0  0  0  0  0  0
  143.9847   75.0190  220.0895 H   0  0  0  0  0  0  0  0  0  0  0  0
  1  2  1  0
  2  3  2  0
  2  4  2  0
  2  5  1  0
  5  6  2  0
  6  7  1  0
  7  8  2  0
  8  9  1  0
  9 10  2  0
 10 11  1  0
 11 12  2  0
 12 13  1  0
 13 14  2  0
 14 15  1  0
 15 16  2  0
 16 17  1  0
 16 18  1  0
 18 19  2  0
 19 20  1  0
 20 21  2  0
 20 22  1  0
 22 23  1  0
 23 24  1  0
 24 25  2  0
 25 26  1  0
 26 27  2  0
 27 28  1  0
 28 29  2  0
  8 30  1  0
 30 31  2  0
 31  5  1  0
 22 11  1  0
 29 24  1  0
 19 13  1  0
  1 32  1  0
  1 33  1  0
  6 34  1  0
  7 35  1  0
  9 36  1  0
 10 37  1  0
 14 38  1  0
 15 39  1  0
 18 40  1  0
 23 41  1  0
 23 42  1  0
 25 43  1  0
 26 44  1  0
 27 45  1  0
 28 46  1  0
 29 47  1  0
 30 48  1  0
 31 49  1  0
M  END
>  <smiles>  (18) 
NS(=O)(=O)c1ccc(/C=C/c2nc3ccc(F)cc3c(=O)n2Cc2ccccc2)cc1

>  <score_type>  (18) 
oracle

>  <origin>  (18) 
autodockgpu

>  <m_score__min__energy>  (18) 
-9.2599999999999998

>  <m_primary>  (18) 
energy

>  <rmsd>  (18) 
12.045036293694984

>  <m_score__min__rmsd>  (18) 
12.045036293694984

>  <meeko>  (18) 
{"free_energy": -8.71, "intermolecular_energy": -10.79, "internal_energy": -1.67, "cluster_size": 15, "cluster_id": 3, "rank_in_cluster": 6}

>  <energy>  (18) 
-8.73

>  <cluster_rmsd>  (18) 
0.32

>  <cluster>  (18) 
3

$$$$

     RDKit          3D

 49 52  0  0  0  0  0  0  0  0999 V2000
  142.1860   78.2950  220.8880 N   0  0  0  0  0  0  0  0  0  0  0  0
  140.9350   77.8570  222.0110 S   0  0  0  0  0  0  0  0  0  0  0  0
  139.6680   78.6030  221.7140 O   0  0  0  0  0  0  0  0  0  0  0  0
  141.3890   78.2600  223.3850 O   0  0  0  0  0  0  0  0  0  0  0  0
  140.6490   76.1580  221.8760 C   0  0  0  0  0  0  0  0  0  0  0  0
  141.5570   75.2680  221.3460 C   0  0  0  0  0  0  0  0  0  0  0  0
  141.2910   73.9110  221.2560 C   0  0  0  0  0  0  0  0  0  0  0  0
  140.1090   73.3890  221.6890 C   0  0  0  0  0  0  0  0  0  0  0  0
  139.7560   71.9760  221.6280 C   0  0  0  0  0  0  0  0  0  0  0  0
  138.8210   71.4250  222.3890 C   0  0  0  0  0  0  0  0  0  0  0  0
  139.2070   70.6160  223.5560 C   0  0  0  0  0  0  0  0  0  0  0  0
  139.7700   71.2860  224.5760 N   0  0  0  0  0  0  0  0  0  0  0  0
  140.1470   70.6730  225.7100 C   0  0  0  0  0  0  0  0  0  0  0  0
  140.7180   71.4050  226.7230 C   0  0  0  0  0  0  0  0  0  0  0  0
  141.0910   70.7430  227.8700 C   0  0  0  0  0  0  0  0  0  0  0  0
  140.8800   69.3760  227.9620 C   0  0  0  0  0  0  0  0  0  0  0  0
  141.2550   68.7540  229.1000 F   0  0  0  0  0  0  0  0  0  0  0  0
  140.2990   68.6580  226.9230 C   0  0  0  0  0  0  0  0  0  0  0  0
  139.9260   69.3130  225.7770 C   0  0  0  0  0  0  0  0  0  0  0  0
  139.3420   68.6420  224.7060 C   0  0  0  0  0  0  0  0  0  0  0  0
  139.1810   67.4060  224.8640 O   0  0  0  0  0  0  0  0  0  0  0  0
  138.9720   69.2930  223.5710 N   0  0  0  0  0  0  0  0  0  0  0  0
  138.3720   68.5590  222.4890 C   0  0  0  0  0  0  0  0  0  0  0  0
  136.9120   68.3320  222.6330 C   0  0  0  0  0  0  0  0  0  0  0  0
  136.1820   67.4260  221.9080 C   0  0  0  0  0  0  0  0  0  0  0  0
  134.8130   67.2620  222.0850 C   0  0  0  0  0  0  0  0  0  0  0  0
  134.1230   68.0150  223.0100 C   0  0  0  0  0  0  0  0  0  0  0  0
  134.8300   68.9220  223.7420 C   0  0  0  0  0  0  0  0  0  0  0  0
  136.1910   69.0870  223.5680 C   0  0  0  0  0  0  0  0  0  0  0  0
  139.1890   74.2930  222.2260 C   0  0  0  0  0  0  0  0  0  0  0  0
  139.4510   75.6400  222.3180 C   0  0  0  0  0  0  0  0  0  0  0  0
  142.6800   79.1340  221.2970 H   0  0  0  0  0  0  0  0  0  0  0  0
  142.9040   77.5400  220.8260 H   0  0  0  0  0  0  0  0  0  0  0  0
  142.5239   75.6464  220.9827 H   0  0  0  0  0  0  0  0  0  0  0  0
  142.0500   73.2410  220.8259 H   0  0  0  0  0  0  0  0  0  0  0  0
  140.2930   71.3342  220.9140 H   0  0  0  0  0  0  0  0  0  0  0  0
  137.7578   71.5723  222.1485 H   0  0  0  0  0  0  0  0  0  0  0  0
  140.8725   72.4892  226.6199 H   0  0  0  0  0  0  0  0  0  0  0  0
  141.5514   71.2922  228.7045 H   0  0  0  0  0  0  0  0  0  0  0  0
  140.1397   67.5738  227.0191 H   0  0  0  0  0  0  0  0  0  0  0  0
  138.5422   69.1194  221.5579 H   0  0  0  0  0  0  0  0  0  0  0  0
  138.8439   67.5654  222.4859 H   0  0  0  0  0  0  0  0  0  0  0  0
  136.6980   66.8067  221.1595 H   0  0  0  0  0  0  0  0  0  0  0  0
  134.2728   66.5205  221.4780 H   0  0  0  0  0  0  0  0  0  0  0  0
  133.0396   67.8887  223.1527 H   0  0  0  0  0  0  0  0  0  0  0  0
  134.3052   69.5366  224.4882 H   0  0  0  0  0  0  0  0  0  0  0  0
  136.7226   69.8308  224.1797 H   0  0  0  0  0  0  0  0  0  0  0  0
  138.2217   73.9143  222.5877 H   0  0  0  0  0  0  0  0  0  0  0  0
  138.6949   76.3122  222.7497 H   0  0  0  0  0  0  0  0  0  0  0  0
  1  2  1  0
  2  3  2  0
  2  4  2  0
  2  5  1  0
  5  6  2  0
  6  7  1  0
  7  8  2  0
  8  9  1  0
  9 10  2  0
 10 11  1  0
 11 12  2  0
 12 13  1  0
 13 14  2  0
 14 15  1  0
 15 16  2  0
 16 17  1  0
 16 18  1  0
 18 19  2  0
 19 20  1  0
 20 21  2  0
 20 22  1  0
 22 23  1  0
 23 24  1  0
 24 25  2  0
 25 26  1  0
 26 27  2  0
 27 28  1  0
 28 29  2  0
  8 30  1  0
 30 31  2  0
 31  5  1  0
 22 11  1  0
 29 24  1  0
 19 13  1  0
  1 32  1  0
  1 33  1  0
  6 34  1  0
  7 35  1  0
  9 36  1  0
 10 37  1  0
 14 38  1  0
 15 39  1  0
 18 40  1  0
 23 41  1  0
 23 42  1  0
 25 43  1  0
 26 44  1  0
 27 45  1  0
 28 46  1  0
 29 47  1  0
 30 48  1  0
 31 49  1  0
M  END
>  <smiles>  (19) 
NS(=O)(=O)c1ccc(/C=C/c2nc3ccc(F)cc3c(=O)n2Cc2ccccc2)cc1

>  <score_type>  (19) 
oracle

>  <origin>  (19) 
autodockgpu

>  <m_score__min__energy>  (19) 
-9.2599999999999998

>  <m_primary>  (19) 
energy

>  <rmsd>  (19) 
12.436761994215862

>  <m_score__min__rmsd>  (19) 
12.436761994215862

>  <meeko>  (19) 
{"free_energy": -8.21, "intermolecular_energy": -10.29, "internal_energy": -1.29, "cluster_size": 3, "cluster_id": 7, "rank_in_cluster": 3}

>  <energy>  (19) 
-8.73

>  <cluster_rmsd>  (19) 
0.91

>  <cluster>  (19) 
3

$$$$

     RDKit          3D

 49 52  0  0  0  0  0  0  0  0999 V2000
  146.3280   73.4220  218.2690 N   0  0  0  0  0  0  0  0  0  0  0  0
  145.7290   72.8070  219.7780 S   0  0  0  0  0  0  0  0  0  0  0  0
  146.6950   73.0930  220.8910 O   0  0  0  0  0  0  0  0  0  0  0  0
  145.6090   71.3150  219.6530 O   0  0  0  0  0  0  0  0  0  0  0  0
  144.2160   73.5710  220.1190 C   0  0  0  0  0  0  0  0  0  0  0  0
  143.1160   72.9040  220.6110 C   0  0  0  0  0  0  0  0  0  0  0  0
  141.9200   73.5530  220.8720 C   0  0  0  0  0  0  0  0  0  0  0  0
  141.7730   74.8890  220.6520 C   0  0  0  0  0  0  0  0  0  0  0  0
  140.5490   75.6410  220.9020 C   0  0  0  0  0  0  0  0  0  0  0  0
  140.2470   76.1730  222.0770 C   0  0  0  0  0  0  0  0  0  0  0  0
  138.9270   76.7870  222.2870 C   0  0  0  0  0  0  0  0  0  0  0  0
  138.0150   76.0220  222.9120 N   0  0  0  0  0  0  0  0  0  0  0  0
  136.7780   76.4690  223.1890 C   0  0  0  0  0  0  0  0  0  0  0  0
  135.8840   75.6460  223.8300 C   0  0  0  0  0  0  0  0  0  0  0  0
  134.6270   76.1380  224.0970 C   0  0  0  0  0  0  0  0  0  0  0  0
  134.3110   77.4320  223.7130 C   0  0  0  0  0  0  0  0  0  0  0  0
  133.0710   77.8870  223.9890 F   0  0  0  0  0  0  0  0  0  0  0  0
  135.2350   78.2450  223.0650 C   0  0  0  0  0  0  0  0  0  0  0  0
  136.4890   77.7590  222.7970 C   0  0  0  0  0  0  0  0  0  0  0  0
  137.4500   78.5310  222.1500 C   0  0  0  0  0  0  0  0  0  0  0  0
  137.0910   79.6930  221.8350 O   0  0  0  0  0  0  0  0  0  0  0  0
  138.6940   78.0480  221.8850 N   0  0  0  0  0  0  0  0  0  0  0  0
  139.6560   78.8810  221.2140 C   0  0  0  0  0  0  0  0  0  0  0  0
  140.6650   79.5010  222.1090 C   0  0  0  0  0  0  0  0  0  0  0  0
  140.4030   80.4830  223.0290 C   0  0  0  0  0  0  0  0  0  0  0  0
  141.3940   81.0290  223.8370 C   0  0  0  0  0  0  0  0  0  0  0  0
  142.7000   80.6000  223.7440 C   0  0  0  0  0  0  0  0  0  0  0  0
  142.9830   79.6240  222.8350 C   0  0  0  0  0  0  0  0  0  0  0  0
  141.9990   79.0790  222.0310 C   0  0  0  0  0  0  0  0  0  0  0  0
  142.8900   75.5640  220.1530 C   0  0  0  0  0  0  0  0  0  0  0  0
  144.0790   74.9230  219.8940 C   0  0  0  0  0  0  0  0  0  0  0  0
  145.5750   74.0490  217.8770 H   0  0  0  0  0  0  0  0  0  0  0  0
  147.1600   74.0330  218.4250 H   0  0  0  0  0  0  0  0  0  0  0  0
  143.1892   71.8233  220.8025 H   0  0  0  0  0  0  0  0  0  0  0  0
  141.0701   72.9762  221.2657 H   0  0  0  0  0  0  0  0  0  0  0  0
  139.8396   75.7734  220.0718 H   0  0  0  0  0  0  0  0  0  0  0  0
  140.9826   76.1556  222.8947 H   0  0  0  0  0  0  0  0  0  0  0  0
  136.1650   74.6232  224.1214 H   0  0  0  0  0  0  0  0  0  0  0  0
  133.8816   75.5118  224.6092 H   0  0  0  0  0  0  0  0  0  0  0  0
  134.9622   79.2690  222.7701 H   0  0  0  0  0  0  0  0  0  0  0  0
  140.1865   78.2647  220.4732 H   0  0  0  0  0  0  0  0  0  0  0  0
  139.0905   79.7082  220.7602 H   0  0  0  0  0  0  0  0  0  0  0  0
  139.3719   80.8522  223.1316 H   0  0  0  0  0  0  0  0  0  0  0  0
  141.1316   81.8147  224.5608 H   0  0  0  0  0  0  0  0  0  0  0  0
  143.4870   81.0300  224.3810 H   0  0  0  0  0  0  0  0  0  0  0  0
  144.0173   79.2621  222.7391 H   0  0  0  0  0  0  0  0  0  0  0  0
  142.2706   78.2931  221.3109 H   0  0  0  0  0  0  0  0  0  0  0  0
  142.8159   76.6445  219.9608 H   0  0  0  0  0  0  0  0  0  0  0  0
  144.9314   75.4974  219.5022 H   0  0  0  0  0  0  0  0  0  0  0  0
  1  2  1  0
  2  3  2  0
  2  4  2  0
  2  5  1  0
  5  6  2  0
  6  7  1  0
  7  8  2  0
  8  9  1  0
  9 10  2  0
 10 11  1  0
 11 12  2  0
 12 13  1  0
 13 14  2  0
 14 15  1  0
 15 16  2  0
 16 17  1  0
 16 18  1  0
 18 19  2  0
 19 20  1  0
 20 21  2  0
 20 22  1  0
 22 23  1  0
 23 24  1  0
 24 25  2  0
 25 26  1  0
 26 27  2  0
 27 28  1  0
 28 29  2  0
  8 30  1  0
 30 31  2  0
 31  5  1  0
 22 11  1  0
 29 24  1  0
 19 13  1  0
  1 32  1  0
  1 33  1  0
  6 34  1  0
  7 35  1  0
  9 36  1  0
 10 37  1  0
 14 38  1  0
 15 39  1  0
 18 40  1  0
 23 41  1  0
 23 42  1  0
 25 43  1  0
 26 44  1  0
 27 45  1  0
 28 46  1  0
 29 47  1  0
 30 48  1  0
 31 49  1  0
M  END
>  <smiles>  (20) 
NS(=O)(=O)c1ccc(/C=C/c2nc3ccc(F)cc3c(=O)n2Cc2ccccc2)cc1

>  <score_type>  (20) 
oracle

>  <origin>  (20) 
autodockgpu

>  <m_score__min__energy>  (20) 
-9.2599999999999998

>  <m_primary>  (20) 
energy

>  <rmsd>  (20) 
5.028266469866246

>  <m_score__min__rmsd>  (20) 
5.028266469866246

>  <meeko>  (20) 
{"free_energy": -8.26, "intermolecular_energy": -10.34, "internal_energy": -1.3, "cluster_size": 3, "cluster_id": 8, "rank_in_cluster": 1}

>  <energy>  (20) 
-8.71

>  <cluster_rmsd>  (20) 
0.34

>  <cluster>  (20) 
3

$$$$

     RDKit          3D

 49 52  0  0  0  0  0  0  0  0999 V2000
  146.3380   72.6490  221.6290 N   0  0  0  0  0  0  0  0  0  0  0  0
  145.3660   73.4150  220.4120 S   0  0  0  0  0  0  0  0  0  0  0  0
  145.7780   72.9670  219.0410 O   0  0  0  0  0  0  0  0  0  0  0  0
  145.6030   74.8960  220.4980 O   0  0  0  0  0  0  0  0  0  0  0  0
  143.7130   72.9900  220.6840 C   0  0  0  0  0  0  0  0  0  0  0  0
  142.6910   73.9080  220.7790 C   0  0  0  0  0  0  0  0  0  0  0  0
  141.3770   73.5270  220.9970 C   0  0  0  0  0  0  0  0  0  0  0  0
  141.0300   72.2170  221.1310 C   0  0  0  0  0  0  0  0  0  0  0  0
  139.6730   71.7380  221.3610 C   0  0  0  0  0  0  0  0  0  0  0  0
  139.0440   71.8610  222.5220 C   0  0  0  0  0  0  0  0  0  0  0  0
  139.3690   70.9520  223.6320 C   0  0  0  0  0  0  0  0  0  0  0  0
  139.9240   71.5220  224.7160 N   0  0  0  0  0  0  0  0  0  0  0  0
  140.2470   70.8110  225.8090 C   0  0  0  0  0  0  0  0  0  0  0  0
  140.8110   71.4420  226.8910 C   0  0  0  0  0  0  0  0  0  0  0  0
  141.1280   70.6820  227.9920 C   0  0  0  0  0  0  0  0  0  0  0  0
  140.8700   69.3200  227.9730 C   0  0  0  0  0  0  0  0  0  0  0  0
  141.1910   68.6000  229.0680 F   0  0  0  0  0  0  0  0  0  0  0  0
  140.2970   68.7040  226.8650 C   0  0  0  0  0  0  0  0  0  0  0  0
  139.9790   69.4580  225.7640 C   0  0  0  0  0  0  0  0  0  0  0  0
  139.4050   68.8910  224.6290 C   0  0  0  0  0  0  0  0  0  0  0  0
  139.2000   67.6540  224.6860 O   0  0  0  0  0  0  0  0  0  0  0  0
  139.0910   69.6400  223.5390 N   0  0  0  0  0  0  0  0  0  0  0  0
  138.4980   69.0130  222.3870 C   0  0  0  0  0  0  0  0  0  0  0  0
  137.0870   68.5920  222.5720 C   0  0  0  0  0  0  0  0  0  0  0  0
  136.1960   69.1840  223.4290 C   0  0  0  0  0  0  0  0  0  0  0  0
  134.8850   68.7400  223.5620 C   0  0  0  0  0  0  0  0  0  0  0  0
  134.4220   67.6700  222.8280 C   0  0  0  0  0  0  0  0  0  0  0  0
  135.2920   67.0670  221.9690 C   0  0  0  0  0  0  0  0  0  0  0  0
  136.5960   67.5070  221.8350 C   0  0  0  0  0  0  0  0  0  0  0  0
  142.0670   71.2860  221.0340 C   0  0  0  0  0  0  0  0  0  0  0  0
  143.3730   71.6610  220.8170 C   0  0  0  0  0  0  0  0  0  0  0  0
  145.6700   72.2120  222.3210 H   0  0  0  0  0  0  0  0  0  0  0  0
  146.8860   71.8600  221.2190 H   0  0  0  0  0  0  0  0  0  0  0  0
  142.9254   74.9780  220.6786 H   0  0  0  0  0  0  0  0  0  0  0  0
  140.5968   74.2996  221.0633 H   0  0  0  0  0  0  0  0  0  0  0  0
  139.1437   71.2497  220.5295 H   0  0  0  0  0  0  0  0  0  0  0  0
  138.2804   72.6416  222.6548 H   0  0  0  0  0  0  0  0  0  0  0  0
  141.0036   72.5249  226.8770 H   0  0  0  0  0  0  0  0  0  0  0  0
  141.5815   71.1496  228.8784 H   0  0  0  0  0  0  0  0  0  0  0  0
  140.1006   67.6217  226.8717 H   0  0  0  0  0  0  0  0  0  0  0  0
  138.5367   69.7258  221.5501 H   0  0  0  0  0  0  0  0  0  0  0  0
  139.0754   68.0959  222.1987 H   0  0  0  0  0  0  0  0  0  0  0  0
  136.5299   70.0406  224.0329 H   0  0  0  0  0  0  0  0  0  0  0  0
  134.2081   69.2502  224.2631 H   0  0  0  0  0  0  0  0  0  0  0  0
  133.3862   67.3145  222.9315 H   0  0  0  0  0  0  0  0  0  0  0  0
  134.9490   66.2112  221.3690 H   0  0  0  0  0  0  0  0  0  0  0  0
  137.2654   66.9912  221.1309 H   0  0  0  0  0  0  0  0  0  0  0  0
  141.8314   70.2163  221.1346 H   0  0  0  0  0  0  0  0  0  0  0  0
  144.1553   70.8907  220.7488 H   0  0  0  0  0  0  0  0  0  0  0  0
  1  2  1  0
  2  3  2  0
  2  4  2  0
  2  5  1  0
  5  6  2  0
  6  7  1  0
  7  8  2  0
  8  9  1  0
  9 10  2  0
 10 11  1  0
 11 12  2  0
 12 13  1  0
 13 14  2  0
 14 15  1  0
 15 16  2  0
 16 17  1  0
 16 18  1  0
 18 19  2  0
 19 20  1  0
 20 21  2  0
 20 22  1  0
 22 23  1  0
 23 24  1  0
 24 25  2  0
 25 26  1  0
 26 27  2  0
 27 28  1  0
 28 29  2  0
  8 30  1  0
 30 31  2  0
 31  5  1  0
 22 11  1  0
 29 24  1  0
 19 13  1  0
  1 32  1  0
  1 33  1  0
  6 34  1  0
  7 35  1  0
  9 36  1  0
 10 37  1  0
 14 38  1  0
 15 39  1  0
 18 40  1  0
 23 41  1  0
 23 42  1  0
 25 43  1  0
 26 44  1  0
 27 45  1  0
 28 46  1  0
 29 47  1  0
 30 48  1  0
 31 49  1  0
M  END
>  <smiles>  (21) 
NS(=O)(=O)c1ccc(/C=C/c2nc3ccc(F)cc3c(=O)n2Cc2ccccc2)cc1

>  <score_type>  (21) 
oracle

>  <origin>  (21) 
autodockgpu

>  <m_score__min__energy>  (21) 
-9.2599999999999998

>  <m_primary>  (21) 
energy

>  <rmsd>  (21) 
12.430952094361416

>  <m_score__min__rmsd>  (21) 
12.430952094361416

>  <meeko>  (21) 
{"free_energy": -8.73, "intermolecular_energy": -10.82, "internal_energy": -1.32, "cluster_size": 2, "cluster_id": 5, "rank_in_cluster": 1}

>  <energy>  (21) 
-8.65

>  <cluster_rmsd>  (21) 
1.7

>  <cluster>  (21) 
3

$$$$

     RDKit          3D

 49 52  0  0  0  0  0  0  0  0999 V2000
  145.9730   73.3960  218.3360 N   0  0  0  0  0  0  0  0  0  0  0  0
  145.9170   72.8050  219.9680 S   0  0  0  0  0  0  0  0  0  0  0  0
  146.5840   73.7680  220.9060 O   0  0  0  0  0  0  0  0  0  0  0  0
  146.6850   71.5160  220.0170 O   0  0  0  0  0  0  0  0  0  0  0  0
  144.2610   72.6110  220.4230 C   0  0  0  0  0  0  0  0  0  0  0  0
  143.4420   73.6540  220.7950 C   0  0  0  0  0  0  0  0  0  0  0  0
  142.1180   73.4570  221.1530 C   0  0  0  0  0  0  0  0  0  0  0  0
  141.5590   72.2150  221.1560 C   0  0  0  0  0  0  0  0  0  0  0  0
  140.1770   71.9280  221.5190 C   0  0  0  0  0  0  0  0  0  0  0  0
  139.8370   71.0820  222.4810 C   0  0  0  0  0  0  0  0  0  0  0  0
  138.5040   71.1690  223.0980 C   0  0  0  0  0  0  0  0  0  0  0  0
  137.7570   72.2280  222.7380 N   0  0  0  0  0  0  0  0  0  0  0  0
  136.5120   72.4160  223.2070 C   0  0  0  0  0  0  0  0  0  0  0  0
  135.7910   73.5140  222.8080 C   0  0  0  0  0  0  0  0  0  0  0  0
  134.5200   73.6730  223.3090 C   0  0  0  0  0  0  0  0  0  0  0  0
  134.0170   72.7290  224.1900 C   0  0  0  0  0  0  0  0  0  0  0  0
  132.7670   72.9100  224.6650 F   0  0  0  0  0  0  0  0  0  0  0  0
  134.7670   71.6240  224.5790 C   0  0  0  0  0  0  0  0  0  0  0  0
  136.0350   71.4620  224.0830 C   0  0  0  0  0  0  0  0  0  0  0  0
  136.8290   70.3750  224.4410 C   0  0  0  0  0  0  0  0  0  0  0  0
  136.3040   69.5620  225.2410 O   0  0  0  0  0  0  0  0  0  0  0  0
  138.0850   70.2150  223.9470 N   0  0  0  0  0  0  0  0  0  0  0  0
  138.8700   69.0770  224.3440 C   0  0  0  0  0  0  0  0  0  0  0  0
  139.6170   69.2550  225.6140 C   0  0  0  0  0  0  0  0  0  0  0  0
  139.9340   68.2480  226.4880 C   0  0  0  0  0  0  0  0  0  0  0  0
  140.6320   68.4780  227.6670 C   0  0  0  0  0  0  0  0  0  0  0  0
  141.0410   69.7480  228.0120 C   0  0  0  0  0  0  0  0  0  0  0  0
  140.7370   70.7650  227.1560 C   0  0  0  0  0  0  0  0  0  0  0  0
  140.0420   70.5370  225.9830 C   0  0  0  0  0  0  0  0  0  0  0  0
  142.3910   71.1580  220.7780 C   0  0  0  0  0  0  0  0  0  0  0  0
  143.7060   71.3500  220.4220 C   0  0  0  0  0  0  0  0  0  0  0  0
  145.2130   74.1250  218.2510 H   0  0  0  0  0  0  0  0  0  0  0  0
  146.8720   73.8960  218.1560 H   0  0  0  0  0  0  0  0  0  0  0  0
  143.8516   74.6748  220.8083 H   0  0  0  0  0  0  0  0  0  0  0  0
  141.5045   74.3233  221.4413 H   0  0  0  0  0  0  0  0  0  0  0  0
  139.3752   72.4396  220.9664 H   0  0  0  0  0  0  0  0  0  0  0  0
  140.5506   70.3156  222.8178 H   0  0  0  0  0  0  0  0  0  0  0  0
  136.2180   74.2463  222.1070 H   0  0  0  0  0  0  0  0  0  0  0  0
  133.9099   74.5394  223.0138 H   0  0  0  0  0  0  0  0  0  0  0  0
  134.3465   70.8865  225.2785 H   0  0  0  0  0  0  0  0  0  0  0  0
  138.1935   68.2175  224.4613 H   0  0  0  0  0  0  0  0  0  0  0  0
  139.6239   68.9282  223.5569 H   0  0  0  0  0  0  0  0  0  0  0  0
  139.6245   67.2203  226.2472 H   0  0  0  0  0  0  0  0  0  0  0  0
  140.8615   67.6344  228.3346 H   0  0  0  0  0  0  0  0  0  0  0  0
  141.5932   69.9347  228.9449 H   0  0  0  0  0  0  0  0  0  0  0  0
  141.0517   71.7893  227.4044 H   0  0  0  0  0  0  0  0  0  0  0  0
  139.8166   71.3863  225.3212 H   0  0  0  0  0  0  0  0  0  0  0  0
  141.9806   70.1375  220.7646 H   0  0  0  0  0  0  0  0  0  0  0  0
  144.3221   70.4858  220.1329 H   0  0  0  0  0  0  0  0  0  0  0  0
  1  2  1  0
  2  3  2  0
  2  4  2  0
  2  5  1  0
  5  6  2  0
  6  7  1  0
  7  8  2  0
  8  9  1  0
  9 10  2  0
 10 11  1  0
 11 12  2  0
 12 13  1  0
 13 14  2  0
 14 15  1  0
 15 16  2  0
 16 17  1  0
 16 18  1  0
 18 19  2  0
 19 20  1  0
 20 21  2  0
 20 22  1  0
 22 23  1  0
 23 24  1  0
 24 25  2  0
 25 26  1  0
 26 27  2  0
 27 28  1  0
 28 29  2  0
  8 30  1  0
 30 31  2  0
 31  5  1  0
 22 11  1  0
 29 24  1  0
 19 13  1  0
  1 32  1  0
  1 33  1  0
  6 34  1  0
  7 35  1  0
  9 36  1  0
 10 37  1  0
 14 38  1  0
 15 39  1  0
 18 40  1  0
 23 41  1  0
 23 42  1  0
 25 43  1  0
 26 44  1  0
 27 45  1  0
 28 46  1  0
 29 47  1  0
 30 48  1  0
 31 49  1  0
M  END
>  <smiles>  (22) 
NS(=O)(=O)c1ccc(/C=C/c2nc3ccc(F)cc3c(=O)n2Cc2ccccc2)cc1

>  <score_type>  (22) 
oracle

>  <origin>  (22) 
autodockgpu

>  <m_score__min__energy>  (22) 
-9.2599999999999998

>  <m_primary>  (22) 
energy

>  <rmsd>  (22) 
11.244068239665463

>  <m_score__min__rmsd>  (22) 
11.244068239665463

>  <meeko>  (22) 
{"free_energy": -8.2, "intermolecular_energy": -10.29, "internal_energy": -1.21, "cluster_size": 3, "cluster_id": 4, "rank_in_cluster": 3}

>  <energy>  (22) 
-8.63

>  <cluster_rmsd>  (22) 
0.54

>  <cluster>  (22) 
3

$$$$

     RDKit          3D

 49 52  0  0  0  0  0  0  0  0999 V2000
  145.9020   73.2370  218.8400 N   0  0  0  0  0  0  0  0  0  0  0  0
  145.4550   73.5410  220.4900 S   0  0  0  0  0  0  0  0  0  0  0  0
  145.6570   74.9860  220.8390 O   0  0  0  0  0  0  0  0  0  0  0  0
  146.3620   72.7290  221.3700 O   0  0  0  0  0  0  0  0  0  0  0  0
  143.7880   73.1280  220.6910 C   0  0  0  0  0  0  0  0  0  0  0  0
  142.7470   73.9790  220.3940 C   0  0  0  0  0  0  0  0  0  0  0  0
  141.4230   73.6100  220.5670 C   0  0  0  0  0  0  0  0  0  0  0  0
  141.0850   72.3800  221.0450 C   0  0  0  0  0  0  0  0  0  0  0  0
  139.7180   71.9190  221.2550 C   0  0  0  0  0  0  0  0  0  0  0  0
  139.0730   72.0540  222.4040 C   0  0  0  0  0  0  0  0  0  0  0  0
  139.4080   71.1810  223.5410 C   0  0  0  0  0  0  0  0  0  0  0  0
  140.0070   71.7800  224.5850 N   0  0  0  0  0  0  0  0  0  0  0  0
  140.3450   71.1060  225.6970 C   0  0  0  0  0  0  0  0  0  0  0  0
  140.9550   71.7650  226.7360 C   0  0  0  0  0  0  0  0  0  0  0  0
  141.2860   71.0420  227.8580 C   0  0  0  0  0  0  0  0  0  0  0  0
  140.9960   69.6870  227.9000 C   0  0  0  0  0  0  0  0  0  0  0  0
  141.3320   69.0040  229.0140 F   0  0  0  0  0  0  0  0  0  0  0  0
  140.3770   69.0420  226.8350 C   0  0  0  0  0  0  0  0  0  0  0  0
  140.0450   69.7590  225.7130 C   0  0  0  0  0  0  0  0  0  0  0  0
  139.4250   69.1620  224.6190 C   0  0  0  0  0  0  0  0  0  0  0  0
  139.1930   67.9330  224.7320 O   0  0  0  0  0  0  0  0  0  0  0  0
  139.0970   69.8750  223.5080 N   0  0  0  0  0  0  0  0  0  0  0  0
  138.4570   69.2170  222.4000 C   0  0  0  0  0  0  0  0  0  0  0  0
  137.0610   68.7860  222.6620 C   0  0  0  0  0  0  0  0  0  0  0  0
  136.4080   67.7860  221.9890 C   0  0  0  0  0  0  0  0  0  0  0  0
  135.0950   67.4300  222.2750 C   0  0  0  0  0  0  0  0  0  0  0  0
  134.3850   68.0780  223.2620 C   0  0  0  0  0  0  0  0  0  0  0  0
  135.0160   69.0760  223.9440 C   0  0  0  0  0  0  0  0  0  0  0  0
  136.3210   69.4310  223.6610 C   0  0  0  0  0  0  0  0  0  0  0  0
  142.1420   71.5170  221.3460 C   0  0  0  0  0  0  0  0  0  0  0  0
  143.4580   71.8810  221.1730 C   0  0  0  0  0  0  0  0  0  0  0  0
  145.0030   73.0990  218.3030 H   0  0  0  0  0  0  0  0  0  0  0  0
  146.3610   74.0770  218.4230 H   0  0  0  0  0  0  0  0  0  0  0  0
  142.9739   74.9834  220.0072 H   0  0  0  0  0  0  0  0  0  0  0  0
  140.6273   74.3258  220.3129 H   0  0  0  0  0  0  0  0  0  0  0  0
  139.1958   71.4345  220.4168 H   0  0  0  0  0  0  0  0  0  0  0  0
  138.2880   72.8175  222.5085 H   0  0  0  0  0  0  0  0  0  0  0  0
  141.1728   72.8413  226.6725 H   0  0  0  0  0  0  0  0  0  0  0  0
  141.7751   71.5331  228.7122 H   0  0  0  0  0  0  0  0  0  0  0  0
  140.1553   67.9661  226.8914 H   0  0  0  0  0  0  0  0  0  0  0  0
  138.4476   69.9115  221.5470 H   0  0  0  0  0  0  0  0  0  0  0  0
  139.0350   68.3019  222.2038 H   0  0  0  0  0  0  0  0  0  0  0  0
  136.9424   67.2457  221.1938 H   0  0  0  0  0  0  0  0  0  0  0  0
  134.6163   66.6198  221.7054 H   0  0  0  0  0  0  0  0  0  0  0  0
  133.3458   67.8001  223.4917 H   0  0  0  0  0  0  0  0  0  0  0  0
  134.4737   69.6107  224.7377 H   0  0  0  0  0  0  0  0  0  0  0  0
  136.7915   70.2422  224.2359 H   0  0  0  0  0  0  0  0  0  0  0  0
  141.9147   70.5132  221.7342 H   0  0  0  0  0  0  0  0  0  0  0  0
  144.2563   71.1667  221.4230 H   0  0  0  0  0  0  0  0  0  0  0  0
  1  2  1  0
  2  3  2  0
  2  4  2  0
  2  5  1  0
  5  6  2  0
  6  7  1  0
  7  8  2  0
  8  9  1  0
  9 10  2  0
 10 11  1  0
 11 12  2  0
 12 13  1  0
 13 14  2  0
 14 15  1  0
 15 16  2  0
 16 17  1  0
 16 18  1  0
 18 19  2  0
 19 20  1  0
 20 21  2  0
 20 22  1  0
 22 23  1  0
 23 24  1  0
 24 25  2  0
 25 26  1  0
 26 27  2  0
 27 28  1  0
 28 29  2  0
  8 30  1  0
 30 31  2  0
 31  5  1  0
 22 11  1  0
 29 24  1  0
 19 13  1  0
  1 32  1  0
  1 33  1  0
  6 34  1  0
  7 35  1  0
  9 36  1  0
 10 37  1  0
 14 38  1  0
 15 39  1  0
 18 40  1  0
 23 41  1  0
 23 42  1  0
 25 43  1  0
 26 44  1  0
 27 45  1  0
 28 46  1  0
 29 47  1  0
 30 48  1  0
 31 49  1  0
M  END
>  <smiles>  (23) 
NS(=O)(=O)c1ccc(/C=C/c2nc3ccc(F)cc3c(=O)n2Cc2ccccc2)cc1

>  <score_type>  (23) 
oracle

>  <origin>  (23) 
autodockgpu

>  <m_score__min__energy>  (23) 
-9.2599999999999998

>  <m_primary>  (23) 
energy

>  <rmsd>  (23) 
12.147673882048267

>  <m_score__min__rmsd>  (23) 
12.147673882048267

>  <meeko>  (23) 
{"free_energy": -8.12, "intermolecular_energy": -10.21, "internal_energy": -1.38, "cluster_size": 15, "cluster_id": 3, "rank_in_cluster": 14}

>  <energy>  (23) 
-8.55

>  <cluster_rmsd>  (23) 
1.15

>  <cluster>  (23) 
3

$$$$

     RDKit          3D

 49 52  0  0  0  0  0  0  0  0999 V2000
  142.6480   79.2340  222.4530 N   0  0  0  0  0  0  0  0  0  0  0  0
  141.3290   78.9600  221.3580 S   0  0  0  0  0  0  0  0  0  0  0  0
  141.7560   79.1950  219.9390 O   0  0  0  0  0  0  0  0  0  0  0  0
  140.2500   79.9550  221.6780 O   0  0  0  0  0  0  0  0  0  0  0  0
  140.8000   77.3240  221.5370 C   0  0  0  0  0  0  0  0  0  0  0  0
  141.4600   76.2430  220.9980 C   0  0  0  0  0  0  0  0  0  0  0  0
  141.0050   74.9450  221.1640 C   0  0  0  0  0  0  0  0  0  0  0  0
  139.8730   74.6740  221.8730 C   0  0  0  0  0  0  0  0  0  0  0  0
  139.3310   73.3390  222.0910 C   0  0  0  0  0  0  0  0  0  0  0  0
  140.0850   72.2560  222.2040 C   0  0  0  0  0  0  0  0  0  0  0  0
  139.9460   71.3830  223.3800 C   0  0  0  0  0  0  0  0  0  0  0  0
  140.5470   71.8110  224.5040 N   0  0  0  0  0  0  0  0  0  0  0  0
  140.4780   71.1230  225.6560 C   0  0  0  0  0  0  0  0  0  0  0  0
  141.1100   71.6050  226.7770 C   0  0  0  0  0  0  0  0  0  0  0  0
  141.0170   70.8730  227.9380 C   0  0  0  0  0  0  0  0  0  0  0  0
  140.2980   69.6890  227.9370 C   0  0  0  0  0  0  0  0  0  0  0  0
  140.2240   68.9930  229.0910 F   0  0  0  0  0  0  0  0  0  0  0  0
  139.6660   69.2230  226.7890 C   0  0  0  0  0  0  0  0  0  0  0  0
  139.7560   69.9480  225.6280 C   0  0  0  0  0  0  0  0  0  0  0  0
  139.1440   69.5260  224.4510 C   0  0  0  0  0  0  0  0  0  0  0  0
  138.5090   68.4450  224.5280 O   0  0  0  0  0  0  0  0  0  0  0  0
  139.2340   70.2470  223.3010 N   0  0  0  0  0  0  0  0  0  0  0  0
  138.5850   69.7730  222.1080 C   0  0  0  0  0  0  0  0  0  0  0  0
  139.1530   68.5190  221.5540 C   0  0  0  0  0  0  0  0  0  0  0  0
  138.7840   67.2540  221.9310 C   0  0  0  0  0  0  0  0  0  0  0  0
  139.3570   66.1140  221.3780 C   0  0  0  0  0  0  0  0  0  0  0  0
  140.3370   66.2120  220.4140 C   0  0  0  0  0  0  0  0  0  0  0  0
  140.7200   67.4610  220.0240 C   0  0  0  0  0  0  0  0  0  0  0  0
  140.1500   68.5950  220.5730 C   0  0  0  0  0  0  0  0  0  0  0  0
  139.2030   75.7730  222.4180 C   0  0  0  0  0  0  0  0  0  0  0  0
  139.6540   77.0620  222.2560 C   0  0  0  0  0  0  0  0  0  0  0  0
  143.0480   78.2860  222.6900 H   0  0  0  0  0  0  0  0  0  0  0  0
  143.4160   79.7610  221.9800 H   0  0  0  0  0  0  0  0  0  0  0  0
  142.3780   76.4152  220.4169 H   0  0  0  0  0  0  0  0  0  0  0  0
  141.5696   74.1152  220.7138 H   0  0  0  0  0  0  0  0  0  0  0  0
  138.2395   73.2249  222.1656 H   0  0  0  0  0  0  0  0  0  0  0  0
  140.8149   72.0094  221.4189 H   0  0  0  0  0  0  0  0  0  0  0  0
  141.6740   72.5489  226.7468 H   0  0  0  0  0  0  0  0  0  0  0  0
  141.5084   71.2242  228.8574 H   0  0  0  0  0  0  0  0  0  0  0  0
  139.0987   68.2809  226.8119 H   0  0  0  0  0  0  0  0  0  0  0  0
  137.5247   69.5960  222.3411 H   0  0  0  0  0  0  0  0  0  0  0  0
  138.7341   70.5485  221.3422 H   0  0  0  0  0  0  0  0  0  0  0  0
  138.0058   67.1362  222.6994 H   0  0  0  0  0  0  0  0  0  0  0  0
  139.0237   65.1211  221.7144 H   0  0  0  0  0  0  0  0  0  0  0  0
  140.7945   65.3134  219.9744 H   0  0  0  0  0  0  0  0  0  0  0  0
  141.4997   67.5691  219.2556 H   0  0  0  0  0  0  0  0  0  0  0  0
  140.4887   69.5837  220.2300 H   0  0  0  0  0  0  0  0  0  0  0  0
  138.2833   75.6009  222.9964 H   0  0  0  0  0  0  0  0  0  0  0  0
  139.0930   77.8943  222.7060 H   0  0  0  0  0  0  0  0  0  0  0  0
  1  2  1  0
  2  3  2  0
  2  4  2  0
  2  5  1  0
  5  6  2  0
  6  7  1  0
  7  8  2  0
  8  9  1  0
  9 10  2  0
 10 11  1  0
 11 12  2  0
 12 13  1  0
 13 14  2  0
 14 15  1  0
 15 16  2  0
 16 17  1  0
 16 18  1  0
 18 19  2  0
 19 20  1  0
 20 21  2  0
 20 22  1  0
 22 23  1  0
 23 24  1  0
 24 25  2  0
 25 26  1  0
 26 27  2  0
 27 28  1  0
 28 29  2  0
  8 30  1  0
 30 31  2  0
 31  5  1  0
 22 11  1  0
 29 24  1  0
 19 13  1  0
  1 32  1  0
  1 33  1  0
  6 34  1  0
  7 35  1  0
  9 36  1  0
 10 37  1  0
 14 38  1  0
 15 39  1  0
 18 40  1  0
 23 41  1  0
 23 42  1  0
 25 43  1  0
 26 44  1  0
 27 45  1  0
 28 46  1  0
 29 47  1  0
 30 48  1  0
 31 49  1  0
M  END
>  <smiles>  (24) 
NS(=O)(=O)c1ccc(/C=C/c2nc3ccc(F)cc3c(=O)n2Cc2ccccc2)cc1

>  <score_type>  (24) 
oracle

>  <origin>  (24) 
autodockgpu

>  <m_score__min__energy>  (24) 
-9.2599999999999998

>  <m_primary>  (24) 
energy

>  <rmsd>  (24) 
12.240759715787055

>  <m_score__min__rmsd>  (24) 
12.240759715787055

>  <meeko>  (24) 
{"free_energy": -8.25, "intermolecular_energy": -10.34, "internal_energy": -1.11, "cluster_size": 3, "cluster_id": 7, "rank_in_cluster": 2}

>  <energy>  (24) 
-8.4

>  <cluster_rmsd>  (24) 
0.62

>  <cluster>  (24) 
3

$$$$

     RDKit          3D

 49 52  0  0  0  0  0  0  0  0999 V2000
  146.7020   72.9700  221.1080 N   0  0  0  0  0  0  0  0  0  0  0  0
  145.6160   72.5080  219.8340 S   0  0  0  0  0  0  0  0  0  0  0  0
  145.8500   71.0840  219.4240 O   0  0  0  0  0  0  0  0  0  0  0  0
  145.9070   73.3780  218.6450 O   0  0  0  0  0  0  0  0  0  0  0  0
  143.9950   72.6840  220.4060 C   0  0  0  0  0  0  0  0  0  0  0  0
  143.3380   73.8910  220.4870 C   0  0  0  0  0  0  0  0  0  0  0  0
  142.0360   73.9910  220.9510 C   0  0  0  0  0  0  0  0  0  0  0  0
  141.3380   72.8910  221.3530 C   0  0  0  0  0  0  0  0  0  0  0  0
  139.9690   72.9150  221.8520 C   0  0  0  0  0  0  0  0  0  0  0  0
  139.2420   71.8230  222.0350 C   0  0  0  0  0  0  0  0  0  0  0  0
  139.4520   70.9930  223.2330 C   0  0  0  0  0  0  0  0  0  0  0  0
  140.0500   71.6010  224.2720 N   0  0  0  0  0  0  0  0  0  0  0  0
  140.2800   70.9670  225.4340 C   0  0  0  0  0  0  0  0  0  0  0  0
  140.8950   71.6340  226.4650 C   0  0  0  0  0  0  0  0  0  0  0  0
  141.1130   70.9520  227.6390 C   0  0  0  0  0  0  0  0  0  0  0  0
  140.7100   69.6300  227.7400 C   0  0  0  0  0  0  0  0  0  0  0  0
  140.9370   68.9870  228.9040 F   0  0  0  0  0  0  0  0  0  0  0  0
  140.0890   68.9760  226.6810 C   0  0  0  0  0  0  0  0  0  0  0  0
  139.8690   69.6520  225.5070 C   0  0  0  0  0  0  0  0  0  0  0  0
  139.2530   69.0440  224.4170 C   0  0  0  0  0  0  0  0  0  0  0  0
  138.9150   67.8460  224.5830 O   0  0  0  0  0  0  0  0  0  0  0  0
  139.0350   69.7160  223.2550 N   0  0  0  0  0  0  0  0  0  0  0  0
  138.3950   69.0490  222.1530 C   0  0  0  0  0  0  0  0  0  0  0  0
  139.3000   68.2070  221.3310 C   0  0  0  0  0  0  0  0  0  0  0  0
  140.2380   68.6860  220.4530 C   0  0  0  0  0  0  0  0  0  0  0  0
  141.0550   67.8460  219.7050 C   0  0  0  0  0  0  0  0  0  0  0  0
  140.9530   66.4760  219.8160 C   0  0  0  0  0  0  0  0  0  0  0  0
  140.0260   65.9790  220.6830 C   0  0  0  0  0  0  0  0  0  0  0  0
  139.2130   66.8130  221.4280 C   0  0  0  0  0  0  0  0  0  0  0  0
  142.0060   71.6670  221.2710 C   0  0  0  0  0  0  0  0  0  0  0  0
  143.2990   71.5650  220.8100 C   0  0  0  0  0  0  0  0  0  0  0  0
  146.3080   73.8500  221.5380 H   0  0  0  0  0  0  0  0  0  0  0  0
  146.7020   72.2530  221.8690 H   0  0  0  0  0  0  0  0  0  0  0  0
  143.8632   74.8052  220.1734 H   0  0  0  0  0  0  0  0  0  0  0  0
  141.5552   74.9794  220.9959 H   0  0  0  0  0  0  0  0  0  0  0  0
  139.5165   73.8893  222.0887 H   0  0  0  0  0  0  0  0  0  0  0  0
  138.4823   71.5365  221.2929 H   0  0  0  0  0  0  0  0  0  0  0  0
  141.2044   72.6838  226.3548 H   0  0  0  0  0  0  0  0  0  0  0  0
  141.6021   71.4505  228.4889 H   0  0  0  0  0  0  0  0  0  0  0  0
  139.7770   67.9262  226.7836 H   0  0  0  0  0  0  0  0  0  0  0  0
  137.5997   68.4052  222.5567 H   0  0  0  0  0  0  0  0  0  0  0  0
  138.0148   69.8389  221.4886 H   0  0  0  0  0  0  0  0  0  0  0  0
  140.3480   69.7742  220.3363 H   0  0  0  0  0  0  0  0  0  0  0  0
  141.7931   68.2808  219.0150 H   0  0  0  0  0  0  0  0  0  0  0  0
  141.5969   65.8073  219.2258 H   0  0  0  0  0  0  0  0  0  0  0  0
  139.9224   64.8894  220.7924 H   0  0  0  0  0  0  0  0  0  0  0  0
  138.4779   66.3693  222.1156 H   0  0  0  0  0  0  0  0  0  0  0  0
  141.4807   70.7532  221.5856 H   0  0  0  0  0  0  0  0  0  0  0  0
  143.7828   70.5782  220.7634 H   0  0  0  0  0  0  0  0  0  0  0  0
  1  2  1  0
  2  3  2  0
  2  4  2  0
  2  5  1  0
  5  6  2  0
  6  7  1  0
  7  8  2  0
  8  9  1  0
  9 10  2  0
 10 11  1  0
 11 12  2  0
 12 13  1  0
 13 14  2  0
 14 15  1  0
 15 16  2  0
 16 17  1  0
 16 18  1  0
 18 19  2  0
 19 20  1  0
 20 21  2  0
 20 22  1  0
 22 23  1  0
 23 24  1  0
 24 25  2  0
 25 26  1  0
 26 27  2  0
 27 28  1  0
 28 29  2  0
  8 30  1  0
 30 31  2  0
 31  5  1  0
 22 11  1  0
 29 24  1  0
 19 13  1  0
  1 32  1  0
  1 33  1  0
  6 34  1  0
  7 35  1  0
  9 36  1  0
 10 37  1  0
 14 38  1  0
 15 39  1  0
 18 40  1  0
 23 41  1  0
 23 42  1  0
 25 43  1  0
 26 44  1  0
 27 45  1  0
 28 46  1  0
 29 47  1  0
 30 48  1  0
 31 49  1  0
M  END
>  <smiles>  (25) 
NS(=O)(=O)c1ccc(/C=C/c2nc3ccc(F)cc3c(=O)n2Cc2ccccc2)cc1

>  <score_type>  (25) 
oracle

>  <origin>  (25) 
autodockgpu

>  <m_score__min__energy>  (25) 
-9.2599999999999998

>  <m_primary>  (25) 
energy

>  <rmsd>  (25) 
12.587387845035277

>  <m_score__min__rmsd>  (25) 
12.587387845035277

>  <meeko>  (25) 
{"free_energy": -8.55, "intermolecular_energy": -10.64, "internal_energy": -1.66, "cluster_size": 15, "cluster_id": 3, "rank_in_cluster": 9}

>  <energy>  (25) 
-8.33

>  <cluster_rmsd>  (25) 
0.91

>  <cluster>  (25) 
3

$$$$

     RDKit          3D

 49 52  0  0  0  0  0  0  0  0999 V2000
  139.2650   67.0580  226.8030 N   0  0  0  0  0  0  0  0  0  0  0  0
  140.4370   68.3290  226.9610 S   0  0  0  0  0  0  0  0  0  0  0  0
  141.8310   67.7880  226.8390 O   0  0  0  0  0  0  0  0  0  0  0  0
  140.2960   68.9170  228.3360 O   0  0  0  0  0  0  0  0  0  0  0  0
  140.1590   69.4890  225.7100 C   0  0  0  0  0  0  0  0  0  0  0  0
  139.3280   69.2700  224.6340 C   0  0  0  0  0  0  0  0  0  0  0  0
  139.1300   70.2260  223.6510 C   0  0  0  0  0  0  0  0  0  0  0  0
  139.7520   71.4370  223.7010 C   0  0  0  0  0  0  0  0  0  0  0  0
  139.5950   72.4910  222.7070 C   0  0  0  0  0  0  0  0  0  0  0  0
  140.4940   72.7460  221.7670 C   0  0  0  0  0  0  0  0  0  0  0  0
  140.7900   74.1380  221.3930 C   0  0  0  0  0  0  0  0  0  0  0  0
  140.2120   75.0860  222.1500 N   0  0  0  0  0  0  0  0  0  0  0  0
  140.4170   76.3960  221.9330 C   0  0  0  0  0  0  0  0  0  0  0  0
  139.8020   77.3250  222.7360 C   0  0  0  0  0  0  0  0  0  0  0  0
  140.0370   78.6570  222.4840 C   0  0  0  0  0  0  0  0  0  0  0  0
  140.8770   79.0110  221.4390 C   0  0  0  0  0  0  0  0  0  0  0  0
  141.0890   80.3250  221.2160 F   0  0  0  0  0  0  0  0  0  0  0  0
  141.4880   78.0500  220.6400 C   0  0  0  0  0  0  0  0  0  0  0  0
  141.2570   76.7210  220.8870 C   0  0  0  0  0  0  0  0  0  0  0  0
  141.8430   75.7200  220.1170 C   0  0  0  0  0  0  0  0  0  0  0  0
  142.5920   76.1180  219.1910 O   0  0  0  0  0  0  0  0  0  0  0  0
  141.6130   74.4030  220.3640 N   0  0  0  0  0  0  0  0  0  0  0  0
  142.2400   73.4020  219.5430 C   0  0  0  0  0  0  0  0  0  0  0  0
  143.6520   73.1090  219.8970 C   0  0  0  0  0  0  0  0  0  0  0  0
  144.3960   72.0830  219.3760 C   0  0  0  0  0  0  0  0  0  0  0  0
  145.7150   71.8550  219.7510 C   0  0  0  0  0  0  0  0  0  0  0  0
  146.3370   72.6640  220.6770 C   0  0  0  0  0  0  0  0  0  0  0  0
  145.6150   73.6910  221.2080 C   0  0  0  0  0  0  0  0  0  0  0  0
  144.3030   73.9190  220.8350 C   0  0  0  0  0  0  0  0  0  0  0  0
  140.5950   71.6580  224.7930 C   0  0  0  0  0  0  0  0  0  0  0  0
  140.7930   70.7110  225.7710 C   0  0  0  0  0  0  0  0  0  0  0  0
  139.8050   66.1510  226.7680 H   0  0  0  0  0  0  0  0  0  0  0  0
  138.6650   67.0030  227.6570 H   0  0  0  0  0  0  0  0  0  0  0  0
  138.8050   68.3057  224.5524 H   0  0  0  0  0  0  0  0  0  0  0  0
  138.4555   70.0022  222.8114 H   0  0  0  0  0  0  0  0  0  0  0  0
  138.6838   73.1064  222.7384 H   0  0  0  0  0  0  0  0  0  0  0  0
  141.0181   71.9181  221.2671 H   0  0  0  0  0  0  0  0  0  0  0  0
  139.1402   77.0130  223.5574 H   0  0  0  0  0  0  0  0  0  0  0  0
  139.5639   79.4324  223.1045 H   0  0  0  0  0  0  0  0  0  0  0  0
  142.1512   78.3537  219.8166 H   0  0  0  0  0  0  0  0  0  0  0  0
  141.6624   72.4705  219.6361 H   0  0  0  0  0  0  0  0  0  0  0  0
  142.2516   73.8013  218.5181 H   0  0  0  0  0  0  0  0  0  0  0  0
  143.9328   71.4157  218.6343 H   0  0  0  0  0  0  0  0  0  0  0  0
  146.2696   71.0176  219.3026 H   0  0  0  0  0  0  0  0  0  0  0  0
  147.3803   72.4871  220.9774 H   0  0  0  0  0  0  0  0  0  0  0  0
  146.0863   74.3529  221.9494 H   0  0  0  0  0  0  0  0  0  0  0  0
  143.7562   74.7594  221.2875 H   0  0  0  0  0  0  0  0  0  0  0  0
  141.1183   72.6222  224.8735 H   0  0  0  0  0  0  0  0  0  0  0  0
  141.4661   70.9321  226.6125 H   0  0  0  0  0  0  0  0  0  0  0  0
  1  2  1  0
  2  3  2  0
  2  4  2  0
  2  5  1  0
  5  6  2  0
  6  7  1  0
  7  8  2  0
  8  9  1  0
  9 10  2  0
 10 11  1  0
 11 12  2  0
 12 13  1  0
 13 14  2  0
 14 15  1  0
 15 16  2  0
 16 17  1  0
 16 18  1  0
 18 19  2  0
 19 20  1  0
 20 21  2  0
 20 22  1  0
 22 23  1  0
 23 24  1  0
 24 25  2  0
 25 26  1  0
 26 27  2  0
 27 28  1  0
 28 29  2  0
  8 30  1  0
 30 31  2  0
 31  5  1  0
 22 11  1  0
 29 24  1  0
 19 13  1  0
  1 32  1  0
  1 33  1  0
  6 34  1  0
  7 35  1  0
  9 36  1  0
 10 37  1  0
 14 38  1  0
 15 39  1  0
 18 40  1  0
 23 41  1  0
 23 42  1  0
 25 43  1  0
 26 44  1  0
 27 45  1  0
 28 46  1  0
 29 47  1  0
 30 48  1  0
 31 49  1  0
M  END
>  <smiles>  (26) 
NS(=O)(=O)c1ccc(/C=C/c2nc3ccc(F)cc3c(=O)n2Cc2ccccc2)cc1

>  <score_type>  (26) 
oracle

>  <origin>  (26) 
autodockgpu

>  <m_score__min__energy>  (26) 
-9.2599999999999998

>  <m_primary>  (26) 
energy

>  <rmsd>  (26) 
8.26110713329612

>  <m_score__min__rmsd>  (26) 
8.26110713329612

>  <meeko>  (26) 
{"free_energy": -9.26, "intermolecular_energy": -11.35, "internal_energy": -1.18, "cluster_size": 8, "cluster_id": 1, "rank_in_cluster": 1}

>  <energy>  (26) 
-8.22

>  <cluster_rmsd>  (26) 
0.8

>  <cluster>  (26) 
3

$$$$

     RDKit          3D

 49 52  0  0  0  0  0  0  0  0999 V2000
  145.7500   73.0670  218.9440 N   0  0  0  0  0  0  0  0  0  0  0  0
  145.3440   73.4720  220.5820 S   0  0  0  0  0  0  0  0  0  0  0  0
  145.5740   74.9310  220.8450 O   0  0  0  0  0  0  0  0  0  0  0  0
  146.2580   72.6960  221.4880 O   0  0  0  0  0  0  0  0  0  0  0  0
  143.6760   73.0960  220.8410 C   0  0  0  0  0  0  0  0  0  0  0  0
  142.6780   74.0440  220.8990 C   0  0  0  0  0  0  0  0  0  0  0  0
  141.3510   73.7030  221.1080 C   0  0  0  0  0  0  0  0  0  0  0  0
  140.9670   72.4060  221.2680 C   0  0  0  0  0  0  0  0  0  0  0  0
  139.5950   71.9690  221.4910 C   0  0  0  0  0  0  0  0  0  0  0  0
  138.9890   72.0440  222.6670 C   0  0  0  0  0  0  0  0  0  0  0  0
  139.3270   71.0830  223.7290 C   0  0  0  0  0  0  0  0  0  0  0  0
  139.9710   71.5890  224.7950 N   0  0  0  0  0  0  0  0  0  0  0  0
  140.3170   70.8270  225.8470 C   0  0  0  0  0  0  0  0  0  0  0  0
  140.9740   71.3930  226.9120 C   0  0  0  0  0  0  0  0  0  0  0  0
  141.3110   70.5820  227.9710 C   0  0  0  0  0  0  0  0  0  0  0  0
  140.9810   69.2370  227.9260 C   0  0  0  0  0  0  0  0  0  0  0  0
  141.3250   68.4660  228.9790 F   0  0  0  0  0  0  0  0  0  0  0  0
  140.3150   68.6880  226.8350 C   0  0  0  0  0  0  0  0  0  0  0  0
  139.9770   69.4920  225.7770 C   0  0  0  0  0  0  0  0  0  0  0  0
  139.3100   68.9920  224.6610 C   0  0  0  0  0  0  0  0  0  0  0  0
  139.0440   67.7660  224.6940 O   0  0  0  0  0  0  0  0  0  0  0  0
  138.9750   69.7920  223.6130 N   0  0  0  0  0  0  0  0  0  0  0  0
  138.2870   69.2330  222.4800 C   0  0  0  0  0  0  0  0  0  0  0  0
  139.0850   68.2620  221.6900 C   0  0  0  0  0  0  0  0  0  0  0  0
  140.0170   68.5980  220.7430 C   0  0  0  0  0  0  0  0  0  0  0  0
  140.7320   67.6420  220.0300 C   0  0  0  0  0  0  0  0  0  0  0  0
  140.5280   66.2970  220.2500 C   0  0  0  0  0  0  0  0  0  0  0  0
  139.6050   65.9410  221.1880 C   0  0  0  0  0  0  0  0  0  0  0  0
  138.8940   66.8910  221.8980 C   0  0  0  0  0  0  0  0  0  0  0  0
  141.9810   71.4460  221.2090 C   0  0  0  0  0  0  0  0  0  0  0  0
  143.2990   71.7810  221.0010 C   0  0  0  0  0  0  0  0  0  0  0  0
  146.3810   73.8370  218.5890 H   0  0  0  0  0  0  0  0  0  0  0  0
  146.3170   72.1910  218.9110 H   0  0  0  0  0  0  0  0  0  0  0  0
  142.9426   75.1045  220.7756 H   0  0  0  0  0  0  0  0  0  0  0  0
  140.5911   74.4974  221.1455 H   0  0  0  0  0  0  0  0  0  0  0  0
  139.0338   71.5559  220.6399 H   0  0  0  0  0  0  0  0  0  0  0  0
  138.2344   72.8234  222.8491 H   0  0  0  0  0  0  0  0  0  0  0  0
  141.2237   72.4643  226.9181 H   0  0  0  0  0  0  0  0  0  0  0  0
  141.8366   70.9967  228.8438 H   0  0  0  0  0  0  0  0  0  0  0  0
  140.0616   67.6177  226.8212 H   0  0  0  0  0  0  0  0  0  0  0  0
  137.3854   68.7195  222.8452 H   0  0  0  0  0  0  0  0  0  0  0  0
  138.0620   70.0729  221.8063 H   0  0  0  0  0  0  0  0  0  0  0  0
  140.2062   69.6623  220.5396 H   0  0  0  0  0  0  0  0  0  0  0  0
  141.4701   67.9636  219.2805 H   0  0  0  0  0  0  0  0  0  0  0  0
  141.0905   65.5368  219.6881 H   0  0  0  0  0  0  0  0  0  0  0  0
  139.4218   64.8743  221.3844 H   0  0  0  0  0  0  0  0  0  0  0  0
  138.1586   66.5605  222.6463 H   0  0  0  0  0  0  0  0  0  0  0  0
  141.7160   70.3856  221.3332 H   0  0  0  0  0  0  0  0  0  0  0  0
  144.0612   70.9888  220.9620 H   0  0  0  0  0  0  0  0  0  0  0  0
  1  2  1  0
  2  3  2  0
  2  4  2  0
  2  5  1  0
  5  6  2  0
  6  7  1  0
  7  8  2  0
  8  9  1  0
  9 10  2  0
 10 11  1  0
 11 12  2  0
 12 13  1  0
 13 14  2  0
 14 15  1  0
 15 16  2  0
 16 17  1  0
 16 18  1  0
 18 19  2  0
 19 20  1  0
 20 21  2  0
 20 22  1  0
 22 23  1  0
 23 24  1  0
 24 25  2  0
 25 26  1  0
 26 27  2  0
 27 28  1  0
 28 29  2  0
  8 30  1  0
 30 31  2  0
 31  5  1  0
 22 11  1  0
 29 24  1  0
 19 13  1  0
  1 32  1  0
  1 33  1  0
  6 34  1  0
  7 35  1  0
  9 36  1  0
 10 37  1  0
 14 38  1  0
 15 39  1  0
 18 40  1  0
 23 41  1  0
 23 42  1  0
 25 43  1  0
 26 44  1  0
 27 45  1  0
 28 46  1  0
 29 47  1  0
 30 48  1  0
 31 49  1  0
M  END
>  <smiles>  (27) 
NS(=O)(=O)c1ccc(/C=C/c2nc3ccc(F)cc3c(=O)n2Cc2ccccc2)cc1

>  <score_type>  (27) 
oracle

>  <origin>  (27) 
autodockgpu

>  <m_score__min__energy>  (27) 
-9.2599999999999998

>  <m_primary>  (27) 
energy

>  <rmsd>  (27) 
12.726780535211939

>  <m_score__min__rmsd>  (27) 
12.726780535211939

>  <meeko>  (27) 
{"free_energy": -8.22, "intermolecular_energy": -10.31, "internal_energy": -1.61, "cluster_size": 15, "cluster_id": 3, "rank_in_cluster": 12}

>  <energy>  (27) 
-8.22

>  <cluster_rmsd>  (27) 
0.59

>  <cluster>  (27) 
3

$$$$

     RDKit          3D

 49 52  0  0  0  0  0  0  0  0999 V2000
  145.9010   73.4180  218.2160 N   0  0  0  0  0  0  0  0  0  0  0  0
  145.8040   72.7150  219.8000 S   0  0  0  0  0  0  0  0  0  0  0  0
  146.7180   73.4260  220.7550 O   0  0  0  0  0  0  0  0  0  0  0  0
  146.2680   71.2900  219.7010 O   0  0  0  0  0  0  0  0  0  0  0  0
  144.1730   72.8470  220.3590 C   0  0  0  0  0  0  0  0  0  0  0  0
  143.4730   74.0320  220.4040 C   0  0  0  0  0  0  0  0  0  0  0  0
  142.1650   74.0960  220.8580 C   0  0  0  0  0  0  0  0  0  0  0  0
  141.5050   72.9830  221.2850 C   0  0  0  0  0  0  0  0  0  0  0  0
  140.1330   72.9710  221.7760 C   0  0  0  0  0  0  0  0  0  0  0  0
  139.4140   71.8650  221.8990 C   0  0  0  0  0  0  0  0  0  0  0  0
  139.5450   71.0340  223.1070 C   0  0  0  0  0  0  0  0  0  0  0  0
  140.1330   71.6230  224.1640 N   0  0  0  0  0  0  0  0  0  0  0  0
  140.2950   70.9860  225.3360 C   0  0  0  0  0  0  0  0  0  0  0  0
  140.9010   71.6330  226.3850 C   0  0  0  0  0  0  0  0  0  0  0  0
  141.0480   70.9490  227.5700 C   0  0  0  0  0  0  0  0  0  0  0  0
  140.5850   69.6460  227.6620 C   0  0  0  0  0  0  0  0  0  0  0  0
  140.7430   69.0010  228.8370 F   0  0  0  0  0  0  0  0  0  0  0  0
  139.9730   69.0140  226.5860 C   0  0  0  0  0  0  0  0  0  0  0  0
  139.8250   69.6910  225.4020 C   0  0  0  0  0  0  0  0  0  0  0  0
  139.2210   69.1030  224.2930 C   0  0  0  0  0  0  0  0  0  0  0  0
  138.8250   67.9220  224.4540 O   0  0  0  0  0  0  0  0  0  0  0  0
  139.0730   69.7770  223.1210 N   0  0  0  0  0  0  0  0  0  0  0  0
  138.4430   69.1310  222.0000 C   0  0  0  0  0  0  0  0  0  0  0  0
  139.3450   68.2660  221.1990 C   0  0  0  0  0  0  0  0  0  0  0  0
  139.3320   66.8960  221.2060 C   0  0  0  0  0  0  0  0  0  0  0  0
  140.2080   66.1390  220.4360 C   0  0  0  0  0  0  0  0  0  0  0  0
  141.1390   66.7450  219.6220 C   0  0  0  0  0  0  0  0  0  0  0  0
  141.1700   68.1080  219.6000 C   0  0  0  0  0  0  0  0  0  0  0  0
  140.2990   68.8620  220.3650 C   0  0  0  0  0  0  0  0  0  0  0  0
  142.2180   71.7820  221.2390 C   0  0  0  0  0  0  0  0  0  0  0  0
  143.5150   71.7150  220.7880 C   0  0  0  0  0  0  0  0  0  0  0  0
  145.1590   74.1680  218.1710 H   0  0  0  0  0  0  0  0  0  0  0  0
  146.8140   73.9080  218.0860 H   0  0  0  0  0  0  0  0  0  0  0  0
  143.9670   74.9561  220.0694 H   0  0  0  0  0  0  0  0  0  0  0  0
  141.6482   75.0669  220.8739 H   0  0  0  0  0  0  0  0  0  0  0  0
  139.6710   73.9284  222.0587 H   0  0  0  0  0  0  0  0  0  0  0  0
  138.7198   71.5679  221.0991 H   0  0  0  0  0  0  0  0  0  0  0  0
  141.2585   72.6681  226.2809 H   0  0  0  0  0  0  0  0  0  0  0  0
  141.5277   71.4311  228.4346 H   0  0  0  0  0  0  0  0  0  0  0  0
  139.6105   67.9800  226.6829 H   0  0  0  0  0  0  0  0  0  0  0  0
  137.6196   68.5088  222.3807 H   0  0  0  0  0  0  0  0  0  0  0  0
  138.1025   69.9331  221.3286 H   0  0  0  0  0  0  0  0  0  0  0  0
  138.6021   66.3761  221.8439 H   0  0  0  0  0  0  0  0  0  0  0  0
  140.1567   65.0410  220.4776 H   0  0  0  0  0  0  0  0  0  0  0  0
  141.8336   66.1501  219.0107 H   0  0  0  0  0  0  0  0  0  0  0  0
  141.9040   68.6191  218.9597 H   0  0  0  0  0  0  0  0  0  0  0  0
  140.3571   69.9594  220.3171 H   0  0  0  0  0  0  0  0  0  0  0  0
  141.7244   70.8583  221.5753 H   0  0  0  0  0  0  0  0  0  0  0  0
  144.0340   70.7453  220.7694 H   0  0  0  0  0  0  0  0  0  0  0  0
  1  2  1  0
  2  3  2  0
  2  4  2  0
  2  5  1  0
  5  6  2  0
  6  7  1  0
  7  8  2  0
  8  9  1  0
  9 10  2  0
 10 11  1  0
 11 12  2  0
 12 13  1  0
 13 14  2  0
 14 15  1  0
 15 16  2  0
 16 17  1  0
 16 18  1  0
 18 19  2  0
 19 20  1  0
 20 21  2  0
 20 22  1  0
 22 23  1  0
 23 24  1  0
 24 25  2  0
 25 26  1  0
 26 27  2  0
 27 28  1  0
 28 29  2  0
  8 30  1  0
 30 31  2  0
 31  5  1  0
 22 11  1  0
 29 24  1  0
 19 13  1  0
  1 32  1  0
  1 33  1  0
  6 34  1  0
  7 35  1  0
  9 36  1  0
 10 37  1  0
 14 38  1  0
 15 39  1  0
 18 40  1  0
 23 41  1  0
 23 42  1  0
 25 43  1  0
 26 44  1  0
 27 45  1  0
 28 46  1  0
 29 47  1  0
 30 48  1  0
 31 49  1  0
M  END
>  <smiles>  (28) 
NS(=O)(=O)c1ccc(/C=C/c2nc3ccc(F)cc3c(=O)n2Cc2ccccc2)cc1

>  <score_type>  (28) 
oracle

>  <origin>  (28) 
autodockgpu

>  <m_score__min__energy>  (28) 
-9.2599999999999998

>  <m_primary>  (28) 
energy

>  <rmsd>  (28) 
12.1851574975067

>  <m_score__min__rmsd>  (28) 
12.1851574975067

>  <meeko>  (28) 
{"free_energy": -9.04, "intermolecular_energy": -11.13, "internal_energy": -1.65, "cluster_size": 15, "cluster_id": 3, "rank_in_cluster": 3}

>  <energy>  (28) 
-8.12

>  <cluster_rmsd>  (28) 
1.77

>  <cluster>  (28) 
3

$$$$

     RDKit          3D

 49 52  0  0  0  0  0  0  0  0999 V2000
  146.2980   73.5960  217.9900 N   0  0  0  0  0  0  0  0  0  0  0  0
  145.8720   73.2290  219.6320 S   0  0  0  0  0  0  0  0  0  0  0  0
  146.9120   73.7470  220.5820 O   0  0  0  0  0  0  0  0  0  0  0  0
  145.8320   71.7340  219.7740 O   0  0  0  0  0  0  0  0  0  0  0  0
  144.3510   73.9720  219.9820 C   0  0  0  0  0  0  0  0  0  0  0  0
  144.0690   75.2950  219.7270 C   0  0  0  0  0  0  0  0  0  0  0  0
  142.8350   75.8540  220.0210 C   0  0  0  0  0  0  0  0  0  0  0  0
  141.8360   75.1170  220.5830 C   0  0  0  0  0  0  0  0  0  0  0  0
  140.5160   75.6320  220.9210 C   0  0  0  0  0  0  0  0  0  0  0  0
  140.2480   76.2590  222.0570 C   0  0  0  0  0  0  0  0  0  0  0  0
  138.9100   76.8290  222.2830 C   0  0  0  0  0  0  0  0  0  0  0  0
  138.0310   76.0330  222.9170 N   0  0  0  0  0  0  0  0  0  0  0  0
  136.7830   76.4380  223.2080 C   0  0  0  0  0  0  0  0  0  0  0  0
  135.9240   75.5860  223.8580 C   0  0  0  0  0  0  0  0  0  0  0  0
  134.6550   76.0350  224.1400 C   0  0  0  0  0  0  0  0  0  0  0  0
  134.2910   77.3170  223.7610 C   0  0  0  0  0  0  0  0  0  0  0  0
  133.0390   77.7310  224.0510 F   0  0  0  0  0  0  0  0  0  0  0  0
  135.1800   78.1620  223.1040 C   0  0  0  0  0  0  0  0  0  0  0  0
  136.4470   77.7180  222.8210 C   0  0  0  0  0  0  0  0  0  0  0  0
  137.3750   78.5230  222.1640 C   0  0  0  0  0  0  0  0  0  0  0  0
  136.9720   79.6710  221.8540 O   0  0  0  0  0  0  0  0  0  0  0  0
  138.6300   78.0810  221.8850 N   0  0  0  0  0  0  0  0  0  0  0  0
  139.5570   78.9470  221.2040 C   0  0  0  0  0  0  0  0  0  0  0  0
  140.6400   79.4880  222.0630 C   0  0  0  0  0  0  0  0  0  0  0  0
  141.9400   79.0530  222.0560 C   0  0  0  0  0  0  0  0  0  0  0  0
  142.9110   79.5960  222.8890 C   0  0  0  0  0  0  0  0  0  0  0  0
  142.6010   80.6090  223.7710 C   0  0  0  0  0  0  0  0  0  0  0  0
  141.3140   81.0560  223.7940 C   0  0  0  0  0  0  0  0  0  0  0  0
  140.3470   80.5170  222.9660 C   0  0  0  0  0  0  0  0  0  0  0  0
  142.1250   73.7740  220.8420 C   0  0  0  0  0  0  0  0  0  0  0  0
  143.3480   73.2170  220.5500 C   0  0  0  0  0  0  0  0  0  0  0  0
  145.5460   74.2370  217.6170 H   0  0  0  0  0  0  0  0  0  0  0  0
  147.1870   74.1440  217.9540 H   0  0  0  0  0  0  0  0  0  0  0  0
  144.8471   75.9283  219.2759 H   0  0  0  0  0  0  0  0  0  0  0  0
  142.6583   76.9161  219.7956 H   0  0  0  0  0  0  0  0  0  0  0  0
  139.7002   75.4933  220.1963 H   0  0  0  0  0  0  0  0  0  0  0  0
  141.0246   76.3534  222.8303 H   0  0  0  0  0  0  0  0  0  0  0  0
  136.2421   74.5729  224.1450 H   0  0  0  0  0  0  0  0  0  0  0  0
  133.9373   75.3838  224.6604 H   0  0  0  0  0  0  0  0  0  0  0  0
  134.8698   79.1768  222.8141 H   0  0  0  0  0  0  0  0  0  0  0  0
  140.0205   78.3777  220.3848 H   0  0  0  0  0  0  0  0  0  0  0  0
  138.9757   79.8120  220.8521 H   0  0  0  0  0  0  0  0  0  0  0  0
  142.2249   78.2450  221.3661 H   0  0  0  0  0  0  0  0  0  0  0  0
  143.9409   79.2122  222.8439 H   0  0  0  0  0  0  0  0  0  0  0  0
  143.3657   81.0413  224.4330 H   0  0  0  0  0  0  0  0  0  0  0  0
  141.0381   81.8642  224.4873 H   0  0  0  0  0  0  0  0  0  0  0  0
  139.3198   80.9071  223.0181 H   0  0  0  0  0  0  0  0  0  0  0  0
  141.3476   73.1411  221.2948 H   0  0  0  0  0  0  0  0  0  0  0  0
  143.5279   72.1549  220.7728 H   0  0  0  0  0  0  0  0  0  0  0  0
  1  2  1  0
  2  3  2  0
  2  4  2  0
  2  5  1  0
  5  6  2  0
  6  7  1  0
  7  8  2  0
  8  9  1  0
  9 10  2  0
 10 11  1  0
 11 12  2  0
 12 13  1  0
 13 14  2  0
 14 15  1  0
 15 16  2  0
 16 17  1  0
 16 18  1  0
 18 19  2  0
 19 20  1  0
 20 21  2  0
 20 22  1  0
 22 23  1  0
 23 24  1  0
 24 25  2  0
 25 26  1  0
 26 27  2  0
 27 28  1  0
 28 29  2  0
  8 30  1  0
 30 31  2  0
 31  5  1  0
 22 11  1  0
 29 24  1  0
 19 13  1  0
  1 32  1  0
  1 33  1  0
  6 34  1  0
  7 35  1  0
  9 36  1  0
 10 37  1  0
 14 38  1  0
 15 39  1  0
 18 40  1  0
 23 41  1  0
 23 42  1  0
 25 43  1  0
 26 44  1  0
 27 45  1  0
 28 46  1  0
 29 47  1  0
 30 48  1  0
 31 49  1  0
M  END
>  <smiles>  (29) 
NS(=O)(=O)c1ccc(/C=C/c2nc3ccc(F)cc3c(=O)n2Cc2ccccc2)cc1

>  <score_type>  (29) 
oracle

>  <origin>  (29) 
autodockgpu

>  <m_score__min__energy>  (29) 
-9.2599999999999998

>  <m_primary>  (29) 
energy

>  <rmsd>  (29) 
5.270329356589366

>  <m_score__min__rmsd>  (29) 
5.270329356589366

>  <meeko>  (29) 
{"free_energy": -8.18, "intermolecular_energy": -10.27, "internal_energy": -1.32, "cluster_size": 3, "cluster_id": 8, "rank_in_cluster": 2}

>  <energy>  (29) 
-8.04

>  <cluster_rmsd>  (29) 
0.72

>  <cluster>  (29) 
3

$$$$

     RDKit          3D

 49 52  0  0  0  0  0  0  0  0999 V2000
  132.4120   74.0480  224.8820 N   0  0  0  0  0  0  0  0  0  0  0  0
  133.7120   73.5100  225.8980 S   0  0  0  0  0  0  0  0  0  0  0  0
  133.2000   73.1100  227.2510 O   0  0  0  0  0  0  0  0  0  0  0  0
  134.6540   74.6640  226.0910 O   0  0  0  0  0  0  0  0  0  0  0  0
  134.4700   72.1510  225.1450 C   0  0  0  0  0  0  0  0  0  0  0  0
  134.6970   70.9510  225.7810 C   0  0  0  0  0  0  0  0  0  0  0  0
  135.3070   69.8840  225.1410 C   0  0  0  0  0  0  0  0  0  0  0  0
  135.7150   69.9710  223.8440 C   0  0  0  0  0  0  0  0  0  0  0  0
  136.3630   68.8950  223.1050 C   0  0  0  0  0  0  0  0  0  0  0  0
  137.6780   68.7390  223.0480 C   0  0  0  0  0  0  0  0  0  0  0  0
  138.5500   69.5360  223.9250 C   0  0  0  0  0  0  0  0  0  0  0  0
  138.6460   69.1160  225.1980 N   0  0  0  0  0  0  0  0  0  0  0  0
  139.4270   69.7380  226.0980 C   0  0  0  0  0  0  0  0  0  0  0  0
  139.4900   69.2680  227.3870 C   0  0  0  0  0  0  0  0  0  0  0  0
  140.3000   69.9300  228.2790 C   0  0  0  0  0  0  0  0  0  0  0  0
  141.0170   71.0360  227.8520 C   0  0  0  0  0  0  0  0  0  0  0  0
  141.8040   71.6650  228.7500 F   0  0  0  0  0  0  0  0  0  0  0  0
  140.9370   71.4920  226.5400 C   0  0  0  0  0  0  0  0  0  0  0  0
  140.1300   70.8360  225.6470 C   0  0  0  0  0  0  0  0  0  0  0  0
  140.0130   71.2520  224.3230 C   0  0  0  0  0  0  0  0  0  0  0  0
  140.6930   72.2600  224.0090 O   0  0  0  0  0  0  0  0  0  0  0  0
  139.2120   70.5990  223.4380 N   0  0  0  0  0  0  0  0  0  0  0  0
  139.1220   71.0630  222.0790 C   0  0  0  0  0  0  0  0  0  0  0  0
  138.8780   72.5210  221.9410 C   0  0  0  0  0  0  0  0  0  0  0  0
  137.6710   73.1390  222.1440 C   0  0  0  0  0  0  0  0  0  0  0  0
  137.5020   74.5110  221.9930 C   0  0  0  0  0  0  0  0  0  0  0  0
  138.5580   75.3170  221.6270 C   0  0  0  0  0  0  0  0  0  0  0  0
  139.7670   74.7230  221.4190 C   0  0  0  0  0  0  0  0  0  0  0  0
  139.9360   73.3590  221.5690 C   0  0  0  0  0  0  0  0  0  0  0  0
  135.4840   71.1890  223.2010 C   0  0  0  0  0  0  0  0  0  0  0  0
  134.8780   72.2500  223.8330 C   0  0  0  0  0  0  0  0  0  0  0  0
  132.7420   73.9410  223.8840 H   0  0  0  0  0  0  0  0  0  0  0  0
  131.5830   73.4200  224.9800 H   0  0  0  0  0  0  0  0  0  0  0  0
  134.3845   70.8358  226.8294 H   0  0  0  0  0  0  0  0  0  0  0  0
  135.4654   68.9456  225.6926 H   0  0  0  0  0  0  0  0  0  0  0  0
  135.7283   68.1755  222.5670 H   0  0  0  0  0  0  0  0  0  0  0  0
  138.1168   68.0147  222.3460 H   0  0  0  0  0  0  0  0  0  0  0  0
  138.9089   68.3869  227.6968 H   0  0  0  0  0  0  0  0  0  0  0  0
  140.3780   69.5853  229.3207 H   0  0  0  0  0  0  0  0  0  0  0  0
  141.5163   72.3714  226.2220 H   0  0  0  0  0  0  0  0  0  0  0  0
  140.0677   70.8233  221.5708 H   0  0  0  0  0  0  0  0  0  0  0  0
  138.2534   70.5569  221.6325 H   0  0  0  0  0  0  0  0  0  0  0  0
  136.8050   72.5273  222.4369 H   0  0  0  0  0  0  0  0  0  0  0  0
  136.5126   74.9586  222.1680 H   0  0  0  0  0  0  0  0  0  0  0  0
  138.4297   76.4029  221.5068 H   0  0  0  0  0  0  0  0  0  0  0  0
  140.6272   75.3425  221.1253 H   0  0  0  0  0  0  0  0  0  0  0  0
  140.9289   72.9202  221.3912 H   0  0  0  0  0  0  0  0  0  0  0  0
  135.7975   71.3039  222.1529 H   0  0  0  0  0  0  0  0  0  0  0  0
  134.7172   73.1894  223.2837 H   0  0  0  0  0  0  0  0  0  0  0  0
  1  2  1  0
  2  3  2  0
  2  4  2  0
  2  5  1  0
  5  6  2  0
  6  7  1  0
  7  8  2  0
  8  9  1  0
  9 10  2  0
 10 11  1  0
 11 12  2  0
 12 13  1  0
 13 14  2  0
 14 15  1  0
 15 16  2  0
 16 17  1  0
 16 18  1  0
 18 19  2  0
 19 20  1  0
 20 21  2  0
 20 22  1  0
 22 23  1  0
 23 24  1  0
 24 25  2  0
 25 26  1  0
 26 27  2  0
 27 28  1  0
 28 29  2  0
  8 30  1  0
 30 31  2  0
 31  5  1  0
 22 11  1  0
 29 24  1  0
 19 13  1  0
  1 32  1  0
  1 33  1  0
  6 34  1  0
  7 35  1  0
  9 36  1  0
 10 37  1  0
 14 38  1  0
 15 39  1  0
 18 40  1  0
 23 41  1  0
 23 42  1  0
 25 43  1  0
 26 44  1  0
 27 45  1  0
 28 46  1  0
 29 47  1  0
 30 48  1  0
 31 49  1  0
M  END
>  <smiles>  (30) 
NS(=O)(=O)c1ccc(/C=C/c2nc3ccc(F)cc3c(=O)n2Cc2ccccc2)cc1

>  <score_type>  (30) 
oracle

>  <origin>  (30) 
autodockgpu

>  <m_score__min__energy>  (30) 
-9.2599999999999998

>  <m_primary>  (30) 
energy

>  <rmsd>  (30) 
9.02615825990006

>  <m_score__min__rmsd>  (30) 
9.02615825990006

>  <meeko>  (30) 
{"free_energy": -7.19, "intermolecular_energy": -9.28, "internal_energy": -1.89, "cluster_size": 2, "cluster_id": 11, "rank_in_cluster": 2}

>  <energy>  (30) 
-8.77

>  <cluster_rmsd>  (30) 
0.0

>  <cluster>  (30) 
4

$$$$

     RDKit          3D

 49 52  0  0  0  0  0  0  0  0999 V2000
  142.5850   79.0240  222.2470 N   0  0  0  0  0  0  0  0  0  0  0  0
  140.8660   79.0060  222.0070 S   0  0  0  0  0  0  0  0  0  0  0  0
  140.5030   79.6490  220.7010 O   0  0  0  0  0  0  0  0  0  0  0  0
  140.2390   79.8190  223.1040 O   0  0  0  0  0  0  0  0  0  0  0  0
  140.3300   77.3620  222.0080 C   0  0  0  0  0  0  0  0  0  0  0  0
  139.0750   76.9660  222.4140 C   0  0  0  0  0  0  0  0  0  0  0  0
  138.6820   75.6370  222.3980 C   0  0  0  0  0  0  0  0  0  0  0  0
  139.5250   74.6520  221.9800 C   0  0  0  0  0  0  0  0  0  0  0  0
  139.1860   73.2350  221.9350 C   0  0  0  0  0  0  0  0  0  0  0  0
  140.0640   72.2690  222.1610 C   0  0  0  0  0  0  0  0  0  0  0  0
  139.9240   71.4130  223.3500 C   0  0  0  0  0  0  0  0  0  0  0  0
  140.5230   71.8560  224.4680 N   0  0  0  0  0  0  0  0  0  0  0  0
  140.4540   71.1840  225.6300 C   0  0  0  0  0  0  0  0  0  0  0  0
  141.0850   71.6810  226.7440 C   0  0  0  0  0  0  0  0  0  0  0  0
  140.9900   70.9660  227.9150 C   0  0  0  0  0  0  0  0  0  0  0  0
  140.2710   69.7810  227.9300 C   0  0  0  0  0  0  0  0  0  0  0  0
  140.1960   69.1020  229.0930 F   0  0  0  0  0  0  0  0  0  0  0  0
  139.6400   69.2990  226.7880 C   0  0  0  0  0  0  0  0  0  0  0  0
  139.7320   70.0090  225.6170 C   0  0  0  0  0  0  0  0  0  0  0  0
  139.1200   69.5700  224.4450 C   0  0  0  0  0  0  0  0  0  0  0  0
  138.4860   68.4900  224.5370 O   0  0  0  0  0  0  0  0  0  0  0  0
  139.2110   70.2750  223.2860 N   0  0  0  0  0  0  0  0  0  0  0  0
  138.5640   69.7850  222.0990 C   0  0  0  0  0  0  0  0  0  0  0  0
  139.1930   68.5780  221.5070 C   0  0  0  0  0  0  0  0  0  0  0  0
  140.1720   68.5920  220.5470 C   0  0  0  0  0  0  0  0  0  0  0  0
  140.7200   67.4250  220.0260 C   0  0  0  0  0  0  0  0  0  0  0  0
  140.2950   66.1880  220.4590 C   0  0  0  0  0  0  0  0  0  0  0  0
  139.3220   66.1510  221.4130 C   0  0  0  0  0  0  0  0  0  0  0  0
  138.7760   67.3100  221.9330 C   0  0  0  0  0  0  0  0  0  0  0  0
  140.7980   75.0560  221.5690 C   0  0  0  0  0  0  0  0  0  0  0  0
  141.1900   76.3740  221.5820 C   0  0  0  0  0  0  0  0  0  0  0  0
  142.9410   78.0710  221.9630 H   0  0  0  0  0  0  0  0  0  0  0  0
  143.0400   79.7060  221.6000 H   0  0  0  0  0  0  0  0  0  0  0  0
  138.3623   77.7283  222.7618 H   0  0  0  0  0  0  0  0  0  0  0  0
  137.6674   75.3719  222.7300 H   0  0  0  0  0  0  0  0  0  0  0  0
  138.1486   72.9535  221.7016 H   0  0  0  0  0  0  0  0  0  0  0  0
  140.8967   72.1069  221.4608 H   0  0  0  0  0  0  0  0  0  0  0  0
  141.6501   72.6238  226.7009 H   0  0  0  0  0  0  0  0  0  0  0  0
  141.4795   71.3307  228.8301 H   0  0  0  0  0  0  0  0  0  0  0  0
  139.0724   68.3574  226.8230 H   0  0  0  0  0  0  0  0  0  0  0  0
  137.5220   69.5399  222.3523 H   0  0  0  0  0  0  0  0  0  0  0  0
  138.6483   70.5822  221.3458 H   0  0  0  0  0  0  0  0  0  0  0  0
  140.5369   69.5610  220.1757 H   0  0  0  0  0  0  0  0  0  0  0  0
  141.5040   67.4904  219.2572 H   0  0  0  0  0  0  0  0  0  0  0  0
  140.7258   65.2626  220.0492 H   0  0  0  0  0  0  0  0  0  0  0  0
  138.9631   65.1771  221.7774 H   0  0  0  0  0  0  0  0  0  0  0  0
  137.9930   67.2345  222.7020 H   0  0  0  0  0  0  0  0  0  0  0  0
  141.5112   74.2933  221.2231 H   0  0  0  0  0  0  0  0  0  0  0  0
  142.2031   76.6426  221.2480 H   0  0  0  0  0  0  0  0  0  0  0  0
  1  2  1  0
  2  3  2  0
  2  4  2  0
  2  5  1  0
  5  6  2  0
  6  7  1  0
  7  8  2  0
  8  9  1  0
  9 10  2  0
 10 11  1  0
 11 12  2  0
 12 13  1  0
 13 14  2  0
 14 15  1  0
 15 16  2  0
 16 17  1  0
 16 18  1  0
 18 19  2  0
 19 20  1  0
 20 21  2  0
 20 22  1  0
 22 23  1  0
 23 24  1  0
 24 25  2  0
 25 26  1  0
 26 27  2  0
 27 28  1  0
 28 29  2  0
  8 30  1  0
 30 31  2  0
 31  5  1  0
 22 11  1  0
 29 24  1  0
 19 13  1  0
  1 32  1  0
  1 33  1  0
  6 34  1  0
  7 35  1  0
  9 36  1  0
 10 37  1  0
 14 38  1  0
 15 39  1  0
 18 40  1  0
 23 41  1  0
 23 42  1  0
 25 43  1  0
 26 44  1  0
 27 45  1  0
 28 46  1  0
 29 47  1  0
 30 48  1  0
 31 49  1  0
M  END
>  <smiles>  (31) 
NS(=O)(=O)c1ccc(/C=C/c2nc3ccc(F)cc3c(=O)n2Cc2ccccc2)cc1

>  <score_type>  (31) 
oracle

>  <origin>  (31) 
autodockgpu

>  <m_score__min__energy>  (31) 
-9.2599999999999998

>  <m_primary>  (31) 
energy

>  <rmsd>  (31) 
12.480368880596659

>  <m_score__min__rmsd>  (31) 
12.480368880596659

>  <meeko>  (31) 
{"free_energy": -8.35, "intermolecular_energy": -10.44, "internal_energy": -1.14, "cluster_size": 3, "cluster_id": 7, "rank_in_cluster": 1}

>  <energy>  (31) 
-8.35

>  <cluster_rmsd>  (31) 
0.31

>  <cluster>  (31) 
4

$$$$

     RDKit          3D

 49 52  0  0  0  0  0  0  0  0999 V2000
  135.8100   81.5220  230.9490 N   0  0  0  0  0  0  0  0  0  0  0  0
  134.4680   81.6520  229.8550 S   0  0  0  0  0  0  0  0  0  0  0  0
  133.7620   82.9640  230.0300 O   0  0  0  0  0  0  0  0  0  0  0  0
  133.4920   80.5610  230.1930 O   0  0  0  0  0  0  0  0  0  0  0  0
  135.0670   81.5320  228.2370 C   0  0  0  0  0  0  0  0  0  0  0  0
  136.3390   81.9030  227.8620 C   0  0  0  0  0  0  0  0  0  0  0  0
  136.7820   81.7910  226.5540 C   0  0  0  0  0  0  0  0  0  0  0  0
  135.9760   81.3050  225.5690 C   0  0  0  0  0  0  0  0  0  0  0  0
  136.3680   81.1570  224.1740 C   0  0  0  0  0  0  0  0  0  0  0  0
  135.8940   80.2080  223.3800 C   0  0  0  0  0  0  0  0  0  0  0  0
  136.7100   79.0170  223.0920 C   0  0  0  0  0  0  0  0  0  0  0  0
  138.0260   79.2330  222.9240 N   0  0  0  0  0  0  0  0  0  0  0  0
  138.8870   78.2310  222.6790 C   0  0  0  0  0  0  0  0  0  0  0  0
  140.2240   78.5050  222.5160 C   0  0  0  0  0  0  0  0  0  0  0  0
  141.0750   77.4530  222.2670 C   0  0  0  0  0  0  0  0  0  0  0  0
  140.5610   76.1690  222.1910 C   0  0  0  0  0  0  0  0  0  0  0  0
  141.4200   75.1570  221.9460 F   0  0  0  0  0  0  0  0  0  0  0  0
  139.2030   75.9170  222.3600 C   0  0  0  0  0  0  0  0  0  0  0  0
  138.3500   76.9620  222.6080 C   0  0  0  0  0  0  0  0  0  0  0  0
  136.9830   76.7650  222.7840 C   0  0  0  0  0  0  0  0  0  0  0  0
  136.5920   75.5750  222.7020 O   0  0  0  0  0  0  0  0  0  0  0  0
  136.1390   77.8030  223.0300 N   0  0  0  0  0  0  0  0  0  0  0  0
  134.7330   77.5530  223.2060 C   0  0  0  0  0  0  0  0  0  0  0  0
  134.3480   77.1250  224.5740 C   0  0  0  0  0  0  0  0  0  0  0  0
  134.7360   75.9520  225.1690 C   0  0  0  0  0  0  0  0  0  0  0  0
  134.3390   75.6030  226.4540 C   0  0  0  0  0  0  0  0  0  0  0  0
  133.5250   76.4330  227.1940 C   0  0  0  0  0  0  0  0  0  0  0  0
  133.1270   77.6050  226.6210 C   0  0  0  0  0  0  0  0  0  0  0  0
  133.5220   77.9540  225.3430 C   0  0  0  0  0  0  0  0  0  0  0  0
  134.6850   80.9290  225.9520 C   0  0  0  0  0  0  0  0  0  0  0  0
  134.2430   81.0390  227.2500 C   0  0  0  0  0  0  0  0  0  0  0  0
  136.0890   80.5040  230.9670 H   0  0  0  0  0  0  0  0  0  0  0  0
  136.6380   82.0410  230.5780 H   0  0  0  0  0  0  0  0  0  0  0  0
  137.0247   82.3007  228.6246 H   0  0  0  0  0  0  0  0  0  0  0  0
  137.8075   82.1015  226.3053 H   0  0  0  0  0  0  0  0  0  0  0  0
  137.0952   81.8699  223.7581 H   0  0  0  0  0  0  0  0  0  0  0  0
  134.8924   80.3099  222.9368 H   0  0  0  0  0  0  0  0  0  0  0  0
  140.6027   79.5356  222.5827 H   0  0  0  0  0  0  0  0  0  0  0  0
  142.1520   77.6297  222.1297 H   0  0  0  0  0  0  0  0  0  0  0  0
  138.8171   74.8890  222.2953 H   0  0  0  0  0  0  0  0  0  0  0  0
  134.1877   78.4787  222.9699 H   0  0  0  0  0  0  0  0  0  0  0  0
  134.4783   76.7192  222.5352 H   0  0  0  0  0  0  0  0  0  0  0  0
  135.3848   75.2626  224.6089 H   0  0  0  0  0  0  0  0  0  0  0  0
  134.6793   74.6507  226.8867 H   0  0  0  0  0  0  0  0  0  0  0  0
  133.2074   76.1599  228.2111 H   0  0  0  0  0  0  0  0  0  0  0  0
  132.4773   78.2876  227.1884 H   0  0  0  0  0  0  0  0  0  0  0  0
  133.1781   78.9088  224.9187 H   0  0  0  0  0  0  0  0  0  0  0  0
  133.9992   80.5316  225.1892 H   0  0  0  0  0  0  0  0  0  0  0  0
  133.2182   80.7292  227.5027 H   0  0  0  0  0  0  0  0  0  0  0  0
  1  2  1  0
  2  3  2  0
  2  4  2  0
  2  5  1  0
  5  6  2  0
  6  7  1  0
  7  8  2  0
  8  9  1  0
  9 10  2  0
 10 11  1  0
 11 12  2  0
 12 13  1  0
 13 14  2  0
 14 15  1  0
 15 16  2  0
 16 17  1  0
 16 18  1  0
 18 19  2  0
 19 20  1  0
 20 21  2  0
 20 22  1  0
 22 23  1  0
 23 24  1  0
 24 25  2  0
 25 26  1  0
 26 27  2  0
 27 28  1  0
 28 29  2  0
  8 30  1  0
 30 31  2  0
 31  5  1  0
 22 11  1  0
 29 24  1  0
 19 13  1  0
  1 32  1  0
  1 33  1  0
  6 34  1  0
  7 35  1  0
  9 36  1  0
 10 37  1  0
 14 38  1  0
 15 39  1  0
 18 40  1  0
 23 41  1  0
 23 42  1  0
 25 43  1  0
 26 44  1  0
 27 45  1  0
 28 46  1  0
 29 47  1  0
 30 48  1  0
 31 49  1  0
M  END
>  <smiles>  (32) 
NS(=O)(=O)c1ccc(/C=C/c2nc3ccc(F)cc3c(=O)n2Cc2ccccc2)cc1

>  <score_type>  (32) 
oracle

>  <origin>  (32) 
autodockgpu

>  <m_score__min__energy>  (32) 
-9.2599999999999998

>  <m_primary>  (32) 
energy

>  <rmsd>  (32) 
7.684125661313267

>  <m_score__min__rmsd>  (32) 
7.684125661313267

>  <meeko>  (32) 
{"free_energy": -7.57, "intermolecular_energy": -9.66, "internal_energy": -1.75, "cluster_size": 1, "cluster_id": 12, "rank_in_cluster": 1}

>  <energy>  (32) 
-8.2

>  <cluster_rmsd>  (32) 
1.38

>  <cluster>  (32) 
4

$$$$

     RDKit          3D

 49 52  0  0  0  0  0  0  0  0999 V2000
  139.2430   67.2470  226.2870 N   0  0  0  0  0  0  0  0  0  0  0  0
  139.9690   68.7270  226.8330 S   0  0  0  0  0  0  0  0  0  0  0  0
  141.3890   68.4980  227.2580 O   0  0  0  0  0  0  0  0  0  0  0  0
  139.2030   69.1980  228.0360 O   0  0  0  0  0  0  0  0  0  0  0  0
  139.9330   69.8660  225.5330 C   0  0  0  0  0  0  0  0  0  0  0  0
  140.7450   70.9760  225.4660 C   0  0  0  0  0  0  0  0  0  0  0  0
  140.6870   71.8670  224.4060 C   0  0  0  0  0  0  0  0  0  0  0  0
  139.8170   71.6870  223.3730 C   0  0  0  0  0  0  0  0  0  0  0  0
  139.6970   72.5770  222.2260 C   0  0  0  0  0  0  0  0  0  0  0  0
  138.5990   73.2660  221.9500 C   0  0  0  0  0  0  0  0  0  0  0  0
  138.5480   74.7100  222.2280 C   0  0  0  0  0  0  0  0  0  0  0  0
  139.7360   75.3290  222.3410 N   0  0  0  0  0  0  0  0  0  0  0  0
  139.8340   76.6490  222.5700 C   0  0  0  0  0  0  0  0  0  0  0  0
  141.0730   77.2340  222.6760 C   0  0  0  0  0  0  0  0  0  0  0  0
  141.1330   78.5880  222.9100 C   0  0  0  0  0  0  0  0  0  0  0  0
  139.9550   79.3070  223.0310 C   0  0  0  0  0  0  0  0  0  0  0  0
  140.0450   80.6340  223.2600 F   0  0  0  0  0  0  0  0  0  0  0  0
  138.7120   78.6920  222.9190 C   0  0  0  0  0  0  0  0  0  0  0  0
  138.6470   77.3420  222.6850 C   0  0  0  0  0  0  0  0  0  0  0  0
  137.4290   76.6780  222.5660 C   0  0  0  0  0  0  0  0  0  0  0  0
  136.4060   77.3960  222.6860 O   0  0  0  0  0  0  0  0  0  0  0  0
  137.3660   75.3390  222.3340 N   0  0  0  0  0  0  0  0  0  0  0  0
  136.0860   74.6930  222.2180 C   0  0  0  0  0  0  0  0  0  0  0  0
  135.4690   74.3100  223.5130 C   0  0  0  0  0  0  0  0  0  0  0  0
  135.1630   73.0280  223.8890 C   0  0  0  0  0  0  0  0  0  0  0  0
  134.5800   72.7300  225.1150 C   0  0  0  0  0  0  0  0  0  0  0  0
  134.2790   73.7290  226.0160 C   0  0  0  0  0  0  0  0  0  0  0  0
  134.5740   75.0110  225.6620 C   0  0  0  0  0  0  0  0  0  0  0  0
  135.1550   75.3090  224.4430 C   0  0  0  0  0  0  0  0  0  0  0  0
  138.9940   70.5600  223.4430 C   0  0  0  0  0  0  0  0  0  0  0  0
  139.0500   69.6740  224.4930 C   0  0  0  0  0  0  0  0  0  0  0  0
  139.6620   67.0350  225.3410 H   0  0  0  0  0  0  0  0  0  0  0  0
  139.5160   66.4530  226.9070 H   0  0  0  0  0  0  0  0  0  0  0  0
  141.4622   71.1614  226.2792 H   0  0  0  0  0  0  0  0  0  0  0  0
  141.3580   72.7386  224.3985 H   0  0  0  0  0  0  0  0  0  0  0  0
  140.5619   72.6826  221.5546 H   0  0  0  0  0  0  0  0  0  0  0  0
  137.7262   72.7586  221.5133 H   0  0  0  0  0  0  0  0  0  0  0  0
  141.9910   76.6361  222.5765 H   0  0  0  0  0  0  0  0  0  0  0  0
  142.1054   79.0943  223.0001 H   0  0  0  0  0  0  0  0  0  0  0  0
  137.7896   79.2832  223.0173 H   0  0  0  0  0  0  0  0  0  0  0  0
  135.4002   75.3801  221.7008 H   0  0  0  0  0  0  0  0  0  0  0  0
  136.2570   73.7578  221.6647 H   0  0  0  0  0  0  0  0  0  0  0  0
  135.3871   72.2046  223.1949 H   0  0  0  0  0  0  0  0  0  0  0  0
  134.3559   71.6836  225.3696 H   0  0  0  0  0  0  0  0  0  0  0  0
  133.8166   73.4989  226.9872 H   0  0  0  0  0  0  0  0  0  0  0  0
  134.3448   75.8280  226.3620 H   0  0  0  0  0  0  0  0  0  0  0  0
  135.3763   76.3581  224.1973 H   0  0  0  0  0  0  0  0  0  0  0  0
  138.2765   70.3752  222.6300 H   0  0  0  0  0  0  0  0  0  0  0  0
  138.3812   68.8007  224.5028 H   0  0  0  0  0  0  0  0  0  0  0  0
  1  2  1  0
  2  3  2  0
  2  4  2  0
  2  5  1  0
  5  6  2  0
  6  7  1  0
  7  8  2  0
  8  9  1  0
  9 10  2  0
 10 11  1  0
 11 12  2  0
 12 13  1  0
 13 14  2  0
 14 15  1  0
 15 16  2  0
 16 17  1  0
 16 18  1  0
 18 19  2  0
 19 20  1  0
 20 21  2  0
 20 22  1  0
 22 23  1  0
 23 24  1  0
 24 25  2  0
 25 26  1  0
 26 27  2  0
 27 28  1  0
 28 29  2  0
  8 30  1  0
 30 31  2  0
 31  5  1  0
 22 11  1  0
 29 24  1  0
 19 13  1  0
  1 32  1  0
  1 33  1  0
  6 34  1  0
  7 35  1  0
  9 36  1  0
 10 37  1  0
 14 38  1  0
 15 39  1  0
 18 40  1  0
 23 41  1  0
 23 42  1  0
 25 43  1  0
 26 44  1  0
 27 45  1  0
 28 46  1  0
 29 47  1  0
 30 48  1  0
 31 49  1  0
M  END
>  <smiles>  (33) 
NS(=O)(=O)c1ccc(/C=C/c2nc3ccc(F)cc3c(=O)n2Cc2ccccc2)cc1

>  <score_type>  (33) 
oracle

>  <origin>  (33) 
autodockgpu

>  <m_score__min__energy>  (33) 
-9.2599999999999998

>  <m_primary>  (33) 
energy

>  <rmsd>  (33) 
8.037061884182167

>  <m_score__min__rmsd>  (33) 
8.037061884182167

>  <meeko>  (33) 
{"free_energy": -8.24, "intermolecular_energy": -10.33, "internal_energy": -1.42, "cluster_size": 2, "cluster_id": 9, "rank_in_cluster": 2}

>  <energy>  (33) 
-8.73

>  <cluster_rmsd>  (33) 
0.0

>  <cluster>  (33) 
5

$$$$

     RDKit          3D

 49 52  0  0  0  0  0  0  0  0999 V2000
  145.7880   73.2200  218.7920 N   0  0  0  0  0  0  0  0  0  0  0  0
  145.4090   73.4660  220.4690 S   0  0  0  0  0  0  0  0  0  0  0  0
  145.5850   74.9070  220.8480 O   0  0  0  0  0  0  0  0  0  0  0  0
  146.3800   72.6600  221.2830 O   0  0  0  0  0  0  0  0  0  0  0  0
  143.7670   72.9970  220.7340 C   0  0  0  0  0  0  0  0  0  0  0  0
  143.3750   71.7060  221.0120 C   0  0  0  0  0  0  0  0  0  0  0  0
  142.0470   71.3690  221.2200 C   0  0  0  0  0  0  0  0  0  0  0  0
  141.0580   72.3050  221.1580 C   0  0  0  0  0  0  0  0  0  0  0  0
  139.6420   72.0290  221.3640 C   0  0  0  0  0  0  0  0  0  0  0  0
  139.0450   72.1250  222.5430 C   0  0  0  0  0  0  0  0  0  0  0  0
  139.3300   71.1330  223.5920 C   0  0  0  0  0  0  0  0  0  0  0  0
  139.9340   71.6040  224.6970 N   0  0  0  0  0  0  0  0  0  0  0  0
  140.2290   70.8110  225.7410 C   0  0  0  0  0  0  0  0  0  0  0  0
  140.8470   71.3430  226.8480 C   0  0  0  0  0  0  0  0  0  0  0  0
  141.1330   70.5010  227.8970 C   0  0  0  0  0  0  0  0  0  0  0  0
  140.7920   69.1610  227.8020 C   0  0  0  0  0  0  0  0  0  0  0  0
  141.0850   68.3590  228.8480 F   0  0  0  0  0  0  0  0  0  0  0  0
  140.1670   68.6470  226.6720 C   0  0  0  0  0  0  0  0  0  0  0  0
  139.8800   69.4820  225.6220 C   0  0  0  0  0  0  0  0  0  0  0  0
  139.2560   69.0190  224.4670 C   0  0  0  0  0  0  0  0  0  0  0  0
  138.9770   67.7950  224.4550 O   0  0  0  0  0  0  0  0  0  0  0  0
  138.9710   69.8490  223.4280 N   0  0  0  0  0  0  0  0  0  0  0  0
  138.3260   69.3270  222.2520 C   0  0  0  0  0  0  0  0  0  0  0  0
  139.1550   68.3850  221.4600 C   0  0  0  0  0  0  0  0  0  0  0  0
  140.0600   68.7510  220.4980 C   0  0  0  0  0  0  0  0  0  0  0  0
  140.8050   67.8200  219.7840 C   0  0  0  0  0  0  0  0  0  0  0  0
  140.6610   66.4700  220.0160 C   0  0  0  0  0  0  0  0  0  0  0  0
  139.7660   66.0830  220.9690 C   0  0  0  0  0  0  0  0  0  0  0  0
  139.0240   67.0080  221.6810 C   0  0  0  0  0  0  0  0  0  0  0  0
  141.4580   73.6140  220.8750 C   0  0  0  0  0  0  0  0  0  0  0  0
  142.7750   73.9510  220.6700 C   0  0  0  0  0  0  0  0  0  0  0  0
  146.4740   73.9760  218.5220 H   0  0  0  0  0  0  0  0  0  0  0  0
  146.2900   72.3140  218.6580 H   0  0  0  0  0  0  0  0  0  0  0  0
  144.1401   70.9179  221.0707 H   0  0  0  0  0  0  0  0  0  0  0  0
  141.7853   70.3235  221.4399 H   0  0  0  0  0  0  0  0  0  0  0  0
  139.0379   71.7254  220.4963 H   0  0  0  0  0  0  0  0  0  0  0  0
  138.3376   72.9447  222.7373 H   0  0  0  0  0  0  0  0  0  0  0  0
  141.1052   72.4113  226.8933 H   0  0  0  0  0  0  0  0  0  0  0  0
  141.6268   70.8866  228.8012 H   0  0  0  0  0  0  0  0  0  0  0  0
  139.9048   67.5800  226.6200 H   0  0  0  0  0  0  0  0  0  0  0  0
  137.4132   68.7998  222.5666 H   0  0  0  0  0  0  0  0  0  0  0  0
  138.1230   70.1887  221.5991 H   0  0  0  0  0  0  0  0  0  0  0  0
  140.2019   69.8205  220.2832 H   0  0  0  0  0  0  0  0  0  0  0  0
  141.5197   68.1662  219.0229 H   0  0  0  0  0  0  0  0  0  0  0  0
  141.2476   65.7298  219.4521 H   0  0  0  0  0  0  0  0  0  0  0  0
  139.6310   65.0112  221.1762 H   0  0  0  0  0  0  0  0  0  0  0  0
  138.3123   66.6529  222.4408 H   0  0  0  0  0  0  0  0  0  0  0  0
  140.6926   74.4017  220.8142 H   0  0  0  0  0  0  0  0  0  0  0  0
  143.0402   74.9960  220.4520 H   0  0  0  0  0  0  0  0  0  0  0  0
  1  2  1  0
  2  3  2  0
  2  4  2  0
  2  5  1  0
  5  6  2  0
  6  7  1  0
  7  8  2  0
  8  9  1  0
  9 10  2  0
 10 11  1  0
 11 12  2  0
 12 13  1  0
 13 14  2  0
 14 15  1  0
 15 16  2  0
 16 17  1  0
 16 18  1  0
 18 19  2  0
 19 20  1  0
 20 21  2  0
 20 22  1  0
 22 23  1  0
 23 24  1  0
 24 25  2  0
 25 26  1  0
 26 27  2  0
 27 28  1  0
 28 29  2  0
  8 30  1  0
 30 31  2  0
 31  5  1  0
 22 11  1  0
 29 24  1  0
 19 13  1  0
  1 32  1  0
  1 33  1  0
  6 34  1  0
  7 35  1  0
  9 36  1  0
 10 37  1  0
 14 38  1  0
 15 39  1  0
 18 40  1  0
 23 41  1  0
 23 42  1  0
 25 43  1  0
 26 44  1  0
 27 45  1  0
 28 46  1  0
 29 47  1  0
 30 48  1  0
 31 49  1  0
M  END
>  <smiles>  (34) 
NS(=O)(=O)c1ccc(/C=C/c2nc3ccc(F)cc3c(=O)n2Cc2ccccc2)cc1

>  <score_type>  (34) 
oracle

>  <origin>  (34) 
autodockgpu

>  <m_score__min__energy>  (34) 
-9.2599999999999998

>  <m_primary>  (34) 
energy

>  <rmsd>  (34) 
12.61685055458343

>  <m_score__min__rmsd>  (34) 
12.61685055458343

>  <meeko>  (34) 
{"free_energy": -8.04, "intermolecular_energy": -10.13, "internal_energy": -1.6, "cluster_size": 15, "cluster_id": 3, "rank_in_cluster": 15}

>  <energy>  (34) 
-8.44

>  <cluster_rmsd>  (34) 
0.36

>  <cluster>  (34) 
5

$$$$

     RDKit          3D

 49 52  0  0  0  0  0  0  0  0999 V2000
  141.4760   67.8480  226.4760 N   0  0  0  0  0  0  0  0  0  0  0  0
  139.8750   68.5170  226.4380 S   0  0  0  0  0  0  0  0  0  0  0  0
  139.4970   69.0740  227.7790 O   0  0  0  0  0  0  0  0  0  0  0  0
  138.9180   67.4040  226.1220 O   0  0  0  0  0  0  0  0  0  0  0  0
  139.8380   69.7820  225.2590 C   0  0  0  0  0  0  0  0  0  0  0  0
  140.6700   70.8780  225.2870 C   0  0  0  0  0  0  0  0  0  0  0  0
  140.6110   71.8710  224.3220 C   0  0  0  0  0  0  0  0  0  0  0  0
  139.7190   71.8110  223.2940 C   0  0  0  0  0  0  0  0  0  0  0  0
  139.5960   72.8130  222.2430 C   0  0  0  0  0  0  0  0  0  0  0  0
  140.5850   73.1320  221.4200 C   0  0  0  0  0  0  0  0  0  0  0  0
  140.9020   74.5460  221.1670 C   0  0  0  0  0  0  0  0  0  0  0  0
  140.3090   75.4360  221.9810 N   0  0  0  0  0  0  0  0  0  0  0  0
  140.5300   76.7580  221.8750 C   0  0  0  0  0  0  0  0  0  0  0  0
  139.8990   77.6260  222.7320 C   0  0  0  0  0  0  0  0  0  0  0  0
  140.1510   78.9710  222.5940 C   0  0  0  0  0  0  0  0  0  0  0  0
  141.0230   79.3990  221.6050 C   0  0  0  0  0  0  0  0  0  0  0  0
  141.2510   80.7240  221.4940 F   0  0  0  0  0  0  0  0  0  0  0  0
  141.6510   78.4990  220.7500 C   0  0  0  0  0  0  0  0  0  0  0  0
  141.4030   77.1570  220.8840 C   0  0  0  0  0  0  0  0  0  0  0  0
  142.0040   76.2150  220.0530 C   0  0  0  0  0  0  0  0  0  0  0  0
  142.7830   76.6780  219.1830 O   0  0  0  0  0  0  0  0  0  0  0  0
  141.7570   74.8840  220.1880 N   0  0  0  0  0  0  0  0  0  0  0  0
  142.4010   73.9460  219.3070 C   0  0  0  0  0  0  0  0  0  0  0  0
  143.7560   73.5230  219.7410 C   0  0  0  0  0  0  0  0  0  0  0  0
  144.6020   74.2710  220.5180 C   0  0  0  0  0  0  0  0  0  0  0  0
  145.8650   73.8220  220.8880 C   0  0  0  0  0  0  0  0  0  0  0  0
  146.3240   72.5880  220.4810 C   0  0  0  0  0  0  0  0  0  0  0  0
  145.4990   71.8280  219.7080 C   0  0  0  0  0  0  0  0  0  0  0  0
  144.2430   72.2730  219.3390 C   0  0  0  0  0  0  0  0  0  0  0  0
  138.8750   70.6970  223.2670 C   0  0  0  0  0  0  0  0  0  0  0  0
  138.9330   69.7100  224.2230 C   0  0  0  0  0  0  0  0  0  0  0  0
  141.5290   67.1420  225.6930 H   0  0  0  0  0  0  0  0  0  0  0  0
  142.1860   68.5800  226.2530 H   0  0  0  0  0  0  0  0  0  0  0  0
  141.4047   70.9686  226.1006 H   0  0  0  0  0  0  0  0  0  0  0  0
  141.2995   72.7264  224.3876 H   0  0  0  0  0  0  0  0  0  0  0  0
  138.6328   73.3314  222.1266 H   0  0  0  0  0  0  0  0  0  0  0  0
  141.1680   72.3402  220.9268 H   0  0  0  0  0  0  0  0  0  0  0  0
  139.2115   77.2560  223.5069 H   0  0  0  0  0  0  0  0  0  0  0  0
  139.6660   79.6990  223.2610 H   0  0  0  0  0  0  0  0  0  0  0  0
  142.3406   78.8608  219.9731 H   0  0  0  0  0  0  0  0  0  0  0  0
  141.7673   73.0496  219.2373 H   0  0  0  0  0  0  0  0  0  0  0  0
  142.5280   74.4596  218.3426 H   0  0  0  0  0  0  0  0  0  0  0  0
  144.2699   75.2619  220.8611 H   0  0  0  0  0  0  0  0  0  0  0  0
  146.5062   74.4602  221.5138 H   0  0  0  0  0  0  0  0  0  0  0  0
  147.3226   72.2289  220.7705 H   0  0  0  0  0  0  0  0  0  0  0  0
  145.8396   70.8383  219.3698 H   0  0  0  0  0  0  0  0  0  0  0  0
  143.6092   71.6278  218.7128 H   0  0  0  0  0  0  0  0  0  0  0  0
  138.1398   70.6068  222.4538 H   0  0  0  0  0  0  0  0  0  0  0  0
  138.2477   68.8519  224.1595 H   0  0  0  0  0  0  0  0  0  0  0  0
  1  2  1  0
  2  3  2  0
  2  4  2  0
  2  5  1  0
  5  6  2  0
  6  7  1  0
  7  8  2  0
  8  9  1  0
  9 10  2  0
 10 11  1  0
 11 12  2  0
 12 13  1  0
 13 14  2  0
 14 15  1  0
 15 16  2  0
 16 17  1  0
 16 18  1  0
 18 19  2  0
 19 20  1  0
 20 21  2  0
 20 22  1  0
 22 23  1  0
 23 24  1  0
 24 25  2  0
 25 26  1  0
 26 27  2  0
 27 28  1  0
 28 29  2  0
  8 30  1  0
 30 31  2  0
 31  5  1  0
 22 11  1  0
 29 24  1  0
 19 13  1  0
  1 32  1  0
  1 33  1  0
  6 34  1  0
  7 35  1  0
  9 36  1  0
 10 37  1  0
 14 38  1  0
 15 39  1  0
 18 40  1  0
 23 41  1  0
 23 42  1  0
 25 43  1  0
 26 44  1  0
 27 45  1  0
 28 46  1  0
 29 47  1  0
 30 48  1  0
 31 49  1  0
M  END
>  <smiles>  (35) 
NS(=O)(=O)c1ccc(/C=C/c2nc3ccc(F)cc3c(=O)n2Cc2ccccc2)cc1

>  <score_type>  (35) 
oracle

>  <origin>  (35) 
autodockgpu

>  <m_score__min__energy>  (35) 
-9.2599999999999998

>  <m_primary>  (35) 
energy

>  <rmsd>  (35) 
8.301972629569722

>  <m_score__min__rmsd>  (35) 
8.301972629569722

>  <meeko>  (35) 
{"free_energy": -8.85, "intermolecular_energy": -10.94, "internal_energy": -1.2, "cluster_size": 8, "cluster_id": 1, "rank_in_cluster": 6}

>  <energy>  (35) 
-8.4

>  <cluster_rmsd>  (35) 
0.0

>  <cluster>  (35) 
6

$$$$

     RDKit          3D

 49 52  0  0  0  0  0  0  0  0999 V2000
  145.9740   73.4200  218.4120 N   0  0  0  0  0  0  0  0  0  0  0  0
  145.8680   72.8120  220.0350 S   0  0  0  0  0  0  0  0  0  0  0  0
  146.5020   73.7650  221.0040 O   0  0  0  0  0  0  0  0  0  0  0  0
  146.6370   71.5230  220.0950 O   0  0  0  0  0  0  0  0  0  0  0  0
  144.1980   72.6090  220.4350 C   0  0  0  0  0  0  0  0  0  0  0  0
  143.6520   71.4190  220.8600 C   0  0  0  0  0  0  0  0  0  0  0  0
  142.3070   71.2960  221.1730 C   0  0  0  0  0  0  0  0  0  0  0  0
  141.4550   72.3550  221.0740 C   0  0  0  0  0  0  0  0  0  0  0  0
  140.0320   72.3050  221.3830 C   0  0  0  0  0  0  0  0  0  0  0  0
  139.5410   72.5360  222.5920 C   0  0  0  0  0  0  0  0  0  0  0  0
  139.6400   71.5010  223.6340 C   0  0  0  0  0  0  0  0  0  0  0  0
  140.2490   71.8720  224.7740 N   0  0  0  0  0  0  0  0  0  0  0  0
  140.3860   71.0330  225.8150 C   0  0  0  0  0  0  0  0  0  0  0  0
  141.0160   71.4620  226.9580 C   0  0  0  0  0  0  0  0  0  0  0  0
  141.1370   70.5750  228.0030 C   0  0  0  0  0  0  0  0  0  0  0  0
  140.6240   69.2950  227.8670 C   0  0  0  0  0  0  0  0  0  0  0  0
  140.7570   68.4470  228.9100 F   0  0  0  0  0  0  0  0  0  0  0  0
  139.9890   68.8850  226.7000 C   0  0  0  0  0  0  0  0  0  0  0  0
  139.8670   69.7650  225.6550 C   0  0  0  0  0  0  0  0  0  0  0  0
  139.2410   69.4050  224.4640 C   0  0  0  0  0  0  0  0  0  0  0  0
  138.8010   68.2300  224.4160 O   0  0  0  0  0  0  0  0  0  0  0  0
  139.1200   70.2800  223.4290 N   0  0  0  0  0  0  0  0  0  0  0  0
  138.4670   69.8650  222.2160 C   0  0  0  0  0  0  0  0  0  0  0  0
  139.1620   68.7810  221.4800 C   0  0  0  0  0  0  0  0  0  0  0  0
  140.1760   68.9680  220.5770 C   0  0  0  0  0  0  0  0  0  0  0  0
  140.7870   67.9110  219.9130 C   0  0  0  0  0  0  0  0  0  0  0  0
  140.3910   66.6100  220.1380 C   0  0  0  0  0  0  0  0  0  0  0  0
  139.3840   66.4010  221.0330 C   0  0  0  0  0  0  0  0  0  0  0  0
  138.7760   67.4520  221.6940 C   0  0  0  0  0  0  0  0  0  0  0  0
  142.0110   73.5620  220.6420 C   0  0  0  0  0  0  0  0  0  0  0  0
  143.3450   73.6860  220.3320 C   0  0  0  0  0  0  0  0  0  0  0  0
  145.2000   74.1310  218.3030 H   0  0  0  0  0  0  0  0  0  0  0  0
  146.8670   73.9430  218.2730 H   0  0  0  0  0  0  0  0  0  0  0  0
  144.3035   70.5377  220.9543 H   0  0  0  0  0  0  0  0  0  0  0  0
  141.9193   70.3228  221.5084 H   0  0  0  0  0  0  0  0  0  0  0  0
  139.3297   72.0633  220.5716 H   0  0  0  0  0  0  0  0  0  0  0  0
  139.0603   73.4996  222.8165 H   0  0  0  0  0  0  0  0  0  0  0  0
  141.4123   72.4852  227.0356 H   0  0  0  0  0  0  0  0  0  0  0  0
  141.6352   70.8785  228.9356 H   0  0  0  0  0  0  0  0  0  0  0  0
  139.5881   67.8641  226.6156 H   0  0  0  0  0  0  0  0  0  0  0  0
  137.4573   69.5123  222.4733 H   0  0  0  0  0  0  0  0  0  0  0  0
  138.4617   70.7403  221.5498 H   0  0  0  0  0  0  0  0  0  0  0  0
  140.5188   69.9925  220.3702 H   0  0  0  0  0  0  0  0  0  0  0  0
  141.5977   68.1154  219.1981 H   0  0  0  0  0  0  0  0  0  0  0  0
  140.8705   65.7701  219.6140 H   0  0  0  0  0  0  0  0  0  0  0  0
  139.0478   65.3731  221.2337 H   0  0  0  0  0  0  0  0  0  0  0  0
  137.9667   67.2384  222.4077 H   0  0  0  0  0  0  0  0  0  0  0  0
  141.3593   74.4430  220.5466 H   0  0  0  0  0  0  0  0  0  0  0  0
  143.7363   74.6581  219.9973 H   0  0  0  0  0  0  0  0  0  0  0  0
  1  2  1  0
  2  3  2  0
  2  4  2  0
  2  5  1  0
  5  6  2  0
  6  7  1  0
  7  8  2  0
  8  9  1  0
  9 10  2  0
 10 11  1  0
 11 12  2  0
 12 13  1  0
 13 14  2  0
 14 15  1  0
 15 16  2  0
 16 17  1  0
 16 18  1  0
 18 19  2  0
 19 20  1  0
 20 21  2  0
 20 22  1  0
 22 23  1  0
 23 24  1  0
 24 25  2  0
 25 26  1  0
 26 27  2  0
 27 28  1  0
 28 29  2  0
  8 30  1  0
 30 31  2  0
 31  5  1  0
 22 11  1  0
 29 24  1  0
 19 13  1  0
  1 32  1  0
  1 33  1  0
  6 34  1  0
  7 35  1  0
  9 36  1  0
 10 37  1  0
 14 38  1  0
 15 39  1  0
 18 40  1  0
 23 41  1  0
 23 42  1  0
 25 43  1  0
 26 44  1  0
 27 45  1  0
 28 46  1  0
 29 47  1  0
 30 48  1  0
 31 49  1  0
M  END
>  <smiles>  (36) 
NS(=O)(=O)c1ccc(/C=C/c2nc3ccc(F)cc3c(=O)n2Cc2ccccc2)cc1

>  <score_type>  (36) 
oracle

>  <origin>  (36) 
autodockgpu

>  <m_score__min__energy>  (36) 
-9.2599999999999998

>  <m_primary>  (36) 
energy

>  <rmsd>  (36) 
12.389628726770336

>  <m_score__min__rmsd>  (36) 
12.389628726770336

>  <meeko>  (36) 
{"free_energy": -8.63, "intermolecular_energy": -10.72, "internal_energy": -1.49, "cluster_size": 15, "cluster_id": 3, "rank_in_cluster": 8}

>  <energy>  (36) 
-8.36

>  <cluster_rmsd>  (36) 
0.28

>  <cluster>  (36) 
6

$$$$

     RDKit          3D

 49 52  0  0  0  0  0  0  0  0999 V2000
  139.0970   67.1200  226.4490 N   0  0  0  0  0  0  0  0  0  0  0  0
  140.0720   68.4800  226.9130 S   0  0  0  0  0  0  0  0  0  0  0  0
  141.4960   68.0640  227.1370 O   0  0  0  0  0  0  0  0  0  0  0  0
  139.5410   69.0030  228.2170 O   0  0  0  0  0  0  0  0  0  0  0  0
  140.0070   69.6570  225.6480 C   0  0  0  0  0  0  0  0  0  0  0  0
  140.7270   70.8300  225.6580 C   0  0  0  0  0  0  0  0  0  0  0  0
  140.6490   71.7490  224.6230 C   0  0  0  0  0  0  0  0  0  0  0  0
  139.8510   71.5350  223.5400 C   0  0  0  0  0  0  0  0  0  0  0  0
  139.7150   72.4510  222.4160 C   0  0  0  0  0  0  0  0  0  0  0  0
  140.7430   72.8840  221.7010 C   0  0  0  0  0  0  0  0  0  0  0  0
  140.8350   74.3070  221.3340 C   0  0  0  0  0  0  0  0  0  0  0  0
  140.1650   75.1620  222.1260 N   0  0  0  0  0  0  0  0  0  0  0  0
  140.1840   76.4900  221.9180 C   0  0  0  0  0  0  0  0  0  0  0  0
  139.4830   77.3210  222.7570 C   0  0  0  0  0  0  0  0  0  0  0  0
  139.5270   78.6740  222.5140 C   0  0  0  0  0  0  0  0  0  0  0  0
  140.2680   79.1460  221.4420 C   0  0  0  0  0  0  0  0  0  0  0  0
  140.2930   80.4790  221.2290 F   0  0  0  0  0  0  0  0  0  0  0  0
  140.9710   78.2840  220.6080 C   0  0  0  0  0  0  0  0  0  0  0  0
  140.9300   76.9330  220.8460 C   0  0  0  0  0  0  0  0  0  0  0  0
  141.6150   76.0270  220.0400 C   0  0  0  0  0  0  0  0  0  0  0  0
  142.2650   76.5290  219.0910 O   0  0  0  0  0  0  0  0  0  0  0  0
  141.5740   74.6890  220.2790 N   0  0  0  0  0  0  0  0  0  0  0  0
  142.2960   73.7880  219.4200 C   0  0  0  0  0  0  0  0  0  0  0  0
  143.6870   73.5050  219.8540 C   0  0  0  0  0  0  0  0  0  0  0  0
  144.5110   74.4000  220.4840 C   0  0  0  0  0  0  0  0  0  0  0  0
  145.8100   74.0780  220.8630 C   0  0  0  0  0  0  0  0  0  0  0  0
  146.3290   72.8260  220.6140 C   0  0  0  0  0  0  0  0  0  0  0  0
  145.5260   71.9200  219.9880 C   0  0  0  0  0  0  0  0  0  0  0  0
  144.2350   72.2390  219.6120 C   0  0  0  0  0  0  0  0  0  0  0  0
  139.1210   70.3430  223.5330 C   0  0  0  0  0  0  0  0  0  0  0  0
  139.1970   69.4290  224.5580 C   0  0  0  0  0  0  0  0  0  0  0  0
  139.2250   66.3860  227.1970 H   0  0  0  0  0  0  0  0  0  0  0  0
  138.0830   67.3720  226.4630 H   0  0  0  0  0  0  0  0  0  0  0  0
  141.3844   71.0448  226.5134 H   0  0  0  0  0  0  0  0  0  0  0  0
  141.2450   72.6719  224.6776 H   0  0  0  0  0  0  0  0  0  0  0  0
  138.7075   72.8012  222.1469 H   0  0  0  0  0  0  0  0  0  0  0  0
  141.5268   72.1813  221.3820 H   0  0  0  0  0  0  0  0  0  0  0  0
  138.9029   76.9161  223.5993 H   0  0  0  0  0  0  0  0  0  0  0  0
  138.9802   79.3737  223.1632 H   0  0  0  0  0  0  0  0  0  0  0  0
  141.5550   78.6813  219.7647 H   0  0  0  0  0  0  0  0  0  0  0  0
  141.7473   72.8354  219.3826 H   0  0  0  0  0  0  0  0  0  0  0  0
  142.3687   74.2816  218.4396 H   0  0  0  0  0  0  0  0  0  0  0  0
  144.1315   75.4101  220.6979 H   0  0  0  0  0  0  0  0  0  0  0  0
  146.4310   74.8325  221.3680 H   0  0  0  0  0  0  0  0  0  0  0  0
  147.3561   72.5667  220.9103 H   0  0  0  0  0  0  0  0  0  0  0  0
  145.9141   70.9125  219.7774 H   0  0  0  0  0  0  0  0  0  0  0  0
  143.6209   71.4777  219.1088 H   0  0  0  0  0  0  0  0  0  0  0  0
  138.4629   70.1285  222.6781 H   0  0  0  0  0  0  0  0  0  0  0  0
  138.6034   68.5044  224.5064 H   0  0  0  0  0  0  0  0  0  0  0  0
  1  2  1  0
  2  3  2  0
  2  4  2  0
  2  5  1  0
  5  6  2  0
  6  7  1  0
  7  8  2  0
  8  9  1  0
  9 10  2  0
 10 11  1  0
 11 12  2  0
 12 13  1  0
 13 14  2  0
 14 15  1  0
 15 16  2  0
 16 17  1  0
 16 18  1  0
 18 19  2  0
 19 20  1  0
 20 21  2  0
 20 22  1  0
 22 23  1  0
 23 24  1  0
 24 25  2  0
 25 26  1  0
 26 27  2  0
 27 28  1  0
 28 29  2  0
  8 30  1  0
 30 31  2  0
 31  5  1  0
 22 11  1  0
 29 24  1  0
 19 13  1  0
  1 32  1  0
  1 33  1  0
  6 34  1  0
  7 35  1  0
  9 36  1  0
 10 37  1  0
 14 38  1  0
 15 39  1  0
 18 40  1  0
 23 41  1  0
 23 42  1  0
 25 43  1  0
 26 44  1  0
 27 45  1  0
 28 46  1  0
 29 47  1  0
 30 48  1  0
 31 49  1  0
M  END
>  <smiles>  (37) 
NS(=O)(=O)c1ccc(/C=C/c2nc3ccc(F)cc3c(=O)n2Cc2ccccc2)cc1

>  <score_type>  (37) 
oracle

>  <origin>  (37) 
autodockgpu

>  <m_score__min__energy>  (37) 
-9.2599999999999998

>  <m_primary>  (37) 
energy

>  <rmsd>  (37) 
8.219927447280684

>  <m_score__min__rmsd>  (37) 
8.219927447280684

>  <meeko>  (37) 
{"free_energy": -8.93, "intermolecular_energy": -11.01, "internal_energy": -1.2, "cluster_size": 8, "cluster_id": 1, "rank_in_cluster": 5}

>  <energy>  (37) 
-8.35

>  <cluster_rmsd>  (37) 
0.0

>  <cluster>  (37) 
7

$$$$

     RDKit          3D

 49 52  0  0  0  0  0  0  0  0999 V2000
  139.2770   67.4120  226.2140 N   0  0  0  0  0  0  0  0  0  0  0  0
  139.9230   68.9800  226.5810 S   0  0  0  0  0  0  0  0  0  0  0  0
  141.4060   68.9080  226.7980 O   0  0  0  0  0  0  0  0  0  0  0  0
  139.2980   69.4470  227.8650 O   0  0  0  0  0  0  0  0  0  0  0  0
  139.5860   70.0360  225.2540 C   0  0  0  0  0  0  0  0  0  0  0  0
  138.3900   70.0510  224.5730 C   0  0  0  0  0  0  0  0  0  0  0  0
  138.1570   70.9140  223.5140 C   0  0  0  0  0  0  0  0  0  0  0  0
  139.1080   71.7930  223.0910 C   0  0  0  0  0  0  0  0  0  0  0  0
  138.9400   72.7290  221.9870 C   0  0  0  0  0  0  0  0  0  0  0  0
  139.4530   73.9510  221.9830 C   0  0  0  0  0  0  0  0  0  0  0  0
  140.7940   74.1810  221.4220 C   0  0  0  0  0  0  0  0  0  0  0  0
  141.5930   73.1030  221.3470 N   0  0  0  0  0  0  0  0  0  0  0  0
  142.8340   73.1690  220.8340 C   0  0  0  0  0  0  0  0  0  0  0  0
  143.6100   72.0370  220.7800 C   0  0  0  0  0  0  0  0  0  0  0  0
  144.8740   72.1440  220.2470 C   0  0  0  0  0  0  0  0  0  0  0  0
  145.3150   73.3750  219.7900 C   0  0  0  0  0  0  0  0  0  0  0  0
  146.5590   73.4480  219.2720 F   0  0  0  0  0  0  0  0  0  0  0  0
  144.5090   74.5070  219.8550 C   0  0  0  0  0  0  0  0  0  0  0  0
  143.2480   74.4060  220.3860 C   0  0  0  0  0  0  0  0  0  0  0  0
  142.4010   75.5080  220.4750 C   0  0  0  0  0  0  0  0  0  0  0  0
  142.8700   76.5880  220.0390 O   0  0  0  0  0  0  0  0  0  0  0  0
  141.1510   75.4060  221.0010 N   0  0  0  0  0  0  0  0  0  0  0  0
  140.3100   76.5710  221.0740 C   0  0  0  0  0  0  0  0  0  0  0  0
  140.9180   77.7280  221.7790 C   0  0  0  0  0  0  0  0  0  0  0  0
  141.1890   77.7760  223.1220 C   0  0  0  0  0  0  0  0  0  0  0  0
  141.7550   78.8920  223.7270 C   0  0  0  0  0  0  0  0  0  0  0  0
  142.0710   80.0130  222.9900 C   0  0  0  0  0  0  0  0  0  0  0  0
  141.8090   79.9860  221.6530 C   0  0  0  0  0  0  0  0  0  0  0  0
  141.2470   78.8770  221.0490 C   0  0  0  0  0  0  0  0  0  0  0  0
  140.3220   71.7760  223.7830 C   0  0  0  0  0  0  0  0  0  0  0  0
  140.5550   70.9210  224.8360 C   0  0  0  0  0  0  0  0  0  0  0  0
  139.7380   67.0950  225.3190 H   0  0  0  0  0  0  0  0  0  0  0  0
  139.5570   66.7180  226.9440 H   0  0  0  0  0  0  0  0  0  0  0  0
  137.5941   69.3561  224.8789 H   0  0  0  0  0  0  0  0  0  0  0  0
  137.1828   70.8887  223.0038 H   0  0  0  0  0  0  0  0  0  0  0  0
  138.3575   72.4047  221.1120 H   0  0  0  0  0  0  0  0  0  0  0  0
  138.8777   74.7916  222.3981 H   0  0  0  0  0  0  0  0  0  0  0  0
  143.2321   71.0732  221.1519 H   0  0  0  0  0  0  0  0  0  0  0  0
  145.5274   71.2613  220.1845 H   0  0  0  0  0  0  0  0  0  0  0  0
  144.8793   75.4741  219.4841 H   0  0  0  0  0  0  0  0  0  0  0  0
  140.0666   76.8836  220.0478 H   0  0  0  0  0  0  0  0  0  0  0  0
  139.4240   76.2804  221.6575 H   0  0  0  0  0  0  0  0  0  0  0  0
  140.9500   76.9000  223.7429 H   0  0  0  0  0  0  0  0  0  0  0  0
  141.9535   78.8804  224.8089 H   0  0  0  0  0  0  0  0  0  0  0  0
  142.5190   80.8985  223.4645 H   0  0  0  0  0  0  0  0  0  0  0  0
  142.0503   80.8671  221.0403 H   0  0  0  0  0  0  0  0  0  0  0  0
  141.0530   78.8975  219.9664 H   0  0  0  0  0  0  0  0  0  0  0  0
  141.1185   72.4696  223.4756 H   0  0  0  0  0  0  0  0  0  0  0  0
  141.5272   70.9447  225.3501 H   0  0  0  0  0  0  0  0  0  0  0  0
  1  2  1  0
  2  3  2  0
  2  4  2  0
  2  5  1  0
  5  6  2  0
  6  7  1  0
  7  8  2  0
  8  9  1  0
  9 10  2  0
 10 11  1  0
 11 12  2  0
 12 13  1  0
 13 14  2  0
 14 15  1  0
 15 16  2  0
 16 17  1  0
 16 18  1  0
 18 19  2  0
 19 20  1  0
 20 21  2  0
 20 22  1  0
 22 23  1  0
 23 24  1  0
 24 25  2  0
 25 26  1  0
 26 27  2  0
 27 28  1  0
 28 29  2  0
  8 30  1  0
 30 31  2  0
 31  5  1  0
 22 11  1  0
 29 24  1  0
 19 13  1  0
  1 32  1  0
  1 33  1  0
  6 34  1  0
  7 35  1  0
  9 36  1  0
 10 37  1  0
 14 38  1  0
 15 39  1  0
 18 40  1  0
 23 41  1  0
 23 42  1  0
 25 43  1  0
 26 44  1  0
 27 45  1  0
 28 46  1  0
 29 47  1  0
 30 48  1  0
 31 49  1  0
M  END
>  <smiles>  (38) 
NS(=O)(=O)c1ccc(/C=C/c2nc3ccc(F)cc3c(=O)n2Cc2ccccc2)cc1

>  <score_type>  (38) 
oracle

>  <origin>  (38) 
autodockgpu

>  <m_score__min__energy>  (38) 
-9.2599999999999998

>  <m_primary>  (38) 
energy

>  <rmsd>  (38) 
4.570017900856847

>  <m_score__min__rmsd>  (38) 
4.570017900856847

>  <meeko>  (38) 
{"free_energy": -9.1, "intermolecular_energy": -11.19, "internal_energy": -1.26, "cluster_size": 6, "cluster_id": 2, "rank_in_cluster": 1}

>  <energy>  (38) 
-8.25

>  <cluster_rmsd>  (38) 
0.46

>  <cluster>  (38) 
7

$$$$

     RDKit          3D

 49 52  0  0  0  0  0  0  0  0999 V2000
  140.7440   67.8540  228.0570 N   0  0  0  0  0  0  0  0  0  0  0  0
  140.3270   69.5380  228.1020 S   0  0  0  0  0  0  0  0  0  0  0  0
  141.4260   70.3430  228.7320 O   0  0  0  0  0  0  0  0  0  0  0  0
  139.1040   69.6870  228.9610 O   0  0  0  0  0  0  0  0  0  0  0  0
  140.0720   70.0820  226.4810 C   0  0  0  0  0  0  0  0  0  0  0  0
  139.0640   69.6160  225.6660 C   0  0  0  0  0  0  0  0  0  0  0  0
  138.8910   70.0780  224.3710 C   0  0  0  0  0  0  0  0  0  0  0  0
  139.7170   71.0210  223.8370 C   0  0  0  0  0  0  0  0  0  0  0  0
  139.6000   71.5560  222.4870 C   0  0  0  0  0  0  0  0  0  0  0  0
  140.6300   72.0220  221.7960 C   0  0  0  0  0  0  0  0  0  0  0  0
  140.6620   73.4360  221.3900 C   0  0  0  0  0  0  0  0  0  0  0  0
  139.9290   74.2790  222.1370 N   0  0  0  0  0  0  0  0  0  0  0  0
  139.8890   75.6000  221.8910 C   0  0  0  0  0  0  0  0  0  0  0  0
  139.1240   76.4180  222.6860 C   0  0  0  0  0  0  0  0  0  0  0  0
  139.1080   77.7640  222.4040 C   0  0  0  0  0  0  0  0  0  0  0  0
  139.8550   78.2420  221.3390 C   0  0  0  0  0  0  0  0  0  0  0  0
  139.8200   79.5680  221.0860 F   0  0  0  0  0  0  0  0  0  0  0  0
  140.6230   77.3930  220.5490 C   0  0  0  0  0  0  0  0  0  0  0  0
  140.6420   76.0490  220.8260 C   0  0  0  0  0  0  0  0  0  0  0  0
  141.3920   75.1550  220.0660 C   0  0  0  0  0  0  0  0  0  0  0  0
  142.0430   75.6630  219.1200 O   0  0  0  0  0  0  0  0  0  0  0  0
  141.4100   73.8240  220.3430 N   0  0  0  0  0  0  0  0  0  0  0  0
  142.2000   72.9360  219.5310 C   0  0  0  0  0  0  0  0  0  0  0  0
  143.6660   73.0740  219.7140 C   0  0  0  0  0  0  0  0  0  0  0  0
  144.3120   73.0620  220.9230 C   0  0  0  0  0  0  0  0  0  0  0  0
  145.6910   73.2010  221.0310 C   0  0  0  0  0  0  0  0  0  0  0  0
  146.4770   73.3600  219.9100 C   0  0  0  0  0  0  0  0  0  0  0  0
  145.8540   73.3750  218.6980 C   0  0  0  0  0  0  0  0  0  0  0  0
  144.4830   73.2360  218.5880 C   0  0  0  0  0  0  0  0  0  0  0  0
  140.7390   71.4930  224.6650 C   0  0  0  0  0  0  0  0  0  0  0  0
  140.9120   71.0370  225.9510 C   0  0  0  0  0  0  0  0  0  0  0  0
  139.8480   67.3240  227.8840 H   0  0  0  0  0  0  0  0  0  0  0  0
  141.3620   67.6500  227.2400 H   0  0  0  0  0  0  0  0  0  0  0  0
  138.3743   68.8527  226.0556 H   0  0  0  0  0  0  0  0  0  0  0  0
  138.0692   69.6748  223.7610 H   0  0  0  0  0  0  0  0  0  0  0  0
  138.6055   71.5740  222.0172 H   0  0  0  0  0  0  0  0  0  0  0  0
  141.4602   71.3527  221.5262 H   0  0  0  0  0  0  0  0  0  0  0  0
  138.5409   76.0084  223.5240 H   0  0  0  0  0  0  0  0  0  0  0  0
  138.5090   78.4535  223.0170 H   0  0  0  0  0  0  0  0  0  0  0  0
  141.2097   77.7951  219.7099 H   0  0  0  0  0  0  0  0  0  0  0  0
  141.9188   71.9020  219.7794 H   0  0  0  0  0  0  0  0  0  0  0  0
  141.9896   73.1998  218.4840 H   0  0  0  0  0  0  0  0  0  0  0  0
  143.7180   72.9379  221.8405 H   0  0  0  0  0  0  0  0  0  0  0  0
  146.1615   73.1838  222.0252 H   0  0  0  0  0  0  0  0  0  0  0  0
  147.5684   73.4709  219.9908 H   0  0  0  0  0  0  0  0  0  0  0  0
  146.4561   73.5006  217.7860 H   0  0  0  0  0  0  0  0  0  0  0  0
  144.0215   73.2531  217.5896 H   0  0  0  0  0  0  0  0  0  0  0  0
  141.4290   72.2556  224.2747 H   0  0  0  0  0  0  0  0  0  0  0  0
  141.7315   71.4399  226.5643 H   0  0  0  0  0  0  0  0  0  0  0  0
  1  2  1  0
  2  3  2  0
  2  4  2  0
  2  5  1  0
  5  6  2  0
  6  7  1  0
  7  8  2  0
  8  9  1  0
  9 10  2  0
 10 11  1  0
 11 12  2  0
 12 13  1  0
 13 14  2  0
 14 15  1  0
 15 16  2  0
 16 17  1  0
 16 18  1  0
 18 19  2  0
 19 20  1  0
 20 21  2  0
 20 22  1  0
 22 23  1  0
 23 24  1  0
 24 25  2  0
 25 26  1  0
 26 27  2  0
 27 28  1  0
 28 29  2  0
  8 30  1  0
 30 31  2  0
 31  5  1  0
 22 11  1  0
 29 24  1  0
 19 13  1  0
  1 32  1  0
  1 33  1  0
  6 34  1  0
  7 35  1  0
  9 36  1  0
 10 37  1  0
 14 38  1  0
 15 39  1  0
 18 40  1  0
 23 41  1  0
 23 42  1  0
 25 43  1  0
 26 44  1  0
 27 45  1  0
 28 46  1  0
 29 47  1  0
 30 48  1  0
 31 49  1  0
M  END
>  <smiles>  (39) 
NS(=O)(=O)c1ccc(/C=C/c2nc3ccc(F)cc3c(=O)n2Cc2ccccc2)cc1

>  <score_type>  (39) 
oracle

>  <origin>  (39) 
autodockgpu

>  <m_score__min__energy>  (39) 
-9.2599999999999998

>  <m_primary>  (39) 
energy

>  <rmsd>  (39) 
8.095597799203274

>  <m_score__min__rmsd>  (39) 
8.095597799203274

>  <meeko>  (39) 
{"free_energy": -8.14, "intermolecular_energy": -10.23, "internal_energy": -1.25, "cluster_size": 8, "cluster_id": 1, "rank_in_cluster": 8}

>  <energy>  (39) 
-8.21

>  <cluster_rmsd>  (39) 
1.84

>  <cluster>  (39) 
7

$$$$

     RDKit          3D

 49 52  0  0  0  0  0  0  0  0999 V2000
  141.0470   67.8420  227.2440 N   0  0  0  0  0  0  0  0  0  0  0  0
  140.4320   69.4400  227.5290 S   0  0  0  0  0  0  0  0  0  0  0  0
  141.4470   70.2830  228.2440 O   0  0  0  0  0  0  0  0  0  0  0  0
  139.2310   69.3180  228.4220 O   0  0  0  0  0  0  0  0  0  0  0  0
  140.0560   70.1620  226.0040 C   0  0  0  0  0  0  0  0  0  0  0  0
  138.8920   69.9220  225.3090 C   0  0  0  0  0  0  0  0  0  0  0  0
  138.6260   70.5210  224.0880 C   0  0  0  0  0  0  0  0  0  0  0  0
  139.5110   71.3820  223.5120 C   0  0  0  0  0  0  0  0  0  0  0  0
  139.3050   72.0500  222.2330 C   0  0  0  0  0  0  0  0  0  0  0  0
  139.5720   73.3320  222.0290 C   0  0  0  0  0  0  0  0  0  0  0  0
  140.8520   73.7270  221.4210 C   0  0  0  0  0  0  0  0  0  0  0  0
  141.8200   72.7950  221.4310 N   0  0  0  0  0  0  0  0  0  0  0  0
  143.0290   73.0170  220.8880 C   0  0  0  0  0  0  0  0  0  0  0  0
  143.9840   72.0300  220.9240 C   0  0  0  0  0  0  0  0  0  0  0  0
  145.2100   72.2930  220.3570 C   0  0  0  0  0  0  0  0  0  0  0  0
  145.4360   73.5310  219.7770 C   0  0  0  0  0  0  0  0  0  0  0  0
  146.6480   73.7600  219.2290 F   0  0  0  0  0  0  0  0  0  0  0  0
  144.4520   74.5140  219.7530 C   0  0  0  0  0  0  0  0  0  0  0  0
  143.2290   74.2560  220.3170 C   0  0  0  0  0  0  0  0  0  0  0  0
  142.2100   75.2060  220.3210 C   0  0  0  0  0  0  0  0  0  0  0  0
  142.4890   76.3020  219.7750 O   0  0  0  0  0  0  0  0  0  0  0  0
  140.9970   74.9480  220.8800 N   0  0  0  0  0  0  0  0  0  0  0  0
  139.9730   75.9590  220.8610 C   0  0  0  0  0  0  0  0  0  0  0  0
  140.1930   77.0780  221.8110 C   0  0  0  0  0  0  0  0  0  0  0  0
  141.4200   77.5580  222.1900 C   0  0  0  0  0  0  0  0  0  0  0  0
  141.5630   78.6080  223.0900 C   0  0  0  0  0  0  0  0  0  0  0  0
  140.4600   79.2170  223.6470 C   0  0  0  0  0  0  0  0  0  0  0  0
  139.2300   78.7550  223.2840 C   0  0  0  0  0  0  0  0  0  0  0  0
  139.0860   77.7120  222.3890 C   0  0  0  0  0  0  0  0  0  0  0  0
  140.6920   71.6250  224.2180 C   0  0  0  0  0  0  0  0  0  0  0  0
  140.9580   71.0320  225.4300 C   0  0  0  0  0  0  0  0  0  0  0  0
  140.3160   67.1680  227.5980 H   0  0  0  0  0  0  0  0  0  0  0  0
  141.1360   67.6590  226.2190 H   0  0  0  0  0  0  0  0  0  0  0  0
  138.1492   69.2326  225.7367 H   0  0  0  0  0  0  0  0  0  0  0  0
  137.6803   70.2966  223.5729 H   0  0  0  0  0  0  0  0  0  0  0  0
  138.9075   71.4598  221.3941 H   0  0  0  0  0  0  0  0  0  0  0  0
  138.8375   74.0997  222.3139 H   0  0  0  0  0  0  0  0  0  0  0  0
  143.7746   71.0571  221.3927 H   0  0  0  0  0  0  0  0  0  0  0  0
  146.0016   71.5292  220.3641 H   0  0  0  0  0  0  0  0  0  0  0  0
  144.6531   75.4894  219.2859 H   0  0  0  0  0  0  0  0  0  0  0  0
  139.9218   76.3766  219.8446 H   0  0  0  0  0  0  0  0  0  0  0  0
  139.0406   75.4648  221.1714 H   0  0  0  0  0  0  0  0  0  0  0  0
  142.3239   77.0957  221.7668 H   0  0  0  0  0  0  0  0  0  0  0  0
  142.5703   78.9571  223.3609 H   0  0  0  0  0  0  0  0  0  0  0  0
  140.5681   80.0475  224.3601 H   0  0  0  0  0  0  0  0  0  0  0  0
  138.3318   79.2230  223.7132 H   0  0  0  0  0  0  0  0  0  0  0  0
  138.0747   77.3705  222.1234 H   0  0  0  0  0  0  0  0  0  0  0  0
  141.4345   72.3143  223.7897 H   0  0  0  0  0  0  0  0  0  0  0  0
  141.9025   71.2548  225.9479 H   0  0  0  0  0  0  0  0  0  0  0  0
  1  2  1  0
  2  3  2  0
  2  4  2  0
  2  5  1  0
  5  6  2  0
  6  7  1  0
  7  8  2  0
  8  9  1  0
  9 10  2  0
 10 11  1  0
 11 12  2  0
 12 13  1  0
 13 14  2  0
 14 15  1  0
 15 16  2  0
 16 17  1  0
 16 18  1  0
 18 19  2  0
 19 20  1  0
 20 21  2  0
 20 22  1  0
 22 23  1  0
 23 24  1  0
 24 25  2  0
 25 26  1  0
 26 27  2  0
 27 28  1  0
 28 29  2  0
  8 30  1  0
 30 31  2  0
 31  5  1  0
 22 11  1  0
 29 24  1  0
 19 13  1  0
  1 32  1  0
  1 33  1  0
  6 34  1  0
  7 35  1  0
  9 36  1  0
 10 37  1  0
 14 38  1  0
 15 39  1  0
 18 40  1  0
 23 41  1  0
 23 42  1  0
 25 43  1  0
 26 44  1  0
 27 45  1  0
 28 46  1  0
 29 47  1  0
 30 48  1  0
 31 49  1  0
M  END
>  <smiles>  (40) 
NS(=O)(=O)c1ccc(/C=C/c2nc3ccc(F)cc3c(=O)n2Cc2ccccc2)cc1

>  <score_type>  (40) 
oracle

>  <origin>  (40) 
autodockgpu

>  <m_score__min__energy>  (40) 
-9.2599999999999998

>  <m_primary>  (40) 
energy

>  <rmsd>  (40) 
5.188257444954389

>  <m_score__min__rmsd>  (40) 
5.188257444954389

>  <meeko>  (40) 
{"free_energy": -8.47, "intermolecular_energy": -10.56, "internal_energy": -1.23, "cluster_size": 6, "cluster_id": 2, "rank_in_cluster": 6}

>  <energy>  (40) 
-8.26

>  <cluster_rmsd>  (40) 
0.0

>  <cluster>  (40) 
8

$$$$

     RDKit          3D

 49 52  0  0  0  0  0  0  0  0999 V2000
  139.2740   67.0680  226.2410 N   0  0  0  0  0  0  0  0  0  0  0  0
  140.0280   68.5010  226.8670 S   0  0  0  0  0  0  0  0  0  0  0  0
  141.4480   68.2270  227.2640 O   0  0  0  0  0  0  0  0  0  0  0  0
  139.2800   68.9120  228.1030 O   0  0  0  0  0  0  0  0  0  0  0  0
  139.9980   69.7160  225.6370 C   0  0  0  0  0  0  0  0  0  0  0  0
  140.7580   70.8640  225.6770 C   0  0  0  0  0  0  0  0  0  0  0  0
  140.7080   71.8150  224.6700 C   0  0  0  0  0  0  0  0  0  0  0  0
  139.8970   71.6600  223.5860 C   0  0  0  0  0  0  0  0  0  0  0  0
  139.7880   72.6130  222.4890 C   0  0  0  0  0  0  0  0  0  0  0  0
  140.8050   72.9420  221.7060 C   0  0  0  0  0  0  0  0  0  0  0  0
  141.0130   74.3480  221.3240 C   0  0  0  0  0  0  0  0  0  0  0  0
  140.4230   75.2650  222.1120 N   0  0  0  0  0  0  0  0  0  0  0  0
  140.5510   76.5840  221.8900 C   0  0  0  0  0  0  0  0  0  0  0  0
  139.9280   77.4790  222.7250 C   0  0  0  0  0  0  0  0  0  0  0  0
  140.0830   78.8210  222.4680 C   0  0  0  0  0  0  0  0  0  0  0  0
  140.8530   79.2190  221.3870 C   0  0  0  0  0  0  0  0  0  0  0  0
  140.9870   80.5430  221.1590 F   0  0  0  0  0  0  0  0  0  0  0  0
  141.4750   78.2930  220.5560 C   0  0  0  0  0  0  0  0  0  0  0  0
  141.3230   76.9530  220.8080 C   0  0  0  0  0  0  0  0  0  0  0  0
  141.9230   75.9850  220.0070 C   0  0  0  0  0  0  0  0  0  0  0  0
  142.6060   76.4220  219.0490 O   0  0  0  0  0  0  0  0  0  0  0  0
  141.7720   74.6570  220.2600 N   0  0  0  0  0  0  0  0  0  0  0  0
  142.4100   73.6910  219.4060 C   0  0  0  0  0  0  0  0  0  0  0  0
  143.7790   73.3030  219.8280 C   0  0  0  0  0  0  0  0  0  0  0  0
  144.4760   72.2270  219.3420 C   0  0  0  0  0  0  0  0  0  0  0  0
  145.7570   71.9100  219.7810 C   0  0  0  0  0  0  0  0  0  0  0  0
  146.3860   72.6760  220.7380 C   0  0  0  0  0  0  0  0  0  0  0  0
  145.7100   73.7510  221.2350 C   0  0  0  0  0  0  0  0  0  0  0  0
  144.4370   74.0670  220.7990 C   0  0  0  0  0  0  0  0  0  0  0  0
  139.1260   70.4950  223.5480 C   0  0  0  0  0  0  0  0  0  0  0  0
  139.1750   69.5490  224.5450 C   0  0  0  0  0  0  0  0  0  0  0  0
  139.7680   66.8350  225.3370 H   0  0  0  0  0  0  0  0  0  0  0  0
  139.4420   66.2570  226.8780 H   0  0  0  0  0  0  0  0  0  0  0  0
  141.4256   71.0313  226.5351 H   0  0  0  0  0  0  0  0  0  0  0  0
  141.3366   72.7144  224.7475 H   0  0  0  0  0  0  0  0  0  0  0  0
  138.8115   73.0833  222.3014 H   0  0  0  0  0  0  0  0  0  0  0  0
  141.4932   72.1650  221.3418 H   0  0  0  0  0  0  0  0  0  0  0  0
  139.3223   77.1322  223.5752 H   0  0  0  0  0  0  0  0  0  0  0  0
  139.6011   79.5701  223.1134 H   0  0  0  0  0  0  0  0  0  0  0  0
  142.0833   78.6321  219.7045 H   0  0  0  0  0  0  0  0  0  0  0  0
  141.7868   72.7848  219.3873 H   0  0  0  0  0  0  0  0  0  0  0  0
  142.5105   74.1655  218.4187 H   0  0  0  0  0  0  0  0  0  0  0  0
  144.0051   71.5916  218.5774 H   0  0  0  0  0  0  0  0  0  0  0  0
  146.2748   71.0362  219.3586 H   0  0  0  0  0  0  0  0  0  0  0  0
  147.3987   72.4289  221.0891 H   0  0  0  0  0  0  0  0  0  0  0  0
  146.1884   74.3805  221.9998 H   0  0  0  0  0  0  0  0  0  0  0  0
  143.9270   74.9428  221.2267 H   0  0  0  0  0  0  0  0  0  0  0  0
  138.4568   70.3289  222.6909 H   0  0  0  0  0  0  0  0  0  0  0  0
  138.5491   68.6476  224.4695 H   0  0  0  0  0  0  0  0  0  0  0  0
  1  2  1  0
  2  3  2  0
  2  4  2  0
  2  5  1  0
  5  6  2  0
  6  7  1  0
  7  8  2  0
  8  9  1  0
  9 10  2  0
 10 11  1  0
 11 12  2  0
 12 13  1  0
 13 14  2  0
 14 15  1  0
 15 16  2  0
 16 17  1  0
 16 18  1  0
 18 19  2  0
 19 20  1  0
 20 21  2  0
 20 22  1  0
 22 23  1  0
 23 24  1  0
 24 25  2  0
 25 26  1  0
 26 27  2  0
 27 28  1  0
 28 29  2  0
  8 30  1  0
 30 31  2  0
 31  5  1  0
 22 11  1  0
 29 24  1  0
 19 13  1  0
  1 32  1  0
  1 33  1  0
  6 34  1  0
  7 35  1  0
  9 36  1  0
 10 37  1  0
 14 38  1  0
 15 39  1  0
 18 40  1  0
 23 41  1  0
 23 42  1  0
 25 43  1  0
 26 44  1  0
 27 45  1  0
 28 46  1  0
 29 47  1  0
 30 48  1  0
 31 49  1  0
M  END
>  <smiles>  (41) 
NS(=O)(=O)c1ccc(/C=C/c2nc3ccc(F)cc3c(=O)n2Cc2ccccc2)cc1

>  <score_type>  (41) 
oracle

>  <origin>  (41) 
autodockgpu

>  <m_score__min__energy>  (41) 
-9.2599999999999998

>  <m_primary>  (41) 
energy

>  <rmsd>  (41) 
8.231697594972259

>  <m_score__min__rmsd>  (41) 
8.231697594972259

>  <meeko>  (41) 
{"free_energy": -9.12, "intermolecular_energy": -11.21, "internal_energy": -1.22, "cluster_size": 8, "cluster_id": 1, "rank_in_cluster": 4}

>  <energy>  (41) 
-8.18

>  <cluster_rmsd>  (41) 
0.27

>  <cluster>  (41) 
8

$$$$

     RDKit          3D

 49 52  0  0  0  0  0  0  0  0999 V2000
  145.9490   73.3990  218.5850 N   0  0  0  0  0  0  0  0  0  0  0  0
  145.7060   72.4360  220.0100 S   0  0  0  0  0  0  0  0  0  0  0  0
  146.5430   72.9460  221.1460 O   0  0  0  0  0  0  0  0  0  0  0  0
  146.1600   71.0380  219.7030 O   0  0  0  0  0  0  0  0  0  0  0  0
  144.0350   72.5140  220.4450 C   0  0  0  0  0  0  0  0  0  0  0  0
  143.3880   73.6780  220.7940 C   0  0  0  0  0  0  0  0  0  0  0  0
  142.0450   73.6990  221.1360 C   0  0  0  0  0  0  0  0  0  0  0  0
  141.2960   72.5610  221.1450 C   0  0  0  0  0  0  0  0  0  0  0  0
  139.8820   72.5030  221.4930 C   0  0  0  0  0  0  0  0  0  0  0  0
  139.2580   71.3810  221.8210 C   0  0  0  0  0  0  0  0  0  0  0  0
  139.5500   70.7280  223.1060 C   0  0  0  0  0  0  0  0  0  0  0  0
  140.1590   71.4920  224.0290 N   0  0  0  0  0  0  0  0  0  0  0  0
  140.4610   71.0280  225.2540 C   0  0  0  0  0  0  0  0  0  0  0  0
  141.0830   71.8510  226.1610 C   0  0  0  0  0  0  0  0  0  0  0  0
  141.3760   71.3410  227.4040 C   0  0  0  0  0  0  0  0  0  0  0  0
  141.0370   70.0290  227.6950 C   0  0  0  0  0  0  0  0  0  0  0  0
  141.3370   69.5560  228.9230 F   0  0  0  0  0  0  0  0  0  0  0  0
  140.4070   69.2150  226.7590 C   0  0  0  0  0  0  0  0  0  0  0  0
  140.1130   69.7190  225.5180 C   0  0  0  0  0  0  0  0  0  0  0  0
  139.4840   68.9470  224.5440 C   0  0  0  0  0  0  0  0  0  0  0  0
  139.2070   67.7700  224.8820 O   0  0  0  0  0  0  0  0  0  0  0  0
  139.1930   69.4490  223.3140 N   0  0  0  0  0  0  0  0  0  0  0  0
  138.5420   68.6160  222.3390 C   0  0  0  0  0  0  0  0  0  0  0  0
  137.0980   68.3840  222.5900 C   0  0  0  0  0  0  0  0  0  0  0  0
  136.3310   67.4410  221.9580 C   0  0  0  0  0  0  0  0  0  0  0  0
  134.9780   67.2740  222.2320 C   0  0  0  0  0  0  0  0  0  0  0  0
  134.3430   68.0650  223.1660 C   0  0  0  0  0  0  0  0  0  0  0  0
  135.0870   69.0100  223.8060 C   0  0  0  0  0  0  0  0  0  0  0  0
  136.4330   69.1760  223.5350 C   0  0  0  0  0  0  0  0  0  0  0  0
  141.9540   71.3810  220.7910 C   0  0  0  0  0  0  0  0  0  0  0  0
  143.2860   71.3570  220.4500 C   0  0  0  0  0  0  0  0  0  0  0  0
  145.1890   74.1330  218.5820 H   0  0  0  0  0  0  0  0  0  0  0  0
  146.8520   73.9200  218.6430 H   0  0  0  0  0  0  0  0  0  0  0  0
  143.9546   74.6208  220.8017 H   0  0  0  0  0  0  0  0  0  0  0  0
  141.5735   74.6554  221.4061 H   0  0  0  0  0  0  0  0  0  0  0  0
  139.3032   73.4384  221.4829 H   0  0  0  0  0  0  0  0  0  0  0  0
  138.5225   70.9386  221.1330 H   0  0  0  0  0  0  0  0  0  0  0  0
  141.3394   72.8885  225.9004 H   0  0  0  0  0  0  0  0  0  0  0  0
  141.8739   71.9673  228.1589 H   0  0  0  0  0  0  0  0  0  0  0  0
  140.1471   68.1765  227.0121 H   0  0  0  0  0  0  0  0  0  0  0  0
  138.6465   69.0948  221.3542 H   0  0  0  0  0  0  0  0  0  0  0  0
  139.0301   67.6317  222.3943 H   0  0  0  0  0  0  0  0  0  0  0  0
  136.8030   66.7918  221.2058 H   0  0  0  0  0  0  0  0  0  0  0  0
  134.4070   66.5010  221.6968 H   0  0  0  0  0  0  0  0  0  0  0  0
  133.2729   67.9375  223.3867 H   0  0  0  0  0  0  0  0  0  0  0  0
  134.6061   69.6558  224.5555 H   0  0  0  0  0  0  0  0  0  0  0  0
  136.9964   69.9506  224.0759 H   0  0  0  0  0  0  0  0  0  0  0  0
  141.3872   70.4383  220.7847 H   0  0  0  0  0  0  0  0  0  0  0  0
  143.7597   70.4023  220.1778 H   0  0  0  0  0  0  0  0  0  0  0  0
  1  2  1  0
  2  3  2  0
  2  4  2  0
  2  5  1  0
  5  6  2  0
  6  7  1  0
  7  8  2  0
  8  9  1  0
  9 10  2  0
 10 11  1  0
 11 12  2  0
 12 13  1  0
 13 14  2  0
 14 15  1  0
 15 16  2  0
 16 17  1  0
 16 18  1  0
 18 19  2  0
 19 20  1  0
 20 21  2  0
 20 22  1  0
 22 23  1  0
 23 24  1  0
 24 25  2  0
 25 26  1  0
 26 27  2  0
 27 28  1  0
 28 29  2  0
  8 30  1  0
 30 31  2  0
 31  5  1  0
 22 11  1  0
 29 24  1  0
 19 13  1  0
  1 32  1  0
  1 33  1  0
  6 34  1  0
  7 35  1  0
  9 36  1  0
 10 37  1  0
 14 38  1  0
 15 39  1  0
 18 40  1  0
 23 41  1  0
 23 42  1  0
 25 43  1  0
 26 44  1  0
 27 45  1  0
 28 46  1  0
 29 47  1  0
 30 48  1  0
 31 49  1  0
M  END
>  <smiles>  (42) 
NS(=O)(=O)c1ccc(/C=C/c2nc3ccc(F)cc3c(=O)n2Cc2ccccc2)cc1

>  <score_type>  (42) 
oracle

>  <origin>  (42) 
autodockgpu

>  <m_score__min__energy>  (42) 
-9.2599999999999998

>  <m_primary>  (42) 
energy

>  <rmsd>  (42) 
12.185494266603746

>  <m_score__min__rmsd>  (42) 
12.185494266603746

>  <meeko>  (42) 
{"free_energy": -8.65, "intermolecular_energy": -10.74, "internal_energy": -1.41, "cluster_size": 15, "cluster_id": 3, "rank_in_cluster": 7}

>  <energy>  (42) 
-7.71

>  <cluster_rmsd>  (42) 
1.45

>  <cluster>  (42) 
8

$$$$

     RDKit          3D

 49 52  0  0  0  0  0  0  0  0999 V2000
  146.6000   73.7760  220.4940 N   0  0  0  0  0  0  0  0  0  0  0  0
  145.6150   72.6420  219.6240 S   0  0  0  0  0  0  0  0  0  0  0  0
  146.1890   71.2580  219.7150 O   0  0  0  0  0  0  0  0  0  0  0  0
  145.6220   73.0420  218.1760 O   0  0  0  0  0  0  0  0  0  0  0  0
  144.0290   72.6540  220.3110 C   0  0  0  0  0  0  0  0  0  0  0  0
  143.3690   71.5220  220.7330 C   0  0  0  0  0  0  0  0  0  0  0  0
  142.0970   71.5730  221.2800 C   0  0  0  0  0  0  0  0  0  0  0  0
  141.4330   72.7530  221.4260 C   0  0  0  0  0  0  0  0  0  0  0  0
  140.0960   72.8880  221.9900 C   0  0  0  0  0  0  0  0  0  0  0  0
  139.2840   71.8610  222.1940 C   0  0  0  0  0  0  0  0  0  0  0  0
  139.4630   71.0080  223.3800 C   0  0  0  0  0  0  0  0  0  0  0  0
  140.0790   71.5800  224.4290 N   0  0  0  0  0  0  0  0  0  0  0  0
  140.2850   70.9220  225.5820 C   0  0  0  0  0  0  0  0  0  0  0  0
  140.9190   71.5530  226.6240 C   0  0  0  0  0  0  0  0  0  0  0  0
  141.1110   70.8470  227.7890 C   0  0  0  0  0  0  0  0  0  0  0  0
  140.6640   69.5370  227.8690 C   0  0  0  0  0  0  0  0  0  0  0  0
  140.8660   68.8700  229.0240 F   0  0  0  0  0  0  0  0  0  0  0  0
  140.0240   68.9210  226.7990 C   0  0  0  0  0  0  0  0  0  0  0  0
  139.8300   69.6200  225.6350 C   0  0  0  0  0  0  0  0  0  0  0  0
  139.1960   69.0500  224.5340 C   0  0  0  0  0  0  0  0  0  0  0  0
  138.8180   67.8610  224.6830 O   0  0  0  0  0  0  0  0  0  0  0  0
  139.0040   69.7450  223.3820 N   0  0  0  0  0  0  0  0  0  0  0  0
  138.3440   69.1160  222.2690 C   0  0  0  0  0  0  0  0  0  0  0  0
  139.1920   68.1670  221.5050 C   0  0  0  0  0  0  0  0  0  0  0  0
  139.1480   66.8020  221.6240 C   0  0  0  0  0  0  0  0  0  0  0  0
  139.9730   65.9630  220.8840 C   0  0  0  0  0  0  0  0  0  0  0  0
  140.8840   66.4780  219.9870 C   0  0  0  0  0  0  0  0  0  0  0  0
  140.9440   67.8330  219.8530 C   0  0  0  0  0  0  0  0  0  0  0  0
  140.1240   68.6690  220.5880 C   0  0  0  0  0  0  0  0  0  0  0  0
  142.1040   73.9010  220.9970 C   0  0  0  0  0  0  0  0  0  0  0  0
  143.3670   73.8540  220.4540 C   0  0  0  0  0  0  0  0  0  0  0  0
  146.7350   74.6100  219.8600 H   0  0  0  0  0  0  0  0  0  0  0  0
  146.0940   74.1330  221.3350 H   0  0  0  0  0  0  0  0  0  0  0  0
  143.8671   70.5464  220.6328 H   0  0  0  0  0  0  0  0  0  0  0  0
  141.6128   70.6398  221.6035 H   0  0  0  0  0  0  0  0  0  0  0  0
  139.7428   73.8941  222.2602 H   0  0  0  0  0  0  0  0  0  0  0  0
  138.4771   71.6462  221.4779 H   0  0  0  0  0  0  0  0  0  0  0  0
  141.2635   72.5934  226.5298 H   0  0  0  0  0  0  0  0  0  0  0  0
  141.6135   71.3166  228.6475 H   0  0  0  0  0  0  0  0  0  0  0  0
  139.6760   67.8811  226.8855 H   0  0  0  0  0  0  0  0  0  0  0  0
  137.4728   68.5652  222.6531 H   0  0  0  0  0  0  0  0  0  0  0  0
  138.0711   69.9219  221.5718 H   0  0  0  0  0  0  0  0  0  0  0  0
  138.4338   66.3544  222.3308 H   0  0  0  0  0  0  0  0  0  0  0  0
  139.8978   64.8735  221.0160 H   0  0  0  0  0  0  0  0  0  0  0  0
  141.5398   65.8184  219.3997 H   0  0  0  0  0  0  0  0  0  0  0  0
  141.6614   68.2716  219.1437 H   0  0  0  0  0  0  0  0  0  0  0  0
  140.2057   69.7571  220.4489 H   0  0  0  0  0  0  0  0  0  0  0  0
  141.6050   74.8762  221.0969 H   0  0  0  0  0  0  0  0  0  0  0  0
  143.8543   74.7855  220.1301 H   0  0  0  0  0  0  0  0  0  0  0  0
  1  2  1  0
  2  3  2  0
  2  4  2  0
  2  5  1  0
  5  6  2  0
  6  7  1  0
  7  8  2  0
  8  9  1  0
  9 10  2  0
 10 11  1  0
 11 12  2  0
 12 13  1  0
 13 14  2  0
 14 15  1  0
 15 16  2  0
 16 17  1  0
 16 18  1  0
 18 19  2  0
 19 20  1  0
 20 21  2  0
 20 22  1  0
 22 23  1  0
 23 24  1  0
 24 25  2  0
 25 26  1  0
 26 27  2  0
 27 28  1  0
 28 29  2  0
  8 30  1  0
 30 31  2  0
 31  5  1  0
 22 11  1  0
 29 24  1  0
 19 13  1  0
  1 32  1  0
  1 33  1  0
  6 34  1  0
  7 35  1  0
  9 36  1  0
 10 37  1  0
 14 38  1  0
 15 39  1  0
 18 40  1  0
 23 41  1  0
 23 42  1  0
 25 43  1  0
 26 44  1  0
 27 45  1  0
 28 46  1  0
 29 47  1  0
 30 48  1  0
 31 49  1  0
M  END
>  <smiles>  (43) 
NS(=O)(=O)c1ccc(/C=C/c2nc3ccc(F)cc3c(=O)n2Cc2ccccc2)cc1

>  <score_type>  (43) 
oracle

>  <origin>  (43) 
autodockgpu

>  <m_score__min__energy>  (43) 
-9.2599999999999998

>  <m_primary>  (43) 
energy

>  <rmsd>  (43) 
12.350931746806118

>  <m_score__min__rmsd>  (43) 
12.350931746806118

>  <meeko>  (43) 
{"free_energy": -8.73, "intermolecular_energy": -10.82, "internal_energy": -1.64, "cluster_size": 15, "cluster_id": 3, "rank_in_cluster": 5}

>  <energy>  (43) 
-8.25

>  <cluster_rmsd>  (43) 
0.0

>  <cluster>  (43) 
9

$$$$

     RDKit          3D

 49 52  0  0  0  0  0  0  0  0999 V2000
  145.7160   73.3570  218.0680 N   0  0  0  0  0  0  0  0  0  0  0  0
  145.7370   72.7980  219.7110 S   0  0  0  0  0  0  0  0  0  0  0  0
  146.6020   73.6790  220.5630 O   0  0  0  0  0  0  0  0  0  0  0  0
  146.3380   71.4220  219.7220 O   0  0  0  0  0  0  0  0  0  0  0  0
  144.1180   72.8220  220.3180 C   0  0  0  0  0  0  0  0  0  0  0  0
  143.4290   71.6950  220.7060 C   0  0  0  0  0  0  0  0  0  0  0  0
  142.1310   71.7550  221.1890 C   0  0  0  0  0  0  0  0  0  0  0  0
  141.4700   72.9400  221.3020 C   0  0  0  0  0  0  0  0  0  0  0  0
  140.1070   73.0850  221.7990 C   0  0  0  0  0  0  0  0  0  0  0  0
  139.2970   72.0590  222.0130 C   0  0  0  0  0  0  0  0  0  0  0  0
  139.4660   71.2300  223.2180 C   0  0  0  0  0  0  0  0  0  0  0  0
  140.0680   71.8250  224.2620 N   0  0  0  0  0  0  0  0  0  0  0  0
  140.2630   71.1910  225.4300 C   0  0  0  0  0  0  0  0  0  0  0  0
  140.8830   71.8450  226.4660 C   0  0  0  0  0  0  0  0  0  0  0  0
  141.0650   71.1630  227.6470 C   0  0  0  0  0  0  0  0  0  0  0  0
  140.6210   69.8540  227.7480 C   0  0  0  0  0  0  0  0  0  0  0  0
  140.8130   69.2100  228.9190 F   0  0  0  0  0  0  0  0  0  0  0  0
  139.9950   69.2130  226.6840 C   0  0  0  0  0  0  0  0  0  0  0  0
  139.8120   69.8890  225.5050 C   0  0  0  0  0  0  0  0  0  0  0  0
  139.1920   69.2940  224.4090 C   0  0  0  0  0  0  0  0  0  0  0  0
  138.8160   68.1080  224.5770 O   0  0  0  0  0  0  0  0  0  0  0  0
  139.0110   69.9660  223.2400 N   0  0  0  0  0  0  0  0  0  0  0  0
  138.3650   69.3120  222.1330 C   0  0  0  0  0  0  0  0  0  0  0  0
  139.2560   68.4430  221.3250 C   0  0  0  0  0  0  0  0  0  0  0  0
  140.2110   68.8920  220.4500 C   0  0  0  0  0  0  0  0  0  0  0  0
  141.0140   68.0270  219.7160 C   0  0  0  0  0  0  0  0  0  0  0  0
  140.8800   66.6610  219.8390 C   0  0  0  0  0  0  0  0  0  0  0  0
  139.9360   66.1920  220.7030 C   0  0  0  0  0  0  0  0  0  0  0  0
  139.1370   67.0520  221.4350 C   0  0  0  0  0  0  0  0  0  0  0  0
  142.1700   74.0830  220.9080 C   0  0  0  0  0  0  0  0  0  0  0  0
  143.4590   74.0260  220.4290 C   0  0  0  0  0  0  0  0  0  0  0  0
  144.7770   73.0870  217.6670 H   0  0  0  0  0  0  0  0  0  0  0  0
  145.7550   74.4000  218.0330 H   0  0  0  0  0  0  0  0  0  0  0  0
  143.9243   70.7157  220.6303 H   0  0  0  0  0  0  0  0  0  0  0  0
  141.6242   70.8254  221.4873 H   0  0  0  0  0  0  0  0  0  0  0  0
  139.7322   74.0981  222.0068 H   0  0  0  0  0  0  0  0  0  0  0  0
  138.4996   71.8267  221.2918 H   0  0  0  0  0  0  0  0  0  0  0  0
  141.2245   72.8847  226.3549 H   0  0  0  0  0  0  0  0  0  0  0  0
  141.5572   71.6510  228.5011 H   0  0  0  0  0  0  0  0  0  0  0  0
  139.6500   68.1736  226.7874 H   0  0  0  0  0  0  0  0  0  0  0  0
  137.5481   68.6915  222.5300 H   0  0  0  0  0  0  0  0  0  0  0  0
  138.0133   70.1091  221.4614 H   0  0  0  0  0  0  0  0  0  0  0  0
  140.3467   69.9763  220.3242 H   0  0  0  0  0  0  0  0  0  0  0  0
  141.7668   68.4384  219.0275 H   0  0  0  0  0  0  0  0  0  0  0  0
  141.5132   65.9728  219.2598 H   0  0  0  0  0  0  0  0  0  0  0  0
  139.8066   65.1060  220.8209 H   0  0  0  0  0  0  0  0  0  0  0  0
  138.3878   66.6318  222.1221 H   0  0  0  0  0  0  0  0  0  0  0  0
  141.6740   75.0620  220.9832 H   0  0  0  0  0  0  0  0  0  0  0  0
  143.9692   74.9539  220.1311 H   0  0  0  0  0  0  0  0  0  0  0  0
  1  2  1  0
  2  3  2  0
  2  4  2  0
  2  5  1  0
  5  6  2  0
  6  7  1  0
  7  8  2  0
  8  9  1  0
  9 10  2  0
 10 11  1  0
 11 12  2  0
 12 13  1  0
 13 14  2  0
 14 15  1  0
 15 16  2  0
 16 17  1  0
 16 18  1  0
 18 19  2  0
 19 20  1  0
 20 21  2  0
 20 22  1  0
 22 23  1  0
 23 24  1  0
 24 25  2  0
 25 26  1  0
 26 27  2  0
 27 28  1  0
 28 29  2  0
  8 30  1  0
 30 31  2  0
 31  5  1  0
 22 11  1  0
 29 24  1  0
 19 13  1  0
  1 32  1  0
  1 33  1  0
  6 34  1  0
  7 35  1  0
  9 36  1  0
 10 37  1  0
 14 38  1  0
 15 39  1  0
 18 40  1  0
 23 41  1  0
 23 42  1  0
 25 43  1  0
 26 44  1  0
 27 45  1  0
 28 46  1  0
 29 47  1  0
 30 48  1  0
 31 49  1  0
M  END
>  <smiles>  (44) 
NS(=O)(=O)c1ccc(/C=C/c2nc3ccc(F)cc3c(=O)n2Cc2ccccc2)cc1

>  <score_type>  (44) 
oracle

>  <origin>  (44) 
autodockgpu

>  <m_score__min__energy>  (44) 
-9.2599999999999998

>  <m_primary>  (44) 
energy

>  <rmsd>  (44) 
12.405588759329511

>  <m_score__min__rmsd>  (44) 
12.405588759329511

>  <meeko>  (44) 
{"free_energy": -8.73, "intermolecular_energy": -10.82, "internal_energy": -1.66, "cluster_size": 15, "cluster_id": 3, "rank_in_cluster": 4}

>  <energy>  (44) 
-8.24

>  <cluster_rmsd>  (44) 
0.67

>  <cluster>  (44) 
9

$$$$

     RDKit          3D

 49 52  0  0  0  0  0  0  0  0999 V2000
  146.1530   73.3800  217.9760 N   0  0  0  0  0  0  0  0  0  0  0  0
  145.8650   73.0790  219.6610 S   0  0  0  0  0  0  0  0  0  0  0  0
  146.7010   73.9860  220.5150 O   0  0  0  0  0  0  0  0  0  0  0  0
  146.2830   71.6660  219.9540 O   0  0  0  0  0  0  0  0  0  0  0  0
  144.1910   73.3590  219.9890 C   0  0  0  0  0  0  0  0  0  0  0  0
  143.2330   72.3710  219.9790 C   0  0  0  0  0  0  0  0  0  0  0  0
  141.9000   72.6360  220.2480 C   0  0  0  0  0  0  0  0  0  0  0  0
  141.4700   73.8960  220.5370 C   0  0  0  0  0  0  0  0  0  0  0  0
  140.0880   74.2540  220.8300 C   0  0  0  0  0  0  0  0  0  0  0  0
  139.5580   75.4290  220.5230 C   0  0  0  0  0  0  0  0  0  0  0  0
  140.3040   76.6660  220.8030 C   0  0  0  0  0  0  0  0  0  0  0  0
  140.5300   76.9350  222.1010 N   0  0  0  0  0  0  0  0  0  0  0  0
  141.2180   78.0190  222.4960 C   0  0  0  0  0  0  0  0  0  0  0  0
  141.4220   78.2470  223.8350 C   0  0  0  0  0  0  0  0  0  0  0  0
  142.1320   79.3670  224.2010 C   0  0  0  0  0  0  0  0  0  0  0  0
  142.6120   80.2170  223.2160 C   0  0  0  0  0  0  0  0  0  0  0  0
  143.3060   81.3070  223.6060 F   0  0  0  0  0  0  0  0  0  0  0  0
  142.3930   79.9630  221.8670 C   0  0  0  0  0  0  0  0  0  0  0  0
  141.6850   78.8480  221.4970 C   0  0  0  0  0  0  0  0  0  0  0  0
  141.4370   78.5480  220.1600 C   0  0  0  0  0  0  0  0  0  0  0  0
  141.9040   79.3630  219.3260 O   0  0  0  0  0  0  0  0  0  0  0  0
  140.7350   77.4420  219.7950 N   0  0  0  0  0  0  0  0  0  0  0  0
  140.5020   77.1710  218.4010 C   0  0  0  0  0  0  0  0  0  0  0  0
  141.5600   76.3620  217.7450 C   0  0  0  0  0  0  0  0  0  0  0  0
  141.3940   75.0860  217.2720 C   0  0  0  0  0  0  0  0  0  0  0  0
  142.4260   74.3750  216.6700 C   0  0  0  0  0  0  0  0  0  0  0  0
  143.6770   74.9330  216.5230 C   0  0  0  0  0  0  0  0  0  0  0  0
  143.8640   76.2010  216.9860 C   0  0  0  0  0  0  0  0  0  0  0  0
  142.8390   76.9090  217.5850 C   0  0  0  0  0  0  0  0  0  0  0  0
  142.4440   74.8980  220.5470 C   0  0  0  0  0  0  0  0  0  0  0  0
  143.7680   74.6380  220.2810 C   0  0  0  0  0  0  0  0  0  0  0  0
  145.2380   73.2140  217.4770 H   0  0  0  0  0  0  0  0  0  0  0  0
  146.3890   74.3850  217.8170 H   0  0  0  0  0  0  0  0  0  0  0  0
  143.5352   71.3384  219.7502 H   0  0  0  0  0  0  0  0  0  0  0  0
  141.1728   71.8109  220.2278 H   0  0  0  0  0  0  0  0  0  0  0  0
  139.4519   73.5102  221.3321 H   0  0  0  0  0  0  0  0  0  0  0  0
  138.5617   75.4796  220.0595 H   0  0  0  0  0  0  0  0  0  0  0  0
  141.0288   77.5537  224.5932 H   0  0  0  0  0  0  0  0  0  0  0  0
  142.3169   79.5859  225.2630 H   0  0  0  0  0  0  0  0  0  0  0  0
  142.7842   80.6505  221.1026 H   0  0  0  0  0  0  0  0  0  0  0  0
  139.5494   76.6283  218.3112 H   0  0  0  0  0  0  0  0  0  0  0  0
  140.4922   78.1454  217.8907 H   0  0  0  0  0  0  0  0  0  0  0  0
  140.4087   74.6074  217.3724 H   0  0  0  0  0  0  0  0  0  0  0  0
  142.2412   73.3535  216.3063 H   0  0  0  0  0  0  0  0  0  0  0  0
  144.4969   74.3741  216.0481 H   0  0  0  0  0  0  0  0  0  0  0  0
  144.8527   76.6716  216.8807 H   0  0  0  0  0  0  0  0  0  0  0  0
  143.0334   77.9298  217.9458 H   0  0  0  0  0  0  0  0  0  0  0  0
  142.1412   75.9305  220.7755 H   0  0  0  0  0  0  0  0  0  0  0  0
  144.4981   75.4605  220.3015 H   0  0  0  0  0  0  0  0  0  0  0  0
  1  2  1  0
  2  3  2  0
  2  4  2  0
  2  5  1  0
  5  6  2  0
  6  7  1  0
  7  8  2  0
  8  9  1  0
  9 10  2  0
 10 11  1  0
 11 12  2  0
 12 13  1  0
 13 14  2  0
 14 15  1  0
 15 16  2  0
 16 17  1  0
 16 18  1  0
 18 19  2  0
 19 20  1  0
 20 21  2  0
 20 22  1  0
 22 23  1  0
 23 24  1  0
 24 25  2  0
 25 26  1  0
 26 27  2  0
 27 28  1  0
 28 29  2  0
  8 30  1  0
 30 31  2  0
 31  5  1  0
 22 11  1  0
 29 24  1  0
 19 13  1  0
  1 32  1  0
  1 33  1  0
  6 34  1  0
  7 35  1  0
  9 36  1  0
 10 37  1  0
 14 38  1  0
 15 39  1  0
 18 40  1  0
 23 41  1  0
 23 42  1  0
 25 43  1  0
 26 44  1  0
 27 45  1  0
 28 46  1  0
 29 47  1  0
 30 48  1  0
 31 49  1  0
M  END
>  <smiles>  (45) 
NS(=O)(=O)c1ccc(/C=C/c2nc3ccc(F)cc3c(=O)n2Cc2ccccc2)cc1

>  <score_type>  (45) 
oracle

>  <origin>  (45) 
autodockgpu

>  <m_score__min__energy>  (45) 
-9.2599999999999998

>  <m_primary>  (45) 
energy

>  <rmsd>  (45) 
6.952430248684433

>  <m_score__min__rmsd>  (45) 
6.952430248684433

>  <meeko>  (45) 
{"free_energy": -6.88, "intermolecular_energy": -8.97, "internal_energy": -2.26, "cluster_size": 2, "cluster_id": 13, "rank_in_cluster": 2}

>  <energy>  (45) 
-7.86

>  <cluster_rmsd>  (45) 
0.0

>  <cluster>  (45) 
10

$$$$

     RDKit          3D

 49 52  0  0  0  0  0  0  0  0999 V2000
  132.9170   73.2530  227.2880 N   0  0  0  0  0  0  0  0  0  0  0  0
  133.3430   71.5880  227.0420 S   0  0  0  0  0  0  0  0  0  0  0  0
  132.1230   70.7620  226.7560 O   0  0  0  0  0  0  0  0  0  0  0  0
  133.9520   71.0760  228.3150 O   0  0  0  0  0  0  0  0  0  0  0  0
  134.4290   71.4940  225.7000 C   0  0  0  0  0  0  0  0  0  0  0  0
  134.9210   70.3110  225.1950 C   0  0  0  0  0  0  0  0  0  0  0  0
  135.7900   70.2760  224.1160 C   0  0  0  0  0  0  0  0  0  0  0  0
  136.2030   71.4190  223.4990 C   0  0  0  0  0  0  0  0  0  0  0  0
  137.1140   71.4640  222.3620 C   0  0  0  0  0  0  0  0  0  0  0  0
  138.4160   71.2420  222.4630 C   0  0  0  0  0  0  0  0  0  0  0  0
  138.9490   70.5070  223.6210 C   0  0  0  0  0  0  0  0  0  0  0  0
  139.5530   71.2520  224.5630 N   0  0  0  0  0  0  0  0  0  0  0  0
  140.0620   70.7110  225.6830 C   0  0  0  0  0  0  0  0  0  0  0  0
  140.6700   71.5170  226.6140 C   0  0  0  0  0  0  0  0  0  0  0  0
  141.1780   70.9280  227.7480 C   0  0  0  0  0  0  0  0  0  0  0  0
  141.0610   69.5570  227.9090 C   0  0  0  0  0  0  0  0  0  0  0  0
  141.5690   69.0070  229.0320 F   0  0  0  0  0  0  0  0  0  0  0  0
  140.4410   68.7620  226.9520 C   0  0  0  0  0  0  0  0  0  0  0  0
  139.9320   69.3450  225.8190 C   0  0  0  0  0  0  0  0  0  0  0  0
  139.3030   68.5950  224.8280 C   0  0  0  0  0  0  0  0  0  0  0  0
  139.2340   67.3600  225.0460 O   0  0  0  0  0  0  0  0  0  0  0  0
  138.7990   69.1740  223.7060 N   0  0  0  0  0  0  0  0  0  0  0  0
  138.1560   68.3610  222.7090 C   0  0  0  0  0  0  0  0  0  0  0  0
  139.0690   67.8250  221.6680 C   0  0  0  0  0  0  0  0  0  0  0  0
  139.9130   68.5820  220.8970 C   0  0  0  0  0  0  0  0  0  0  0  0
  140.7420   68.0220  219.9320 C   0  0  0  0  0  0  0  0  0  0  0  0
  140.7490   66.6630  219.7070 C   0  0  0  0  0  0  0  0  0  0  0  0
  139.9170   65.8910  220.4630 C   0  0  0  0  0  0  0  0  0  0  0  0
  139.0920   66.4460  221.4230 C   0  0  0  0  0  0  0  0  0  0  0  0
  135.7030   72.6180  224.0130 C   0  0  0  0  0  0  0  0  0  0  0  0
  134.8400   72.6550  225.0830 C   0  0  0  0  0  0  0  0  0  0  0  0
  131.8630   73.3050  227.2520 H   0  0  0  0  0  0  0  0  0  0  0  0
  133.1890   73.5640  228.2470 H   0  0  0  0  0  0  0  0  0  0  0  0
  134.6145   69.3638  225.6629 H   0  0  0  0  0  0  0  0  0  0  0  0
  136.1542   69.3049  223.7496 H   0  0  0  0  0  0  0  0  0  0  0  0
  136.6991   71.6940  221.3695 H   0  0  0  0  0  0  0  0  0  0  0  0
  139.0986   71.6070  221.6814 H   0  0  0  0  0  0  0  0  0  0  0  0
  140.7484   72.6029  226.4570 H   0  0  0  0  0  0  0  0  0  0  0  0
  141.6716   71.5385  228.5185 H   0  0  0  0  0  0  0  0  0  0  0  0
  140.3592   67.6753  227.1017 H   0  0  0  0  0  0  0  0  0  0  0  0
  137.6766   67.5107  223.2162 H   0  0  0  0  0  0  0  0  0  0  0  0
  137.4382   69.0129  222.1895 H   0  0  0  0  0  0  0  0  0  0  0  0
  139.9349   69.6714  221.0475 H   0  0  0  0  0  0  0  0  0  0  0  0
  141.4017   68.6732  219.3397 H   0  0  0  0  0  0  0  0  0  0  0  0
  141.4031   66.2160  218.9439 H   0  0  0  0  0  0  0  0  0  0  0  0
  139.9022   64.8025  220.3053 H   0  0  0  0  0  0  0  0  0  0  0  0
  138.4358   65.7871  222.0105 H   0  0  0  0  0  0  0  0  0  0  0  0
  136.0103   73.5652  223.5457 H   0  0  0  0  0  0  0  0  0  0  0  0
  134.4730   73.6245  225.4510 H   0  0  0  0  0  0  0  0  0  0  0  0
  1  2  1  0
  2  3  2  0
  2  4  2  0
  2  5  1  0
  5  6  2  0
  6  7  1  0
  7  8  2  0
  8  9  1  0
  9 10  2  0
 10 11  1  0
 11 12  2  0
 12 13  1  0
 13 14  2  0
 14 15  1  0
 15 16  2  0
 16 17  1  0
 16 18  1  0
 18 19  2  0
 19 20  1  0
 20 21  2  0
 20 22  1  0
 22 23  1  0
 23 24  1  0
 24 25  2  0
 25 26  1  0
 26 27  2  0
 27 28  1  0
 28 29  2  0
  8 30  1  0
 30 31  2  0
 31  5  1  0
 22 11  1  0
 29 24  1  0
 19 13  1  0
  1 32  1  0
  1 33  1  0
  6 34  1  0
  7 35  1  0
  9 36  1  0
 10 37  1  0
 14 38  1  0
 15 39  1  0
 18 40  1  0
 23 41  1  0
 23 42  1  0
 25 43  1  0
 26 44  1  0
 27 45  1  0
 28 46  1  0
 29 47  1  0
 30 48  1  0
 31 49  1  0
M  END
>  <smiles>  (46) 
NS(=O)(=O)c1ccc(/C=C/c2nc3ccc(F)cc3c(=O)n2Cc2ccccc2)cc1

>  <score_type>  (46) 
oracle

>  <origin>  (46) 
autodockgpu

>  <m_score__min__energy>  (46) 
-9.2599999999999998

>  <m_primary>  (46) 
energy

>  <rmsd>  (46) 
12.799215116613004

>  <m_score__min__rmsd>  (46) 
12.799215116613004

>  <meeko>  (46) 
{"free_energy": -7.86, "intermolecular_energy": -9.95, "internal_energy": -1.66, "cluster_size": 1, "cluster_id": 10, "rank_in_cluster": 1}

>  <energy>  (46) 
-7.75

>  <cluster_rmsd>  (46) 
0.0

>  <cluster>  (46) 
11

$$$$

     RDKit          3D

 49 52  0  0  0  0  0  0  0  0999 V2000
  146.3490   73.0000  221.8960 N   0  0  0  0  0  0  0  0  0  0  0  0
  145.4360   73.5570  220.5280 S   0  0  0  0  0  0  0  0  0  0  0  0
  146.0040   73.0130  219.2500 O   0  0  0  0  0  0  0  0  0  0  0  0
  145.5520   75.0540  220.4760 O   0  0  0  0  0  0  0  0  0  0  0  0
  143.8020   73.0220  220.7060 C   0  0  0  0  0  0  0  0  0  0  0  0
  142.7280   73.8730  220.8450 C   0  0  0  0  0  0  0  0  0  0  0  0
  141.4310   73.4050  220.9850 C   0  0  0  0  0  0  0  0  0  0  0  0
  141.1540   72.0710  220.9910 C   0  0  0  0  0  0  0  0  0  0  0  0
  139.8200   71.5030  221.1330 C   0  0  0  0  0  0  0  0  0  0  0  0
  139.0860   71.6310  222.2290 C   0  0  0  0  0  0  0  0  0  0  0  0
  139.3950   70.8220  223.4180 C   0  0  0  0  0  0  0  0  0  0  0  0
  139.9450   71.4830  224.4520 N   0  0  0  0  0  0  0  0  0  0  0  0
  140.2540   70.8700  225.6070 C   0  0  0  0  0  0  0  0  0  0  0  0
  140.8140   71.5910  226.6330 C   0  0  0  0  0  0  0  0  0  0  0  0
  141.1160   70.9300  227.8010 C   0  0  0  0  0  0  0  0  0  0  0  0
  140.8490   69.5740  227.9000 C   0  0  0  0  0  0  0  0  0  0  0  0
  141.1560   68.9520  229.0580 F   0  0  0  0  0  0  0  0  0  0  0  0
  140.2810   68.8650  226.8460 C   0  0  0  0  0  0  0  0  0  0  0  0
  139.9780   69.5200  225.6800 C   0  0  0  0  0  0  0  0  0  0  0  0
  139.4090   68.8580  224.5950 C   0  0  0  0  0  0  0  0  0  0  0  0
  139.1940   67.6320  224.7600 O   0  0  0  0  0  0  0  0  0  0  0  0
  139.1080   69.5100  223.4390 N   0  0  0  0  0  0  0  0  0  0  0  0
  138.5210   68.7860  222.3430 C   0  0  0  0  0  0  0  0  0  0  0  0
  137.0950   68.4240  222.5360 C   0  0  0  0  0  0  0  0  0  0  0  0
  136.2170   69.0930  223.3500 C   0  0  0  0  0  0  0  0  0  0  0  0
  134.8910   68.7030  223.4940 C   0  0  0  0  0  0  0  0  0  0  0  0
  134.3970   67.6090  222.8160 C   0  0  0  0  0  0  0  0  0  0  0  0
  135.2530   66.9290  222.0020 C   0  0  0  0  0  0  0  0  0  0  0  0
  136.5720   67.3170  221.8570 C   0  0  0  0  0  0  0  0  0  0  0  0
  142.2440   71.2090  220.8490 C   0  0  0  0  0  0  0  0  0  0  0  0
  143.5330   71.6710  220.7100 C   0  0  0  0  0  0  0  0  0  0  0  0
  146.1870   73.6970  222.6720 H   0  0  0  0  0  0  0  0  0  0  0  0
  145.9720   72.0890  222.2420 H   0  0  0  0  0  0  0  0  0  0  0  0
  142.9053   74.9586  220.8449 H   0  0  0  0  0  0  0  0  0  0  0  0
  140.6075   74.1261  221.0936 H   0  0  0  0  0  0  0  0  0  0  0  0
  139.4004   70.9389  220.2870 H   0  0  0  0  0  0  0  0  0  0  0  0
  138.2465   72.3415  222.2495 H   0  0  0  0  0  0  0  0  0  0  0  0
  141.0154   72.6669  226.5239 H   0  0  0  0  0  0  0  0  0  0  0  0
  141.5644   71.4718  228.6468 H   0  0  0  0  0  0  0  0  0  0  0  0
  140.0769   67.7888  226.9472 H   0  0  0  0  0  0  0  0  0  0  0  0
  138.5977   69.4091  221.4397 H   0  0  0  0  0  0  0  0  0  0  0  0
  139.0751   67.8392  222.2620 H   0  0  0  0  0  0  0  0  0  0  0  0
  136.5754   69.9699  223.9091 H   0  0  0  0  0  0  0  0  0  0  0  0
  134.2264   69.2751  224.1581 H   0  0  0  0  0  0  0  0  0  0  0  0
  133.3485   67.2958  222.9280 H   0  0  0  0  0  0  0  0  0  0  0  0
  134.8863   66.0522  221.4482 H   0  0  0  0  0  0  0  0  0  0  0  0
  137.2288   66.7399  221.1895 H   0  0  0  0  0  0  0  0  0  0  0  0
  142.0660   70.1235  220.8482 H   0  0  0  0  0  0  0  0  0  0  0  0
  144.3587   70.9525  220.6008 H   0  0  0  0  0  0  0  0  0  0  0  0
  1  2  1  0
  2  3  2  0
  2  4  2  0
  2  5  1  0
  5  6  2  0
  6  7  1  0
  7  8  2  0
  8  9  1  0
  9 10  2  0
 10 11  1  0
 11 12  2  0
 12 13  1  0
 13 14  2  0
 14 15  1  0
 15 16  2  0
 16 17  1  0
 16 18  1  0
 18 19  2  0
 19 20  1  0
 20 21  2  0
 20 22  1  0
 22 23  1  0
 23 24  1  0
 24 25  2  0
 25 26  1  0
 26 27  2  0
 27 28  1  0
 28 29  2  0
  8 30  1  0
 30 31  2  0
 31  5  1  0
 22 11  1  0
 29 24  1  0
 19 13  1  0
  1 32  1  0
  1 33  1  0
  6 34  1  0
  7 35  1  0
  9 36  1  0
 10 37  1  0
 14 38  1  0
 15 39  1  0
 18 40  1  0
 23 41  1  0
 23 42  1  0
 25 43  1  0
 26 44  1  0
 27 45  1  0
 28 46  1  0
 29 47  1  0
 30 48  1  0
 31 49  1  0
M  END
>  <smiles>  (47) 
NS(=O)(=O)c1ccc(/C=C/c2nc3ccc(F)cc3c(=O)n2Cc2ccccc2)cc1

>  <score_type>  (47) 
oracle

>  <origin>  (47) 
autodockgpu

>  <m_score__min__energy>  (47) 
-9.2599999999999998

>  <m_primary>  (47) 
energy

>  <rmsd>  (47) 
12.45825080526849

>  <m_score__min__rmsd>  (47) 
12.45825080526849

>  <meeko>  (47) 
{"free_energy": -8.44, "intermolecular_energy": -10.53, "internal_energy": -1.35, "cluster_size": 2, "cluster_id": 5, "rank_in_cluster": 2}

>  <energy>  (47) 
-7.19

>  <cluster_rmsd>  (47) 
1.47

>  <cluster>  (47) 
11

$$$$

     RDKit          3D

 49 52  0  0  0  0  0  0  0  0999 V2000
  145.9270   73.4270  218.3610 N   0  0  0  0  0  0  0  0  0  0  0  0
  145.8300   72.6440  219.9070 S   0  0  0  0  0  0  0  0  0  0  0  0
  146.7030   73.3380  220.9120 O   0  0  0  0  0  0  0  0  0  0  0  0
  146.3480   71.2430  219.7470 O   0  0  0  0  0  0  0  0  0  0  0  0
  144.1870   72.6890  220.4430 C   0  0  0  0  0  0  0  0  0  0  0  0
  143.4880   71.5800  220.8620 C   0  0  0  0  0  0  0  0  0  0  0  0
  142.1710   71.6570  221.2860 C   0  0  0  0  0  0  0  0  0  0  0  0
  141.4990   72.8420  221.3060 C   0  0  0  0  0  0  0  0  0  0  0  0
  140.1160   73.0040  221.7360 C   0  0  0  0  0  0  0  0  0  0  0  0
  139.3020   71.9860  221.9710 C   0  0  0  0  0  0  0  0  0  0  0  0
  139.4760   71.1710  223.1840 C   0  0  0  0  0  0  0  0  0  0  0  0
  140.0890   71.7760  224.2160 N   0  0  0  0  0  0  0  0  0  0  0  0
  140.2900   71.1550  225.3900 C   0  0  0  0  0  0  0  0  0  0  0  0
  140.9210   71.8190  226.4130 C   0  0  0  0  0  0  0  0  0  0  0  0
  141.1090   71.1510  227.6010 C   0  0  0  0  0  0  0  0  0  0  0  0
  140.6600   69.8460  227.7220 C   0  0  0  0  0  0  0  0  0  0  0  0
  140.8580   69.2160  228.8990 F   0  0  0  0  0  0  0  0  0  0  0  0
  140.0220   69.1950  226.6710 C   0  0  0  0  0  0  0  0  0  0  0  0
  139.8330   69.8570  225.4840 C   0  0  0  0  0  0  0  0  0  0  0  0
  139.2020   69.2510  224.4010 C   0  0  0  0  0  0  0  0  0  0  0  0
  138.8220   68.0690  224.5870 O   0  0  0  0  0  0  0  0  0  0  0  0
  139.0150   69.9090  223.2260 N   0  0  0  0  0  0  0  0  0  0  0  0
  138.3580   69.2450  222.1320 C   0  0  0  0  0  0  0  0  0  0  0  0
  139.1790   68.2080  221.4570 C   0  0  0  0  0  0  0  0  0  0  0  0
  139.0800   66.8590  221.6810 C   0  0  0  0  0  0  0  0  0  0  0  0
  139.8820   65.9350  221.0210 C   0  0  0  0  0  0  0  0  0  0  0  0
  140.8230   66.3440  220.1010 C   0  0  0  0  0  0  0  0  0  0  0  0
  140.9380   67.6810  219.8630 C   0  0  0  0  0  0  0  0  0  0  0  0
  140.1410   68.6020  220.5190 C   0  0  0  0  0  0  0  0  0  0  0  0
  142.2100   73.9670  220.8800 C   0  0  0  0  0  0  0  0  0  0  0  0
  143.5180   73.8930  220.4600 C   0  0  0  0  0  0  0  0  0  0  0  0
  145.1770   74.1710  218.3500 H   0  0  0  0  0  0  0  0  0  0  0  0
  146.8350   73.9320  218.2600 H   0  0  0  0  0  0  0  0  0  0  0  0
  143.9907   70.6016  220.8603 H   0  0  0  0  0  0  0  0  0  0  0  0
  141.6569   70.7414  221.6136 H   0  0  0  0  0  0  0  0  0  0  0  0
  139.7282   74.0243  221.8724 H   0  0  0  0  0  0  0  0  0  0  0  0
  138.4965   71.7499  221.2601 H   0  0  0  0  0  0  0  0  0  0  0  0
  141.2664   72.8556  226.2862 H   0  0  0  0  0  0  0  0  0  0  0  0
  141.6101   71.6474  228.4451 H   0  0  0  0  0  0  0  0  0  0  0  0
  139.6722   68.1590  226.7905 H   0  0  0  0  0  0  0  0  0  0  0  0
  137.4477   68.7639  222.5192 H   0  0  0  0  0  0  0  0  0  0  0  0
  138.1492   70.0179  221.3777 H   0  0  0  0  0  0  0  0  0  0  0  0
  138.3398   66.4949  222.4087 H   0  0  0  0  0  0  0  0  0  0  0  0
  139.7639   64.8627  221.2360 H   0  0  0  0  0  0  0  0  0  0  0  0
  141.4596   65.6162  219.5766 H   0  0  0  0  0  0  0  0  0  0  0  0
  141.6809   68.0356  219.1333 H   0  0  0  0  0  0  0  0  0  0  0  0
  140.2664   69.6722  220.2978 H   0  0  0  0  0  0  0  0  0  0  0  0
  141.7067   74.9451  220.8805 H   0  0  0  0  0  0  0  0  0  0  0  0
  144.0361   74.8068  220.1337 H   0  0  0  0  0  0  0  0  0  0  0  0
  1  2  1  0
  2  3  2  0
  2  4  2  0
  2  5  1  0
  5  6  2  0
  6  7  1  0
  7  8  2  0
  8  9  1  0
  9 10  2  0
 10 11  1  0
 11 12  2  0
 12 13  1  0
 13 14  2  0
 14 15  1  0
 15 16  2  0
 16 17  1  0
 16 18  1  0
 18 19  2  0
 19 20  1  0
 20 21  2  0
 20 22  1  0
 22 23  1  0
 23 24  1  0
 24 25  2  0
 25 26  1  0
 26 27  2  0
 27 28  1  0
 28 29  2  0
  8 30  1  0
 30 31  2  0
 31  5  1  0
 22 11  1  0
 29 24  1  0
 19 13  1  0
  1 32  1  0
  1 33  1  0
  6 34  1  0
  7 35  1  0
  9 36  1  0
 10 37  1  0
 14 38  1  0
 15 39  1  0
 18 40  1  0
 23 41  1  0
 23 42  1  0
 25 43  1  0
 26 44  1  0
 27 45  1  0
 28 46  1  0
 29 47  1  0
 30 48  1  0
 31 49  1  0
M  END
>  <smiles>  (48) 
NS(=O)(=O)c1ccc(/C=C/c2nc3ccc(F)cc3c(=O)n2Cc2ccccc2)cc1

>  <score_type>  (48) 
oracle

>  <origin>  (48) 
autodockgpu

>  <m_score__min__energy>  (48) 
-9.2599999999999998

>  <m_primary>  (48) 
energy

>  <rmsd>  (48) 
12.274174466003641

>  <m_score__min__rmsd>  (48) 
12.274174466003641

>  <meeko>  (48) 
{"free_energy": -9.06, "intermolecular_energy": -11.15, "internal_energy": -1.63, "cluster_size": 15, "cluster_id": 3, "rank_in_cluster": 2}

>  <energy>  (48) 
-7.57

>  <cluster_rmsd>  (48) 
0.0

>  <cluster>  (48) 
12

$$$$

     RDKit          3D

 49 52  0  0  0  0  0  0  0  0999 V2000
  146.6730   73.7590  219.8080 N   0  0  0  0  0  0  0  0  0  0  0  0
  145.6670   72.4350  219.3060 S   0  0  0  0  0  0  0  0  0  0  0  0
  146.2800   71.1220  219.6960 O   0  0  0  0  0  0  0  0  0  0  0  0
  145.5780   72.4680  217.8070 O   0  0  0  0  0  0  0  0  0  0  0  0
  144.1240   72.6000  220.0680 C   0  0  0  0  0  0  0  0  0  0  0  0
  143.3640   71.5350  220.4960 C   0  0  0  0  0  0  0  0  0  0  0  0
  142.1310   71.7080  221.1050 C   0  0  0  0  0  0  0  0  0  0  0  0
  141.6070   72.9490  221.3090 C   0  0  0  0  0  0  0  0  0  0  0  0
  140.3200   73.2120  221.9390 C   0  0  0  0  0  0  0  0  0  0  0  0
  139.4060   72.2760  222.1470 C   0  0  0  0  0  0  0  0  0  0  0  0
  139.5540   71.3410  223.2740 C   0  0  0  0  0  0  0  0  0  0  0  0
  140.1400   71.8390  224.3770 N   0  0  0  0  0  0  0  0  0  0  0  0
  140.3160   71.1010  225.4860 C   0  0  0  0  0  0  0  0  0  0  0  0
  140.9200   71.6580  226.5870 C   0  0  0  0  0  0  0  0  0  0  0  0
  141.0820   70.8720  227.7040 C   0  0  0  0  0  0  0  0  0  0  0  0
  140.6360   69.5600  227.6800 C   0  0  0  0  0  0  0  0  0  0  0  0
  140.8090   68.8130  228.7910 F   0  0  0  0  0  0  0  0  0  0  0  0
  140.0270   69.0190  226.5530 C   0  0  0  0  0  0  0  0  0  0  0  0
  139.8630   69.7990  225.4360 C   0  0  0  0  0  0  0  0  0  0  0  0
  139.2610   69.3070  224.2810 C   0  0  0  0  0  0  0  0  0  0  0  0
  138.8810   68.1110  224.3360 O   0  0  0  0  0  0  0  0  0  0  0  0
  139.0990   70.0810  223.1750 N   0  0  0  0  0  0  0  0  0  0  0  0
  138.4700   69.5310  222.0040 C   0  0  0  0  0  0  0  0  0  0  0  0
  139.3980   69.2600  220.8770 C   0  0  0  0  0  0  0  0  0  0  0  0
  140.2860   68.2180  220.8240 C   0  0  0  0  0  0  0  0  0  0  0  0
  141.1350   68.0180  219.7410 C   0  0  0  0  0  0  0  0  0  0  0  0
  141.1180   68.8730  218.6610 C   0  0  0  0  0  0  0  0  0  0  0  0
  140.2410   69.9160  218.6930 C   0  0  0  0  0  0  0  0  0  0  0  0
  139.3960   70.1160  219.7690 C   0  0  0  0  0  0  0  0  0  0  0  0
  142.3800   74.0290  220.8740 C   0  0  0  0  0  0  0  0  0  0  0  0
  143.6050   73.8600  220.2700 C   0  0  0  0  0  0  0  0  0  0  0  0
  147.1800   74.0980  218.9470 H   0  0  0  0  0  0  0  0  0  0  0  0
  146.0890   74.5610  220.1340 H   0  0  0  0  0  0  0  0  0  0  0  0
  143.7474   70.5144  220.3501 H   0  0  0  0  0  0  0  0  0  0  0  0
  141.5631   70.8240  221.4307 H   0  0  0  0  0  0  0  0  0  0  0  0
  140.0958   74.2405  222.2583 H   0  0  0  0  0  0  0  0  0  0  0  0
  138.5367   72.1976  221.4776 H   0  0  0  0  0  0  0  0  0  0  0  0
  141.2642   72.7027  226.5756 H   0  0  0  0  0  0  0  0  0  0  0  0
  141.5603   71.2802  228.6065 H   0  0  0  0  0  0  0  0  0  0  0  0
  139.6798   67.9752  226.5569 H   0  0  0  0  0  0  0  0  0  0  0  0
  137.9864   68.5842  222.2863 H   0  0  0  0  0  0  0  0  0  0  0  0
  137.7566   70.2883  221.6469 H   0  0  0  0  0  0  0  0  0  0  0  0
  140.3289   67.5144  221.6684 H   0  0  0  0  0  0  0  0  0  0  0  0
  141.8298   67.1652  219.7468 H   0  0  0  0  0  0  0  0  0  0  0  0
  141.7887   68.7194  217.8028 H   0  0  0  0  0  0  0  0  0  0  0  0
  140.2047   70.6142  217.8438 H   0  0  0  0  0  0  0  0  0  0  0  0
  138.7036   70.9706  219.7541 H   0  0  0  0  0  0  0  0  0  0  0  0
  141.9960   75.0495  221.0194 H   0  0  0  0  0  0  0  0  0  0  0  0
  144.1766   74.7417  219.9446 H   0  0  0  0  0  0  0  0  0  0  0  0
  1  2  1  0
  2  3  2  0
  2  4  2  0
  2  5  1  0
  5  6  2  0
  6  7  1  0
  7  8  2  0
  8  9  1  0
  9 10  2  0
 10 11  1  0
 11 12  2  0
 12 13  1  0
 13 14  2  0
 14 15  1  0
 15 16  2  0
 16 17  1  0
 16 18  1  0
 18 19  2  0
 19 20  1  0
 20 21  2  0
 20 22  1  0
 22 23  1  0
 23 24  1  0
 24 25  2  0
 25 26  1  0
 26 27  2  0
 27 28  1  0
 28 29  2  0
  8 30  1  0
 30 31  2  0
 31  5  1  0
 22 11  1  0
 29 24  1  0
 19 13  1  0
  1 32  1  0
  1 33  1  0
  6 34  1  0
  7 35  1  0
  9 36  1  0
 10 37  1  0
 14 38  1  0
 15 39  1  0
 18 40  1  0
 23 41  1  0
 23 42  1  0
 25 43  1  0
 26 44  1  0
 27 45  1  0
 28 46  1  0
 29 47  1  0
 30 48  1  0
 31 49  1  0
M  END
>  <smiles>  (49) 
NS(=O)(=O)c1ccc(/C=C/c2nc3ccc(F)cc3c(=O)n2Cc2ccccc2)cc1

>  <score_type>  (49) 
oracle

>  <origin>  (49) 
autodockgpu

>  <m_score__min__energy>  (49) 
-9.2599999999999998

>  <m_primary>  (49) 
energy

>  <rmsd>  (49) 
11.391054102186407

>  <m_score__min__rmsd>  (49) 
11.391054102186407

>  <meeko>  (49) 
{"free_energy": -8.33, "intermolecular_energy": -10.42, "internal_energy": -1.93, "cluster_size": 15, "cluster_id": 3, "rank_in_cluster": 11}

>  <energy>  (49) 
-7.07

>  <cluster_rmsd>  (49) 
0.0

>  <cluster>  (49) 
13

$$$$

     RDKit          3D

 49 52  0  0  0  0  0  0  0  0999 V2000
  132.8770   73.0380  227.5880 N   0  0  0  0  0  0  0  0  0  0  0  0
  133.5660   73.5360  226.0750 S   0  0  0  0  0  0  0  0  0  0  0  0
  134.6230   74.5790  226.2880 O   0  0  0  0  0  0  0  0  0  0  0  0
  132.4730   74.1570  225.2530 O   0  0  0  0  0  0  0  0  0  0  0  0
  134.2680   72.1530  225.3110 C   0  0  0  0  0  0  0  0  0  0  0  0
  134.4170   70.9310  225.9290 C   0  0  0  0  0  0  0  0  0  0  0  0
  134.9850   69.8440  225.2820 C   0  0  0  0  0  0  0  0  0  0  0  0
  135.4270   69.9340  223.9970 C   0  0  0  0  0  0  0  0  0  0  0  0
  136.0340   68.8380  223.2510 C   0  0  0  0  0  0  0  0  0  0  0  0
  137.3420   68.6980  223.0980 C   0  0  0  0  0  0  0  0  0  0  0  0
  138.2610   69.2090  224.1280 C   0  0  0  0  0  0  0  0  0  0  0  0
  138.5510   68.3610  225.1300 N   0  0  0  0  0  0  0  0  0  0  0  0
  139.3940   68.6910  226.1230 C   0  0  0  0  0  0  0  0  0  0  0  0
  139.6570   67.7870  227.1230 C   0  0  0  0  0  0  0  0  0  0  0  0
  140.5260   68.1610  228.1220 C   0  0  0  0  0  0  0  0  0  0  0  0
  141.0990   69.4220  228.0850 C   0  0  0  0  0  0  0  0  0  0  0  0
  141.9480   69.7600  229.0790 F   0  0  0  0  0  0  0  0  0  0  0  0
  140.8170   70.3200  227.0610 C   0  0  0  0  0  0  0  0  0  0  0  0
  139.9500   69.9520  226.0620 C   0  0  0  0  0  0  0  0  0  0  0  0
  139.6330   70.8130  225.0150 C   0  0  0  0  0  0  0  0  0  0  0  0
  140.1920   71.9370  225.0490 O   0  0  0  0  0  0  0  0  0  0  0  0
  138.7750   70.4460  224.0260 N   0  0  0  0  0  0  0  0  0  0  0  0
  138.4750   71.3670  222.9620 C   0  0  0  0  0  0  0  0  0  0  0  0
  139.6670   71.9660  222.3110 C   0  0  0  0  0  0  0  0  0  0  0  0
  140.7490   71.2620  221.8520 C   0  0  0  0  0  0  0  0  0  0  0  0
  141.8410   71.8810  221.2540 C   0  0  0  0  0  0  0  0  0  0  0  0
  141.8810   73.2490  221.0970 C   0  0  0  0  0  0  0  0  0  0  0  0
  140.8140   73.9690  221.5460 C   0  0  0  0  0  0  0  0  0  0  0  0
  139.7280   73.3550  222.1410 C   0  0  0  0  0  0  0  0  0  0  0  0
  135.2750   71.1740  223.3720 C   0  0  0  0  0  0  0  0  0  0  0  0
  134.7110   72.2540  224.0110 C   0  0  0  0  0  0  0  0  0  0  0  0
  133.1940   73.7390  228.3110 H   0  0  0  0  0  0  0  0  0  0  0  0
  131.8350   73.1060  227.5580 H   0  0  0  0  0  0  0  0  0  0  0  0
  134.0749   70.8138  226.9678 H   0  0  0  0  0  0  0  0  0  0  0  0
  135.0806   68.8883  225.8183 H   0  0  0  0  0  0  0  0  0  0  0  0
  135.3717   68.0893  222.7919 H   0  0  0  0  0  0  0  0  0  0  0  0
  137.7413   68.2003  222.2020 H   0  0  0  0  0  0  0  0  0  0  0  0
  139.1865   66.7927  227.1252 H   0  0  0  0  0  0  0  0  0  0  0  0
  140.7633   67.4664  228.9412 H   0  0  0  0  0  0  0  0  0  0  0  0
  141.2843   71.3158  227.0516 H   0  0  0  0  0  0  0  0  0  0  0  0
  137.8985   70.8294  222.1948 H   0  0  0  0  0  0  0  0  0  0  0  0
  137.9163   72.1984  223.4166 H   0  0  0  0  0  0  0  0  0  0  0  0
  140.7540   70.1674  221.9605 H   0  0  0  0  0  0  0  0  0  0  0  0
  142.6848   71.2698  220.9013 H   0  0  0  0  0  0  0  0  0  0  0  0
  142.7435   73.7430  220.6259 H   0  0  0  0  0  0  0  0  0  0  0  0
  140.8174   75.0631  221.4322 H   0  0  0  0  0  0  0  0  0  0  0  0
  138.8887   73.9741  222.4906 H   0  0  0  0  0  0  0  0  0  0  0  0
  135.6180   71.2910  222.3334 H   0  0  0  0  0  0  0  0  0  0  0  0
  134.6126   73.2104  223.4766 H   0  0  0  0  0  0  0  0  0  0  0  0
  1  2  1  0
  2  3  2  0
  2  4  2  0
  2  5  1  0
  5  6  2  0
  6  7  1  0
  7  8  2  0
  8  9  1  0
  9 10  2  0
 10 11  1  0
 11 12  2  0
 12 13  1  0
 13 14  2  0
 14 15  1  0
 15 16  2  0
 16 17  1  0
 16 18  1  0
 18 19  2  0
 19 20  1  0
 20 21  2  0
 20 22  1  0
 22 23  1  0
 23 24  1  0
 24 25  2  0
 25 26  1  0
 26 27  2  0
 27 28  1  0
 28 29  2  0
  8 30  1  0
 30 31  2  0
 31  5  1  0
 22 11  1  0
 29 24  1  0
 19 13  1  0
  1 32  1  0
  1 33  1  0
  6 34  1  0
  7 35  1  0
  9 36  1  0
 10 37  1  0
 14 38  1  0
 15 39  1  0
 18 40  1  0
 23 41  1  0
 23 42  1  0
 25 43  1  0
 26 44  1  0
 27 45  1  0
 28 46  1  0
 29 47  1  0
 30 48  1  0
 31 49  1  0
M  END
>  <smiles>  (50) 
NS(=O)(=O)c1ccc(/C=C/c2nc3ccc(F)cc3c(=O)n2Cc2ccccc2)cc1

>  <score_type>  (50) 
oracle

>  <origin>  (50) 
autodockgpu

>  <m_score__min__energy>  (50) 
-9.2599999999999998

>  <m_primary>  (50) 
energy

>  <rmsd>  (50) 
10.034331699842843

>  <m_score__min__rmsd>  (50) 
10.034331699842843

>  <meeko>  (50) 
{"free_energy": -7.75, "intermolecular_energy": -9.84, "internal_energy": -1.65, "cluster_size": 2, "cluster_id": 11, "rank_in_cluster": 1}

>  <energy>  (50) 
-6.88

>  <cluster_rmsd>  (50) 
1.57

>  <cluster>  (50) 
13

$$$$
