
     RDKit          3D

 38 39  0  0  0  0  0  0  0  0999 V2000
  145.2700   73.0210  217.8960 C   0  0  0  0  0  0  0  0  0  0  0  0
  145.8550   72.4560  218.9990 O   0  0  0  0  0  0  0  0  0  0  0  0
  146.3360   73.3840  219.9130 C   0  0  0  0  0  0  0  0  0  0  0  0
  145.3980   73.6400  221.0450 C   0  0  0  0  0  0  0  0  0  0  0  0
  144.1490   72.9580  220.7740 N   0  0  0  0  0  0  0  0  0  0  0  0
  142.9380   73.6290  220.4590 C   0  0  0  0  0  0  0  0  0  0  0  0
  142.8460   74.8790  220.3880 O   0  0  0  0  0  0  0  0  0  0  0  0
  141.6900   72.8540  220.1900 C   0  0  0  0  0  0  0  0  0  0  0  0
  141.4050   72.0160  221.3270 N   0  0  0  0  0  0  0  0  0  0  0  0
  140.5310   72.4520  222.3390 C   0  0  0  0  0  0  0  0  0  0  0  0
  139.9430   73.5730  222.3370 O   0  0  0  0  0  0  0  0  0  0  0  0
  140.2690   71.5600  223.4850 C   0  0  0  0  0  0  0  0  0  0  0  0
  139.5710   70.3820  223.3450 C   0  0  0  0  0  0  0  0  0  0  0  0
  139.3060   69.5230  224.3910 C   0  0  0  0  0  0  0  0  0  0  0  0
  139.7690   69.8700  225.6420 C   0  0  0  0  0  0  0  0  0  0  0  0
  139.5650   69.0900  226.7660 C   0  0  0  0  0  0  0  0  0  0  0  0
  140.0370   69.4560  228.0130 C   0  0  0  0  0  0  0  0  0  0  0  0
  139.8420   68.6970  229.1170 F   0  0  0  0  0  0  0  0  0  0  0  0
  140.7330   70.6390  228.1280 C   0  0  0  0  0  0  0  0  0  0  0  0
  140.9340   71.4150  227.0030 C   0  0  0  0  0  0  0  0  0  0  0  0
  140.4660   71.0560  225.7560 C   0  0  0  0  0  0  0  0  0  0  0  0
  140.7080   71.8730  224.7160 N   0  0  0  0  0  0  0  0  0  0  0  0
  144.5131   73.7521  218.2164 H   0  0  0  0  0  0  0  0  0  0  0  0
  146.0376   73.5283  217.2931 H   0  0  0  0  0  0  0  0  0  0  0  0
  144.7897   72.2362  217.2931 H   0  0  0  0  0  0  0  0  0  0  0  0
  147.2850   73.0093  220.3241 H   0  0  0  0  0  0  0  0  0  0  0  0
  146.4635   74.3348  219.3748 H   0  0  0  0  0  0  0  0  0  0  0  0
  145.8332   73.2583  221.9804 H   0  0  0  0  0  0  0  0  0  0  0  0
  145.2210   74.7207  221.1491 H   0  0  0  0  0  0  0  0  0  0  0  0
  144.0870   71.8960  220.8010 H   0  0  0  0  0  0  0  0  0  0  0  0
  140.8530   73.5483  220.0243 H   0  0  0  0  0  0  0  0  0  0  0  0
  141.8248   72.2312  219.2933 H   0  0  0  0  0  0  0  0  0  0  0  0
  141.8710   71.0790  221.3690 H   0  0  0  0  0  0  0  0  0  0  0  0
  139.2044   70.1108  222.3440 H   0  0  0  0  0  0  0  0  0  0  0  0
  138.7434   68.5912  224.2320 H   0  0  0  0  0  0  0  0  0  0  0  0
  139.0085   68.1466  226.6643 H   0  0  0  0  0  0  0  0  0  0  0  0
  141.1241   70.9620  229.1041 H   0  0  0  0  0  0  0  0  0  0  0  0
  141.4903   72.3584  227.1058 H   0  0  0  0  0  0  0  0  0  0  0  0
  1  2  1  0
  2  3  1  0
  3  4  1  0
  4  5  1  0
  5  6  1  0
  6  7  2  0
  6  8  1  0
  8  9  1  0
  9 10  1  0
 10 11  2  0
 10 12  1  0
 12 13  2  0
 13 14  1  0
 14 15  2  0
 15 16  1  0
 16 17  2  0
 17 18  1  0
 17 19  1  0
 19 20  2  0
 20 21  1  0
 21 22  2  0
 22 12  1  0
 21 15  1  0
  1 23  1  0
  1 24  1  0
  1 25  1  0
  3 26  1  0
  3 27  1  0
  4 28  1  0
  4 29  1  0
  5 30  1  0
  8 31  1  0
  8 32  1  0
  9 33  1  0
 13 34  1  0
 14 35  1  0
 16 36  1  0
 19 37  1  0
 20 38  1  0
M  END
>  <smiles>  (1) 
COCCNC(=O)CNC(=O)c1ccc2cc(F)ccc2n1

>  <score_type>  (1) 
oracle

>  <origin>  (1) 
autodockgpu

>  <m_score__min__energy>  (1) 
-6.71

>  <m_primary>  (1) 
energy

>  <rmsd>  (1) 
3.7053545868215165

>  <m_score__min__rmsd>  (1) 
3.7053545868215165

>  <meeko>  (1) 
{"free_energy": -6.39, "intermolecular_energy": -8.18, "internal_energy": -1.14, "cluster_size": 4, "cluster_id": 2, "rank_in_cluster": 1}

>  <energy>  (1) 
-6.71

>  <cluster_rmsd>  (1) 
0.0

>  <cluster>  (1) 
1

$$$$

     RDKit          3D

 38 39  0  0  0  0  0  0  0  0999 V2000
  142.5450   79.5960  223.0760 C   0  0  0  0  0  0  0  0  0  0  0  0
  141.5580   78.8840  222.4470 O   0  0  0  0  0  0  0  0  0  0  0  0
  140.2930   79.4400  222.5850 C   0  0  0  0  0  0  0  0  0  0  0  0
  139.1990   78.5490  222.0970 C   0  0  0  0  0  0  0  0  0  0  0  0
  139.7800   77.2900  221.6800 N   0  0  0  0  0  0  0  0  0  0  0  0
  139.1140   76.0400  221.7910 C   0  0  0  0  0  0  0  0  0  0  0  0
  137.9570   75.9210  222.2640 O   0  0  0  0  0  0  0  0  0  0  0  0
  139.7790   74.7830  221.3370 C   0  0  0  0  0  0  0  0  0  0  0  0
  139.6140   73.7730  222.3510 N   0  0  0  0  0  0  0  0  0  0  0  0
  140.4510   72.6420  222.3820 C   0  0  0  0  0  0  0  0  0  0  0  0
  141.3840   72.4250  221.5550 O   0  0  0  0  0  0  0  0  0  0  0  0
  140.2450   71.6340  223.4390 C   0  0  0  0  0  0  0  0  0  0  0  0
  139.5930   70.4470  223.1950 C   0  0  0  0  0  0  0  0  0  0  0  0
  139.3810   69.4800  224.1570 C   0  0  0  0  0  0  0  0  0  0  0  0
  139.8510   69.7250  225.4300 C   0  0  0  0  0  0  0  0  0  0  0  0
  139.6980   68.8320  226.4750 C   0  0  0  0  0  0  0  0  0  0  0  0
  140.1760   69.0960  227.7450 C   0  0  0  0  0  0  0  0  0  0  0  0
  140.0310   68.2280  228.7730 F   0  0  0  0  0  0  0  0  0  0  0  0
  140.8260   70.2920  227.9650 C   0  0  0  0  0  0  0  0  0  0  0  0
  140.9760   71.1800  226.9180 C   0  0  0  0  0  0  0  0  0  0  0  0
  140.5010   70.9230  225.6490 C   0  0  0  0  0  0  0  0  0  0  0  0
  140.6920   71.8450  224.6890 N   0  0  0  0  0  0  0  0  0  0  0  0
  142.4230   79.5080  224.1657 H   0  0  0  0  0  0  0  0  0  0  0  0
  143.5277   79.1975  222.7837 H   0  0  0  0  0  0  0  0  0  0  0  0
  142.4768   80.6543  222.7837 H   0  0  0  0  0  0  0  0  0  0  0  0
  140.1200   79.6538  223.6501 H   0  0  0  0  0  0  0  0  0  0  0  0
  140.2692   80.3515  221.9697 H   0  0  0  0  0  0  0  0  0  0  0  0
  138.4754   78.3731  222.9066 H   0  0  0  0  0  0  0  0  0  0  0  0
  138.6789   79.0215  221.2507 H   0  0  0  0  0  0  0  0  0  0  0  0
  140.7570   77.2470  221.2610 H   0  0  0  0  0  0  0  0  0  0  0  0
  139.3198   74.4412  220.3977 H   0  0  0  0  0  0  0  0  0  0  0  0
  140.8500   74.9690  221.1682 H   0  0  0  0  0  0  0  0  0  0  0  0
  138.8530   73.9130  223.0570 H   0  0  0  0  0  0  0  0  0  0  0  0
  139.2203   70.2583  222.1774 H   0  0  0  0  0  0  0  0  0  0  0  0
  138.8544   68.5448  223.9160 H   0  0  0  0  0  0  0  0  0  0  0  0
  139.1788   67.8802  226.2894 H   0  0  0  0  0  0  0  0  0  0  0  0
  141.2204   70.5359  228.9625 H   0  0  0  0  0  0  0  0  0  0  0  0
  141.4957   72.1315  227.1039 H   0  0  0  0  0  0  0  0  0  0  0  0
  1  2  1  0
  2  3  1  0
  3  4  1  0
  4  5  1  0
  5  6  1  0
  6  7  2  0
  6  8  1  0
  8  9  1  0
  9 10  1  0
 10 11  2  0
 10 12  1  0
 12 13  2  0
 13 14  1  0
 14 15  2  0
 15 16  1  0
 16 17  2  0
 17 18  1  0
 17 19  1  0
 19 20  2  0
 20 21  1  0
 21 22  2  0
 22 12  1  0
 21 15  1  0
  1 23  1  0
  1 24  1  0
  1 25  1  0
  3 26  1  0
  3 27  1  0
  4 28  1  0
  4 29  1  0
  5 30  1  0
  8 31  1  0
  8 32  1  0
  9 33  1  0
 13 34  1  0
 14 35  1  0
 16 36  1  0
 19 37  1  0
 20 38  1  0
M  END
>  <smiles>  (2) 
COCCNC(=O)CNC(=O)c1ccc2cc(F)ccc2n1

>  <score_type>  (2) 
oracle

>  <origin>  (2) 
autodockgpu

>  <m_score__min__energy>  (2) 
-6.71

>  <m_primary>  (2) 
energy

>  <rmsd>  (2) 
2.8417186707297253

>  <m_score__min__rmsd>  (2) 
2.8417186707297253

>  <meeko>  (2) 
{"free_energy": -5.72, "intermolecular_energy": -7.51, "internal_energy": -1.9, "cluster_size": 39, "cluster_id": 1, "rank_in_cluster": 9}

>  <energy>  (2) 
-6.68

>  <cluster_rmsd>  (2) 
0.52

>  <cluster>  (2) 
1

$$$$

     RDKit          3D

 38 39  0  0  0  0  0  0  0  0999 V2000
  144.6410   72.7400  220.7840 C   0  0  0  0  0  0  0  0  0  0  0  0
  143.5590   73.3810  220.2400 O   0  0  0  0  0  0  0  0  0  0  0  0
  143.7520   74.7440  220.0520 C   0  0  0  0  0  0  0  0  0  0  0  0
  142.5650   75.5660  220.4290 C   0  0  0  0  0  0  0  0  0  0  0  0
  141.3930   74.7150  220.4270 N   0  0  0  0  0  0  0  0  0  0  0  0
  140.1300   75.1120  220.9430 C   0  0  0  0  0  0  0  0  0  0  0  0
  139.9220   76.2420  221.4470 O   0  0  0  0  0  0  0  0  0  0  0  0
  138.9670   74.1770  220.9030 C   0  0  0  0  0  0  0  0  0  0  0  0
  139.0210   73.3140  222.0560 N   0  0  0  0  0  0  0  0  0  0  0  0
  139.9880   72.2980  222.1490 C   0  0  0  0  0  0  0  0  0  0  0  0
  140.8610   72.0630  221.2620 O   0  0  0  0  0  0  0  0  0  0  0  0
  140.0040   71.4390  223.3480 C   0  0  0  0  0  0  0  0  0  0  0  0
  139.5280   70.1480  223.3250 C   0  0  0  0  0  0  0  0  0  0  0  0
  139.5260   69.3150  224.4250 C   0  0  0  0  0  0  0  0  0  0  0  0
  140.0310   69.8100  225.6080 C   0  0  0  0  0  0  0  0  0  0  0  0
  140.0810   69.0690  226.7760 C   0  0  0  0  0  0  0  0  0  0  0  0
  140.5920   69.5840  227.9520 C   0  0  0  0  0  0  0  0  0  0  0  0
  140.6450   68.8660  229.0990 F   0  0  0  0  0  0  0  0  0  0  0  0
  141.0630   70.8790  227.9510 C   0  0  0  0  0  0  0  0  0  0  0  0
  141.0110   71.6140  226.7830 C   0  0  0  0  0  0  0  0  0  0  0  0
  140.5030   71.1070  225.6050 C   0  0  0  0  0  0  0  0  0  0  0  0
  140.4910   71.8940  224.5150 N   0  0  0  0  0  0  0  0  0  0  0  0
  144.5763   72.7783  221.8814 H   0  0  0  0  0  0  0  0  0  0  0  0
  144.6499   71.6908  220.4536 H   0  0  0  0  0  0  0  0  0  0  0  0
  145.5654   73.2363  220.4536 H   0  0  0  0  0  0  0  0  0  0  0  0
  144.6071   75.0635  220.6659 H   0  0  0  0  0  0  0  0  0  0  0  0
  143.9302   74.9026  218.9782 H   0  0  0  0  0  0  0  0  0  0  0  0
  142.7125   75.9910  221.4328 H   0  0  0  0  0  0  0  0  0  0  0  0
  142.4335   76.3876  219.7095 H   0  0  0  0  0  0  0  0  0  0  0  0
  141.4310   73.7300  220.0280 H   0  0  0  0  0  0  0  0  0  0  0  0
  138.0298   74.7528  220.9165 H   0  0  0  0  0  0  0  0  0  0  0  0
  139.0058   73.5736  219.9841 H   0  0  0  0  0  0  0  0  0  0  0  0
  138.3150   73.4730  222.8140 H   0  0  0  0  0  0  0  0  0  0  0  0
  139.1270   69.7587  222.3775 H   0  0  0  0  0  0  0  0  0  0  0  0
  139.1341   68.2892  224.3599 H   0  0  0  0  0  0  0  0  0  0  0  0
  139.7016   68.0365  226.7678 H   0  0  0  0  0  0  0  0  0  0  0  0
  141.4755   71.3220  228.8695 H   0  0  0  0  0  0  0  0  0  0  0  0
  141.3904   72.6465  226.7924 H   0  0  0  0  0  0  0  0  0  0  0  0
  1  2  1  0
  2  3  1  0
  3  4  1  0
  4  5  1  0
  5  6  1  0
  6  7  2  0
  6  8  1  0
  8  9  1  0
  9 10  1  0
 10 11  2  0
 10 12  1  0
 12 13  2  0
 13 14  1  0
 14 15  2  0
 15 16  1  0
 16 17  2  0
 17 18  1  0
 17 19  1  0
 19 20  2  0
 20 21  1  0
 21 22  2  0
 22 12  1  0
 21 15  1  0
  1 23  1  0
  1 24  1  0
  1 25  1  0
  3 26  1  0
  3 27  1  0
  4 28  1  0
  4 29  1  0
  5 30  1  0
  8 31  1  0
  8 32  1  0
  9 33  1  0
 13 34  1  0
 14 35  1  0
 16 36  1  0
 19 37  1  0
 20 38  1  0
M  END
>  <smiles>  (3) 
COCCNC(=O)CNC(=O)c1ccc2cc(F)ccc2n1

>  <score_type>  (3) 
oracle

>  <origin>  (3) 
autodockgpu

>  <m_score__min__energy>  (3) 
-6.71

>  <m_primary>  (3) 
energy

>  <rmsd>  (3) 
2.1811695862910137

>  <m_score__min__rmsd>  (3) 
2.1811695862910137

>  <meeko>  (3) 
{"free_energy": -5.36, "intermolecular_energy": -7.15, "internal_energy": -2.33, "cluster_size": 39, "cluster_id": 1, "rank_in_cluster": 36}

>  <energy>  (3) 
-6.62

>  <cluster_rmsd>  (3) 
0.52

>  <cluster>  (3) 
1

$$$$

     RDKit          3D

 38 39  0  0  0  0  0  0  0  0999 V2000
  142.9620   77.0040  217.9590 C   0  0  0  0  0  0  0  0  0  0  0  0
  142.5880   76.6370  219.2250 O   0  0  0  0  0  0  0  0  0  0  0  0
  142.1590   77.6990  220.0110 C   0  0  0  0  0  0  0  0  0  0  0  0
  141.0410   77.3400  220.9320 C   0  0  0  0  0  0  0  0  0  0  0  0
  140.6130   75.9880  220.6350 N   0  0  0  0  0  0  0  0  0  0  0  0
  139.9230   75.1590  221.5590 C   0  0  0  0  0  0  0  0  0  0  0  0
  139.6240   75.5300  222.7200 O   0  0  0  0  0  0  0  0  0  0  0  0
  139.5130   73.7760  221.1770 C   0  0  0  0  0  0  0  0  0  0  0  0
  139.5490   72.9360  222.3480 N   0  0  0  0  0  0  0  0  0  0  0  0
  139.6390   71.5380  222.2270 C   0  0  0  0  0  0  0  0  0  0  0  0
  139.6940   70.9210  221.1230 O   0  0  0  0  0  0  0  0  0  0  0  0
  139.6730   70.7190  223.4540 C   0  0  0  0  0  0  0  0  0  0  0  0
  139.1840   69.4320  223.4840 C   0  0  0  0  0  0  0  0  0  0  0  0
  139.1970   68.6360  224.6100 C   0  0  0  0  0  0  0  0  0  0  0  0
  139.7330   69.1660  225.7650 C   0  0  0  0  0  0  0  0  0  0  0  0
  139.8010   68.4630  226.9560 C   0  0  0  0  0  0  0  0  0  0  0  0
  140.3410   69.0120  228.1040 C   0  0  0  0  0  0  0  0  0  0  0  0
  140.4120   68.3310  229.2720 F   0  0  0  0  0  0  0  0  0  0  0  0
  140.8250   70.3010  228.0500 C   0  0  0  0  0  0  0  0  0  0  0  0
  140.7540   70.9980  226.8590 C   0  0  0  0  0  0  0  0  0  0  0  0
  140.2160   70.4570  225.7100 C   0  0  0  0  0  0  0  0  0  0  0  0
  140.1880   71.2080  224.5940 N   0  0  0  0  0  0  0  0  0  0  0  0
  143.7461   77.7734  218.0168 H   0  0  0  0  0  0  0  0  0  0  0  0
  143.3492   76.1256  217.4219 H   0  0  0  0  0  0  0  0  0  0  0  0
  142.0911   77.4077  217.4219 H   0  0  0  0  0  0  0  0  0  0  0  0
  143.0084   78.0518  220.6144 H   0  0  0  0  0  0  0  0  0  0  0  0
  141.7822   78.4761  219.3298 H   0  0  0  0  0  0  0  0  0  0  0  0
  141.3865   77.3986  221.9747 H   0  0  0  0  0  0  0  0  0  0  0  0
  140.2022   78.0383  220.7947 H   0  0  0  0  0  0  0  0  0  0  0  0
  140.8030   75.5490  219.6850 H   0  0  0  0  0  0  0  0  0  0  0  0
  138.4924   73.7938  220.7670 H   0  0  0  0  0  0  0  0  0  0  0  0
  140.2011   73.3813  220.4149 H   0  0  0  0  0  0  0  0  0  0  0  0
  139.5050   73.4060  223.2830 H   0  0  0  0  0  0  0  0  0  0  0  0
  138.7595   69.0158  222.5585 H   0  0  0  0  0  0  0  0  0  0  0  0
  138.7935   67.6129  224.5878 H   0  0  0  0  0  0  0  0  0  0  0  0
  139.4127   67.4344  226.9897 H   0  0  0  0  0  0  0  0  0  0  0  0
  141.2625   70.7694  228.9440 H   0  0  0  0  0  0  0  0  0  0  0  0
  141.1425   72.0266  226.8259 H   0  0  0  0  0  0  0  0  0  0  0  0
  1  2  1  0
  2  3  1  0
  3  4  1  0
  4  5  1  0
  5  6  1  0
  6  7  2  0
  6  8  1  0
  8  9  1  0
  9 10  1  0
 10 11  2  0
 10 12  1  0
 12 13  2  0
 13 14  1  0
 14 15  2  0
 15 16  1  0
 16 17  2  0
 17 18  1  0
 17 19  1  0
 19 20  2  0
 20 21  1  0
 21 22  2  0
 22 12  1  0
 21 15  1  0
  1 23  1  0
  1 24  1  0
  1 25  1  0
  3 26  1  0
  3 27  1  0
  4 28  1  0
  4 29  1  0
  5 30  1  0
  8 31  1  0
  8 32  1  0
  9 33  1  0
 13 34  1  0
 14 35  1  0
 16 36  1  0
 19 37  1  0
 20 38  1  0
M  END
>  <smiles>  (4) 
COCCNC(=O)CNC(=O)c1ccc2cc(F)ccc2n1

>  <score_type>  (4) 
oracle

>  <origin>  (4) 
autodockgpu

>  <m_score__min__energy>  (4) 
-6.71

>  <m_primary>  (4) 
energy

>  <rmsd>  (4) 
1.973419202925113

>  <m_score__min__rmsd>  (4) 
1.973419202925113

>  <meeko>  (4) 
{"free_energy": -5.42, "intermolecular_energy": -7.21, "internal_energy": -2.24, "cluster_size": 39, "cluster_id": 1, "rank_in_cluster": 33}

>  <energy>  (4) 
-6.6

>  <cluster_rmsd>  (4) 
0.5

>  <cluster>  (4) 
1

$$$$

     RDKit          3D

 38 39  0  0  0  0  0  0  0  0999 V2000
  143.2970   76.4190  219.3450 C   0  0  0  0  0  0  0  0  0  0  0  0
  142.1790   77.1430  219.0220 O   0  0  0  0  0  0  0  0  0  0  0  0
  141.8440   78.1050  219.9660 C   0  0  0  0  0  0  0  0  0  0  0  0
  140.7290   77.6870  220.8660 C   0  0  0  0  0  0  0  0  0  0  0  0
  140.3620   76.3230  220.5460 N   0  0  0  0  0  0  0  0  0  0  0  0
  139.8580   75.3980  221.4990 C   0  0  0  0  0  0  0  0  0  0  0  0
  139.6870   75.6870  222.7080 O   0  0  0  0  0  0  0  0  0  0  0  0
  139.5000   74.0080  221.0900 C   0  0  0  0  0  0  0  0  0  0  0  0
  139.4990   73.1620  222.2570 N   0  0  0  0  0  0  0  0  0  0  0  0
  139.7790   71.7880  222.1490 C   0  0  0  0  0  0  0  0  0  0  0  0
  140.0460   71.2000  221.0600 O   0  0  0  0  0  0  0  0  0  0  0  0
  139.7660   70.9620  223.3710 C   0  0  0  0  0  0  0  0  0  0  0  0
  139.2250   69.6960  223.3880 C   0  0  0  0  0  0  0  0  0  0  0  0
  139.1940   68.8940  224.5100 C   0  0  0  0  0  0  0  0  0  0  0  0
  139.7370   69.3950  225.6740 C   0  0  0  0  0  0  0  0  0  0  0  0
  139.7630   68.6840  226.8610 C   0  0  0  0  0  0  0  0  0  0  0  0
  140.3110   69.2040  228.0190 C   0  0  0  0  0  0  0  0  0  0  0  0
  140.3420   68.5150  229.1840 F   0  0  0  0  0  0  0  0  0  0  0  0
  140.8470   70.4740  227.9770 C   0  0  0  0  0  0  0  0  0  0  0  0
  140.8180   71.1790  226.7900 C   0  0  0  0  0  0  0  0  0  0  0  0
  140.2720   70.6660  225.6320 C   0  0  0  0  0  0  0  0  0  0  0  0
  140.2870   71.4230  224.5200 N   0  0  0  0  0  0  0  0  0  0  0  0
  143.3909   76.3582  220.4393 H   0  0  0  0  0  0  0  0  0  0  0  0
  143.2105   75.4050  218.9275 H   0  0  0  0  0  0  0  0  0  0  0  0
  144.1869   76.9128  218.9275 H   0  0  0  0  0  0  0  0  0  0  0  0
  142.7310   78.3127  220.5825 H   0  0  0  0  0  0  0  0  0  0  0  0
  141.5028   78.9949  219.4168 H   0  0  0  0  0  0  0  0  0  0  0  0
  141.0572   77.7460  221.9142 H   0  0  0  0  0  0  0  0  0  0  0  0
  139.8637   78.3514  220.7250 H   0  0  0  0  0  0  0  0  0  0  0  0
  140.4580   75.9470  219.5550 H   0  0  0  0  0  0  0  0  0  0  0  0
  138.5004   74.0044  220.6308 H   0  0  0  0  0  0  0  0  0  0  0  0
  140.2334   73.6344  220.3602 H   0  0  0  0  0  0  0  0  0  0  0  0
  139.2810   73.6090  223.1800 H   0  0  0  0  0  0  0  0  0  0  0  0
  138.7938   69.3024  222.4557 H   0  0  0  0  0  0  0  0  0  0  0  0
  138.7506   67.8879  224.4770 H   0  0  0  0  0  0  0  0  0  0  0  0
  139.3335   67.6716  226.8840 H   0  0  0  0  0  0  0  0  0  0  0  0
  141.2924   70.9201  228.8785 H   0  0  0  0  0  0  0  0  0  0  0  0
  141.2480   72.1912  226.7671 H   0  0  0  0  0  0  0  0  0  0  0  0
  1  2  1  0
  2  3  1  0
  3  4  1  0
  4  5  1  0
  5  6  1  0
  6  7  2  0
  6  8  1  0
  8  9  1  0
  9 10  1  0
 10 11  2  0
 10 12  1  0
 12 13  2  0
 13 14  1  0
 14 15  2  0
 15 16  1  0
 16 17  2  0
 17 18  1  0
 17 19  1  0
 19 20  2  0
 20 21  1  0
 21 22  2  0
 22 12  1  0
 21 15  1  0
  1 23  1  0
  1 24  1  0
  1 25  1  0
  3 26  1  0
  3 27  1  0
  4 28  1  0
  4 29  1  0
  5 30  1  0
  8 31  1  0
  8 32  1  0
  9 33  1  0
 13 34  1  0
 14 35  1  0
 16 36  1  0
 19 37  1  0
 20 38  1  0
M  END
>  <smiles>  (5) 
COCCNC(=O)CNC(=O)c1ccc2cc(F)ccc2n1

>  <score_type>  (5) 
oracle

>  <origin>  (5) 
autodockgpu

>  <m_score__min__energy>  (5) 
-6.71

>  <m_primary>  (5) 
energy

>  <rmsd>  (5) 
2.0012020255800405

>  <m_score__min__rmsd>  (5) 
2.0012020255800405

>  <meeko>  (5) 
{"free_energy": -5.46, "intermolecular_energy": -7.25, "internal_energy": -2.23, "cluster_size": 39, "cluster_id": 1, "rank_in_cluster": 29}

>  <energy>  (5) 
-6.2

>  <cluster_rmsd>  (5) 
0.88

>  <cluster>  (5) 
1

$$$$

     RDKit          3D

 38 39  0  0  0  0  0  0  0  0999 V2000
  146.3260   73.4480  220.8260 C   0  0  0  0  0  0  0  0  0  0  0  0
  145.8530   73.0650  219.5980 O   0  0  0  0  0  0  0  0  0  0  0  0
  144.4920   73.2870  219.4290 C   0  0  0  0  0  0  0  0  0  0  0  0
  143.9120   74.2080  220.4500 C   0  0  0  0  0  0  0  0  0  0  0  0
  142.5030   73.9040  220.6000 N   0  0  0  0  0  0  0  0  0  0  0  0
  141.5140   74.8800  220.8930 C   0  0  0  0  0  0  0  0  0  0  0  0
  141.7780   76.0970  221.0490 O   0  0  0  0  0  0  0  0  0  0  0  0
  140.0800   74.4880  221.0300 C   0  0  0  0  0  0  0  0  0  0  0  0
  139.9370   73.6280  222.1780 N   0  0  0  0  0  0  0  0  0  0  0  0
  140.3120   72.2740  222.1120 C   0  0  0  0  0  0  0  0  0  0  0  0
  140.7890   71.7170  221.0800 O   0  0  0  0  0  0  0  0  0  0  0  0
  140.1490   71.4320  223.3120 C   0  0  0  0  0  0  0  0  0  0  0  0
  139.5520   70.1920  223.2560 C   0  0  0  0  0  0  0  0  0  0  0  0
  139.3810   69.3760  224.3550 C   0  0  0  0  0  0  0  0  0  0  0  0
  139.8360   69.8350  225.5730 C   0  0  0  0  0  0  0  0  0  0  0  0
  139.7190   69.1070  226.7440 C   0  0  0  0  0  0  0  0  0  0  0  0
  140.1810   69.5840  227.9570 C   0  0  0  0  0  0  0  0  0  0  0  0
  140.0720   68.8770  229.1070 F   0  0  0  0  0  0  0  0  0  0  0  0
  140.7750   70.8270  227.9880 C   0  0  0  0  0  0  0  0  0  0  0  0
  140.8880   71.5500  226.8170 C   0  0  0  0  0  0  0  0  0  0  0  0
  140.4300   71.0800  225.6040 C   0  0  0  0  0  0  0  0  0  0  0  0
  140.5820   71.8520  224.5130 N   0  0  0  0  0  0  0  0  0  0  0  0
  145.7304   72.9657  221.6151 H   0  0  0  0  0  0  0  0  0  0  0  0
  147.3788   73.1448  220.9243 H   0  0  0  0  0  0  0  0  0  0  0  0
  146.2484   74.5409  220.9243 H   0  0  0  0  0  0  0  0  0  0  0  0
  144.3309   73.7245  218.4327 H   0  0  0  0  0  0  0  0  0  0  0  0
  143.9874   72.3162  219.5424 H   0  0  0  0  0  0  0  0  0  0  0  0
  144.4262   74.0658  221.4120 H   0  0  0  0  0  0  0  0  0  0  0  0
  144.0389   75.2524  220.1290 H   0  0  0  0  0  0  0  0  0  0  0  0
  142.1420   72.9090  220.4930 H   0  0  0  0  0  0  0  0  0  0  0  0
  139.4626   75.3884  221.1643 H   0  0  0  0  0  0  0  0  0  0  0  0
  139.7513   73.9572  220.1243 H   0  0  0  0  0  0  0  0  0  0  0  0
  139.5460   74.0480  223.0540 H   0  0  0  0  0  0  0  0  0  0  0  0
  139.1916   69.8325  222.2809 H   0  0  0  0  0  0  0  0  0  0  0  0
  138.8978   68.3921  224.2628 H   0  0  0  0  0  0  0  0  0  0  0  0
  139.2427   68.1161  226.7088 H   0  0  0  0  0  0  0  0  0  0  0  0
  141.1548   71.2386  228.9348 H   0  0  0  0  0  0  0  0  0  0  0  0
  141.3628   72.5416  226.8531 H   0  0  0  0  0  0  0  0  0  0  0  0
  1  2  1  0
  2  3  1  0
  3  4  1  0
  4  5  1  0
  5  6  1  0
  6  7  2  0
  6  8  1  0
  8  9  1  0
  9 10  1  0
 10 11  2  0
 10 12  1  0
 12 13  2  0
 13 14  1  0
 14 15  2  0
 15 16  1  0
 16 17  2  0
 17 18  1  0
 17 19  1  0
 19 20  2  0
 20 21  1  0
 21 22  2  0
 22 12  1  0
 21 15  1  0
  1 23  1  0
  1 24  1  0
  1 25  1  0
  3 26  1  0
  3 27  1  0
  4 28  1  0
  4 29  1  0
  5 30  1  0
  8 31  1  0
  8 32  1  0
  9 33  1  0
 13 34  1  0
 14 35  1  0
 16 36  1  0
 19 37  1  0
 20 38  1  0
M  END
>  <smiles>  (6) 
COCCNC(=O)CNC(=O)c1ccc2cc(F)ccc2n1

>  <score_type>  (6) 
oracle

>  <origin>  (6) 
autodockgpu

>  <m_score__min__energy>  (6) 
-6.71

>  <m_primary>  (6) 
energy

>  <rmsd>  (6) 
2.581455606991041

>  <m_score__min__rmsd>  (6) 
2.581455606991041

>  <meeko>  (6) 
{"free_energy": -6.14, "intermolecular_energy": -7.93, "internal_energy": -1.6, "cluster_size": 4, "cluster_id": 2, "rank_in_cluster": 3}

>  <energy>  (6) 
-6.09

>  <cluster_rmsd>  (6) 
0.85

>  <cluster>  (6) 
1

$$$$

     RDKit          3D

 38 39  0  0  0  0  0  0  0  0999 V2000
  143.7080   71.5910  220.7840 C   0  0  0  0  0  0  0  0  0  0  0  0
  143.7930   72.5680  219.8260 O   0  0  0  0  0  0  0  0  0  0  0  0
  144.4100   73.7310  220.2680 C   0  0  0  0  0  0  0  0  0  0  0  0
  143.4750   74.8880  220.3880 C   0  0  0  0  0  0  0  0  0  0  0  0
  142.1220   74.3800  220.4820 N   0  0  0  0  0  0  0  0  0  0  0  0
  141.0400   75.1190  221.0320 C   0  0  0  0  0  0  0  0  0  0  0  0
  141.1660   76.2830  221.4840 O   0  0  0  0  0  0  0  0  0  0  0  0
  139.6710   74.5270  221.0920 C   0  0  0  0  0  0  0  0  0  0  0  0
  139.5950   73.6390  222.2260 N   0  0  0  0  0  0  0  0  0  0  0  0
  140.1850   72.3630  222.1790 C   0  0  0  0  0  0  0  0  0  0  0  0
  140.8080   71.9040  221.1780 O   0  0  0  0  0  0  0  0  0  0  0  0
  140.0810   71.4890  223.3630 C   0  0  0  0  0  0  0  0  0  0  0  0
  139.4850   70.2500  223.3040 C   0  0  0  0  0  0  0  0  0  0  0  0
  139.3690   69.4050  224.3880 C   0  0  0  0  0  0  0  0  0  0  0  0
  139.8820   69.8320  225.5940 C   0  0  0  0  0  0  0  0  0  0  0  0
  139.8250   69.0730  226.7500 C   0  0  0  0  0  0  0  0  0  0  0  0
  140.3450   69.5190  227.9500 C   0  0  0  0  0  0  0  0  0  0  0  0
  140.2940   68.7830  229.0850 F   0  0  0  0  0  0  0  0  0  0  0  0
  140.9380   70.7630  227.9850 C   0  0  0  0  0  0  0  0  0  0  0  0
  140.9920   71.5170  226.8290 C   0  0  0  0  0  0  0  0  0  0  0  0
  140.4750   71.0780  225.6280 C   0  0  0  0  0  0  0  0  0  0  0  0
  140.5720   71.8790  224.5520 N   0  0  0  0  0  0  0  0  0  0  0  0
  143.7481   72.0517  221.7821 H   0  0  0  0  0  0  0  0  0  0  0  0
  142.7591   71.0466  220.6693 H   0  0  0  0  0  0  0  0  0  0  0  0
  144.5486   70.8909  220.6693 H   0  0  0  0  0  0  0  0  0  0  0  0
  144.8535   73.5369  221.2558 H   0  0  0  0  0  0  0  0  0  0  0  0
  145.1681   74.0020  219.5185 H   0  0  0  0  0  0  0  0  0  0  0  0
  143.7168   75.4679  221.2909 H   0  0  0  0  0  0  0  0  0  0  0  0
  143.5710   75.5419  219.5087 H   0  0  0  0  0  0  0  0  0  0  0  0
  141.8750   73.4050  220.1350 H   0  0  0  0  0  0  0  0  0  0  0  0
  138.9263   75.3292  221.2007 H   0  0  0  0  0  0  0  0  0  0  0  0
  139.4658   73.9683  220.1669 H   0  0  0  0  0  0  0  0  0  0  0  0
  139.0870   73.9800  223.0760 H   0  0  0  0  0  0  0  0  0  0  0  0
  139.0784   69.9148  222.3384 H   0  0  0  0  0  0  0  0  0  0  0  0
  138.8831   68.4227  224.2932 H   0  0  0  0  0  0  0  0  0  0  0  0
  139.3499   68.0816  226.7122 H   0  0  0  0  0  0  0  0  0  0  0  0
  141.3632   71.1506  228.9225 H   0  0  0  0  0  0  0  0  0  0  0  0
  141.4669   72.5084  226.8678 H   0  0  0  0  0  0  0  0  0  0  0  0
  1  2  1  0
  2  3  1  0
  3  4  1  0
  4  5  1  0
  5  6  1  0
  6  7  2  0
  6  8  1  0
  8  9  1  0
  9 10  1  0
 10 11  2  0
 10 12  1  0
 12 13  2  0
 13 14  1  0
 14 15  2  0
 15 16  1  0
 16 17  2  0
 17 18  1  0
 17 19  1  0
 19 20  2  0
 20 21  1  0
 21 22  2  0
 22 12  1  0
 21 15  1  0
  1 23  1  0
  1 24  1  0
  1 25  1  0
  3 26  1  0
  3 27  1  0
  4 28  1  0
  4 29  1  0
  5 30  1  0
  8 31  1  0
  8 32  1  0
  9 33  1  0
 13 34  1  0
 14 35  1  0
 16 36  1  0
 19 37  1  0
 20 38  1  0
M  END
>  <smiles>  (7) 
COCCNC(=O)CNC(=O)c1ccc2cc(F)ccc2n1

>  <score_type>  (7) 
oracle

>  <origin>  (7) 
autodockgpu

>  <m_score__min__energy>  (7) 
-6.71

>  <m_primary>  (7) 
energy

>  <rmsd>  (7) 
2.564703737093472

>  <m_score__min__rmsd>  (7) 
2.564703737093472

>  <meeko>  (7) 
{"free_energy": -5.5, "intermolecular_energy": -7.28, "internal_energy": -2.44, "cluster_size": 39, "cluster_id": 1, "rank_in_cluster": 25}

>  <energy>  (7) 
-6.05

>  <cluster_rmsd>  (7) 
0.9

>  <cluster>  (7) 
1

$$$$

     RDKit          3D

 38 39  0  0  0  0  0  0  0  0999 V2000
  141.0590   73.0240  221.5960 C   0  0  0  0  0  0  0  0  0  0  0  0
  140.6830   74.1540  222.2730 O   0  0  0  0  0  0  0  0  0  0  0  0
  140.4880   75.2580  221.4530 C   0  0  0  0  0  0  0  0  0  0  0  0
  139.0650   75.4450  221.0420 C   0  0  0  0  0  0  0  0  0  0  0  0
  138.2480   74.4860  221.7570 N   0  0  0  0  0  0  0  0  0  0  0  0
  137.2690   73.6670  221.1330 C   0  0  0  0  0  0  0  0  0  0  0  0
  137.0280   73.7050  219.9030 O   0  0  0  0  0  0  0  0  0  0  0  0
  136.4660   72.6990  221.9390 C   0  0  0  0  0  0  0  0  0  0  0  0
  137.2500   72.2660  223.0680 N   0  0  0  0  0  0  0  0  0  0  0  0
  138.3310   71.3820  222.8950 C   0  0  0  0  0  0  0  0  0  0  0  0
  138.6920   70.9110  221.7770 O   0  0  0  0  0  0  0  0  0  0  0  0
  139.1050   70.9660  224.0800 C   0  0  0  0  0  0  0  0  0  0  0  0
  140.1240   71.7370  224.5910 C   0  0  0  0  0  0  0  0  0  0  0  0
  140.8710   71.3820  225.6950 C   0  0  0  0  0  0  0  0  0  0  0  0
  140.5730   70.1880  226.3160 C   0  0  0  0  0  0  0  0  0  0  0  0
  141.2520   69.7270  227.4300 C   0  0  0  0  0  0  0  0  0  0  0  0
  140.9380   68.5260  228.0390 C   0  0  0  0  0  0  0  0  0  0  0  0
  141.5970   68.0680  229.1290 F   0  0  0  0  0  0  0  0  0  0  0  0
  139.9140   67.7710  227.5090 C   0  0  0  0  0  0  0  0  0  0  0  0
  139.2390   68.2360  226.3970 C   0  0  0  0  0  0  0  0  0  0  0  0
  139.5470   69.4330  225.7850 C   0  0  0  0  0  0  0  0  0  0  0  0
  138.8370   69.8080  224.7060 N   0  0  0  0  0  0  0  0  0  0  0  0
  141.3215   72.2352  222.3164 H   0  0  0  0  0  0  0  0  0  0  0  0
  140.2265   72.6811  220.9640 H   0  0  0  0  0  0  0  0  0  0  0  0
  141.9309   73.2483  220.9640 H   0  0  0  0  0  0  0  0  0  0  0  0
  140.8159   76.1574  221.9948 H   0  0  0  0  0  0  0  0  0  0  0  0
  141.0723   75.0899  220.5363 H   0  0  0  0  0  0  0  0  0  0  0  0
  138.7391   76.4663  221.2885 H   0  0  0  0  0  0  0  0  0  0  0  0
  138.9635   75.2908  219.9576 H   0  0  0  0  0  0  0  0  0  0  0  0
  138.3500   74.3530  222.8070 H   0  0  0  0  0  0  0  0  0  0  0  0
  135.5467   73.1877  222.2939 H   0  0  0  0  0  0  0  0  0  0  0  0
  136.1967   71.8316  221.3184 H   0  0  0  0  0  0  0  0  0  0  0  0
  136.9850   72.6320  224.0130 H   0  0  0  0  0  0  0  0  0  0  0  0
  140.3557   72.6892  224.0914 H   0  0  0  0  0  0  0  0  0  0  0  0
  141.6778   72.0303  226.0675 H   0  0  0  0  0  0  0  0  0  0  0  0
  142.0686   70.3361  227.8448 H   0  0  0  0  0  0  0  0  0  0  0  0
  139.6374   66.8094  227.9661 H   0  0  0  0  0  0  0  0  0  0  0  0
  138.4224   67.6266  225.9827 H   0  0  0  0  0  0  0  0  0  0  0  0
  1  2  1  0
  2  3  1  0
  3  4  1  0
  4  5  1  0
  5  6  1  0
  6  7  2  0
  6  8  1  0
  8  9  1  0
  9 10  1  0
 10 11  2  0
 10 12  1  0
 12 13  2  0
 13 14  1  0
 14 15  2  0
 15 16  1  0
 16 17  2  0
 17 18  1  0
 17 19  1  0
 19 20  2  0
 20 21  1  0
 21 22  2  0
 22 12  1  0
 21 15  1  0
  1 23  1  0
  1 24  1  0
  1 25  1  0
  3 26  1  0
  3 27  1  0
  4 28  1  0
  4 29  1  0
  5 30  1  0
  8 31  1  0
  8 32  1  0
  9 33  1  0
 13 34  1  0
 14 35  1  0
 16 36  1  0
 19 37  1  0
 20 38  1  0
M  END
>  <smiles>  (8) 
COCCNC(=O)CNC(=O)c1ccc2cc(F)ccc2n1

>  <score_type>  (8) 
oracle

>  <origin>  (8) 
autodockgpu

>  <m_score__min__energy>  (8) 
-6.71

>  <m_primary>  (8) 
energy

>  <rmsd>  (8) 
3.132916564258207

>  <m_score__min__rmsd>  (8) 
3.132916564258207

>  <meeko>  (8) 
{"free_energy": -5.75, "intermolecular_energy": -7.54, "internal_energy": -1.77, "cluster_size": 7, "cluster_id": 3, "rank_in_cluster": 1}

>  <energy>  (8) 
-5.74

>  <cluster_rmsd>  (8) 
0.83

>  <cluster>  (8) 
1

$$$$

     RDKit          3D

 38 39  0  0  0  0  0  0  0  0999 V2000
  140.8850   76.2030  221.6800 C   0  0  0  0  0  0  0  0  0  0  0  0
  139.8440   75.6290  222.3600 O   0  0  0  0  0  0  0  0  0  0  0  0
  138.5980   76.1270  221.9990 C   0  0  0  0  0  0  0  0  0  0  0  0
  137.7690   75.1470  221.2360 C   0  0  0  0  0  0  0  0  0  0  0  0
  138.5260   73.9220  221.0810 N   0  0  0  0  0  0  0  0  0  0  0  0
  137.9300   72.6390  220.9550 C   0  0  0  0  0  0  0  0  0  0  0  0
  136.6890   72.4570  220.9670 O   0  0  0  0  0  0  0  0  0  0  0  0
  138.7800   71.4210  220.7970 C   0  0  0  0  0  0  0  0  0  0  0  0
  139.1290   70.9210  222.1020 N   0  0  0  0  0  0  0  0  0  0  0  0
  139.8980   71.6980  222.9870 C   0  0  0  0  0  0  0  0  0  0  0  0
  140.3320   72.8580  222.7230 O   0  0  0  0  0  0  0  0  0  0  0  0
  140.2310   71.1450  224.3140 C   0  0  0  0  0  0  0  0  0  0  0  0
  140.7070   71.9370  225.3340 C   0  0  0  0  0  0  0  0  0  0  0  0
  141.0300   71.4570  226.5860 C   0  0  0  0  0  0  0  0  0  0  0  0
  140.8630   70.1090  226.8210 C   0  0  0  0  0  0  0  0  0  0  0  0
  141.1540   69.5130  228.0360 C   0  0  0  0  0  0  0  0  0  0  0  0
  140.9800   68.1590  228.2510 C   0  0  0  0  0  0  0  0  0  0  0  0
  141.2610   67.5680  229.4370 F   0  0  0  0  0  0  0  0  0  0  0  0
  140.5030   67.3860  227.2150 C   0  0  0  0  0  0  0  0  0  0  0  0
  140.2150   67.9860  226.0040 C   0  0  0  0  0  0  0  0  0  0  0  0
  140.3850   69.3360  225.7820 C   0  0  0  0  0  0  0  0  0  0  0  0
  140.0800   69.8350  224.5710 N   0  0  0  0  0  0  0  0  0  0  0  0
  141.6146   76.6053  222.3981 H   0  0  0  0  0  0  0  0  0  0  0  0
  141.3719   75.4459  221.0478 H   0  0  0  0  0  0  0  0  0  0  0  0
  140.5046   77.0189  221.0478 H   0  0  0  0  0  0  0  0  0  0  0  0
  138.0550   76.4060  222.9140 H   0  0  0  0  0  0  0  0  0  0  0  0
  138.7707   76.9907  221.3400 H   0  0  0  0  0  0  0  0  0  0  0  0
  136.8391   74.9407  221.7863 H   0  0  0  0  0  0  0  0  0  0  0  0
  137.5150   75.5589  220.2482 H   0  0  0  0  0  0  0  0  0  0  0  0
  139.5900   73.9340  221.0550 H   0  0  0  0  0  0  0  0  0  0  0  0
  138.2221   70.6510  220.2440 H   0  0  0  0  0  0  0  0  0  0  0  0
  139.6936   71.6748  220.2394 H   0  0  0  0  0  0  0  0  0  0  0  0
  138.7910   69.9640  222.3620 H   0  0  0  0  0  0  0  0  0  0  0  0
  140.8370   73.0119  225.1400 H   0  0  0  0  0  0  0  0  0  0  0  0
  141.4085   72.1279  227.3713 H   0  0  0  0  0  0  0  0  0  0  0  0
  141.5362   70.1374  228.8570 H   0  0  0  0  0  0  0  0  0  0  0  0
  140.3533   66.3047  227.3502 H   0  0  0  0  0  0  0  0  0  0  0  0
  139.8343   67.3606  225.1831 H   0  0  0  0  0  0  0  0  0  0  0  0
  1  2  1  0
  2  3  1  0
  3  4  1  0
  4  5  1  0
  5  6  1  0
  6  7  2  0
  6  8  1  0
  8  9  1  0
  9 10  1  0
 10 11  2  0
 10 12  1  0
 12 13  2  0
 13 14  1  0
 14 15  2  0
 15 16  1  0
 16 17  2  0
 17 18  1  0
 17 19  1  0
 19 20  2  0
 20 21  1  0
 21 22  2  0
 22 12  1  0
 21 15  1  0
  1 23  1  0
  1 24  1  0
  1 25  1  0
  3 26  1  0
  3 27  1  0
  4 28  1  0
  4 29  1  0
  5 30  1  0
  8 31  1  0
  8 32  1  0
  9 33  1  0
 13 34  1  0
 14 35  1  0
 16 36  1  0
 19 37  1  0
 20 38  1  0
M  END
>  <smiles>  (9) 
COCCNC(=O)CNC(=O)c1ccc2cc(F)ccc2n1

>  <score_type>  (9) 
oracle

>  <origin>  (9) 
autodockgpu

>  <m_score__min__energy>  (9) 
-6.71

>  <m_primary>  (9) 
energy

>  <rmsd>  (9) 
3.502329749767231

>  <m_score__min__rmsd>  (9) 
3.502329749767231

>  <meeko>  (9) 
{"free_energy": -5.09, "intermolecular_energy": -6.88, "internal_energy": -2.53, "cluster_size": 7, "cluster_id": 3, "rank_in_cluster": 6}

>  <energy>  (9) 
-5.72

>  <cluster_rmsd>  (9) 
0.82

>  <cluster>  (9) 
1

$$$$

     RDKit          3D

 38 39  0  0  0  0  0  0  0  0999 V2000
  142.9000   80.1810  222.8870 C   0  0  0  0  0  0  0  0  0  0  0  0
  142.1210   79.6520  223.8820 O   0  0  0  0  0  0  0  0  0  0  0  0
  141.5230   78.4450  223.5430 C   0  0  0  0  0  0  0  0  0  0  0  0
  141.0550   78.3950  222.1270 C   0  0  0  0  0  0  0  0  0  0  0  0
  141.1330   77.0250  221.6620 N   0  0  0  0  0  0  0  0  0  0  0  0
  140.0610   76.0980  221.7610 C   0  0  0  0  0  0  0  0  0  0  0  0
  138.9480   76.3900  222.2620 O   0  0  0  0  0  0  0  0  0  0  0  0
  140.2180   74.7010  221.2570 C   0  0  0  0  0  0  0  0  0  0  0  0
  139.9760   73.7830  222.3400 N   0  0  0  0  0  0  0  0  0  0  0  0
  140.5650   72.5050  222.3440 C   0  0  0  0  0  0  0  0  0  0  0  0
  141.3270   72.0710  221.4320 O   0  0  0  0  0  0  0  0  0  0  0  0
  140.2890   71.5980  223.4750 C   0  0  0  0  0  0  0  0  0  0  0  0
  139.5830   70.4280  223.3130 C   0  0  0  0  0  0  0  0  0  0  0  0
  139.3050   69.5550  224.3450 C   0  0  0  0  0  0  0  0  0  0  0  0
  139.7620   69.8810  225.6040 C   0  0  0  0  0  0  0  0  0  0  0  0
  139.5450   69.0850  226.7150 C   0  0  0  0  0  0  0  0  0  0  0  0
  140.0110   69.4290  227.9690 C   0  0  0  0  0  0  0  0  0  0  0  0
  139.8030   68.6560  229.0610 F   0  0  0  0  0  0  0  0  0  0  0  0
  140.7150   70.6060  228.1070 C   0  0  0  0  0  0  0  0  0  0  0  0
  140.9290   71.3970  226.9950 C   0  0  0  0  0  0  0  0  0  0  0  0
  140.4670   71.0600  225.7400 C   0  0  0  0  0  0  0  0  0  0  0  0
  140.7220   71.8900  224.7130 N   0  0  0  0  0  0  0  0  0  0  0  0
  143.7316   80.7458  223.3335 H   0  0  0  0  0  0  0  0  0  0  0  0
  143.3015   79.3680  222.2642 H   0  0  0  0  0  0  0  0  0  0  0  0
  142.2923   80.8540  222.2642 H   0  0  0  0  0  0  0  0  0  0  0  0
  142.2539   77.6377  223.6978 H   0  0  0  0  0  0  0  0  0  0  0  0
  140.6361   78.3298  224.1834 H   0  0  0  0  0  0  0  0  0  0  0  0
  140.0147   78.7476  222.0679 H   0  0  0  0  0  0  0  0  0  0  0  0
  141.6866   79.0411  221.4996 H   0  0  0  0  0  0  0  0  0  0  0  0
  142.0210   76.6460  221.2160 H   0  0  0  0  0  0  0  0  0  0  0  0
  139.4950   74.5169  220.4487 H   0  0  0  0  0  0  0  0  0  0  0  0
  141.2371   74.5579  220.8686 H   0  0  0  0  0  0  0  0  0  0  0  0
  139.3490   74.1020  223.1170 H   0  0  0  0  0  0  0  0  0  0  0  0
  139.2204   70.1748  222.3058 H   0  0  0  0  0  0  0  0  0  0  0  0
  138.7374   68.6294  224.1687 H   0  0  0  0  0  0  0  0  0  0  0  0
  138.9827   68.1471  226.5955 H   0  0  0  0  0  0  0  0  0  0  0  0
  141.1016   70.9116  229.0904 H   0  0  0  0  0  0  0  0  0  0  0  0
  141.4913   72.3347  227.1155 H   0  0  0  0  0  0  0  0  0  0  0  0
  1  2  1  0
  2  3  1  0
  3  4  1  0
  4  5  1  0
  5  6  1  0
  6  7  2  0
  6  8  1  0
  8  9  1  0
  9 10  1  0
 10 11  2  0
 10 12  1  0
 12 13  2  0
 13 14  1  0
 14 15  2  0
 15 16  1  0
 16 17  2  0
 17 18  1  0
 17 19  1  0
 19 20  2  0
 20 21  1  0
 21 22  2  0
 22 12  1  0
 21 15  1  0
  1 23  1  0
  1 24  1  0
  1 25  1  0
  3 26  1  0
  3 27  1  0
  4 28  1  0
  4 29  1  0
  5 30  1  0
  8 31  1  0
  8 32  1  0
  9 33  1  0
 13 34  1  0
 14 35  1  0
 16 36  1  0
 19 37  1  0
 20 38  1  0
M  END
>  <smiles>  (10) 
COCCNC(=O)CNC(=O)c1ccc2cc(F)ccc2n1

>  <score_type>  (10) 
oracle

>  <origin>  (10) 
autodockgpu

>  <m_score__min__energy>  (10) 
-6.71

>  <m_primary>  (10) 
energy

>  <rmsd>  (10) 
2.936200212818393

>  <m_score__min__rmsd>  (10) 
2.936200212818393

>  <meeko>  (10) 
{"free_energy": -6.68, "intermolecular_energy": -8.47, "internal_energy": -1.07, "cluster_size": 39, "cluster_id": 1, "rank_in_cluster": 2}

>  <energy>  (10) 
-5.65

>  <cluster_rmsd>  (10) 
0.91

>  <cluster>  (10) 
1

$$$$

     RDKit          3D

 38 39  0  0  0  0  0  0  0  0999 V2000
  144.4690   72.6610  220.5770 C   0  0  0  0  0  0  0  0  0  0  0  0
  143.4070   73.2930  219.9850 O   0  0  0  0  0  0  0  0  0  0  0  0
  143.4760   74.6790  220.0470 C   0  0  0  0  0  0  0  0  0  0  0  0
  142.2370   75.3090  220.5910 C   0  0  0  0  0  0  0  0  0  0  0  0
  141.2010   74.2990  220.6680 N   0  0  0  0  0  0  0  0  0  0  0  0
  140.0840   74.3820  221.5430 C   0  0  0  0  0  0  0  0  0  0  0  0
  139.9000   75.3430  222.3280 O   0  0  0  0  0  0  0  0  0  0  0  0
  139.0550   73.3000  221.5630 C   0  0  0  0  0  0  0  0  0  0  0  0
  139.2860   72.4560  222.7080 N   0  0  0  0  0  0  0  0  0  0  0  0
  139.1210   71.0620  222.6180 C   0  0  0  0  0  0  0  0  0  0  0  0
  138.7690   70.4550  221.5640 O   0  0  0  0  0  0  0  0  0  0  0  0
  139.3680   70.2380  223.8160 C   0  0  0  0  0  0  0  0  0  0  0  0
  139.0040   68.9110  223.8740 C   0  0  0  0  0  0  0  0  0  0  0  0
  139.2190   68.1090  224.9760 C   0  0  0  0  0  0  0  0  0  0  0  0
  139.8320   68.6740  226.0740 C   0  0  0  0  0  0  0  0  0  0  0  0
  140.0990   67.9690  227.2340 C   0  0  0  0  0  0  0  0  0  0  0  0
  140.7150   68.5530  228.3250 C   0  0  0  0  0  0  0  0  0  0  0  0
  140.9810   67.8710  229.4640 F   0  0  0  0  0  0  0  0  0  0  0  0
  141.0710   69.8820  228.2430 C   0  0  0  0  0  0  0  0  0  0  0  0
  140.8020   70.5810  227.0820 C   0  0  0  0  0  0  0  0  0  0  0  0
  140.1880   70.0040  225.9900 C   0  0  0  0  0  0  0  0  0  0  0  0
  139.9640   70.7610  224.9000 N   0  0  0  0  0  0  0  0  0  0  0  0
  144.3681   72.7210  221.6707 H   0  0  0  0  0  0  0  0  0  0  0  0
  144.4864   71.6055  220.2677 H   0  0  0  0  0  0  0  0  0  0  0  0
  145.4050   73.1491  220.2677 H   0  0  0  0  0  0  0  0  0  0  0  0
  144.3217   74.9578  220.6928 H   0  0  0  0  0  0  0  0  0  0  0  0
  143.6019   75.0449  219.0173 H   0  0  0  0  0  0  0  0  0  0  0  0
  142.4364   75.7127  221.5946 H   0  0  0  0  0  0  0  0  0  0  0  0
  141.9134   76.1303  219.9347 H   0  0  0  0  0  0  0  0  0  0  0  0
  141.2340   73.4300  220.0560 H   0  0  0  0  0  0  0  0  0  0  0  0
  138.0517   73.7460  221.6297 H   0  0  0  0  0  0  0  0  0  0  0  0
  139.1237   72.7038  220.6411 H   0  0  0  0  0  0  0  0  0  0  0  0
  139.5790   72.9180  223.6010 H   0  0  0  0  0  0  0  0  0  0  0  0
  138.5155   68.4665  222.9943 H   0  0  0  0  0  0  0  0  0  0  0  0
  138.9112   67.0529  224.9784 H   0  0  0  0  0  0  0  0  0  0  0  0
  139.8116   66.9087  227.2900 H   0  0  0  0  0  0  0  0  0  0  0  0
  141.5632   70.3800  229.0914 H   0  0  0  0  0  0  0  0  0  0  0  0
  141.0893   71.6413  227.0263 H   0  0  0  0  0  0  0  0  0  0  0  0
  1  2  1  0
  2  3  1  0
  3  4  1  0
  4  5  1  0
  5  6  1  0
  6  7  2  0
  6  8  1  0
  8  9  1  0
  9 10  1  0
 10 11  2  0
 10 12  1  0
 12 13  2  0
 13 14  1  0
 14 15  2  0
 15 16  1  0
 16 17  2  0
 17 18  1  0
 17 19  1  0
 19 20  2  0
 20 21  1  0
 21 22  2  0
 22 12  1  0
 21 15  1  0
  1 23  1  0
  1 24  1  0
  1 25  1  0
  3 26  1  0
  3 27  1  0
  4 28  1  0
  4 29  1  0
  5 30  1  0
  8 31  1  0
  8 32  1  0
  9 33  1  0
 13 34  1  0
 14 35  1  0
 16 36  1  0
 19 37  1  0
 20 38  1  0
M  END
>  <smiles>  (11) 
COCCNC(=O)CNC(=O)c1ccc2cc(F)ccc2n1

>  <score_type>  (11) 
oracle

>  <origin>  (11) 
autodockgpu

>  <m_score__min__energy>  (11) 
-6.71

>  <m_primary>  (11) 
energy

>  <rmsd>  (11) 
2.0602571914851886

>  <m_score__min__rmsd>  (11) 
2.0602571914851886

>  <meeko>  (11) 
{"free_energy": -5.54, "intermolecular_energy": -7.33, "internal_energy": -1.85, "cluster_size": 4, "cluster_id": 2, "rank_in_cluster": 4}

>  <energy>  (11) 
-5.63

>  <cluster_rmsd>  (11) 
1.36

>  <cluster>  (11) 
1

$$$$

     RDKit          3D

 38 39  0  0  0  0  0  0  0  0999 V2000
  144.0570   71.5310  219.8390 C   0  0  0  0  0  0  0  0  0  0  0  0
  143.8540   72.3680  220.9050 O   0  0  0  0  0  0  0  0  0  0  0  0
  144.4870   73.5980  220.7780 C   0  0  0  0  0  0  0  0  0  0  0  0
  143.5700   74.6920  220.3430 C   0  0  0  0  0  0  0  0  0  0  0  0
  142.2030   74.2380  220.4920 N   0  0  0  0  0  0  0  0  0  0  0  0
  141.1430   75.0650  220.9520 C   0  0  0  0  0  0  0  0  0  0  0  0
  141.3040   76.2680  221.2700 O   0  0  0  0  0  0  0  0  0  0  0  0
  139.7580   74.5220  221.0780 C   0  0  0  0  0  0  0  0  0  0  0  0
  139.7020   73.6410  222.2180 N   0  0  0  0  0  0  0  0  0  0  0  0
  140.2360   72.3420  222.1480 C   0  0  0  0  0  0  0  0  0  0  0  0
  140.7900   71.8550  221.1200 O   0  0  0  0  0  0  0  0  0  0  0  0
  140.1560   71.4760  223.3400 C   0  0  0  0  0  0  0  0  0  0  0  0
  139.5940   70.2210  223.2910 C   0  0  0  0  0  0  0  0  0  0  0  0
  139.5000   69.3820  224.3830 C   0  0  0  0  0  0  0  0  0  0  0  0
  140.0000   69.8350  225.5850 C   0  0  0  0  0  0  0  0  0  0  0  0
  139.9630   69.0840  226.7480 C   0  0  0  0  0  0  0  0  0  0  0  0
  140.4690   69.5560  227.9440 C   0  0  0  0  0  0  0  0  0  0  0  0
  140.4370   68.8280  229.0860 F   0  0  0  0  0  0  0  0  0  0  0  0
  141.0270   70.8160  227.9690 C   0  0  0  0  0  0  0  0  0  0  0  0
  141.0620   71.5600  226.8060 C   0  0  0  0  0  0  0  0  0  0  0  0
  140.5590   71.0960  225.6090 C   0  0  0  0  0  0  0  0  0  0  0  0
  140.6350   71.8900  224.5250 N   0  0  0  0  0  0  0  0  0  0  0  0
  144.3015   70.5231  220.2056 H   0  0  0  0  0  0  0  0  0  0  0  0
  143.1434   71.4873  219.2279 H   0  0  0  0  0  0  0  0  0  0  0  0
  144.8891   71.9107  219.2279 H   0  0  0  0  0  0  0  0  0  0  0  0
  144.9184   73.8709  221.7524 H   0  0  0  0  0  0  0  0  0  0  0  0
  145.2566   73.4894  219.9996 H   0  0  0  0  0  0  0  0  0  0  0  0
  143.7344   75.5829  220.9669 H   0  0  0  0  0  0  0  0  0  0  0  0
  143.7668   74.9507  219.2921 H   0  0  0  0  0  0  0  0  0  0  0  0
  141.9280   73.2370  220.2570 H   0  0  0  0  0  0  0  0  0  0  0  0
  139.0480   75.3507  221.2169 H   0  0  0  0  0  0  0  0  0  0  0  0
  139.4913   73.9677  220.1660 H   0  0  0  0  0  0  0  0  0  0  0  0
  139.2510   74.0050  223.0900 H   0  0  0  0  0  0  0  0  0  0  0  0
  139.1976   69.8666  222.3281 H   0  0  0  0  0  0  0  0  0  0  0  0
  139.0417   68.3857  224.2969 H   0  0  0  0  0  0  0  0  0  0  0  0
  139.5163   68.0792  226.7187 H   0  0  0  0  0  0  0  0  0  0  0  0
  141.4393   71.2240  228.9036 H   0  0  0  0  0  0  0  0  0  0  0  0
  141.5097   72.5643  226.8359 H   0  0  0  0  0  0  0  0  0  0  0  0
  1  2  1  0
  2  3  1  0
  3  4  1  0
  4  5  1  0
  5  6  1  0
  6  7  2  0
  6  8  1  0
  8  9  1  0
  9 10  1  0
 10 11  2  0
 10 12  1  0
 12 13  2  0
 13 14  1  0
 14 15  2  0
 15 16  1  0
 16 17  2  0
 17 18  1  0
 17 19  1  0
 19 20  2  0
 20 21  1  0
 21 22  2  0
 22 12  1  0
 21 15  1  0
  1 23  1  0
  1 24  1  0
  1 25  1  0
  3 26  1  0
  3 27  1  0
  4 28  1  0
  4 29  1  0
  5 30  1  0
  8 31  1  0
  8 32  1  0
  9 33  1  0
 13 34  1  0
 14 35  1  0
 16 36  1  0
 19 37  1  0
 20 38  1  0
M  END
>  <smiles>  (12) 
COCCNC(=O)CNC(=O)c1ccc2cc(F)ccc2n1

>  <score_type>  (12) 
oracle

>  <origin>  (12) 
autodockgpu

>  <m_score__min__energy>  (12) 
-6.71

>  <m_primary>  (12) 
energy

>  <rmsd>  (12) 
2.6386234515243734

>  <m_score__min__rmsd>  (12) 
2.6386234515243734

>  <meeko>  (12) 
{"free_energy": -5.5, "intermolecular_energy": -7.29, "internal_energy": -2.44, "cluster_size": 39, "cluster_id": 1, "rank_in_cluster": 23}

>  <energy>  (12) 
-5.62

>  <cluster_rmsd>  (12) 
1.93

>  <cluster>  (12) 
1

$$$$

     RDKit          3D

 38 39  0  0  0  0  0  0  0  0999 V2000
  142.6010   78.9340  217.9050 C   0  0  0  0  0  0  0  0  0  0  0  0
  141.9720   78.2550  218.9150 O   0  0  0  0  0  0  0  0  0  0  0  0
  141.7860   79.0100  220.0660 C   0  0  0  0  0  0  0  0  0  0  0  0
  140.9610   78.3190  221.1000 C   0  0  0  0  0  0  0  0  0  0  0  0
  140.7740   76.9400  220.6970 N   0  0  0  0  0  0  0  0  0  0  0  0
  140.2260   75.9390  221.5430 C   0  0  0  0  0  0  0  0  0  0  0  0
  139.8550   76.1670  222.7200 O   0  0  0  0  0  0  0  0  0  0  0  0
  140.0640   74.5380  221.0530 C   0  0  0  0  0  0  0  0  0  0  0  0
  139.8670   73.6670  222.1840 N   0  0  0  0  0  0  0  0  0  0  0  0
  140.4580   72.3910  222.2200 C   0  0  0  0  0  0  0  0  0  0  0  0
  141.1860   71.9180  221.2990 O   0  0  0  0  0  0  0  0  0  0  0  0
  140.2280   71.5340  223.3990 C   0  0  0  0  0  0  0  0  0  0  0  0
  139.5390   70.3450  223.3110 C   0  0  0  0  0  0  0  0  0  0  0  0
  139.3050   69.5180  224.3900 C   0  0  0  0  0  0  0  0  0  0  0  0
  139.7900   69.9090  225.6190 C   0  0  0  0  0  0  0  0  0  0  0  0
  139.6170   69.1630  226.7710 C   0  0  0  0  0  0  0  0  0  0  0  0
  140.1110   69.5730  227.9950 C   0  0  0  0  0  0  0  0  0  0  0  0
  139.9460   68.8490  229.1270 F   0  0  0  0  0  0  0  0  0  0  0  0
  140.7980   70.7660  228.0580 C   0  0  0  0  0  0  0  0  0  0  0  0
  140.9680   71.5080  226.9050 C   0  0  0  0  0  0  0  0  0  0  0  0
  140.4770   71.1050  225.6810 C   0  0  0  0  0  0  0  0  0  0  0  0
  140.6900   71.8900  224.6100 N   0  0  0  0  0  0  0  0  0  0  0  0
  143.2889   79.6766  218.3354 H   0  0  0  0  0  0  0  0  0  0  0  0
  143.1684   78.2249  217.2843 H   0  0  0  0  0  0  0  0  0  0  0  0
  141.8507   79.4456  217.2843 H   0  0  0  0  0  0  0  0  0  0  0  0
  142.7719   79.2345  220.4991 H   0  0  0  0  0  0  0  0  0  0  0  0
  141.2439   79.9212  219.7731 H   0  0  0  0  0  0  0  0  0  0  0  0
  141.4774   78.3546  222.0706 H   0  0  0  0  0  0  0  0  0  0  0  0
  139.9853   78.8176  221.1969 H   0  0  0  0  0  0  0  0  0  0  0  0
  141.0480   76.6110  219.7230 H   0  0  0  0  0  0  0  0  0  0  0  0
  139.1918   74.4790  220.3853 H   0  0  0  0  0  0  0  0  0  0  0  0
  140.9632   74.2310  220.4988 H   0  0  0  0  0  0  0  0  0  0  0  0
  139.2700   74.0190  222.9700 H   0  0  0  0  0  0  0  0  0  0  0  0
  139.1544   70.0381  222.3272 H   0  0  0  0  0  0  0  0  0  0  0  0
  138.7488   68.5762  224.2730 H   0  0  0  0  0  0  0  0  0  0  0  0
  139.0680   68.2117  226.7109 H   0  0  0  0  0  0  0  0  0  0  0  0
  141.2062   71.1233  229.0149 H   0  0  0  0  0  0  0  0  0  0  0  0
  141.5174   72.4590  226.9659 H   0  0  0  0  0  0  0  0  0  0  0  0
  1  2  1  0
  2  3  1  0
  3  4  1  0
  4  5  1  0
  5  6  1  0
  6  7  2  0
  6  8  1  0
  8  9  1  0
  9 10  1  0
 10 11  2  0
 10 12  1  0
 12 13  2  0
 13 14  1  0
 14 15  2  0
 15 16  1  0
 16 17  2  0
 17 18  1  0
 17 19  1  0
 19 20  2  0
 20 21  1  0
 21 22  2  0
 22 12  1  0
 21 15  1  0
  1 23  1  0
  1 24  1  0
  1 25  1  0
  3 26  1  0
  3 27  1  0
  4 28  1  0
  4 29  1  0
  5 30  1  0
  8 31  1  0
  8 32  1  0
  9 33  1  0
 13 34  1  0
 14 35  1  0
 16 36  1  0
 19 37  1  0
 20 38  1  0
M  END
>  <smiles>  (13) 
COCCNC(=O)CNC(=O)c1ccc2cc(F)ccc2n1

>  <score_type>  (13) 
oracle

>  <origin>  (13) 
autodockgpu

>  <m_score__min__energy>  (13) 
-6.71

>  <m_primary>  (13) 
energy

>  <rmsd>  (13) 
2.4481430229007093

>  <m_score__min__rmsd>  (13) 
2.4481430229007093

>  <meeko>  (13) 
{"free_energy": -5.62, "intermolecular_energy": -7.41, "internal_energy": -2.07, "cluster_size": 39, "cluster_id": 1, "rank_in_cluster": 14}

>  <energy>  (13) 
-5.62

>  <cluster_rmsd>  (13) 
1.4

>  <cluster>  (13) 
1

$$$$

     RDKit          3D

 38 39  0  0  0  0  0  0  0  0999 V2000
  144.2830   71.5380  219.7320 C   0  0  0  0  0  0  0  0  0  0  0  0
  143.7870   72.4890  220.5850 O   0  0  0  0  0  0  0  0  0  0  0  0
  144.4190   73.7210  220.4770 C   0  0  0  0  0  0  0  0  0  0  0  0
  143.4690   74.8710  220.4370 C   0  0  0  0  0  0  0  0  0  0  0  0
  142.1170   74.3580  220.5170 N   0  0  0  0  0  0  0  0  0  0  0  0
  141.0370   75.0690  221.1060 C   0  0  0  0  0  0  0  0  0  0  0  0
  141.1650   76.2100  221.6120 O   0  0  0  0  0  0  0  0  0  0  0  0
  139.6700   74.4720  221.1480 C   0  0  0  0  0  0  0  0  0  0  0  0
  139.5860   73.5700  222.2690 N   0  0  0  0  0  0  0  0  0  0  0  0
  140.2690   72.3400  222.2540 C   0  0  0  0  0  0  0  0  0  0  0  0
  140.9870   71.9370  221.2930 O   0  0  0  0  0  0  0  0  0  0  0  0
  140.1540   71.4490  223.4240 C   0  0  0  0  0  0  0  0  0  0  0  0
  139.5420   70.2190  223.3450 C   0  0  0  0  0  0  0  0  0  0  0  0
  139.4160   69.3590  224.4170 C   0  0  0  0  0  0  0  0  0  0  0  0
  139.9330   69.7610  225.6290 C   0  0  0  0  0  0  0  0  0  0  0  0
  139.8660   68.9850  226.7730 C   0  0  0  0  0  0  0  0  0  0  0  0
  140.3910   69.4060  227.9800 C   0  0  0  0  0  0  0  0  0  0  0  0
  140.3300   68.6530  229.1040 F   0  0  0  0  0  0  0  0  0  0  0  0
  140.9990   70.6420  228.0350 C   0  0  0  0  0  0  0  0  0  0  0  0
  141.0630   71.4130  226.8910 C   0  0  0  0  0  0  0  0  0  0  0  0
  140.5420   70.9990  225.6830 C   0  0  0  0  0  0  0  0  0  0  0  0
  140.6490   71.8140  224.6190 N   0  0  0  0  0  0  0  0  0  0  0  0
  144.7142   70.7112  220.3155 H   0  0  0  0  0  0  0  0  0  0  0  0
  143.4701   71.1544  219.0979 H   0  0  0  0  0  0  0  0  0  0  0  0
  145.0628   71.9851  219.0979 H   0  0  0  0  0  0  0  0  0  0  0  0
  145.0852   73.8486  221.3430 H   0  0  0  0  0  0  0  0  0  0  0  0
  144.9708   73.7214  219.5254 H   0  0  0  0  0  0  0  0  0  0  0  0
  143.6620   75.5406  221.2881 H   0  0  0  0  0  0  0  0  0  0  0  0
  143.6017   75.4350  219.5019 H   0  0  0  0  0  0  0  0  0  0  0  0
  141.8700   73.4000  220.1260 H   0  0  0  0  0  0  0  0  0  0  0  0
  138.9221   75.2707  221.2605 H   0  0  0  0  0  0  0  0  0  0  0  0
  139.4751   73.9237  220.2145 H   0  0  0  0  0  0  0  0  0  0  0  0
  139.0020   73.8650  223.0870 H   0  0  0  0  0  0  0  0  0  0  0  0
  139.1308   69.9041  222.3746 H   0  0  0  0  0  0  0  0  0  0  0  0
  138.9188   68.3840  224.3072 H   0  0  0  0  0  0  0  0  0  0  0  0
  139.3786   68.0003  226.7197 H   0  0  0  0  0  0  0  0  0  0  0  0
  141.4280   71.0097  228.9788 H   0  0  0  0  0  0  0  0  0  0  0  0
  141.5496   72.3980  226.9455 H   0  0  0  0  0  0  0  0  0  0  0  0
  1  2  1  0
  2  3  1  0
  3  4  1  0
  4  5  1  0
  5  6  1  0
  6  7  2  0
  6  8  1  0
  8  9  1  0
  9 10  1  0
 10 11  2  0
 10 12  1  0
 12 13  2  0
 13 14  1  0
 14 15  2  0
 15 16  1  0
 16 17  2  0
 17 18  1  0
 17 19  1  0
 19 20  2  0
 20 21  1  0
 21 22  2  0
 22 12  1  0
 21 15  1  0
  1 23  1  0
  1 24  1  0
  1 25  1  0
  3 26  1  0
  3 27  1  0
  4 28  1  0
  4 29  1  0
  5 30  1  0
  8 31  1  0
  8 32  1  0
  9 33  1  0
 13 34  1  0
 14 35  1  0
 16 36  1  0
 19 37  1  0
 20 38  1  0
M  END
>  <smiles>  (14) 
COCCNC(=O)CNC(=O)c1ccc2cc(F)ccc2n1

>  <score_type>  (14) 
oracle

>  <origin>  (14) 
autodockgpu

>  <m_score__min__energy>  (14) 
-6.71

>  <m_primary>  (14) 
energy

>  <rmsd>  (14) 
2.5835415610652523

>  <m_score__min__rmsd>  (14) 
2.5835415610652523

>  <meeko>  (14) 
{"free_energy": -5.6, "intermolecular_energy": -7.39, "internal_energy": -2.38, "cluster_size": 39, "cluster_id": 1, "rank_in_cluster": 15}

>  <energy>  (14) 
-5.62

>  <cluster_rmsd>  (14) 
1.51

>  <cluster>  (14) 
1

$$$$

     RDKit          3D

 38 39  0  0  0  0  0  0  0  0999 V2000
  143.6990   71.6120  220.7810 C   0  0  0  0  0  0  0  0  0  0  0  0
  143.6390   72.5990  219.8340 O   0  0  0  0  0  0  0  0  0  0  0  0
  144.2050   73.8000  220.2410 C   0  0  0  0  0  0  0  0  0  0  0  0
  143.2020   74.8830  220.4600 C   0  0  0  0  0  0  0  0  0  0  0  0
  141.8870   74.2830  220.5560 N   0  0  0  0  0  0  0  0  0  0  0  0
  140.7020   75.0210  220.8200 C   0  0  0  0  0  0  0  0  0  0  0  0
  140.6940   76.2630  220.9940 O   0  0  0  0  0  0  0  0  0  0  0  0
  139.3810   74.3290  220.9020 C   0  0  0  0  0  0  0  0  0  0  0  0
  139.3650   73.4870  222.0720 N   0  0  0  0  0  0  0  0  0  0  0  0
  140.0230   72.2440  222.0720 C   0  0  0  0  0  0  0  0  0  0  0  0
  140.6600   71.7760  221.0830 O   0  0  0  0  0  0  0  0  0  0  0  0
  139.9790   71.4160  223.2920 C   0  0  0  0  0  0  0  0  0  0  0  0
  139.3930   70.1710  223.3070 C   0  0  0  0  0  0  0  0  0  0  0  0
  139.3320   69.3690  224.4280 C   0  0  0  0  0  0  0  0  0  0  0  0
  139.8930   69.8480  225.5930 C   0  0  0  0  0  0  0  0  0  0  0  0
  139.8930   69.1340  226.7780 C   0  0  0  0  0  0  0  0  0  0  0  0
  140.4610   69.6320  227.9360 C   0  0  0  0  0  0  0  0  0  0  0  0
  140.4660   68.9400  229.1000 F   0  0  0  0  0  0  0  0  0  0  0  0
  141.0430   70.8800  227.8970 C   0  0  0  0  0  0  0  0  0  0  0  0
  141.0400   71.5880  226.7110 C   0  0  0  0  0  0  0  0  0  0  0  0
  140.4750   71.0980  225.5520 C   0  0  0  0  0  0  0  0  0  0  0  0
  140.5180   71.8560  224.4420 N   0  0  0  0  0  0  0  0  0  0  0  0
  143.6715   72.0637  221.7836 H   0  0  0  0  0  0  0  0  0  0  0  0
  142.8403   70.9352  220.6601 H   0  0  0  0  0  0  0  0  0  0  0  0
  144.6333   71.0442  220.6601 H   0  0  0  0  0  0  0  0  0  0  0  0
  144.7453   73.6292  221.1838 H   0  0  0  0  0  0  0  0  0  0  0  0
  144.8733   74.1344  219.4338 H   0  0  0  0  0  0  0  0  0  0  0  0
  143.4334   75.4194  221.3920 H   0  0  0  0  0  0  0  0  0  0  0  0
  143.2296   75.5955  219.6224 H   0  0  0  0  0  0  0  0  0  0  0  0
  141.7510   73.2360  220.4290 H   0  0  0  0  0  0  0  0  0  0  0  0
  138.5769   75.0762  220.9741 H   0  0  0  0  0  0  0  0  0  0  0  0
  139.2250   73.7172  220.0012 H   0  0  0  0  0  0  0  0  0  0  0  0
  138.8490   73.8360  222.9140 H   0  0  0  0  0  0  0  0  0  0  0  0
  138.9487   69.7945  222.3738 H   0  0  0  0  0  0  0  0  0  0  0  0
  138.8516   68.3800  224.3935 H   0  0  0  0  0  0  0  0  0  0  0  0
  139.4262   68.1382  226.7996 H   0  0  0  0  0  0  0  0  0  0  0  0
  141.5045   71.3075  228.7994 H   0  0  0  0  0  0  0  0  0  0  0  0
  141.5074   72.5835  226.6899 H   0  0  0  0  0  0  0  0  0  0  0  0
  1  2  1  0
  2  3  1  0
  3  4  1  0
  4  5  1  0
  5  6  1  0
  6  7  2  0
  6  8  1  0
  8  9  1  0
  9 10  1  0
 10 11  2  0
 10 12  1  0
 12 13  2  0
 13 14  1  0
 14 15  2  0
 15 16  1  0
 16 17  2  0
 17 18  1  0
 17 19  1  0
 19 20  2  0
 20 21  1  0
 21 22  2  0
 22 12  1  0
 21 15  1  0
  1 23  1  0
  1 24  1  0
  1 25  1  0
  3 26  1  0
  3 27  1  0
  4 28  1  0
  4 29  1  0
  5 30  1  0
  8 31  1  0
  8 32  1  0
  9 33  1  0
 13 34  1  0
 14 35  1  0
 16 36  1  0
 19 37  1  0
 20 38  1  0
M  END
>  <smiles>  (15) 
COCCNC(=O)CNC(=O)c1ccc2cc(F)ccc2n1

>  <score_type>  (15) 
oracle

>  <origin>  (15) 
autodockgpu

>  <m_score__min__energy>  (15) 
-6.71

>  <m_primary>  (15) 
energy

>  <rmsd>  (15) 
2.441590296263095

>  <m_score__min__rmsd>  (15) 
2.441590296263095

>  <meeko>  (15) 
{"free_energy": -5.25, "intermolecular_energy": -7.04, "internal_energy": -2.45, "cluster_size": 39, "cluster_id": 1, "rank_in_cluster": 38}

>  <energy>  (15) 
-5.6

>  <cluster_rmsd>  (15) 
1.99

>  <cluster>  (15) 
1

$$$$

     RDKit          3D

 38 39  0  0  0  0  0  0  0  0999 V2000
  141.8100   79.3900  219.3510 C   0  0  0  0  0  0  0  0  0  0  0  0
  142.1600   78.7550  220.5140 O   0  0  0  0  0  0  0  0  0  0  0  0
  141.6380   79.3510  221.6550 C   0  0  0  0  0  0  0  0  0  0  0  0
  140.8520   78.4110  222.5070 C   0  0  0  0  0  0  0  0  0  0  0  0
  140.9320   77.0860  221.9270 N   0  0  0  0  0  0  0  0  0  0  0  0
  139.8680   76.1450  221.9640 C   0  0  0  0  0  0  0  0  0  0  0  0
  138.7610   76.3840  222.5050 O   0  0  0  0  0  0  0  0  0  0  0  0
  140.0270   74.7970  221.3410 C   0  0  0  0  0  0  0  0  0  0  0  0
  139.8060   73.7880  222.3460 N   0  0  0  0  0  0  0  0  0  0  0  0
  140.6060   72.6320  222.3920 C   0  0  0  0  0  0  0  0  0  0  0  0
  141.5510   72.3890  221.5860 O   0  0  0  0  0  0  0  0  0  0  0  0
  140.3430   71.6270  223.4390 C   0  0  0  0  0  0  0  0  0  0  0  0
  139.6670   70.4580  223.1710 C   0  0  0  0  0  0  0  0  0  0  0  0
  139.4020   69.4940  224.1230 C   0  0  0  0  0  0  0  0  0  0  0  0
  139.8420   69.7220  225.4090 C   0  0  0  0  0  0  0  0  0  0  0  0
  139.6350   68.8300  226.4470 C   0  0  0  0  0  0  0  0  0  0  0  0
  140.0830   69.0770  227.7300 C   0  0  0  0  0  0  0  0  0  0  0  0
  139.8860   68.2090  228.7510 F   0  0  0  0  0  0  0  0  0  0  0  0
  140.7580   70.2540  227.9740 C   0  0  0  0  0  0  0  0  0  0  0  0
  140.9610   71.1410  226.9350 C   0  0  0  0  0  0  0  0  0  0  0  0
  140.5170   70.9010  225.6520 C   0  0  0  0  0  0  0  0  0  0  0  0
  140.7590   71.8210  224.7010 N   0  0  0  0  0  0  0  0  0  0  0  0
  141.2915   80.3306  219.5885 H   0  0  0  0  0  0  0  0  0  0  0  0
  142.7153   79.6081  218.7655 H   0  0  0  0  0  0  0  0  0  0  0  0
  141.1422   78.7410  218.7655 H   0  0  0  0  0  0  0  0  0  0  0  0
  142.4710   79.7498  222.2525 H   0  0  0  0  0  0  0  0  0  0  0  0
  140.9493   80.1418  221.3227 H   0  0  0  0  0  0  0  0  0  0  0  0
  141.2692   78.3960  223.5247 H   0  0  0  0  0  0  0  0  0  0  0  0
  139.8026   78.7369  222.5573 H   0  0  0  0  0  0  0  0  0  0  0  0
  141.8150   76.7530  221.4370 H   0  0  0  0  0  0  0  0  0  0  0  0
  139.2939   74.6766  220.5297 H   0  0  0  0  0  0  0  0  0  0  0  0
  141.0415   74.6951  220.9281 H   0  0  0  0  0  0  0  0  0  0  0  0
  139.0320   73.9490  223.0340 H   0  0  0  0  0  0  0  0  0  0  0  0
  139.3191   70.2825  222.1423 H   0  0  0  0  0  0  0  0  0  0  0  0
  138.8575   68.5741  223.8636 H   0  0  0  0  0  0  0  0  0  0  0  0
  139.0957   67.8932  226.2433 H   0  0  0  0  0  0  0  0  0  0  0  0
  141.1302   70.4838  228.9833 H   0  0  0  0  0  0  0  0  0  0  0  0
  141.4994   72.0781  227.1397 H   0  0  0  0  0  0  0  0  0  0  0  0
  1  2  1  0
  2  3  1  0
  3  4  1  0
  4  5  1  0
  5  6  1  0
  6  7  2  0
  6  8  1  0
  8  9  1  0
  9 10  1  0
 10 11  2  0
 10 12  1  0
 12 13  2  0
 13 14  1  0
 14 15  2  0
 15 16  1  0
 16 17  2  0
 17 18  1  0
 17 19  1  0
 19 20  2  0
 20 21  1  0
 21 22  2  0
 22 12  1  0
 21 15  1  0
  1 23  1  0
  1 24  1  0
  1 25  1  0
  3 26  1  0
  3 27  1  0
  4 28  1  0
  4 29  1  0
  5 30  1  0
  8 31  1  0
  8 32  1  0
  9 33  1  0
 13 34  1  0
 14 35  1  0
 16 36  1  0
 19 37  1  0
 20 38  1  0
M  END
>  <smiles>  (16) 
COCCNC(=O)CNC(=O)c1ccc2cc(F)ccc2n1

>  <score_type>  (16) 
oracle

>  <origin>  (16) 
autodockgpu

>  <m_score__min__energy>  (16) 
-6.71

>  <m_primary>  (16) 
energy

>  <rmsd>  (16) 
2.898763813819813

>  <m_score__min__rmsd>  (16) 
2.898763813819813

>  <meeko>  (16) 
{"free_energy": -6.05, "intermolecular_energy": -7.83, "internal_energy": -1.71, "cluster_size": 39, "cluster_id": 1, "rank_in_cluster": 7}

>  <energy>  (16) 
-5.6

>  <cluster_rmsd>  (16) 
0.92

>  <cluster>  (16) 
1

$$$$

     RDKit          3D

 38 39  0  0  0  0  0  0  0  0999 V2000
  142.5620   78.9070  218.1580 C   0  0  0  0  0  0  0  0  0  0  0  0
  141.5980   78.4300  219.0070 O   0  0  0  0  0  0  0  0  0  0  0  0
  141.4810   79.1590  220.1840 C   0  0  0  0  0  0  0  0  0  0  0  0
  141.3030   78.3030  221.3940 C   0  0  0  0  0  0  0  0  0  0  0  0
  141.1330   76.9290  220.9680 N   0  0  0  0  0  0  0  0  0  0  0  0
  140.3290   75.9830  221.6580 C   0  0  0  0  0  0  0  0  0  0  0  0
  139.6920   76.2610  222.7040 O   0  0  0  0  0  0  0  0  0  0  0  0
  140.2020   74.5840  221.1540 C   0  0  0  0  0  0  0  0  0  0  0  0
  140.0130   73.6980  222.2750 N   0  0  0  0  0  0  0  0  0  0  0  0
  140.4440   72.3600  222.2140 C   0  0  0  0  0  0  0  0  0  0  0  0
  141.0110   71.8410  221.2080 O   0  0  0  0  0  0  0  0  0  0  0  0
  140.2290   71.4900  223.3850 C   0  0  0  0  0  0  0  0  0  0  0  0
  139.5760   70.2830  223.2860 C   0  0  0  0  0  0  0  0  0  0  0  0
  139.3560   69.4420  224.3580 C   0  0  0  0  0  0  0  0  0  0  0  0
  139.8200   69.8410  225.5930 C   0  0  0  0  0  0  0  0  0  0  0  0
  139.6590   69.0830  226.7400 C   0  0  0  0  0  0  0  0  0  0  0  0
  140.1320   69.5000  227.9700 C   0  0  0  0  0  0  0  0  0  0  0  0
  139.9790   68.7650  229.0960 F   0  0  0  0  0  0  0  0  0  0  0  0
  140.7830   70.7120  228.0450 C   0  0  0  0  0  0  0  0  0  0  0  0
  140.9410   71.4650  226.8980 C   0  0  0  0  0  0  0  0  0  0  0  0
  140.4720   71.0550  225.6670 C   0  0  0  0  0  0  0  0  0  0  0  0
  140.6710   71.8520  224.6020 N   0  0  0  0  0  0  0  0  0  0  0  0
  143.3959   79.3196  218.7449 H   0  0  0  0  0  0  0  0  0  0  0  0
  142.9303   78.0872  217.5238 H   0  0  0  0  0  0  0  0  0  0  0  0
  142.1337   79.6971  217.5238 H   0  0  0  0  0  0  0  0  0  0  0  0
  142.3922   79.7614  220.3136 H   0  0  0  0  0  0  0  0  0  0  0  0
  140.5804   79.7839  220.0918 H   0  0  0  0  0  0  0  0  0  0  0  0
  142.1905   78.3838  222.0388 H   0  0  0  0  0  0  0  0  0  0  0  0
  140.4195   78.6326  221.9604 H   0  0  0  0  0  0  0  0  0  0  0  0
  141.6180   76.5610  220.0950 H   0  0  0  0  0  0  0  0  0  0  0  0
  139.3377   74.5126  220.4774 H   0  0  0  0  0  0  0  0  0  0  0  0
  141.1130   74.3017  220.6060 H   0  0  0  0  0  0  0  0  0  0  0  0
  139.5470   74.0870  223.1280 H   0  0  0  0  0  0  0  0  0  0  0  0
  139.2088   69.9709  222.2972 H   0  0  0  0  0  0  0  0  0  0  0  0
  138.8281   68.4854  224.2310 H   0  0  0  0  0  0  0  0  0  0  0  0
  139.1375   68.1170  226.6703 H   0  0  0  0  0  0  0  0  0  0  0  0
  141.1724   71.0757  229.0073 H   0  0  0  0  0  0  0  0  0  0  0  0
  141.4621   72.4311  226.9689 H   0  0  0  0  0  0  0  0  0  0  0  0
  1  2  1  0
  2  3  1  0
  3  4  1  0
  4  5  1  0
  5  6  1  0
  6  7  2  0
  6  8  1  0
  8  9  1  0
  9 10  1  0
 10 11  2  0
 10 12  1  0
 12 13  2  0
 13 14  1  0
 14 15  2  0
 15 16  1  0
 16 17  2  0
 17 18  1  0
 17 19  1  0
 19 20  2  0
 20 21  1  0
 21 22  2  0
 22 12  1  0
 21 15  1  0
  1 23  1  0
  1 24  1  0
  1 25  1  0
  3 26  1  0
  3 27  1  0
  4 28  1  0
  4 29  1  0
  5 30  1  0
  8 31  1  0
  8 32  1  0
  9 33  1  0
 13 34  1  0
 14 35  1  0
 16 36  1  0
 19 37  1  0
 20 38  1  0
M  END
>  <smiles>  (17) 
COCCNC(=O)CNC(=O)c1ccc2cc(F)ccc2n1

>  <score_type>  (17) 
oracle

>  <origin>  (17) 
autodockgpu

>  <m_score__min__energy>  (17) 
-6.71

>  <m_primary>  (17) 
energy

>  <rmsd>  (17) 
2.5375181965067206

>  <m_score__min__rmsd>  (17) 
2.5375181965067206

>  <meeko>  (17) 
{"free_energy": -5.62, "intermolecular_energy": -7.41, "internal_energy": -2.11, "cluster_size": 39, "cluster_id": 1, "rank_in_cluster": 13}

>  <energy>  (17) 
-5.59

>  <cluster_rmsd>  (17) 
1.44

>  <cluster>  (17) 
1

$$$$

     RDKit          3D

 38 39  0  0  0  0  0  0  0  0999 V2000
  143.8900   71.3710  219.9050 C   0  0  0  0  0  0  0  0  0  0  0  0
  143.8260   72.3460  220.8660 O   0  0  0  0  0  0  0  0  0  0  0  0
  144.5050   73.5100  220.5270 C   0  0  0  0  0  0  0  0  0  0  0  0
  143.6150   74.7030  220.4190 C   0  0  0  0  0  0  0  0  0  0  0  0
  142.2400   74.2680  220.5550 N   0  0  0  0  0  0  0  0  0  0  0  0
  141.1940   75.1000  221.0370 C   0  0  0  0  0  0  0  0  0  0  0  0
  141.3750   76.2910  221.3890 O   0  0  0  0  0  0  0  0  0  0  0  0
  139.8000   74.5790  221.1470 C   0  0  0  0  0  0  0  0  0  0  0  0
  139.7220   73.6820  222.2720 N   0  0  0  0  0  0  0  0  0  0  0  0
  140.2540   72.3830  222.1940 C   0  0  0  0  0  0  0  0  0  0  0  0
  140.8250   71.9090  221.1680 O   0  0  0  0  0  0  0  0  0  0  0  0
  140.1520   71.5000  223.3710 C   0  0  0  0  0  0  0  0  0  0  0  0
  139.5750   70.2520  223.2980 C   0  0  0  0  0  0  0  0  0  0  0  0
  139.4610   69.3990  224.3760 C   0  0  0  0  0  0  0  0  0  0  0  0
  139.9540   69.8270  225.5900 C   0  0  0  0  0  0  0  0  0  0  0  0
  139.8960   69.0610  226.7410 C   0  0  0  0  0  0  0  0  0  0  0  0
  140.3960   69.5080  227.9490 C   0  0  0  0  0  0  0  0  0  0  0  0
  140.3440   68.7640  229.0790 F   0  0  0  0  0  0  0  0  0  0  0  0
  140.9690   70.7600  227.9980 C   0  0  0  0  0  0  0  0  0  0  0  0
  141.0240   71.5210  226.8470 C   0  0  0  0  0  0  0  0  0  0  0  0
  140.5280   71.0820  225.6380 C   0  0  0  0  0  0  0  0  0  0  0  0
  140.6240   71.8900  224.5670 N   0  0  0  0  0  0  0  0  0  0  0  0
  143.9548   70.3845  220.3873 H   0  0  0  0  0  0  0  0  0  0  0  0
  142.9871   71.4141  219.2782 H   0  0  0  0  0  0  0  0  0  0  0  0
  144.7795   71.5318  219.2782 H   0  0  0  0  0  0  0  0  0  0  0  0
  145.2634   73.7090  221.2985 H   0  0  0  0  0  0  0  0  0  0  0  0
  144.9541   73.3481  219.5360 H   0  0  0  0  0  0  0  0  0  0  0  0
  143.8576   75.4197  221.2174 H   0  0  0  0  0  0  0  0  0  0  0  0
  143.7595   75.1925  219.4446 H   0  0  0  0  0  0  0  0  0  0  0  0
  141.9480   73.2800  220.2910 H   0  0  0  0  0  0  0  0  0  0  0  0
  139.1035   75.4175  221.2948 H   0  0  0  0  0  0  0  0  0  0  0  0
  139.5295   74.0434  220.2251 H   0  0  0  0  0  0  0  0  0  0  0  0
  139.2570   74.0350  223.1430 H   0  0  0  0  0  0  0  0  0  0  0  0
  139.1833   69.9167  222.3263 H   0  0  0  0  0  0  0  0  0  0  0  0
  138.9920   68.4096  224.2703 H   0  0  0  0  0  0  0  0  0  0  0  0
  139.4364   68.0628  226.6926 H   0  0  0  0  0  0  0  0  0  0  0  0
  141.3777   71.1487  228.9424 H   0  0  0  0  0  0  0  0  0  0  0  0
  141.4829   72.5195  226.8970 H   0  0  0  0  0  0  0  0  0  0  0  0
  1  2  1  0
  2  3  1  0
  3  4  1  0
  4  5  1  0
  5  6  1  0
  6  7  2  0
  6  8  1  0
  8  9  1  0
  9 10  1  0
 10 11  2  0
 10 12  1  0
 12 13  2  0
 13 14  1  0
 14 15  2  0
 15 16  1  0
 16 17  2  0
 17 18  1  0
 17 19  1  0
 19 20  2  0
 20 21  1  0
 21 22  2  0
 22 12  1  0
 21 15  1  0
  1 23  1  0
  1 24  1  0
  1 25  1  0
  3 26  1  0
  3 27  1  0
  4 28  1  0
  4 29  1  0
  5 30  1  0
  8 31  1  0
  8 32  1  0
  9 33  1  0
 13 34  1  0
 14 35  1  0
 16 36  1  0
 19 37  1  0
 20 38  1  0
M  END
>  <smiles>  (18) 
COCCNC(=O)CNC(=O)c1ccc2cc(F)ccc2n1

>  <score_type>  (18) 
oracle

>  <origin>  (18) 
autodockgpu

>  <m_score__min__energy>  (18) 
-6.71

>  <m_primary>  (18) 
energy

>  <rmsd>  (18) 
2.6612059213200117

>  <m_score__min__rmsd>  (18) 
2.6612059213200117

>  <meeko>  (18) 
{"free_energy": -5.51, "intermolecular_energy": -7.3, "internal_energy": -2.46, "cluster_size": 39, "cluster_id": 1, "rank_in_cluster": 22}

>  <energy>  (18) 
-5.58

>  <cluster_rmsd>  (18) 
1.96

>  <cluster>  (18) 
1

$$$$

     RDKit          3D

 38 39  0  0  0  0  0  0  0  0999 V2000
  143.7030   71.8120  220.8080 C   0  0  0  0  0  0  0  0  0  0  0  0
  142.9740   72.6810  220.0390 O   0  0  0  0  0  0  0  0  0  0  0  0
  143.2970   74.0160  220.2460 C   0  0  0  0  0  0  0  0  0  0  0  0
  142.1950   74.7990  220.8800 C   0  0  0  0  0  0  0  0  0  0  0  0
  141.0060   73.9730  220.9220 N   0  0  0  0  0  0  0  0  0  0  0  0
  139.7940   74.3690  221.5490 C   0  0  0  0  0  0  0  0  0  0  0  0
  139.6510   75.4750  222.1230 O   0  0  0  0  0  0  0  0  0  0  0  0
  138.6090   73.4610  221.5480 C   0  0  0  0  0  0  0  0  0  0  0  0
  138.7110   72.5580  222.6670 N   0  0  0  0  0  0  0  0  0  0  0  0
  139.6750   71.5340  222.6790 C   0  0  0  0  0  0  0  0  0  0  0  0
  140.5030   71.3270  221.7450 O   0  0  0  0  0  0  0  0  0  0  0  0
  139.7410   70.6340  223.8460 C   0  0  0  0  0  0  0  0  0  0  0  0
  139.2180   69.3610  223.8140 C   0  0  0  0  0  0  0  0  0  0  0  0
  139.2600   68.4910  224.8840 C   0  0  0  0  0  0  0  0  0  0  0  0
  139.8630   68.9280  226.0440 C   0  0  0  0  0  0  0  0  0  0  0  0
  139.9650   68.1450  227.1810 C   0  0  0  0  0  0  0  0  0  0  0  0
  140.5720   68.6020  228.3360 C   0  0  0  0  0  0  0  0  0  0  0  0
  140.6770   67.8430  229.4520 F   0  0  0  0  0  0  0  0  0  0  0  0
  141.0890   69.8790  228.3440 C   0  0  0  0  0  0  0  0  0  0  0  0
  140.9840   70.6560  227.2070 C   0  0  0  0  0  0  0  0  0  0  0  0
  140.3800   70.2070  226.0510 C   0  0  0  0  0  0  0  0  0  0  0  0
  140.3220   71.0320  224.9900 N   0  0  0  0  0  0  0  0  0  0  0  0
  143.5240   72.0253  221.8722 H   0  0  0  0  0  0  0  0  0  0  0  0
  143.3970   70.7793  220.5845 H   0  0  0  0  0  0  0  0  0  0  0  0
  144.7732   71.9338  220.5845 H   0  0  0  0  0  0  0  0  0  0  0  0
  144.1803   74.0641  220.8997 H   0  0  0  0  0  0  0  0  0  0  0  0
  143.4872   74.4620  219.2586 H   0  0  0  0  0  0  0  0  0  0  0  0
  142.4840   75.0847  221.9022 H   0  0  0  0  0  0  0  0  0  0  0  0
  141.9986   75.7110  220.2972 H   0  0  0  0  0  0  0  0  0  0  0  0
  140.9910   73.0090  220.4730 H   0  0  0  0  0  0  0  0  0  0  0  0
  137.6880   74.0559  221.6365 H   0  0  0  0  0  0  0  0  0  0  0  0
  138.5791   72.8887  220.6091 H   0  0  0  0  0  0  0  0  0  0  0  0
  138.0430   72.6940  223.4630 H   0  0  0  0  0  0  0  0  0  0  0  0
  138.7403   69.0186  222.8842 H   0  0  0  0  0  0  0  0  0  0  0  0
  138.8268   67.4823  224.8138 H   0  0  0  0  0  0  0  0  0  0  0  0
  139.5498   67.1265  227.1650 H   0  0  0  0  0  0  0  0  0  0  0  0
  141.5796   70.2751  229.2453 H   0  0  0  0  0  0  0  0  0  0  0  0
  141.3990   71.6746  227.2240 H   0  0  0  0  0  0  0  0  0  0  0  0
  1  2  1  0
  2  3  1  0
  3  4  1  0
  4  5  1  0
  5  6  1  0
  6  7  2  0
  6  8  1  0
  8  9  1  0
  9 10  1  0
 10 11  2  0
 10 12  1  0
 12 13  2  0
 13 14  1  0
 14 15  2  0
 15 16  1  0
 16 17  2  0
 17 18  1  0
 17 19  1  0
 19 20  2  0
 20 21  1  0
 21 22  2  0
 22 12  1  0
 21 15  1  0
  1 23  1  0
  1 24  1  0
  1 25  1  0
  3 26  1  0
  3 27  1  0
  4 28  1  0
  4 29  1  0
  5 30  1  0
  8 31  1  0
  8 32  1  0
  9 33  1  0
 13 34  1  0
 14 35  1  0
 16 36  1  0
 19 37  1  0
 20 38  1  0
M  END
>  <smiles>  (19) 
COCCNC(=O)CNC(=O)c1ccc2cc(F)ccc2n1

>  <score_type>  (19) 
oracle

>  <origin>  (19) 
autodockgpu

>  <m_score__min__energy>  (19) 
-6.71

>  <m_primary>  (19) 
energy

>  <rmsd>  (19) 
2.123686175550501

>  <m_score__min__rmsd>  (19) 
2.123686175550501

>  <meeko>  (19) 
{"free_energy": -5.39, "intermolecular_energy": -7.18, "internal_energy": -2.37, "cluster_size": 39, "cluster_id": 1, "rank_in_cluster": 34}

>  <energy>  (19) 
-5.57

>  <cluster_rmsd>  (19) 
1.94

>  <cluster>  (19) 
1

$$$$

     RDKit          3D

 38 39  0  0  0  0  0  0  0  0999 V2000
  142.5900   78.3860  217.4940 C   0  0  0  0  0  0  0  0  0  0  0  0
  141.8310   77.9090  218.5310 O   0  0  0  0  0  0  0  0  0  0  0  0
  141.8120   78.7440  219.6400 C   0  0  0  0  0  0  0  0  0  0  0  0
  141.3180   78.0720  220.8780 C   0  0  0  0  0  0  0  0  0  0  0  0
  140.8530   76.7460  220.5300 N   0  0  0  0  0  0  0  0  0  0  0  0
  140.3640   75.8080  221.4790 C   0  0  0  0  0  0  0  0  0  0  0  0
  140.2950   76.0520  222.7080 O   0  0  0  0  0  0  0  0  0  0  0  0
  139.9000   74.4590  221.0400 C   0  0  0  0  0  0  0  0  0  0  0  0
  139.8200   73.5950  222.1910 N   0  0  0  0  0  0  0  0  0  0  0  0
  140.0670   72.2150  222.0730 C   0  0  0  0  0  0  0  0  0  0  0  0
  140.3700   71.6380  220.9880 O   0  0  0  0  0  0  0  0  0  0  0  0
  139.9730   71.3700  223.2780 C   0  0  0  0  0  0  0  0  0  0  0  0
  139.4360   70.1030  223.2390 C   0  0  0  0  0  0  0  0  0  0  0  0
  139.3310   69.2840  224.3440 C   0  0  0  0  0  0  0  0  0  0  0  0
  139.7920   69.7670  225.5500 C   0  0  0  0  0  0  0  0  0  0  0  0
  139.7390   69.0380  226.7250 C   0  0  0  0  0  0  0  0  0  0  0  0
  140.2060   69.5410  227.9250 C   0  0  0  0  0  0  0  0  0  0  0  0
  140.1590   68.8340  229.0780 F   0  0  0  0  0  0  0  0  0  0  0  0
  140.7390   70.8120  227.9390 C   0  0  0  0  0  0  0  0  0  0  0  0
  140.7890   71.5350  226.7640 C   0  0  0  0  0  0  0  0  0  0  0  0
  140.3260   71.0400  225.5630 C   0  0  0  0  0  0  0  0  0  0  0  0
  140.4140   71.8150  224.4670 N   0  0  0  0  0  0  0  0  0  0  0  0
  143.4573   78.9311  217.8949 H   0  0  0  0  0  0  0  0  0  0  0  0
  142.9388   77.5444  216.8775 H   0  0  0  0  0  0  0  0  0  0  0  0
  141.9830   79.0653  216.8775 H   0  0  0  0  0  0  0  0  0  0  0  0
  142.8351   79.1043  219.8231 H   0  0  0  0  0  0  0  0  0  0  0  0
  141.1162   79.5661  219.4163 H   0  0  0  0  0  0  0  0  0  0  0  0
  142.1353   77.9977  221.6105 H   0  0  0  0  0  0  0  0  0  0  0  0
  140.4958   78.6546  221.3191 H   0  0  0  0  0  0  0  0  0  0  0  0
  140.8580   76.4100  219.5200 H   0  0  0  0  0  0  0  0  0  0  0  0
  138.9079   74.5439  220.5724 H   0  0  0  0  0  0  0  0  0  0  0  0
  140.6079   74.0412  220.3090 H   0  0  0  0  0  0  0  0  0  0  0  0
  139.5710   74.0320  223.1100 H   0  0  0  0  0  0  0  0  0  0  0  0
  139.0706   69.7228  222.2736 H   0  0  0  0  0  0  0  0  0  0  0  0
  138.8935   68.2778  224.2653 H   0  0  0  0  0  0  0  0  0  0  0  0
  139.3112   68.0248  226.7035 H   0  0  0  0  0  0  0  0  0  0  0  0
  141.1201   71.2452  228.8755 H   0  0  0  0  0  0  0  0  0  0  0  0
  141.2161   72.5485  226.7867 H   0  0  0  0  0  0  0  0  0  0  0  0
  1  2  1  0
  2  3  1  0
  3  4  1  0
  4  5  1  0
  5  6  1  0
  6  7  2  0
  6  8  1  0
  8  9  1  0
  9 10  1  0
 10 11  2  0
 10 12  1  0
 12 13  2  0
 13 14  1  0
 14 15  2  0
 15 16  1  0
 16 17  2  0
 17 18  1  0
 17 19  1  0
 19 20  2  0
 20 21  1  0
 21 22  2  0
 22 12  1  0
 21 15  1  0
  1 23  1  0
  1 24  1  0
  1 25  1  0
  3 26  1  0
  3 27  1  0
  4 28  1  0
  4 29  1  0
  5 30  1  0
  8 31  1  0
  8 32  1  0
  9 33  1  0
 13 34  1  0
 14 35  1  0
 16 36  1  0
 19 37  1  0
 20 38  1  0
M  END
>  <smiles>  (20) 
COCCNC(=O)CNC(=O)c1ccc2cc(F)ccc2n1

>  <score_type>  (20) 
oracle

>  <origin>  (20) 
autodockgpu

>  <m_score__min__energy>  (20) 
-6.71

>  <m_primary>  (20) 
energy

>  <rmsd>  (20) 
2.2678154951350527

>  <m_score__min__rmsd>  (20) 
2.2678154951350527

>  <meeko>  (20) 
{"free_energy": -5.45, "intermolecular_energy": -7.24, "internal_energy": -2.22, "cluster_size": 39, "cluster_id": 1, "rank_in_cluster": 30}

>  <energy>  (20) 
-5.57

>  <cluster_rmsd>  (20) 
1.42

>  <cluster>  (20) 
1

$$$$

     RDKit          3D

 38 39  0  0  0  0  0  0  0  0999 V2000
  143.8490   71.3270  219.8280 C   0  0  0  0  0  0  0  0  0  0  0  0
  143.8030   72.2400  220.8490 O   0  0  0  0  0  0  0  0  0  0  0  0
  144.5100   73.4060  220.5890 C   0  0  0  0  0  0  0  0  0  0  0  0
  143.6340   74.5990  220.3940 C   0  0  0  0  0  0  0  0  0  0  0  0
  142.2530   74.1840  220.5300 N   0  0  0  0  0  0  0  0  0  0  0  0
  141.2200   75.0310  221.0160 C   0  0  0  0  0  0  0  0  0  0  0  0
  141.4200   76.2180  221.3710 O   0  0  0  0  0  0  0  0  0  0  0  0
  139.8180   74.5300  221.1240 C   0  0  0  0  0  0  0  0  0  0  0  0
  139.7250   73.6420  222.2550 N   0  0  0  0  0  0  0  0  0  0  0  0
  140.2070   72.3230  222.1740 C   0  0  0  0  0  0  0  0  0  0  0  0
  140.7430   71.8240  221.1420 O   0  0  0  0  0  0  0  0  0  0  0  0
  140.0900   71.4490  223.3570 C   0  0  0  0  0  0  0  0  0  0  0  0
  139.5590   70.1810  223.2760 C   0  0  0  0  0  0  0  0  0  0  0  0
  139.4330   69.3360  224.3580 C   0  0  0  0  0  0  0  0  0  0  0  0
  139.8650   69.7930  225.5860 C   0  0  0  0  0  0  0  0  0  0  0  0
  139.7890   69.0360  226.7420 C   0  0  0  0  0  0  0  0  0  0  0  0
  140.2260   69.5120  227.9630 C   0  0  0  0  0  0  0  0  0  0  0  0
  140.1570   68.7780  229.0990 F   0  0  0  0  0  0  0  0  0  0  0  0
  140.7540   70.7840  228.0200 C   0  0  0  0  0  0  0  0  0  0  0  0
  140.8270   71.5360  226.8630 C   0  0  0  0  0  0  0  0  0  0  0  0
  140.3920   71.0670  225.6410 C   0  0  0  0  0  0  0  0  0  0  0  0
  140.5020   71.8670  224.5660 N   0  0  0  0  0  0  0  0  0  0  0  0
  143.9002   70.3111  220.2466 H   0  0  0  0  0  0  0  0  0  0  0  0
  142.9449   71.4234  219.2089 H   0  0  0  0  0  0  0  0  0  0  0  0
  144.7389   71.5138  219.2089 H   0  0  0  0  0  0  0  0  0  0  0  0
  145.1829   73.6022  221.4368 H   0  0  0  0  0  0  0  0  0  0  0  0
  145.0601   73.2497  219.6493 H   0  0  0  0  0  0  0  0  0  0  0  0
  143.8691   75.3597  221.1530 H   0  0  0  0  0  0  0  0  0  0  0  0
  143.8010   75.0293  219.3955 H   0  0  0  0  0  0  0  0  0  0  0  0
  141.9460   73.2010  220.2630 H   0  0  0  0  0  0  0  0  0  0  0  0
  139.1324   75.3788  221.2637 H   0  0  0  0  0  0  0  0  0  0  0  0
  139.5427   73.9924  220.2047 H   0  0  0  0  0  0  0  0  0  0  0  0
  139.2860   74.0140  223.1310 H   0  0  0  0  0  0  0  0  0  0  0  0
  139.2166   69.8226  222.2940 H   0  0  0  0  0  0  0  0  0  0  0  0
  139.0020   68.3302  224.2459 H   0  0  0  0  0  0  0  0  0  0  0  0
  139.3667   68.0218  226.6868 H   0  0  0  0  0  0  0  0  0  0  0  0
  141.1129   71.1955  228.9749 H   0  0  0  0  0  0  0  0  0  0  0  0
  141.2493   72.5502  226.9188 H   0  0  0  0  0  0  0  0  0  0  0  0
  1  2  1  0
  2  3  1  0
  3  4  1  0
  4  5  1  0
  5  6  1  0
  6  7  2  0
  6  8  1  0
  8  9  1  0
  9 10  1  0
 10 11  2  0
 10 12  1  0
 12 13  2  0
 13 14  1  0
 14 15  2  0
 15 16  1  0
 16 17  2  0
 17 18  1  0
 17 19  1  0
 19 20  2  0
 20 21  1  0
 21 22  2  0
 22 12  1  0
 21 15  1  0
  1 23  1  0
  1 24  1  0
  1 25  1  0
  3 26  1  0
  3 27  1  0
  4 28  1  0
  4 29  1  0
  5 30  1  0
  8 31  1  0
  8 32  1  0
  9 33  1  0
 13 34  1  0
 14 35  1  0
 16 36  1  0
 19 37  1  0
 20 38  1  0
M  END
>  <smiles>  (21) 
COCCNC(=O)CNC(=O)c1ccc2cc(F)ccc2n1

>  <score_type>  (21) 
oracle

>  <origin>  (21) 
autodockgpu

>  <m_score__min__energy>  (21) 
-6.71

>  <m_primary>  (21) 
energy

>  <rmsd>  (21) 
2.661870697628432

>  <m_score__min__rmsd>  (21) 
2.661870697628432

>  <meeko>  (21) 
{"free_energy": -5.49, "intermolecular_energy": -7.28, "internal_energy": -2.48, "cluster_size": 39, "cluster_id": 1, "rank_in_cluster": 27}

>  <energy>  (21) 
-5.55

>  <cluster_rmsd>  (21) 
1.5

>  <cluster>  (21) 
1

$$$$

     RDKit          3D

 38 39  0  0  0  0  0  0  0  0999 V2000
  140.5530   76.1750  221.7110 C   0  0  0  0  0  0  0  0  0  0  0  0
  139.7050   75.7420  222.6960 O   0  0  0  0  0  0  0  0  0  0  0  0
  138.5030   76.4360  222.7430 C   0  0  0  0  0  0  0  0  0  0  0  0
  137.3180   75.5880  222.4190 C   0  0  0  0  0  0  0  0  0  0  0  0
  137.7750   74.2420  222.1420 N   0  0  0  0  0  0  0  0  0  0  0  0
  136.9720   73.2500  221.5170 C   0  0  0  0  0  0  0  0  0  0  0  0
  135.7900   73.4590  221.1500 O   0  0  0  0  0  0  0  0  0  0  0  0
  137.5160   71.8830  221.2630 C   0  0  0  0  0  0  0  0  0  0  0  0
  138.0390   71.3520  222.4960 N   0  0  0  0  0  0  0  0  0  0  0  0
  139.2480   71.8330  223.0310 C   0  0  0  0  0  0  0  0  0  0  0  0
  139.9510   72.7400  222.4960 O   0  0  0  0  0  0  0  0  0  0  0  0
  139.7450   71.2590  224.2960 C   0  0  0  0  0  0  0  0  0  0  0  0
  140.7120   71.8850  225.0490 C   0  0  0  0  0  0  0  0  0  0  0  0
  141.2010   71.3800  226.2360 C   0  0  0  0  0  0  0  0  0  0  0  0
  140.6890   70.1820  226.6850 C   0  0  0  0  0  0  0  0  0  0  0  0
  141.1020   69.5770  227.8590 C   0  0  0  0  0  0  0  0  0  0  0  0
  140.5760   68.3750  228.2930 C   0  0  0  0  0  0  0  0  0  0  0  0
  140.9740   67.7770  229.4410 F   0  0  0  0  0  0  0  0  0  0  0  0
  139.6090   67.7670  227.5220 C   0  0  0  0  0  0  0  0  0  0  0  0
  139.2000   68.3740  226.3510 C   0  0  0  0  0  0  0  0  0  0  0  0
  139.7200   69.5740  225.9120 C   0  0  0  0  0  0  0  0  0  0  0  0
  139.2640   70.0930  224.7580 N   0  0  0  0  0  0  0  0  0  0  0  0
  141.4440   76.6300  222.1682 H   0  0  0  0  0  0  0  0  0  0  0  0
  140.8564   75.3214  221.0870 H   0  0  0  0  0  0  0  0  0  0  0  0
  140.0395   76.9212  221.0870 H   0  0  0  0  0  0  0  0  0  0  0  0
  138.3743   76.8429  223.7568 H   0  0  0  0  0  0  0  0  0  0  0  0
  138.5544   77.2282  221.9816 H   0  0  0  0  0  0  0  0  0  0  0  0
  136.6261   75.5758  223.2741 H   0  0  0  0  0  0  0  0  0  0  0  0
  136.7933   75.9947  221.5419 H   0  0  0  0  0  0  0  0  0  0  0  0
  138.7580   73.9310  222.4030 H   0  0  0  0  0  0  0  0  0  0  0  0
  136.7133   71.2295  220.8906 H   0  0  0  0  0  0  0  0  0  0  0  0
  138.3165   71.9345  220.5103 H   0  0  0  0  0  0  0  0  0  0  0  0
  137.4880   70.5980  222.9730 H   0  0  0  0  0  0  0  0  0  0  0  0
  141.1172   72.8404  224.6844 H   0  0  0  0  0  0  0  0  0  0  0  0
  141.9744   71.9162  226.8055 H   0  0  0  0  0  0  0  0  0  0  0  0
  141.8750   70.0694  228.4673 H   0  0  0  0  0  0  0  0  0  0  0  0
  139.1681   66.8093  227.8357 H   0  0  0  0  0  0  0  0  0  0  0  0
  138.4276   67.8802  225.7431 H   0  0  0  0  0  0  0  0  0  0  0  0
  1  2  1  0
  2  3  1  0
  3  4  1  0
  4  5  1  0
  5  6  1  0
  6  7  2  0
  6  8  1  0
  8  9  1  0
  9 10  1  0
 10 11  2  0
 10 12  1  0
 12 13  2  0
 13 14  1  0
 14 15  2  0
 15 16  1  0
 16 17  2  0
 17 18  1  0
 17 19  1  0
 19 20  2  0
 20 21  1  0
 21 22  2  0
 22 12  1  0
 21 15  1  0
  1 23  1  0
  1 24  1  0
  1 25  1  0
  3 26  1  0
  3 27  1  0
  4 28  1  0
  4 29  1  0
  5 30  1  0
  8 31  1  0
  8 32  1  0
  9 33  1  0
 13 34  1  0
 14 35  1  0
 16 36  1  0
 19 37  1  0
 20 38  1  0
M  END
>  <smiles>  (22) 
COCCNC(=O)CNC(=O)c1ccc2cc(F)ccc2n1

>  <score_type>  (22) 
oracle

>  <origin>  (22) 
autodockgpu

>  <m_score__min__energy>  (22) 
-6.71

>  <m_primary>  (22) 
energy

>  <rmsd>  (22) 
3.658396624164401

>  <m_score__min__rmsd>  (22) 
3.658396624164401

>  <meeko>  (22) 
{"free_energy": -5.21, "intermolecular_energy": -7.0, "internal_energy": -2.56, "cluster_size": 7, "cluster_id": 3, "rank_in_cluster": 5}

>  <energy>  (22) 
-5.51

>  <cluster_rmsd>  (22) 
1.99

>  <cluster>  (22) 
1

$$$$

     RDKit          3D

 38 39  0  0  0  0  0  0  0  0999 V2000
  142.5380   78.6810  218.1870 C   0  0  0  0  0  0  0  0  0  0  0  0
  142.2360   77.9490  219.3050 O   0  0  0  0  0  0  0  0  0  0  0  0
  141.7840   78.7170  220.3710 C   0  0  0  0  0  0  0  0  0  0  0  0
  140.7440   78.0330  221.1940 C   0  0  0  0  0  0  0  0  0  0  0  0
  140.7010   76.6350  220.8170 N   0  0  0  0  0  0  0  0  0  0  0  0
  140.1140   75.6200  221.6190 C   0  0  0  0  0  0  0  0  0  0  0  0
  139.5790   75.8510  222.7300 O   0  0  0  0  0  0  0  0  0  0  0  0
  140.1080   74.2000  221.1600 C   0  0  0  0  0  0  0  0  0  0  0  0
  139.9150   73.3400  222.3010 N   0  0  0  0  0  0  0  0  0  0  0  0
  140.4260   72.0300  222.3080 C   0  0  0  0  0  0  0  0  0  0  0  0
  141.0740   71.5140  221.3510 O   0  0  0  0  0  0  0  0  0  0  0  0
  140.2040   71.1860  223.4980 C   0  0  0  0  0  0  0  0  0  0  0  0
  139.5140   69.9970  223.4280 C   0  0  0  0  0  0  0  0  0  0  0  0
  139.2860   69.1820  224.5180 C   0  0  0  0  0  0  0  0  0  0  0  0
  139.7800   69.5880  225.7390 C   0  0  0  0  0  0  0  0  0  0  0  0
  139.6140   68.8550  226.9010 C   0  0  0  0  0  0  0  0  0  0  0  0
  140.1160   69.2780  228.1170 C   0  0  0  0  0  0  0  0  0  0  0  0
  139.9590   68.5670  229.2580 F   0  0  0  0  0  0  0  0  0  0  0  0
  140.8040   70.4720  228.1620 C   0  0  0  0  0  0  0  0  0  0  0  0
  140.9670   71.2000  226.9990 C   0  0  0  0  0  0  0  0  0  0  0  0
  140.4680   70.7830  225.7830 C   0  0  0  0  0  0  0  0  0  0  0  0
  140.6740   71.5560  224.7010 N   0  0  0  0  0  0  0  0  0  0  0  0
  142.9416   79.6593  218.4872 H   0  0  0  0  0  0  0  0  0  0  0  0
  143.2877   78.1432  217.5881 H   0  0  0  0  0  0  0  0  0  0  0  0
  141.6272   78.8283  217.5881 H   0  0  0  0  0  0  0  0  0  0  0  0
  142.6411   78.9539  221.0185 H   0  0  0  0  0  0  0  0  0  0  0  0
  141.3212   79.6206  219.9476 H   0  0  0  0  0  0  0  0  0  0  0  0
  140.9983   78.1214  222.2605 H   0  0  0  0  0  0  0  0  0  0  0  0
  139.7625   78.4987  221.0216 H   0  0  0  0  0  0  0  0  0  0  0  0
  141.1200   76.3010  219.8980 H   0  0  0  0  0  0  0  0  0  0  0  0
  139.2897   74.0481  220.4408 H   0  0  0  0  0  0  0  0  0  0  0  0
  141.0650   73.9624  220.6725 H   0  0  0  0  0  0  0  0  0  0  0  0
  139.3830   73.7270  223.1160 H   0  0  0  0  0  0  0  0  0  0  0  0
  139.1231   69.6792  222.4501 H   0  0  0  0  0  0  0  0  0  0  0  0
  138.7283   68.2394  224.4158 H   0  0  0  0  0  0  0  0  0  0  0  0
  139.0639   67.9035  226.8551 H   0  0  0  0  0  0  0  0  0  0  0  0
  141.2181   70.8405  229.1121 H   0  0  0  0  0  0  0  0  0  0  0  0
  141.5174   72.1513  227.0450 H   0  0  0  0  0  0  0  0  0  0  0  0
  1  2  1  0
  2  3  1  0
  3  4  1  0
  4  5  1  0
  5  6  1  0
  6  7  2  0
  6  8  1  0
  8  9  1  0
  9 10  1  0
 10 11  2  0
 10 12  1  0
 12 13  2  0
 13 14  1  0
 14 15  2  0
 15 16  1  0
 16 17  2  0
 17 18  1  0
 17 19  1  0
 19 20  2  0
 20 21  1  0
 21 22  2  0
 22 12  1  0
 21 15  1  0
  1 23  1  0
  1 24  1  0
  1 25  1  0
  3 26  1  0
  3 27  1  0
  4 28  1  0
  4 29  1  0
  5 30  1  0
  8 31  1  0
  8 32  1  0
  9 33  1  0
 13 34  1  0
 14 35  1  0
 16 36  1  0
 19 37  1  0
 20 38  1  0
M  END
>  <smiles>  (23) 
COCCNC(=O)CNC(=O)c1ccc2cc(F)ccc2n1

>  <score_type>  (23) 
oracle

>  <origin>  (23) 
autodockgpu

>  <m_score__min__energy>  (23) 
-6.71

>  <m_primary>  (23) 
energy

>  <rmsd>  (23) 
2.3409231787311287

>  <m_score__min__rmsd>  (23) 
2.3409231787311287

>  <meeko>  (23) 
{"free_energy": -5.59, "intermolecular_energy": -7.38, "internal_energy": -2.13, "cluster_size": 39, "cluster_id": 1, "rank_in_cluster": 17}

>  <energy>  (23) 
-5.5

>  <cluster_rmsd>  (23) 
2.0

>  <cluster>  (23) 
1

$$$$

     RDKit          3D

 38 39  0  0  0  0  0  0  0  0999 V2000
  143.3300   76.3940  219.3020 C   0  0  0  0  0  0  0  0  0  0  0  0
  142.2410   77.1080  218.8770 O   0  0  0  0  0  0  0  0  0  0  0  0
  141.8750   78.1340  219.7390 C   0  0  0  0  0  0  0  0  0  0  0  0
  140.9510   77.6930  220.8250 C   0  0  0  0  0  0  0  0  0  0  0  0
  140.4960   76.3500  220.5280 N   0  0  0  0  0  0  0  0  0  0  0  0
  139.9850   75.4570  221.5070 C   0  0  0  0  0  0  0  0  0  0  0  0
  139.8840   75.7570  222.7210 O   0  0  0  0  0  0  0  0  0  0  0  0
  139.5330   74.0870  221.1210 C   0  0  0  0  0  0  0  0  0  0  0  0
  139.5780   73.2350  222.2820 N   0  0  0  0  0  0  0  0  0  0  0  0
  139.6610   71.8370  222.1450 C   0  0  0  0  0  0  0  0  0  0  0  0
  139.7010   71.2330  221.0330 O   0  0  0  0  0  0  0  0  0  0  0  0
  139.7060   71.0050  223.3620 C   0  0  0  0  0  0  0  0  0  0  0  0
  139.2160   69.7180  223.3820 C   0  0  0  0  0  0  0  0  0  0  0  0
  139.2400   68.9090  224.4990 C   0  0  0  0  0  0  0  0  0  0  0  0
  139.7850   69.4250  225.6550 C   0  0  0  0  0  0  0  0  0  0  0  0
  139.8630   68.7100  226.8370 C   0  0  0  0  0  0  0  0  0  0  0  0
  140.4140   69.2450  227.9860 C   0  0  0  0  0  0  0  0  0  0  0  0
  140.4950   68.5520  229.1470 F   0  0  0  0  0  0  0  0  0  0  0  0
  140.8970   70.5350  227.9420 C   0  0  0  0  0  0  0  0  0  0  0  0
  140.8170   71.2450  226.7600 C   0  0  0  0  0  0  0  0  0  0  0  0
  140.2690   70.7170  225.6100 C   0  0  0  0  0  0  0  0  0  0  0  0
  140.2310   71.4800  224.5030 N   0  0  0  0  0  0  0  0  0  0  0  0
  143.3524   76.3793  220.4017 H   0  0  0  0  0  0  0  0  0  0  0  0
  143.2636   75.3636  218.9228 H   0  0  0  0  0  0  0  0  0  0  0  0
  144.2485   76.8658  218.9228 H   0  0  0  0  0  0  0  0  0  0  0  0
  142.7857   78.5434  220.2006 H   0  0  0  0  0  0  0  0  0  0  0  0
  141.3388   78.8855  219.1409 H   0  0  0  0  0  0  0  0  0  0  0  0
  141.4816   77.6999  221.7885 H   0  0  0  0  0  0  0  0  0  0  0  0
  140.0909   78.3760  220.8869 H   0  0  0  0  0  0  0  0  0  0  0  0
  140.5260   75.9670  219.5360 H   0  0  0  0  0  0  0  0  0  0  0  0
  138.5034   74.1328  220.7365 H   0  0  0  0  0  0  0  0  0  0  0  0
  140.1925   73.6843  220.3381 H   0  0  0  0  0  0  0  0  0  0  0  0
  139.5470   73.6940  223.2230 H   0  0  0  0  0  0  0  0  0  0  0  0
  138.7816   69.3129  222.4562 H   0  0  0  0  0  0  0  0  0  0  0  0
  138.8375   67.8858  224.4681 H   0  0  0  0  0  0  0  0  0  0  0  0
  139.4735   67.6816  226.8631 H   0  0  0  0  0  0  0  0  0  0  0  0
  141.3410   70.9938  228.8377 H   0  0  0  0  0  0  0  0  0  0  0  0
  141.2063   72.2735  226.7349 H   0  0  0  0  0  0  0  0  0  0  0  0
  1  2  1  0
  2  3  1  0
  3  4  1  0
  4  5  1  0
  5  6  1  0
  6  7  2  0
  6  8  1  0
  8  9  1  0
  9 10  1  0
 10 11  2  0
 10 12  1  0
 12 13  2  0
 13 14  1  0
 14 15  2  0
 15 16  1  0
 16 17  2  0
 17 18  1  0
 17 19  1  0
 19 20  2  0
 20 21  1  0
 21 22  2  0
 22 12  1  0
 21 15  1  0
  1 23  1  0
  1 24  1  0
  1 25  1  0
  3 26  1  0
  3 27  1  0
  4 28  1  0
  4 29  1  0
  5 30  1  0
  8 31  1  0
  8 32  1  0
  9 33  1  0
 13 34  1  0
 14 35  1  0
 16 36  1  0
 19 37  1  0
 20 38  1  0
M  END
>  <smiles>  (24) 
COCCNC(=O)CNC(=O)c1ccc2cc(F)ccc2n1

>  <score_type>  (24) 
oracle

>  <origin>  (24) 
autodockgpu

>  <m_score__min__energy>  (24) 
-6.71

>  <m_primary>  (24) 
energy

>  <rmsd>  (24) 
2.003963929077609

>  <m_score__min__rmsd>  (24) 
2.003963929077609

>  <meeko>  (24) 
{"free_energy": -5.42, "intermolecular_energy": -7.21, "internal_energy": -2.27, "cluster_size": 39, "cluster_id": 1, "rank_in_cluster": 32}

>  <energy>  (24) 
-5.5

>  <cluster_rmsd>  (24) 
1.58

>  <cluster>  (24) 
1

$$$$

     RDKit          3D

 38 39  0  0  0  0  0  0  0  0999 V2000
  143.9640   71.2170  220.0540 C   0  0  0  0  0  0  0  0  0  0  0  0
  143.7720   72.2630  220.9190 O   0  0  0  0  0  0  0  0  0  0  0  0
  144.4310   73.4270  220.5430 C   0  0  0  0  0  0  0  0  0  0  0  0
  143.5320   74.6160  220.4650 C   0  0  0  0  0  0  0  0  0  0  0  0
  142.1610   74.1690  220.6060 N   0  0  0  0  0  0  0  0  0  0  0  0
  141.0860   75.0280  220.9600 C   0  0  0  0  0  0  0  0  0  0  0  0
  141.2340   76.2540  221.1820 O   0  0  0  0  0  0  0  0  0  0  0  0
  139.6980   74.4920  221.0840 C   0  0  0  0  0  0  0  0  0  0  0  0
  139.6360   73.6110  222.2240 N   0  0  0  0  0  0  0  0  0  0  0  0
  140.1770   72.3150  222.1600 C   0  0  0  0  0  0  0  0  0  0  0  0
  140.7420   71.8290  221.1370 O   0  0  0  0  0  0  0  0  0  0  0  0
  140.0900   71.4490  223.3520 C   0  0  0  0  0  0  0  0  0  0  0  0
  139.5160   70.1990  223.3030 C   0  0  0  0  0  0  0  0  0  0  0  0
  139.4160   69.3610  224.3940 C   0  0  0  0  0  0  0  0  0  0  0  0
  139.9220   69.8080  225.5970 C   0  0  0  0  0  0  0  0  0  0  0  0
  139.8790   69.0580  226.7590 C   0  0  0  0  0  0  0  0  0  0  0  0
  140.3920   69.5240  227.9550 C   0  0  0  0  0  0  0  0  0  0  0  0
  140.3550   68.7960  229.0960 F   0  0  0  0  0  0  0  0  0  0  0  0
  140.9620   70.7780  227.9790 C   0  0  0  0  0  0  0  0  0  0  0  0
  141.0020   71.5230  226.8160 C   0  0  0  0  0  0  0  0  0  0  0  0
  140.4930   71.0650  225.6190 C   0  0  0  0  0  0  0  0  0  0  0  0
  140.5750   71.8580  224.5360 N   0  0  0  0  0  0  0  0  0  0  0  0
  144.1335   70.2936  220.6272 H   0  0  0  0  0  0  0  0  0  0  0  0
  143.0729   71.0969  219.4204 H   0  0  0  0  0  0  0  0  0  0  0  0
  144.8397   71.4212  219.4204 H   0  0  0  0  0  0  0  0  0  0  0  0
  145.2210   73.6344  221.2798 H   0  0  0  0  0  0  0  0  0  0  0  0
  144.8378   73.2597  219.5348 H   0  0  0  0  0  0  0  0  0  0  0  0
  143.7774   75.3198  221.2740 H   0  0  0  0  0  0  0  0  0  0  0  0
  143.6640   75.1241  219.4984 H   0  0  0  0  0  0  0  0  0  0  0  0
  141.8960   73.1520  220.4460 H   0  0  0  0  0  0  0  0  0  0  0  0
  138.9921   75.3242  221.2220 H   0  0  0  0  0  0  0  0  0  0  0  0
  139.4298   73.9392  220.1716 H   0  0  0  0  0  0  0  0  0  0  0  0
  139.1750   73.9740  223.0920 H   0  0  0  0  0  0  0  0  0  0  0  0
  139.1148   69.8489  222.3405 H   0  0  0  0  0  0  0  0  0  0  0  0
  138.9483   68.3691  224.3077 H   0  0  0  0  0  0  0  0  0  0  0  0
  139.4215   68.0581  226.7301 H   0  0  0  0  0  0  0  0  0  0  0  0
  141.3803   71.1814  228.9130 H   0  0  0  0  0  0  0  0  0  0  0  0
  141.4589   72.5232  226.8462 H   0  0  0  0  0  0  0  0  0  0  0  0
  1  2  1  0
  2  3  1  0
  3  4  1  0
  4  5  1  0
  5  6  1  0
  6  7  2  0
  6  8  1  0
  8  9  1  0
  9 10  1  0
 10 11  2  0
 10 12  1  0
 12 13  2  0
 13 14  1  0
 14 15  2  0
 15 16  1  0
 16 17  2  0
 17 18  1  0
 17 19  1  0
 19 20  2  0
 20 21  1  0
 21 22  2  0
 22 12  1  0
 21 15  1  0
  1 23  1  0
  1 24  1  0
  1 25  1  0
  3 26  1  0
  3 27  1  0
  4 28  1  0
  4 29  1  0
  5 30  1  0
  8 31  1  0
  8 32  1  0
  9 33  1  0
 13 34  1  0
 14 35  1  0
 16 36  1  0
 19 37  1  0
 20 38  1  0
M  END
>  <smiles>  (25) 
COCCNC(=O)CNC(=O)c1ccc2cc(F)ccc2n1

>  <score_type>  (25) 
oracle

>  <origin>  (25) 
autodockgpu

>  <m_score__min__energy>  (25) 
-6.71

>  <m_primary>  (25) 
energy

>  <rmsd>  (25) 
2.6195502228552314

>  <m_score__min__rmsd>  (25) 
2.6195502228552314

>  <meeko>  (25) 
{"free_energy": -5.49, "intermolecular_energy": -7.28, "internal_energy": -2.47, "cluster_size": 39, "cluster_id": 1, "rank_in_cluster": 28}

>  <energy>  (25) 
-5.5

>  <cluster_rmsd>  (25) 
1.92

>  <cluster>  (25) 
1

$$$$

     RDKit          3D

 38 39  0  0  0  0  0  0  0  0999 V2000
  141.8190   79.3880  219.4380 C   0  0  0  0  0  0  0  0  0  0  0  0
  142.1550   78.6910  220.5690 O   0  0  0  0  0  0  0  0  0  0  0  0
  141.7040   79.2800  221.7430 C   0  0  0  0  0  0  0  0  0  0  0  0
  140.9520   78.3390  222.6250 C   0  0  0  0  0  0  0  0  0  0  0  0
  140.9630   77.0250  222.0160 N   0  0  0  0  0  0  0  0  0  0  0  0
  139.8390   76.1560  221.9980 C   0  0  0  0  0  0  0  0  0  0  0  0
  138.7340   76.4560  222.5120 O   0  0  0  0  0  0  0  0  0  0  0  0
  139.9280   74.8160  221.3470 C   0  0  0  0  0  0  0  0  0  0  0  0
  139.7350   73.7960  222.3470 N   0  0  0  0  0  0  0  0  0  0  0  0
  140.5370   72.6410  222.3590 C   0  0  0  0  0  0  0  0  0  0  0  0
  141.4600   72.4070  221.5250 O   0  0  0  0  0  0  0  0  0  0  0  0
  140.3040   71.6240  223.4020 C   0  0  0  0  0  0  0  0  0  0  0  0
  139.6640   70.4360  223.1300 C   0  0  0  0  0  0  0  0  0  0  0  0
  139.4270   69.4620  224.0780 C   0  0  0  0  0  0  0  0  0  0  0  0
  139.8590   69.6990  225.3660 C   0  0  0  0  0  0  0  0  0  0  0  0
  139.6780   68.7970  226.4000 C   0  0  0  0  0  0  0  0  0  0  0  0
  140.1180   69.0530  227.6850 C   0  0  0  0  0  0  0  0  0  0  0  0
  139.9460   68.1760  228.7020 F   0  0  0  0  0  0  0  0  0  0  0  0
  140.7560   70.2490  227.9330 C   0  0  0  0  0  0  0  0  0  0  0  0
  140.9340   71.1460  226.8970 C   0  0  0  0  0  0  0  0  0  0  0  0
  140.4980   70.8970  225.6130 C   0  0  0  0  0  0  0  0  0  0  0  0
  140.7130   71.8270  224.6660 N   0  0  0  0  0  0  0  0  0  0  0  0
  141.3574   80.3455  219.7210 H   0  0  0  0  0  0  0  0  0  0  0  0
  142.7240   79.5790  218.8426 H   0  0  0  0  0  0  0  0  0  0  0  0
  141.1059   78.7990  218.8426 H   0  0  0  0  0  0  0  0  0  0  0  0
  142.5735   79.6603  222.2992 H   0  0  0  0  0  0  0  0  0  0  0  0
  141.0099   80.0844  221.4581 H   0  0  0  0  0  0  0  0  0  0  0  0
  141.4329   78.2933  223.6133 H   0  0  0  0  0  0  0  0  0  0  0  0
  139.9158   78.6870  222.7483 H   0  0  0  0  0  0  0  0  0  0  0  0
  141.8370   76.6460  221.5430 H   0  0  0  0  0  0  0  0  0  0  0  0
  139.1491   74.7282  220.5752 H   0  0  0  0  0  0  0  0  0  0  0  0
  140.9155   74.6951  220.8778 H   0  0  0  0  0  0  0  0  0  0  0  0
  138.9810   73.9490  223.0580 H   0  0  0  0  0  0  0  0  0  0  0  0
  139.3228   70.2532  222.1004 H   0  0  0  0  0  0  0  0  0  0  0  0
  138.9104   68.5271  223.8151 H   0  0  0  0  0  0  0  0  0  0  0  0
  139.1672   67.8452  226.1923 H   0  0  0  0  0  0  0  0  0  0  0  0
  141.1193   70.4869  228.9437 H   0  0  0  0  0  0  0  0  0  0  0  0
  141.4446   72.0978  227.1054 H   0  0  0  0  0  0  0  0  0  0  0  0
  1  2  1  0
  2  3  1  0
  3  4  1  0
  4  5  1  0
  5  6  1  0
  6  7  2  0
  6  8  1  0
  8  9  1  0
  9 10  1  0
 10 11  2  0
 10 12  1  0
 12 13  2  0
 13 14  1  0
 14 15  2  0
 15 16  1  0
 16 17  2  0
 17 18  1  0
 17 19  1  0
 19 20  2  0
 20 21  1  0
 21 22  2  0
 22 12  1  0
 21 15  1  0
  1 23  1  0
  1 24  1  0
  1 25  1  0
  3 26  1  0
  3 27  1  0
  4 28  1  0
  4 29  1  0
  5 30  1  0
  8 31  1  0
  8 32  1  0
  9 33  1  0
 13 34  1  0
 14 35  1  0
 16 36  1  0
 19 37  1  0
 20 38  1  0
M  END
>  <smiles>  (26) 
COCCNC(=O)CNC(=O)c1ccc2cc(F)ccc2n1

>  <score_type>  (26) 
oracle

>  <origin>  (26) 
autodockgpu

>  <m_score__min__energy>  (26) 
-6.71

>  <m_primary>  (26) 
energy

>  <rmsd>  (26) 
2.9070276671066644

>  <m_score__min__rmsd>  (26) 
2.9070276671066644

>  <meeko>  (26) 
{"free_energy": -6.2, "intermolecular_energy": -7.99, "internal_energy": -1.59, "cluster_size": 39, "cluster_id": 1, "rank_in_cluster": 5}

>  <energy>  (26) 
-5.49

>  <cluster_rmsd>  (26) 
1.87

>  <cluster>  (26) 
1

$$$$

     RDKit          3D

 38 39  0  0  0  0  0  0  0  0999 V2000
  142.9230   80.5200  223.6280 C   0  0  0  0  0  0  0  0  0  0  0  0
  141.9420   80.3380  222.6890 O   0  0  0  0  0  0  0  0  0  0  0  0
  141.9170   79.0600  222.1460 C   0  0  0  0  0  0  0  0  0  0  0  0
  140.7390   78.2540  222.5830 C   0  0  0  0  0  0  0  0  0  0  0  0
  140.9060   76.8960  222.1080 N   0  0  0  0  0  0  0  0  0  0  0  0
  139.8260   76.0580  221.7230 C   0  0  0  0  0  0  0  0  0  0  0  0
  138.6270   76.4260  221.7610 O   0  0  0  0  0  0  0  0  0  0  0  0
  140.0800   74.6680  221.2410 C   0  0  0  0  0  0  0  0  0  0  0  0
  139.9220   73.7540  222.3450 N   0  0  0  0  0  0  0  0  0  0  0  0
  140.3360   72.4140  222.2330 C   0  0  0  0  0  0  0  0  0  0  0  0
  140.8610   71.9170  221.1940 O   0  0  0  0  0  0  0  0  0  0  0  0
  140.1540   71.5160  223.3890 C   0  0  0  0  0  0  0  0  0  0  0  0
  139.5780   70.2720  223.2600 C   0  0  0  0  0  0  0  0  0  0  0  0
  139.3910   69.4040  224.3160 C   0  0  0  0  0  0  0  0  0  0  0  0
  139.8080   69.8120  225.5660 C   0  0  0  0  0  0  0  0  0  0  0  0
  139.6730   69.0300  226.6990 C   0  0  0  0  0  0  0  0  0  0  0  0
  140.0970   69.4570  227.9430 C   0  0  0  0  0  0  0  0  0  0  0  0
  139.9700   68.6970  229.0560 F   0  0  0  0  0  0  0  0  0  0  0  0
  140.6710   70.7050  228.0470 C   0  0  0  0  0  0  0  0  0  0  0  0
  140.8030   71.4830  226.9130 C   0  0  0  0  0  0  0  0  0  0  0  0
  140.3830   71.0630  225.6680 C   0  0  0  0  0  0  0  0  0  0  0  0
  140.5510   71.8860  224.6180 N   0  0  0  0  0  0  0  0  0  0  0  0
  142.4867   80.4390  224.6345 H   0  0  0  0  0  0  0  0  0  0  0  0
  143.6988   79.7505  223.5017 H   0  0  0  0  0  0  0  0  0  0  0  0
  143.3711   81.5166  223.5017 H   0  0  0  0  0  0  0  0  0  0  0  0
  141.8927   79.1472  221.0497 H   0  0  0  0  0  0  0  0  0  0  0  0
  142.8178   78.5381  222.5013 H   0  0  0  0  0  0  0  0  0  0  0  0
  140.6747   78.2572  223.6811 H   0  0  0  0  0  0  0  0  0  0  0  0
  139.8149   78.6853  222.1706 H   0  0  0  0  0  0  0  0  0  0  0  0
  141.8720   76.4580  222.0270 H   0  0  0  0  0  0  0  0  0  0  0  0
  139.3617   74.4156  220.4471 H   0  0  0  0  0  0  0  0  0  0  0  0
  141.1014   74.5939  220.8394 H   0  0  0  0  0  0  0  0  0  0  0  0
  139.4910   74.1250  223.2240 H   0  0  0  0  0  0  0  0  0  0  0  0
  139.2489   69.9527  222.2601 H   0  0  0  0  0  0  0  0  0  0  0  0
  138.9248   68.4190  224.1661 H   0  0  0  0  0  0  0  0  0  0  0  0
  139.2128   68.0351  226.6067 H   0  0  0  0  0  0  0  0  0  0  0  0
  141.0201   71.0776  229.0213 H   0  0  0  0  0  0  0  0  0  0  0  0
  141.2619   72.4783  227.0067 H   0  0  0  0  0  0  0  0  0  0  0  0
  1  2  1  0
  2  3  1  0
  3  4  1  0
  4  5  1  0
  5  6  1  0
  6  7  2  0
  6  8  1  0
  8  9  1  0
  9 10  1  0
 10 11  2  0
 10 12  1  0
 12 13  2  0
 13 14  1  0
 14 15  2  0
 15 16  1  0
 16 17  2  0
 17 18  1  0
 17 19  1  0
 19 20  2  0
 20 21  1  0
 21 22  2  0
 22 12  1  0
 21 15  1  0
  1 23  1  0
  1 24  1  0
  1 25  1  0
  3 26  1  0
  3 27  1  0
  4 28  1  0
  4 29  1  0
  5 30  1  0
  8 31  1  0
  8 32  1  0
  9 33  1  0
 13 34  1  0
 14 35  1  0
 16 36  1  0
 19 37  1  0
 20 38  1  0
M  END
>  <smiles>  (27) 
COCCNC(=O)CNC(=O)c1ccc2cc(F)ccc2n1

>  <score_type>  (27) 
oracle

>  <origin>  (27) 
autodockgpu

>  <m_score__min__energy>  (27) 
-6.71

>  <m_primary>  (27) 
energy

>  <rmsd>  (27) 
2.7268623232489686

>  <m_score__min__rmsd>  (27) 
2.7268623232489686

>  <meeko>  (27) 
{"free_energy": -6.71, "intermolecular_energy": -8.5, "internal_energy": -0.84, "cluster_size": 39, "cluster_id": 1, "rank_in_cluster": 1}

>  <energy>  (27) 
-5.49

>  <cluster_rmsd>  (27) 
1.99

>  <cluster>  (27) 
1

$$$$

     RDKit          3D

 38 39  0  0  0  0  0  0  0  0999 V2000
  142.5880   78.3740  217.8630 C   0  0  0  0  0  0  0  0  0  0  0  0
  142.1940   77.7450  219.0150 O   0  0  0  0  0  0  0  0  0  0  0  0
  141.8020   78.6170  220.0220 C   0  0  0  0  0  0  0  0  0  0  0  0
  140.9930   77.9610  221.0910 C   0  0  0  0  0  0  0  0  0  0  0  0
  140.7570   76.5830  220.7120 N   0  0  0  0  0  0  0  0  0  0  0  0
  140.1500   75.6240  221.5670 C   0  0  0  0  0  0  0  0  0  0  0  0
  139.7640   75.8920  222.7300 O   0  0  0  0  0  0  0  0  0  0  0  0
  139.9390   74.2210  221.1020 C   0  0  0  0  0  0  0  0  0  0  0  0
  139.8310   73.3580  222.2520 N   0  0  0  0  0  0  0  0  0  0  0  0
  140.1140   71.9840  222.1480 C   0  0  0  0  0  0  0  0  0  0  0  0
  140.4730   71.4110  221.0780 O   0  0  0  0  0  0  0  0  0  0  0  0
  139.9900   71.1400  223.3520 C   0  0  0  0  0  0  0  0  0  0  0  0
  139.4140   69.8910  223.3080 C   0  0  0  0  0  0  0  0  0  0  0  0
  139.2800   69.0730  224.4110 C   0  0  0  0  0  0  0  0  0  0  0  0
  139.7510   69.5400  225.6200 C   0  0  0  0  0  0  0  0  0  0  0  0
  139.6720   68.8110  226.7930 C   0  0  0  0  0  0  0  0  0  0  0  0
  140.1500   69.2970  227.9950 C   0  0  0  0  0  0  0  0  0  0  0  0
  140.0780   68.5900  229.1480 F   0  0  0  0  0  0  0  0  0  0  0  0
  140.7230   70.5510  228.0140 C   0  0  0  0  0  0  0  0  0  0  0  0
  140.7990   71.2740  226.8400 C   0  0  0  0  0  0  0  0  0  0  0  0
  140.3240   70.7960  225.6370 C   0  0  0  0  0  0  0  0  0  0  0  0
  140.4400   71.5690  224.5430 N   0  0  0  0  0  0  0  0  0  0  0  0
  143.1562   79.2811  218.1165 H   0  0  0  0  0  0  0  0  0  0  0  0
  143.2232   77.6961  217.2739 H   0  0  0  0  0  0  0  0  0  0  0  0
  141.7009   78.6497  217.2739 H   0  0  0  0  0  0  0  0  0  0  0  0
  142.7040   79.0473  220.4816 H   0  0  0  0  0  0  0  0  0  0  0  0
  141.1658   79.3850  219.5578 H   0  0  0  0  0  0  0  0  0  0  0  0
  141.5414   77.9945  222.0440 H   0  0  0  0  0  0  0  0  0  0  0  0
  140.0344   78.4867  221.2128 H   0  0  0  0  0  0  0  0  0  0  0  0
  141.0370   76.2220  219.7520 H   0  0  0  0  0  0  0  0  0  0  0  0
  139.0140   74.1638  220.5095 H   0  0  0  0  0  0  0  0  0  0  0  0
  140.7872   73.9043  220.4773 H   0  0  0  0  0  0  0  0  0  0  0  0
  139.5360   73.7920  223.1580 H   0  0  0  0  0  0  0  0  0  0  0  0
  139.0400   69.5247  222.3406 H   0  0  0  0  0  0  0  0  0  0  0  0
  138.8127   68.0806  224.3286 H   0  0  0  0  0  0  0  0  0  0  0  0
  139.2135   67.8114  226.7681 H   0  0  0  0  0  0  0  0  0  0  0  0
  141.1147   70.9702  228.9526 H   0  0  0  0  0  0  0  0  0  0  0  0
  141.2578   72.2734  226.8656 H   0  0  0  0  0  0  0  0  0  0  0  0
  1  2  1  0
  2  3  1  0
  3  4  1  0
  4  5  1  0
  5  6  1  0
  6  7  2  0
  6  8  1  0
  8  9  1  0
  9 10  1  0
 10 11  2  0
 10 12  1  0
 12 13  2  0
 13 14  1  0
 14 15  2  0
 15 16  1  0
 16 17  2  0
 17 18  1  0
 17 19  1  0
 19 20  2  0
 20 21  1  0
 21 22  2  0
 22 12  1  0
 21 15  1  0
  1 23  1  0
  1 24  1  0
  1 25  1  0
  3 26  1  0
  3 27  1  0
  4 28  1  0
  4 29  1  0
  5 30  1  0
  8 31  1  0
  8 32  1  0
  9 33  1  0
 13 34  1  0
 14 35  1  0
 16 36  1  0
 19 37  1  0
 20 38  1  0
M  END
>  <smiles>  (28) 
COCCNC(=O)CNC(=O)c1ccc2cc(F)ccc2n1

>  <score_type>  (28) 
oracle

>  <origin>  (28) 
autodockgpu

>  <m_score__min__energy>  (28) 
-6.71

>  <m_primary>  (28) 
energy

>  <rmsd>  (28) 
2.2371444401246006

>  <m_score__min__rmsd>  (28) 
2.2371444401246006

>  <meeko>  (28) 
{"free_energy": -5.5, "intermolecular_energy": -7.29, "internal_energy": -2.21, "cluster_size": 39, "cluster_id": 1, "rank_in_cluster": 24}

>  <energy>  (28) 
-5.49

>  <cluster_rmsd>  (28) 
1.96

>  <cluster>  (28) 
1

$$$$

     RDKit          3D

 38 39  0  0  0  0  0  0  0  0999 V2000
  142.5670   79.0340  218.2190 C   0  0  0  0  0  0  0  0  0  0  0  0
  141.7420   78.4160  219.1220 O   0  0  0  0  0  0  0  0  0  0  0  0
  141.5340   79.1500  220.2830 C   0  0  0  0  0  0  0  0  0  0  0  0
  141.2380   78.3020  221.4740 C   0  0  0  0  0  0  0  0  0  0  0  0
  141.1170   76.9240  221.0430 N   0  0  0  0  0  0  0  0  0  0  0  0
  140.3030   75.9620  221.6970 C   0  0  0  0  0  0  0  0  0  0  0  0
  139.6140   76.2260  222.7120 O   0  0  0  0  0  0  0  0  0  0  0  0
  140.2290   74.5600  221.1900 C   0  0  0  0  0  0  0  0  0  0  0  0
  140.0320   73.6680  222.3050 N   0  0  0  0  0  0  0  0  0  0  0  0
  140.4790   72.3360  222.2470 C   0  0  0  0  0  0  0  0  0  0  0  0
  141.0700   71.8260  221.2500 O   0  0  0  0  0  0  0  0  0  0  0  0
  140.2550   71.4600  223.4120 C   0  0  0  0  0  0  0  0  0  0  0  0
  139.5820   70.2640  223.3050 C   0  0  0  0  0  0  0  0  0  0  0  0
  139.3530   69.4180  224.3710 C   0  0  0  0  0  0  0  0  0  0  0  0
  139.8270   69.7990  225.6080 C   0  0  0  0  0  0  0  0  0  0  0  0
  139.6580   69.0350  226.7490 C   0  0  0  0  0  0  0  0  0  0  0  0
  140.1410   69.4350  227.9810 C   0  0  0  0  0  0  0  0  0  0  0  0
  139.9800   68.6930  229.1020 F   0  0  0  0  0  0  0  0  0  0  0  0
  140.8110   70.6360  228.0640 C   0  0  0  0  0  0  0  0  0  0  0  0
  140.9770   71.3950  226.9220 C   0  0  0  0  0  0  0  0  0  0  0  0
  140.4980   71.0030  225.6900 C   0  0  0  0  0  0  0  0  0  0  0  0
  140.7050   71.8050  224.6300 N   0  0  0  0  0  0  0  0  0  0  0  0
  143.3347   79.6091  218.7575 H   0  0  0  0  0  0  0  0  0  0  0  0
  143.0527   78.2757  217.5873 H   0  0  0  0  0  0  0  0  0  0  0  0
  141.9758   79.7133  217.5873 H   0  0  0  0  0  0  0  0  0  0  0  0
  142.4397   79.7388  220.4904 H   0  0  0  0  0  0  0  0  0  0  0  0
  140.6543   79.7877  220.1112 H   0  0  0  0  0  0  0  0  0  0  0  0
  142.0555   78.3912  222.2046 H   0  0  0  0  0  0  0  0  0  0  0  0
  140.3005   78.6315  221.9457 H   0  0  0  0  0  0  0  0  0  0  0  0
  141.6490   76.5670  220.1940 H   0  0  0  0  0  0  0  0  0  0  0  0
  139.3869   74.4653  220.4886 H   0  0  0  0  0  0  0  0  0  0  0  0
  141.1631   74.3032  220.6690 H   0  0  0  0  0  0  0  0  0  0  0  0
  139.5460   74.0490  223.1510 H   0  0  0  0  0  0  0  0  0  0  0  0
  139.2060   69.9661  222.3151 H   0  0  0  0  0  0  0  0  0  0  0  0
  138.8100   68.4707  224.2379 H   0  0  0  0  0  0  0  0  0  0  0  0
  139.1216   68.0776  226.6734 H   0  0  0  0  0  0  0  0  0  0  0  0
  141.2088   70.9861  229.0279 H   0  0  0  0  0  0  0  0  0  0  0  0
  141.5137   72.3521  226.9986 H   0  0  0  0  0  0  0  0  0  0  0  0
  1  2  1  0
  2  3  1  0
  3  4  1  0
  4  5  1  0
  5  6  1  0
  6  7  2  0
  6  8  1  0
  8  9  1  0
  9 10  1  0
 10 11  2  0
 10 12  1  0
 12 13  2  0
 13 14  1  0
 14 15  2  0
 15 16  1  0
 16 17  2  0
 17 18  1  0
 17 19  1  0
 19 20  2  0
 20 21  1  0
 21 22  2  0
 22 12  1  0
 21 15  1  0
  1 23  1  0
  1 24  1  0
  1 25  1  0
  3 26  1  0
  3 27  1  0
  4 28  1  0
  4 29  1  0
  5 30  1  0
  8 31  1  0
  8 32  1  0
  9 33  1  0
 13 34  1  0
 14 35  1  0
 16 36  1  0
 19 37  1  0
 20 38  1  0
M  END
>  <smiles>  (29) 
COCCNC(=O)CNC(=O)c1ccc2cc(F)ccc2n1

>  <score_type>  (29) 
oracle

>  <origin>  (29) 
autodockgpu

>  <m_score__min__energy>  (29) 
-6.71

>  <m_primary>  (29) 
energy

>  <rmsd>  (29) 
2.554210103821565

>  <m_score__min__rmsd>  (29) 
2.554210103821565

>  <meeko>  (29) 
{"free_energy": -5.63, "intermolecular_energy": -7.42, "internal_energy": -2.1, "cluster_size": 39, "cluster_id": 1, "rank_in_cluster": 11}

>  <energy>  (29) 
-5.46

>  <cluster_rmsd>  (29) 
1.67

>  <cluster>  (29) 
1

$$$$

     RDKit          3D

 38 39  0  0  0  0  0  0  0  0999 V2000
  142.6400   79.6700  222.7380 C   0  0  0  0  0  0  0  0  0  0  0  0
  141.6110   78.8040  222.4760 O   0  0  0  0  0  0  0  0  0  0  0  0
  140.3530   79.3450  222.7090 C   0  0  0  0  0  0  0  0  0  0  0  0
  139.2420   78.5220  222.1450 C   0  0  0  0  0  0  0  0  0  0  0  0
  139.7850   77.2570  221.6970 N   0  0  0  0  0  0  0  0  0  0  0  0
  139.1070   76.0160  221.8340 C   0  0  0  0  0  0  0  0  0  0  0  0
  137.9720   75.9110  222.3590 O   0  0  0  0  0  0  0  0  0  0  0  0
  139.7330   74.7520  221.3450 C   0  0  0  0  0  0  0  0  0  0  0  0
  139.5640   73.7280  222.3450 N   0  0  0  0  0  0  0  0  0  0  0  0
  140.4450   72.6340  222.4090 C   0  0  0  0  0  0  0  0  0  0  0  0
  141.4240   72.4620  221.6250 O   0  0  0  0  0  0  0  0  0  0  0  0
  140.2330   71.6100  223.4500 C   0  0  0  0  0  0  0  0  0  0  0  0
  139.5770   70.4290  223.1870 C   0  0  0  0  0  0  0  0  0  0  0  0
  139.3590   69.4490  224.1330 C   0  0  0  0  0  0  0  0  0  0  0  0
  139.8280   69.6720  225.4100 C   0  0  0  0  0  0  0  0  0  0  0  0
  139.6690   68.7630  226.4410 C   0  0  0  0  0  0  0  0  0  0  0  0
  140.1460   69.0050  227.7160 C   0  0  0  0  0  0  0  0  0  0  0  0
  139.9950   68.1210  228.7300 F   0  0  0  0  0  0  0  0  0  0  0  0
  140.8000   70.1940  227.9560 C   0  0  0  0  0  0  0  0  0  0  0  0
  140.9560   71.0980  226.9230 C   0  0  0  0  0  0  0  0  0  0  0  0
  140.4820   70.8630  225.6490 C   0  0  0  0  0  0  0  0  0  0  0  0
  140.6790   71.8000  224.7040 N   0  0  0  0  0  0  0  0  0  0  0  0
  142.7636   79.7740  223.8261 H   0  0  0  0  0  0  0  0  0  0  0  0
  143.5695   79.2784  222.2991 H   0  0  0  0  0  0  0  0  0  0  0  0
  142.4129   80.6528  222.2991 H   0  0  0  0  0  0  0  0  0  0  0  0
  140.2062   79.4318  223.7957 H   0  0  0  0  0  0  0  0  0  0  0  0
  140.3211   80.3231  222.2067 H   0  0  0  0  0  0  0  0  0  0  0  0
  138.4817   78.3451  222.9200 H   0  0  0  0  0  0  0  0  0  0  0  0
  138.7746   79.0501  221.3008 H   0  0  0  0  0  0  0  0  0  0  0  0
  140.7410   77.2030  221.2340 H   0  0  0  0  0  0  0  0  0  0  0  0
  139.2473   74.4377  220.4094 H   0  0  0  0  0  0  0  0  0  0  0  0
  140.8045   74.9158  221.1578 H   0  0  0  0  0  0  0  0  0  0  0  0
  138.7650   73.8310  223.0150 H   0  0  0  0  0  0  0  0  0  0  0  0
  139.2060   70.2571  222.1658 H   0  0  0  0  0  0  0  0  0  0  0  0
  138.8284   68.5201  223.8768 H   0  0  0  0  0  0  0  0  0  0  0  0
  139.1458   67.8166  226.2396 H   0  0  0  0  0  0  0  0  0  0  0  0
  141.1931   70.4206  228.9580 H   0  0  0  0  0  0  0  0  0  0  0  0
  141.4797   72.0441  227.1247 H   0  0  0  0  0  0  0  0  0  0  0  0
  1  2  1  0
  2  3  1  0
  3  4  1  0
  4  5  1  0
  5  6  1  0
  6  7  2  0
  6  8  1  0
  8  9  1  0
  9 10  1  0
 10 11  2  0
 10 12  1  0
 12 13  2  0
 13 14  1  0
 14 15  2  0
 15 16  1  0
 16 17  2  0
 17 18  1  0
 17 19  1  0
 19 20  2  0
 20 21  1  0
 21 22  2  0
 22 12  1  0
 21 15  1  0
  1 23  1  0
  1 24  1  0
  1 25  1  0
  3 26  1  0
  3 27  1  0
  4 28  1  0
  4 29  1  0
  5 30  1  0
  8 31  1  0
  8 32  1  0
  9 33  1  0
 13 34  1  0
 14 35  1  0
 16 36  1  0
 19 37  1  0
 20 38  1  0
M  END
>  <smiles>  (30) 
COCCNC(=O)CNC(=O)c1ccc2cc(F)ccc2n1

>  <score_type>  (30) 
oracle

>  <origin>  (30) 
autodockgpu

>  <m_score__min__energy>  (30) 
-6.71

>  <m_primary>  (30) 
energy

>  <rmsd>  (30) 
2.847103104791825

>  <m_score__min__rmsd>  (30) 
2.847103104791825

>  <meeko>  (30) 
{"free_energy": -5.74, "intermolecular_energy": -7.53, "internal_energy": -1.9, "cluster_size": 39, "cluster_id": 1, "rank_in_cluster": 8}

>  <energy>  (30) 
-5.45

>  <cluster_rmsd>  (30) 
1.71

>  <cluster>  (30) 
1

$$$$

     RDKit          3D

 38 39  0  0  0  0  0  0  0  0999 V2000
  135.8700   76.7890  223.1250 C   0  0  0  0  0  0  0  0  0  0  0  0
  136.4220   77.2300  221.9520 O   0  0  0  0  0  0  0  0  0  0  0  0
  137.6560   77.8480  222.1120 C   0  0  0  0  0  0  0  0  0  0  0  0
  138.8070   76.9790  221.7280 C   0  0  0  0  0  0  0  0  0  0  0  0
  138.3290   75.6220  221.5680 N   0  0  0  0  0  0  0  0  0  0  0  0
  139.0980   74.4720  221.8890 C   0  0  0  0  0  0  0  0  0  0  0  0
  140.2670   74.5360  222.3420 O   0  0  0  0  0  0  0  0  0  0  0  0
  138.5330   73.1030  221.6970 C   0  0  0  0  0  0  0  0  0  0  0  0
  138.9530   72.2660  222.7930 N   0  0  0  0  0  0  0  0  0  0  0  0
  138.5120   70.9340  222.8880 C   0  0  0  0  0  0  0  0  0  0  0  0
  137.7410   70.3780  222.0520 O   0  0  0  0  0  0  0  0  0  0  0  0
  138.9680   70.1140  224.0270 C   0  0  0  0  0  0  0  0  0  0  0  0
  138.7890   68.7500  224.0590 C   0  0  0  0  0  0  0  0  0  0  0  0
  139.2010   67.9500  225.1060 C   0  0  0  0  0  0  0  0  0  0  0  0
  139.8250   68.5590  226.1740 C   0  0  0  0  0  0  0  0  0  0  0  0
  140.2800   67.8620  227.2790 C   0  0  0  0  0  0  0  0  0  0  0  0
  140.9030   68.4910  228.3410 C   0  0  0  0  0  0  0  0  0  0  0  0
  141.3520   67.8160  229.4250 F   0  0  0  0  0  0  0  0  0  0  0  0
  141.0700   69.8580  228.2860 C   0  0  0  0  0  0  0  0  0  0  0  0
  140.6140   70.5490  227.1810 C   0  0  0  0  0  0  0  0  0  0  0  0
  139.9920   69.9280  226.1180 C   0  0  0  0  0  0  0  0  0  0  0  0
  139.5790   70.6800  225.0820 N   0  0  0  0  0  0  0  0  0  0  0  0
  136.4163   77.2254  223.9742 H   0  0  0  0  0  0  0  0  0  0  0  0
  134.8145   77.0954  223.1715 H   0  0  0  0  0  0  0  0  0  0  0  0
  135.9357   75.6920  223.1715 H   0  0  0  0  0  0  0  0  0  0  0  0
  137.6773   78.7521  221.4858 H   0  0  0  0  0  0  0  0  0  0  0  0
  137.7669   78.0810  223.1813 H   0  0  0  0  0  0  0  0  0  0  0  0
  139.2390   77.3337  220.7806 H   0  0  0  0  0  0  0  0  0  0  0  0
  139.5812   77.0147  222.5086 H   0  0  0  0  0  0  0  0  0  0  0  0
  137.3530   75.4240  221.1920 H   0  0  0  0  0  0  0  0  0  0  0  0
  137.4346   73.1569  221.6736 H   0  0  0  0  0  0  0  0  0  0  0  0
  138.8932   72.6813  220.7470 H   0  0  0  0  0  0  0  0  0  0  0  0
  139.5920   72.6870  223.5080 H   0  0  0  0  0  0  0  0  0  0  0  0
  138.2904   68.2709  223.2036 H   0  0  0  0  0  0  0  0  0  0  0  0
  139.0368   66.8625  225.0887 H   0  0  0  0  0  0  0  0  0  0  0  0
  140.1415   66.7713  227.3139 H   0  0  0  0  0  0  0  0  0  0  0  0
  141.5609   70.3923  229.1128 H   0  0  0  0  0  0  0  0  0  0  0  0
  140.7525   71.6397  227.1470 H   0  0  0  0  0  0  0  0  0  0  0  0
  1  2  1  0
  2  3  1  0
  3  4  1  0
  4  5  1  0
  5  6  1  0
  6  7  2  0
  6  8  1  0
  8  9  1  0
  9 10  1  0
 10 11  2  0
 10 12  1  0
 12 13  2  0
 13 14  1  0
 14 15  2  0
 15 16  1  0
 16 17  2  0
 17 18  1  0
 17 19  1  0
 19 20  2  0
 20 21  1  0
 21 22  2  0
 22 12  1  0
 21 15  1  0
  1 23  1  0
  1 24  1  0
  1 25  1  0
  3 26  1  0
  3 27  1  0
  4 28  1  0
  4 29  1  0
  5 30  1  0
  8 31  1  0
  8 32  1  0
  9 33  1  0
 13 34  1  0
 14 35  1  0
 16 36  1  0
 19 37  1  0
 20 38  1  0
M  END
>  <smiles>  (31) 
COCCNC(=O)CNC(=O)c1ccc2cc(F)ccc2n1

>  <score_type>  (31) 
oracle

>  <origin>  (31) 
autodockgpu

>  <m_score__min__energy>  (31) 
-6.71

>  <m_primary>  (31) 
energy

>  <rmsd>  (31) 
2.2243510076771873

>  <m_score__min__rmsd>  (31) 
2.2243510076771873

>  <meeko>  (31) 
{"free_energy": -5.22, "intermolecular_energy": -7.01, "internal_energy": -2.22, "cluster_size": 7, "cluster_id": 3, "rank_in_cluster": 4}

>  <energy>  (31) 
-5.44

>  <cluster_rmsd>  (31) 
1.66

>  <cluster>  (31) 
1

$$$$

     RDKit          3D

 38 39  0  0  0  0  0  0  0  0999 V2000
  142.1870   80.7710  223.1970 C   0  0  0  0  0  0  0  0  0  0  0  0
  142.5550   79.4940  223.5290 O   0  0  0  0  0  0  0  0  0  0  0  0
  141.5100   78.5800  223.4770 C   0  0  0  0  0  0  0  0  0  0  0  0
  140.9140   78.4400  222.1160 C   0  0  0  0  0  0  0  0  0  0  0  0
  141.0790   77.0700  221.6770 N   0  0  0  0  0  0  0  0  0  0  0  0
  140.0500   76.0920  221.7420 C   0  0  0  0  0  0  0  0  0  0  0  0
  138.9030   76.3360  222.1880 O   0  0  0  0  0  0  0  0  0  0  0  0
  140.2970   74.6980  221.2680 C   0  0  0  0  0  0  0  0  0  0  0  0
  140.0290   73.7820  222.3470 N   0  0  0  0  0  0  0  0  0  0  0  0
  140.6230   72.5070  222.3720 C   0  0  0  0  0  0  0  0  0  0  0  0
  141.4140   72.0740  221.4840 O   0  0  0  0  0  0  0  0  0  0  0  0
  140.3190   71.6030  223.4970 C   0  0  0  0  0  0  0  0  0  0  0  0
  139.6060   70.4380  223.3230 C   0  0  0  0  0  0  0  0  0  0  0  0
  139.3020   69.5680  224.3490 C   0  0  0  0  0  0  0  0  0  0  0  0
  139.7390   69.8900  225.6160 C   0  0  0  0  0  0  0  0  0  0  0  0
  139.4950   69.0960  226.7230 C   0  0  0  0  0  0  0  0  0  0  0  0
  139.9420   69.4360  227.9860 C   0  0  0  0  0  0  0  0  0  0  0  0
  139.7070   68.6640  229.0730 F   0  0  0  0  0  0  0  0  0  0  0  0
  140.6530   70.6060  228.1360 C   0  0  0  0  0  0  0  0  0  0  0  0
  140.8940   71.3950  227.0280 C   0  0  0  0  0  0  0  0  0  0  0  0
  140.4520   71.0620  225.7650 C   0  0  0  0  0  0  0  0  0  0  0  0
  140.7320   71.8900  224.7430 N   0  0  0  0  0  0  0  0  0  0  0  0
  142.0189   81.3544  224.1143 H   0  0  0  0  0  0  0  0  0  0  0  0
  142.9863   81.2408  222.6051 H   0  0  0  0  0  0  0  0  0  0  0  0
  141.2603   80.7434  222.6051 H   0  0  0  0  0  0  0  0  0  0  0  0
  141.8896   77.5976  223.7945 H   0  0  0  0  0  0  0  0  0  0  0  0
  140.7176   78.9536  224.1423 H   0  0  0  0  0  0  0  0  0  0  0  0
  139.8436   78.6908  222.1528 H   0  0  0  0  0  0  0  0  0  0  0  0
  141.4163   79.1221  221.4143 H   0  0  0  0  0  0  0  0  0  0  0  0
  142.0040   76.7290  221.2770 H   0  0  0  0  0  0  0  0  0  0  0  0
  139.6332   74.4736  220.4201 H   0  0  0  0  0  0  0  0  0  0  0  0
  141.3432   74.5952  220.9441 H   0  0  0  0  0  0  0  0  0  0  0  0
  139.3780   74.1010  223.1040 H   0  0  0  0  0  0  0  0  0  0  0  0
  139.2597   70.1873  222.3095 H   0  0  0  0  0  0  0  0  0  0  0  0
  138.7296   68.6474  224.1624 H   0  0  0  0  0  0  0  0  0  0  0  0
  138.9264   68.1633  226.5934 H   0  0  0  0  0  0  0  0  0  0  0  0
  141.0245   70.9085  229.1262 H   0  0  0  0  0  0  0  0  0  0  0  0
  141.4622   72.3278  227.1587 H   0  0  0  0  0  0  0  0  0  0  0  0
  1  2  1  0
  2  3  1  0
  3  4  1  0
  4  5  1  0
  5  6  1  0
  6  7  2  0
  6  8  1  0
  8  9  1  0
  9 10  1  0
 10 11  2  0
 10 12  1  0
 12 13  2  0
 13 14  1  0
 14 15  2  0
 15 16  1  0
 16 17  2  0
 17 18  1  0
 17 19  1  0
 19 20  2  0
 20 21  1  0
 21 22  2  0
 22 12  1  0
 21 15  1  0
  1 23  1  0
  1 24  1  0
  1 25  1  0
  3 26  1  0
  3 27  1  0
  4 28  1  0
  4 29  1  0
  5 30  1  0
  8 31  1  0
  8 32  1  0
  9 33  1  0
 13 34  1  0
 14 35  1  0
 16 36  1  0
 19 37  1  0
 20 38  1  0
M  END
>  <smiles>  (32) 
COCCNC(=O)CNC(=O)c1ccc2cc(F)ccc2n1

>  <score_type>  (32) 
oracle

>  <origin>  (32) 
autodockgpu

>  <m_score__min__energy>  (32) 
-6.71

>  <m_primary>  (32) 
energy

>  <rmsd>  (32) 
2.940032452088401

>  <m_score__min__rmsd>  (32) 
2.940032452088401

>  <meeko>  (32) 
{"free_energy": -6.62, "intermolecular_energy": -8.41, "internal_energy": -1.08, "cluster_size": 39, "cluster_id": 1, "rank_in_cluster": 3}

>  <energy>  (32) 
-5.42

>  <cluster_rmsd>  (32) 
1.71

>  <cluster>  (32) 
1

$$$$

     RDKit          3D

 38 39  0  0  0  0  0  0  0  0999 V2000
  143.8900   71.4930  220.4770 C   0  0  0  0  0  0  0  0  0  0  0  0
  143.6660   72.6160  219.7260 O   0  0  0  0  0  0  0  0  0  0  0  0
  144.2950   73.7530  220.2170 C   0  0  0  0  0  0  0  0  0  0  0  0
  143.3740   74.9160  220.3790 C   0  0  0  0  0  0  0  0  0  0  0  0
  142.0150   74.4220  220.4560 N   0  0  0  0  0  0  0  0  0  0  0  0
  140.9870   75.0580  221.2020 C   0  0  0  0  0  0  0  0  0  0  0  0
  141.1710   76.1090  221.8630 O   0  0  0  0  0  0  0  0  0  0  0  0
  139.6070   74.4880  221.2310 C   0  0  0  0  0  0  0  0  0  0  0  0
  139.5090   73.5570  222.3260 N   0  0  0  0  0  0  0  0  0  0  0  0
  140.3130   72.4030  222.3630 C   0  0  0  0  0  0  0  0  0  0  0  0
  141.1590   72.0980  221.4730 O   0  0  0  0  0  0  0  0  0  0  0  0
  140.1770   71.4780  223.5050 C   0  0  0  0  0  0  0  0  0  0  0  0
  139.5420   70.2630  223.3850 C   0  0  0  0  0  0  0  0  0  0  0  0
  139.3950   69.3720  224.4280 C   0  0  0  0  0  0  0  0  0  0  0  0
  139.9160   69.7260  225.6540 C   0  0  0  0  0  0  0  0  0  0  0  0
  139.8300   68.9150  226.7730 C   0  0  0  0  0  0  0  0  0  0  0  0
  140.3590   69.2880  227.9940 C   0  0  0  0  0  0  0  0  0  0  0  0
  140.2790   68.5010  229.0930 F   0  0  0  0  0  0  0  0  0  0  0  0
  140.9900   70.5090  228.0900 C   0  0  0  0  0  0  0  0  0  0  0  0
  141.0730   71.3140  226.9710 C   0  0  0  0  0  0  0  0  0  0  0  0
  140.5480   70.9490  225.7490 C   0  0  0  0  0  0  0  0  0  0  0  0
  140.6750   71.7960  224.7120 N   0  0  0  0  0  0  0  0  0  0  0  0
  143.8387   71.7501  221.5453 H   0  0  0  0  0  0  0  0  0  0  0  0
  143.1248   70.7377  220.2445 H   0  0  0  0  0  0  0  0  0  0  0  0
  144.8864   71.0891  220.2445 H   0  0  0  0  0  0  0  0  0  0  0  0
  144.7311   73.5141  221.1982 H   0  0  0  0  0  0  0  0  0  0  0  0
  145.0599   74.0442  219.4821 H   0  0  0  0  0  0  0  0  0  0  0  0
  143.6232   75.4603  221.3018 H   0  0  0  0  0  0  0  0  0  0  0  0
  143.4775   75.5993  219.5232 H   0  0  0  0  0  0  0  0  0  0  0  0
  141.7220   73.5380  219.9420 H   0  0  0  0  0  0  0  0  0  0  0  0
  138.8758   75.2982  221.3687 H   0  0  0  0  0  0  0  0  0  0  0  0
  139.3975   73.9712  220.2828 H   0  0  0  0  0  0  0  0  0  0  0  0
  138.8190   73.7710  223.0860 H   0  0  0  0  0  0  0  0  0  0  0  0
  139.1290   69.9871  222.4035 H   0  0  0  0  0  0  0  0  0  0  0  0
  138.8791   68.4109  224.2859 H   0  0  0  0  0  0  0  0  0  0  0  0
  139.3241   67.9420  226.6873 H   0  0  0  0  0  0  0  0  0  0  0  0
  141.4224   70.8386  229.0462 H   0  0  0  0  0  0  0  0  0  0  0  0
  141.5789   72.2869  227.0579 H   0  0  0  0  0  0  0  0  0  0  0  0
  1  2  1  0
  2  3  1  0
  3  4  1  0
  4  5  1  0
  5  6  1  0
  6  7  2  0
  6  8  1  0
  8  9  1  0
  9 10  1  0
 10 11  2  0
 10 12  1  0
 12 13  2  0
 13 14  1  0
 14 15  2  0
 15 16  1  0
 16 17  2  0
 17 18  1  0
 17 19  1  0
 19 20  2  0
 20 21  1  0
 21 22  2  0
 22 12  1  0
 21 15  1  0
  1 23  1  0
  1 24  1  0
  1 25  1  0
  3 26  1  0
  3 27  1  0
  4 28  1  0
  4 29  1  0
  5 30  1  0
  8 31  1  0
  8 32  1  0
  9 33  1  0
 13 34  1  0
 14 35  1  0
 16 36  1  0
 19 37  1  0
 20 38  1  0
M  END
>  <smiles>  (33) 
COCCNC(=O)CNC(=O)c1ccc2cc(F)ccc2n1

>  <score_type>  (33) 
oracle

>  <origin>  (33) 
autodockgpu

>  <m_score__min__energy>  (33) 
-6.71

>  <m_primary>  (33) 
energy

>  <rmsd>  (33) 
2.5324583062746178

>  <m_score__min__rmsd>  (33) 
2.5324583062746178

>  <meeko>  (33) 
{"free_energy": -5.62, "intermolecular_energy": -7.41, "internal_energy": -2.32, "cluster_size": 39, "cluster_id": 1, "rank_in_cluster": 12}

>  <energy>  (33) 
-5.42

>  <cluster_rmsd>  (33) 
1.82

>  <cluster>  (33) 
1

$$$$

     RDKit          3D

 38 39  0  0  0  0  0  0  0  0999 V2000
  142.1930   79.3290  223.4360 C   0  0  0  0  0  0  0  0  0  0  0  0
  141.3260   78.8590  222.4850 O   0  0  0  0  0  0  0  0  0  0  0  0
  140.0510   79.4040  222.5740 C   0  0  0  0  0  0  0  0  0  0  0  0
  138.9760   78.4700  222.1260 C   0  0  0  0  0  0  0  0  0  0  0  0
  139.5900   77.2290  221.7010 N   0  0  0  0  0  0  0  0  0  0  0  0
  138.9600   75.9600  221.8120 C   0  0  0  0  0  0  0  0  0  0  0  0
  137.8100   75.8070  222.2910 O   0  0  0  0  0  0  0  0  0  0  0  0
  139.6580   74.7240  221.3490 C   0  0  0  0  0  0  0  0  0  0  0  0
  139.5150   73.7010  222.3540 N   0  0  0  0  0  0  0  0  0  0  0  0
  140.4240   72.6300  222.4230 C   0  0  0  0  0  0  0  0  0  0  0  0
  141.4070   72.4790  221.6390 O   0  0  0  0  0  0  0  0  0  0  0  0
  140.2380   71.6070  223.4690 C   0  0  0  0  0  0  0  0  0  0  0  0
  139.5950   70.4160  223.2160 C   0  0  0  0  0  0  0  0  0  0  0  0
  139.4020   69.4350  224.1670 C   0  0  0  0  0  0  0  0  0  0  0  0
  139.8820   69.6680  225.4380 C   0  0  0  0  0  0  0  0  0  0  0  0
  139.7480   68.7600  226.4730 C   0  0  0  0  0  0  0  0  0  0  0  0
  140.2360   69.0120  227.7420 C   0  0  0  0  0  0  0  0  0  0  0  0
  140.1090   68.1290  228.7600 F   0  0  0  0  0  0  0  0  0  0  0  0
  140.8760   70.2110  227.9710 C   0  0  0  0  0  0  0  0  0  0  0  0
  141.0080   71.1140  226.9340 C   0  0  0  0  0  0  0  0  0  0  0  0
  140.5230   70.8690  225.6660 C   0  0  0  0  0  0  0  0  0  0  0  0
  140.6960   71.8060  224.7170 N   0  0  0  0  0  0  0  0  0  0  0  0
  141.7921   79.1117  224.4371 H   0  0  0  0  0  0  0  0  0  0  0  0
  143.1695   78.8368  223.3173 H   0  0  0  0  0  0  0  0  0  0  0  0
  142.3134   80.4159  223.3173 H   0  0  0  0  0  0  0  0  0  0  0  0
  139.8609   79.6777  223.6223 H   0  0  0  0  0  0  0  0  0  0  0  0
  140.0229   80.2771  221.9055 H   0  0  0  0  0  0  0  0  0  0  0  0
  138.2838   78.2750  222.9584 H   0  0  0  0  0  0  0  0  0  0  0  0
  138.4138   78.9161  221.2923 H   0  0  0  0  0  0  0  0  0  0  0  0
  140.5650   77.2160  221.2770 H   0  0  0  0  0  0  0  0  0  0  0  0
  139.2105   74.3791  220.4052 H   0  0  0  0  0  0  0  0  0  0  0  0
  140.7245   74.9382  221.1853 H   0  0  0  0  0  0  0  0  0  0  0  0
  138.7140   73.7870  223.0240 H   0  0  0  0  0  0  0  0  0  0  0  0
  139.2142   70.2367  222.1997 H   0  0  0  0  0  0  0  0  0  0  0  0
  138.8822   68.4978  223.9190 H   0  0  0  0  0  0  0  0  0  0  0  0
  139.2362   67.8057  226.2801 H   0  0  0  0  0  0  0  0  0  0  0  0
  141.2770   70.4461  228.9679 H   0  0  0  0  0  0  0  0  0  0  0  0
  141.5209   72.0677  227.1273 H   0  0  0  0  0  0  0  0  0  0  0  0
  1  2  1  0
  2  3  1  0
  3  4  1  0
  4  5  1  0
  5  6  1  0
  6  7  2  0
  6  8  1  0
  8  9  1  0
  9 10  1  0
 10 11  2  0
 10 12  1  0
 12 13  2  0
 13 14  1  0
 14 15  2  0
 15 16  1  0
 16 17  2  0
 17 18  1  0
 17 19  1  0
 19 20  2  0
 20 21  1  0
 21 22  2  0
 22 12  1  0
 21 15  1  0
  1 23  1  0
  1 24  1  0
  1 25  1  0
  3 26  1  0
  3 27  1  0
  4 28  1  0
  4 29  1  0
  5 30  1  0
  8 31  1  0
  8 32  1  0
  9 33  1  0
 13 34  1  0
 14 35  1  0
 16 36  1  0
 19 37  1  0
 20 38  1  0
M  END
>  <smiles>  (34) 
COCCNC(=O)CNC(=O)c1ccc2cc(F)ccc2n1

>  <score_type>  (34) 
oracle

>  <origin>  (34) 
autodockgpu

>  <m_score__min__energy>  (34) 
-6.71

>  <m_primary>  (34) 
energy

>  <rmsd>  (34) 
2.821886358467294

>  <m_score__min__rmsd>  (34) 
2.821886358467294

>  <meeko>  (34) 
{"free_energy": -5.65, "intermolecular_energy": -7.44, "internal_energy": -1.91, "cluster_size": 39, "cluster_id": 1, "rank_in_cluster": 10}

>  <energy>  (34) 
-5.39

>  <cluster_rmsd>  (34) 
1.78

>  <cluster>  (34) 
1

$$$$

     RDKit          3D

 38 39  0  0  0  0  0  0  0  0999 V2000
  142.9460   77.4890  218.1600 C   0  0  0  0  0  0  0  0  0  0  0  0
  141.7370   78.0050  218.5460 O   0  0  0  0  0  0  0  0  0  0  0  0
  141.8050   78.7960  219.6860 C   0  0  0  0  0  0  0  0  0  0  0  0
  141.2680   78.1240  220.9060 C   0  0  0  0  0  0  0  0  0  0  0  0
  140.8430   76.7870  220.5470 N   0  0  0  0  0  0  0  0  0  0  0  0
  140.4010   75.8210  221.4910 C   0  0  0  0  0  0  0  0  0  0  0  0
  140.3400   76.0470  222.7240 O   0  0  0  0  0  0  0  0  0  0  0  0
  139.9760   74.4620  221.0420 C   0  0  0  0  0  0  0  0  0  0  0  0
  139.8600   73.6040  222.1940 N   0  0  0  0  0  0  0  0  0  0  0  0
  140.1300   72.2270  222.0950 C   0  0  0  0  0  0  0  0  0  0  0  0
  140.4850   71.6470  221.0270 O   0  0  0  0  0  0  0  0  0  0  0  0
  139.9970   71.3880  223.3010 C   0  0  0  0  0  0  0  0  0  0  0  0
  139.3980   70.1490  223.2630 C   0  0  0  0  0  0  0  0  0  0  0  0
  139.2550   69.3360  224.3690 C   0  0  0  0  0  0  0  0  0  0  0  0
  139.7430   69.7970  225.5730 C   0  0  0  0  0  0  0  0  0  0  0  0
  139.6570   69.0710  226.7490 C   0  0  0  0  0  0  0  0  0  0  0  0
  140.1520   69.5500  227.9470 C   0  0  0  0  0  0  0  0  0  0  0  0
  140.0730   68.8470  229.1010 F   0  0  0  0  0  0  0  0  0  0  0  0
  140.7480   70.7930  227.9600 C   0  0  0  0  0  0  0  0  0  0  0  0
  140.8310   71.5130  226.7840 C   0  0  0  0  0  0  0  0  0  0  0  0
  140.3390   71.0410  225.5850 C   0  0  0  0  0  0  0  0  0  0  0  0
  140.4630   71.8100  224.4880 N   0  0  0  0  0  0  0  0  0  0  0  0
  143.5383   77.2362  219.0518 H   0  0  0  0  0  0  0  0  0  0  0  0
  142.7826   76.5822  217.5592 H   0  0  0  0  0  0  0  0  0  0  0  0
  143.4878   78.2343  217.5592 H   0  0  0  0  0  0  0  0  0  0  0  0
  142.8580   79.0575  219.8668 H   0  0  0  0  0  0  0  0  0  0  0  0
  141.1819   79.6839  219.5031 H   0  0  0  0  0  0  0  0  0  0  0  0
  142.0527   78.0696  221.6750 H   0  0  0  0  0  0  0  0  0  0  0  0
  140.4168   78.6946  221.3058 H   0  0  0  0  0  0  0  0  0  0  0  0
  140.8440   76.4630  219.5340 H   0  0  0  0  0  0  0  0  0  0  0  0
  139.0035   74.5290  220.5323 H   0  0  0  0  0  0  0  0  0  0  0  0
  140.7206   74.0505  220.3447 H   0  0  0  0  0  0  0  0  0  0  0  0
  139.5670   74.0430  223.0990 H   0  0  0  0  0  0  0  0  0  0  0  0
  139.0123   69.7873  222.2984 H   0  0  0  0  0  0  0  0  0  0  0  0
  138.7678   68.3528  224.2923 H   0  0  0  0  0  0  0  0  0  0  0  0
  139.1790   68.0805  226.7289 H   0  0  0  0  0  0  0  0  0  0  0  0
  141.1526   71.2065  228.8956 H   0  0  0  0  0  0  0  0  0  0  0  0
  141.3091   72.5035  226.8046 H   0  0  0  0  0  0  0  0  0  0  0  0
  1  2  1  0
  2  3  1  0
  3  4  1  0
  4  5  1  0
  5  6  1  0
  6  7  2  0
  6  8  1  0
  8  9  1  0
  9 10  1  0
 10 11  2  0
 10 12  1  0
 12 13  2  0
 13 14  1  0
 14 15  2  0
 15 16  1  0
 16 17  2  0
 17 18  1  0
 17 19  1  0
 19 20  2  0
 20 21  1  0
 21 22  2  0
 22 12  1  0
 21 15  1  0
  1 23  1  0
  1 24  1  0
  1 25  1  0
  3 26  1  0
  3 27  1  0
  4 28  1  0
  4 29  1  0
  5 30  1  0
  8 31  1  0
  8 32  1  0
  9 33  1  0
 13 34  1  0
 14 35  1  0
 16 36  1  0
 19 37  1  0
 20 38  1  0
M  END
>  <smiles>  (35) 
COCCNC(=O)CNC(=O)c1ccc2cc(F)ccc2n1

>  <score_type>  (35) 
oracle

>  <origin>  (35) 
autodockgpu

>  <m_score__min__energy>  (35) 
-6.71

>  <m_primary>  (35) 
energy

>  <rmsd>  (35) 
2.2971325961260702

>  <m_score__min__rmsd>  (35) 
2.2971325961260702

>  <meeko>  (35) 
{"free_energy": -5.44, "intermolecular_energy": -7.23, "internal_energy": -2.21, "cluster_size": 39, "cluster_id": 1, "rank_in_cluster": 31}

>  <energy>  (35) 
-5.36

>  <cluster_rmsd>  (35) 
1.86

>  <cluster>  (35) 
1

$$$$

     RDKit          3D

 38 39  0  0  0  0  0  0  0  0999 V2000
  140.5760   76.4810  221.9690 C   0  0  0  0  0  0  0  0  0  0  0  0
  139.6260   75.8030  222.6860 O   0  0  0  0  0  0  0  0  0  0  0  0
  138.4000   76.4530  222.7460 C   0  0  0  0  0  0  0  0  0  0  0  0
  137.2410   75.5580  222.4580 C   0  0  0  0  0  0  0  0  0  0  0  0
  137.7410   74.2280  222.1790 N   0  0  0  0  0  0  0  0  0  0  0  0
  136.9940   73.2330  221.4940 C   0  0  0  0  0  0  0  0  0  0  0  0
  135.8280   73.4230  221.0710 O   0  0  0  0  0  0  0  0  0  0  0  0
  137.5810   71.8840  221.2420 C   0  0  0  0  0  0  0  0  0  0  0  0
  138.0850   71.3530  222.4840 N   0  0  0  0  0  0  0  0  0  0  0  0
  139.2760   71.8490  223.0470 C   0  0  0  0  0  0  0  0  0  0  0  0
  139.9780   72.7670  222.5310 O   0  0  0  0  0  0  0  0  0  0  0  0
  139.7530   71.2750  224.3190 C   0  0  0  0  0  0  0  0  0  0  0  0
  140.6900   71.9140  225.0990 C   0  0  0  0  0  0  0  0  0  0  0  0
  141.1610   71.4100  226.2940 C   0  0  0  0  0  0  0  0  0  0  0  0
  140.6610   70.2000  226.7230 C   0  0  0  0  0  0  0  0  0  0  0  0
  141.0570   69.5960  227.9030 C   0  0  0  0  0  0  0  0  0  0  0  0
  140.5430   68.3810  228.3170 C   0  0  0  0  0  0  0  0  0  0  0  0
  140.9250   67.7830  229.4700 F   0  0  0  0  0  0  0  0  0  0  0  0
  139.6060   67.7600  227.5200 C   0  0  0  0  0  0  0  0  0  0  0  0
  139.2140   68.3670  226.3430 C   0  0  0  0  0  0  0  0  0  0  0  0
  139.7220   69.5790  225.9240 C   0  0  0  0  0  0  0  0  0  0  0  0
  139.2830   70.0980  224.7630 N   0  0  0  0  0  0  0  0  0  0  0  0
  141.2722   76.9779  222.6607 H   0  0  0  0  0  0  0  0  0  0  0  0
  141.1311   75.7738  221.3352 H   0  0  0  0  0  0  0  0  0  0  0  0
  140.0876   77.2359  221.3352 H   0  0  0  0  0  0  0  0  0  0  0  0
  138.2757   76.8707  223.7560 H   0  0  0  0  0  0  0  0  0  0  0  0
  138.4079   77.2342  221.9716 H   0  0  0  0  0  0  0  0  0  0  0  0
  136.5716   75.5266  223.3303 H   0  0  0  0  0  0  0  0  0  0  0  0
  136.6801   75.9375  221.5912 H   0  0  0  0  0  0  0  0  0  0  0  0
  138.7170   73.9340  222.4840 H   0  0  0  0  0  0  0  0  0  0  0  0
  136.8064   71.2135  220.8414 H   0  0  0  0  0  0  0  0  0  0  0  0
  138.4002   71.9651  220.5124 H   0  0  0  0  0  0  0  0  0  0  0  0
  137.5350   70.5910  222.9450 H   0  0  0  0  0  0  0  0  0  0  0  0
  141.0851   72.8796  224.7505 H   0  0  0  0  0  0  0  0  0  0  0  0
  141.9110   71.9563  226.8847 H   0  0  0  0  0  0  0  0  0  0  0  0
  141.8056   70.0990  228.5327 H   0  0  0  0  0  0  0  0  0  0  0  0
  139.1754   66.7925  227.8176 H   0  0  0  0  0  0  0  0  0  0  0  0
  138.4657   67.8630  225.7137 H   0  0  0  0  0  0  0  0  0  0  0  0
  1  2  1  0
  2  3  1  0
  3  4  1  0
  4  5  1  0
  5  6  1  0
  6  7  2  0
  6  8  1  0
  8  9  1  0
  9 10  1  0
 10 11  2  0
 10 12  1  0
 12 13  2  0
 13 14  1  0
 14 15  2  0
 15 16  1  0
 16 17  2  0
 17 18  1  0
 17 19  1  0
 19 20  2  0
 20 21  1  0
 21 22  2  0
 22 12  1  0
 21 15  1  0
  1 23  1  0
  1 24  1  0
  1 25  1  0
  3 26  1  0
  3 27  1  0
  4 28  1  0
  4 29  1  0
  5 30  1  0
  8 31  1  0
  8 32  1  0
  9 33  1  0
 13 34  1  0
 14 35  1  0
 16 36  1  0
 19 37  1  0
 20 38  1  0
M  END
>  <smiles>  (36) 
COCCNC(=O)CNC(=O)c1ccc2cc(F)ccc2n1

>  <score_type>  (36) 
oracle

>  <origin>  (36) 
autodockgpu

>  <m_score__min__energy>  (36) 
-6.71

>  <m_primary>  (36) 
energy

>  <rmsd>  (36) 
3.6775868979985322

>  <m_score__min__rmsd>  (36) 
3.6775868979985322

>  <meeko>  (36) 
{"free_energy": -5.28, "intermolecular_energy": -7.07, "internal_energy": -2.53, "cluster_size": 7, "cluster_id": 3, "rank_in_cluster": 2}

>  <energy>  (36) 
-5.36

>  <cluster_rmsd>  (36) 
1.83

>  <cluster>  (36) 
1

$$$$

     RDKit          3D

 38 39  0  0  0  0  0  0  0  0999 V2000
  142.5990   78.6860  218.0130 C   0  0  0  0  0  0  0  0  0  0  0  0
  141.8200   78.0650  218.9530 O   0  0  0  0  0  0  0  0  0  0  0  0
  141.6430   78.8090  220.1130 C   0  0  0  0  0  0  0  0  0  0  0  0
  140.9360   78.0610  221.1940 C   0  0  0  0  0  0  0  0  0  0  0  0
  140.8430   76.6680  220.8070 N   0  0  0  0  0  0  0  0  0  0  0  0
  140.2220   75.6690  221.6040 C   0  0  0  0  0  0  0  0  0  0  0  0
  139.6960   75.9110  222.7170 O   0  0  0  0  0  0  0  0  0  0  0  0
  140.1650   74.2530  221.1350 C   0  0  0  0  0  0  0  0  0  0  0  0
  139.9890   73.3890  222.2760 N   0  0  0  0  0  0  0  0  0  0  0  0
  140.3890   72.0410  222.2250 C   0  0  0  0  0  0  0  0  0  0  0  0
  140.9180   71.4940  221.2130 O   0  0  0  0  0  0  0  0  0  0  0  0
  140.1900   71.1950  223.4170 C   0  0  0  0  0  0  0  0  0  0  0  0
  139.5410   69.9830  223.3480 C   0  0  0  0  0  0  0  0  0  0  0  0
  139.3350   69.1640  224.4390 C   0  0  0  0  0  0  0  0  0  0  0  0
  139.8080   69.5910  225.6620 C   0  0  0  0  0  0  0  0  0  0  0  0
  139.6610   68.8570  226.8260 C   0  0  0  0  0  0  0  0  0  0  0  0
  140.1410   69.3030  228.0430 C   0  0  0  0  0  0  0  0  0  0  0  0
  140.0020   68.5900  229.1860 F   0  0  0  0  0  0  0  0  0  0  0  0
  140.7870   70.5200  228.0870 C   0  0  0  0  0  0  0  0  0  0  0  0
  140.9310   71.2480  226.9220 C   0  0  0  0  0  0  0  0  0  0  0  0
  140.4540   70.8100  225.7050 C   0  0  0  0  0  0  0  0  0  0  0  0
  140.6390   71.5850  224.6210 N   0  0  0  0  0  0  0  0  0  0  0  0
  143.3641   79.2959  218.5157 H   0  0  0  0  0  0  0  0  0  0  0  0
  143.0891   77.9281  217.3842 H   0  0  0  0  0  0  0  0  0  0  0  0
  141.9694   79.3327  217.3842 H   0  0  0  0  0  0  0  0  0  0  0  0
  142.6320   79.1117  220.4876 H   0  0  0  0  0  0  0  0  0  0  0  0
  141.0152   79.6737  219.8519 H   0  0  0  0  0  0  0  0  0  0  0  0
  141.4999   78.1475  222.1345 H   0  0  0  0  0  0  0  0  0  0  0  0
  139.9290   78.4778  221.3429 H   0  0  0  0  0  0  0  0  0  0  0  0
  141.2490   76.3260  219.8850 H   0  0  0  0  0  0  0  0  0  0  0  0
  139.3194   74.1272  220.4428 H   0  0  0  0  0  0  0  0  0  0  0  0
  141.0987   73.9956  220.6135 H   0  0  0  0  0  0  0  0  0  0  0  0
  139.5550   73.8020  223.1350 H   0  0  0  0  0  0  0  0  0  0  0  0
  139.1660   69.6492  222.3693 H   0  0  0  0  0  0  0  0  0  0  0  0
  138.8109   68.2023  224.3367 H   0  0  0  0  0  0  0  0  0  0  0  0
  139.1451   67.8865  226.7812 H   0  0  0  0  0  0  0  0  0  0  0  0
  141.1828   70.9064  229.0378 H   0  0  0  0  0  0  0  0  0  0  0  0
  141.4480   72.2179  226.9672 H   0  0  0  0  0  0  0  0  0  0  0  0
  1  2  1  0
  2  3  1  0
  3  4  1  0
  4  5  1  0
  5  6  1  0
  6  7  2  0
  6  8  1  0
  8  9  1  0
  9 10  1  0
 10 11  2  0
 10 12  1  0
 12 13  2  0
 13 14  1  0
 14 15  2  0
 15 16  1  0
 16 17  2  0
 17 18  1  0
 17 19  1  0
 19 20  2  0
 20 21  1  0
 21 22  2  0
 22 12  1  0
 21 15  1  0
  1 23  1  0
  1 24  1  0
  1 25  1  0
  3 26  1  0
  3 27  1  0
  4 28  1  0
  4 29  1  0
  5 30  1  0
  8 31  1  0
  8 32  1  0
  9 33  1  0
 13 34  1  0
 14 35  1  0
 16 36  1  0
 19 37  1  0
 20 38  1  0
M  END
>  <smiles>  (37) 
COCCNC(=O)CNC(=O)c1ccc2cc(F)ccc2n1

>  <score_type>  (37) 
oracle

>  <origin>  (37) 
autodockgpu

>  <m_score__min__energy>  (37) 
-6.71

>  <m_primary>  (37) 
energy

>  <rmsd>  (37) 
2.333868597813377

>  <m_score__min__rmsd>  (37) 
2.333868597813377

>  <meeko>  (37) 
{"free_energy": -5.55, "intermolecular_energy": -7.34, "internal_energy": -2.16, "cluster_size": 39, "cluster_id": 1, "rank_in_cluster": 21}

>  <energy>  (37) 
-5.27

>  <cluster_rmsd>  (37) 
1.98

>  <cluster>  (37) 
1

$$$$

     RDKit          3D

 38 39  0  0  0  0  0  0  0  0999 V2000
  143.7280   75.1740  219.7280 C   0  0  0  0  0  0  0  0  0  0  0  0
  142.8510   75.9930  219.0660 O   0  0  0  0  0  0  0  0  0  0  0  0
  142.5660   77.1710  219.7430 C   0  0  0  0  0  0  0  0  0  0  0  0
  141.4380   77.0380  220.7120 C   0  0  0  0  0  0  0  0  0  0  0  0
  140.7900   75.7620  220.4950 N   0  0  0  0  0  0  0  0  0  0  0  0
  140.0250   75.0880  221.4840 C   0  0  0  0  0  0  0  0  0  0  0  0
  139.8450   75.5460  222.6390 O   0  0  0  0  0  0  0  0  0  0  0  0
  139.3850   73.7740  221.1830 C   0  0  0  0  0  0  0  0  0  0  0  0
  139.4830   72.9280  222.3460 N   0  0  0  0  0  0  0  0  0  0  0  0
  139.4740   71.5270  222.2180 C   0  0  0  0  0  0  0  0  0  0  0  0
  139.3830   70.9140  221.1140 O   0  0  0  0  0  0  0  0  0  0  0  0
  139.5760   70.7010  223.4360 C   0  0  0  0  0  0  0  0  0  0  0  0
  139.1240   69.4020  223.4750 C   0  0  0  0  0  0  0  0  0  0  0  0
  139.2020   68.5990  224.5950 C   0  0  0  0  0  0  0  0  0  0  0  0
  139.7660   69.1350  225.7330 C   0  0  0  0  0  0  0  0  0  0  0  0
  139.8980   68.4280  226.9140 C   0  0  0  0  0  0  0  0  0  0  0  0
  140.4660   68.9830  228.0450 C   0  0  0  0  0  0  0  0  0  0  0  0
  140.6000   68.2980  229.2050 F   0  0  0  0  0  0  0  0  0  0  0  0
  140.9130   70.2860  227.9820 C   0  0  0  0  0  0  0  0  0  0  0  0
  140.7780   70.9880  226.8000 C   0  0  0  0  0  0  0  0  0  0  0  0
  140.2120   70.4400  225.6680 C   0  0  0  0  0  0  0  0  0  0  0  0
  140.1210   71.1970  224.5600 N   0  0  0  0  0  0  0  0  0  0  0  0
  143.5965   75.2968  220.8132 H   0  0  0  0  0  0  0  0  0  0  0  0
  143.5327   74.1275  219.4511 H   0  0  0  0  0  0  0  0  0  0  0  0
  144.7587   75.4403  219.4511 H   0  0  0  0  0  0  0  0  0  0  0  0
  143.4651   77.4828  220.2947 H   0  0  0  0  0  0  0  0  0  0  0  0
  142.2627   77.9137  218.9904 H   0  0  0  0  0  0  0  0  0  0  0  0
  141.8254   77.0866  221.7404 H   0  0  0  0  0  0  0  0  0  0  0  0
  140.7170   77.8554  220.5635 H   0  0  0  0  0  0  0  0  0  0  0  0
  140.8620   75.2610  219.5590 H   0  0  0  0  0  0  0  0  0  0  0  0
  138.3263   73.9291  220.9277 H   0  0  0  0  0  0  0  0  0  0  0  0
  139.8949   73.2979  220.3325 H   0  0  0  0  0  0  0  0  0  0  0  0
  139.5590   73.3940  223.2810 H   0  0  0  0  0  0  0  0  0  0  0  0
  138.6757   68.9802  222.5633 H   0  0  0  0  0  0  0  0  0  0  0  0
  138.8264   67.5652  224.5800 H   0  0  0  0  0  0  0  0  0  0  0  0
  139.5389   67.3891  226.9546 H   0  0  0  0  0  0  0  0  0  0  0  0
  141.3714   70.7605  228.8621 H   0  0  0  0  0  0  0  0  0  0  0  0
  141.1368   72.0271  226.7600 H   0  0  0  0  0  0  0  0  0  0  0  0
  1  2  1  0
  2  3  1  0
  3  4  1  0
  4  5  1  0
  5  6  1  0
  6  7  2  0
  6  8  1  0
  8  9  1  0
  9 10  1  0
 10 11  2  0
 10 12  1  0
 12 13  2  0
 13 14  1  0
 14 15  2  0
 15 16  1  0
 16 17  2  0
 17 18  1  0
 17 19  1  0
 19 20  2  0
 20 21  1  0
 21 22  2  0
 22 12  1  0
 21 15  1  0
  1 23  1  0
  1 24  1  0
  1 25  1  0
  3 26  1  0
  3 27  1  0
  4 28  1  0
  4 29  1  0
  5 30  1  0
  8 31  1  0
  8 32  1  0
  9 33  1  0
 13 34  1  0
 14 35  1  0
 16 36  1  0
 19 37  1  0
 20 38  1  0
M  END
>  <smiles>  (38) 
COCCNC(=O)CNC(=O)c1ccc2cc(F)ccc2n1

>  <score_type>  (38) 
oracle

>  <origin>  (38) 
autodockgpu

>  <m_score__min__energy>  (38) 
-6.71

>  <m_primary>  (38) 
energy

>  <rmsd>  (38) 
1.9083982208855579

>  <m_score__min__rmsd>  (38) 
1.9083982208855579

>  <meeko>  (38) 
{"free_energy": -5.49, "intermolecular_energy": -7.28, "internal_energy": -2.22, "cluster_size": 39, "cluster_id": 1, "rank_in_cluster": 26}

>  <energy>  (38) 
-5.25

>  <cluster_rmsd>  (38) 
1.85

>  <cluster>  (38) 
1

$$$$

     RDKit          3D

 38 39  0  0  0  0  0  0  0  0999 V2000
  142.3650   78.8220  218.2390 C   0  0  0  0  0  0  0  0  0  0  0  0
  142.2380   78.0300  219.3500 O   0  0  0  0  0  0  0  0  0  0  0  0
  141.8070   78.7150  220.4790 C   0  0  0  0  0  0  0  0  0  0  0  0
  140.6780   78.0410  221.1840 C   0  0  0  0  0  0  0  0  0  0  0  0
  140.6640   76.6430  220.8050 N   0  0  0  0  0  0  0  0  0  0  0  0
  140.0890   75.6170  221.6010 C   0  0  0  0  0  0  0  0  0  0  0  0
  139.5400   75.8360  222.7080 O   0  0  0  0  0  0  0  0  0  0  0  0
  140.1120   74.1970  221.1400 C   0  0  0  0  0  0  0  0  0  0  0  0
  139.9240   73.3320  222.2770 N   0  0  0  0  0  0  0  0  0  0  0  0
  140.4540   72.0290  222.2850 C   0  0  0  0  0  0  0  0  0  0  0  0
  141.1160   71.5250  221.3310 O   0  0  0  0  0  0  0  0  0  0  0  0
  140.2350   71.1800  223.4710 C   0  0  0  0  0  0  0  0  0  0  0  0
  139.5490   69.9890  223.3970 C   0  0  0  0  0  0  0  0  0  0  0  0
  139.3250   69.1680  224.4830 C   0  0  0  0  0  0  0  0  0  0  0  0
  139.8190   69.5700  225.7060 C   0  0  0  0  0  0  0  0  0  0  0  0
  139.6560   68.8320  226.8650 C   0  0  0  0  0  0  0  0  0  0  0  0
  140.1580   69.2520  228.0820 C   0  0  0  0  0  0  0  0  0  0  0  0
  140.0040   68.5350  229.2200 F   0  0  0  0  0  0  0  0  0  0  0  0
  140.8420   70.4480  228.1310 C   0  0  0  0  0  0  0  0  0  0  0  0
  141.0020   71.1810  226.9720 C   0  0  0  0  0  0  0  0  0  0  0  0
  140.5030   70.7680  225.7540 C   0  0  0  0  0  0  0  0  0  0  0  0
  140.7050   71.5460  224.6760 N   0  0  0  0  0  0  0  0  0  0  0  0
  142.5321   79.8642  218.5488 H   0  0  0  0  0  0  0  0  0  0  0  0
  143.2192   78.4766  217.6382 H   0  0  0  0  0  0  0  0  0  0  0  0
  141.4456   78.7610  217.6382 H   0  0  0  0  0  0  0  0  0  0  0  0
  142.6521   78.8028  221.1777 H   0  0  0  0  0  0  0  0  0  0  0  0
  141.4417   79.6970  220.1441 H   0  0  0  0  0  0  0  0  0  0  0  0
  140.8156   78.1285  222.2719 H   0  0  0  0  0  0  0  0  0  0  0  0
  139.7252   78.5150  220.9057 H   0  0  0  0  0  0  0  0  0  0  0  0
  141.0960   76.3190  219.8890 H   0  0  0  0  0  0  0  0  0  0  0  0
  139.3030   74.0320  220.4132 H   0  0  0  0  0  0  0  0  0  0  0  0
  141.0776   73.9771  220.6612 H   0  0  0  0  0  0  0  0  0  0  0  0
  139.3800   73.7100  223.0890 H   0  0  0  0  0  0  0  0  0  0  0  0
  139.1578   69.6744  222.4182 H   0  0  0  0  0  0  0  0  0  0  0  0
  138.7706   68.2239  224.3767 H   0  0  0  0  0  0  0  0  0  0  0  0
  139.1085   67.8792  226.8160 H   0  0  0  0  0  0  0  0  0  0  0  0
  141.2554   70.8140  229.0824 H   0  0  0  0  0  0  0  0  0  0  0  0
  141.5499   72.1335  227.0218 H   0  0  0  0  0  0  0  0  0  0  0  0
  1  2  1  0
  2  3  1  0
  3  4  1  0
  4  5  1  0
  5  6  1  0
  6  7  2  0
  6  8  1  0
  8  9  1  0
  9 10  1  0
 10 11  2  0
 10 12  1  0
 12 13  2  0
 13 14  1  0
 14 15  2  0
 15 16  1  0
 16 17  2  0
 17 18  1  0
 17 19  1  0
 19 20  2  0
 20 21  1  0
 21 22  2  0
 22 12  1  0
 21 15  1  0
  1 23  1  0
  1 24  1  0
  1 25  1  0
  3 26  1  0
  3 27  1  0
  4 28  1  0
  4 29  1  0
  5 30  1  0
  8 31  1  0
  8 32  1  0
  9 33  1  0
 13 34  1  0
 14 35  1  0
 16 36  1  0
 19 37  1  0
 20 38  1  0
M  END
>  <smiles>  (39) 
COCCNC(=O)CNC(=O)c1ccc2cc(F)ccc2n1

>  <score_type>  (39) 
oracle

>  <origin>  (39) 
autodockgpu

>  <m_score__min__energy>  (39) 
-6.71

>  <m_primary>  (39) 
energy

>  <rmsd>  (39) 
2.341627693462435

>  <m_score__min__rmsd>  (39) 
2.341627693462435

>  <meeko>  (39) 
{"free_energy": -5.57, "intermolecular_energy": -7.36, "internal_energy": -2.12, "cluster_size": 39, "cluster_id": 1, "rank_in_cluster": 20}

>  <energy>  (39) 
-5.08

>  <cluster_rmsd>  (39) 
1.86

>  <cluster>  (39) 
1

$$$$

     RDKit          3D

 38 39  0  0  0  0  0  0  0  0999 V2000
  137.1660   77.9080  222.4050 C   0  0  0  0  0  0  0  0  0  0  0  0
  137.7060   77.8110  221.1500 O   0  0  0  0  0  0  0  0  0  0  0  0
  139.0550   78.1370  221.0940 C   0  0  0  0  0  0  0  0  0  0  0  0
  139.9480   76.9450  220.9940 C   0  0  0  0  0  0  0  0  0  0  0  0
  139.1310   75.7500  221.0410 N   0  0  0  0  0  0  0  0  0  0  0  0
  139.5570   74.5280  221.6260 C   0  0  0  0  0  0  0  0  0  0  0  0
  140.6850   74.3790  222.1550 O   0  0  0  0  0  0  0  0  0  0  0  0
  138.6550   73.3380  221.6370 C   0  0  0  0  0  0  0  0  0  0  0  0
  139.0400   72.4690  222.7200 N   0  0  0  0  0  0  0  0  0  0  0  0
  138.5910   71.1370  222.7670 C   0  0  0  0  0  0  0  0  0  0  0  0
  137.8410   70.6080  221.8950 O   0  0  0  0  0  0  0  0  0  0  0  0
  139.0110   70.2840  223.8950 C   0  0  0  0  0  0  0  0  0  0  0  0
  138.8070   68.9230  223.8940 C   0  0  0  0  0  0  0  0  0  0  0  0
  139.1850   68.0930  224.9290 C   0  0  0  0  0  0  0  0  0  0  0  0
  139.8010   68.6670  226.0220 C   0  0  0  0  0  0  0  0  0  0  0  0
  140.2230   67.9370  227.1190 C   0  0  0  0  0  0  0  0  0  0  0  0
  140.8380   68.5310  228.2050 C   0  0  0  0  0  0  0  0  0  0  0  0
  141.2550   67.8240  229.2820 F   0  0  0  0  0  0  0  0  0  0  0  0
  141.0310   69.8950  228.1840 C   0  0  0  0  0  0  0  0  0  0  0  0
  140.6080   70.6190  227.0860 C   0  0  0  0  0  0  0  0  0  0  0  0
  139.9940   70.0330  225.9990 C   0  0  0  0  0  0  0  0  0  0  0  0
  139.6130   70.8150  224.9730 N   0  0  0  0  0  0  0  0  0  0  0  0
  137.9567   77.7660  223.1564 H   0  0  0  0  0  0  0  0  0  0  0  0
  136.7126   78.9020  222.5333 H   0  0  0  0  0  0  0  0  0  0  0  0
  136.3950   77.1340  222.5333 H   0  0  0  0  0  0  0  0  0  0  0  0
  139.2237   78.7742  220.2134 H   0  0  0  0  0  0  0  0  0  0  0  0
  139.3044   78.6524  222.0332 H   0  0  0  0  0  0  0  0  0  0  0  0
  140.5037   76.9769  220.0452 H   0  0  0  0  0  0  0  0  0  0  0  0
  140.6658   76.9424  221.8275 H   0  0  0  0  0  0  0  0  0  0  0  0
  138.1510   75.7380  220.6270 H   0  0  0  0  0  0  0  0  0  0  0  0
  137.6143   73.6651  221.7784 H   0  0  0  0  0  0  0  0  0  0  0  0
  138.7370   72.8000  220.6810 H   0  0  0  0  0  0  0  0  0  0  0  0
  139.6610   72.8670  223.4650 H   0  0  0  0  0  0  0  0  0  0  0  0
  138.3153   68.4720  223.0194 H   0  0  0  0  0  0  0  0  0  0  0  0
  139.0014   67.0094  224.8844 H   0  0  0  0  0  0  0  0  0  0  0  0
  140.0639   66.8486  227.1271 H   0  0  0  0  0  0  0  0  0  0  0  0
  141.5161   70.4015  229.0314 H   0  0  0  0  0  0  0  0  0  0  0  0
  140.7675   71.7074  227.0785 H   0  0  0  0  0  0  0  0  0  0  0  0
  1  2  1  0
  2  3  1  0
  3  4  1  0
  4  5  1  0
  5  6  1  0
  6  7  2  0
  6  8  1  0
  8  9  1  0
  9 10  1  0
 10 11  2  0
 10 12  1  0
 12 13  2  0
 13 14  1  0
 14 15  2  0
 15 16  1  0
 16 17  2  0
 17 18  1  0
 17 19  1  0
 19 20  2  0
 20 21  1  0
 21 22  2  0
 22 12  1  0
 21 15  1  0
  1 23  1  0
  1 24  1  0
  1 25  1  0
  3 26  1  0
  3 27  1  0
  4 28  1  0
  4 29  1  0
  5 30  1  0
  8 31  1  0
  8 32  1  0
  9 33  1  0
 13 34  1  0
 14 35  1  0
 16 36  1  0
 19 37  1  0
 20 38  1  0
M  END
>  <smiles>  (40) 
COCCNC(=O)CNC(=O)c1ccc2cc(F)ccc2n1

>  <score_type>  (40) 
oracle

>  <origin>  (40) 
autodockgpu

>  <m_score__min__energy>  (40) 
-6.71

>  <m_primary>  (40) 
energy

>  <rmsd>  (40) 
1.8522986078711012

>  <m_score__min__rmsd>  (40) 
1.8522986078711012

>  <meeko>  (40) 
{"free_energy": -5.08, "intermolecular_energy": -6.87, "internal_energy": -2.28, "cluster_size": 39, "cluster_id": 1, "rank_in_cluster": 39}

>  <energy>  (40) 
-6.39

>  <cluster_rmsd>  (40) 
0.0

>  <cluster>  (40) 
2

$$$$

     RDKit          3D

 38 39  0  0  0  0  0  0  0  0999 V2000
  142.9420   77.2130  217.5460 C   0  0  0  0  0  0  0  0  0  0  0  0
  142.2620   76.8590  218.6820 O   0  0  0  0  0  0  0  0  0  0  0  0
  142.1430   77.8890  219.6070 C   0  0  0  0  0  0  0  0  0  0  0  0
  141.2350   77.5590  220.7450 C   0  0  0  0  0  0  0  0  0  0  0  0
  140.6290   76.2680  220.4940 N   0  0  0  0  0  0  0  0  0  0  0  0
  140.0650   75.4520  221.5110 C   0  0  0  0  0  0  0  0  0  0  0  0
  140.0460   75.7830  222.7210 O   0  0  0  0  0  0  0  0  0  0  0  0
  139.4550   74.1320  221.1720 C   0  0  0  0  0  0  0  0  0  0  0  0
  139.5360   73.2700  222.3240 N   0  0  0  0  0  0  0  0  0  0  0  0
  139.5750   71.8720  222.1730 C   0  0  0  0  0  0  0  0  0  0  0  0
  139.5450   71.2750  221.0570 O   0  0  0  0  0  0  0  0  0  0  0  0
  139.6580   71.0290  223.3810 C   0  0  0  0  0  0  0  0  0  0  0  0
  139.1760   69.7390  223.4030 C   0  0  0  0  0  0  0  0  0  0  0  0
  139.2350   68.9210  224.5120 C   0  0  0  0  0  0  0  0  0  0  0  0
  139.8090   69.4300  225.6570 C   0  0  0  0  0  0  0  0  0  0  0  0
  139.9230   68.7040  226.8300 C   0  0  0  0  0  0  0  0  0  0  0  0
  140.5020   69.2330  227.9690 C   0  0  0  0  0  0  0  0  0  0  0  0
  140.6190   68.5300  229.1200 F   0  0  0  0  0  0  0  0  0  0  0  0
  140.9770   70.5260  227.9230 C   0  0  0  0  0  0  0  0  0  0  0  0
  140.8600   71.2450  226.7500 C   0  0  0  0  0  0  0  0  0  0  0  0
  140.2840   70.7250  225.6100 C   0  0  0  0  0  0  0  0  0  0  0  0
  140.2120   71.4970  224.5120 N   0  0  0  0  0  0  0  0  0  0  0  0
  143.8864   77.7047  217.8222 H   0  0  0  0  0  0  0  0  0  0  0  0
  143.1574   76.3126  216.9520 H   0  0  0  0  0  0  0  0  0  0  0  0
  142.3280   77.9059  216.9520 H   0  0  0  0  0  0  0  0  0  0  0  0
  143.1415   78.1128  220.0106 H   0  0  0  0  0  0  0  0  0  0  0  0
  141.7059   78.7504  219.0808 H   0  0  0  0  0  0  0  0  0  0  0  0
  141.8122   77.5217  221.6807 H   0  0  0  0  0  0  0  0  0  0  0  0
  140.4545   78.3285  220.8379 H   0  0  0  0  0  0  0  0  0  0  0  0
  140.5790   75.8670  219.5100 H   0  0  0  0  0  0  0  0  0  0  0  0
  138.4011   74.2738  220.8904 H   0  0  0  0  0  0  0  0  0  0  0  0
  139.9952   73.6778  220.3283 H   0  0  0  0  0  0  0  0  0  0  0  0
  139.5620   73.7220  223.2680 H   0  0  0  0  0  0  0  0  0  0  0  0
  138.7189   69.3391  222.4858 H   0  0  0  0  0  0  0  0  0  0  0  0
  138.8370   67.8959  224.4835 H   0  0  0  0  0  0  0  0  0  0  0  0
  139.5407   67.6729  226.8570 H   0  0  0  0  0  0  0  0  0  0  0  0
  141.4436   70.9796  228.8099 H   0  0  0  0  0  0  0  0  0  0  0  0
  141.2424   72.2761  226.7237 H   0  0  0  0  0  0  0  0  0  0  0  0
  1  2  1  0
  2  3  1  0
  3  4  1  0
  4  5  1  0
  5  6  1  0
  6  7  2  0
  6  8  1  0
  8  9  1  0
  9 10  1  0
 10 11  2  0
 10 12  1  0
 12 13  2  0
 13 14  1  0
 14 15  2  0
 15 16  1  0
 16 17  2  0
 17 18  1  0
 17 19  1  0
 19 20  2  0
 20 21  1  0
 21 22  2  0
 22 12  1  0
 21 15  1  0
  1 23  1  0
  1 24  1  0
  1 25  1  0
  3 26  1  0
  3 27  1  0
  4 28  1  0
  4 29  1  0
  5 30  1  0
  8 31  1  0
  8 32  1  0
  9 33  1  0
 13 34  1  0
 14 35  1  0
 16 36  1  0
 19 37  1  0
 20 38  1  0
M  END
>  <smiles>  (41) 
COCCNC(=O)CNC(=O)c1ccc2cc(F)ccc2n1

>  <score_type>  (41) 
oracle

>  <origin>  (41) 
autodockgpu

>  <m_score__min__energy>  (41) 
-6.71

>  <m_primary>  (41) 
energy

>  <rmsd>  (41) 
1.9852599906736292

>  <m_score__min__rmsd>  (41) 
1.9852599906736292

>  <meeko>  (41) 
{"free_energy": -5.36, "intermolecular_energy": -7.15, "internal_energy": -2.26, "cluster_size": 39, "cluster_id": 1, "rank_in_cluster": 35}

>  <energy>  (41) 
-6.27

>  <cluster_rmsd>  (41) 
0.49

>  <cluster>  (41) 
2

$$$$

     RDKit          3D

 38 39  0  0  0  0  0  0  0  0999 V2000
  141.4610   74.8860  220.8520 C   0  0  0  0  0  0  0  0  0  0  0  0
  140.7410   75.0980  221.9990 O   0  0  0  0  0  0  0  0  0  0  0  0
  140.0920   76.3260  222.0330 C   0  0  0  0  0  0  0  0  0  0  0  0
  138.6210   76.2110  222.2580 C   0  0  0  0  0  0  0  0  0  0  0  0
  138.2630   74.8070  222.2680 N   0  0  0  0  0  0  0  0  0  0  0  0
  136.9720   74.3210  221.9290 C   0  0  0  0  0  0  0  0  0  0  0  0
  136.0260   75.0720  221.5900 O   0  0  0  0  0  0  0  0  0  0  0  0
  136.6810   72.8570  221.9620 C   0  0  0  0  0  0  0  0  0  0  0  0
  137.3970   72.2620  223.0610 N   0  0  0  0  0  0  0  0  0  0  0  0
  138.7450   71.8860  222.9220 C   0  0  0  0  0  0  0  0  0  0  0  0
  139.4180   72.0340  221.8600 O   0  0  0  0  0  0  0  0  0  0  0  0
  139.4380   71.2800  224.0750 C   0  0  0  0  0  0  0  0  0  0  0  0
  140.5420   71.8660  224.6500 C   0  0  0  0  0  0  0  0  0  0  0  0
  141.2170   71.3300  225.7280 C   0  0  0  0  0  0  0  0  0  0  0  0
  140.7510   70.1430  226.2520 C   0  0  0  0  0  0  0  0  0  0  0  0
  141.3450   69.5110  227.3310 C   0  0  0  0  0  0  0  0  0  0  0  0
  140.8630   68.3200  227.8420 C   0  0  0  0  0  0  0  0  0  0  0  0
  141.4370   67.6950  228.8970 F   0  0  0  0  0  0  0  0  0  0  0  0
  139.7560   67.7520  227.2490 C   0  0  0  0  0  0  0  0  0  0  0  0
  139.1680   68.3880  226.1730 C   0  0  0  0  0  0  0  0  0  0  0  0
  139.6420   69.5760  225.6580 C   0  0  0  0  0  0  0  0  0  0  0  0
  139.0070   70.1240  224.6070 N   0  0  0  0  0  0  0  0  0  0  0  0
  142.4861   74.5842  221.1131 H   0  0  0  0  0  0  0  0  0  0  0  0
  140.9837   74.0903  220.2613 H   0  0  0  0  0  0  0  0  0  0  0  0
  141.4910   75.8134  220.2613 H   0  0  0  0  0  0  0  0  0  0  0  0
  140.5237   76.9265  222.8473 H   0  0  0  0  0  0  0  0  0  0  0  0
  140.2350   76.7971  221.0493 H   0  0  0  0  0  0  0  0  0  0  0  0
  138.3570   76.6676  223.2233 H   0  0  0  0  0  0  0  0  0  0  0  0
  138.0765   76.7318  221.4566 H   0  0  0  0  0  0  0  0  0  0  0  0
  138.9730   74.0620  222.5380 H   0  0  0  0  0  0  0  0  0  0  0  0
  135.6008   72.6985  222.0964 H   0  0  0  0  0  0  0  0  0  0  0  0
  136.9986   72.3932  221.0165 H   0  0  0  0  0  0  0  0  0  0  0  0
  136.8770   72.1210  223.9600 H   0  0  0  0  0  0  0  0  0  0  0  0
  140.9068   72.8138  224.2273 H   0  0  0  0  0  0  0  0  0  0  0  0
  142.0972   71.8330  226.1547 H   0  0  0  0  0  0  0  0  0  0  0  0
  142.2289   69.9711  227.7968 H   0  0  0  0  0  0  0  0  0  0  0  0
  139.3459   66.8042  227.6278 H   0  0  0  0  0  0  0  0  0  0  0  0
  138.2843   67.9273  225.7073 H   0  0  0  0  0  0  0  0  0  0  0  0
  1  2  1  0
  2  3  1  0
  3  4  1  0
  4  5  1  0
  5  6  1  0
  6  7  2  0
  6  8  1  0
  8  9  1  0
  9 10  1  0
 10 11  2  0
 10 12  1  0
 12 13  2  0
 13 14  1  0
 14 15  2  0
 15 16  1  0
 16 17  2  0
 17 18  1  0
 17 19  1  0
 19 20  2  0
 20 21  1  0
 21 22  2  0
 22 12  1  0
 21 15  1  0
  1 23  1  0
  1 24  1  0
  1 25  1  0
  3 26  1  0
  3 27  1  0
  4 28  1  0
  4 29  1  0
  5 30  1  0
  8 31  1  0
  8 32  1  0
  9 33  1  0
 13 34  1  0
 14 35  1  0
 16 36  1  0
 19 37  1  0
 20 38  1  0
M  END
>  <smiles>  (42) 
COCCNC(=O)CNC(=O)c1ccc2cc(F)ccc2n1

>  <score_type>  (42) 
oracle

>  <origin>  (42) 
autodockgpu

>  <m_score__min__energy>  (42) 
-6.71

>  <m_primary>  (42) 
energy

>  <rmsd>  (42) 
3.405143390506037

>  <m_score__min__rmsd>  (42) 
3.405143390506037

>  <meeko>  (42) 
{"free_energy": -5.27, "intermolecular_energy": -7.06, "internal_energy": -2.44, "cluster_size": 39, "cluster_id": 1, "rank_in_cluster": 37}

>  <energy>  (42) 
-6.14

>  <cluster_rmsd>  (42) 
1.52

>  <cluster>  (42) 
2

$$$$

     RDKit          3D

 38 39  0  0  0  0  0  0  0  0999 V2000
  145.5780   73.1510  217.8090 C   0  0  0  0  0  0  0  0  0  0  0  0
  145.9190   72.5430  218.9890 O   0  0  0  0  0  0  0  0  0  0  0  0
  146.1490   73.4330  220.0300 C   0  0  0  0  0  0  0  0  0  0  0  0
  144.9180   74.1500  220.4780 C   0  0  0  0  0  0  0  0  0  0  0  0
  143.7710   73.3040  220.2210 N   0  0  0  0  0  0  0  0  0  0  0  0
  142.4420   73.6470  220.5860 C   0  0  0  0  0  0  0  0  0  0  0  0
  142.1470   74.7190  221.1660 O   0  0  0  0  0  0  0  0  0  0  0  0
  141.3100   72.7200  220.2840 C   0  0  0  0  0  0  0  0  0  0  0  0
  141.0850   71.8690  221.4250 N   0  0  0  0  0  0  0  0  0  0  0  0
  140.4010   72.3500  222.5570 C   0  0  0  0  0  0  0  0  0  0  0  0
  139.9430   73.5250  222.6640 O   0  0  0  0  0  0  0  0  0  0  0  0
  140.1950   71.4420  223.7010 C   0  0  0  0  0  0  0  0  0  0  0  0
  139.5100   70.2550  223.5740 C   0  0  0  0  0  0  0  0  0  0  0  0
  139.2960   69.3810  224.6190 C   0  0  0  0  0  0  0  0  0  0  0  0
  139.7990   69.7220  225.8570 C   0  0  0  0  0  0  0  0  0  0  0  0
  139.6470   68.9270  226.9790 C   0  0  0  0  0  0  0  0  0  0  0  0
  140.1590   69.2870  228.2110 C   0  0  0  0  0  0  0  0  0  0  0  0
  140.0160   68.5140  229.3140 F   0  0  0  0  0  0  0  0  0  0  0  0
  140.8410   70.4800  228.3140 C   0  0  0  0  0  0  0  0  0  0  0  0
  140.9890   71.2710  227.1910 C   0  0  0  0  0  0  0  0  0  0  0  0
  140.4820   70.9180  225.9580 C   0  0  0  0  0  0  0  0  0  0  0  0
  140.6730   71.7490  224.9180 N   0  0  0  0  0  0  0  0  0  0  0  0
  145.0500   74.0925  218.0208 H   0  0  0  0  0  0  0  0  0  0  0  0
  146.4885   73.3636  217.2296 H   0  0  0  0  0  0  0  0  0  0  0  0
  144.9218   72.4849  217.2296 H   0  0  0  0  0  0  0  0  0  0  0  0
  146.5571   72.8729  220.8843 H   0  0  0  0  0  0  0  0  0  0  0  0
  146.8517   74.1935  219.6587 H   0  0  0  0  0  0  0  0  0  0  0  0
  144.9857   74.3654  221.5546 H   0  0  0  0  0  0  0  0  0  0  0  0
  144.8154   75.0985  219.9305 H   0  0  0  0  0  0  0  0  0  0  0  0
  143.8800   72.3640  219.7340 H   0  0  0  0  0  0  0  0  0  0  0  0
  140.4014   73.3033  220.0738 H   0  0  0  0  0  0  0  0  0  0  0  0
  141.5558   72.1064  219.4047 H   0  0  0  0  0  0  0  0  0  0  0  0
  141.4490   70.8880  221.3780 H   0  0  0  0  0  0  0  0  0  0  0  0
  139.1111   69.9887  222.5841 H   0  0  0  0  0  0  0  0  0  0  0  0
  138.7421   68.4424  224.4700 H   0  0  0  0  0  0  0  0  0  0  0  0
  139.1005   67.9768  226.8874 H   0  0  0  0  0  0  0  0  0  0  0  0
  141.2625   70.7987  229.2788 H   0  0  0  0  0  0  0  0  0  0  0  0
  141.5339   72.2220  227.2842 H   0  0  0  0  0  0  0  0  0  0  0  0
  1  2  1  0
  2  3  1  0
  3  4  1  0
  4  5  1  0
  5  6  1  0
  6  7  2  0
  6  8  1  0
  8  9  1  0
  9 10  1  0
 10 11  2  0
 10 12  1  0
 12 13  2  0
 13 14  1  0
 14 15  2  0
 15 16  1  0
 16 17  2  0
 17 18  1  0
 17 19  1  0
 19 20  2  0
 20 21  1  0
 21 22  2  0
 22 12  1  0
 21 15  1  0
  1 23  1  0
  1 24  1  0
  1 25  1  0
  3 26  1  0
  3 27  1  0
  4 28  1  0
  4 29  1  0
  5 30  1  0
  8 31  1  0
  8 32  1  0
  9 33  1  0
 13 34  1  0
 14 35  1  0
 16 36  1  0
 19 37  1  0
 20 38  1  0
M  END
>  <smiles>  (43) 
COCCNC(=O)CNC(=O)c1ccc2cc(F)ccc2n1

>  <score_type>  (43) 
oracle

>  <origin>  (43) 
autodockgpu

>  <m_score__min__energy>  (43) 
-6.71

>  <m_primary>  (43) 
energy

>  <rmsd>  (43) 
3.4132801216941395

>  <m_score__min__rmsd>  (43) 
3.4132801216941395

>  <meeko>  (43) 
{"free_energy": -6.27, "intermolecular_energy": -8.06, "internal_energy": -1.45, "cluster_size": 4, "cluster_id": 2, "rank_in_cluster": 2}

>  <energy>  (43) 
-5.54

>  <cluster_rmsd>  (43) 
1.86

>  <cluster>  (43) 
2

$$$$

     RDKit          3D

 38 39  0  0  0  0  0  0  0  0999 V2000
  143.9470   71.5550  220.4770 C   0  0  0  0  0  0  0  0  0  0  0  0
  143.6480   72.6190  219.6680 O   0  0  0  0  0  0  0  0  0  0  0  0
  144.3120   73.7890  220.0130 C   0  0  0  0  0  0  0  0  0  0  0  0
  143.3920   74.8950  220.4140 C   0  0  0  0  0  0  0  0  0  0  0  0
  142.0430   74.3720  220.4810 N   0  0  0  0  0  0  0  0  0  0  0  0
  140.9840   75.0140  221.1780 C   0  0  0  0  0  0  0  0  0  0  0  0
  141.1290   76.0950  221.7980 O   0  0  0  0  0  0  0  0  0  0  0  0
  139.6170   74.4130  221.1990 C   0  0  0  0  0  0  0  0  0  0  0  0
  139.5280   73.4940  222.3060 N   0  0  0  0  0  0  0  0  0  0  0  0
  140.3000   72.3180  222.3280 C   0  0  0  0  0  0  0  0  0  0  0  0
  141.1090   71.9810  221.4140 O   0  0  0  0  0  0  0  0  0  0  0  0
  140.1750   71.4080  223.4820 C   0  0  0  0  0  0  0  0  0  0  0  0
  139.5490   70.1860  223.3800 C   0  0  0  0  0  0  0  0  0  0  0  0
  139.4120   69.3070  224.4350 C   0  0  0  0  0  0  0  0  0  0  0  0
  139.9340   69.6820  225.6550 C   0  0  0  0  0  0  0  0  0  0  0  0
  139.8570   68.8850  226.7840 C   0  0  0  0  0  0  0  0  0  0  0  0
  140.3870   69.2780  227.9990 C   0  0  0  0  0  0  0  0  0  0  0  0
  140.3170   68.5050  229.1090 F   0  0  0  0  0  0  0  0  0  0  0  0
  141.0080   70.5060  228.0770 C   0  0  0  0  0  0  0  0  0  0  0  0
  141.0820   71.2970  226.9470 C   0  0  0  0  0  0  0  0  0  0  0  0
  140.5560   70.9110  225.7320 C   0  0  0  0  0  0  0  0  0  0  0  0
  140.6740   71.7450  224.6830 N   0  0  0  0  0  0  0  0  0  0  0  0
  143.8613   71.8599  221.5304 H   0  0  0  0  0  0  0  0  0  0  0  0
  143.2453   70.7323  220.2752 H   0  0  0  0  0  0  0  0  0  0  0  0
  144.9746   71.2183  220.2752 H   0  0  0  0  0  0  0  0  0  0  0  0
  144.9856   73.5726  220.8553 H   0  0  0  0  0  0  0  0  0  0  0  0
  144.8590   74.1280  219.1209 H   0  0  0  0  0  0  0  0  0  0  0  0
  143.6879   75.2844  221.3993 H   0  0  0  0  0  0  0  0  0  0  0  0
  143.4426   75.7114  219.6786 H   0  0  0  0  0  0  0  0  0  0  0  0
  141.7830   73.4610  219.9980 H   0  0  0  0  0  0  0  0  0  0  0  0
  138.8659   75.2079  221.3177 H   0  0  0  0  0  0  0  0  0  0  0  0
  139.4300   73.8793  220.2555 H   0  0  0  0  0  0  0  0  0  0  0  0
  138.8690   73.7340  223.0840 H   0  0  0  0  0  0  0  0  0  0  0  0
  139.1351   69.8942  222.4035 H   0  0  0  0  0  0  0  0  0  0  0  0
  138.9036   68.3400  224.3071 H   0  0  0  0  0  0  0  0  0  0  0  0
  139.3580   67.9073  226.7123 H   0  0  0  0  0  0  0  0  0  0  0  0
  141.4395   70.8520  229.0278 H   0  0  0  0  0  0  0  0  0  0  0  0
  141.5809   72.2747  227.0192 H   0  0  0  0  0  0  0  0  0  0  0  0
  1  2  1  0
  2  3  1  0
  3  4  1  0
  4  5  1  0
  5  6  1  0
  6  7  2  0
  6  8  1  0
  8  9  1  0
  9 10  1  0
 10 11  2  0
 10 12  1  0
 12 13  2  0
 13 14  1  0
 14 15  2  0
 15 16  1  0
 16 17  2  0
 17 18  1  0
 17 19  1  0
 19 20  2  0
 20 21  1  0
 21 22  2  0
 22 12  1  0
 21 15  1  0
  1 23  1  0
  1 24  1  0
  1 25  1  0
  3 26  1  0
  3 27  1  0
  4 28  1  0
  4 29  1  0
  5 30  1  0
  8 31  1  0
  8 32  1  0
  9 33  1  0
 13 34  1  0
 14 35  1  0
 16 36  1  0
 19 37  1  0
 20 38  1  0
M  END
>  <smiles>  (44) 
COCCNC(=O)CNC(=O)c1ccc2cc(F)ccc2n1

>  <score_type>  (44) 
oracle

>  <origin>  (44) 
autodockgpu

>  <m_score__min__energy>  (44) 
-6.71

>  <m_primary>  (44) 
energy

>  <rmsd>  (44) 
2.513786794495796

>  <m_score__min__rmsd>  (44) 
2.513786794495796

>  <meeko>  (44) 
{"free_energy": -5.57, "intermolecular_energy": -7.36, "internal_energy": -2.37, "cluster_size": 39, "cluster_id": 1, "rank_in_cluster": 19}

>  <energy>  (44) 
-5.75

>  <cluster_rmsd>  (44) 
0.0

>  <cluster>  (44) 
3

$$$$

     RDKit          3D

 38 39  0  0  0  0  0  0  0  0999 V2000
  142.9370   79.8400  222.9430 C   0  0  0  0  0  0  0  0  0  0  0  0
  141.8450   79.1620  222.4690 O   0  0  0  0  0  0  0  0  0  0  0  0
  140.6320   79.7390  222.8240 C   0  0  0  0  0  0  0  0  0  0  0  0
  139.4530   78.8810  222.5030 C   0  0  0  0  0  0  0  0  0  0  0  0
  139.9280   77.6400  221.9270 N   0  0  0  0  0  0  0  0  0  0  0  0
  139.2590   76.3950  222.0770 C   0  0  0  0  0  0  0  0  0  0  0  0
  138.1930   76.2650  222.7260 O   0  0  0  0  0  0  0  0  0  0  0  0
  139.8110   75.1580  221.4500 C   0  0  0  0  0  0  0  0  0  0  0  0
  139.6120   74.0490  222.3490 N   0  0  0  0  0  0  0  0  0  0  0  0
  140.4800   72.9420  222.3280 C   0  0  0  0  0  0  0  0  0  0  0  0
  141.4720   72.8310  221.5490 O   0  0  0  0  0  0  0  0  0  0  0  0
  140.2380   71.8310  223.2670 C   0  0  0  0  0  0  0  0  0  0  0  0
  139.5420   70.7020  222.8950 C   0  0  0  0  0  0  0  0  0  0  0  0
  139.2950   69.6430  223.7440 C   0  0  0  0  0  0  0  0  0  0  0  0
  139.7750   69.7270  225.0330 C   0  0  0  0  0  0  0  0  0  0  0  0
  139.5890   68.7280  225.9740 C   0  0  0  0  0  0  0  0  0  0  0  0
  140.0770   68.8310  227.2620 C   0  0  0  0  0  0  0  0  0  0  0  0
  139.9010   67.8590  228.1880 F   0  0  0  0  0  0  0  0  0  0  0  0
  140.7700   69.9700  227.6120 C   0  0  0  0  0  0  0  0  0  0  0  0
  140.9530   70.9630  226.6700 C   0  0  0  0  0  0  0  0  0  0  0  0
  140.4690   70.8680  225.3820 C   0  0  0  0  0  0  0  0  0  0  0  0
  140.6930   71.8840  224.5300 N   0  0  0  0  0  0  0  0  0  0  0  0
  142.9244   79.8322  224.0429 H   0  0  0  0  0  0  0  0  0  0  0  0
  143.8554   79.3531  222.5833 H   0  0  0  0  0  0  0  0  0  0  0  0
  142.9079   80.8791  222.5833 H   0  0  0  0  0  0  0  0  0  0  0  0
  140.6401   79.9300  223.9073 H   0  0  0  0  0  0  0  0  0  0  0  0
  140.5290   80.6656  222.2402 H   0  0  0  0  0  0  0  0  0  0  0  0
  138.8868   78.6701  223.4222 H   0  0  0  0  0  0  0  0  0  0  0  0
  138.7945   79.3986  221.7899 H   0  0  0  0  0  0  0  0  0  0  0  0
  140.8220   77.6080  221.3520 H   0  0  0  0  0  0  0  0  0  0  0  0
  139.2908   74.9616  220.5009 H   0  0  0  0  0  0  0  0  0  0  0  0
  140.8851   75.2885  221.2519 H   0  0  0  0  0  0  0  0  0  0  0  0
  138.8020   74.1000  223.0110 H   0  0  0  0  0  0  0  0  0  0  0  0
  139.1623   70.6415  221.8644 H   0  0  0  0  0  0  0  0  0  0  0  0
  138.7334   68.7607  223.4032 H   0  0  0  0  0  0  0  0  0  0  0  0
  139.0344   67.8227  225.6861 H   0  0  0  0  0  0  0  0  0  0  0  0
  141.1723   70.0865  228.6291 H   0  0  0  0  0  0  0  0  0  0  0  0
  141.5081   71.8677  226.9590 H   0  0  0  0  0  0  0  0  0  0  0  0
  1  2  1  0
  2  3  1  0
  3  4  1  0
  4  5  1  0
  5  6  1  0
  6  7  2  0
  6  8  1  0
  8  9  1  0
  9 10  1  0
 10 11  2  0
 10 12  1  0
 12 13  2  0
 13 14  1  0
 14 15  2  0
 15 16  1  0
 16 17  2  0
 17 18  1  0
 17 19  1  0
 19 20  2  0
 20 21  1  0
 21 22  2  0
 22 12  1  0
 21 15  1  0
  1 23  1  0
  1 24  1  0
  1 25  1  0
  3 26  1  0
  3 27  1  0
  4 28  1  0
  4 29  1  0
  5 30  1  0
  8 31  1  0
  8 32  1  0
  9 33  1  0
 13 34  1  0
 14 35  1  0
 16 36  1  0
 19 37  1  0
 20 38  1  0
M  END
>  <smiles>  (45) 
COCCNC(=O)CNC(=O)c1ccc2cc(F)ccc2n1

>  <score_type>  (45) 
oracle

>  <origin>  (45) 
autodockgpu

>  <m_score__min__energy>  (45) 
-6.71

>  <m_primary>  (45) 
energy

>  <rmsd>  (45) 
3.109290831484862

>  <m_score__min__rmsd>  (45) 
3.109290831484862

>  <meeko>  (45) 
{"free_energy": -5.6, "intermolecular_energy": -7.39, "internal_energy": -1.98, "cluster_size": 39, "cluster_id": 1, "rank_in_cluster": 16}

>  <energy>  (45) 
-5.28

>  <cluster_rmsd>  (45) 
1.23

>  <cluster>  (45) 
3

$$$$

     RDKit          3D

 38 39  0  0  0  0  0  0  0  0999 V2000
  140.7350   76.2930  221.9210 C   0  0  0  0  0  0  0  0  0  0  0  0
  139.6460   75.8050  222.5940 O   0  0  0  0  0  0  0  0  0  0  0  0
  138.4670   76.4860  222.3180 C   0  0  0  0  0  0  0  0  0  0  0  0
  137.4380   75.6390  221.6440 C   0  0  0  0  0  0  0  0  0  0  0  0
  138.0060   74.3290  221.4010 N   0  0  0  0  0  0  0  0  0  0  0  0
  137.2370   73.1350  221.3480 C   0  0  0  0  0  0  0  0  0  0  0  0
  135.9930   73.1150  221.5090 O   0  0  0  0  0  0  0  0  0  0  0  0
  137.8960   71.8200  221.0900 C   0  0  0  0  0  0  0  0  0  0  0  0
  138.3730   71.2830  222.3400 N   0  0  0  0  0  0  0  0  0  0  0  0
  139.4350   71.8960  223.0270 C   0  0  0  0  0  0  0  0  0  0  0  0
  140.0390   72.9330  222.6230 O   0  0  0  0  0  0  0  0  0  0  0  0
  139.8890   71.3100  224.3030 C   0  0  0  0  0  0  0  0  0  0  0  0
  140.8070   71.9440  225.1090 C   0  0  0  0  0  0  0  0  0  0  0  0
  141.2550   71.4290  226.3080 C   0  0  0  0  0  0  0  0  0  0  0  0
  140.7520   70.2110  226.7130 C   0  0  0  0  0  0  0  0  0  0  0  0
  141.1270   69.5950  227.8940 C   0  0  0  0  0  0  0  0  0  0  0  0
  140.6110   68.3730  228.2820 C   0  0  0  0  0  0  0  0  0  0  0  0
  140.9720   67.7630  229.4360 F   0  0  0  0  0  0  0  0  0  0  0  0
  139.6940   67.7560  227.4580 C   0  0  0  0  0  0  0  0  0  0  0  0
  139.3240   68.3760  226.2810 C   0  0  0  0  0  0  0  0  0  0  0  0
  139.8340   69.5950  225.8870 C   0  0  0  0  0  0  0  0  0  0  0  0
  139.4160   70.1250  224.7230 N   0  0  0  0  0  0  0  0  0  0  0  0
  141.4913   76.6319  222.6442 H   0  0  0  0  0  0  0  0  0  0  0  0
  141.1613   75.4998  221.2892 H   0  0  0  0  0  0  0  0  0  0  0  0
  140.4267   77.1391  221.2892 H   0  0  0  0  0  0  0  0  0  0  0  0
  138.0481   76.8564  223.2653 H   0  0  0  0  0  0  0  0  0  0  0  0
  138.7181   77.3042  221.6270 H   0  0  0  0  0  0  0  0  0  0  0  0
  136.5533   75.5453  222.2909 H   0  0  0  0  0  0  0  0  0  0  0  0
  137.1357   76.1003  220.6923 H   0  0  0  0  0  0  0  0  0  0  0  0
  139.0510   74.2030  221.2480 H   0  0  0  0  0  0  0  0  0  0  0  0
  137.1703   71.1249  220.6425 H   0  0  0  0  0  0  0  0  0  0  0  0
  138.7393   71.9556  220.3968 H   0  0  0  0  0  0  0  0  0  0  0  0
  137.9000   70.4240  222.7100 H   0  0  0  0  0  0  0  0  0  0  0  0
  141.2055   72.9148  224.7791 H   0  0  0  0  0  0  0  0  0  0  0  0
  141.9894   71.9724  226.9207 H   0  0  0  0  0  0  0  0  0  0  0  0
  141.8596   70.0942  228.5452 H   0  0  0  0  0  0  0  0  0  0  0  0
  139.2628   66.7826  227.7345 H   0  0  0  0  0  0  0  0  0  0  0  0
  138.5914   67.8763  225.6302 H   0  0  0  0  0  0  0  0  0  0  0  0
  1  2  1  0
  2  3  1  0
  3  4  1  0
  4  5  1  0
  5  6  1  0
  6  7  2  0
  6  8  1  0
  8  9  1  0
  9 10  1  0
 10 11  2  0
 10 12  1  0
 12 13  2  0
 13 14  1  0
 14 15  2  0
 15 16  1  0
 16 17  2  0
 17 18  1  0
 17 19  1  0
 19 20  2  0
 20 21  1  0
 21 22  2  0
 22 12  1  0
 21 15  1  0
  1 23  1  0
  1 24  1  0
  1 25  1  0
  3 26  1  0
  3 27  1  0
  4 28  1  0
  4 29  1  0
  5 30  1  0
  8 31  1  0
  8 32  1  0
  9 33  1  0
 13 34  1  0
 14 35  1  0
 16 36  1  0
 19 37  1  0
 20 38  1  0
M  END
>  <smiles>  (46) 
COCCNC(=O)CNC(=O)c1ccc2cc(F)ccc2n1

>  <score_type>  (46) 
oracle

>  <origin>  (46) 
autodockgpu

>  <m_score__min__energy>  (46) 
-6.71

>  <m_primary>  (46) 
energy

>  <rmsd>  (46) 
3.5222409133565167

>  <m_score__min__rmsd>  (46) 
3.5222409133565167

>  <meeko>  (46) 
{"free_energy": -4.96, "intermolecular_energy": -6.75, "internal_energy": -2.59, "cluster_size": 7, "cluster_id": 3, "rank_in_cluster": 7}

>  <energy>  (46) 
-5.22

>  <cluster_rmsd>  (46) 
1.35

>  <cluster>  (46) 
3

$$$$

     RDKit          3D

 38 39  0  0  0  0  0  0  0  0999 V2000
  141.8030   79.5040  219.5760 C   0  0  0  0  0  0  0  0  0  0  0  0
  142.1930   78.7990  220.6840 O   0  0  0  0  0  0  0  0  0  0  0  0
  141.7190   79.3270  221.8780 C   0  0  0  0  0  0  0  0  0  0  0  0
  140.7720   78.4200  222.5920 C   0  0  0  0  0  0  0  0  0  0  0  0
  140.8560   77.1030  221.9960 N   0  0  0  0  0  0  0  0  0  0  0  0
  139.7820   76.1730  221.9870 C   0  0  0  0  0  0  0  0  0  0  0  0
  138.6620   76.4160  222.4980 O   0  0  0  0  0  0  0  0  0  0  0  0
  139.9460   74.8320  221.3500 C   0  0  0  0  0  0  0  0  0  0  0  0
  139.7480   73.8120  222.3490 N   0  0  0  0  0  0  0  0  0  0  0  0
  140.5650   72.6680  222.3800 C   0  0  0  0  0  0  0  0  0  0  0  0
  141.5080   72.4450  221.5650 O   0  0  0  0  0  0  0  0  0  0  0  0
  140.3250   71.6500  223.4200 C   0  0  0  0  0  0  0  0  0  0  0  0
  139.6770   70.4670  223.1460 C   0  0  0  0  0  0  0  0  0  0  0  0
  139.4340   69.4920  224.0910 C   0  0  0  0  0  0  0  0  0  0  0  0
  139.8670   69.7230  225.3800 C   0  0  0  0  0  0  0  0  0  0  0  0
  139.6800   68.8210  226.4120 C   0  0  0  0  0  0  0  0  0  0  0  0
  140.1220   69.0710  227.6970 C   0  0  0  0  0  0  0  0  0  0  0  0
  139.9440   68.1930  228.7120 F   0  0  0  0  0  0  0  0  0  0  0  0
  140.7670   70.2620  227.9480 C   0  0  0  0  0  0  0  0  0  0  0  0
  140.9510   71.1600  226.9150 C   0  0  0  0  0  0  0  0  0  0  0  0
  140.5140   70.9170  225.6290 C   0  0  0  0  0  0  0  0  0  0  0  0
  140.7350   71.8480  224.6840 N   0  0  0  0  0  0  0  0  0  0  0  0
  141.2926   80.4266  219.8894 H   0  0  0  0  0  0  0  0  0  0  0  0
  142.6875   79.7605  218.9745 H   0  0  0  0  0  0  0  0  0  0  0  0
  141.1157   78.8909  218.9745 H   0  0  0  0  0  0  0  0  0  0  0  0
  142.5772   79.5242  222.5373 H   0  0  0  0  0  0  0  0  0  0  0  0
  141.1658   80.2450  221.6306 H   0  0  0  0  0  0  0  0  0  0  0  0
  141.0444   78.3633  223.6562 H   0  0  0  0  0  0  0  0  0  0  0  0
  139.7455   78.8062  222.5072 H   0  0  0  0  0  0  0  0  0  0  0  0
  141.7510   76.7680  221.5280 H   0  0  0  0  0  0  0  0  0  0  0  0
  139.2036   74.7115  220.5473 H   0  0  0  0  0  0  0  0  0  0  0  0
  140.9559   74.7438  220.9230 H   0  0  0  0  0  0  0  0  0  0  0  0
  138.9770   73.9560  223.0440 H   0  0  0  0  0  0  0  0  0  0  0  0
  139.3338   70.2892  222.1161 H   0  0  0  0  0  0  0  0  0  0  0  0
  138.9121   68.5609  223.8253 H   0  0  0  0  0  0  0  0  0  0  0  0
  139.1622   67.8733  226.2027 H   0  0  0  0  0  0  0  0  0  0  0  0
  141.1313   70.4951  228.9594 H   0  0  0  0  0  0  0  0  0  0  0  0
  141.4673   72.1081  227.1262 H   0  0  0  0  0  0  0  0  0  0  0  0
  1  2  1  0
  2  3  1  0
  3  4  1  0
  4  5  1  0
  5  6  1  0
  6  7  2  0
  6  8  1  0
  8  9  1  0
  9 10  1  0
 10 11  2  0
 10 12  1  0
 12 13  2  0
 13 14  1  0
 14 15  2  0
 15 16  1  0
 16 17  2  0
 17 18  1  0
 17 19  1  0
 19 20  2  0
 20 21  1  0
 21 22  2  0
 22 12  1  0
 21 15  1  0
  1 23  1  0
  1 24  1  0
  1 25  1  0
  3 26  1  0
  3 27  1  0
  4 28  1  0
  4 29  1  0
  5 30  1  0
  8 31  1  0
  8 32  1  0
  9 33  1  0
 13 34  1  0
 14 35  1  0
 16 36  1  0
 19 37  1  0
 20 38  1  0
M  END
>  <smiles>  (47) 
COCCNC(=O)CNC(=O)c1ccc2cc(F)ccc2n1

>  <score_type>  (47) 
oracle

>  <origin>  (47) 
autodockgpu

>  <m_score__min__energy>  (47) 
-6.71

>  <m_primary>  (47) 
energy

>  <rmsd>  (47) 
2.923634540226202

>  <m_score__min__rmsd>  (47) 
2.923634540226202

>  <meeko>  (47) 
{"free_energy": -6.09, "intermolecular_energy": -7.88, "internal_energy": -1.67, "cluster_size": 39, "cluster_id": 1, "rank_in_cluster": 6}

>  <energy>  (47) 
-5.22

>  <cluster_rmsd>  (47) 
1.77

>  <cluster>  (47) 
3

$$$$

     RDKit          3D

 38 39  0  0  0  0  0  0  0  0999 V2000
  142.8940   80.5320  223.5110 C   0  0  0  0  0  0  0  0  0  0  0  0
  141.7000   79.9520  223.8520 O   0  0  0  0  0  0  0  0  0  0  0  0
  141.5810   78.6320  223.4350 C   0  0  0  0  0  0  0  0  0  0  0  0
  140.9060   78.4890  222.1110 C   0  0  0  0  0  0  0  0  0  0  0  0
  141.0660   77.1230  221.6560 N   0  0  0  0  0  0  0  0  0  0  0  0
  140.0590   76.1290  221.7750 C   0  0  0  0  0  0  0  0  0  0  0  0
  138.9360   76.3510  222.2890 O   0  0  0  0  0  0  0  0  0  0  0  0
  140.3000   74.7420  221.2790 C   0  0  0  0  0  0  0  0  0  0  0  0
  140.0280   73.8100  222.3440 N   0  0  0  0  0  0  0  0  0  0  0  0
  140.6300   72.5380  222.3570 C   0  0  0  0  0  0  0  0  0  0  0  0
  141.4310   72.1210  221.4710 O   0  0  0  0  0  0  0  0  0  0  0  0
  140.3210   71.6180  223.4680 C   0  0  0  0  0  0  0  0  0  0  0  0
  139.6290   70.4440  223.2700 C   0  0  0  0  0  0  0  0  0  0  0  0
  139.3220   69.5590  224.2820 C   0  0  0  0  0  0  0  0  0  0  0  0
  139.7340   69.8730  225.5590 C   0  0  0  0  0  0  0  0  0  0  0  0
  139.4840   69.0640  226.6530 C   0  0  0  0  0  0  0  0  0  0  0  0
  139.9060   69.3970  227.9270 C   0  0  0  0  0  0  0  0  0  0  0  0
  139.6660   68.6100  229.0030 F   0  0  0  0  0  0  0  0  0  0  0  0
  140.5970   70.5760  228.1010 C   0  0  0  0  0  0  0  0  0  0  0  0
  140.8440   71.3800  227.0050 C   0  0  0  0  0  0  0  0  0  0  0  0
  140.4260   71.0550  225.7320 C   0  0  0  0  0  0  0  0  0  0  0  0
  140.7110   71.8970  224.7230 N   0  0  0  0  0  0  0  0  0  0  0  0
  143.4455   80.7999  224.4242 H   0  0  0  0  0  0  0  0  0  0  0  0
  143.4898   79.8229  222.9175 H   0  0  0  0  0  0  0  0  0  0  0  0
  142.7050   81.4387  222.9175 H   0  0  0  0  0  0  0  0  0  0  0  0
  142.5886   78.1969  223.3619 H   0  0  0  0  0  0  0  0  0  0  0  0
  140.9571   78.1113  224.1764 H   0  0  0  0  0  0  0  0  0  0  0  0
  139.8360   78.7226  222.2133 H   0  0  0  0  0  0  0  0  0  0  0  0
  141.3540   79.1823  221.3839 H   0  0  0  0  0  0  0  0  0  0  0  0
  141.9720   76.8000  221.2000 H   0  0  0  0  0  0  0  0  0  0  0  0
  139.6352   74.5338  220.4277 H   0  0  0  0  0  0  0  0  0  0  0  0
  141.3457   74.6398  220.9532 H   0  0  0  0  0  0  0  0  0  0  0  0
  139.3690   74.1140  223.0990 H   0  0  0  0  0  0  0  0  0  0  0  0
  139.3032   70.1987  222.2484 H   0  0  0  0  0  0  0  0  0  0  0  0
  138.7662   68.6323  224.0765 H   0  0  0  0  0  0  0  0  0  0  0  0
  138.9312   68.1247  226.5045 H   0  0  0  0  0  0  0  0  0  0  0  0
  140.9477   70.8736  229.1002 H   0  0  0  0  0  0  0  0  0  0  0  0
  141.3974   72.3189  227.1543 H   0  0  0  0  0  0  0  0  0  0  0  0
  1  2  1  0
  2  3  1  0
  3  4  1  0
  4  5  1  0
  5  6  1  0
  6  7  2  0
  6  8  1  0
  8  9  1  0
  9 10  1  0
 10 11  2  0
 10 12  1  0
 12 13  2  0
 13 14  1  0
 14 15  2  0
 15 16  1  0
 16 17  2  0
 17 18  1  0
 17 19  1  0
 19 20  2  0
 20 21  1  0
 21 22  2  0
 22 12  1  0
 21 15  1  0
  1 23  1  0
  1 24  1  0
  1 25  1  0
  3 26  1  0
  3 27  1  0
  4 28  1  0
  4 29  1  0
  5 30  1  0
  8 31  1  0
  8 32  1  0
  9 33  1  0
 13 34  1  0
 14 35  1  0
 16 36  1  0
 19 37  1  0
 20 38  1  0
M  END
>  <smiles>  (48) 
COCCNC(=O)CNC(=O)c1ccc2cc(F)ccc2n1

>  <score_type>  (48) 
oracle

>  <origin>  (48) 
autodockgpu

>  <m_score__min__energy>  (48) 
-6.71

>  <m_primary>  (48) 
energy

>  <rmsd>  (48) 
2.9487033266306613

>  <m_score__min__rmsd>  (48) 
2.9487033266306613

>  <meeko>  (48) 
{"free_energy": -6.6, "intermolecular_energy": -8.39, "internal_energy": -1.09, "cluster_size": 39, "cluster_id": 1, "rank_in_cluster": 4}

>  <energy>  (48) 
-5.21

>  <cluster_rmsd>  (48) 
1.2

>  <cluster>  (48) 
3

$$$$

     RDKit          3D

 38 39  0  0  0  0  0  0  0  0999 V2000
  144.0530   71.5120  219.8860 C   0  0  0  0  0  0  0  0  0  0  0  0
  143.7860   72.4960  220.8010 O   0  0  0  0  0  0  0  0  0  0  0  0
  144.4090   73.7060  220.5190 C   0  0  0  0  0  0  0  0  0  0  0  0
  143.4590   74.8520  220.4220 C   0  0  0  0  0  0  0  0  0  0  0  0
  142.1070   74.3420  220.5280 N   0  0  0  0  0  0  0  0  0  0  0  0
  141.0210   75.0930  221.0520 C   0  0  0  0  0  0  0  0  0  0  0  0
  141.1410   76.2700  221.4710 O   0  0  0  0  0  0  0  0  0  0  0  0
  139.6540   74.4970  221.1260 C   0  0  0  0  0  0  0  0  0  0  0  0
  139.5930   73.6030  222.2540 N   0  0  0  0  0  0  0  0  0  0  0  0
  140.2430   72.3560  222.2180 C   0  0  0  0  0  0  0  0  0  0  0  0
  140.9110   71.9300  221.2310 O   0  0  0  0  0  0  0  0  0  0  0  0
  140.1540   71.4730  223.3970 C   0  0  0  0  0  0  0  0  0  0  0  0
  139.5660   70.2300  223.3320 C   0  0  0  0  0  0  0  0  0  0  0  0
  139.4630   69.3770  224.4120 C   0  0  0  0  0  0  0  0  0  0  0  0
  139.9800   69.8010  225.6180 C   0  0  0  0  0  0  0  0  0  0  0  0
  139.9350   69.0330  226.7680 C   0  0  0  0  0  0  0  0  0  0  0  0
  140.4590   69.4760  227.9690 C   0  0  0  0  0  0  0  0  0  0  0  0
  140.4200   68.7310  229.0990 F   0  0  0  0  0  0  0  0  0  0  0  0
  141.0430   70.7240  228.0090 C   0  0  0  0  0  0  0  0  0  0  0  0
  141.0840   71.4850  226.8570 C   0  0  0  0  0  0  0  0  0  0  0  0
  140.5640   71.0500  225.6560 C   0  0  0  0  0  0  0  0  0  0  0  0
  140.6490   71.8590  224.5850 N   0  0  0  0  0  0  0  0  0  0  0  0
  144.3058   70.5801  220.4130 H   0  0  0  0  0  0  0  0  0  0  0  0
  143.1670   71.3477  219.2552 H   0  0  0  0  0  0  0  0  0  0  0  0
  144.9006   71.8181  219.2552 H   0  0  0  0  0  0  0  0  0  0  0  0
  145.1334   73.9201  221.3186 H   0  0  0  0  0  0  0  0  0  0  0  0
  144.8934   73.6012  219.5370 H   0  0  0  0  0  0  0  0  0  0  0  0
  143.6518   75.5633  221.2386 H   0  0  0  0  0  0  0  0  0  0  0  0
  143.5912   75.3693  219.4602 H   0  0  0  0  0  0  0  0  0  0  0  0
  141.8660   73.3570  220.2080 H   0  0  0  0  0  0  0  0  0  0  0  0
  138.9090   75.2969  221.2486 H   0  0  0  0  0  0  0  0  0  0  0  0
  139.4394   73.9428  220.2003 H   0  0  0  0  0  0  0  0  0  0  0  0
  139.0500   73.9160  223.0930 H   0  0  0  0  0  0  0  0  0  0  0  0
  139.1559   69.8986  222.3666 H   0  0  0  0  0  0  0  0  0  0  0  0
  138.9843   68.3915  224.3140 H   0  0  0  0  0  0  0  0  0  0  0  0
  139.4675   68.0382  226.7258 H   0  0  0  0  0  0  0  0  0  0  0  0
  141.4709   71.1089  228.9464 H   0  0  0  0  0  0  0  0  0  0  0  0
  141.5511   72.4800  226.8993 H   0  0  0  0  0  0  0  0  0  0  0  0
  1  2  1  0
  2  3  1  0
  3  4  1  0
  4  5  1  0
  5  6  1  0
  6  7  2  0
  6  8  1  0
  8  9  1  0
  9 10  1  0
 10 11  2  0
 10 12  1  0
 12 13  2  0
 13 14  1  0
 14 15  2  0
 15 16  1  0
 16 17  2  0
 17 18  1  0
 17 19  1  0
 19 20  2  0
 20 21  1  0
 21 22  2  0
 22 12  1  0
 21 15  1  0
  1 23  1  0
  1 24  1  0
  1 25  1  0
  3 26  1  0
  3 27  1  0
  4 28  1  0
  4 29  1  0
  5 30  1  0
  8 31  1  0
  8 32  1  0
  9 33  1  0
 13 34  1  0
 14 35  1  0
 16 36  1  0
 19 37  1  0
 20 38  1  0
M  END
>  <smiles>  (49) 
COCCNC(=O)CNC(=O)c1ccc2cc(F)ccc2n1

>  <score_type>  (49) 
oracle

>  <origin>  (49) 
autodockgpu

>  <m_score__min__energy>  (49) 
-6.71

>  <m_primary>  (49) 
energy

>  <rmsd>  (49) 
2.5831819988917264

>  <m_score__min__rmsd>  (49) 
2.5831819988917264

>  <meeko>  (49) 
{"free_energy": -5.58, "intermolecular_energy": -7.37, "internal_energy": -2.41, "cluster_size": 39, "cluster_id": 1, "rank_in_cluster": 18}

>  <energy>  (49) 
-5.09

>  <cluster_rmsd>  (49) 
1.49

>  <cluster>  (49) 
3

$$$$

     RDKit          3D

 38 39  0  0  0  0  0  0  0  0999 V2000
  139.8720   76.7780  221.9930 C   0  0  0  0  0  0  0  0  0  0  0  0
  139.1340   75.9740  222.8220 O   0  0  0  0  0  0  0  0  0  0  0  0
  137.8150   76.3810  222.9670 C   0  0  0  0  0  0  0  0  0  0  0  0
  136.8250   75.3290  222.5900 C   0  0  0  0  0  0  0  0  0  0  0  0
  137.5430   74.1080  222.2860 N   0  0  0  0  0  0  0  0  0  0  0  0
  137.0480   73.1000  221.4160 C   0  0  0  0  0  0  0  0  0  0  0  0
  135.9400   73.1830  220.8330 O   0  0  0  0  0  0  0  0  0  0  0  0
  137.8490   71.8680  221.1500 C   0  0  0  0  0  0  0  0  0  0  0  0
  138.3040   71.3260  222.4060 N   0  0  0  0  0  0  0  0  0  0  0  0
  139.4160   71.8790  223.0660 C   0  0  0  0  0  0  0  0  0  0  0  0
  140.0850   72.8610  222.6320 O   0  0  0  0  0  0  0  0  0  0  0  0
  139.8450   71.2900  224.3490 C   0  0  0  0  0  0  0  0  0  0  0  0
  140.7350   71.9300  225.1820 C   0  0  0  0  0  0  0  0  0  0  0  0
  141.1600   71.4130  226.3880 C   0  0  0  0  0  0  0  0  0  0  0  0
  140.6610   70.1870  226.7740 C   0  0  0  0  0  0  0  0  0  0  0  0
  141.0140   69.5680  227.9600 C   0  0  0  0  0  0  0  0  0  0  0  0
  140.5030   68.3380  228.3290 C   0  0  0  0  0  0  0  0  0  0  0  0
  140.8420   67.7260  229.4880 F   0  0  0  0  0  0  0  0  0  0  0  0
  139.6130   67.7160  227.4790 C   0  0  0  0  0  0  0  0  0  0  0  0
  139.2640   68.3380  226.2960 C   0  0  0  0  0  0  0  0  0  0  0  0
  139.7700   69.5650  225.9220 C   0  0  0  0  0  0  0  0  0  0  0  0
  139.3760   70.0970  224.7510 N   0  0  0  0  0  0  0  0  0  0  0  0
  140.4936   77.4553  222.5971 H   0  0  0  0  0  0  0  0  0  0  0  0
  140.5190   76.1547  221.3583 H   0  0  0  0  0  0  0  0  0  0  0  0
  139.1957   77.3694  221.3583 H   0  0  0  0  0  0  0  0  0  0  0  0
  137.6485   76.6555  224.0191 H   0  0  0  0  0  0  0  0  0  0  0  0
  137.6607   77.2310  222.2861 H   0  0  0  0  0  0  0  0  0  0  0  0
  136.1333   75.1538  223.4271 H   0  0  0  0  0  0  0  0  0  0  0  0
  136.2465   75.6538  221.7126 H   0  0  0  0  0  0  0  0  0  0  0  0
  138.4970   73.9100  222.7140 H   0  0  0  0  0  0  0  0  0  0  0  0
  137.2236   71.1257  220.6325 H   0  0  0  0  0  0  0  0  0  0  0  0
  138.7133   72.1153  220.5161 H   0  0  0  0  0  0  0  0  0  0  0  0
  137.7780   70.5110  222.8010 H   0  0  0  0  0  0  0  0  0  0  0  0
  141.1290   72.9079  224.8683 H   0  0  0  0  0  0  0  0  0  0  0  0
  141.8736   71.9608  227.0210 H   0  0  0  0  0  0  0  0  0  0  0  0
  141.7250   70.0716  228.6315 H   0  0  0  0  0  0  0  0  0  0  0  0
  139.1861   66.7364  227.7398 H   0  0  0  0  0  0  0  0  0  0  0  0
  138.5533   67.8338  225.6247 H   0  0  0  0  0  0  0  0  0  0  0  0
  1  2  1  0
  2  3  1  0
  3  4  1  0
  4  5  1  0
  5  6  1  0
  6  7  2  0
  6  8  1  0
  8  9  1  0
  9 10  1  0
 10 11  2  0
 10 12  1  0
 12 13  2  0
 13 14  1  0
 14 15  2  0
 15 16  1  0
 16 17  2  0
 17 18  1  0
 17 19  1  0
 19 20  2  0
 20 21  1  0
 21 22  2  0
 22 12  1  0
 21 15  1  0
  1 23  1  0
  1 24  1  0
  1 25  1  0
  3 26  1  0
  3 27  1  0
  4 28  1  0
  4 29  1  0
  5 30  1  0
  8 31  1  0
  8 32  1  0
  9 33  1  0
 13 34  1  0
 14 35  1  0
 16 36  1  0
 19 37  1  0
 20 38  1  0
M  END
>  <smiles>  (50) 
COCCNC(=O)CNC(=O)c1ccc2cc(F)ccc2n1

>  <score_type>  (50) 
oracle

>  <origin>  (50) 
autodockgpu

>  <m_score__min__energy>  (50) 
-6.71

>  <m_primary>  (50) 
energy

>  <rmsd>  (50) 
3.7780654138443404

>  <m_score__min__rmsd>  (50) 
3.7780654138443404

>  <meeko>  (50) 
{"free_energy": -5.22, "intermolecular_energy": -7.01, "internal_energy": -2.57, "cluster_size": 7, "cluster_id": 3, "rank_in_cluster": 3}

>  <energy>  (50) 
-4.96

>  <cluster_rmsd>  (50) 
1.28

>  <cluster>  (50) 
3

$$$$
