
     RDKit          3D

 60 63  0  0  0  0  0  0  0  0999 V2000
  135.3570   68.8090  224.5330 O   0  0  0  0  0  0  0  0  0  0  0  0
  135.5690   69.8670  223.8480 C   0  0  0  0  0  0  0  0  0  0  0  0
  136.2490   69.8040  222.5910 N   0  0  0  0  0  0  0  0  0  0  0  0
  136.6890   68.5040  222.1200 C   0  0  0  0  0  0  0  0  0  0  0  0
  138.0220   68.2520  222.6600 C   0  0  0  0  0  0  0  0  0  0  0  0
  138.4150   67.1140  223.0900 O   0  0  0  0  0  0  0  0  0  0  0  0
  138.9550   69.3250  222.7200 N   0  0  0  0  0  0  0  0  0  0  0  0
  139.8270   69.5580  221.5870 C   0  0  0  0  0  0  0  0  0  0  0  0
  139.3440   70.6000  220.6580 C   0  0  0  0  0  0  0  0  0  0  0  0
  139.2650   71.9950  221.1640 C   0  0  0  0  0  0  0  0  0  0  0  0
  138.6840   72.2100  222.4990 C   0  0  0  0  0  0  0  0  0  0  0  0
  139.2990   71.5580  223.6780 C   0  0  0  0  0  0  0  0  0  0  0  0
  138.9750   70.1400  223.9420 C   0  0  2  0  0  0  0  0  0  0  0  0
  139.8000   69.4710  225.0170 C   0  0  0  0  0  0  0  0  0  0  0  0
  138.9840   68.4240  225.7650 C   0  0  0  0  0  0  0  0  0  0  0  0
  140.0010   67.5200  226.4450 C   0  0  0  0  0  0  0  0  0  0  0  0
  141.0290   68.3550  227.1900 C   0  0  0  0  0  0  0  0  0  0  0  0
  140.5480   69.7830  227.3450 C   0  0  0  0  0  0  0  0  0  0  0  0
  140.2890   70.4580  226.0440 C   0  0  0  0  0  0  0  0  0  0  0  0
  135.1110   71.1580  224.3510 C   0  0  0  0  0  0  0  0  0  0  0  0
  135.6930   72.3180  223.8870 C   0  0  0  0  0  0  0  0  0  0  0  0
  135.2680   73.5470  224.3570 C   0  0  0  0  0  0  0  0  0  0  0  0
  134.2530   73.6160  225.2970 C   0  0  0  0  0  0  0  0  0  0  0  0
  133.8350   74.8450  225.7600 C   0  0  0  0  0  0  0  0  0  0  0  0
  132.8230   74.9480  226.6990 C   0  0  0  0  0  0  0  0  0  0  0  0
  132.2740   76.4910  227.3050 Cl  0  0  0  0  0  0  0  0  0  0  0  0
  132.2680   73.7620  227.1380 C   0  0  0  0  0  0  0  0  0  0  0  0
  132.6850   72.5250  226.6760 C   0  0  0  0  0  0  0  0  0  0  0  0
  133.6930   72.4320  225.7400 C   0  0  0  0  0  0  0  0  0  0  0  0
  134.1300   71.2530  225.2620 N   0  0  0  0  0  0  0  0  0  0  0  0
  136.3970   70.6930  222.0700 H   0  0  0  0  0  0  0  0  0  0  0  0
  135.9929   67.7265  222.4678 H   0  0  0  0  0  0  0  0  0  0  0  0
  136.7141   68.4861  221.0204 H   0  0  0  0  0  0  0  0  0  0  0  0
  140.8128   69.8642  221.9671 H   0  0  0  0  0  0  0  0  0  0  0  0
  139.8644   68.6179  221.0172 H   0  0  0  0  0  0  0  0  0  0  0  0
  140.0186   70.6036  219.7892 H   0  0  0  0  0  0  0  0  0  0  0  0
  138.3009   70.3218  220.4469 H   0  0  0  0  0  0  0  0  0  0  0  0
  140.2895   72.3950  221.1840 H   0  0  0  0  0  0  0  0  0  0  0  0
  138.5710   72.4998  220.4759 H   0  0  0  0  0  0  0  0  0  0  0  0
  138.7053   73.2938  222.6859 H   0  0  0  0  0  0  0  0  0  0  0  0
  137.6947   71.7342  222.4287 H   0  0  0  0  0  0  0  0  0  0  0  0
  140.3901   71.6256  223.5556 H   0  0  0  0  0  0  0  0  0  0  0  0
  138.8770   72.0981  224.5383 H   0  0  0  0  0  0  0  0  0  0  0  0
  137.9541   70.1920  224.3484 H   0  0  0  0  0  0  0  0  0  0  0  0
  140.6520   69.0084  224.4974 H   0  0  0  0  0  0  0  0  0  0  0  0
  138.3368   68.9046  226.5134 H   0  0  0  0  0  0  0  0  0  0  0  0
  138.3276   67.8593  225.0866 H   0  0  0  0  0  0  0  0  0  0  0  0
  139.4828   66.8611  227.1572 H   0  0  0  0  0  0  0  0  0  0  0  0
  140.5135   66.9172  225.6808 H   0  0  0  0  0  0  0  0  0  0  0  0
  141.1944   67.9195  228.1865 H   0  0  0  0  0  0  0  0  0  0  0  0
  141.9665   68.3580  226.6145 H   0  0  0  0  0  0  0  0  0  0  0  0
  139.6149   69.7765  227.9275 H   0  0  0  0  0  0  0  0  0  0  0  0
  141.3470   70.3443  227.8516 H   0  0  0  0  0  0  0  0  0  0  0  0
  139.5257   71.2369  226.1876 H   0  0  0  0  0  0  0  0  0  0  0  0
  141.2284   70.9038  225.6851 H   0  0  0  0  0  0  0  0  0  0  0  0
  136.4987   72.2659  223.1399 H   0  0  0  0  0  0  0  0  0  0  0  0
  135.7361   74.4701  223.9843 H   0  0  0  0  0  0  0  0  0  0  0  0
  134.3132   75.7587  225.3773 H   0  0  0  0  0  0  0  0  0  0  0  0
  131.4617   73.8016  227.8852 H   0  0  0  0  0  0  0  0  0  0  0  0
  132.2087   71.6102  227.0584 H   0  0  0  0  0  0  0  0  0  0  0  0
  1  2  2  0
  2  3  1  0
  3  4  1  0
  4  5  1  0
  5  6  2  0
  5  7  1  0
  7  8  1  0
  8  9  1  0
  9 10  1  0
 10 11  1  0
 11 12  1  0
 12 13  1  0
 13 14  1  0
 14 15  1  0
 15 16  1  0
 16 17  1  0
 17 18  1  0
 18 19  1  0
  2 20  1  0
 20 21  2  0
 21 22  1  0
 22 23  2  0
 23 24  1  0
 24 25  2  0
 25 26  1  0
 25 27  1  0
 27 28  2  0
 28 29  1  0
 29 30  2  0
 13  7  1  0
 19 14  1  0
 30 20  1  0
 29 23  1  0
  3 31  1  0
  4 32  1  0
  4 33  1  0
  8 34  1  0
  8 35  1  0
  9 36  1  0
  9 37  1  0
 10 38  1  0
 10 39  1  0
 11 40  1  0
 11 41  1  0
 12 42  1  0
 12 43  1  0
 13 44  1  1
 14 45  1  0
 15 46  1  0
 15 47  1  0
 16 48  1  0
 16 49  1  0
 17 50  1  0
 17 51  1  0
 18 52  1  0
 18 53  1  0
 19 54  1  0
 19 55  1  0
 21 56  1  0
 22 57  1  0
 24 58  1  0
 27 59  1  0
 28 60  1  0
M  END
>  <smiles>  (1) 
O=C(NCC(=O)N1CCCCCC1C1CCCCC1)c1ccc2cc(Cl)ccc2n1

>  <score_type>  (1) 
oracle

>  <origin>  (1) 
autodockgpu

>  <m_score__min__energy>  (1) 
-7.1299999999999999

>  <m_primary>  (1) 
energy

>  <rmsd>  (1) 
7.109849024987284

>  <m_score__min__rmsd>  (1) 
7.109849024987284

>  <meeko>  (1) 
{"free_energy": -5.14, "intermolecular_energy": -8.42, "internal_energy": -2.43, "cluster_size": 3, "cluster_id": 3, "rank_in_cluster": 3}

>  <energy>  (1) 
-7.13

>  <cluster_rmsd>  (1) 
0.0

>  <cluster>  (1) 
1

$$$$

     RDKit          3D

 60 63  0  0  0  0  0  0  0  0999 V2000
  139.7260   73.0790  220.4300 O   0  0  0  0  0  0  0  0  0  0  0  0
  139.3010   73.2090  221.6280 C   0  0  0  0  0  0  0  0  0  0  0  0
  138.6610   74.4140  222.0540 N   0  0  0  0  0  0  0  0  0  0  0  0
  138.5080   75.4830  221.0830 C   0  0  0  0  0  0  0  0  0  0  0  0
  139.1360   76.6840  221.6270 C   0  0  0  0  0  0  0  0  0  0  0  0
  138.6110   77.4150  222.5350 O   0  0  0  0  0  0  0  0  0  0  0  0
  140.4080   77.0820  221.1290 N   0  0  0  0  0  0  0  0  0  0  0  0
  141.5130   76.1490  221.2080 C   0  0  0  0  0  0  0  0  0  0  0  0
  141.7130   75.3460  219.9840 C   0  0  0  0  0  0  0  0  0  0  0  0
  141.9620   76.0740  218.7130 C   0  0  0  0  0  0  0  0  0  0  0  0
  141.0970   77.2220  218.3970 C   0  0  0  0  0  0  0  0  0  0  0  0
  141.1880   78.4390  219.2380 C   0  0  0  0  0  0  0  0  0  0  0  0
  140.5210   78.4310  220.5580 C   0  0  2  0  0  0  0  0  0  0  0  0
  141.0820   79.3970  221.5770 C   0  0  0  0  0  0  0  0  0  0  0  0
  141.6430   78.6570  222.7840 C   0  0  0  0  0  0  0  0  0  0  0  0
  142.5760   79.6420  223.4730 C   0  0  0  0  0  0  0  0  0  0  0  0
  141.8800   80.9800  223.6580 C   0  0  0  0  0  0  0  0  0  0  0  0
  140.3860   80.8410  223.4490 C   0  0  0  0  0  0  0  0  0  0  0  0
  140.0290   80.3410  222.0930 C   0  0  0  0  0  0  0  0  0  0  0  0
  139.4700   72.1140  222.5780 C   0  0  0  0  0  0  0  0  0  0  0  0
  138.9130   70.8820  222.3080 C   0  0  0  0  0  0  0  0  0  0  0  0
  139.0670   69.8370  223.2010 C   0  0  0  0  0  0  0  0  0  0  0  0
  139.7830   70.0260  224.3710 C   0  0  0  0  0  0  0  0  0  0  0  0
  139.9330   68.9790  225.2560 C   0  0  0  0  0  0  0  0  0  0  0  0
  140.6420   69.1350  226.4340 C   0  0  0  0  0  0  0  0  0  0  0  0
  140.8460   67.8280  227.5740 Cl  0  0  0  0  0  0  0  0  0  0  0  0
  141.1830   70.3850  226.6660 C   0  0  0  0  0  0  0  0  0  0  0  0
  141.0360   71.4390  225.7800 C   0  0  0  0  0  0  0  0  0  0  0  0
  140.3270   71.2750  224.6080 C   0  0  0  0  0  0  0  0  0  0  0  0
  140.1590   72.2700  223.7200 N   0  0  0  0  0  0  0  0  0  0  0  0
  138.3320   74.4730  223.0390 H   0  0  0  0  0  0  0  0  0  0  0  0
  138.9971   75.2017  220.1387 H   0  0  0  0  0  0  0  0  0  0  0  0
  137.4419   75.6673  220.8842 H   0  0  0  0  0  0  0  0  0  0  0  0
  142.4335   76.7193  221.4013 H   0  0  0  0  0  0  0  0  0  0  0  0
  141.2739   75.4418  222.0159 H   0  0  0  0  0  0  0  0  0  0  0  0
  142.5767   74.6881  220.1603 H   0  0  0  0  0  0  0  0  0  0  0  0
  140.7520   74.8342  219.8274 H   0  0  0  0  0  0  0  0  0  0  0  0
  142.9978   76.4429  218.7441 H   0  0  0  0  0  0  0  0  0  0  0  0
  141.7427   75.3379  217.9255 H   0  0  0  0  0  0  0  0  0  0  0  0
  141.3264   77.5248  217.3647 H   0  0  0  0  0  0  0  0  0  0  0  0
  140.0797   76.8468  218.5824 H   0  0  0  0  0  0  0  0  0  0  0  0
  142.2562   78.6339  219.4141 H   0  0  0  0  0  0  0  0  0  0  0  0
  140.6463   79.2059  218.6650 H   0  0  0  0  0  0  0  0  0  0  0  0
  139.5114   78.8021  220.3276 H   0  0  0  0  0  0  0  0  0  0  0  0
  141.8729   79.9577  221.0572 H   0  0  0  0  0  0  0  0  0  0  0  0
  140.8305   78.3590  223.4630 H   0  0  0  0  0  0  0  0  0  0  0  0
  142.1695   77.7376  222.4882 H   0  0  0  0  0  0  0  0  0  0  0  0
  142.8640   79.2428  224.4567 H   0  0  0  0  0  0  0  0  0  0  0  0
  143.4712   79.7854  222.8500 H   0  0  0  0  0  0  0  0  0  0  0  0
  142.0692   81.3473  224.6775 H   0  0  0  0  0  0  0  0  0  0  0  0
  142.2759   81.6896  222.9165 H   0  0  0  0  0  0  0  0  0  0  0  0
  139.9922   80.1366  224.1965 H   0  0  0  0  0  0  0  0  0  0  0  0
  139.9458   81.8435  223.5548 H   0  0  0  0  0  0  0  0  0  0  0  0
  139.0656   79.8127  222.1455 H   0  0  0  0  0  0  0  0  0  0  0  0
  139.9584   81.1989  221.4082 H   0  0  0  0  0  0  0  0  0  0  0  0
  138.3440   70.7296  221.3790 H   0  0  0  0  0  0  0  0  0  0  0  0
  138.6207   68.8558  222.9817 H   0  0  0  0  0  0  0  0  0  0  0  0
  139.4815   68.0037  225.0215 H   0  0  0  0  0  0  0  0  0  0  0  0
  141.7536   70.5496  227.5920 H   0  0  0  0  0  0  0  0  0  0  0  0
  141.4880   72.4145  226.0125 H   0  0  0  0  0  0  0  0  0  0  0  0
  1  2  2  0
  2  3  1  0
  3  4  1  0
  4  5  1  0
  5  6  2  0
  5  7  1  0
  7  8  1  0
  8  9  1  0
  9 10  1  0
 10 11  1  0
 11 12  1  0
 12 13  1  0
 13 14  1  0
 14 15  1  0
 15 16  1  0
 16 17  1  0
 17 18  1  0
 18 19  1  0
  2 20  1  0
 20 21  2  0
 21 22  1  0
 22 23  2  0
 23 24  1  0
 24 25  2  0
 25 26  1  0
 25 27  1  0
 27 28  2  0
 28 29  1  0
 29 30  2  0
 13  7  1  0
 19 14  1  0
 30 20  1  0
 29 23  1  0
  3 31  1  0
  4 32  1  0
  4 33  1  0
  8 34  1  0
  8 35  1  0
  9 36  1  0
  9 37  1  0
 10 38  1  0
 10 39  1  0
 11 40  1  0
 11 41  1  0
 12 42  1  0
 12 43  1  0
 13 44  1  6
 14 45  1  0
 15 46  1  0
 15 47  1  0
 16 48  1  0
 16 49  1  0
 17 50  1  0
 17 51  1  0
 18 52  1  0
 18 53  1  0
 19 54  1  0
 19 55  1  0
 21 56  1  0
 22 57  1  0
 24 58  1  0
 27 59  1  0
 28 60  1  0
M  END
>  <smiles>  (2) 
O=C(NCC(=O)N1CCCCCC1C1CCCCC1)c1ccc2cc(Cl)ccc2n1

>  <score_type>  (2) 
oracle

>  <origin>  (2) 
autodockgpu

>  <m_score__min__energy>  (2) 
-7.1299999999999999

>  <m_primary>  (2) 
energy

>  <rmsd>  (2) 
2.3543543610129896

>  <m_score__min__rmsd>  (2) 
2.3543543610129896

>  <meeko>  (2) 
{"free_energy": -5.6, "intermolecular_energy": -8.88, "internal_energy": -1.82, "cluster_size": 16, "cluster_id": 1, "rank_in_cluster": 12}

>  <energy>  (2) 
-6.88

>  <cluster_rmsd>  (2) 
1.21

>  <cluster>  (2) 
1

$$$$

     RDKit          3D

 60 63  0  0  0  0  0  0  0  0999 V2000
  138.9600   71.8220  220.7480 O   0  0  0  0  0  0  0  0  0  0  0  0
  139.2160   72.3020  221.9040 C   0  0  0  0  0  0  0  0  0  0  0  0
  139.2650   73.7150  222.1180 N   0  0  0  0  0  0  0  0  0  0  0  0
  139.0140   74.5840  220.9830 C   0  0  0  0  0  0  0  0  0  0  0  0
  140.0130   75.6490  220.9960 C   0  0  0  0  0  0  0  0  0  0  0  0
  140.1770   76.4630  221.9700 O   0  0  0  0  0  0  0  0  0  0  0  0
  140.8660   75.8080  219.8680 N   0  0  0  0  0  0  0  0  0  0  0  0
  140.2700   75.9930  218.5610 C   0  0  0  0  0  0  0  0  0  0  0  0
  141.0640   75.4300  217.4510 C   0  0  0  0  0  0  0  0  0  0  0  0
  142.2180   76.2230  216.9530 C   0  0  0  0  0  0  0  0  0  0  0  0
  143.3310   76.4740  217.8830 C   0  0  0  0  0  0  0  0  0  0  0  0
  143.0470   76.7790  219.3010 C   0  0  0  0  0  0  0  0  0  0  0  0
  142.3160   75.7760  220.1040 C   0  0  2  0  0  0  0  0  0  0  0  0
  142.8400   74.3610  220.0140 C   0  0  0  0  0  0  0  0  0  0  0  0
  142.1980   73.4700  221.0690 C   0  0  0  0  0  0  0  0  0  0  0  0
  142.4140   72.0430  220.5880 C   0  0  0  0  0  0  0  0  0  0  0  0
  143.8690   71.8350  220.2020 C   0  0  0  0  0  0  0  0  0  0  0  0
  144.7310   72.9580  220.7400 C   0  0  0  0  0  0  0  0  0  0  0  0
  144.3280   74.2990  220.2360 C   0  0  0  0  0  0  0  0  0  0  0  0
  139.4620   71.3990  223.0240 C   0  0  0  0  0  0  0  0  0  0  0  0
  139.1300   70.0660  222.9130 C   0  0  0  0  0  0  0  0  0  0  0  0
  139.3590   69.2010  223.9680 C   0  0  0  0  0  0  0  0  0  0  0  0
  139.9240   69.6740  225.1410 C   0  0  0  0  0  0  0  0  0  0  0  0
  140.1500   68.8050  226.1870 C   0  0  0  0  0  0  0  0  0  0  0  0
  140.7130   69.2450  227.3720 C   0  0  0  0  0  0  0  0  0  0  0  0
  141.0080   68.1680  228.7150 Cl  0  0  0  0  0  0  0  0  0  0  0  0
  141.0300   70.5870  227.4420 C   0  0  0  0  0  0  0  0  0  0  0  0
  140.8050   71.4640  226.3930 C   0  0  0  0  0  0  0  0  0  0  0  0
  140.2440   71.0160  225.2150 C   0  0  0  0  0  0  0  0  0  0  0  0
  140.0090   71.8310  224.1720 N   0  0  0  0  0  0  0  0  0  0  0  0
  139.4770   74.0580  223.0770 H   0  0  0  0  0  0  0  0  0  0  0  0
  139.0943   74.0091  220.0486 H   0  0  0  0  0  0  0  0  0  0  0  0
  138.0021   75.0106  221.0467 H   0  0  0  0  0  0  0  0  0  0  0  0
  139.2826   75.5082  218.5599 H   0  0  0  0  0  0  0  0  0  0  0  0
  140.2110   77.0780  218.3901 H   0  0  0  0  0  0  0  0  0  0  0  0
  141.4543   74.4579  217.7868 H   0  0  0  0  0  0  0  0  0  0  0  0
  140.3659   75.3932  216.6017 H   0  0  0  0  0  0  0  0  0  0  0  0
  142.6309   75.6908  216.0833 H   0  0  0  0  0  0  0  0  0  0  0  0
  141.8004   77.2193  216.7456 H   0  0  0  0  0  0  0  0  0  0  0  0
  143.9652   75.5753  217.8710 H   0  0  0  0  0  0  0  0  0  0  0  0
  143.7748   77.4067  217.5048 H   0  0  0  0  0  0  0  0  0  0  0  0
  144.0140   76.9501  219.7966 H   0  0  0  0  0  0  0  0  0  0  0  0
  142.3652   77.6412  219.2604 H   0  0  0  0  0  0  0  0  0  0  0  0
  142.5132   76.0954  221.1380 H   0  0  0  0  0  0  0  0  0  0  0  0
  142.5922   74.0120  219.0007 H   0  0  0  0  0  0  0  0  0  0  0  0
  142.6805   73.6229  222.0456 H   0  0  0  0  0  0  0  0  0  0  0  0
  141.1297   73.6980  221.1981 H   0  0  0  0  0  0  0  0  0  0  0  0
  142.1482   71.3434  221.3942 H   0  0  0  0  0  0  0  0  0  0  0  0
  141.7792   71.8603  219.7084 H   0  0  0  0  0  0  0  0  0  0  0  0
  144.2200   70.8792  220.6182 H   0  0  0  0  0  0  0  0  0  0  0  0
  143.9459   71.8245  219.1047 H   0  0  0  0  0  0  0  0  0  0  0  0
  144.6573   72.9603  221.8375 H   0  0  0  0  0  0  0  0  0  0  0  0
  145.7594   72.7747  220.3955 H   0  0  0  0  0  0  0  0  0  0  0  0
  144.6148   75.0628  220.9737 H   0  0  0  0  0  0  0  0  0  0  0  0
  144.8357   74.4830  219.2777 H   0  0  0  0  0  0  0  0  0  0  0  0
  138.6814   69.6886  221.9823 H   0  0  0  0  0  0  0  0  0  0  0  0
  139.0925   68.1378  223.8755 H   0  0  0  0  0  0  0  0  0  0  0  0
  139.8784   67.7447  226.0779 H   0  0  0  0  0  0  0  0  0  0  0  0
  141.4793   70.9756  228.3678 H   0  0  0  0  0  0  0  0  0  0  0  0
  141.0756   72.5248  226.5003 H   0  0  0  0  0  0  0  0  0  0  0  0
  1  2  2  0
  2  3  1  0
  3  4  1  0
  4  5  1  0
  5  6  2  0
  5  7  1  0
  7  8  1  0
  8  9  1  0
  9 10  1  0
 10 11  1  0
 11 12  1  0
 12 13  1  0
 13 14  1  0
 14 15  1  0
 15 16  1  0
 16 17  1  0
 17 18  1  0
 18 19  1  0
  2 20  1  0
 20 21  2  0
 21 22  1  0
 22 23  2  0
 23 24  1  0
 24 25  2  0
 25 26  1  0
 25 27  1  0
 27 28  2  0
 28 29  1  0
 29 30  2  0
 13  7  1  0
 19 14  1  0
 30 20  1  0
 29 23  1  0
  3 31  1  0
  4 32  1  0
  4 33  1  0
  8 34  1  0
  8 35  1  0
  9 36  1  0
  9 37  1  0
 10 38  1  0
 10 39  1  0
 11 40  1  0
 11 41  1  0
 12 42  1  0
 12 43  1  0
 13 44  1  1
 14 45  1  0
 15 46  1  0
 15 47  1  0
 16 48  1  0
 16 49  1  0
 17 50  1  0
 17 51  1  0
 18 52  1  0
 18 53  1  0
 19 54  1  0
 19 55  1  0
 21 56  1  0
 22 57  1  0
 24 58  1  0
 27 59  1  0
 28 60  1  0
M  END
>  <smiles>  (3) 
O=C(NCC(=O)N1CCCCCC1C1CCCCC1)c1ccc2cc(Cl)ccc2n1

>  <score_type>  (3) 
oracle

>  <origin>  (3) 
autodockgpu

>  <m_score__min__energy>  (3) 
-7.1299999999999999

>  <m_primary>  (3) 
energy

>  <rmsd>  (3) 
1.5558265745241602

>  <m_score__min__rmsd>  (3) 
1.5558265745241602

>  <meeko>  (3) 
{"free_energy": -5.5, "intermolecular_energy": -8.78, "internal_energy": -2.45, "cluster_size": 16, "cluster_id": 1, "rank_in_cluster": 14}

>  <energy>  (3) 
-6.79

>  <cluster_rmsd>  (3) 
0.74

>  <cluster>  (3) 
1

$$$$

     RDKit          3D

 60 63  0  0  0  0  0  0  0  0999 V2000
  139.8970   72.4620  220.2730 O   0  0  0  0  0  0  0  0  0  0  0  0
  140.2540   72.8530  221.4360 C   0  0  0  0  0  0  0  0  0  0  0  0
  140.8020   74.1590  221.6350 N   0  0  0  0  0  0  0  0  0  0  0  0
  140.9360   75.0240  220.4770 C   0  0  0  0  0  0  0  0  0  0  0  0
  139.6020   75.4700  220.0850 C   0  0  0  0  0  0  0  0  0  0  0  0
  138.8870   74.8900  219.1970 O   0  0  0  0  0  0  0  0  0  0  0  0
  139.0460   76.6180  220.7170 N   0  0  0  0  0  0  0  0  0  0  0  0
  138.1290   77.4530  219.9700 C   0  0  0  0  0  0  0  0  0  0  0  0
  136.7040   77.1300  220.1880 C   0  0  0  0  0  0  0  0  0  0  0  0
  136.3100   76.6040  221.5210 C   0  0  0  0  0  0  0  0  0  0  0  0
  136.9860   77.1580  222.7050 C   0  0  0  0  0  0  0  0  0  0  0  0
  138.3370   76.6690  223.0670 C   0  0  0  0  0  0  0  0  0  0  0  0
  139.4420   76.8850  222.1070 C   0  0  2  0  0  0  0  0  0  0  0  0
  140.1480   78.2170  222.2150 C   0  0  0  0  0  0  0  0  0  0  0  0
  141.4160   78.0990  223.0500 C   0  0  0  0  0  0  0  0  0  0  0  0
  142.2580   79.3150  222.6930 C   0  0  0  0  0  0  0  0  0  0  0  0
  141.4140   80.5770  222.7680 C   0  0  0  0  0  0  0  0  0  0  0  0
  140.1200   80.3120  223.5110 C   0  0  0  0  0  0  0  0  0  0  0  0
  139.2840   79.2580  222.8750 C   0  0  0  0  0  0  0  0  0  0  0  0
  140.1040   71.9580  222.5780 C   0  0  0  0  0  0  0  0  0  0  0  0
  139.2910   70.8490  222.4760 C   0  0  0  0  0  0  0  0  0  0  0  0
  139.1410   69.9940  223.5520 C   0  0  0  0  0  0  0  0  0  0  0  0
  139.8090   70.2500  224.7390 C   0  0  0  0  0  0  0  0  0  0  0  0
  139.6540   69.3910  225.8060 C   0  0  0  0  0  0  0  0  0  0  0  0
  140.3070   69.6190  227.0050 C   0  0  0  0  0  0  0  0  0  0  0  0
  140.1280   68.5500  228.3750 Cl  0  0  0  0  0  0  0  0  0  0  0  0
  141.1100   70.7410  227.0670 C   0  0  0  0  0  0  0  0  0  0  0  0
  141.2680   71.6050  225.9960 C   0  0  0  0  0  0  0  0  0  0  0  0
  140.6140   71.3710  224.8040 C   0  0  0  0  0  0  0  0  0  0  0  0
  140.7390   72.1830  223.7400 N   0  0  0  0  0  0  0  0  0  0  0  0
  141.0780   74.4330  222.6000 H   0  0  0  0  0  0  0  0  0  0  0  0
  141.5596   75.8936  220.7318 H   0  0  0  0  0  0  0  0  0  0  0  0
  141.4137   74.4798  219.6490 H   0  0  0  0  0  0  0  0  0  0  0  0
  138.2952   78.4992  220.2662 H   0  0  0  0  0  0  0  0  0  0  0  0
  138.3348   77.2750  218.9042 H   0  0  0  0  0  0  0  0  0  0  0  0
  136.1284   78.0513  220.0153 H   0  0  0  0  0  0  0  0  0  0  0  0
  136.4968   76.3042  219.4914 H   0  0  0  0  0  0  0  0  0  0  0  0
  135.2325   76.7899  221.6415 H   0  0  0  0  0  0  0  0  0  0  0  0
  136.6101   75.5459  221.5007 H   0  0  0  0  0  0  0  0  0  0  0  0
  137.0698   78.2434  222.5475 H   0  0  0  0  0  0  0  0  0  0  0  0
  136.3563   76.8241  223.5429 H   0  0  0  0  0  0  0  0  0  0  0  0
  138.6213   77.1638  224.0074 H   0  0  0  0  0  0  0  0  0  0  0  0
  138.2267   75.5755  223.1122 H   0  0  0  0  0  0  0  0  0  0  0  0
  140.1861   76.1347  222.4125 H   0  0  0  0  0  0  0  0  0  0  0  0
  140.3829   78.5181  221.1834 H   0  0  0  0  0  0  0  0  0  0  0  0
  141.1710   78.1035  224.1224 H   0  0  0  0  0  0  0  0  0  0  0  0
  141.9512   77.1600  222.8454 H   0  0  0  0  0  0  0  0  0  0  0  0
  143.0971   79.3963  223.3996 H   0  0  0  0  0  0  0  0  0  0  0  0
  142.6405   79.1989  221.6682 H   0  0  0  0  0  0  0  0  0  0  0  0
  141.9798   81.3591  223.2956 H   0  0  0  0  0  0  0  0  0  0  0  0
  141.1744   80.9038  221.7454 H   0  0  0  0  0  0  0  0  0  0  0  0
  140.3639   79.9940  224.5354 H   0  0  0  0  0  0  0  0  0  0  0  0
  139.5373   81.2449  223.4956 H   0  0  0  0  0  0  0  0  0  0  0  0
  138.6634   78.7763  223.6450 H   0  0  0  0  0  0  0  0  0  0  0  0
  138.6484   79.7263  222.1090 H   0  0  0  0  0  0  0  0  0  0  0  0
  138.7597   70.6438  221.5349 H   0  0  0  0  0  0  0  0  0  0  0  0
  138.4914   69.1105  223.4660 H   0  0  0  0  0  0  0  0  0  0  0  0
  139.0017   68.5113  225.7030 H   0  0  0  0  0  0  0  0  0  0  0  0
  141.6450   70.9569  228.0036 H   0  0  0  0  0  0  0  0  0  0  0  0
  141.9203   72.4850  226.0967 H   0  0  0  0  0  0  0  0  0  0  0  0
  1  2  2  0
  2  3  1  0
  3  4  1  0
  4  5  1  0
  5  6  2  0
  5  7  1  0
  7  8  1  0
  8  9  1  0
  9 10  1  0
 10 11  1  0
 11 12  1  0
 12 13  1  0
 13 14  1  0
 14 15  1  0
 15 16  1  0
 16 17  1  0
 17 18  1  0
 18 19  1  0
  2 20  1  0
 20 21  2  0
 21 22  1  0
 22 23  2  0
 23 24  1  0
 24 25  2  0
 25 26  1  0
 25 27  1  0
 27 28  2  0
 28 29  1  0
 29 30  2  0
 13  7  1  0
 19 14  1  0
 30 20  1  0
 29 23  1  0
  3 31  1  0
  4 32  1  0
  4 33  1  0
  8 34  1  0
  8 35  1  0
  9 36  1  0
  9 37  1  0
 10 38  1  0
 10 39  1  0
 11 40  1  0
 11 41  1  0
 12 42  1  0
 12 43  1  0
 13 44  1  1
 14 45  1  0
 15 46  1  0
 15 47  1  0
 16 48  1  0
 16 49  1  0
 17 50  1  0
 17 51  1  0
 18 52  1  0
 18 53  1  0
 19 54  1  0
 19 55  1  0
 21 56  1  0
 22 57  1  0
 24 58  1  0
 27 59  1  0
 28 60  1  0
M  END
>  <smiles>  (4) 
O=C(NCC(=O)N1CCCCCC1C1CCCCC1)c1ccc2cc(Cl)ccc2n1

>  <score_type>  (4) 
oracle

>  <origin>  (4) 
autodockgpu

>  <m_score__min__energy>  (4) 
-7.1299999999999999

>  <m_primary>  (4) 
energy

>  <rmsd>  (4) 
3.169998387913977

>  <m_score__min__rmsd>  (4) 
3.169998387913977

>  <meeko>  (4) 
{"free_energy": -5.2, "intermolecular_energy": -8.48, "internal_energy": -2.07, "cluster_size": 3, "cluster_id": 5, "rank_in_cluster": 2}

>  <energy>  (4) 
-6.65

>  <cluster_rmsd>  (4) 
0.76

>  <cluster>  (4) 
1

$$$$

     RDKit          3D

 60 63  0  0  0  0  0  0  0  0999 V2000
  141.1390   72.8070  221.1600 O   0  0  0  0  0  0  0  0  0  0  0  0
  140.2820   72.9520  222.0960 C   0  0  0  0  0  0  0  0  0  0  0  0
  139.3860   74.0670  222.1050 N   0  0  0  0  0  0  0  0  0  0  0  0
  139.4820   75.0250  221.0180 C   0  0  0  0  0  0  0  0  0  0  0  0
  140.6690   75.8460  221.2390 C   0  0  0  0  0  0  0  0  0  0  0  0
  141.2390   75.9870  222.3750 O   0  0  0  0  0  0  0  0  0  0  0  0
  141.2420   76.5390  220.1360 N   0  0  0  0  0  0  0  0  0  0  0  0
  141.9280   75.7790  219.1120 C   0  0  0  0  0  0  0  0  0  0  0  0
  141.3680   75.9510  217.7560 C   0  0  0  0  0  0  0  0  0  0  0  0
  141.7550   77.1690  216.9970 C   0  0  0  0  0  0  0  0  0  0  0  0
  141.5690   78.4740  217.6510 C   0  0  0  0  0  0  0  0  0  0  0  0
  141.9490   78.6360  219.0750 C   0  0  0  0  0  0  0  0  0  0  0  0
  141.0980   78.0010  220.1050 C   0  0  2  0  0  0  0  0  0  0  0  0
  141.2160   78.5800  221.4960 C   0  0  0  0  0  0  0  0  0  0  0  0
  139.8830   79.1410  221.9720 C   0  0  0  0  0  0  0  0  0  0  0  0
  139.9940   79.2370  223.4860 C   0  0  0  0  0  0  0  0  0  0  0  0
  141.2900   79.9290  223.8730 C   0  0  0  0  0  0  0  0  0  0  0  0
  141.9000   80.6310  222.6770 C   0  0  0  0  0  0  0  0  0  0  0  0
  142.2110   79.7090  221.5510 C   0  0  0  0  0  0  0  0  0  0  0  0
  140.2120   71.9700  223.1730 C   0  0  0  0  0  0  0  0  0  0  0  0
  139.6440   70.7360  222.9380 C   0  0  0  0  0  0  0  0  0  0  0  0
  139.5720   69.7970  223.9500 C   0  0  0  0  0  0  0  0  0  0  0  0
  140.0740   70.0950  225.2070 C   0  0  0  0  0  0  0  0  0  0  0  0
  140.0000   69.1520  226.2110 C   0  0  0  0  0  0  0  0  0  0  0  0
  140.4910   69.4180  227.4770 C   0  0  0  0  0  0  0  0  0  0  0  0
  140.4100   68.2450  228.7680 Cl  0  0  0  0  0  0  0  0  0  0  0  0
  141.0520   70.6650  227.6710 C   0  0  0  0  0  0  0  0  0  0  0  0
  141.1290   71.6140  226.6650 C   0  0  0  0  0  0  0  0  0  0  0  0
  140.6370   71.3410  225.4060 C   0  0  0  0  0  0  0  0  0  0  0  0
  140.6910   72.2320  224.4000 N   0  0  0  0  0  0  0  0  0  0  0  0
  138.7050   74.1430  222.8880 H   0  0  0  0  0  0  0  0  0  0  0  0
  139.5700   74.4931  220.0592 H   0  0  0  0  0  0  0  0  0  0  0  0
  138.5823   75.6572  220.9872 H   0  0  0  0  0  0  0  0  0  0  0  0
  142.9811   76.0963  219.0936 H   0  0  0  0  0  0  0  0  0  0  0  0
  141.8086   74.7168  219.3720 H   0  0  0  0  0  0  0  0  0  0  0  0
  141.6782   75.0802  217.1598 H   0  0  0  0  0  0  0  0  0  0  0  0
  140.2845   76.0552  217.9143 H   0  0  0  0  0  0  0  0  0  0  0  0
  142.8227   77.0756  216.7493 H   0  0  0  0  0  0  0  0  0  0  0  0
  141.0680   77.1896  216.1381 H   0  0  0  0  0  0  0  0  0  0  0  0
  142.1563   79.2063  217.0775 H   0  0  0  0  0  0  0  0  0  0  0  0
  140.4771   78.6073  217.6574 H   0  0  0  0  0  0  0  0  0  0  0  0
  142.9623   78.2238  219.1905 H   0  0  0  0  0  0  0  0  0  0  0  0
  141.8432   79.7146  219.2630 H   0  0  0  0  0  0  0  0  0  0  0  0
  140.0791   78.2486  219.7725 H   0  0  0  0  0  0  0  0  0  0  0  0
  141.5461   77.7515  222.1399 H   0  0  0  0  0  0  0  0  0  0  0  0
  139.7080   80.1358  221.5364 H   0  0  0  0  0  0  0  0  0  0  0  0
  139.0412   78.5023  221.6663 H   0  0  0  0  0  0  0  0  0  0  0  0
  139.1430   79.8139  223.8771 H   0  0  0  0  0  0  0  0  0  0  0  0
  139.9869   78.2228  223.9119 H   0  0  0  0  0  0  0  0  0  0  0  0
  141.0830   80.6696  224.6595 H   0  0  0  0  0  0  0  0  0  0  0  0
  141.9995   79.1722  224.2387 H   0  0  0  0  0  0  0  0  0  0  0  0
  141.1911   81.3924  222.3196 H   0  0  0  0  0  0  0  0  0  0  0  0
  142.8507   81.0742  223.0083 H   0  0  0  0  0  0  0  0  0  0  0  0
  142.1739   80.2692  220.6050 H   0  0  0  0  0  0  0  0  0  0  0  0
  143.2152   79.2877  221.7064 H   0  0  0  0  0  0  0  0  0  0  0  0
  139.2462   70.4975  221.9406 H   0  0  0  0  0  0  0  0  0  0  0  0
  139.1167   68.8143  223.7578 H   0  0  0  0  0  0  0  0  0  0  0  0
  139.5435   68.1733  226.0019 H   0  0  0  0  0  0  0  0  0  0  0  0
  141.4537   70.9145  228.6641 H   0  0  0  0  0  0  0  0  0  0  0  0
  141.5861   72.5929  226.8719 H   0  0  0  0  0  0  0  0  0  0  0  0
  1  2  2  0
  2  3  1  0
  3  4  1  0
  4  5  1  0
  5  6  2  0
  5  7  1  0
  7  8  1  0
  8  9  1  0
  9 10  1  0
 10 11  1  0
 11 12  1  0
 12 13  1  0
 13 14  1  0
 14 15  1  0
 15 16  1  0
 16 17  1  0
 17 18  1  0
 18 19  1  0
  2 20  1  0
 20 21  2  0
 21 22  1  0
 22 23  2  0
 23 24  1  0
 24 25  2  0
 25 26  1  0
 25 27  1  0
 27 28  2  0
 28 29  1  0
 29 30  2  0
 13  7  1  0
 19 14  1  0
 30 20  1  0
 29 23  1  0
  3 31  1  0
  4 32  1  0
  4 33  1  0
  8 34  1  0
  8 35  1  0
  9 36  1  0
  9 37  1  0
 10 38  1  0
 10 39  1  0
 11 40  1  0
 11 41  1  0
 12 42  1  0
 12 43  1  0
 13 44  1  6
 14 45  1  0
 15 46  1  0
 15 47  1  0
 16 48  1  0
 16 49  1  0
 17 50  1  0
 17 51  1  0
 18 52  1  0
 18 53  1  0
 19 54  1  0
 19 55  1  0
 21 56  1  0
 22 57  1  0
 24 58  1  0
 27 59  1  0
 28 60  1  0
M  END
>  <smiles>  (5) 
O=C(NCC(=O)N1CCCCCC1C1CCCCC1)c1ccc2cc(Cl)ccc2n1

>  <score_type>  (5) 
oracle

>  <origin>  (5) 
autodockgpu

>  <m_score__min__energy>  (5) 
-7.1299999999999999

>  <m_primary>  (5) 
energy

>  <rmsd>  (5) 
1.9075634628610456

>  <m_score__min__rmsd>  (5) 
1.9075634628610456

>  <meeko>  (5) 
{"free_energy": -6.55, "intermolecular_energy": -9.83, "internal_energy": -1.63, "cluster_size": 16, "cluster_id": 1, "rank_in_cluster": 5}

>  <energy>  (5) 
-6.55

>  <cluster_rmsd>  (5) 
0.77

>  <cluster>  (5) 
1

$$$$

     RDKit          3D

 60 63  0  0  0  0  0  0  0  0999 V2000
  138.2840   74.1100  220.6610 O   0  0  0  0  0  0  0  0  0  0  0  0
  139.3170   73.8450  221.3650 C   0  0  0  0  0  0  0  0  0  0  0  0
  140.5140   74.6140  221.2310 N   0  0  0  0  0  0  0  0  0  0  0  0
  140.5190   75.7040  220.2720 C   0  0  0  0  0  0  0  0  0  0  0  0
  141.9050   76.1080  220.0500 C   0  0  0  0  0  0  0  0  0  0  0  0
  142.9160   75.4820  220.5210 O   0  0  0  0  0  0  0  0  0  0  0  0
  142.1680   77.2640  219.2630 N   0  0  0  0  0  0  0  0  0  0  0  0
  142.9920   77.1330  218.0800 C   0  0  0  0  0  0  0  0  0  0  0  0
  142.2670   77.3510  216.8120 C   0  0  0  0  0  0  0  0  0  0  0  0
  141.9660   78.7520  216.4190 C   0  0  0  0  0  0  0  0  0  0  0  0
  141.3540   79.6320  217.4280 C   0  0  0  0  0  0  0  0  0  0  0  0
  141.9020   79.6600  218.8040 C   0  0  0  0  0  0  0  0  0  0  0  0
  141.5770   78.5340  219.7060 C   0  0  2  0  0  0  0  0  0  0  0  0
  141.8580   78.7720  221.1720 C   0  0  0  0  0  0  0  0  0  0  0  0
  140.6460   78.4230  222.0270 C   0  0  0  0  0  0  0  0  0  0  0  0
  141.1800   78.2350  223.4390 C   0  0  0  0  0  0  0  0  0  0  0  0
  142.0680   79.4060  223.8230 C   0  0  0  0  0  0  0  0  0  0  0  0
  141.8740   80.5630  222.8650 C   0  0  0  0  0  0  0  0  0  0  0  0
  142.1910   80.2130  221.4530 C   0  0  0  0  0  0  0  0  0  0  0  0
  139.2770   72.7430  222.3210 C   0  0  0  0  0  0  0  0  0  0  0  0
  138.2740   71.8000  222.2370 C   0  0  0  0  0  0  0  0  0  0  0  0
  138.2260   70.7520  223.1370 C   0  0  0  0  0  0  0  0  0  0  0  0
  139.1890   70.6450  224.1270 C   0  0  0  0  0  0  0  0  0  0  0  0
  139.1340   69.5960  225.0200 C   0  0  0  0  0  0  0  0  0  0  0  0
  140.0800   69.4600  226.0210 C   0  0  0  0  0  0  0  0  0  0  0  0
  140.0360   68.1430  227.1670 Cl  0  0  0  0  0  0  0  0  0  0  0  0
  141.0680   70.4250  226.0700 C   0  0  0  0  0  0  0  0  0  0  0  0
  141.1260   71.4800  225.1750 C   0  0  0  0  0  0  0  0  0  0  0  0
  140.1790   71.6080  224.1810 C   0  0  0  0  0  0  0  0  0  0  0  0
  140.1970   72.6150  223.2900 N   0  0  0  0  0  0  0  0  0  0  0  0
  141.3290   74.3600  221.8270 H   0  0  0  0  0  0  0  0  0  0  0  0
  140.0722   75.3687  219.3244 H   0  0  0  0  0  0  0  0  0  0  0  0
  139.9323   76.5515  220.6560 H   0  0  0  0  0  0  0  0  0  0  0  0
  143.8064   77.8697  218.1432 H   0  0  0  0  0  0  0  0  0  0  0  0
  143.3574   76.0956  218.0617 H   0  0  0  0  0  0  0  0  0  0  0  0
  142.8719   76.9072  216.0075 H   0  0  0  0  0  0  0  0  0  0  0  0
  141.2812   76.8903  216.9733 H   0  0  0  0  0  0  0  0  0  0  0  0
  142.9139   79.2168  216.1100 H   0  0  0  0  0  0  0  0  0  0  0  0
  141.2030   78.6608  215.6319 H   0  0  0  0  0  0  0  0  0  0  0  0
  141.4182   80.6584  217.0377 H   0  0  0  0  0  0  0  0  0  0  0  0
  140.3471   79.2094  217.5608 H   0  0  0  0  0  0  0  0  0  0  0  0
  142.9978   79.7042  218.7184 H   0  0  0  0  0  0  0  0  0  0  0  0
  141.4227   80.5326  219.2718 H   0  0  0  0  0  0  0  0  0  0  0  0
  140.4823   78.4603  219.6268 H   0  0  0  0  0  0  0  0  0  0  0  0
  142.7146   78.1289  221.4223 H   0  0  0  0  0  0  0  0  0  0  0  0
  139.9098   79.2399  222.0008 H   0  0  0  0  0  0  0  0  0  0  0  0
  140.1373   77.5189  221.6611 H   0  0  0  0  0  0  0  0  0  0  0  0
  140.3359   78.1731  224.1417 H   0  0  0  0  0  0  0  0  0  0  0  0
  141.7704   77.3078  223.4795 H   0  0  0  0  0  0  0  0  0  0  0  0
  141.8125   79.7339  224.8414 H   0  0  0  0  0  0  0  0  0  0  0  0
  143.1184   79.0824  223.7780 H   0  0  0  0  0  0  0  0  0  0  0  0
  140.8246   80.8886  222.9176 H   0  0  0  0  0  0  0  0  0  0  0  0
  142.5688   81.3598  223.1688 H   0  0  0  0  0  0  0  0  0  0  0  0
  141.6038   80.8565  220.7814 H   0  0  0  0  0  0  0  0  0  0  0  0
  143.2673   80.3655  221.2850 H   0  0  0  0  0  0  0  0  0  0  0  0
  137.5092   71.8823  221.4506 H   0  0  0  0  0  0  0  0  0  0  0  0
  137.4233   70.0031  223.0671 H   0  0  0  0  0  0  0  0  0  0  0  0
  138.3252   68.8552  224.9355 H   0  0  0  0  0  0  0  0  0  0  0  0
  141.8391   70.3521  226.8511 H   0  0  0  0  0  0  0  0  0  0  0  0
  141.9340   72.2219  225.2577 H   0  0  0  0  0  0  0  0  0  0  0  0
  1  2  2  0
  2  3  1  0
  3  4  1  0
  4  5  1  0
  5  6  2  0
  5  7  1  0
  7  8  1  0
  8  9  1  0
  9 10  1  0
 10 11  1  0
 11 12  1  0
 12 13  1  0
 13 14  1  0
 14 15  1  0
 15 16  1  0
 16 17  1  0
 17 18  1  0
 18 19  1  0
  2 20  1  0
 20 21  2  0
 21 22  1  0
 22 23  2  0
 23 24  1  0
 24 25  2  0
 25 26  1  0
 25 27  1  0
 27 28  2  0
 28 29  1  0
 29 30  2  0
 13  7  1  0
 19 14  1  0
 30 20  1  0
 29 23  1  0
  3 31  1  0
  4 32  1  0
  4 33  1  0
  8 34  1  0
  8 35  1  0
  9 36  1  0
  9 37  1  0
 10 38  1  0
 10 39  1  0
 11 40  1  0
 11 41  1  0
 12 42  1  0
 12 43  1  0
 13 44  1  1
 14 45  1  0
 15 46  1  0
 15 47  1  0
 16 48  1  0
 16 49  1  0
 17 50  1  0
 17 51  1  0
 18 52  1  0
 18 53  1  0
 19 54  1  0
 19 55  1  0
 21 56  1  0
 22 57  1  0
 24 58  1  0
 27 59  1  0
 28 60  1  0
M  END
>  <smiles>  (6) 
O=C(NCC(=O)N1CCCCCC1C1CCCCC1)c1ccc2cc(Cl)ccc2n1

>  <score_type>  (6) 
oracle

>  <origin>  (6) 
autodockgpu

>  <m_score__min__energy>  (6) 
-7.1299999999999999

>  <m_primary>  (6) 
energy

>  <rmsd>  (6) 
2.9836525975933763

>  <m_score__min__rmsd>  (6) 
2.9836525975933763

>  <meeko>  (6) 
{"free_energy": -5.23, "intermolecular_energy": -8.51, "internal_energy": -2.26, "cluster_size": 16, "cluster_id": 1, "rank_in_cluster": 16}

>  <energy>  (6) 
-6.42

>  <cluster_rmsd>  (6) 
0.62

>  <cluster>  (6) 
1

$$$$

     RDKit          3D

 60 63  0  0  0  0  0  0  0  0999 V2000
  139.4840   72.7520  220.1330 O   0  0  0  0  0  0  0  0  0  0  0  0
  140.2780   72.8430  221.1300 C   0  0  0  0  0  0  0  0  0  0  0  0
  141.4330   73.6840  221.0740 N   0  0  0  0  0  0  0  0  0  0  0  0
  141.6730   74.4290  219.8520 C   0  0  0  0  0  0  0  0  0  0  0  0
  141.5650   75.8530  220.1590 C   0  0  0  0  0  0  0  0  0  0  0  0
  142.5280   76.6860  220.0370 O   0  0  0  0  0  0  0  0  0  0  0  0
  140.3210   76.3650  220.6240 N   0  0  0  0  0  0  0  0  0  0  0  0
  139.2180   76.4750  219.6920 C   0  0  0  0  0  0  0  0  0  0  0  0
  138.0390   75.6630  220.0550 C   0  0  0  0  0  0  0  0  0  0  0  0
  137.1300   76.1940  221.1040 C   0  0  0  0  0  0  0  0  0  0  0  0
  137.7220   76.5800  222.3950 C   0  0  0  0  0  0  0  0  0  0  0  0
  139.0900   76.1220  222.7330 C   0  0  0  0  0  0  0  0  0  0  0  0
  140.2330   76.7530  222.0380 C   0  0  2  0  0  0  0  0  0  0  0  0
  140.3410   78.2530  222.1890 C   0  0  0  0  0  0  0  0  0  0  0  0
  141.7720   78.6720  222.4960 C   0  0  0  0  0  0  0  0  0  0  0  0
  141.8500   80.1520  222.1500 C   0  0  0  0  0  0  0  0  0  0  0  0
  140.6880   80.8990  222.7810 C   0  0  0  0  0  0  0  0  0  0  0  0
  140.0190   80.0510  223.8430 C   0  0  0  0  0  0  0  0  0  0  0  0
  139.4830   78.7660  223.3150 C   0  0  0  0  0  0  0  0  0  0  0  0
  140.0060   72.0800  222.3430 C   0  0  0  0  0  0  0  0  0  0  0  0
  139.0530   71.0830  222.3260 C   0  0  0  0  0  0  0  0  0  0  0  0
  138.7870   70.3540  223.4700 C   0  0  0  0  0  0  0  0  0  0  0  0
  139.4790   70.6230  224.6400 C   0  0  0  0  0  0  0  0  0  0  0  0
  139.2080   69.8900  225.7750 C   0  0  0  0  0  0  0  0  0  0  0  0
  139.8820   70.1340  226.9600 C   0  0  0  0  0  0  0  0  0  0  0  0
  139.5580   69.2230  228.4150 Cl  0  0  0  0  0  0  0  0  0  0  0  0
  140.8270   71.1400  226.9350 C   0  0  0  0  0  0  0  0  0  0  0  0
  141.1030   71.8780  225.7960 C   0  0  0  0  0  0  0  0  0  0  0  0
  140.4270   71.6290  224.6190 C   0  0  0  0  0  0  0  0  0  0  0  0
  140.6620   72.3200  223.4900 N   0  0  0  0  0  0  0  0  0  0  0  0
  142.0500   73.7250  221.9110 H   0  0  0  0  0  0  0  0  0  0  0  0
  142.6803   74.2053  219.4709 H   0  0  0  0  0  0  0  0  0  0  0  0
  140.9371   74.1482  219.0842 H   0  0  0  0  0  0  0  0  0  0  0  0
  138.9097   77.5298  219.6445 H   0  0  0  0  0  0  0  0  0  0  0  0
  139.5800   76.0944  218.7255 H   0  0  0  0  0  0  0  0  0  0  0  0
  137.4415   75.5251  219.1418 H   0  0  0  0  0  0  0  0  0  0  0  0
  138.4582   74.7438  220.4902 H   0  0  0  0  0  0  0  0  0  0  0  0
  136.6367   77.0857  220.6898 H   0  0  0  0  0  0  0  0  0  0  0  0
  136.4647   75.3520  221.3455 H   0  0  0  0  0  0  0  0  0  0  0  0
  137.7353   77.6795  222.4256 H   0  0  0  0  0  0  0  0  0  0  0  0
  137.0872   76.0702  223.1347 H   0  0  0  0  0  0  0  0  0  0  0  0
  139.2321   76.2888  223.8110 H   0  0  0  0  0  0  0  0  0  0  0  0
  139.1151   75.0739  222.4000 H   0  0  0  0  0  0  0  0  0  0  0  0
  141.1036   76.3435  222.5712 H   0  0  0  0  0  0  0  0  0  0  0  0
  140.0044   78.6773  221.2316 H   0  0  0  0  0  0  0  0  0  0  0  0
  141.9978   78.5145  223.5610 H   0  0  0  0  0  0  0  0  0  0  0  0
  142.5006   78.0814  221.9213 H   0  0  0  0  0  0  0  0  0  0  0  0
  142.7965   80.5647  222.5294 H   0  0  0  0  0  0  0  0  0  0  0  0
  141.8013   80.2687  221.0573 H   0  0  0  0  0  0  0  0  0  0  0  0
  141.0618   81.8255  223.2414 H   0  0  0  0  0  0  0  0  0  0  0  0
  139.9508   81.1318  221.9985 H   0  0  0  0  0  0  0  0  0  0  0  0
  140.7569   79.8263  224.6272 H   0  0  0  0  0  0  0  0  0  0  0  0
  139.1658   80.6264  224.2316 H   0  0  0  0  0  0  0  0  0  0  0  0
  139.4672   78.0216  224.1247 H   0  0  0  0  0  0  0  0  0  0  0  0
  138.4655   78.9377  222.9339 H   0  0  0  0  0  0  0  0  0  0  0  0
  138.5025   70.8671  221.3985 H   0  0  0  0  0  0  0  0  0  0  0  0
  138.0258   69.5601  223.4515 H   0  0  0  0  0  0  0  0  0  0  0  0
  138.4445   69.0989  225.7392 H   0  0  0  0  0  0  0  0  0  0  0  0
  141.3833   71.3645  227.8570 H   0  0  0  0  0  0  0  0  0  0  0  0
  141.8669   72.6687  225.8298 H   0  0  0  0  0  0  0  0  0  0  0  0
  1  2  2  0
  2  3  1  0
  3  4  1  0
  4  5  1  0
  5  6  2  0
  5  7  1  0
  7  8  1  0
  8  9  1  0
  9 10  1  0
 10 11  1  0
 11 12  1  0
 12 13  1  0
 13 14  1  0
 14 15  1  0
 15 16  1  0
 16 17  1  0
 17 18  1  0
 18 19  1  0
  2 20  1  0
 20 21  2  0
 21 22  1  0
 22 23  2  0
 23 24  1  0
 24 25  2  0
 25 26  1  0
 25 27  1  0
 27 28  2  0
 28 29  1  0
 29 30  2  0
 13  7  1  0
 19 14  1  0
 30 20  1  0
 29 23  1  0
  3 31  1  0
  4 32  1  0
  4 33  1  0
  8 34  1  0
  8 35  1  0
  9 36  1  0
  9 37  1  0
 10 38  1  0
 10 39  1  0
 11 40  1  0
 11 41  1  0
 12 42  1  0
 12 43  1  0
 13 44  1  1
 14 45  1  0
 15 46  1  0
 15 47  1  0
 16 48  1  0
 16 49  1  0
 17 50  1  0
 17 51  1  0
 18 52  1  0
 18 53  1  0
 19 54  1  0
 19 55  1  0
 21 56  1  0
 22 57  1  0
 24 58  1  0
 27 59  1  0
 28 60  1  0
M  END
>  <smiles>  (7) 
O=C(NCC(=O)N1CCCCCC1C1CCCCC1)c1ccc2cc(Cl)ccc2n1

>  <score_type>  (7) 
oracle

>  <origin>  (7) 
autodockgpu

>  <m_score__min__energy>  (7) 
-7.1299999999999999

>  <m_primary>  (7) 
energy

>  <rmsd>  (7) 
2.980263334731405

>  <m_score__min__rmsd>  (7) 
2.980263334731405

>  <meeko>  (7) 
{"free_energy": -5.04, "intermolecular_energy": -8.32, "internal_energy": -2.34, "cluster_size": 3, "cluster_id": 5, "rank_in_cluster": 3}

>  <energy>  (7) 
-6.4

>  <cluster_rmsd>  (7) 
0.65

>  <cluster>  (7) 
1

$$$$

     RDKit          3D

 60 63  0  0  0  0  0  0  0  0999 V2000
  141.0100   73.0610  221.4040 O   0  0  0  0  0  0  0  0  0  0  0  0
  140.0030   73.0030  222.1890 C   0  0  0  0  0  0  0  0  0  0  0  0
  138.8910   73.8880  222.0230 N   0  0  0  0  0  0  0  0  0  0  0  0
  138.9430   74.8500  220.9380 C   0  0  0  0  0  0  0  0  0  0  0  0
  140.0290   75.7870  221.2120 C   0  0  0  0  0  0  0  0  0  0  0  0
  140.6260   75.8780  222.3390 O   0  0  0  0  0  0  0  0  0  0  0  0
  140.4650   76.6590  220.1760 N   0  0  0  0  0  0  0  0  0  0  0  0
  141.0830   76.0910  218.9960 C   0  0  0  0  0  0  0  0  0  0  0  0
  142.4380   76.6080  218.7160 C   0  0  0  0  0  0  0  0  0  0  0  0
  142.6240   78.0820  218.6930 C   0  0  0  0  0  0  0  0  0  0  0  0
  141.4750   78.9140  218.3010 C   0  0  0  0  0  0  0  0  0  0  0  0
  140.2280   78.8500  219.0950 C   0  0  0  0  0  0  0  0  0  0  0  0
  140.2550   78.1010  220.3700 C   0  0  2  0  0  0  0  0  0  0  0  0
  141.1950   78.6400  221.4230 C   0  0  0  0  0  0  0  0  0  0  0  0
  140.5310   78.6580  222.7940 C   0  0  0  0  0  0  0  0  0  0  0  0
  141.6690   78.7430  223.8000 C   0  0  0  0  0  0  0  0  0  0  0  0
  142.6320   79.8510  223.4090 C   0  0  0  0  0  0  0  0  0  0  0  0
  142.0070   80.7630  222.3740 C   0  0  0  0  0  0  0  0  0  0  0  0
  141.6200   80.0540  221.1250 C   0  0  0  0  0  0  0  0  0  0  0  0
  139.9830   72.0230  223.2690 C   0  0  0  0  0  0  0  0  0  0  0  0
  139.2370   70.8710  223.1350 C   0  0  0  0  0  0  0  0  0  0  0  0
  139.2110   69.9350  224.1520 C   0  0  0  0  0  0  0  0  0  0  0  0
  139.9360   70.1520  225.3120 C   0  0  0  0  0  0  0  0  0  0  0  0
  139.9060   69.2130  226.3210 C   0  0  0  0  0  0  0  0  0  0  0  0
  140.6190   69.4000  227.4920 C   0  0  0  0  0  0  0  0  0  0  0  0
  140.5980   68.2290  228.7880 Cl  0  0  0  0  0  0  0  0  0  0  0  0
  141.3530   70.5660  227.5870 C   0  0  0  0  0  0  0  0  0  0  0  0
  141.3870   71.5120  226.5750 C   0  0  0  0  0  0  0  0  0  0  0  0
  140.6730   71.3180  225.4110 C   0  0  0  0  0  0  0  0  0  0  0  0
  140.6770   72.2080  224.4030 N   0  0  0  0  0  0  0  0  0  0  0  0
  138.0940   73.8020  222.6870 H   0  0  0  0  0  0  0  0  0  0  0  0
  139.1309   74.3295  219.9873 H   0  0  0  0  0  0  0  0  0  0  0  0
  137.9867   75.3881  220.8606 H   0  0  0  0  0  0  0  0  0  0  0  0
  141.1503   75.0015  219.1319 H   0  0  0  0  0  0  0  0  0  0  0  0
  140.4525   76.3746  218.1404 H   0  0  0  0  0  0  0  0  0  0  0  0
  143.1096   76.2042  219.4879 H   0  0  0  0  0  0  0  0  0  0  0  0
  142.6515   76.2848  217.6864 H   0  0  0  0  0  0  0  0  0  0  0  0
  142.9218   78.3907  219.7059 H   0  0  0  0  0  0  0  0  0  0  0  0
  143.3715   78.2539  217.9045 H   0  0  0  0  0  0  0  0  0  0  0  0
  141.8148   79.9600  218.3216 H   0  0  0  0  0  0  0  0  0  0  0  0
  141.1810   78.5064  217.3225 H   0  0  0  0  0  0  0  0  0  0  0  0
  139.9358   79.8843  219.3292 H   0  0  0  0  0  0  0  0  0  0  0  0
  139.5267   78.2880  218.4607 H   0  0  0  0  0  0  0  0  0  0  0  0
  139.2437   78.2605  220.7724 H   0  0  0  0  0  0  0  0  0  0  0  0
  142.0685   77.9714  221.4172 H   0  0  0  0  0  0  0  0  0  0  0  0
  139.8692   79.5316  222.8885 H   0  0  0  0  0  0  0  0  0  0  0  0
  139.9103   77.7645  222.9569 H   0  0  0  0  0  0  0  0  0  0  0  0
  141.2571   78.9547  224.7978 H   0  0  0  0  0  0  0  0  0  0  0  0
  142.2096   77.7851  223.8128 H   0  0  0  0  0  0  0  0  0  0  0  0
  142.8868   80.4399  224.3024 H   0  0  0  0  0  0  0  0  0  0  0  0
  143.5376   79.3974  222.9799 H   0  0  0  0  0  0  0  0  0  0  0  0
  141.1065   81.2206  222.8095 H   0  0  0  0  0  0  0  0  0  0  0  0
  142.7626   81.5148  222.1022 H   0  0  0  0  0  0  0  0  0  0  0  0
  140.7845   80.5894  220.6504 H   0  0  0  0  0  0  0  0  0  0  0  0
  142.4890   80.0266  220.4511 H   0  0  0  0  0  0  0  0  0  0  0  0
  138.6601   70.6961  222.2149 H   0  0  0  0  0  0  0  0  0  0  0  0
  138.6144   69.0177  224.0399 H   0  0  0  0  0  0  0  0  0  0  0  0
  139.3055   68.3003  226.1931 H   0  0  0  0  0  0  0  0  0  0  0  0
  141.9338   70.7512  228.5026 H   0  0  0  0  0  0  0  0  0  0  0  0
  141.9880   72.4246  226.7010 H   0  0  0  0  0  0  0  0  0  0  0  0
  1  2  2  0
  2  3  1  0
  3  4  1  0
  4  5  1  0
  5  6  2  0
  5  7  1  0
  7  8  1  0
  8  9  1  0
  9 10  1  0
 10 11  1  0
 11 12  1  0
 12 13  1  0
 13 14  1  0
 14 15  1  0
 15 16  1  0
 16 17  1  0
 17 18  1  0
 18 19  1  0
  2 20  1  0
 20 21  2  0
 21 22  1  0
 22 23  2  0
 23 24  1  0
 24 25  2  0
 25 26  1  0
 25 27  1  0
 27 28  2  0
 28 29  1  0
 29 30  2  0
 13  7  1  0
 19 14  1  0
 30 20  1  0
 29 23  1  0
  3 31  1  0
  4 32  1  0
  4 33  1  0
  8 34  1  0
  8 35  1  0
  9 36  1  0
  9 37  1  0
 10 38  1  0
 10 39  1  0
 11 40  1  0
 11 41  1  0
 12 42  1  0
 12 43  1  0
 13 44  1  1
 14 45  1  0
 15 46  1  0
 15 47  1  0
 16 48  1  0
 16 49  1  0
 17 50  1  0
 17 51  1  0
 18 52  1  0
 18 53  1  0
 19 54  1  0
 19 55  1  0
 21 56  1  0
 22 57  1  0
 24 58  1  0
 27 59  1  0
 28 60  1  0
M  END
>  <smiles>  (8) 
O=C(NCC(=O)N1CCCCCC1C1CCCCC1)c1ccc2cc(Cl)ccc2n1

>  <score_type>  (8) 
oracle

>  <origin>  (8) 
autodockgpu

>  <m_score__min__energy>  (8) 
-7.1299999999999999

>  <m_primary>  (8) 
energy

>  <rmsd>  (8) 
1.89152415185307

>  <m_score__min__rmsd>  (8) 
1.89152415185307

>  <meeko>  (8) 
{"free_energy": -6.4, "intermolecular_energy": -9.68, "internal_energy": -1.47, "cluster_size": 16, "cluster_id": 1, "rank_in_cluster": 7}

>  <energy>  (8) 
-6.19

>  <cluster_rmsd>  (8) 
1.36

>  <cluster>  (8) 
1

$$$$

     RDKit          3D

 60 63  0  0  0  0  0  0  0  0999 V2000
  139.1060   75.0290  221.6640 O   0  0  0  0  0  0  0  0  0  0  0  0
  140.3670   75.2390  221.6550 C   0  0  0  0  0  0  0  0  0  0  0  0
  140.9030   76.5070  222.0400 N   0  0  0  0  0  0  0  0  0  0  0  0
  139.9720   77.5460  222.4420 C   0  0  0  0  0  0  0  0  0  0  0  0
  140.0740   78.6440  221.4850 C   0  0  0  0  0  0  0  0  0  0  0  0
  139.1620   78.9410  220.6400 O   0  0  0  0  0  0  0  0  0  0  0  0
  141.2520   79.4420  221.4750 N   0  0  0  0  0  0  0  0  0  0  0  0
  141.8280   79.8550  222.7390 C   0  0  0  0  0  0  0  0  0  0  0  0
  141.6010   81.2760  223.0700 C   0  0  0  0  0  0  0  0  0  0  0  0
  140.9270   82.1240  222.0530 C   0  0  0  0  0  0  0  0  0  0  0  0
  141.5750   82.2660  220.7390 C   0  0  0  0  0  0  0  0  0  0  0  0
  141.4550   81.1730  219.7470 C   0  0  0  0  0  0  0  0  0  0  0  0
  141.8180   79.8020  220.1680 C   0  0  2  0  0  0  0  0  0  0  0  0
  141.5500   78.7160  219.1520 C   0  0  0  0  0  0  0  0  0  0  0  0
  142.3920   77.4790  219.4360 C   0  0  0  0  0  0  0  0  0  0  0  0
  141.7110   76.3390  218.6940 C   0  0  0  0  0  0  0  0  0  0  0  0
  141.4210   76.7470  217.2590 C   0  0  0  0  0  0  0  0  0  0  0  0
  142.2010   77.9920  216.8890 C   0  0  0  0  0  0  0  0  0  0  0  0
  141.8840   79.1610  217.7530 C   0  0  0  0  0  0  0  0  0  0  0  0
  141.2740   74.1720  221.2460 C   0  0  0  0  0  0  0  0  0  0  0  0
  140.8430   72.8620  221.2650 C   0  0  0  0  0  0  0  0  0  0  0  0
  141.6940   71.8430  220.8790 C   0  0  0  0  0  0  0  0  0  0  0  0
  142.9850   72.1360  220.4720 C   0  0  0  0  0  0  0  0  0  0  0  0
  143.8270   71.1140  220.0880 C   0  0  0  0  0  0  0  0  0  0  0  0
  145.1230   71.3720  219.6760 C   0  0  0  0  0  0  0  0  0  0  0  0
  146.2120   70.0980  219.1860 Cl  0  0  0  0  0  0  0  0  0  0  0  0
  145.5150   72.6970  219.6720 C   0  0  0  0  0  0  0  0  0  0  0  0
  144.6720   73.7270  220.0560 C   0  0  0  0  0  0  0  0  0  0  0  0
  143.3820   73.4600  220.4660 C   0  0  0  0  0  0  0  0  0  0  0  0
  142.5300   74.4280  220.8470 N   0  0  0  0  0  0  0  0  0  0  0  0
  141.9360   76.6300  222.0160 H   0  0  0  0  0  0  0  0  0  0  0  0
  138.9468   77.1473  222.4436 H   0  0  0  0  0  0  0  0  0  0  0  0
  140.2124   77.9009  223.4551 H   0  0  0  0  0  0  0  0  0  0  0  0
  141.3868   79.2398  223.5370 H   0  0  0  0  0  0  0  0  0  0  0  0
  142.9161   79.7201  222.6506 H   0  0  0  0  0  0  0  0  0  0  0  0
  140.9869   81.3066  223.9821 H   0  0  0  0  0  0  0  0  0  0  0  0
  142.6101   81.7038  223.1634 H   0  0  0  0  0  0  0  0  0  0  0  0
  139.9273   81.6985  221.8815 H   0  0  0  0  0  0  0  0  0  0  0  0
  140.9447   83.1370  222.4814 H   0  0  0  0  0  0  0  0  0  0  0  0
  141.1572   83.1700  220.2718 H   0  0  0  0  0  0  0  0  0  0  0  0
  142.6483   82.2812  220.9795 H   0  0  0  0  0  0  0  0  0  0  0  0
  140.4059   81.1457  219.4175 H   0  0  0  0  0  0  0  0  0  0  0  0
  142.1957   81.4251  218.9738 H   0  0  0  0  0  0  0  0  0  0  0  0
  142.9131   79.8522  220.2592 H   0  0  0  0  0  0  0  0  0  0  0  0
  140.4768   78.4882  219.2313 H   0  0  0  0  0  0  0  0  0  0  0  0
  143.4179   77.6197  219.0648 H   0  0  0  0  0  0  0  0  0  0  0  0
  142.4644   77.2757  220.5146 H   0  0  0  0  0  0  0  0  0  0  0  0
  142.3708   75.4589  218.6954 H   0  0  0  0  0  0  0  0  0  0  0  0
  140.7632   76.0981  219.1975 H   0  0  0  0  0  0  0  0  0  0  0  0
  141.7089   75.9267  216.5850 H   0  0  0  0  0  0  0  0  0  0  0  0
  140.3463   76.9607  217.1621 H   0  0  0  0  0  0  0  0  0  0  0  0
  143.2749   77.7715  216.9795 H   0  0  0  0  0  0  0  0  0  0  0  0
  141.9194   78.2603  215.8601 H   0  0  0  0  0  0  0  0  0  0  0  0
  142.7551   79.8319  217.7861 H   0  0  0  0  0  0  0  0  0  0  0  0
  141.0133   79.6851  217.3321 H   0  0  0  0  0  0  0  0  0  0  0  0
  139.8182   72.6270  221.5885 H   0  0  0  0  0  0  0  0  0  0  0  0
  141.3458   70.7997  220.8951 H   0  0  0  0  0  0  0  0  0  0  0  0
  143.4628   70.0763  220.1094 H   0  0  0  0  0  0  0  0  0  0  0  0
  146.5377   72.9439  219.3509 H   0  0  0  0  0  0  0  0  0  0  0  0
  145.0338   74.7656  220.0339 H   0  0  0  0  0  0  0  0  0  0  0  0
  1  2  2  0
  2  3  1  0
  3  4  1  0
  4  5  1  0
  5  6  2  0
  5  7  1  0
  7  8  1  0
  8  9  1  0
  9 10  1  0
 10 11  1  0
 11 12  1  0
 12 13  1  0
 13 14  1  0
 14 15  1  0
 15 16  1  0
 16 17  1  0
 17 18  1  0
 18 19  1  0
  2 20  1  0
 20 21  2  0
 21 22  1  0
 22 23  2  0
 23 24  1  0
 24 25  2  0
 25 26  1  0
 25 27  1  0
 27 28  2  0
 28 29  1  0
 29 30  2  0
 13  7  1  0
 19 14  1  0
 30 20  1  0
 29 23  1  0
  3 31  1  0
  4 32  1  0
  4 33  1  0
  8 34  1  0
  8 35  1  0
  9 36  1  0
  9 37  1  0
 10 38  1  0
 10 39  1  0
 11 40  1  0
 11 41  1  0
 12 42  1  0
 12 43  1  0
 13 44  1  1
 14 45  1  0
 15 46  1  0
 15 47  1  0
 16 48  1  0
 16 49  1  0
 17 50  1  0
 17 51  1  0
 18 52  1  0
 18 53  1  0
 19 54  1  0
 19 55  1  0
 21 56  1  0
 22 57  1  0
 24 58  1  0
 27 59  1  0
 28 60  1  0
M  END
>  <smiles>  (9) 
O=C(NCC(=O)N1CCCCCC1C1CCCCC1)c1ccc2cc(Cl)ccc2n1

>  <score_type>  (9) 
oracle

>  <origin>  (9) 
autodockgpu

>  <m_score__min__energy>  (9) 
-7.1299999999999999

>  <m_primary>  (9) 
energy

>  <rmsd>  (9) 
6.281549268066153

>  <m_score__min__rmsd>  (9) 
6.281549268066153

>  <meeko>  (9) 
{"free_energy": -4.72, "intermolecular_energy": -8.0, "internal_energy": -2.58, "cluster_size": 1, "cluster_id": 11, "rank_in_cluster": 1}

>  <energy>  (9) 
-5.85

>  <cluster_rmsd>  (9) 
1.63

>  <cluster>  (9) 
1

$$$$

     RDKit          3D

 60 63  0  0  0  0  0  0  0  0999 V2000
  138.2290   72.4610  221.2850 O   0  0  0  0  0  0  0  0  0  0  0  0
  139.2820   72.5350  222.0050 C   0  0  0  0  0  0  0  0  0  0  0  0
  140.2870   73.5160  221.7380 N   0  0  0  0  0  0  0  0  0  0  0  0
  140.0740   74.4230  220.6250 C   0  0  0  0  0  0  0  0  0  0  0  0
  140.6150   75.7290  220.9930 C   0  0  0  0  0  0  0  0  0  0  0  0
  141.8580   75.9590  221.1850 O   0  0  0  0  0  0  0  0  0  0  0  0
  139.7210   76.8250  221.1530 N   0  0  0  0  0  0  0  0  0  0  0  0
  139.2440   77.5160  219.9730 C   0  0  0  0  0  0  0  0  0  0  0  0
  137.9490   77.0200  219.4650 C   0  0  0  0  0  0  0  0  0  0  0  0
  136.7950   77.0130  220.4020 C   0  0  0  0  0  0  0  0  0  0  0  0
  137.0140   76.4830  221.7570 C   0  0  0  0  0  0  0  0  0  0  0  0
  137.8660   77.2400  222.7050 C   0  0  0  0  0  0  0  0  0  0  0  0
  139.3320   77.1900  222.5220 C   0  0  2  0  0  0  0  0  0  0  0  0
  140.0890   78.4130  222.9840 C   0  0  0  0  0  0  0  0  0  0  0  0
  139.4520   79.6880  222.4470 C   0  0  0  0  0  0  0  0  0  0  0  0
  139.9690   80.8110  223.3340 C   0  0  0  0  0  0  0  0  0  0  0  0
  141.4790   80.7170  223.4720 C   0  0  0  0  0  0  0  0  0  0  0  0
  142.0550   79.7890  222.4230 C   0  0  0  0  0  0  0  0  0  0  0  0
  141.5170   78.4030  222.5070 C   0  0  0  0  0  0  0  0  0  0  0  0
  139.4640   71.6080  223.1170 C   0  0  0  0  0  0  0  0  0  0  0  0
  138.9250   70.3410  223.0460 C   0  0  0  0  0  0  0  0  0  0  0  0
  139.0910   69.4540  224.0940 C   0  0  0  0  0  0  0  0  0  0  0  0
  139.8010   69.8360  225.2200 C   0  0  0  0  0  0  0  0  0  0  0  0
  139.9630   68.9450  226.2590 C   0  0  0  0  0  0  0  0  0  0  0  0
  140.6670   69.2960  227.3980 C   0  0  0  0  0  0  0  0  0  0  0  0
  140.8860   68.1900  228.7310 Cl  0  0  0  0  0  0  0  0  0  0  0  0
  141.1900   70.5750  227.4290 C   0  0  0  0  0  0  0  0  0  0  0  0
  141.0310   71.4730  226.3860 C   0  0  0  0  0  0  0  0  0  0  0  0
  140.3270   71.1140  225.2550 C   0  0  0  0  0  0  0  0  0  0  0  0
  140.1480   71.9530  224.2200 N   0  0  0  0  0  0  0  0  0  0  0  0
  141.1270   73.5370  222.3530 H   0  0  0  0  0  0  0  0  0  0  0  0
  140.5909   74.0439  219.7311 H   0  0  0  0  0  0  0  0  0  0  0  0
  139.0002   74.5051  220.4008 H   0  0  0  0  0  0  0  0  0  0  0  0
  139.1330   78.5825  220.2186 H   0  0  0  0  0  0  0  0  0  0  0  0
  139.9850   77.3371  219.1799 H   0  0  0  0  0  0  0  0  0  0  0  0
  137.6708   77.6485  218.6061 H   0  0  0  0  0  0  0  0  0  0  0  0
  138.1282   75.9588  219.2374 H   0  0  0  0  0  0  0  0  0  0  0  0
  136.4523   78.0529  220.5080 H   0  0  0  0  0  0  0  0  0  0  0  0
  136.0731   76.3190  219.9467 H   0  0  0  0  0  0  0  0  0  0  0  0
  136.0240   76.3825  222.2258 H   0  0  0  0  0  0  0  0  0  0  0  0
  137.5786   75.5548  221.5847 H   0  0  0  0  0  0  0  0  0  0  0  0
  137.5655   78.2962  222.6412 H   0  0  0  0  0  0  0  0  0  0  0  0
  137.6962   76.7492  223.6747 H   0  0  0  0  0  0  0  0  0  0  0  0
  139.6385   76.3827  223.2034 H   0  0  0  0  0  0  0  0  0  0  0  0
  140.0562   78.3894  224.0833 H   0  0  0  0  0  0  0  0  0  0  0  0
  139.7515   79.8558  221.4019 H   0  0  0  0  0  0  0  0  0  0  0  0
  138.3536   79.6310  222.4625 H   0  0  0  0  0  0  0  0  0  0  0  0
  139.7047   81.7798  222.8850 H   0  0  0  0  0  0  0  0  0  0  0  0
  139.5111   80.7216  224.3301 H   0  0  0  0  0  0  0  0  0  0  0  0
  141.9162   81.7187  223.3474 H   0  0  0  0  0  0  0  0  0  0  0  0
  141.7192   80.3174  224.4683 H   0  0  0  0  0  0  0  0  0  0  0  0
  141.8190   80.1960  221.4287 H   0  0  0  0  0  0  0  0  0  0  0  0
  143.1393   79.7300  222.5986 H   0  0  0  0  0  0  0  0  0  0  0  0
  141.5616   77.9377  221.5113 H   0  0  0  0  0  0  0  0  0  0  0  0
  142.1247   77.8312  223.2238 H   0  0  0  0  0  0  0  0  0  0  0  0
  138.3610   70.0346  222.1527 H   0  0  0  0  0  0  0  0  0  0  0  0
  138.6588   68.4443  224.0331 H   0  0  0  0  0  0  0  0  0  0  0  0
  139.5257   67.9386  226.1819 H   0  0  0  0  0  0  0  0  0  0  0  0
  141.7552   70.8927  228.3176 H   0  0  0  0  0  0  0  0  0  0  0  0
  141.4691   72.4793  226.4601 H   0  0  0  0  0  0  0  0  0  0  0  0
  1  2  2  0
  2  3  1  0
  3  4  1  0
  4  5  1  0
  5  6  2  0
  5  7  1  0
  7  8  1  0
  8  9  1  0
  9 10  1  0
 10 11  1  0
 11 12  1  0
 12 13  1  0
 13 14  1  0
 14 15  1  0
 15 16  1  0
 16 17  1  0
 17 18  1  0
 18 19  1  0
  2 20  1  0
 20 21  2  0
 21 22  1  0
 22 23  2  0
 23 24  1  0
 24 25  2  0
 25 26  1  0
 25 27  1  0
 27 28  2  0
 28 29  1  0
 29 30  2  0
 13  7  1  0
 19 14  1  0
 30 20  1  0
 29 23  1  0
  3 31  1  0
  4 32  1  0
  4 33  1  0
  8 34  1  0
  8 35  1  0
  9 36  1  0
  9 37  1  0
 10 38  1  0
 10 39  1  0
 11 40  1  0
 11 41  1  0
 12 42  1  0
 12 43  1  0
 13 44  1  1
 14 45  1  0
 15 46  1  0
 15 47  1  0
 16 48  1  0
 16 49  1  0
 17 50  1  0
 17 51  1  0
 18 52  1  0
 18 53  1  0
 19 54  1  0
 19 55  1  0
 21 56  1  0
 22 57  1  0
 24 58  1  0
 27 59  1  0
 28 60  1  0
M  END
>  <smiles>  (10) 
O=C(NCC(=O)N1CCCCCC1C1CCCCC1)c1ccc2cc(Cl)ccc2n1

>  <score_type>  (10) 
oracle

>  <origin>  (10) 
autodockgpu

>  <m_score__min__energy>  (10) 
-7.1299999999999999

>  <m_primary>  (10) 
energy

>  <rmsd>  (10) 
2.734330011987227

>  <m_score__min__rmsd>  (10) 
2.734330011987227

>  <meeko>  (10) 
{"free_energy": -5.61, "intermolecular_energy": -8.89, "internal_energy": -1.99, "cluster_size": 3, "cluster_id": 5, "rank_in_cluster": 1}

>  <energy>  (10) 
-5.84

>  <cluster_rmsd>  (10) 
1.35

>  <cluster>  (10) 
1

$$$$

     RDKit          3D

 60 63  0  0  0  0  0  0  0  0999 V2000
  136.0420   78.4000  222.4710 O   0  0  0  0  0  0  0  0  0  0  0  0
  136.3540   77.2340  222.8900 C   0  0  0  0  0  0  0  0  0  0  0  0
  137.5820   76.6160  222.4970 N   0  0  0  0  0  0  0  0  0  0  0  0
  138.4620   77.3560  221.6100 C   0  0  0  0  0  0  0  0  0  0  0  0
  139.8000   77.3590  222.1950 C   0  0  0  0  0  0  0  0  0  0  0  0
  140.3590   76.3270  222.7040 O   0  0  0  0  0  0  0  0  0  0  0  0
  140.5420   78.5720  222.2100 N   0  0  0  0  0  0  0  0  0  0  0  0
  141.8510   78.5840  222.8290 C   0  0  0  0  0  0  0  0  0  0  0  0
  141.9860   79.5490  223.9390 C   0  0  0  0  0  0  0  0  0  0  0  0
  141.5450   80.9470  223.6970 C   0  0  0  0  0  0  0  0  0  0  0  0
  141.6450   81.4720  222.3260 C   0  0  0  0  0  0  0  0  0  0  0  0
  140.9150   80.7920  221.2310 C   0  0  0  0  0  0  0  0  0  0  0  0
  139.9260   79.7520  221.5880 C   0  0  2  0  0  0  0  0  0  0  0  0
  138.7440   80.2290  222.4000 C   0  0  0  0  0  0  0  0  0  0  0  0
  138.6470   81.7490  222.3890 C   0  0  0  0  0  0  0  0  0  0  0  0
  137.2170   82.0720  222.7960 C   0  0  0  0  0  0  0  0  0  0  0  0
  136.8410   81.2970  224.0480 C   0  0  0  0  0  0  0  0  0  0  0  0
  138.0760   80.7310  224.7180 C   0  0  0  0  0  0  0  0  0  0  0  0
  138.8470   79.8080  223.8420 C   0  0  0  0  0  0  0  0  0  0  0  0
  135.4460   76.5190  223.7820 C   0  0  0  0  0  0  0  0  0  0  0  0
  134.4760   77.2150  224.4720 C   0  0  0  0  0  0  0  0  0  0  0  0
  133.6110   76.5480  225.3200 C   0  0  0  0  0  0  0  0  0  0  0  0
  133.7170   75.1760  225.4780 C   0  0  0  0  0  0  0  0  0  0  0  0
  132.8490   74.5190  226.3240 C   0  0  0  0  0  0  0  0  0  0  0  0
  132.9280   73.1490  226.5050 C   0  0  0  0  0  0  0  0  0  0  0  0
  131.8450   72.2900  227.5720 Cl  0  0  0  0  0  0  0  0  0  0  0  0
  133.9130   72.4900  225.7960 C   0  0  0  0  0  0  0  0  0  0  0  0
  134.7870   73.1460  224.9440 C   0  0  0  0  0  0  0  0  0  0  0  0
  134.7010   74.5120  224.7700 C   0  0  0  0  0  0  0  0  0  0  0  0
  135.5270   75.1900  223.9530 N   0  0  0  0  0  0  0  0  0  0  0  0
  137.7920   75.6650  222.8640 H   0  0  0  0  0  0  0  0  0  0  0  0
  138.4882   76.8723  220.6224 H   0  0  0  0  0  0  0  0  0  0  0  0
  138.0985   78.3868  221.4864 H   0  0  0  0  0  0  0  0  0  0  0  0
  142.0570   77.5768  223.2203 H   0  0  0  0  0  0  0  0  0  0  0  0
  142.5657   78.8932  222.0521 H   0  0  0  0  0  0  0  0  0  0  0  0
  141.3989   79.1612  224.7845 H   0  0  0  0  0  0  0  0  0  0  0  0
  143.0699   79.6254  224.1103 H   0  0  0  0  0  0  0  0  0  0  0  0
  140.4890   81.0142  223.9975 H   0  0  0  0  0  0  0  0  0  0  0  0
  142.2456   81.5626  224.2804 H   0  0  0  0  0  0  0  0  0  0  0  0
  141.2851   82.5111  222.3539 H   0  0  0  0  0  0  0  0  0  0  0  0
  142.7029   81.3186  222.0664 H   0  0  0  0  0  0  0  0  0  0  0  0
  140.3807   81.5687  220.6642 H   0  0  0  0  0  0  0  0  0  0  0  0
  141.6963   80.2465  220.6815 H   0  0  0  0  0  0  0  0  0  0  0  0
  139.5110   79.4593  220.6122 H   0  0  0  0  0  0  0  0  0  0  0  0
  137.8569   79.7750  221.9342 H   0  0  0  0  0  0  0  0  0  0  0  0
  139.3579   82.1841  223.1069 H   0  0  0  0  0  0  0  0  0  0  0  0
  138.8921   82.1648  221.4006 H   0  0  0  0  0  0  0  0  0  0  0  0
  137.1307   83.1502  222.9962 H   0  0  0  0  0  0  0  0  0  0  0  0
  136.5377   81.7867  221.9792 H   0  0  0  0  0  0  0  0  0  0  0  0
  136.3266   81.9708  224.7490 H   0  0  0  0  0  0  0  0  0  0  0  0
  136.1799   80.4650  223.7639 H   0  0  0  0  0  0  0  0  0  0  0  0
  138.7305   81.5663  225.0077 H   0  0  0  0  0  0  0  0  0  0  0  0
  137.7382   80.1496  225.5886 H   0  0  0  0  0  0  0  0  0  0  0  0
  139.9039   79.8202  224.1467 H   0  0  0  0  0  0  0  0  0  0  0  0
  138.4309   78.7949  223.9442 H   0  0  0  0  0  0  0  0  0  0  0  0
  134.3900   78.3045  224.3474 H   0  0  0  0  0  0  0  0  0  0  0  0
  132.8388   77.1069  225.8690 H   0  0  0  0  0  0  0  0  0  0  0  0
  132.0813   75.0928  226.8639 H   0  0  0  0  0  0  0  0  0  0  0  0
  134.0076   71.4003  225.9123 H   0  0  0  0  0  0  0  0  0  0  0  0
  135.5547   72.5737  224.4026 H   0  0  0  0  0  0  0  0  0  0  0  0
  1  2  2  0
  2  3  1  0
  3  4  1  0
  4  5  1  0
  5  6  2  0
  5  7  1  0
  7  8  1  0
  8  9  1  0
  9 10  1  0
 10 11  1  0
 11 12  1  0
 12 13  1  0
 13 14  1  0
 14 15  1  0
 15 16  1  0
 16 17  1  0
 17 18  1  0
 18 19  1  0
  2 20  1  0
 20 21  2  0
 21 22  1  0
 22 23  2  0
 23 24  1  0
 24 25  2  0
 25 26  1  0
 25 27  1  0
 27 28  2  0
 28 29  1  0
 29 30  2  0
 13  7  1  0
 19 14  1  0
 30 20  1  0
 29 23  1  0
  3 31  1  0
  4 32  1  0
  4 33  1  0
  8 34  1  0
  8 35  1  0
  9 36  1  0
  9 37  1  0
 10 38  1  0
 10 39  1  0
 11 40  1  0
 11 41  1  0
 12 42  1  0
 12 43  1  0
 13 44  1  6
 14 45  1  0
 15 46  1  0
 15 47  1  0
 16 48  1  0
 16 49  1  0
 17 50  1  0
 17 51  1  0
 18 52  1  0
 18 53  1  0
 19 54  1  0
 19 55  1  0
 21 56  1  0
 22 57  1  0
 24 58  1  0
 27 59  1  0
 28 60  1  0
M  END
>  <smiles>  (11) 
O=C(NCC(=O)N1CCCCCC1C1CCCCC1)c1ccc2cc(Cl)ccc2n1

>  <score_type>  (11) 
oracle

>  <origin>  (11) 
autodockgpu

>  <m_score__min__energy>  (11) 
-7.1299999999999999

>  <m_primary>  (11) 
energy

>  <rmsd>  (11) 
6.850239310326612

>  <m_score__min__rmsd>  (11) 
6.850239310326612

>  <meeko>  (11) 
{"free_energy": -5.04, "intermolecular_energy": -8.32, "internal_energy": -2.0, "cluster_size": 1, "cluster_id": 10, "rank_in_cluster": 1}

>  <energy>  (11) 
-5.84

>  <cluster_rmsd>  (11) 
1.83

>  <cluster>  (11) 
1

$$$$

     RDKit          3D

 60 63  0  0  0  0  0  0  0  0999 V2000
  142.6390   79.6510  218.4810 O   0  0  0  0  0  0  0  0  0  0  0  0
  141.5640   79.1140  218.9160 C   0  0  0  0  0  0  0  0  0  0  0  0
  140.3130   79.8010  218.8310 N   0  0  0  0  0  0  0  0  0  0  0  0
  140.3030   81.1250  218.2360 C   0  0  0  0  0  0  0  0  0  0  0  0
  141.0860   82.0140  219.0910 C   0  0  0  0  0  0  0  0  0  0  0  0
  142.2150   82.5130  218.7580 O   0  0  0  0  0  0  0  0  0  0  0  0
  140.5780   82.3580  220.3750 N   0  0  0  0  0  0  0  0  0  0  0  0
  140.8440   83.6800  220.9010 C   0  0  0  0  0  0  0  0  0  0  0  0
  139.6320   84.4410  221.2640 C   0  0  0  0  0  0  0  0  0  0  0  0
  138.3870   84.1620  220.5020 C   0  0  0  0  0  0  0  0  0  0  0  0
  137.7990   82.8170  220.6140 C   0  0  0  0  0  0  0  0  0  0  0  0
  138.4530   81.8040  221.4700 C   0  0  0  0  0  0  0  0  0  0  0  0
  139.8040   81.3360  221.0940 C   0  0  2  0  0  0  0  0  0  0  0  0
  140.6220   80.7370  222.2140 C   0  0  0  0  0  0  0  0  0  0  0  0
  142.0930   80.6400  221.8300 C   0  0  0  0  0  0  0  0  0  0  0  0
  142.8520   80.4970  223.1400 C   0  0  0  0  0  0  0  0  0  0  0  0
  142.2190   79.4140  223.9970 C   0  0  0  0  0  0  0  0  0  0  0  0
  141.2750   78.5630  223.1730 C   0  0  0  0  0  0  0  0  0  0  0  0
  140.1670   79.3430  222.5570 C   0  0  0  0  0  0  0  0  0  0  0  0
  141.6100   77.7810  219.5080 C   0  0  0  0  0  0  0  0  0  0  0  0
  142.7550   77.0210  219.3940 C   0  0  0  0  0  0  0  0  0  0  0  0
  142.8100   75.7560  219.9510 C   0  0  0  0  0  0  0  0  0  0  0  0
  141.7130   75.2490  220.6270 C   0  0  0  0  0  0  0  0  0  0  0  0
  141.7760   73.9880  221.1800 C   0  0  0  0  0  0  0  0  0  0  0  0
  140.6970   73.4510  221.8610 C   0  0  0  0  0  0  0  0  0  0  0  0
  140.7480   71.8560  222.5700 Cl  0  0  0  0  0  0  0  0  0  0  0  0
  139.5700   74.2450  221.9520 C   0  0  0  0  0  0  0  0  0  0  0  0
  139.5020   75.5120  221.3980 C   0  0  0  0  0  0  0  0  0  0  0  0
  140.5820   76.0390  220.7210 C   0  0  0  0  0  0  0  0  0  0  0  0
  140.5610   77.2650  220.1680 N   0  0  0  0  0  0  0  0  0  0  0  0
  139.4660   79.3220  219.1990 H   0  0  0  0  0  0  0  0  0  0  0  0
  140.7495   81.0855  217.2315 H   0  0  0  0  0  0  0  0  0  0  0  0
  139.2707   81.4944  218.1469 H   0  0  0  0  0  0  0  0  0  0  0  0
  141.4677   83.5744  221.8009 H   0  0  0  0  0  0  0  0  0  0  0  0
  141.3442   84.2445  220.1003 H   0  0  0  0  0  0  0  0  0  0  0  0
  139.4211   84.2367  222.3241 H   0  0  0  0  0  0  0  0  0  0  0  0
  139.8772   85.4859  221.0229 H   0  0  0  0  0  0  0  0  0  0  0  0
  137.6270   84.8813  220.8411 H   0  0  0  0  0  0  0  0  0  0  0  0
  138.6842   84.2467  219.4463 H   0  0  0  0  0  0  0  0  0  0  0  0
  136.7758   82.9463  220.9965 H   0  0  0  0  0  0  0  0  0  0  0  0
  137.9045   82.4043  219.5998 H   0  0  0  0  0  0  0  0  0  0  0  0
  138.5257   82.2301  222.4815 H   0  0  0  0  0  0  0  0  0  0  0  0
  137.8182   80.9115  221.3681 H   0  0  0  0  0  0  0  0  0  0  0  0
  139.5951   80.5022  220.4076 H   0  0  0  0  0  0  0  0  0  0  0  0
  140.4845   81.4051  223.0769 H   0  0  0  0  0  0  0  0  0  0  0  0
  142.2650   79.7625  221.1894 H   0  0  0  0  0  0  0  0  0  0  0  0
  142.4237   81.5231  221.2636 H   0  0  0  0  0  0  0  0  0  0  0  0
  143.8970   80.2275  222.9270 H   0  0  0  0  0  0  0  0  0  0  0  0
  142.8141   81.4528  223.6832 H   0  0  0  0  0  0  0  0  0  0  0  0
  143.0109   78.7745  224.4140 H   0  0  0  0  0  0  0  0  0  0  0  0
  141.6486   79.8921  224.8070 H   0  0  0  0  0  0  0  0  0  0  0  0
  141.8509   78.0800  222.3698 H   0  0  0  0  0  0  0  0  0  0  0  0
  140.8185   77.8293  223.8537 H   0  0  0  0  0  0  0  0  0  0  0  0
  139.8354   78.8356  221.6391 H   0  0  0  0  0  0  0  0  0  0  0  0
  139.3387   79.4093  223.2778 H   0  0  0  0  0  0  0  0  0  0  0  0
  143.6279   77.4222  218.8581 H   0  0  0  0  0  0  0  0  0  0  0  0
  143.7251   75.1529  219.8569 H   0  0  0  0  0  0  0  0  0  0  0  0
  142.6991   73.3985  221.0785 H   0  0  0  0  0  0  0  0  0  0  0  0
  138.6912   73.8547  222.4862 H   0  0  0  0  0  0  0  0  0  0  0  0
  138.5796   76.1029  221.4985 H   0  0  0  0  0  0  0  0  0  0  0  0
  1  2  2  0
  2  3  1  0
  3  4  1  0
  4  5  1  0
  5  6  2  0
  5  7  1  0
  7  8  1  0
  8  9  1  0
  9 10  1  0
 10 11  1  0
 11 12  1  0
 12 13  1  0
 13 14  1  0
 14 15  1  0
 15 16  1  0
 16 17  1  0
 17 18  1  0
 18 19  1  0
  2 20  1  0
 20 21  2  0
 21 22  1  0
 22 23  2  0
 23 24  1  0
 24 25  2  0
 25 26  1  0
 25 27  1  0
 27 28  2  0
 28 29  1  0
 29 30  2  0
 13  7  1  0
 19 14  1  0
 30 20  1  0
 29 23  1  0
  3 31  1  0
  4 32  1  0
  4 33  1  0
  8 34  1  0
  8 35  1  0
  9 36  1  0
  9 37  1  0
 10 38  1  0
 10 39  1  0
 11 40  1  0
 11 41  1  0
 12 42  1  0
 12 43  1  0
 13 44  1  6
 14 45  1  0
 15 46  1  0
 15 47  1  0
 16 48  1  0
 16 49  1  0
 17 50  1  0
 17 51  1  0
 18 52  1  0
 18 53  1  0
 19 54  1  0
 19 55  1  0
 21 56  1  0
 22 57  1  0
 24 58  1  0
 27 59  1  0
 28 60  1  0
M  END
>  <smiles>  (12) 
O=C(NCC(=O)N1CCCCCC1C1CCCCC1)c1ccc2cc(Cl)ccc2n1

>  <score_type>  (12) 
oracle

>  <origin>  (12) 
autodockgpu

>  <m_score__min__energy>  (12) 
-7.1299999999999999

>  <m_primary>  (12) 
energy

>  <rmsd>  (12) 
8.140460945461092

>  <m_score__min__rmsd>  (12) 
8.140460945461092

>  <meeko>  (12) 
{"free_energy": -3.85, "intermolecular_energy": -7.14, "internal_energy": -3.06, "cluster_size": 1, "cluster_id": 16, "rank_in_cluster": 1}

>  <energy>  (12) 
-5.6

>  <cluster_rmsd>  (12) 
1.19

>  <cluster>  (12) 
1

$$$$

     RDKit          3D

 60 63  0  0  0  0  0  0  0  0999 V2000
  139.9340   72.7650  220.9960 O   0  0  0  0  0  0  0  0  0  0  0  0
  139.2790   73.7440  221.4890 C   0  0  0  0  0  0  0  0  0  0  0  0
  137.9610   73.5570  222.0120 N   0  0  0  0  0  0  0  0  0  0  0  0
  137.3940   72.2220  221.9650 C   0  0  0  0  0  0  0  0  0  0  0  0
  136.9030   71.8890  223.2990 C   0  0  0  0  0  0  0  0  0  0  0  0
  136.2530   72.7000  224.0440 O   0  0  0  0  0  0  0  0  0  0  0  0
  137.1530   70.5880  223.8210 N   0  0  0  0  0  0  0  0  0  0  0  0
  136.0340   69.7890  224.2730 C   0  0  0  0  0  0  0  0  0  0  0  0
  135.7910   68.5770  223.4640 C   0  0  0  0  0  0  0  0  0  0  0  0
  136.4990   68.4620  222.1630 C   0  0  0  0  0  0  0  0  0  0  0  0
  137.9650   68.3350  222.1870 C   0  0  0  0  0  0  0  0  0  0  0  0
  138.7100   68.7390  223.3990 C   0  0  0  0  0  0  0  0  0  0  0  0
  138.5490   70.1330  223.8660 C   0  0  2  0  0  0  0  0  0  0  0  0
  139.1710   70.4470  225.2070 C   0  0  0  0  0  0  0  0  0  0  0  0
  140.6000   70.9500  225.0460 C   0  0  0  0  0  0  0  0  0  0  0  0
  140.9320   71.6680  226.3460 C   0  0  0  0  0  0  0  0  0  0  0  0
  140.5640   70.7950  227.5340 C   0  0  0  0  0  0  0  0  0  0  0  0
  140.3270   69.3650  227.0960 C   0  0  0  0  0  0  0  0  0  0  0  0
  139.2330   69.2320  226.0950 C   0  0  0  0  0  0  0  0  0  0  0  0
  139.8800   75.0740  221.5220 C   0  0  0  0  0  0  0  0  0  0  0  0
  141.0160   75.3290  220.7840 C   0  0  0  0  0  0  0  0  0  0  0  0
  141.5940   76.5850  220.8070 C   0  0  0  0  0  0  0  0  0  0  0  0
  141.0320   77.5920  221.5740 C   0  0  0  0  0  0  0  0  0  0  0  0
  141.6140   78.8420  221.5910 C   0  0  0  0  0  0  0  0  0  0  0  0
  141.0770   79.8700  222.3460 C   0  0  0  0  0  0  0  0  0  0  0  0
  141.7930   81.4620  222.3890 Cl  0  0  0  0  0  0  0  0  0  0  0  0
  139.9390   79.5720  223.0710 C   0  0  0  0  0  0  0  0  0  0  0  0
  139.3510   78.3180  223.0560 C   0  0  0  0  0  0  0  0  0  0  0  0
  139.8920   77.3000  222.3010 C   0  0  0  0  0  0  0  0  0  0  0  0
  139.3550   76.0680  222.2560 N   0  0  0  0  0  0  0  0  0  0  0  0
  137.4670   74.3850  222.4040 H   0  0  0  0  0  0  0  0  0  0  0  0
  136.5631   72.1953  221.2447 H   0  0  0  0  0  0  0  0  0  0  0  0
  138.1568   71.4956  221.6480 H   0  0  0  0  0  0  0  0  0  0  0  0
  136.2282   69.4785  225.3103 H   0  0  0  0  0  0  0  0  0  0  0  0
  135.1368   70.4182  224.1781 H   0  0  0  0  0  0  0  0  0  0  0  0
  136.0833   67.7102  224.0749 H   0  0  0  0  0  0  0  0  0  0  0  0
  134.7252   68.6299  223.1969 H   0  0  0  0  0  0  0  0  0  0  0  0
  136.1013   67.5735  221.6508 H   0  0  0  0  0  0  0  0  0  0  0  0
  136.3130   69.4230  221.6612 H   0  0  0  0  0  0  0  0  0  0  0  0
  138.1976   67.2751  222.0066 H   0  0  0  0  0  0  0  0  0  0  0  0
  138.2997   69.0547  221.4254 H   0  0  0  0  0  0  0  0  0  0  0  0
  138.3902   68.0780  224.2181 H   0  0  0  0  0  0  0  0  0  0  0  0
  139.7700   68.6586  223.1164 H   0  0  0  0  0  0  0  0  0  0  0  0
  139.1319   70.7094  223.1325 H   0  0  0  0  0  0  0  0  0  0  0  0
  138.5315   71.2180  225.6616 H   0  0  0  0  0  0  0  0  0  0  0  0
  141.2880   70.1066  224.8871 H   0  0  0  0  0  0  0  0  0  0  0  0
  140.7006   71.6164  224.1767 H   0  0  0  0  0  0  0  0  0  0  0  0
  142.0096   71.8871  226.3756 H   0  0  0  0  0  0  0  0  0  0  0  0
  140.3578   72.6049  226.3964 H   0  0  0  0  0  0  0  0  0  0  0  0
  141.3849   70.8169  228.2659 H   0  0  0  0  0  0  0  0  0  0  0  0
  139.6392   71.1840  227.9850 H   0  0  0  0  0  0  0  0  0  0  0  0
  141.2557   68.9767  226.6526 H   0  0  0  0  0  0  0  0  0  0  0  0
  140.0253   68.7957  227.9876 H   0  0  0  0  0  0  0  0  0  0  0  0
  139.4168   68.3416  225.4758 H   0  0  0  0  0  0  0  0  0  0  0  0
  138.2760   69.1358  226.6288 H   0  0  0  0  0  0  0  0  0  0  0  0
  141.4643   74.5305  220.1746 H   0  0  0  0  0  0  0  0  0  0  0  0
  142.5002   76.7843  220.2161 H   0  0  0  0  0  0  0  0  0  0  0  0
  142.5200   79.0250  220.9946 H   0  0  0  0  0  0  0  0  0  0  0  0
  139.4818   80.3623  223.6846 H   0  0  0  0  0  0  0  0  0  0  0  0
  138.4448   78.1332  223.6516 H   0  0  0  0  0  0  0  0  0  0  0  0
  1  2  2  0
  2  3  1  0
  3  4  1  0
  4  5  1  0
  5  6  2  0
  5  7  1  0
  7  8  1  0
  8  9  1  0
  9 10  1  0
 10 11  1  0
 11 12  1  0
 12 13  1  0
 13 14  1  0
 14 15  1  0
 15 16  1  0
 16 17  1  0
 17 18  1  0
 18 19  1  0
  2 20  1  0
 20 21  2  0
 21 22  1  0
 22 23  2  0
 23 24  1  0
 24 25  2  0
 25 26  1  0
 25 27  1  0
 27 28  2  0
 28 29  1  0
 29 30  2  0
 13  7  1  0
 19 14  1  0
 30 20  1  0
 29 23  1  0
  3 31  1  0
  4 32  1  0
  4 33  1  0
  8 34  1  0
  8 35  1  0
  9 36  1  0
  9 37  1  0
 10 38  1  0
 10 39  1  0
 11 40  1  0
 11 41  1  0
 12 42  1  0
 12 43  1  0
 13 44  1  6
 14 45  1  0
 15 46  1  0
 15 47  1  0
 16 48  1  0
 16 49  1  0
 17 50  1  0
 17 51  1  0
 18 52  1  0
 18 53  1  0
 19 54  1  0
 19 55  1  0
 21 56  1  0
 22 57  1  0
 24 58  1  0
 27 59  1  0
 28 60  1  0
M  END
>  <smiles>  (13) 
O=C(NCC(=O)N1CCCCCC1C1CCCCC1)c1ccc2cc(Cl)ccc2n1

>  <score_type>  (13) 
oracle

>  <origin>  (13) 
autodockgpu

>  <m_score__min__energy>  (13) 
-7.1299999999999999

>  <m_primary>  (13) 
energy

>  <rmsd>  (13) 
8.173276492697445

>  <m_score__min__rmsd>  (13) 
8.173276492697445

>  <meeko>  (13) 
{"free_energy": -4.66, "intermolecular_energy": -7.94, "internal_energy": -2.22, "cluster_size": 5, "cluster_id": 2, "rank_in_cluster": 5}

>  <energy>  (13) 
-5.54

>  <cluster_rmsd>  (13) 
1.14

>  <cluster>  (13) 
1

$$$$

     RDKit          3D

 60 63  0  0  0  0  0  0  0  0999 V2000
  137.8720   71.1150  221.1640 O   0  0  0  0  0  0  0  0  0  0  0  0
  138.4440   71.6840  222.1550 C   0  0  0  0  0  0  0  0  0  0  0  0
  138.6300   73.1010  222.1800 N   0  0  0  0  0  0  0  0  0  0  0  0
  138.1490   73.8710  221.0480 C   0  0  0  0  0  0  0  0  0  0  0  0
  139.0270   73.6060  219.9110 C   0  0  0  0  0  0  0  0  0  0  0  0
  138.7820   72.7340  219.0090 O   0  0  0  0  0  0  0  0  0  0  0  0
  140.2320   74.3510  219.7830 N   0  0  0  0  0  0  0  0  0  0  0  0
  140.3990   75.2190  218.6350 C   0  0  0  0  0  0  0  0  0  0  0  0
  140.9070   76.5650  218.9660 C   0  0  0  0  0  0  0  0  0  0  0  0
  140.3590   77.2340  220.1740 C   0  0  0  0  0  0  0  0  0  0  0  0
  140.4780   76.5320  221.4620 C   0  0  0  0  0  0  0  0  0  0  0  0
  141.4620   75.4340  221.6100 C   0  0  0  0  0  0  0  0  0  0  0  0
  141.2430   74.1930  220.8360 C   0  0  2  0  0  0  0  0  0  0  0  0
  142.4900   73.5400  220.2860 C   0  0  0  0  0  0  0  0  0  0  0  0
  142.7680   72.2140  220.9830 C   0  0  0  0  0  0  0  0  0  0  0  0
  143.7060   71.4520  220.0580 C   0  0  0  0  0  0  0  0  0  0  0  0
  144.8610   72.3440  219.6340 C   0  0  0  0  0  0  0  0  0  0  0  0
  144.9430   73.5710  220.5180 C   0  0  0  0  0  0  0  0  0  0  0  0
  143.7090   74.4010  220.4850 C   0  0  0  0  0  0  0  0  0  0  0  0
  138.9150   70.8790  223.2770 C   0  0  0  0  0  0  0  0  0  0  0  0
  138.7440   69.5110  223.2580 C   0  0  0  0  0  0  0  0  0  0  0  0
  139.1860   68.7390  224.3160 C   0  0  0  0  0  0  0  0  0  0  0  0
  139.8040   69.3390  225.4010 C   0  0  0  0  0  0  0  0  0  0  0  0
  140.2430   68.5610  226.4510 C   0  0  0  0  0  0  0  0  0  0  0  0
  140.8640   69.1300  227.5500 C   0  0  0  0  0  0  0  0  0  0  0  0
  141.4280   68.1710  228.8960 Cl  0  0  0  0  0  0  0  0  0  0  0  0
  141.0150   70.5030  227.5300 C   0  0  0  0  0  0  0  0  0  0  0  0
  140.5760   71.2870  226.4770 C   0  0  0  0  0  0  0  0  0  0  0  0
  139.9580   70.7130  225.3860 C   0  0  0  0  0  0  0  0  0  0  0  0
  139.5170   71.4350  224.3410 N   0  0  0  0  0  0  0  0  0  0  0  0
  139.1010   73.5190  223.0090 H   0  0  0  0  0  0  0  0  0  0  0  0
  137.1201   73.5694  220.8024 H   0  0  0  0  0  0  0  0  0  0  0  0
  138.1521   74.9443  221.2890 H   0  0  0  0  0  0  0  0  0  0  0  0
  141.1083   74.7428  217.9421 H   0  0  0  0  0  0  0  0  0  0  0  0
  139.4010   75.3564  218.1933 H   0  0  0  0  0  0  0  0  0  0  0  0
  141.9952   76.4806  219.1028 H   0  0  0  0  0  0  0  0  0  0  0  0
  140.5820   77.1980  218.1271 H   0  0  0  0  0  0  0  0  0  0  0  0
  140.8766   78.1991  220.2775 H   0  0  0  0  0  0  0  0  0  0  0  0
  139.2761   77.2928  219.9902 H   0  0  0  0  0  0  0  0  0  0  0  0
  140.7305   77.2910  222.2171 H   0  0  0  0  0  0  0  0  0  0  0  0
  139.5082   76.0237  221.5680 H   0  0  0  0  0  0  0  0  0  0  0  0
  142.4438   75.8334  221.3157 H   0  0  0  0  0  0  0  0  0  0  0  0
  141.3672   75.1215  222.6604 H   0  0  0  0  0  0  0  0  0  0  0  0
  140.8567   73.4945  221.5929 H   0  0  0  0  0  0  0  0  0  0  0  0
  142.3021   73.3896  219.2127 H   0  0  0  0  0  0  0  0  0  0  0  0
  143.2470   72.3862  221.9581 H   0  0  0  0  0  0  0  0  0  0  0  0
  141.8412   71.6531  221.1736 H   0  0  0  0  0  0  0  0  0  0  0  0
  144.1012   70.5715  220.5857 H   0  0  0  0  0  0  0  0  0  0  0  0
  143.1497   71.1344  219.1638 H   0  0  0  0  0  0  0  0  0  0  0  0
  145.8014   71.7788  219.7128 H   0  0  0  0  0  0  0  0  0  0  0  0
  144.6954   72.6670  218.5956 H   0  0  0  0  0  0  0  0  0  0  0  0
  145.1170   73.2445  221.5539 H   0  0  0  0  0  0  0  0  0  0  0  0
  145.7659   74.1937  220.1371 H   0  0  0  0  0  0  0  0  0  0  0  0
  143.6148   74.9449  221.4365 H   0  0  0  0  0  0  0  0  0  0  0  0
  143.7821   75.1077  219.6452 H   0  0  0  0  0  0  0  0  0  0  0  0
  138.2539   69.0321  222.3975 H   0  0  0  0  0  0  0  0  0  0  0  0
  139.0470   67.6480  224.2964 H   0  0  0  0  0  0  0  0  0  0  0  0
  140.0977   67.4712  226.4152 H   0  0  0  0  0  0  0  0  0  0  0  0
  141.5037   70.9929  228.3851 H   0  0  0  0  0  0  0  0  0  0  0  0
  140.7213   72.3768  226.5108 H   0  0  0  0  0  0  0  0  0  0  0  0
  1  2  2  0
  2  3  1  0
  3  4  1  0
  4  5  1  0
  5  6  2  0
  5  7  1  0
  7  8  1  0
  8  9  1  0
  9 10  1  0
 10 11  1  0
 11 12  1  0
 12 13  1  0
 13 14  1  0
 14 15  1  0
 15 16  1  0
 16 17  1  0
 17 18  1  0
 18 19  1  0
  2 20  1  0
 20 21  2  0
 21 22  1  0
 22 23  2  0
 23 24  1  0
 24 25  2  0
 25 26  1  0
 25 27  1  0
 27 28  2  0
 28 29  1  0
 29 30  2  0
 13  7  1  0
 19 14  1  0
 30 20  1  0
 29 23  1  0
  3 31  1  0
  4 32  1  0
  4 33  1  0
  8 34  1  0
  8 35  1  0
  9 36  1  0
  9 37  1  0
 10 38  1  0
 10 39  1  0
 11 40  1  0
 11 41  1  0
 12 42  1  0
 12 43  1  0
 13 44  1  1
 14 45  1  0
 15 46  1  0
 15 47  1  0
 16 48  1  0
 16 49  1  0
 17 50  1  0
 17 51  1  0
 18 52  1  0
 18 53  1  0
 19 54  1  0
 19 55  1  0
 21 56  1  0
 22 57  1  0
 24 58  1  0
 27 59  1  0
 28 60  1  0
M  END
>  <smiles>  (14) 
O=C(NCC(=O)N1CCCCCC1C1CCCCC1)c1ccc2cc(Cl)ccc2n1

>  <score_type>  (14) 
oracle

>  <origin>  (14) 
autodockgpu

>  <m_score__min__energy>  (14) 
-7.1299999999999999

>  <m_primary>  (14) 
energy

>  <rmsd>  (14) 
2.0760023446440257

>  <m_score__min__rmsd>  (14) 
2.0760023446440257

>  <meeko>  (14) 
{"free_energy": -4.91, "intermolecular_energy": -8.19, "internal_energy": -2.33, "cluster_size": 10, "cluster_id": 4, "rank_in_cluster": 9}

>  <energy>  (14) 
-5.5

>  <cluster_rmsd>  (14) 
1.99

>  <cluster>  (14) 
1

$$$$

     RDKit          3D

 60 63  0  0  0  0  0  0  0  0999 V2000
  138.9200   72.5520  220.7590 O   0  0  0  0  0  0  0  0  0  0  0  0
  139.6650   72.8230  221.7620 C   0  0  0  0  0  0  0  0  0  0  0  0
  140.4390   74.0250  221.7980 N   0  0  0  0  0  0  0  0  0  0  0  0
  140.3500   74.9260  220.6640 C   0  0  0  0  0  0  0  0  0  0  0  0
  141.5150   75.8060  220.6910 C   0  0  0  0  0  0  0  0  0  0  0  0
  142.6890   75.4490  220.3310 O   0  0  0  0  0  0  0  0  0  0  0  0
  141.3550   77.1470  221.1400 N   0  0  0  0  0  0  0  0  0  0  0  0
  140.7350   77.3840  222.4270 C   0  0  0  0  0  0  0  0  0  0  0  0
  141.4880   78.3070  223.3000 C   0  0  0  0  0  0  0  0  0  0  0  0
  141.3250   79.7650  223.0690 C   0  0  0  0  0  0  0  0  0  0  0  0
  141.6210   80.2860  221.7240 C   0  0  0  0  0  0  0  0  0  0  0  0
  141.1850   79.5190  220.5340 C   0  0  0  0  0  0  0  0  0  0  0  0
  141.8360   78.2200  220.2600 C   0  0  2  0  0  0  0  0  0  0  0  0
  141.8200   77.7740  218.8160 C   0  0  0  0  0  0  0  0  0  0  0  0
  143.2130   77.3690  218.3500 C   0  0  0  0  0  0  0  0  0  0  0  0
  142.9990   76.5140  217.1100 C   0  0  0  0  0  0  0  0  0  0  0  0
  142.0510   77.2120  216.1500 C   0  0  0  0  0  0  0  0  0  0  0  0
  141.8900   78.6710  216.5220 C   0  0  0  0  0  0  0  0  0  0  0  0
  141.3530   78.8710  217.8950 C   0  0  0  0  0  0  0  0  0  0  0  0
  139.7300   71.8950  222.8860 C   0  0  0  0  0  0  0  0  0  0  0  0
  139.1450   70.6500  222.7810 C   0  0  0  0  0  0  0  0  0  0  0  0
  139.2000   69.7630  223.8400 C   0  0  0  0  0  0  0  0  0  0  0  0
  139.8440   70.1230  225.0120 C   0  0  0  0  0  0  0  0  0  0  0  0
  139.8950   69.2320  226.0630 C   0  0  0  0  0  0  0  0  0  0  0  0
  140.5300   69.5600  227.2480 C   0  0  0  0  0  0  0  0  0  0  0  0
  140.6090   68.4530  228.5960 Cl  0  0  0  0  0  0  0  0  0  0  0  0
  141.1020   70.8160  227.3120 C   0  0  0  0  0  0  0  0  0  0  0  0
  141.0530   71.7150  226.2590 C   0  0  0  0  0  0  0  0  0  0  0  0
  140.4180   71.3790  225.0820 C   0  0  0  0  0  0  0  0  0  0  0  0
  140.3470   72.2180  224.0340 N   0  0  0  0  0  0  0  0  0  0  0  0
  141.0300   74.2010  222.6360 H   0  0  0  0  0  0  0  0  0  0  0  0
  140.3411   74.3478  219.7283 H   0  0  0  0  0  0  0  0  0  0  0  0
  139.4243   75.5176  220.7192 H   0  0  0  0  0  0  0  0  0  0  0  0
  139.7353   77.8097  222.2554 H   0  0  0  0  0  0  0  0  0  0  0  0
  140.7016   76.4145  222.9455 H   0  0  0  0  0  0  0  0  0  0  0  0
  141.1811   78.1025  224.3363 H   0  0  0  0  0  0  0  0  0  0  0  0
  142.5448   78.1061  223.0702 H   0  0  0  0  0  0  0  0  0  0  0  0
  140.2786   80.0177  223.2954 H   0  0  0  0  0  0  0  0  0  0  0  0
  142.0788   80.2336  223.7188 H   0  0  0  0  0  0  0  0  0  0  0  0
  141.1521   81.2786  221.6547 H   0  0  0  0  0  0  0  0  0  0  0  0
  142.7190   80.2493  221.6678 H   0  0  0  0  0  0  0  0  0  0  0  0
  140.1080   79.3260  220.6476 H   0  0  0  0  0  0  0  0  0  0  0  0
  141.4737   80.1523  219.6822 H   0  0  0  0  0  0  0  0  0  0  0  0
  142.8925   78.4197  220.4920 H   0  0  0  0  0  0  0  0  0  0  0  0
  141.1273   76.9206  218.7729 H   0  0  0  0  0  0  0  0  0  0  0  0
  143.8092   78.2599  218.1035 H   0  0  0  0  0  0  0  0  0  0  0  0
  143.7597   76.8214  219.1318 H   0  0  0  0  0  0  0  0  0  0  0  0
  143.9653   76.3490  216.6110 H   0  0  0  0  0  0  0  0  0  0  0  0
  142.5619   75.5499  217.4093 H   0  0  0  0  0  0  0  0  0  0  0  0
  142.4549   77.1422  215.1292 H   0  0  0  0  0  0  0  0  0  0  0  0
  141.0675   76.7224  216.2059 H   0  0  0  0  0  0  0  0  0  0  0  0
  142.8738   79.1587  216.4571 H   0  0  0  0  0  0  0  0  0  0  0  0
  141.1642   79.1085  215.8207 H   0  0  0  0  0  0  0  0  0  0  0  0
  141.7024   79.8398  218.2815 H   0  0  0  0  0  0  0  0  0  0  0  0
  140.2541   78.8508  217.8507 H   0  0  0  0  0  0  0  0  0  0  0  0
  138.6328   70.3620  221.8511 H   0  0  0  0  0  0  0  0  0  0  0  0
  138.7322   68.7713  223.7517 H   0  0  0  0  0  0  0  0  0  0  0  0
  139.4231   68.2440  225.9578 H   0  0  0  0  0  0  0  0  0  0  0  0
  141.6174   71.1144  228.2368 H   0  0  0  0  0  0  0  0  0  0  0  0
  141.5239   72.7037  226.3626 H   0  0  0  0  0  0  0  0  0  0  0  0
  1  2  2  0
  2  3  1  0
  3  4  1  0
  4  5  1  0
  5  6  2  0
  5  7  1  0
  7  8  1  0
  8  9  1  0
  9 10  1  0
 10 11  1  0
 11 12  1  0
 12 13  1  0
 13 14  1  0
 14 15  1  0
 15 16  1  0
 16 17  1  0
 17 18  1  0
 18 19  1  0
  2 20  1  0
 20 21  2  0
 21 22  1  0
 22 23  2  0
 23 24  1  0
 24 25  2  0
 25 26  1  0
 25 27  1  0
 27 28  2  0
 28 29  1  0
 29 30  2  0
 13  7  1  0
 19 14  1  0
 30 20  1  0
 29 23  1  0
  3 31  1  0
  4 32  1  0
  4 33  1  0
  8 34  1  0
  8 35  1  0
  9 36  1  0
  9 37  1  0
 10 38  1  0
 10 39  1  0
 11 40  1  0
 11 41  1  0
 12 42  1  0
 12 43  1  0
 13 44  1  1
 14 45  1  0
 15 46  1  0
 15 47  1  0
 16 48  1  0
 16 49  1  0
 17 50  1  0
 17 51  1  0
 18 52  1  0
 18 53  1  0
 19 54  1  0
 19 55  1  0
 21 56  1  0
 22 57  1  0
 24 58  1  0
 27 59  1  0
 28 60  1  0
M  END
>  <smiles>  (15) 
O=C(NCC(=O)N1CCCCCC1C1CCCCC1)c1ccc2cc(Cl)ccc2n1

>  <score_type>  (15) 
oracle

>  <origin>  (15) 
autodockgpu

>  <m_score__min__energy>  (15) 
-7.1299999999999999

>  <m_primary>  (15) 
energy

>  <rmsd>  (15) 
3.1285427128207037

>  <m_score__min__rmsd>  (15) 
3.1285427128207037

>  <meeko>  (15) 
{"free_energy": -5.84, "intermolecular_energy": -9.12, "internal_energy": -1.72, "cluster_size": 16, "cluster_id": 1, "rank_in_cluster": 10}

>  <energy>  (15) 
-5.31

>  <cluster_rmsd>  (15) 
1.63

>  <cluster>  (15) 
1

$$$$

     RDKit          3D

 60 63  0  0  0  0  0  0  0  0999 V2000
  139.2470   74.7280  222.4230 O   0  0  0  0  0  0  0  0  0  0  0  0
  139.8410   74.8110  221.2940 C   0  0  0  0  0  0  0  0  0  0  0  0
  139.9900   73.6610  220.4570 N   0  0  0  0  0  0  0  0  0  0  0  0
  139.4480   72.4010  220.9290 C   0  0  0  0  0  0  0  0  0  0  0  0
  139.9480   72.1680  222.2810 C   0  0  0  0  0  0  0  0  0  0  0  0
  141.0640   72.6150  222.7160 O   0  0  0  0  0  0  0  0  0  0  0  0
  139.1610   71.4010  223.1850 N   0  0  0  0  0  0  0  0  0  0  0  0
  137.7900   71.7980  223.4300 C   0  0  0  0  0  0  0  0  0  0  0  0
  136.8050   70.7150  223.2410 C   0  0  0  0  0  0  0  0  0  0  0  0
  136.8790   69.5450  224.1550 C   0  0  0  0  0  0  0  0  0  0  0  0
  137.9150   68.5330  223.8930 C   0  0  0  0  0  0  0  0  0  0  0  0
  139.2290   68.9530  223.3550 C   0  0  0  0  0  0  0  0  0  0  0  0
  139.7960   70.2380  223.8190 C   0  0  2  0  0  0  0  0  0  0  0  0
  139.8640   70.4170  225.3180 C   0  0  0  0  0  0  0  0  0  0  0  0
  141.0360   71.3070  225.7120 C   0  0  0  0  0  0  0  0  0  0  0  0
  140.7250   71.7970  227.1180 C   0  0  0  0  0  0  0  0  0  0  0  0
  140.3290   70.6280  228.0040 C   0  0  0  0  0  0  0  0  0  0  0  0
  140.7040   69.3120  227.3540 C   0  0  0  0  0  0  0  0  0  0  0  0
  140.0530   69.1050  226.0320 C   0  0  0  0  0  0  0  0  0  0  0  0
  140.3730   76.0950  220.8490 C   0  0  0  0  0  0  0  0  0  0  0  0
  140.3630   77.1740  221.7080 C   0  0  0  0  0  0  0  0  0  0  0  0
  140.8650   78.3950  221.2980 C   0  0  0  0  0  0  0  0  0  0  0  0
  141.3810   78.5380  220.0200 C   0  0  0  0  0  0  0  0  0  0  0  0
  141.8810   79.7590  219.6190 C   0  0  0  0  0  0  0  0  0  0  0  0
  142.4030   79.9350  218.3500 C   0  0  0  0  0  0  0  0  0  0  0  0
  143.0410   81.4700  217.8140 Cl  0  0  0  0  0  0  0  0  0  0  0  0
  142.3940   78.8300  217.5210 C   0  0  0  0  0  0  0  0  0  0  0  0
  141.8930   77.6010  217.9200 C   0  0  0  0  0  0  0  0  0  0  0  0
  141.3750   77.4340  219.1870 C   0  0  0  0  0  0  0  0  0  0  0  0
  140.8790   76.2610  219.6170 N   0  0  0  0  0  0  0  0  0  0  0  0
  140.4810   73.7790  219.5460 H   0  0  0  0  0  0  0  0  0  0  0  0
  138.3491   72.4495  220.9414 H   0  0  0  0  0  0  0  0  0  0  0  0
  139.7559   71.5813  220.2632 H   0  0  0  0  0  0  0  0  0  0  0  0
  137.7144   72.1563  224.4673 H   0  0  0  0  0  0  0  0  0  0  0  0
  137.5492   72.5774  222.6921 H   0  0  0  0  0  0  0  0  0  0  0  0
  135.8044   71.1577  223.3547 H   0  0  0  0  0  0  0  0  0  0  0  0
  137.0313   70.3045  222.2459 H   0  0  0  0  0  0  0  0  0  0  0  0
  137.0484   69.9324  225.1705 H   0  0  0  0  0  0  0  0  0  0  0  0
  135.9282   69.0136  224.0017 H   0  0  0  0  0  0  0  0  0  0  0  0
  138.1094   68.0207  224.8468 H   0  0  0  0  0  0  0  0  0  0  0  0
  137.4852   67.9299  223.0797 H   0  0  0  0  0  0  0  0  0  0  0  0
  139.9531   68.1656  223.6112 H   0  0  0  0  0  0  0  0  0  0  0  0
  139.0471   69.1073  222.2812 H   0  0  0  0  0  0  0  0  0  0  0  0
  140.8423   70.1817  223.4841 H   0  0  0  0  0  0  0  0  0  0  0  0
  138.9069   70.8739  225.6098 H   0  0  0  0  0  0  0  0  0  0  0  0
  141.9738   70.7321  225.7047 H   0  0  0  0  0  0  0  0  0  0  0  0
  141.1652   72.1435  225.0094 H   0  0  0  0  0  0  0  0  0  0  0  0
  141.6163   72.2860  227.5381 H   0  0  0  0  0  0  0  0  0  0  0  0
  139.8909   72.5127  227.0730 H   0  0  0  0  0  0  0  0  0  0  0  0
  140.8485   70.7147  228.9697 H   0  0  0  0  0  0  0  0  0  0  0  0
  139.2394   70.6508  228.1533 H   0  0  0  0  0  0  0  0  0  0  0  0
  141.7948   69.2895  227.2140 H   0  0  0  0  0  0  0  0  0  0  0  0
  140.3563   68.5079  228.0192 H   0  0  0  0  0  0  0  0  0  0  0  0
  140.6857   68.4478  225.4174 H   0  0  0  0  0  0  0  0  0  0  0  0
  139.0665   68.6457  226.1928 H   0  0  0  0  0  0  0  0  0  0  0  0
  139.9541   77.0626  222.7231 H   0  0  0  0  0  0  0  0  0  0  0  0
  140.8548   79.2530  221.9863 H   0  0  0  0  0  0  0  0  0  0  0  0
  141.8645   80.6069  220.3196 H   0  0  0  0  0  0  0  0  0  0  0  0
  142.8006   78.9296  216.5038 H   0  0  0  0  0  0  0  0  0  0  0  0
  141.9087   76.7521  217.2206 H   0  0  0  0  0  0  0  0  0  0  0  0
  1  2  2  0
  2  3  1  0
  3  4  1  0
  4  5  1  0
  5  6  2  0
  5  7  1  0
  7  8  1  0
  8  9  1  0
  9 10  1  0
 10 11  1  0
 11 12  1  0
 12 13  1  0
 13 14  1  0
 14 15  1  0
 15 16  1  0
 16 17  1  0
 17 18  1  0
 18 19  1  0
  2 20  1  0
 20 21  2  0
 21 22  1  0
 22 23  2  0
 23 24  1  0
 24 25  2  0
 25 26  1  0
 25 27  1  0
 27 28  2  0
 28 29  1  0
 29 30  2  0
 13  7  1  0
 19 14  1  0
 30 20  1  0
 29 23  1  0
  3 31  1  0
  4 32  1  0
  4 33  1  0
  8 34  1  0
  8 35  1  0
  9 36  1  0
  9 37  1  0
 10 38  1  0
 10 39  1  0
 11 40  1  0
 11 41  1  0
 12 42  1  0
 12 43  1  0
 13 44  1  6
 14 45  1  0
 15 46  1  0
 15 47  1  0
 16 48  1  0
 16 49  1  0
 17 50  1  0
 17 51  1  0
 18 52  1  0
 18 53  1  0
 19 54  1  0
 19 55  1  0
 21 56  1  0
 22 57  1  0
 24 58  1  0
 27 59  1  0
 28 60  1  0
M  END
>  <smiles>  (16) 
O=C(NCC(=O)N1CCCCCC1C1CCCCC1)c1ccc2cc(Cl)ccc2n1

>  <score_type>  (16) 
oracle

>  <origin>  (16) 
autodockgpu

>  <m_score__min__energy>  (16) 
-7.1299999999999999

>  <m_primary>  (16) 
energy

>  <rmsd>  (16) 
8.795730236926769

>  <m_score__min__rmsd>  (16) 
8.795730236926769

>  <meeko>  (16) 
{"free_energy": -5.32, "intermolecular_energy": -8.61, "internal_energy": -1.76, "cluster_size": 1, "cluster_id": 7, "rank_in_cluster": 1}

>  <energy>  (16) 
-5.23

>  <cluster_rmsd>  (16) 
1.36

>  <cluster>  (16) 
1

$$$$

     RDKit          3D

 60 63  0  0  0  0  0  0  0  0999 V2000
  141.6510   72.8780  221.0430 O   0  0  0  0  0  0  0  0  0  0  0  0
  140.8470   73.6950  221.6080 C   0  0  0  0  0  0  0  0  0  0  0  0
  139.7280   73.2220  222.3620 N   0  0  0  0  0  0  0  0  0  0  0  0
  139.5350   71.7870  222.4650 C   0  0  0  0  0  0  0  0  0  0  0  0
  138.2490   71.5470  223.1140 C   0  0  0  0  0  0  0  0  0  0  0  0
  137.2700   72.3690  223.0860 O   0  0  0  0  0  0  0  0  0  0  0  0
  138.0540   70.3300  223.8270 N   0  0  0  0  0  0  0  0  0  0  0  0
  136.7110   69.8020  223.9550 C   0  0  0  0  0  0  0  0  0  0  0  0
  136.4420   68.6250  223.1050 C   0  0  0  0  0  0  0  0  0  0  0  0
  137.5870   68.0250  222.3710 C   0  0  0  0  0  0  0  0  0  0  0  0
  138.7120   67.5020  223.1630 C   0  0  0  0  0  0  0  0  0  0  0  0
  139.1320   68.2030  224.4060 C   0  0  0  0  0  0  0  0  0  0  0  0
  139.2420   69.6780  224.3930 C   0  0  2  0  0  0  0  0  0  0  0  0
  139.6250   70.3140  225.7100 C   0  0  0  0  0  0  0  0  0  0  0  0
  141.0410   70.8720  225.6580 C   0  0  0  0  0  0  0  0  0  0  0  0
  141.1300   71.8720  226.8010 C   0  0  0  0  0  0  0  0  0  0  0  0
  140.6060   71.2490  228.0840 C   0  0  0  0  0  0  0  0  0  0  0  0
  140.4970   69.7450  227.9430 C   0  0  0  0  0  0  0  0  0  0  0  0
  139.5860   69.3240  226.8430 C   0  0  0  0  0  0  0  0  0  0  0  0
  141.0710   75.1320  221.4850 C   0  0  0  0  0  0  0  0  0  0  0  0
  141.8720   75.6150  220.4720 C   0  0  0  0  0  0  0  0  0  0  0  0
  142.0920   76.9740  220.3460 C   0  0  0  0  0  0  0  0  0  0  0  0
  141.5060   77.8570  221.2390 C   0  0  0  0  0  0  0  0  0  0  0  0
  141.7300   79.2100  221.1050 C   0  0  0  0  0  0  0  0  0  0  0  0
  141.1600   80.1180  221.9810 C   0  0  0  0  0  0  0  0  0  0  0  0
  141.4260   81.8380  221.8380 Cl  0  0  0  0  0  0  0  0  0  0  0  0
  140.3650   79.5930  222.9820 C   0  0  0  0  0  0  0  0  0  0  0  0
  140.1380   78.2340  223.1190 C   0  0  0  0  0  0  0  0  0  0  0  0
  140.7100   77.3360  222.2420 C   0  0  0  0  0  0  0  0  0  0  0  0
  140.5160   76.0090  222.3370 N   0  0  0  0  0  0  0  0  0  0  0  0
  139.1020   73.9260  222.8050 H   0  0  0  0  0  0  0  0  0  0  0  0
  139.5354   71.3378  221.4609 H   0  0  0  0  0  0  0  0  0  0  0  0
  140.3480   71.3346  223.0518 H   0  0  0  0  0  0  0  0  0  0  0  0
  136.5518   69.5137  225.0045 H   0  0  0  0  0  0  0  0  0  0  0  0
  136.0254   70.5958  223.6236 H   0  0  0  0  0  0  0  0  0  0  0  0
  136.0205   67.8419  223.7524 H   0  0  0  0  0  0  0  0  0  0  0  0
  135.7726   68.9994  222.3165 H   0  0  0  0  0  0  0  0  0  0  0  0
  137.1920   67.1913  221.7720 H   0  0  0  0  0  0  0  0  0  0  0  0
  138.0165   68.8599  221.7978 H   0  0  0  0  0  0  0  0  0  0  0  0
  138.4474   66.4740  223.4514 H   0  0  0  0  0  0  0  0  0  0  0  0
  139.5756   67.6311  222.4941 H   0  0  0  0  0  0  0  0  0  0  0  0
  138.4027   67.9406  225.1866 H   0  0  0  0  0  0  0  0  0  0  0  0
  140.1655   67.8619  224.5659 H   0  0  0  0  0  0  0  0  0  0  0  0
  140.0957   69.8576  223.7229 H   0  0  0  0  0  0  0  0  0  0  0  0
  138.8921   71.1161  225.8818 H   0  0  0  0  0  0  0  0  0  0  0  0
  141.7765   70.0657  225.7953 H   0  0  0  0  0  0  0  0  0  0  0  0
  141.2570   71.3432  224.6878 H   0  0  0  0  0  0  0  0  0  0  0  0
  142.1796   72.1689  226.9433 H   0  0  0  0  0  0  0  0  0  0  0  0
  140.5207   72.7541  226.5549 H   0  0  0  0  0  0  0  0  0  0  0  0
  141.2953   71.4854  228.9080 H   0  0  0  0  0  0  0  0  0  0  0  0
  139.6066   71.6580  228.2933 H   0  0  0  0  0  0  0  0  0  0  0  0
  141.4993   69.3391  227.7416 H   0  0  0  0  0  0  0  0  0  0  0  0
  140.0759   69.3580  228.8826 H   0  0  0  0  0  0  0  0  0  0  0  0
  139.9007   68.3377  226.4714 H   0  0  0  0  0  0  0  0  0  0  0  0
  138.5590   69.2753  227.2342 H   0  0  0  0  0  0  0  0  0  0  0  0
  142.3377   74.9163  219.7614 H   0  0  0  0  0  0  0  0  0  0  0  0
  142.7324   77.3546  219.5366 H   0  0  0  0  0  0  0  0  0  0  0  0
  142.3717   79.5743  220.2893 H   0  0  0  0  0  0  0  0  0  0  0  0
  139.8938   80.2821  223.6984 H   0  0  0  0  0  0  0  0  0  0  0  0
  139.4963   77.8675  223.9338 H   0  0  0  0  0  0  0  0  0  0  0  0
  1  2  2  0
  2  3  1  0
  3  4  1  0
  4  5  1  0
  5  6  2  0
  5  7  1  0
  7  8  1  0
  8  9  1  0
  9 10  1  0
 10 11  1  0
 11 12  1  0
 12 13  1  0
 13 14  1  0
 14 15  1  0
 15 16  1  0
 16 17  1  0
 17 18  1  0
 18 19  1  0
  2 20  1  0
 20 21  2  0
 21 22  1  0
 22 23  2  0
 23 24  1  0
 24 25  2  0
 25 26  1  0
 25 27  1  0
 27 28  2  0
 28 29  1  0
 29 30  2  0
 13  7  1  0
 19 14  1  0
 30 20  1  0
 29 23  1  0
  3 31  1  0
  4 32  1  0
  4 33  1  0
  8 34  1  0
  8 35  1  0
  9 36  1  0
  9 37  1  0
 10 38  1  0
 10 39  1  0
 11 40  1  0
 11 41  1  0
 12 42  1  0
 12 43  1  0
 13 44  1  6
 14 45  1  0
 15 46  1  0
 15 47  1  0
 16 48  1  0
 16 49  1  0
 17 50  1  0
 17 51  1  0
 18 52  1  0
 18 53  1  0
 19 54  1  0
 19 55  1  0
 21 56  1  0
 22 57  1  0
 24 58  1  0
 27 59  1  0
 28 60  1  0
M  END
>  <smiles>  (17) 
O=C(NCC(=O)N1CCCCCC1C1CCCCC1)c1ccc2cc(Cl)ccc2n1

>  <score_type>  (17) 
oracle

>  <origin>  (17) 
autodockgpu

>  <m_score__min__energy>  (17) 
-7.1299999999999999

>  <m_primary>  (17) 
energy

>  <rmsd>  (17) 
8.413041302007429

>  <m_score__min__rmsd>  (17) 
8.413041302007429

>  <meeko>  (17) 
{"free_energy": -5.52, "intermolecular_energy": -8.81, "internal_energy": -2.21, "cluster_size": 5, "cluster_id": 2, "rank_in_cluster": 4}

>  <energy>  (17) 
-6.3

>  <cluster_rmsd>  (17) 
0.0

>  <cluster>  (17) 
2

$$$$

     RDKit          3D

 60 63  0  0  0  0  0  0  0  0999 V2000
  137.4000   70.9290  221.1040 O   0  0  0  0  0  0  0  0  0  0  0  0
  137.8640   71.5290  222.1330 C   0  0  0  0  0  0  0  0  0  0  0  0
  137.8660   72.9570  222.2110 N   0  0  0  0  0  0  0  0  0  0  0  0
  137.3240   73.7010  221.0890 C   0  0  0  0  0  0  0  0  0  0  0  0
  138.3070   74.7060  220.6930 C   0  0  0  0  0  0  0  0  0  0  0  0
  138.6930   74.8920  219.4880 O   0  0  0  0  0  0  0  0  0  0  0  0
  138.8810   75.5390  221.6940 N   0  0  0  0  0  0  0  0  0  0  0  0
  138.0210   76.4400  222.4320 C   0  0  0  0  0  0  0  0  0  0  0  0
  138.0020   77.8210  221.9100 C   0  0  0  0  0  0  0  0  0  0  0  0
  139.2820   78.5760  221.9030 C   0  0  0  0  0  0  0  0  0  0  0  0
  140.4750   77.9110  222.4520 C   0  0  0  0  0  0  0  0  0  0  0  0
  141.0290   76.7250  221.7630 C   0  0  0  0  0  0  0  0  0  0  0  0
  140.3290   75.4310  221.9180 C   0  0  2  0  0  0  0  0  0  0  0  0
  140.9080   74.2790  221.1300 C   0  0  0  0  0  0  0  0  0  0  0  0
  140.9860   73.0170  221.9800 C   0  0  0  0  0  0  0  0  0  0  0  0
  141.1070   71.8650  220.9940 C   0  0  0  0  0  0  0  0  0  0  0  0
  142.1930   72.1610  219.9730 C   0  0  0  0  0  0  0  0  0  0  0  0
  143.0650   73.3100  220.4360 C   0  0  0  0  0  0  0  0  0  0  0  0
  142.3050   74.5720  220.6520 C   0  0  0  0  0  0  0  0  0  0  0  0
  138.4000   70.7500  223.2440 C   0  0  0  0  0  0  0  0  0  0  0  0
  138.1540   69.3950  223.3110 C   0  0  0  0  0  0  0  0  0  0  0  0
  138.6560   68.6470  224.3590 C   0  0  0  0  0  0  0  0  0  0  0  0
  139.4110   69.2580  225.3470 C   0  0  0  0  0  0  0  0  0  0  0  0
  139.9090   68.5040  226.3890 C   0  0  0  0  0  0  0  0  0  0  0  0
  140.6670   69.0840  227.3910 C   0  0  0  0  0  0  0  0  0  0  0  0
  141.3090   68.1550  228.7230 Cl  0  0  0  0  0  0  0  0  0  0  0  0
  140.8900   70.4430  227.2870 C   0  0  0  0  0  0  0  0  0  0  0  0
  140.3910   71.2040  226.2420 C   0  0  0  0  0  0  0  0  0  0  0  0
  139.6370   70.6180  225.2470 C   0  0  0  0  0  0  0  0  0  0  0  0
  139.1340   71.3170  224.2140 N   0  0  0  0  0  0  0  0  0  0  0  0
  138.2540   73.4000  223.0690 H   0  0  0  0  0  0  0  0  0  0  0  0
  137.1292   73.0186  220.2485 H   0  0  0  0  0  0  0  0  0  0  0  0
  136.3782   74.1849  221.3741 H   0  0  0  0  0  0  0  0  0  0  0  0
  136.9954   76.0439  222.3974 H   0  0  0  0  0  0  0  0  0  0  0  0
  138.4225   76.4939  223.4547 H   0  0  0  0  0  0  0  0  0  0  0  0
  137.6427   77.7744  220.8714 H   0  0  0  0  0  0  0  0  0  0  0  0
  137.3580   78.3733  222.6102 H   0  0  0  0  0  0  0  0  0  0  0  0
  139.5035   78.8361  220.8574 H   0  0  0  0  0  0  0  0  0  0  0  0
  139.1049   79.4270  222.5770 H   0  0  0  0  0  0  0  0  0  0  0  0
  141.2752   78.6650  222.4846 H   0  0  0  0  0  0  0  0  0  0  0  0
  140.1276   77.5112  223.4161 H   0  0  0  0  0  0  0  0  0  0  0  0
  141.0529   76.9552  220.6876 H   0  0  0  0  0  0  0  0  0  0  0  0
  142.0051   76.5640  222.2440 H   0  0  0  0  0  0  0  0  0  0  0  0
  140.5042   75.1789  222.9743 H   0  0  0  0  0  0  0  0  0  0  0  0
  140.2361   74.1339  220.2712 H   0  0  0  0  0  0  0  0  0  0  0  0
  141.8660   73.0520  222.6391 H   0  0  0  0  0  0  0  0  0  0  0  0
  140.1031   72.9074  222.6269 H   0  0  0  0  0  0  0  0  0  0  0  0
  141.3623   70.9447  221.5398 H   0  0  0  0  0  0  0  0  0  0  0  0
  140.1476   71.7373  220.4713 H   0  0  0  0  0  0  0  0  0  0  0  0
  142.8171   71.2651  219.8398 H   0  0  0  0  0  0  0  0  0  0  0  0
  141.7169   72.4397  219.0213 H   0  0  0  0  0  0  0  0  0  0  0  0
  143.5456   73.0246  221.3834 H   0  0  0  0  0  0  0  0  0  0  0  0
  143.8009   73.5031  219.6416 H   0  0  0  0  0  0  0  0  0  0  0  0
  142.8242   75.1811  221.4066 H   0  0  0  0  0  0  0  0  0  0  0  0
  142.2446   75.1152  219.6974 H   0  0  0  0  0  0  0  0  0  0  0  0
  137.5558   68.9074  222.5272 H   0  0  0  0  0  0  0  0  0  0  0  0
  138.4561   67.5665  224.4087 H   0  0  0  0  0  0  0  0  0  0  0  0
  139.7003   67.4245  226.4241 H   0  0  0  0  0  0  0  0  0  0  0  0
  141.4875   70.9411  228.0647 H   0  0  0  0  0  0  0  0  0  0  0  0
  140.5979   72.2838  226.2058 H   0  0  0  0  0  0  0  0  0  0  0  0
  1  2  2  0
  2  3  1  0
  3  4  1  0
  4  5  1  0
  5  6  2  0
  5  7  1  0
  7  8  1  0
  8  9  1  0
  9 10  1  0
 10 11  1  0
 11 12  1  0
 12 13  1  0
 13 14  1  0
 14 15  1  0
 15 16  1  0
 16 17  1  0
 17 18  1  0
 18 19  1  0
  2 20  1  0
 20 21  2  0
 21 22  1  0
 22 23  2  0
 23 24  1  0
 24 25  2  0
 25 26  1  0
 25 27  1  0
 27 28  2  0
 28 29  1  0
 29 30  2  0
 13  7  1  0
 19 14  1  0
 30 20  1  0
 29 23  1  0
  3 31  1  0
  4 32  1  0
  4 33  1  0
  8 34  1  0
  8 35  1  0
  9 36  1  0
  9 37  1  0
 10 38  1  0
 10 39  1  0
 11 40  1  0
 11 41  1  0
 12 42  1  0
 12 43  1  0
 13 44  1  1
 14 45  1  0
 15 46  1  0
 15 47  1  0
 16 48  1  0
 16 49  1  0
 17 50  1  0
 17 51  1  0
 18 52  1  0
 18 53  1  0
 19 54  1  0
 19 55  1  0
 21 56  1  0
 22 57  1  0
 24 58  1  0
 27 59  1  0
 28 60  1  0
M  END
>  <smiles>  (18) 
O=C(NCC(=O)N1CCCCCC1C1CCCCC1)c1ccc2cc(Cl)ccc2n1

>  <score_type>  (18) 
oracle

>  <origin>  (18) 
autodockgpu

>  <m_score__min__energy>  (18) 
-7.1299999999999999

>  <m_primary>  (18) 
energy

>  <rmsd>  (18) 
2.647858889885375

>  <m_score__min__rmsd>  (18) 
2.647858889885375

>  <meeko>  (18) 
{"free_energy": -5.44, "intermolecular_energy": -8.72, "internal_energy": -2.62, "cluster_size": 10, "cluster_id": 4, "rank_in_cluster": 6}

>  <energy>  (18) 
-5.95

>  <cluster_rmsd>  (18) 
1.67

>  <cluster>  (18) 
2

$$$$

     RDKit          3D

 60 63  0  0  0  0  0  0  0  0999 V2000
  139.7020   74.3610  222.0370 O   0  0  0  0  0  0  0  0  0  0  0  0
  139.7010   73.1170  221.7450 C   0  0  0  0  0  0  0  0  0  0  0  0
  139.6870   72.6820  220.3830 N   0  0  0  0  0  0  0  0  0  0  0  0
  139.6760   73.6960  219.3450 C   0  0  0  0  0  0  0  0  0  0  0  0
  140.7310   73.3760  218.3860 C   0  0  0  0  0  0  0  0  0  0  0  0
  140.6810   72.3910  217.5730 O   0  0  0  0  0  0  0  0  0  0  0  0
  141.8910   74.1990  218.3390 N   0  0  0  0  0  0  0  0  0  0  0  0
  142.3280   74.7190  217.0600 C   0  0  0  0  0  0  0  0  0  0  0  0
  141.8170   76.0690  216.7500 C   0  0  0  0  0  0  0  0  0  0  0  0
  141.9440   77.1140  217.7980 C   0  0  0  0  0  0  0  0  0  0  0  0
  142.9130   76.8860  218.8820 C   0  0  0  0  0  0  0  0  0  0  0  0
  142.5900   75.9120  219.9510 C   0  0  0  0  0  0  0  0  0  0  0  0
  142.5800   74.4740  219.6070 C   0  0  2  0  0  0  0  0  0  0  0  0
  143.9240   73.7850  219.6460 C   0  0  0  0  0  0  0  0  0  0  0  0
  143.7860   72.3370  220.0980 C   0  0  0  0  0  0  0  0  0  0  0  0
  145.0600   71.6410  219.6430 C   0  0  0  0  0  0  0  0  0  0  0  0
  146.2770   72.4530  220.0570 C   0  0  0  0  0  0  0  0  0  0  0  0
  145.8990   73.4940  221.0900 C   0  0  0  0  0  0  0  0  0  0  0  0
  144.8700   74.4550  220.6060 C   0  0  0  0  0  0  0  0  0  0  0  0
  139.7130   72.1240  222.8140 C   0  0  0  0  0  0  0  0  0  0  0  0
  138.8690   71.0360  222.7470 C   0  0  0  0  0  0  0  0  0  0  0  0
  138.8720   70.0880  223.7550 C   0  0  0  0  0  0  0  0  0  0  0  0
  139.7260   70.2300  224.8360 C   0  0  0  0  0  0  0  0  0  0  0  0
  139.7240   69.2810  225.8360 C   0  0  0  0  0  0  0  0  0  0  0  0
  140.5640   69.3930  226.9290 C   0  0  0  0  0  0  0  0  0  0  0  0
  140.5820   68.2070  228.2110 Cl  0  0  0  0  0  0  0  0  0  0  0  0
  141.3930   70.4980  226.9580 C   0  0  0  0  0  0  0  0  0  0  0  0
  141.3990   71.4540  225.9560 C   0  0  0  0  0  0  0  0  0  0  0  0
  140.5580   71.3340  224.8690 C   0  0  0  0  0  0  0  0  0  0  0  0
  140.5300   72.2370  223.8740 N   0  0  0  0  0  0  0  0  0  0  0  0
  139.6870   71.6580  220.1960 H   0  0  0  0  0  0  0  0  0  0  0  0
  138.6999   73.6998  218.8379 H   0  0  0  0  0  0  0  0  0  0  0  0
  139.8476   74.6906  219.7823 H   0  0  0  0  0  0  0  0  0  0  0  0
  143.4273   74.7578  217.0606 H   0  0  0  0  0  0  0  0  0  0  0  0
  141.9263   74.0440  216.2900 H   0  0  0  0  0  0  0  0  0  0  0  0
  142.3565   76.4281  215.8612 H   0  0  0  0  0  0  0  0  0  0  0  0
  140.7328   75.9331  216.6236 H   0  0  0  0  0  0  0  0  0  0  0  0
  142.2289   78.0499  217.2950 H   0  0  0  0  0  0  0  0  0  0  0  0
  140.9651   77.1230  218.2996 H   0  0  0  0  0  0  0  0  0  0  0  0
  143.8475   76.5472  218.4109 H   0  0  0  0  0  0  0  0  0  0  0  0
  142.9449   77.8506  219.4097 H   0  0  0  0  0  0  0  0  0  0  0  0
  143.3304   76.0503  220.7527 H   0  0  0  0  0  0  0  0  0  0  0  0
  141.5463   76.1356  220.2169 H   0  0  0  0  0  0  0  0  0  0  0  0
  141.9999   74.0270  220.4278 H   0  0  0  0  0  0  0  0  0  0  0  0
  144.3205   73.8408  218.6214 H   0  0  0  0  0  0  0  0  0  0  0  0
  143.6900   72.2843  221.1925 H   0  0  0  0  0  0  0  0  0  0  0  0
  142.8896   71.8623  219.6724 H   0  0  0  0  0  0  0  0  0  0  0  0
  145.1142   70.6439  220.1043 H   0  0  0  0  0  0  0  0  0  0  0  0
  145.0465   71.5469  218.5471 H   0  0  0  0  0  0  0  0  0  0  0  0
  147.0332   71.7781  220.4843 H   0  0  0  0  0  0  0  0  0  0  0  0
  146.6797   72.9643  219.1702 H   0  0  0  0  0  0  0  0  0  0  0  0
  145.5051   72.9781  221.9781 H   0  0  0  0  0  0  0  0  0  0  0  0
  146.8061   74.0735  221.3166 H   0  0  0  0  0  0  0  0  0  0  0  0
  144.3006   74.8374  221.4660 H   0  0  0  0  0  0  0  0  0  0  0  0
  145.3758   75.2810  220.0846 H   0  0  0  0  0  0  0  0  0  0  0  0
  138.1905   70.9210  221.8888 H   0  0  0  0  0  0  0  0  0  0  0  0
  138.1963   69.2219  223.6977 H   0  0  0  0  0  0  0  0  0  0  0  0
  139.0429   68.4203  225.7634 H   0  0  0  0  0  0  0  0  0  0  0  0
  142.0757   70.6234  227.8113 H   0  0  0  0  0  0  0  0  0  0  0  0
  142.0794   72.3154  226.0274 H   0  0  0  0  0  0  0  0  0  0  0  0
  1  2  2  0
  2  3  1  0
  3  4  1  0
  4  5  1  0
  5  6  2  0
  5  7  1  0
  7  8  1  0
  8  9  1  0
  9 10  1  0
 10 11  1  0
 11 12  1  0
 12 13  1  0
 13 14  1  0
 14 15  1  0
 15 16  1  0
 16 17  1  0
 17 18  1  0
 18 19  1  0
  2 20  1  0
 20 21  2  0
 21 22  1  0
 22 23  2  0
 23 24  1  0
 24 25  2  0
 25 26  1  0
 25 27  1  0
 27 28  2  0
 28 29  1  0
 29 30  2  0
 13  7  1  0
 19 14  1  0
 30 20  1  0
 29 23  1  0
  3 31  1  0
  4 32  1  0
  4 33  1  0
  8 34  1  0
  8 35  1  0
  9 36  1  0
  9 37  1  0
 10 38  1  0
 10 39  1  0
 11 40  1  0
 11 41  1  0
 12 42  1  0
 12 43  1  0
 13 44  1  1
 14 45  1  0
 15 46  1  0
 15 47  1  0
 16 48  1  0
 16 49  1  0
 17 50  1  0
 17 51  1  0
 18 52  1  0
 18 53  1  0
 19 54  1  0
 19 55  1  0
 21 56  1  0
 22 57  1  0
 24 58  1  0
 27 59  1  0
 28 60  1  0
M  END
>  <smiles>  (19) 
O=C(NCC(=O)N1CCCCCC1C1CCCCC1)c1ccc2cc(Cl)ccc2n1

>  <score_type>  (19) 
oracle

>  <origin>  (19) 
autodockgpu

>  <m_score__min__energy>  (19) 
-7.1299999999999999

>  <m_primary>  (19) 
energy

>  <rmsd>  (19) 
2.651795705431305

>  <m_score__min__rmsd>  (19) 
2.651795705431305

>  <meeko>  (19) 
{"free_energy": -5.48, "intermolecular_energy": -8.76, "internal_energy": -2.05, "cluster_size": 10, "cluster_id": 4, "rank_in_cluster": 4}

>  <energy>  (19) 
-5.8

>  <cluster_rmsd>  (19) 
1.63

>  <cluster>  (19) 
2

$$$$

     RDKit          3D

 60 63  0  0  0  0  0  0  0  0999 V2000
  140.0650   72.2520  220.5580 O   0  0  0  0  0  0  0  0  0  0  0  0
  139.9430   72.6810  221.7550 C   0  0  0  0  0  0  0  0  0  0  0  0
  139.7410   74.0720  222.0200 N   0  0  0  0  0  0  0  0  0  0  0  0
  139.6780   74.9780  220.8870 C   0  0  0  0  0  0  0  0  0  0  0  0
  140.5710   76.1020  221.1550 C   0  0  0  0  0  0  0  0  0  0  0  0
  140.9470   76.4520  222.3260 O   0  0  0  0  0  0  0  0  0  0  0  0
  141.0630   76.8660  220.0600 N   0  0  0  0  0  0  0  0  0  0  0  0
  140.3190   78.0310  219.6290 C   0  0  0  0  0  0  0  0  0  0  0  0
  141.1280   79.2620  219.5310 C   0  0  0  0  0  0  0  0  0  0  0  0
  141.9510   79.4540  218.3090 C   0  0  0  0  0  0  0  0  0  0  0  0
  142.9090   78.3950  217.9520 C   0  0  0  0  0  0  0  0  0  0  0  0
  142.4990   76.9790  218.0730 C   0  0  0  0  0  0  0  0  0  0  0  0
  142.3130   76.4200  219.4290 C   0  0  2  0  0  0  0  0  0  0  0  0
  142.4640   74.9210  219.5420 C   0  0  0  0  0  0  0  0  0  0  0  0
  143.7740   74.5510  220.2240 C   0  0  0  0  0  0  0  0  0  0  0  0
  143.5970   73.1190  220.7060 C   0  0  0  0  0  0  0  0  0  0  0  0
  143.0550   72.2510  219.5820 C   0  0  0  0  0  0  0  0  0  0  0  0
  143.1940   72.9550  218.2480 C   0  0  0  0  0  0  0  0  0  0  0  0
  142.4700   74.2540  218.1920 C   0  0  0  0  0  0  0  0  0  0  0  0
  140.0100   71.7420  222.8700 C   0  0  0  0  0  0  0  0  0  0  0  0
  139.5500   70.4530  222.7070 C   0  0  0  0  0  0  0  0  0  0  0  0
  139.6080   69.5540  223.7570 C   0  0  0  0  0  0  0  0  0  0  0  0
  140.1300   69.9490  224.9780 C   0  0  0  0  0  0  0  0  0  0  0  0
  140.1860   69.0460  226.0190 C   0  0  0  0  0  0  0  0  0  0  0  0
  140.7020   69.4090  227.2510 C   0  0  0  0  0  0  0  0  0  0  0  0
  140.7830   68.2880  228.5880 Cl  0  0  0  0  0  0  0  0  0  0  0  0
  141.1510   70.7090  227.3720 C   0  0  0  0  0  0  0  0  0  0  0  0
  141.0980   71.6180  226.3290 C   0  0  0  0  0  0  0  0  0  0  0  0
  140.5820   71.2490  225.1040 C   0  0  0  0  0  0  0  0  0  0  0  0
  140.5110   72.0980  224.0640 N   0  0  0  0  0  0  0  0  0  0  0  0
  139.6460   74.3730  223.0110 H   0  0  0  0  0  0  0  0  0  0  0  0
  139.9994   74.4559  219.9737 H   0  0  0  0  0  0  0  0  0  0  0  0
  138.6480   75.3357  220.7418 H   0  0  0  0  0  0  0  0  0  0  0  0
  139.8904   77.8198  218.6382 H   0  0  0  0  0  0  0  0  0  0  0  0
  139.5508   78.2170  220.3940 H   0  0  0  0  0  0  0  0  0  0  0  0
  140.4369   80.1151  219.5987 H   0  0  0  0  0  0  0  0  0  0  0  0
  141.8599   79.1785  220.3479 H   0  0  0  0  0  0  0  0  0  0  0  0
  141.2585   79.5688  217.4621 H   0  0  0  0  0  0  0  0  0  0  0  0
  142.5778   80.3299  218.5326 H   0  0  0  0  0  0  0  0  0  0  0  0
  143.1921   78.5588  216.9017 H   0  0  0  0  0  0  0  0  0  0  0  0
  143.7067   78.5009  218.7019 H   0  0  0  0  0  0  0  0  0  0  0  0
  141.5425   76.8696  217.5409 H   0  0  0  0  0  0  0  0  0  0  0  0
  143.3461   76.4131  217.6582 H   0  0  0  0  0  0  0  0  0  0  0  0
  143.1607   76.8413  219.9893 H   0  0  0  0  0  0  0  0  0  0  0  0
  141.6022   74.5758  220.1321 H   0  0  0  0  0  0  0  0  0  0  0  0
  144.6091   74.6152  219.5109 H   0  0  0  0  0  0  0  0  0  0  0  0
  144.0060   75.2334  221.0550 H   0  0  0  0  0  0  0  0  0  0  0  0
  144.5694   72.7232  221.0344 H   0  0  0  0  0  0  0  0  0  0  0  0
  142.8848   73.1075  221.5443 H   0  0  0  0  0  0  0  0  0  0  0  0
  143.6173   71.3061  219.5521 H   0  0  0  0  0  0  0  0  0  0  0  0
  141.9890   72.0546  219.7691 H   0  0  0  0  0  0  0  0  0  0  0  0
  144.2618   73.1416  218.0609 H   0  0  0  0  0  0  0  0  0  0  0  0
  142.7489   72.2997  217.4848 H   0  0  0  0  0  0  0  0  0  0  0  0
  142.9680   74.9135  217.4660 H   0  0  0  0  0  0  0  0  0  0  0  0
  141.4301   74.0654  217.8871 H   0  0  0  0  0  0  0  0  0  0  0  0
  139.1351   70.1378  221.7382 H   0  0  0  0  0  0  0  0  0  0  0  0
  139.2399   68.5262  223.6225 H   0  0  0  0  0  0  0  0  0  0  0  0
  139.8149   68.0216  225.8678 H   0  0  0  0  0  0  0  0  0  0  0  0
  141.5677   71.0358  228.3361 H   0  0  0  0  0  0  0  0  0  0  0  0
  141.4702   72.6423  226.4783 H   0  0  0  0  0  0  0  0  0  0  0  0
  1  2  2  0
  2  3  1  0
  3  4  1  0
  4  5  1  0
  5  6  2  0
  5  7  1  0
  7  8  1  0
  8  9  1  0
  9 10  1  0
 10 11  1  0
 11 12  1  0
 12 13  1  0
 13 14  1  0
 14 15  1  0
 15 16  1  0
 16 17  1  0
 17 18  1  0
 18 19  1  0
  2 20  1  0
 20 21  2  0
 21 22  1  0
 22 23  2  0
 23 24  1  0
 24 25  2  0
 25 26  1  0
 25 27  1  0
 27 28  2  0
 28 29  1  0
 29 30  2  0
 13  7  1  0
 19 14  1  0
 30 20  1  0
 29 23  1  0
  3 31  1  0
  4 32  1  0
  4 33  1  0
  8 34  1  0
  8 35  1  0
  9 36  1  0
  9 37  1  0
 10 38  1  0
 10 39  1  0
 11 40  1  0
 11 41  1  0
 12 42  1  0
 12 43  1  0
 13 44  1  1
 14 45  1  0
 15 46  1  0
 15 47  1  0
 16 48  1  0
 16 49  1  0
 17 50  1  0
 17 51  1  0
 18 52  1  0
 18 53  1  0
 19 54  1  0
 19 55  1  0
 21 56  1  0
 22 57  1  0
 24 58  1  0
 27 59  1  0
 28 60  1  0
M  END
>  <smiles>  (20) 
O=C(NCC(=O)N1CCCCCC1C1CCCCC1)c1ccc2cc(Cl)ccc2n1

>  <score_type>  (20) 
oracle

>  <origin>  (20) 
autodockgpu

>  <m_score__min__energy>  (20) 
-7.1299999999999999

>  <m_primary>  (20) 
energy

>  <rmsd>  (20) 
2.2077496548045468

>  <m_score__min__rmsd>  (20) 
2.2077496548045468

>  <meeko>  (20) 
{"free_energy": -5.31, "intermolecular_energy": -8.59, "internal_energy": -2.48, "cluster_size": 16, "cluster_id": 1, "rank_in_cluster": 15}

>  <energy>  (20) 
-5.52

>  <cluster_rmsd>  (20) 
1.63

>  <cluster>  (20) 
2

$$$$

     RDKit          3D

 60 63  0  0  0  0  0  0  0  0999 V2000
  140.0910   74.0860  222.2610 O   0  0  0  0  0  0  0  0  0  0  0  0
  139.8720   72.8500  222.0180 C   0  0  0  0  0  0  0  0  0  0  0  0
  139.5290   72.4100  220.7010 N   0  0  0  0  0  0  0  0  0  0  0  0
  139.4370   73.4090  219.6520 C   0  0  0  0  0  0  0  0  0  0  0  0
  140.5990   73.2610  218.7800 C   0  0  0  0  0  0  0  0  0  0  0  0
  140.7750   72.2740  217.9860 O   0  0  0  0  0  0  0  0  0  0  0  0
  141.6080   74.2640  218.8010 N   0  0  0  0  0  0  0  0  0  0  0  0
  142.2110   74.6760  217.5500 C   0  0  0  0  0  0  0  0  0  0  0  0
  141.7780   76.0090  217.0830 C   0  0  0  0  0  0  0  0  0  0  0  0
  142.3390   77.2000  217.7720 C   0  0  0  0  0  0  0  0  0  0  0  0
  142.7950   77.0380  219.1620 C   0  0  0  0  0  0  0  0  0  0  0  0
  141.9420   76.3040  220.1240 C   0  0  0  0  0  0  0  0  0  0  0  0
  141.9800   74.8260  220.1070 C   0  0  2  0  0  0  0  0  0  0  0  0
  143.2580   74.2000  220.6140 C   0  0  0  0  0  0  0  0  0  0  0  0
  144.4290   74.5210  219.6940 C   0  0  0  0  0  0  0  0  0  0  0  0
  145.6820   74.2760  220.5220 C   0  0  0  0  0  0  0  0  0  0  0  0
  145.6020   72.9200  221.2040 C   0  0  0  0  0  0  0  0  0  0  0  0
  144.5060   72.0750  220.5880 C   0  0  0  0  0  0  0  0  0  0  0  0
  143.1580   72.6990  220.6870 C   0  0  0  0  0  0  0  0  0  0  0  0
  139.9750   71.8720  223.0960 C   0  0  0  0  0  0  0  0  0  0  0  0
  139.5090   70.5890  222.9020 C   0  0  0  0  0  0  0  0  0  0  0  0
  139.6010   69.6540  223.9160 C   0  0  0  0  0  0  0  0  0  0  0  0
  140.1620   70.0040  225.1330 C   0  0  0  0  0  0  0  0  0  0  0  0
  140.2500   69.0660  226.1390 C   0  0  0  0  0  0  0  0  0  0  0  0
  140.8060   69.3840  227.3660 C   0  0  0  0  0  0  0  0  0  0  0  0
  140.9290   68.2170  228.6590 Cl  0  0  0  0  0  0  0  0  0  0  0  0
  141.2590   70.6800  227.5190 C   0  0  0  0  0  0  0  0  0  0  0  0
  141.1730   71.6260  226.5110 C   0  0  0  0  0  0  0  0  0  0  0  0
  140.6180   71.3000  225.2910 C   0  0  0  0  0  0  0  0  0  0  0  0
  140.5140   72.1850  224.2850 N   0  0  0  0  0  0  0  0  0  0  0  0
  139.3610   71.3940  220.5530 H   0  0  0  0  0  0  0  0  0  0  0  0
  138.5144   73.2570  219.0725 H   0  0  0  0  0  0  0  0  0  0  0  0
  139.4148   74.4184  220.0885 H   0  0  0  0  0  0  0  0  0  0  0  0
  143.3029   74.6939  217.6820 H   0  0  0  0  0  0  0  0  0  0  0  0
  141.8875   73.9519  216.7878 H   0  0  0  0  0  0  0  0  0  0  0  0
  142.0478   76.0877  216.0195 H   0  0  0  0  0  0  0  0  0  0  0  0
  140.7008   76.0433  217.3029 H   0  0  0  0  0  0  0  0  0  0  0  0
  143.2012   77.5444  217.1820 H   0  0  0  0  0  0  0  0  0  0  0  0
  141.4965   77.9042  217.8375 H   0  0  0  0  0  0  0  0  0  0  0  0
  143.7606   76.5126  219.1237 H   0  0  0  0  0  0  0  0  0  0  0  0
  142.8047   78.0657  219.5542 H   0  0  0  0  0  0  0  0  0  0  0  0
  142.2376   76.6260  221.1334 H   0  0  0  0  0  0  0  0  0  0  0  0
  140.9142   76.5532  219.8214 H   0  0  0  0  0  0  0  0  0  0  0  0
  141.2098   74.5506  220.8424 H   0  0  0  0  0  0  0  0  0  0  0  0
  143.4199   74.6187  221.6182 H   0  0  0  0  0  0  0  0  0  0  0  0
  144.4165   73.8623  218.8131 H   0  0  0  0  0  0  0  0  0  0  0  0
  144.3828   75.5558  219.3238 H   0  0  0  0  0  0  0  0  0  0  0  0
  146.5632   74.3007  219.8640 H   0  0  0  0  0  0  0  0  0  0  0  0
  145.7649   75.0599  221.2892 H   0  0  0  0  0  0  0  0  0  0  0  0
  146.5652   72.4011  221.0901 H   0  0  0  0  0  0  0  0  0  0  0  0
  145.3745   73.0727  222.2693 H   0  0  0  0  0  0  0  0  0  0  0  0
  144.7413   71.9182  219.5250 H   0  0  0  0  0  0  0  0  0  0  0  0
  144.4697   71.1286  221.1475 H   0  0  0  0  0  0  0  0  0  0  0  0
  142.5317   72.3383  219.8578 H   0  0  0  0  0  0  0  0  0  0  0  0
  142.7106   72.4215  221.6528 H   0  0  0  0  0  0  0  0  0  0  0  0
  139.0623   70.3083  221.9367 H   0  0  0  0  0  0  0  0  0  0  0  0
  139.2284   68.6314  223.7563 H   0  0  0  0  0  0  0  0  0  0  0  0
  139.8721   68.0479  225.9639 H   0  0  0  0  0  0  0  0  0  0  0  0
  141.7062   70.9726  228.4805 H   0  0  0  0  0  0  0  0  0  0  0  0
  141.5500   72.6447  226.6846 H   0  0  0  0  0  0  0  0  0  0  0  0
  1  2  2  0
  2  3  1  0
  3  4  1  0
  4  5  1  0
  5  6  2  0
  5  7  1  0
  7  8  1  0
  8  9  1  0
  9 10  1  0
 10 11  1  0
 11 12  1  0
 12 13  1  0
 13 14  1  0
 14 15  1  0
 15 16  1  0
 16 17  1  0
 17 18  1  0
 18 19  1  0
  2 20  1  0
 20 21  2  0
 21 22  1  0
 22 23  2  0
 23 24  1  0
 24 25  2  0
 25 26  1  0
 25 27  1  0
 27 28  2  0
 28 29  1  0
 29 30  2  0
 13  7  1  0
 19 14  1  0
 30 20  1  0
 29 23  1  0
  3 31  1  0
  4 32  1  0
  4 33  1  0
  8 34  1  0
  8 35  1  0
  9 36  1  0
  9 37  1  0
 10 38  1  0
 10 39  1  0
 11 40  1  0
 11 41  1  0
 12 42  1  0
 12 43  1  0
 13 44  1  1
 14 45  1  0
 15 46  1  0
 15 47  1  0
 16 48  1  0
 16 49  1  0
 17 50  1  0
 17 51  1  0
 18 52  1  0
 18 53  1  0
 19 54  1  0
 19 55  1  0
 21 56  1  0
 22 57  1  0
 24 58  1  0
 27 59  1  0
 28 60  1  0
M  END
>  <smiles>  (21) 
O=C(NCC(=O)N1CCCCCC1C1CCCCC1)c1ccc2cc(Cl)ccc2n1

>  <score_type>  (21) 
oracle

>  <origin>  (21) 
autodockgpu

>  <m_score__min__energy>  (21) 
-7.1299999999999999

>  <m_primary>  (21) 
energy

>  <rmsd>  (21) 
2.320919939081639

>  <m_score__min__rmsd>  (21) 
2.320919939081639

>  <meeko>  (21) 
{"free_energy": -5.59, "intermolecular_energy": -8.87, "internal_energy": -2.07, "cluster_size": 10, "cluster_id": 4, "rank_in_cluster": 3}

>  <energy>  (21) 
-4.66

>  <cluster_rmsd>  (21) 
1.82

>  <cluster>  (21) 
2

$$$$

     RDKit          3D

 60 63  0  0  0  0  0  0  0  0999 V2000
  138.3940   75.9080  220.3990 O   0  0  0  0  0  0  0  0  0  0  0  0
  139.0880   75.4150  221.3520 C   0  0  0  0  0  0  0  0  0  0  0  0
  138.7980   75.7380  222.7150 N   0  0  0  0  0  0  0  0  0  0  0  0
  137.6930   76.6420  222.9790 C   0  0  0  0  0  0  0  0  0  0  0  0
  138.0520   77.9610  222.4650 C   0  0  0  0  0  0  0  0  0  0  0  0
  137.3630   78.6010  221.5980 O   0  0  0  0  0  0  0  0  0  0  0  0
  139.2340   78.5900  222.9460 N   0  0  0  0  0  0  0  0  0  0  0  0
  139.1110   79.7270  223.8330 C   0  0  0  0  0  0  0  0  0  0  0  0
  139.8580   80.9220  223.3910 C   0  0  0  0  0  0  0  0  0  0  0  0
  141.3140   80.9750  223.6840 C   0  0  0  0  0  0  0  0  0  0  0  0
  142.1490   79.8550  223.2230 C   0  0  0  0  0  0  0  0  0  0  0  0
  141.6500   78.4660  223.3630 C   0  0  0  0  0  0  0  0  0  0  0  0
  140.5230   78.0370  222.5060 C   0  0  2  0  0  0  0  0  0  0  0  0
  140.7160   78.2450  221.0220 C   0  0  0  0  0  0  0  0  0  0  0  0
  142.1380   77.9010  220.6000 C   0  0  0  0  0  0  0  0  0  0  0  0
  142.0790   77.6810  219.0960 C   0  0  0  0  0  0  0  0  0  0  0  0
  141.3460   78.8310  218.4260 C   0  0  0  0  0  0  0  0  0  0  0  0
  141.2160   80.0070  219.3730 C   0  0  0  0  0  0  0  0  0  0  0  0
  140.4750   79.6760  220.6200 C   0  0  0  0  0  0  0  0  0  0  0  0
  140.1910   74.5090  221.0510 C   0  0  0  0  0  0  0  0  0  0  0  0
  140.0040   73.1460  221.1500 C   0  0  0  0  0  0  0  0  0  0  0  0
  141.0420   72.2780  220.8670 C   0  0  0  0  0  0  0  0  0  0  0  0
  142.2750   72.7760  220.4810 C   0  0  0  0  0  0  0  0  0  0  0  0
  143.3050   71.9030  220.1990 C   0  0  0  0  0  0  0  0  0  0  0  0
  144.5490   72.3680  219.8120 C   0  0  0  0  0  0  0  0  0  0  0  0
  145.8720   71.2870  219.4510 Cl  0  0  0  0  0  0  0  0  0  0  0  0
  144.6950   73.7390  219.7250 C   0  0  0  0  0  0  0  0  0  0  0  0
  143.6630   74.6190  220.0070 C   0  0  0  0  0  0  0  0  0  0  0  0
  142.4260   74.1470  220.3920 C   0  0  0  0  0  0  0  0  0  0  0  0
  141.3960   74.9640  220.6750 N   0  0  0  0  0  0  0  0  0  0  0  0
  139.3900   75.3120  223.4560 H   0  0  0  0  0  0  0  0  0  0  0  0
  136.7858   76.2793  222.4736 H   0  0  0  0  0  0  0  0  0  0  0  0
  137.4948   76.6955  224.0597 H   0  0  0  0  0  0  0  0  0  0  0  0
  138.0463   79.9934  223.9071 H   0  0  0  0  0  0  0  0  0  0  0  0
  139.5420   79.4234  224.7984 H   0  0  0  0  0  0  0  0  0  0  0  0
  139.7396   80.9983  222.3001 H   0  0  0  0  0  0  0  0  0  0  0  0
  139.4273   81.7498  223.9734 H   0  0  0  0  0  0  0  0  0  0  0  0
  141.7087   81.8909  223.2198 H   0  0  0  0  0  0  0  0  0  0  0  0
  141.3768   80.9331  224.7814 H   0  0  0  0  0  0  0  0  0  0  0  0
  142.3419   80.0192  222.1526 H   0  0  0  0  0  0  0  0  0  0  0  0
  143.0178   79.8863  223.8969 H   0  0  0  0  0  0  0  0  0  0  0  0
  142.4944   77.7935  223.1517 H   0  0  0  0  0  0  0  0  0  0  0  0
  141.2457   78.4240  224.3851 H   0  0  0  0  0  0  0  0  0  0  0  0
  140.5058   76.9462  222.6466 H   0  0  0  0  0  0  0  0  0  0  0  0
  139.9882   77.5841  220.5285 H   0  0  0  0  0  0  0  0  0  0  0  0
  142.8204   78.7297  220.8400 H   0  0  0  0  0  0  0  0  0  0  0  0
  142.5137   77.0110  221.1262 H   0  0  0  0  0  0  0  0  0  0  0  0
  143.1024   77.6208  218.6971 H   0  0  0  0  0  0  0  0  0  0  0  0
  141.5404   76.7440  218.8911 H   0  0  0  0  0  0  0  0  0  0  0  0
  141.9070   79.1460  217.5338 H   0  0  0  0  0  0  0  0  0  0  0  0
  140.3387   78.4916  218.1430 H   0  0  0  0  0  0  0  0  0  0  0  0
  142.2251   80.3491  219.6463 H   0  0  0  0  0  0  0  0  0  0  0  0
  140.6432   80.7866  218.8495 H   0  0  0  0  0  0  0  0  0  0  0  0
  140.8152   80.3398  221.4285 H   0  0  0  0  0  0  0  0  0  0  0  0
  139.3991   79.8144  220.4378 H   0  0  0  0  0  0  0  0  0  0  0  0
  139.0250   72.7481  221.4553 H   0  0  0  0  0  0  0  0  0  0  0  0
  140.8885   71.1918  220.9485 H   0  0  0  0  0  0  0  0  0  0  0  0
  143.1344   70.8196  220.2832 H   0  0  0  0  0  0  0  0  0  0  0  0
  145.6694   74.1481  219.4197 H   0  0  0  0  0  0  0  0  0  0  0  0
  143.8317   75.7028  219.9231 H   0  0  0  0  0  0  0  0  0  0  0  0
  1  2  2  0
  2  3  1  0
  3  4  1  0
  4  5  1  0
  5  6  2  0
  5  7  1  0
  7  8  1  0
  8  9  1  0
  9 10  1  0
 10 11  1  0
 11 12  1  0
 12 13  1  0
 13 14  1  0
 14 15  1  0
 15 16  1  0
 16 17  1  0
 17 18  1  0
 18 19  1  0
  2 20  1  0
 20 21  2  0
 21 22  1  0
 22 23  2  0
 23 24  1  0
 24 25  2  0
 25 26  1  0
 25 27  1  0
 27 28  2  0
 28 29  1  0
 29 30  2  0
 13  7  1  0
 19 14  1  0
 30 20  1  0
 29 23  1  0
  3 31  1  0
  4 32  1  0
  4 33  1  0
  8 34  1  0
  8 35  1  0
  9 36  1  0
  9 37  1  0
 10 38  1  0
 10 39  1  0
 11 40  1  0
 11 41  1  0
 12 42  1  0
 12 43  1  0
 13 44  1  6
 14 45  1  0
 15 46  1  0
 15 47  1  0
 16 48  1  0
 16 49  1  0
 17 50  1  0
 17 51  1  0
 18 52  1  0
 18 53  1  0
 19 54  1  0
 19 55  1  0
 21 56  1  0
 22 57  1  0
 24 58  1  0
 27 59  1  0
 28 60  1  0
M  END
>  <smiles>  (22) 
O=C(NCC(=O)N1CCCCCC1C1CCCCC1)c1ccc2cc(Cl)ccc2n1

>  <score_type>  (22) 
oracle

>  <origin>  (22) 
autodockgpu

>  <m_score__min__energy>  (22) 
-7.1299999999999999

>  <m_primary>  (22) 
energy

>  <rmsd>  (22) 
6.225792301619299

>  <m_score__min__rmsd>  (22) 
6.225792301619299

>  <meeko>  (22) 
{"free_energy": -4.62, "intermolecular_energy": -7.9, "internal_energy": -2.58, "cluster_size": 1, "cluster_id": 14, "rank_in_cluster": 1}

>  <energy>  (22) 
-6.3

>  <cluster_rmsd>  (22) 
0.0

>  <cluster>  (22) 
3

$$$$

     RDKit          3D

 60 63  0  0  0  0  0  0  0  0999 V2000
  140.2530   72.2460  220.7140 O   0  0  0  0  0  0  0  0  0  0  0  0
  140.0340   72.6530  221.9050 C   0  0  0  0  0  0  0  0  0  0  0  0
  139.7470   74.0290  222.1700 N   0  0  0  0  0  0  0  0  0  0  0  0
  139.7130   74.9450  221.0450 C   0  0  0  0  0  0  0  0  0  0  0  0
  140.0430   76.2800  221.5360 C   0  0  0  0  0  0  0  0  0  0  0  0
  139.5450   76.7950  222.5960 O   0  0  0  0  0  0  0  0  0  0  0  0
  140.9730   77.0720  220.8060 N   0  0  0  0  0  0  0  0  0  0  0  0
  142.1260   76.4280  220.2120 C   0  0  0  0  0  0  0  0  0  0  0  0
  142.0160   76.2200  218.7540 C   0  0  0  0  0  0  0  0  0  0  0  0
  142.1290   77.4120  217.8750 C   0  0  0  0  0  0  0  0  0  0  0  0
  141.9310   78.7370  218.4850 C   0  0  0  0  0  0  0  0  0  0  0  0
  140.7210   78.9940  219.3010 C   0  0  0  0  0  0  0  0  0  0  0  0
  140.7010   78.5120  220.6990 C   0  0  2  0  0  0  0  0  0  0  0  0
  141.5570   79.2920  221.6700 C   0  0  0  0  0  0  0  0  0  0  0  0
  141.0520   79.1320  223.0980 C   0  0  0  0  0  0  0  0  0  0  0  0
  142.2170   79.5280  223.9930 C   0  0  0  0  0  0  0  0  0  0  0  0
  142.7990   80.8560  223.5380 C   0  0  0  0  0  0  0  0  0  0  0  0
  141.8500   81.5590  222.5890 C   0  0  0  0  0  0  0  0  0  0  0  0
  141.5490   80.7670  221.3660 C   0  0  0  0  0  0  0  0  0  0  0  0
  140.0750   71.7040  223.0130 C   0  0  0  0  0  0  0  0  0  0  0  0
  139.6090   70.4190  222.8310 C   0  0  0  0  0  0  0  0  0  0  0  0
  139.6430   69.5110  223.8730 C   0  0  0  0  0  0  0  0  0  0  0  0
  140.1480   69.8910  225.1060 C   0  0  0  0  0  0  0  0  0  0  0  0
  140.1790   68.9800  226.1400 C   0  0  0  0  0  0  0  0  0  0  0  0
  140.6760   69.3270  227.3840 C   0  0  0  0  0  0  0  0  0  0  0  0
  140.7270   68.1950  228.7120 Cl  0  0  0  0  0  0  0  0  0  0  0  0
  141.1330   70.6230  227.5240 C   0  0  0  0  0  0  0  0  0  0  0  0
  141.1030   71.5420  226.4880 C   0  0  0  0  0  0  0  0  0  0  0  0
  140.6060   71.1870  225.2520 C   0  0  0  0  0  0  0  0  0  0  0  0
  140.5590   72.0460  224.2180 N   0  0  0  0  0  0  0  0  0  0  0  0
  139.5750   74.3120  223.1570 H   0  0  0  0  0  0  0  0  0  0  0  0
  140.4485   74.6337  220.2885 H   0  0  0  0  0  0  0  0  0  0  0  0
  138.7143   74.9449  220.5839 H   0  0  0  0  0  0  0  0  0  0  0  0
  143.0094   77.0540  220.4060 H   0  0  0  0  0  0  0  0  0  0  0  0
  142.2032   75.4308  220.6698 H   0  0  0  0  0  0  0  0  0  0  0  0
  142.8121   75.5196  218.4613 H   0  0  0  0  0  0  0  0  0  0  0  0
  140.9880   75.8595  218.6019 H   0  0  0  0  0  0  0  0  0  0  0  0
  143.1372   77.4008  217.4353 H   0  0  0  0  0  0  0  0  0  0  0  0
  141.2982   77.3091  217.1614 H   0  0  0  0  0  0  0  0  0  0  0  0
  142.7994   78.9228  219.1341 H   0  0  0  0  0  0  0  0  0  0  0  0
  141.8028   79.4024  217.6185 H   0  0  0  0  0  0  0  0  0  0  0  0
  140.5738   80.0837  219.3304 H   0  0  0  0  0  0  0  0  0  0  0  0
  139.9303   78.4135  218.8031 H   0  0  0  0  0  0  0  0  0  0  0  0
  139.6629   78.6992  221.0111 H   0  0  0  0  0  0  0  0  0  0  0  0
  142.5749   78.8883  221.5650 H   0  0  0  0  0  0  0  0  0  0  0  0
  140.1899   79.7916  223.2762 H   0  0  0  0  0  0  0  0  0  0  0  0
  140.7177   78.1032  223.2978 H   0  0  0  0  0  0  0  0  0  0  0  0
  141.8629   79.6225  225.0302 H   0  0  0  0  0  0  0  0  0  0  0  0
  142.9964   78.7542  223.9319 H   0  0  0  0  0  0  0  0  0  0  0  0
  142.9705   81.4952  224.4166 H   0  0  0  0  0  0  0  0  0  0  0  0
  143.7472   80.6658  223.0138 H   0  0  0  0  0  0  0  0  0  0  0  0
  140.9065   81.7546  223.1196 H   0  0  0  0  0  0  0  0  0  0  0  0
  142.3420   82.4875  222.2637 H   0  0  0  0  0  0  0  0  0  0  0  0
  140.5565   81.0519  220.9868 H   0  0  0  0  0  0  0  0  0  0  0  0
  142.3212   80.9761  220.6110 H   0  0  0  0  0  0  0  0  0  0  0  0
  139.2085   70.1151  221.8526 H   0  0  0  0  0  0  0  0  0  0  0  0
  139.2693   68.4873  223.7232 H   0  0  0  0  0  0  0  0  0  0  0  0
  139.8023   67.9600  225.9735 H   0  0  0  0  0  0  0  0  0  0  0  0
  141.5370   70.9380  228.4974 H   0  0  0  0  0  0  0  0  0  0  0  0
  141.4785   72.5627  226.6527 H   0  0  0  0  0  0  0  0  0  0  0  0
  1  2  2  0
  2  3  1  0
  3  4  1  0
  4  5  1  0
  5  6  2  0
  5  7  1  0
  7  8  1  0
  8  9  1  0
  9 10  1  0
 10 11  1  0
 11 12  1  0
 12 13  1  0
 13 14  1  0
 14 15  1  0
 15 16  1  0
 16 17  1  0
 17 18  1  0
 18 19  1  0
  2 20  1  0
 20 21  2  0
 21 22  1  0
 22 23  2  0
 23 24  1  0
 24 25  2  0
 25 26  1  0
 25 27  1  0
 27 28  2  0
 28 29  1  0
 29 30  2  0
 13  7  1  0
 19 14  1  0
 30 20  1  0
 29 23  1  0
  3 31  1  0
  4 32  1  0
  4 33  1  0
  8 34  1  0
  8 35  1  0
  9 36  1  0
  9 37  1  0
 10 38  1  0
 10 39  1  0
 11 40  1  0
 11 41  1  0
 12 42  1  0
 12 43  1  0
 13 44  1  1
 14 45  1  0
 15 46  1  0
 15 47  1  0
 16 48  1  0
 16 49  1  0
 17 50  1  0
 17 51  1  0
 18 52  1  0
 18 53  1  0
 19 54  1  0
 19 55  1  0
 21 56  1  0
 22 57  1  0
 24 58  1  0
 27 59  1  0
 28 60  1  0
M  END
>  <smiles>  (23) 
O=C(NCC(=O)N1CCCCCC1C1CCCCC1)c1ccc2cc(Cl)ccc2n1

>  <score_type>  (23) 
oracle

>  <origin>  (23) 
autodockgpu

>  <m_score__min__energy>  (23) 
-7.1299999999999999

>  <m_primary>  (23) 
energy

>  <rmsd>  (23) 
2.1446513563174983

>  <m_score__min__rmsd>  (23) 
2.1446513563174983

>  <meeko>  (23) 
{"free_energy": -6.42, "intermolecular_energy": -9.7, "internal_energy": -1.87, "cluster_size": 16, "cluster_id": 1, "rank_in_cluster": 6}

>  <energy>  (23) 
-5.62

>  <cluster_rmsd>  (23) 
0.49

>  <cluster>  (23) 
3

$$$$

     RDKit          3D

 60 63  0  0  0  0  0  0  0  0999 V2000
  138.1540   79.6800  220.7140 O   0  0  0  0  0  0  0  0  0  0  0  0
  138.1450   79.5420  221.9850 C   0  0  0  0  0  0  0  0  0  0  0  0
  138.5340   78.3070  222.5920 N   0  0  0  0  0  0  0  0  0  0  0  0
  138.9400   77.2190  221.7210 C   0  0  0  0  0  0  0  0  0  0  0  0
  140.3420   76.9170  221.9950 C   0  0  0  0  0  0  0  0  0  0  0  0
  140.8190   75.7320  222.0540 O   0  0  0  0  0  0  0  0  0  0  0  0
  141.2490   77.9920  222.2100 N   0  0  0  0  0  0  0  0  0  0  0  0
  141.5520   78.3910  223.5690 C   0  0  0  0  0  0  0  0  0  0  0  0
  141.3600   79.8310  223.8320 C   0  0  0  0  0  0  0  0  0  0  0  0
  142.2210   80.7900  223.0920 C   0  0  0  0  0  0  0  0  0  0  0  0
  141.8690   81.0950  221.6960 C   0  0  0  0  0  0  0  0  0  0  0  0
  141.3360   80.0180  220.8280 C   0  0  0  0  0  0  0  0  0  0  0  0
  141.8290   78.6380  221.0240 C   0  0  2  0  0  0  0  0  0  0  0  0
  141.7290   77.7320  219.8190 C   0  0  0  0  0  0  0  0  0  0  0  0
  142.9280   76.7960  219.7350 C   0  0  0  0  0  0  0  0  0  0  0  0
  142.4970   75.6580  218.8210 C   0  0  0  0  0  0  0  0  0  0  0  0
  141.8770   76.2130  217.5500 C   0  0  0  0  0  0  0  0  0  0  0  0
  142.1920   77.6870  217.3990 C   0  0  0  0  0  0  0  0  0  0  0  0
  141.6920   78.5130  218.5320 C   0  0  0  0  0  0  0  0  0  0  0  0
  137.7320   80.6570  222.8310 C   0  0  0  0  0  0  0  0  0  0  0  0
  137.5410   81.9040  222.2740 C   0  0  0  0  0  0  0  0  0  0  0  0
  137.1510   82.9680  223.0660 C   0  0  0  0  0  0  0  0  0  0  0  0
  136.9490   82.7840  224.4240 C   0  0  0  0  0  0  0  0  0  0  0  0
  136.5580   83.8500  225.2060 C   0  0  0  0  0  0  0  0  0  0  0  0
  136.3480   83.6990  226.5650 C   0  0  0  0  0  0  0  0  0  0  0  0
  135.8550   85.0310  227.5810 Cl  0  0  0  0  0  0  0  0  0  0  0  0
  136.5500   82.4340  227.0830 C   0  0  0  0  0  0  0  0  0  0  0  0
  136.9420   81.3600  226.3010 C   0  0  0  0  0  0  0  0  0  0  0  0
  137.1490   81.5200  224.9470 C   0  0  0  0  0  0  0  0  0  0  0  0
  137.5300   80.5060  224.1490 N   0  0  0  0  0  0  0  0  0  0  0  0
  138.5100   78.2430  223.6310 H   0  0  0  0  0  0  0  0  0  0  0  0
  138.3216   76.3314  221.9203 H   0  0  0  0  0  0  0  0  0  0  0  0
  138.8112   77.5065  220.6671 H   0  0  0  0  0  0  0  0  0  0  0  0
  140.8978   77.8255  224.2489 H   0  0  0  0  0  0  0  0  0  0  0  0
  142.6191   78.1787  223.7312 H   0  0  0  0  0  0  0  0  0  0  0  0
  140.3148   80.0727  223.5887 H   0  0  0  0  0  0  0  0  0  0  0  0
  141.6431   79.9607  224.8870 H   0  0  0  0  0  0  0  0  0  0  0  0
  142.2076   81.7390  223.6481 H   0  0  0  0  0  0  0  0  0  0  0  0
  143.1987   80.2902  223.0273 H   0  0  0  0  0  0  0  0  0  0  0  0
  141.1092   81.8899  221.7235 H   0  0  0  0  0  0  0  0  0  0  0  0
  142.8350   81.3464  221.2339 H   0  0  0  0  0  0  0  0  0  0  0  0
  140.2457   79.9957  220.9724 H   0  0  0  0  0  0  0  0  0  0  0  0
  141.6892   80.2871  219.8216 H   0  0  0  0  0  0  0  0  0  0  0  0
  142.9067   78.7815  221.1912 H   0  0  0  0  0  0  0  0  0  0  0  0
  140.7953   77.1643  219.9455 H   0  0  0  0  0  0  0  0  0  0  0  0
  143.7961   77.3215  219.3104 H   0  0  0  0  0  0  0  0  0  0  0  0
  143.2276   76.4289  220.7277 H   0  0  0  0  0  0  0  0  0  0  0  0
  143.3748   75.0483  218.5610 H   0  0  0  0  0  0  0  0  0  0  0  0
  141.7523   75.0398  219.3437 H   0  0  0  0  0  0  0  0  0  0  0  0
  142.2796   75.6673  216.6839 H   0  0  0  0  0  0  0  0  0  0  0  0
  140.7855   76.0889  217.6060 H   0  0  0  0  0  0  0  0  0  0  0  0
  143.2836   77.8063  217.3345 H   0  0  0  0  0  0  0  0  0  0  0  0
  141.6833   78.0383  216.4892 H   0  0  0  0  0  0  0  0  0  0  0  0
  142.3252   79.4067  218.6339 H   0  0  0  0  0  0  0  0  0  0  0  0
  140.6514   78.8032  218.3250 H   0  0  0  0  0  0  0  0  0  0  0  0
  137.6995   82.0527  221.1957 H   0  0  0  0  0  0  0  0  0  0  0  0
  137.0010   83.9612  222.6175 H   0  0  0  0  0  0  0  0  0  0  0  0
  136.4106   84.8364  224.7419 H   0  0  0  0  0  0  0  0  0  0  0  0
  136.3932   82.2734  228.1598 H   0  0  0  0  0  0  0  0  0  0  0  0
  137.0892   80.3727  226.7632 H   0  0  0  0  0  0  0  0  0  0  0  0
  1  2  2  0
  2  3  1  0
  3  4  1  0
  4  5  1  0
  5  6  2  0
  5  7  1  0
  7  8  1  0
  8  9  1  0
  9 10  1  0
 10 11  1  0
 11 12  1  0
 12 13  1  0
 13 14  1  0
 14 15  1  0
 15 16  1  0
 16 17  1  0
 17 18  1  0
 18 19  1  0
  2 20  1  0
 20 21  2  0
 21 22  1  0
 22 23  2  0
 23 24  1  0
 24 25  2  0
 25 26  1  0
 25 27  1  0
 27 28  2  0
 28 29  1  0
 29 30  2  0
 13  7  1  0
 19 14  1  0
 30 20  1  0
 29 23  1  0
  3 31  1  0
  4 32  1  0
  4 33  1  0
  8 34  1  0
  8 35  1  0
  9 36  1  0
  9 37  1  0
 10 38  1  0
 10 39  1  0
 11 40  1  0
 11 41  1  0
 12 42  1  0
 12 43  1  0
 13 44  1  1
 14 45  1  0
 15 46  1  0
 15 47  1  0
 16 48  1  0
 16 49  1  0
 17 50  1  0
 17 51  1  0
 18 52  1  0
 18 53  1  0
 19 54  1  0
 19 55  1  0
 21 56  1  0
 22 57  1  0
 24 58  1  0
 27 59  1  0
 28 60  1  0
M  END
>  <smiles>  (24) 
O=C(NCC(=O)N1CCCCCC1C1CCCCC1)c1ccc2cc(Cl)ccc2n1

>  <score_type>  (24) 
oracle

>  <origin>  (24) 
autodockgpu

>  <m_score__min__energy>  (24) 
-7.1299999999999999

>  <m_primary>  (24) 
energy

>  <rmsd>  (24) 
9.472074764413831

>  <m_score__min__rmsd>  (24) 
9.472074764413831

>  <meeko>  (24) 
{"free_energy": -4.42, "intermolecular_energy": -7.71, "internal_energy": -2.83, "cluster_size": 2, "cluster_id": 12, "rank_in_cluster": 2}

>  <energy>  (24) 
-5.14

>  <cluster_rmsd>  (24) 
1.01

>  <cluster>  (24) 
3

$$$$

     RDKit          3D

 60 63  0  0  0  0  0  0  0  0999 V2000
  134.9440   68.3310  224.7230 O   0  0  0  0  0  0  0  0  0  0  0  0
  135.2510   69.5250  224.3870 C   0  0  0  0  0  0  0  0  0  0  0  0
  136.1930   69.7740  223.3410 N   0  0  0  0  0  0  0  0  0  0  0  0
  136.7870   68.6300  222.6730 C   0  0  0  0  0  0  0  0  0  0  0  0
  138.1380   68.4490  223.1970 C   0  0  0  0  0  0  0  0  0  0  0  0
  138.5260   67.4060  223.8270 O   0  0  0  0  0  0  0  0  0  0  0  0
  139.0960   69.4840  223.0060 N   0  0  0  0  0  0  0  0  0  0  0  0
  139.9490   69.4400  221.8370 C   0  0  0  0  0  0  0  0  0  0  0  0
  139.4750   70.2740  220.7130 C   0  0  0  0  0  0  0  0  0  0  0  0
  139.4570   71.7470  220.9040 C   0  0  0  0  0  0  0  0  0  0  0  0
  138.9170   72.2690  222.1700 C   0  0  0  0  0  0  0  0  0  0  0  0
  139.5350   71.8570  223.4500 C   0  0  0  0  0  0  0  0  0  0  0  0
  139.1590   70.5460  224.0200 C   0  0  2  0  0  0  0  0  0  0  0  0
  139.9690   70.0970  225.2140 C   0  0  0  0  0  0  0  0  0  0  0  0
  139.1220   69.2680  226.1710 C   0  0  0  0  0  0  0  0  0  0  0  0
  140.1120   68.4960  227.0320 C   0  0  0  0  0  0  0  0  0  0  0  0
  141.1740   69.4350  227.5770 C   0  0  0  0  0  0  0  0  0  0  0  0
  140.7460   70.8790  227.4180 C   0  0  0  0  0  0  0  0  0  0  0  0
  140.5010   71.2650  226.0010 C   0  0  0  0  0  0  0  0  0  0  0  0
  134.6340   70.6520  225.0780 C   0  0  0  0  0  0  0  0  0  0  0  0
  133.7020   70.4210  226.0680 C   0  0  0  0  0  0  0  0  0  0  0  0
  133.1110   71.4810  226.7300 C   0  0  0  0  0  0  0  0  0  0  0  0
  133.4550   72.7820  226.4000 C   0  0  0  0  0  0  0  0  0  0  0  0
  132.8620   73.8340  227.0650 C   0  0  0  0  0  0  0  0  0  0  0  0
  133.1830   75.1450  226.7600 C   0  0  0  0  0  0  0  0  0  0  0  0
  132.4460   76.4970  227.5840 Cl  0  0  0  0  0  0  0  0  0  0  0  0
  134.1200   75.3330  225.7620 C   0  0  0  0  0  0  0  0  0  0  0  0
  134.7190   74.2790  225.0920 C   0  0  0  0  0  0  0  0  0  0  0  0
  134.3930   72.9760  225.4030 C   0  0  0  0  0  0  0  0  0  0  0  0
  134.9490   71.9230  224.7780 N   0  0  0  0  0  0  0  0  0  0  0  0
  136.4110   70.7640  223.1030 H   0  0  0  0  0  0  0  0  0  0  0  0
  136.1867   67.7297  222.8709 H   0  0  0  0  0  0  0  0  0  0  0  0
  136.8193   68.7980  221.5864 H   0  0  0  0  0  0  0  0  0  0  0  0
  140.9512   69.7885  222.1272 H   0  0  0  0  0  0  0  0  0  0  0  0
  139.9478   68.3988  221.4822 H   0  0  0  0  0  0  0  0  0  0  0  0
  140.1246   70.0627  219.8508 H   0  0  0  0  0  0  0  0  0  0  0  0
  138.4176   69.9974  220.5891 H   0  0  0  0  0  0  0  0  0  0  0  0
  140.4949   72.1014  220.8193 H   0  0  0  0  0  0  0  0  0  0  0  0
  138.7642   72.1174  220.1340 H   0  0  0  0  0  0  0  0  0  0  0  0
  138.9862   73.3657  222.1195 H   0  0  0  0  0  0  0  0  0  0  0  0
  137.9073   71.8353  222.2189 H   0  0  0  0  0  0  0  0  0  0  0  0
  140.6242   71.8451  223.2968 H   0  0  0  0  0  0  0  0  0  0  0  0
  139.1592   72.5884  224.1806 H   0  0  0  0  0  0  0  0  0  0  0  0
  138.1452   70.7261  224.4070 H   0  0  0  0  0  0  0  0  0  0  0  0
  140.8003   69.5020  224.8080 H   0  0  0  0  0  0  0  0  0  0  0  0
  138.4981   69.9229  226.7970 H   0  0  0  0  0  0  0  0  0  0  0  0
  138.4407   68.5939  225.6312 H   0  0  0  0  0  0  0  0  0  0  0  0
  139.5763   68.0270  227.8705 H   0  0  0  0  0  0  0  0  0  0  0  0
  140.5965   67.7229  226.4176 H   0  0  0  0  0  0  0  0  0  0  0  0
  141.3317   69.2208  228.6443 H   0  0  0  0  0  0  0  0  0  0  0  0
  142.1060   69.2789  227.0140 H   0  0  0  0  0  0  0  0  0  0  0  0
  139.8180   71.0335  227.9880 H   0  0  0  0  0  0  0  0  0  0  0  0
  141.5688   71.5069  227.7905 H   0  0  0  0  0  0  0  0  0  0  0  0
  139.7672   72.0839  225.9719 H   0  0  0  0  0  0  0  0  0  0  0  0
  141.4526   71.5880  225.5536 H   0  0  0  0  0  0  0  0  0  0  0  0
  133.4277   69.3890  226.3320 H   0  0  0  0  0  0  0  0  0  0  0  0
  132.3678   71.2916  227.5185 H   0  0  0  0  0  0  0  0  0  0  0  0
  132.1211   73.6277  227.8514 H   0  0  0  0  0  0  0  0  0  0  0  0
  134.4014   76.3607  225.4887 H   0  0  0  0  0  0  0  0  0  0  0  0
  135.4606   74.4832  224.3056 H   0  0  0  0  0  0  0  0  0  0  0  0
  1  2  2  0
  2  3  1  0
  3  4  1  0
  4  5  1  0
  5  6  2  0
  5  7  1  0
  7  8  1  0
  8  9  1  0
  9 10  1  0
 10 11  1  0
 11 12  1  0
 12 13  1  0
 13 14  1  0
 14 15  1  0
 15 16  1  0
 16 17  1  0
 17 18  1  0
 18 19  1  0
  2 20  1  0
 20 21  2  0
 21 22  1  0
 22 23  2  0
 23 24  1  0
 24 25  2  0
 25 26  1  0
 25 27  1  0
 27 28  2  0
 28 29  1  0
 29 30  2  0
 13  7  1  0
 19 14  1  0
 30 20  1  0
 29 23  1  0
  3 31  1  0
  4 32  1  0
  4 33  1  0
  8 34  1  0
  8 35  1  0
  9 36  1  0
  9 37  1  0
 10 38  1  0
 10 39  1  0
 11 40  1  0
 11 41  1  0
 12 42  1  0
 12 43  1  0
 13 44  1  1
 14 45  1  0
 15 46  1  0
 15 47  1  0
 16 48  1  0
 16 49  1  0
 17 50  1  0
 17 51  1  0
 18 52  1  0
 18 53  1  0
 19 54  1  0
 19 55  1  0
 21 56  1  0
 22 57  1  0
 24 58  1  0
 27 59  1  0
 28 60  1  0
M  END
>  <smiles>  (25) 
O=C(NCC(=O)N1CCCCCC1C1CCCCC1)c1ccc2cc(Cl)ccc2n1

>  <score_type>  (25) 
oracle

>  <origin>  (25) 
autodockgpu

>  <m_score__min__energy>  (25) 
-7.1299999999999999

>  <m_primary>  (25) 
energy

>  <rmsd>  (25) 
7.00199032596605

>  <m_score__min__rmsd>  (25) 
7.00199032596605

>  <meeko>  (25) 
{"free_energy": -5.62, "intermolecular_energy": -8.9, "internal_energy": -2.43, "cluster_size": 3, "cluster_id": 3, "rank_in_cluster": 2}

>  <energy>  (25) 
-5.78

>  <cluster_rmsd>  (25) 
0.0

>  <cluster>  (25) 
4

$$$$

     RDKit          3D

 60 63  0  0  0  0  0  0  0  0999 V2000
  134.2060   79.6160  224.7920 O   0  0  0  0  0  0  0  0  0  0  0  0
  134.9210   79.3050  223.7790 C   0  0  0  0  0  0  0  0  0  0  0  0
  134.3440   78.6500  222.6470 N   0  0  0  0  0  0  0  0  0  0  0  0
  132.9250   78.3500  222.6840 C   0  0  0  0  0  0  0  0  0  0  0  0
  132.7660   76.8980  222.6760 C   0  0  0  0  0  0  0  0  0  0  0  0
  131.6360   76.3040  222.6000 O   0  0  0  0  0  0  0  0  0  0  0  0
  133.9260   76.0780  222.7570 N   0  0  0  0  0  0  0  0  0  0  0  0
  134.3960   75.4110  221.5610 C   0  0  0  0  0  0  0  0  0  0  0  0
  135.6330   75.9880  220.9950 C   0  0  0  0  0  0  0  0  0  0  0  0
  136.9120   75.7020  221.6940 C   0  0  0  0  0  0  0  0  0  0  0  0
  136.9520   75.8790  223.1550 C   0  0  0  0  0  0  0  0  0  0  0  0
  135.8900   75.2730  223.9890 C   0  0  0  0  0  0  0  0  0  0  0  0
  134.5820   75.9590  224.0660 C   0  0  2  0  0  0  0  0  0  0  0  0
  133.6210   75.4180  225.0990 C   0  0  0  0  0  0  0  0  0  0  0  0
  133.9310   75.9750  226.4830 C   0  0  0  0  0  0  0  0  0  0  0  0
  132.6670   75.7650  227.3020 C   0  0  0  0  0  0  0  0  0  0  0  0
  132.1760   74.3350  227.1530 C   0  0  0  0  0  0  0  0  0  0  0  0
  133.2550   73.4600  226.5500 C   0  0  0  0  0  0  0  0  0  0  0  0
  133.6990   73.9180  225.2050 C   0  0  0  0  0  0  0  0  0  0  0  0
  136.3450   79.6220  223.7750 C   0  0  0  0  0  0  0  0  0  0  0  0
  136.8070   80.7050  224.4940 C   0  0  0  0  0  0  0  0  0  0  0  0
  138.1550   81.0150  224.4970 C   0  0  0  0  0  0  0  0  0  0  0  0
  139.0460   80.2360  223.7770 C   0  0  0  0  0  0  0  0  0  0  0  0
  140.3880   80.5510  223.7870 C   0  0  0  0  0  0  0  0  0  0  0  0
  141.3050   79.7940  223.0780 C   0  0  0  0  0  0  0  0  0  0  0  0
  143.0100   80.1710  223.0700 Cl  0  0  0  0  0  0  0  0  0  0  0  0
  140.8010   78.7200  222.3720 C   0  0  0  0  0  0  0  0  0  0  0  0
  139.4530   78.3990  222.3600 C   0  0  0  0  0  0  0  0  0  0  0  0
  138.5470   79.1590  223.0690 C   0  0  0  0  0  0  0  0  0  0  0  0
  137.2300   78.8850  223.0860 N   0  0  0  0  0  0  0  0  0  0  0  0
  134.9670   78.4170  221.8460 H   0  0  0  0  0  0  0  0  0  0  0  0
  132.4795   78.7685  223.5985 H   0  0  0  0  0  0  0  0  0  0  0  0
  132.4198   78.7927  221.8129 H   0  0  0  0  0  0  0  0  0  0  0  0
  134.5878   74.3560  221.8065 H   0  0  0  0  0  0  0  0  0  0  0  0
  133.6114   75.5342  220.8000 H   0  0  0  0  0  0  0  0  0  0  0  0
  135.7299   75.6116  219.9659 H   0  0  0  0  0  0  0  0  0  0  0  0
  135.5012   77.0758  221.0912 H   0  0  0  0  0  0  0  0  0  0  0  0
  137.1735   74.6545  221.4834 H   0  0  0  0  0  0  0  0  0  0  0  0
  137.6137   76.4547  221.3052 H   0  0  0  0  0  0  0  0  0  0  0  0
  137.9091   75.4626  223.5023 H   0  0  0  0  0  0  0  0  0  0  0  0
  136.8027   76.9605  223.2898 H   0  0  0  0  0  0  0  0  0  0  0  0
  135.7050   74.2621  223.5968 H   0  0  0  0  0  0  0  0  0  0  0  0
  136.2857   75.3270  225.0139 H   0  0  0  0  0  0  0  0  0  0  0  0
  134.8512   76.9656  224.4186 H   0  0  0  0  0  0  0  0  0  0  0  0
  132.6182   75.7247  224.7670 H   0  0  0  0  0  0  0  0  0  0  0  0
  134.7753   75.4333  226.9345 H   0  0  0  0  0  0  0  0  0  0  0  0
  134.2157   77.0366  226.4396 H   0  0  0  0  0  0  0  0  0  0  0  0
  132.8831   75.9663  228.3616 H   0  0  0  0  0  0  0  0  0  0  0  0
  131.8872   76.4514  226.9404 H   0  0  0  0  0  0  0  0  0  0  0  0
  131.9033   73.9416  228.1434 H   0  0  0  0  0  0  0  0  0  0  0  0
  131.3011   74.3286  226.4863 H   0  0  0  0  0  0  0  0  0  0  0  0
  134.1240   73.4621  227.2244 H   0  0  0  0  0  0  0  0  0  0  0  0
  132.8287   72.4534  226.4278 H   0  0  0  0  0  0  0  0  0  0  0  0
  134.7385   73.5982  225.0400 H   0  0  0  0  0  0  0  0  0  0  0  0
  133.0376   73.4757  224.4455 H   0  0  0  0  0  0  0  0  0  0  0  0
  136.1009   81.3241  225.0669 H   0  0  0  0  0  0  0  0  0  0  0  0
  138.5194   81.8798  225.0709 H   0  0  0  0  0  0  0  0  0  0  0  0
  140.7359   81.4180  224.3678 H   0  0  0  0  0  0  0  0  0  0  0  0
  141.4977   78.0937  221.7956 H   0  0  0  0  0  0  0  0  0  0  0  0
  139.1033   77.5317  221.7807 H   0  0  0  0  0  0  0  0  0  0  0  0
  1  2  2  0
  2  3  1  0
  3  4  1  0
  4  5  1  0
  5  6  2  0
  5  7  1  0
  7  8  1  0
  8  9  1  0
  9 10  1  0
 10 11  1  0
 11 12  1  0
 12 13  1  0
 13 14  1  0
 14 15  1  0
 15 16  1  0
 16 17  1  0
 17 18  1  0
 18 19  1  0
  2 20  1  0
 20 21  2  0
 21 22  1  0
 22 23  2  0
 23 24  1  0
 24 25  2  0
 25 26  1  0
 25 27  1  0
 27 28  2  0
 28 29  1  0
 29 30  2  0
 13  7  1  0
 19 14  1  0
 30 20  1  0
 29 23  1  0
  3 31  1  0
  4 32  1  0
  4 33  1  0
  8 34  1  0
  8 35  1  0
  9 36  1  0
  9 37  1  0
 10 38  1  0
 10 39  1  0
 11 40  1  0
 11 41  1  0
 12 42  1  0
 12 43  1  0
 13 44  1  1
 14 45  1  0
 15 46  1  0
 15 47  1  0
 16 48  1  0
 16 49  1  0
 17 50  1  0
 17 51  1  0
 18 52  1  0
 18 53  1  0
 19 54  1  0
 19 55  1  0
 21 56  1  0
 22 57  1  0
 24 58  1  0
 27 59  1  0
 28 60  1  0
M  END
>  <smiles>  (26) 
O=C(NCC(=O)N1CCCCCC1C1CCCCC1)c1ccc2cc(Cl)ccc2n1

>  <score_type>  (26) 
oracle

>  <origin>  (26) 
autodockgpu

>  <m_score__min__energy>  (26) 
-7.1299999999999999

>  <m_primary>  (26) 
energy

>  <rmsd>  (26) 
9.140635696150685

>  <m_score__min__rmsd>  (26) 
9.140635696150685

>  <meeko>  (26) 
{"free_energy": -3.65, "intermolecular_energy": -6.93, "internal_energy": -2.93, "cluster_size": 1, "cluster_id": 17, "rank_in_cluster": 1}

>  <energy>  (26) 
-5.61

>  <cluster_rmsd>  (26) 
1.66

>  <cluster>  (26) 
4

$$$$

     RDKit          3D

 60 63  0  0  0  0  0  0  0  0999 V2000
  140.0460   72.5450  220.7840 O   0  0  0  0  0  0  0  0  0  0  0  0
  139.8600   72.9090  221.9950 C   0  0  0  0  0  0  0  0  0  0  0  0
  139.5610   74.2700  222.3140 N   0  0  0  0  0  0  0  0  0  0  0  0
  139.4740   75.2220  221.2220 C   0  0  0  0  0  0  0  0  0  0  0  0
  140.6030   76.1430  221.3310 C   0  0  0  0  0  0  0  0  0  0  0  0
  141.3390   76.2500  222.3710 O   0  0  0  0  0  0  0  0  0  0  0  0
  140.9190   76.9790  220.2240 N   0  0  0  0  0  0  0  0  0  0  0  0
  141.3990   76.3690  219.0010 C   0  0  0  0  0  0  0  0  0  0  0  0
  142.7700   76.7680  218.6260 C   0  0  0  0  0  0  0  0  0  0  0  0
  142.9520   78.0910  217.9740 C   0  0  0  0  0  0  0  0  0  0  0  0
  142.3510   79.2660  218.6240 C   0  0  0  0  0  0  0  0  0  0  0  0
  140.9680   79.1820  219.1430 C   0  0  0  0  0  0  0  0  0  0  0  0
  140.7350   78.4270  220.3930 C   0  0  2  0  0  0  0  0  0  0  0  0
  141.4880   78.9230  221.6050 C   0  0  0  0  0  0  0  0  0  0  0  0
  140.5790   78.9940  222.8250 C   0  0  0  0  0  0  0  0  0  0  0  0
  141.5090   79.0250  224.0290 C   0  0  0  0  0  0  0  0  0  0  0  0
  142.5910   80.0720  223.8280 C   0  0  0  0  0  0  0  0  0  0  0  0
  142.2270   81.0070  222.6930 C   0  0  0  0  0  0  0  0  0  0  0  0
  142.0420   80.3070  221.3920 C   0  0  0  0  0  0  0  0  0  0  0  0
  139.9540   71.9250  223.0680 C   0  0  0  0  0  0  0  0  0  0  0  0
  139.5240   70.6330  222.8510 C   0  0  0  0  0  0  0  0  0  0  0  0
  139.6080   69.6920  223.8610 C   0  0  0  0  0  0  0  0  0  0  0  0
  140.1260   70.0460  225.0960 C   0  0  0  0  0  0  0  0  0  0  0  0
  140.2070   69.1020  226.0970 C   0  0  0  0  0  0  0  0  0  0  0  0
  140.7190   69.4230  227.3420 C   0  0  0  0  0  0  0  0  0  0  0  0
  140.8320   68.2490  228.6300 Cl  0  0  0  0  0  0  0  0  0  0  0  0
  141.1380   70.7280  227.5180 C   0  0  0  0  0  0  0  0  0  0  0  0
  141.0580   71.6800  226.5150 C   0  0  0  0  0  0  0  0  0  0  0  0
  140.5470   71.3510  225.2770 C   0  0  0  0  0  0  0  0  0  0  0  0
  140.4510   72.2410  224.2740 N   0  0  0  0  0  0  0  0  0  0  0  0
  139.4170   74.5180  223.3150 H   0  0  0  0  0  0  0  0  0  0  0  0
  139.5180   74.6906  220.2599 H   0  0  0  0  0  0  0  0  0  0  0  0
  138.5247   75.7753  221.2739 H   0  0  0  0  0  0  0  0  0  0  0  0
  141.3800   75.2767  219.1293 H   0  0  0  0  0  0  0  0  0  0  0  0
  140.7363   76.7136  218.1935 H   0  0  0  0  0  0  0  0  0  0  0  0
  143.3745   76.7690  219.5450 H   0  0  0  0  0  0  0  0  0  0  0  0
  143.0718   76.0378  217.8607 H   0  0  0  0  0  0  0  0  0  0  0  0
  144.0341   78.2744  217.9011 H   0  0  0  0  0  0  0  0  0  0  0  0
  142.4191   78.0025  217.0158 H   0  0  0  0  0  0  0  0  0  0  0  0
  142.9972   79.5266  219.4752 H   0  0  0  0  0  0  0  0  0  0  0  0
  142.2780   80.0029  217.8106 H   0  0  0  0  0  0  0  0  0  0  0  0
  140.6210   80.2116  219.3145 H   0  0  0  0  0  0  0  0  0  0  0  0
  140.4231   78.6128  218.3754 H   0  0  0  0  0  0  0  0  0  0  0  0
  139.6746   78.6259  220.6074 H   0  0  0  0  0  0  0  0  0  0  0  0
  142.3065   78.2059  221.7656 H   0  0  0  0  0  0  0  0  0  0  0  0
  139.9633   79.9049  222.7922 H   0  0  0  0  0  0  0  0  0  0  0  0
  139.8880   78.1392  222.8672 H   0  0  0  0  0  0  0  0  0  0  0  0
  140.9285   79.2706  224.9305 H   0  0  0  0  0  0  0  0  0  0  0  0
  141.9809   78.0381  224.1441 H   0  0  0  0  0  0  0  0  0  0  0  0
  142.7056   80.6552  224.7536 H   0  0  0  0  0  0  0  0  0  0  0  0
  143.5337   79.5630  223.5785 H   0  0  0  0  0  0  0  0  0  0  0  0
  141.2887   81.5202  222.9502 H   0  0  0  0  0  0  0  0  0  0  0  0
  143.0630   81.7111  222.5690 H   0  0  0  0  0  0  0  0  0  0  0  0
  141.3430   80.8835  220.7682 H   0  0  0  0  0  0  0  0  0  0  0  0
  143.0192   80.2235  220.8938 H   0  0  0  0  0  0  0  0  0  0  0  0
  139.1126   70.3497  221.8709 H   0  0  0  0  0  0  0  0  0  0  0  0
  139.2635   68.6625  223.6836 H   0  0  0  0  0  0  0  0  0  0  0  0
  139.8590   68.0767  225.9031 H   0  0  0  0  0  0  0  0  0  0  0  0
  141.5517   71.0226  228.4938 H   0  0  0  0  0  0  0  0  0  0  0  0
  141.4046   72.7061  226.7074 H   0  0  0  0  0  0  0  0  0  0  0  0
  1  2  2  0
  2  3  1  0
  3  4  1  0
  4  5  1  0
  5  6  2  0
  5  7  1  0
  7  8  1  0
  8  9  1  0
  9 10  1  0
 10 11  1  0
 11 12  1  0
 12 13  1  0
 13 14  1  0
 14 15  1  0
 15 16  1  0
 16 17  1  0
 17 18  1  0
 18 19  1  0
  2 20  1  0
 20 21  2  0
 21 22  1  0
 22 23  2  0
 23 24  1  0
 24 25  2  0
 25 26  1  0
 25 27  1  0
 27 28  2  0
 28 29  1  0
 29 30  2  0
 13  7  1  0
 19 14  1  0
 30 20  1  0
 29 23  1  0
  3 31  1  0
  4 32  1  0
  4 33  1  0
  8 34  1  0
  8 35  1  0
  9 36  1  0
  9 37  1  0
 10 38  1  0
 10 39  1  0
 11 40  1  0
 11 41  1  0
 12 42  1  0
 12 43  1  0
 13 44  1  1
 14 45  1  0
 15 46  1  0
 15 47  1  0
 16 48  1  0
 16 49  1  0
 17 50  1  0
 17 51  1  0
 18 52  1  0
 18 53  1  0
 19 54  1  0
 19 55  1  0
 21 56  1  0
 22 57  1  0
 24 58  1  0
 27 59  1  0
 28 60  1  0
M  END
>  <smiles>  (27) 
O=C(NCC(=O)N1CCCCCC1C1CCCCC1)c1ccc2cc(Cl)ccc2n1

>  <score_type>  (27) 
oracle

>  <origin>  (27) 
autodockgpu

>  <m_score__min__energy>  (27) 
-7.1299999999999999

>  <m_primary>  (27) 
energy

>  <rmsd>  (27) 
2.0048678538836846

>  <m_score__min__rmsd>  (27) 
2.0048678538836846

>  <meeko>  (27) 
{"free_energy": -7.13, "intermolecular_energy": -10.41, "internal_energy": -1.62, "cluster_size": 16, "cluster_id": 1, "rank_in_cluster": 1}

>  <energy>  (27) 
-5.59

>  <cluster_rmsd>  (27) 
1.6

>  <cluster>  (27) 
4

$$$$

     RDKit          3D

 60 63  0  0  0  0  0  0  0  0999 V2000
  133.9290   69.9500  226.2570 O   0  0  0  0  0  0  0  0  0  0  0  0
  134.3000   71.1220  225.9070 C   0  0  0  0  0  0  0  0  0  0  0  0
  135.4000   71.3080  225.0130 N   0  0  0  0  0  0  0  0  0  0  0  0
  136.0790   70.1260  224.5140 C   0  0  0  0  0  0  0  0  0  0  0  0
  137.2050   70.5610  223.6920 C   0  0  0  0  0  0  0  0  0  0  0  0
  137.6230   71.7680  223.6350 O   0  0  0  0  0  0  0  0  0  0  0  0
  137.8920   69.5990  222.9000 N   0  0  0  0  0  0  0  0  0  0  0  0
  137.4900   69.4120  221.5210 C   0  0  0  0  0  0  0  0  0  0  0  0
  138.4930   68.7170  220.6900 C   0  0  0  0  0  0  0  0  0  0  0  0
  138.6330   67.2470  220.8600 C   0  0  0  0  0  0  0  0  0  0  0  0
  139.2120   66.7520  222.1190 C   0  0  0  0  0  0  0  0  0  0  0  0
  138.8210   67.3830  223.4000 C   0  0  0  0  0  0  0  0  0  0  0  0
  138.9800   68.8460  223.5400 C   0  0  2  0  0  0  0  0  0  0  0  0
  139.2200   69.3440  224.9460 C   0  0  0  0  0  0  0  0  0  0  0  0
  140.4700   70.2130  225.0140 C   0  0  0  0  0  0  0  0  0  0  0  0
  140.3390   71.0200  226.2970 C   0  0  0  0  0  0  0  0  0  0  0  0
  139.9870   70.1050  227.4580 C   0  0  0  0  0  0  0  0  0  0  0  0
  140.2240   68.6560  227.0880 C   0  0  0  0  0  0  0  0  0  0  0  0
  139.4230   68.2110  225.9160 C   0  0  0  0  0  0  0  0  0  0  0  0
  133.5940   72.2890  226.4270 C   0  0  0  0  0  0  0  0  0  0  0  0
  132.4240   72.1200  227.1360 C   0  0  0  0  0  0  0  0  0  0  0  0
  131.7460   73.2190  227.6330 C   0  0  0  0  0  0  0  0  0  0  0  0
  132.2430   74.4940  227.4190 C   0  0  0  0  0  0  0  0  0  0  0  0
  131.5620   75.5840  227.9180 C   0  0  0  0  0  0  0  0  0  0  0  0
  132.0310   76.8710  227.7210 C   0  0  0  0  0  0  0  0  0  0  0  0
  131.1890   78.2700  228.3400 Cl  0  0  0  0  0  0  0  0  0  0  0  0
  133.2060   76.9950  227.0050 C   0  0  0  0  0  0  0  0  0  0  0  0
  133.8930   75.9030  226.5020 C   0  0  0  0  0  0  0  0  0  0  0  0
  133.4190   74.6240  226.7030 C   0  0  0  0  0  0  0  0  0  0  0  0
  134.0530   73.5350  226.2330 N   0  0  0  0  0  0  0  0  0  0  0  0
  135.6640   72.2810  224.7570 H   0  0  0  0  0  0  0  0  0  0  0  0
  136.4448   69.5224  225.3577 H   0  0  0  0  0  0  0  0  0  0  0  0
  135.3871   69.5129  223.9178 H   0  0  0  0  0  0  0  0  0  0  0  0
  136.5620   68.8215  221.5087 H   0  0  0  0  0  0  0  0  0  0  0  0
  137.3606   70.4155  221.0893 H   0  0  0  0  0  0  0  0  0  0  0  0
  138.2329   68.9026  219.6374 H   0  0  0  0  0  0  0  0  0  0  0  0
  139.4590   69.1279  221.0188 H   0  0  0  0  0  0  0  0  0  0  0  0
  137.6282   66.8092  220.7670 H   0  0  0  0  0  0  0  0  0  0  0  0
  139.3560   66.9473  220.0870 H   0  0  0  0  0  0  0  0  0  0  0  0
  138.9498   65.6864  222.1943 H   0  0  0  0  0  0  0  0  0  0  0  0
  140.2801   66.9978  222.0259 H   0  0  0  0  0  0  0  0  0  0  0  0
  137.7576   67.1542  223.5641 H   0  0  0  0  0  0  0  0  0  0  0  0
  139.5242   66.9629  224.1342 H   0  0  0  0  0  0  0  0  0  0  0  0
  139.9150   69.0465  222.9964 H   0  0  0  0  0  0  0  0  0  0  0  0
  138.3235   69.9205  225.2180 H   0  0  0  0  0  0  0  0  0  0  0  0
  141.3727   69.5852  225.0460 H   0  0  0  0  0  0  0  0  0  0  0  0
  140.5614   70.8637  224.1318 H   0  0  0  0  0  0  0  0  0  0  0  0
  141.2935   71.5244  226.5082 H   0  0  0  0  0  0  0  0  0  0  0  0
  139.5401   71.7657  226.1723 H   0  0  0  0  0  0  0  0  0  0  0  0
  140.6135   70.3636  228.3244 H   0  0  0  0  0  0  0  0  0  0  0  0
  138.9230   70.2380  227.7032 H   0  0  0  0  0  0  0  0  0  0  0  0
  141.2905   68.5255  226.8523 H   0  0  0  0  0  0  0  0  0  0  0  0
  139.9125   68.0444  227.9476 H   0  0  0  0  0  0  0  0  0  0  0  0
  139.9522   67.3915  225.4077 H   0  0  0  0  0  0  0  0  0  0  0  0
  138.4392   67.8698  226.2704 H   0  0  0  0  0  0  0  0  0  0  0  0
  132.0281   71.1081  227.3072 H   0  0  0  0  0  0  0  0  0  0  0  0
  130.8124   73.0801  228.1980 H   0  0  0  0  0  0  0  0  0  0  0  0
  130.6305   75.4281  228.4820 H   0  0  0  0  0  0  0  0  0  0  0  0
  133.6121   78.0017  226.8273 H   0  0  0  0  0  0  0  0  0  0  0  0
  134.8244   76.0572  225.9375 H   0  0  0  0  0  0  0  0  0  0  0  0
  1  2  2  0
  2  3  1  0
  3  4  1  0
  4  5  1  0
  5  6  2  0
  5  7  1  0
  7  8  1  0
  8  9  1  0
  9 10  1  0
 10 11  1  0
 11 12  1  0
 12 13  1  0
 13 14  1  0
 14 15  1  0
 15 16  1  0
 16 17  1  0
 17 18  1  0
 18 19  1  0
  2 20  1  0
 20 21  2  0
 21 22  1  0
 22 23  2  0
 23 24  1  0
 24 25  2  0
 25 26  1  0
 25 27  1  0
 27 28  2  0
 28 29  1  0
 29 30  2  0
 13  7  1  0
 19 14  1  0
 30 20  1  0
 29 23  1  0
  3 31  1  0
  4 32  1  0
  4 33  1  0
  8 34  1  0
  8 35  1  0
  9 36  1  0
  9 37  1  0
 10 38  1  0
 10 39  1  0
 11 40  1  0
 11 41  1  0
 12 42  1  0
 12 43  1  0
 13 44  1  6
 14 45  1  0
 15 46  1  0
 15 47  1  0
 16 48  1  0
 16 49  1  0
 17 50  1  0
 17 51  1  0
 18 52  1  0
 18 53  1  0
 19 54  1  0
 19 55  1  0
 21 56  1  0
 22 57  1  0
 24 58  1  0
 27 59  1  0
 28 60  1  0
M  END
>  <smiles>  (28) 
O=C(NCC(=O)N1CCCCCC1C1CCCCC1)c1ccc2cc(Cl)ccc2n1

>  <score_type>  (28) 
oracle

>  <origin>  (28) 
autodockgpu

>  <m_score__min__energy>  (28) 
-7.1299999999999999

>  <m_primary>  (28) 
energy

>  <rmsd>  (28) 
8.40099707225637

>  <m_score__min__rmsd>  (28) 
8.40099707225637

>  <meeko>  (28) 
{"free_energy": -5.59, "intermolecular_energy": -8.87, "internal_energy": -2.35, "cluster_size": 1, "cluster_id": 6, "rank_in_cluster": 1}

>  <energy>  (28) 
-5.48

>  <cluster_rmsd>  (28) 
1.76

>  <cluster>  (28) 
4

$$$$

     RDKit          3D

 60 63  0  0  0  0  0  0  0  0999 V2000
  137.5730   70.9010  220.6140 O   0  0  0  0  0  0  0  0  0  0  0  0
  138.0190   71.5940  221.5910 C   0  0  0  0  0  0  0  0  0  0  0  0
  138.0920   73.0200  221.5080 N   0  0  0  0  0  0  0  0  0  0  0  0
  137.6430   73.6530  220.2810 C   0  0  0  0  0  0  0  0  0  0  0  0
  138.5400   74.7690  219.9910 C   0  0  0  0  0  0  0  0  0  0  0  0
  139.0160   75.0190  218.8310 O   0  0  0  0  0  0  0  0  0  0  0  0
  138.9180   75.6410  221.0490 N   0  0  0  0  0  0  0  0  0  0  0  0
  137.9600   76.6140  221.5320 C   0  0  0  0  0  0  0  0  0  0  0  0
  138.2950   77.1890  222.8500 C   0  0  0  0  0  0  0  0  0  0  0  0
  139.3820   78.2010  222.9070 C   0  0  0  0  0  0  0  0  0  0  0  0
  140.7600   77.7420  222.6730 C   0  0  0  0  0  0  0  0  0  0  0  0
  141.0290   76.7710  221.5910 C   0  0  0  0  0  0  0  0  0  0  0  0
  140.2760   75.4980  221.5940 C   0  0  2  0  0  0  0  0  0  0  0  0
  140.9830   74.3200  220.9650 C   0  0  0  0  0  0  0  0  0  0  0  0
  141.0940   73.1590  221.9450 C   0  0  0  0  0  0  0  0  0  0  0  0
  141.3590   71.9270  221.0930 C   0  0  0  0  0  0  0  0  0  0  0  0
  142.4850   72.2010  220.1110 C   0  0  0  0  0  0  0  0  0  0  0  0
  143.2420   73.4540  220.5010 C   0  0  0  0  0  0  0  0  0  0  0  0
  142.3850   74.6690  220.5400 C   0  0  0  0  0  0  0  0  0  0  0  0
  138.4600   70.9250  222.8100 C   0  0  0  0  0  0  0  0  0  0  0  0
  138.0120   69.6520  223.0930 C   0  0  0  0  0  0  0  0  0  0  0  0
  138.4240   69.0080  224.2450 C   0  0  0  0  0  0  0  0  0  0  0  0
  139.2900   69.6420  225.1210 C   0  0  0  0  0  0  0  0  0  0  0  0
  139.6960   68.9920  226.2670 C   0  0  0  0  0  0  0  0  0  0  0  0
  140.5610   69.5980  227.1630 C   0  0  0  0  0  0  0  0  0  0  0  0
  141.0910   68.8010  228.6230 Cl  0  0  0  0  0  0  0  0  0  0  0  0
  140.9850   70.8730  226.8430 C   0  0  0  0  0  0  0  0  0  0  0  0
  140.5800   71.5290  225.6920 C   0  0  0  0  0  0  0  0  0  0  0  0
  139.7180   70.9180  224.8050 C   0  0  0  0  0  0  0  0  0  0  0  0
  139.2990   71.5160  223.6760 N   0  0  0  0  0  0  0  0  0  0  0  0
  138.4620   73.5410  222.3290 H   0  0  0  0  0  0  0  0  0  0  0  0
  137.6718   72.9272  219.4549 H   0  0  0  0  0  0  0  0  0  0  0  0
  136.6102   74.0140  220.3945 H   0  0  0  0  0  0  0  0  0  0  0  0
  137.9035   77.4346  220.8017 H   0  0  0  0  0  0  0  0  0  0  0  0
  137.0035   76.0841  221.6517 H   0  0  0  0  0  0  0  0  0  0  0  0
  137.3836   77.6636  223.2424 H   0  0  0  0  0  0  0  0  0  0  0  0
  138.6761   76.3390  223.4350 H   0  0  0  0  0  0  0  0  0  0  0  0
  139.1580   78.9661  222.1490 H   0  0  0  0  0  0  0  0  0  0  0  0
  139.3801   78.5509  223.9499 H   0  0  0  0  0  0  0  0  0  0  0  0
  141.3632   78.6364  222.4578 H   0  0  0  0  0  0  0  0  0  0  0  0
  141.0059   77.1840  223.5885 H   0  0  0  0  0  0  0  0  0  0  0  0
  140.8130   77.2760  220.6379 H   0  0  0  0  0  0  0  0  0  0  0  0
  142.0755   76.4702  221.7474 H   0  0  0  0  0  0  0  0  0  0  0  0
  140.2036   75.2560  222.6646 H   0  0  0  0  0  0  0  0  0  0  0  0
  140.3793   74.0393  220.0893 H   0  0  0  0  0  0  0  0  0  0  0  0
  141.9248   73.3267  222.6462 H   0  0  0  0  0  0  0  0  0  0  0  0
  140.1810   73.0474  222.5483 H   0  0  0  0  0  0  0  0  0  0  0  0
  141.6420   71.0879  221.7455 H   0  0  0  0  0  0  0  0  0  0  0  0
  140.4468   71.6753  220.5322 H   0  0  0  0  0  0  0  0  0  0  0  0
  143.1778   71.3466  220.1083 H   0  0  0  0  0  0  0  0  0  0  0  0
  142.0537   72.3455  219.1094 H   0  0  0  0  0  0  0  0  0  0  0  0
  143.6785   73.3021  221.4992 H   0  0  0  0  0  0  0  0  0  0  0  0
  144.0123   73.6222  219.7339 H   0  0  0  0  0  0  0  0  0  0  0  0
  142.8105   75.3879  221.2556 H   0  0  0  0  0  0  0  0  0  0  0  0
  142.3493   75.1082  219.5321 H   0  0  0  0  0  0  0  0  0  0  0  0
  137.3239   69.1467  222.3993 H   0  0  0  0  0  0  0  0  0  0  0  0
  138.0642   67.9923  224.4660 H   0  0  0  0  0  0  0  0  0  0  0  0
  139.3272   67.9763  226.4730 H   0  0  0  0  0  0  0  0  0  0  0  0
  141.6722   71.3885  227.5300 H   0  0  0  0  0  0  0  0  0  0  0  0
  140.9484   72.5444  225.4838 H   0  0  0  0  0  0  0  0  0  0  0  0
  1  2  2  0
  2  3  1  0
  3  4  1  0
  4  5  1  0
  5  6  2  0
  5  7  1  0
  7  8  1  0
  8  9  1  0
  9 10  1  0
 10 11  1  0
 11 12  1  0
 12 13  1  0
 13 14  1  0
 14 15  1  0
 15 16  1  0
 16 17  1  0
 17 18  1  0
 18 19  1  0
  2 20  1  0
 20 21  2  0
 21 22  1  0
 22 23  2  0
 23 24  1  0
 24 25  2  0
 25 26  1  0
 25 27  1  0
 27 28  2  0
 28 29  1  0
 29 30  2  0
 13  7  1  0
 19 14  1  0
 30 20  1  0
 29 23  1  0
  3 31  1  0
  4 32  1  0
  4 33  1  0
  8 34  1  0
  8 35  1  0
  9 36  1  0
  9 37  1  0
 10 38  1  0
 10 39  1  0
 11 40  1  0
 11 41  1  0
 12 42  1  0
 12 43  1  0
 13 44  1  1
 14 45  1  0
 15 46  1  0
 15 47  1  0
 16 48  1  0
 16 49  1  0
 17 50  1  0
 17 51  1  0
 18 52  1  0
 18 53  1  0
 19 54  1  0
 19 55  1  0
 21 56  1  0
 22 57  1  0
 24 58  1  0
 27 59  1  0
 28 60  1  0
M  END
>  <smiles>  (29) 
O=C(NCC(=O)N1CCCCCC1C1CCCCC1)c1ccc2cc(Cl)ccc2n1

>  <score_type>  (29) 
oracle

>  <origin>  (29) 
autodockgpu

>  <m_score__min__energy>  (29) 
-7.1299999999999999

>  <m_primary>  (29) 
energy

>  <rmsd>  (29) 
2.722516788511826

>  <m_score__min__rmsd>  (29) 
2.722516788511826

>  <meeko>  (29) 
{"free_energy": -4.53, "intermolecular_energy": -7.81, "internal_energy": -2.69, "cluster_size": 10, "cluster_id": 4, "rank_in_cluster": 10}

>  <energy>  (29) 
-5.48

>  <cluster_rmsd>  (29) 
1.88

>  <cluster>  (29) 
4

$$$$

     RDKit          3D

 60 63  0  0  0  0  0  0  0  0999 V2000
  134.9420   68.2180  224.9940 O   0  0  0  0  0  0  0  0  0  0  0  0
  135.3230   69.4090  224.7280 C   0  0  0  0  0  0  0  0  0  0  0  0
  136.4020   69.6480  223.8200 N   0  0  0  0  0  0  0  0  0  0  0  0
  137.0470   68.4990  223.2120 C   0  0  0  0  0  0  0  0  0  0  0  0
  138.4450   68.4850  223.6350 C   0  0  0  0  0  0  0  0  0  0  0  0
  138.9780   67.5370  224.3080 O   0  0  0  0  0  0  0  0  0  0  0  0
  139.2810   69.5830  223.2890 N   0  0  0  0  0  0  0  0  0  0  0  0
  139.8590   69.6320  221.9620 C   0  0  0  0  0  0  0  0  0  0  0  0
  139.2570   70.6500  221.0780 C   0  0  0  0  0  0  0  0  0  0  0  0
  139.6170   72.0720  221.3160 C   0  0  0  0  0  0  0  0  0  0  0  0
  139.5590   72.5740  222.6980 C   0  0  0  0  0  0  0  0  0  0  0  0
  140.2070   71.8020  223.7810 C   0  0  0  0  0  0  0  0  0  0  0  0
  139.5060   70.6130  224.3120 C   0  0  2  0  0  0  0  0  0  0  0  0
  140.1070   70.0060  225.5590 C   0  0  0  0  0  0  0  0  0  0  0  0
  139.0230   69.4730  226.4870 C   0  0  0  0  0  0  0  0  0  0  0  0
  139.7230   68.4940  227.4170 C   0  0  0  0  0  0  0  0  0  0  0  0
  140.9760   69.1280  227.9980 C   0  0  0  0  0  0  0  0  0  0  0  0
  140.9660   70.6270  227.7830 C   0  0  0  0  0  0  0  0  0  0  0  0
  140.9010   71.0130  226.3470 C   0  0  0  0  0  0  0  0  0  0  0  0
  134.6520   70.5410  225.3560 C   0  0  0  0  0  0  0  0  0  0  0  0
  133.6950   70.3180  226.3240 C   0  0  0  0  0  0  0  0  0  0  0  0
  133.0510   71.3830  226.9260 C   0  0  0  0  0  0  0  0  0  0  0  0
  133.3680   72.6810  226.5590 C   0  0  0  0  0  0  0  0  0  0  0  0
  132.7230   73.7370  227.1660 C   0  0  0  0  0  0  0  0  0  0  0  0
  133.0160   75.0460  226.8230 C   0  0  0  0  0  0  0  0  0  0  0  0
  132.2140   76.4040  227.5720 Cl  0  0  0  0  0  0  0  0  0  0  0  0
  133.9800   75.2260  225.8500 C   0  0  0  0  0  0  0  0  0  0  0  0
  134.6310   74.1670  225.2380 C   0  0  0  0  0  0  0  0  0  0  0  0
  134.3330   72.8660  225.5870 C   0  0  0  0  0  0  0  0  0  0  0  0
  134.9400   71.8080  225.0200 N   0  0  0  0  0  0  0  0  0  0  0  0
  136.6770   70.6350  223.6350 H   0  0  0  0  0  0  0  0  0  0  0  0
  136.5490   67.5749  223.5408 H   0  0  0  0  0  0  0  0  0  0  0  0
  136.9818   68.5620  222.1157 H   0  0  0  0  0  0  0  0  0  0  0  0
  140.9323   69.8519  222.0609 H   0  0  0  0  0  0  0  0  0  0  0  0
  139.6660   68.6543  221.4963 H   0  0  0  0  0  0  0  0  0  0  0  0
  139.5512   70.4049  220.0468 H   0  0  0  0  0  0  0  0  0  0  0  0
  138.1785   70.5976  221.2880 H   0  0  0  0  0  0  0  0  0  0  0  0
  140.6478   72.2133  220.9589 H   0  0  0  0  0  0  0  0  0  0  0  0
  138.8456   72.6455  220.7812 H   0  0  0  0  0  0  0  0  0  0  0  0
  140.0215   73.5721  222.6956 H   0  0  0  0  0  0  0  0  0  0  0  0
  138.4890   72.5211  222.9475 H   0  0  0  0  0  0  0  0  0  0  0  0
  141.1815   71.4623  223.4004 H   0  0  0  0  0  0  0  0  0  0  0  0
  140.2378   72.5002  224.6304 H   0  0  0  0  0  0  0  0  0  0  0  0
  138.5321   71.0179  224.6243 H   0  0  0  0  0  0  0  0  0  0  0  0
  140.7626   69.1937  225.2122 H   0  0  0  0  0  0  0  0  0  0  0  0
  138.5732   70.2949  227.0633 H   0  0  0  0  0  0  0  0  0  0  0  0
  138.2096   68.9896  225.9260 H   0  0  0  0  0  0  0  0  0  0  0  0
  139.0414   68.2195  228.2356 H   0  0  0  0  0  0  0  0  0  0  0  0
  140.0055   67.5965  226.8472 H   0  0  0  0  0  0  0  0  0  0  0  0
  141.0199   68.9182  229.0769 H   0  0  0  0  0  0  0  0  0  0  0  0
  141.8550   68.7037  227.4908 H   0  0  0  0  0  0  0  0  0  0  0  0
  140.0902   71.0482  228.2982 H   0  0  0  0  0  0  0  0  0  0  0  0
  141.9110   71.0212  228.1850 H   0  0  0  0  0  0  0  0  0  0  0  0
  140.4210   71.9989  226.2598 H   0  0  0  0  0  0  0  0  0  0  0  0
  141.9241   71.0487  225.9445 H   0  0  0  0  0  0  0  0  0  0  0  0
  133.4432   69.2884  226.6182 H   0  0  0  0  0  0  0  0  0  0  0  0
  132.2871   71.2000  227.6961 H   0  0  0  0  0  0  0  0  0  0  0  0
  131.9630   73.5365  227.9356 H   0  0  0  0  0  0  0  0  0  0  0  0
  134.2413   76.2513  225.5490 H   0  0  0  0  0  0  0  0  0  0  0  0
  135.3912   74.3651  224.4680 H   0  0  0  0  0  0  0  0  0  0  0  0
  1  2  2  0
  2  3  1  0
  3  4  1  0
  4  5  1  0
  5  6  2  0
  5  7  1  0
  7  8  1  0
  8  9  1  0
  9 10  1  0
 10 11  1  0
 11 12  1  0
 12 13  1  0
 13 14  1  0
 14 15  1  0
 15 16  1  0
 16 17  1  0
 17 18  1  0
 18 19  1  0
  2 20  1  0
 20 21  2  0
 21 22  1  0
 22 23  2  0
 23 24  1  0
 24 25  2  0
 25 26  1  0
 25 27  1  0
 27 28  2  0
 28 29  1  0
 29 30  2  0
 13  7  1  0
 19 14  1  0
 30 20  1  0
 29 23  1  0
  3 31  1  0
  4 32  1  0
  4 33  1  0
  8 34  1  0
  8 35  1  0
  9 36  1  0
  9 37  1  0
 10 38  1  0
 10 39  1  0
 11 40  1  0
 11 41  1  0
 12 42  1  0
 12 43  1  0
 13 44  1  1
 14 45  1  0
 15 46  1  0
 15 47  1  0
 16 48  1  0
 16 49  1  0
 17 50  1  0
 17 51  1  0
 18 52  1  0
 18 53  1  0
 19 54  1  0
 19 55  1  0
 21 56  1  0
 22 57  1  0
 24 58  1  0
 27 59  1  0
 28 60  1  0
M  END
>  <smiles>  (30) 
O=C(NCC(=O)N1CCCCCC1C1CCCCC1)c1ccc2cc(Cl)ccc2n1

>  <score_type>  (30) 
oracle

>  <origin>  (30) 
autodockgpu

>  <m_score__min__energy>  (30) 
-7.1299999999999999

>  <m_primary>  (30) 
energy

>  <rmsd>  (30) 
7.06168891451695

>  <m_score__min__rmsd>  (30) 
7.06168891451695

>  <meeko>  (30) 
{"free_energy": -6.3, "intermolecular_energy": -9.58, "internal_energy": -2.23, "cluster_size": 3, "cluster_id": 3, "rank_in_cluster": 1}

>  <energy>  (30) 
-5.44

>  <cluster_rmsd>  (30) 
1.86

>  <cluster>  (30) 
4

$$$$

     RDKit          3D

 60 63  0  0  0  0  0  0  0  0999 V2000
  138.0410   71.2620  220.8110 O   0  0  0  0  0  0  0  0  0  0  0  0
  138.5510   71.8180  221.8420 C   0  0  0  0  0  0  0  0  0  0  0  0
  138.7280   73.2360  221.9000 N   0  0  0  0  0  0  0  0  0  0  0  0
  138.3100   74.0210  220.7520 C   0  0  0  0  0  0  0  0  0  0  0  0
  139.4140   74.0530  219.7960 C   0  0  0  0  0  0  0  0  0  0  0  0
  139.2760   73.8600  218.5400 O   0  0  0  0  0  0  0  0  0  0  0  0
  140.7300   74.3120  220.2720 N   0  0  0  0  0  0  0  0  0  0  0  0
  141.3720   73.3320  221.1220 C   0  0  0  0  0  0  0  0  0  0  0  0
  142.5160   72.6430  220.4910 C   0  0  0  0  0  0  0  0  0  0  0  0
  143.8090   73.3700  220.4210 C   0  0  0  0  0  0  0  0  0  0  0  0
  143.7710   74.8160  220.1470 C   0  0  0  0  0  0  0  0  0  0  0  0
  142.7070   75.3770  219.2820 C   0  0  0  0  0  0  0  0  0  0  0  0
  141.3620   75.5750  219.8640 C   0  0  2  0  0  0  0  0  0  0  0  0
  141.2750   76.5990  220.9720 C   0  0  0  0  0  0  0  0  0  0  0  0
  139.8310   77.0130  221.2250 C   0  0  0  0  0  0  0  0  0  0  0  0
  139.8180   77.6320  222.6140 C   0  0  0  0  0  0  0  0  0  0  0  0
  140.9340   78.6550  222.7410 C   0  0  0  0  0  0  0  0  0  0  0  0
  141.4850   79.0200  221.3780 C   0  0  0  0  0  0  0  0  0  0  0  0
  142.0370   77.8530  220.6380 C   0  0  0  0  0  0  0  0  0  0  0  0
  138.9600   70.9990  222.9780 C   0  0  0  0  0  0  0  0  0  0  0  0
  138.6690   69.6510  222.9900 C   0  0  0  0  0  0  0  0  0  0  0  0
  139.0510   68.8650  224.0610 C   0  0  0  0  0  0  0  0  0  0  0  0
  139.7290   69.4310  225.1280 C   0  0  0  0  0  0  0  0  0  0  0  0
  140.1080   68.6400  226.1920 C   0  0  0  0  0  0  0  0  0  0  0  0
  140.7860   69.1740  227.2740 C   0  0  0  0  0  0  0  0  0  0  0  0
  141.2760   68.1970  228.6360 Cl  0  0  0  0  0  0  0  0  0  0  0  0
  141.0570   70.5280  227.2230 C   0  0  0  0  0  0  0  0  0  0  0  0
  140.6790   71.3260  226.1560 C   0  0  0  0  0  0  0  0  0  0  0  0
  140.0040   70.7850  225.0820 C   0  0  0  0  0  0  0  0  0  0  0  0
  139.6180   71.5220  224.0250 N   0  0  0  0  0  0  0  0  0  0  0  0
  139.1480   73.6430  222.7610 H   0  0  0  0  0  0  0  0  0  0  0  0
  137.4271   73.5589  220.2862 H   0  0  0  0  0  0  0  0  0  0  0  0
  138.0478   75.0425  221.0647 H   0  0  0  0  0  0  0  0  0  0  0  0
  141.7329   73.8430  222.0268 H   0  0  0  0  0  0  0  0  0  0  0  0
  140.6190   72.5607  221.3413 H   0  0  0  0  0  0  0  0  0  0  0  0
  142.6915   71.7148  221.0547 H   0  0  0  0  0  0  0  0  0  0  0  0
  142.2152   72.5110  219.4412 H   0  0  0  0  0  0  0  0  0  0  0  0
  144.3150   73.2328  221.3880 H   0  0  0  0  0  0  0  0  0  0  0  0
  144.3227   72.9371  219.5500 H   0  0  0  0  0  0  0  0  0  0  0  0
  143.6890   75.3219  221.1203 H   0  0  0  0  0  0  0  0  0  0  0  0
  144.6881   74.9878  219.5645 H   0  0  0  0  0  0  0  0  0  0  0  0
  143.0572   76.3585  218.9300 H   0  0  0  0  0  0  0  0  0  0  0  0
  142.5570   74.6123  218.5057 H   0  0  0  0  0  0  0  0  0  0  0  0
  140.7899   76.0026  219.0274 H   0  0  0  0  0  0  0  0  0  0  0  0
  141.7077   76.1173  221.8612 H   0  0  0  0  0  0  0  0  0  0  0  0
  139.5056   77.7483  220.4743 H   0  0  0  0  0  0  0  0  0  0  0  0
  139.1448   76.1561  221.1559 H   0  0  0  0  0  0  0  0  0  0  0  0
  138.8501   78.1268  222.7826 H   0  0  0  0  0  0  0  0  0  0  0  0
  139.9692   76.8400  223.3622 H   0  0  0  0  0  0  0  0  0  0  0  0
  140.5400   79.5606  223.2253 H   0  0  0  0  0  0  0  0  0  0  0  0
  141.7444   78.2205  223.3447 H   0  0  0  0  0  0  0  0  0  0  0  0
  140.6744   79.4618  220.7799 H   0  0  0  0  0  0  0  0  0  0  0  0
  142.3123   79.7270  221.5381 H   0  0  0  0  0  0  0  0  0  0  0  0
  141.9623   78.0433  219.5572 H   0  0  0  0  0  0  0  0  0  0  0  0
  143.0883   77.7151  220.9309 H   0  0  0  0  0  0  0  0  0  0  0  0
  138.1306   69.1994  222.1437 H   0  0  0  0  0  0  0  0  0  0  0  0
  138.8166   67.7903  224.0659 H   0  0  0  0  0  0  0  0  0  0  0  0
  139.8675   67.5667  226.1806 H   0  0  0  0  0  0  0  0  0  0  0  0
  141.5946   70.9907  228.0637 H   0  0  0  0  0  0  0  0  0  0  0  0
  140.9190   72.3995  226.1653 H   0  0  0  0  0  0  0  0  0  0  0  0
  1  2  2  0
  2  3  1  0
  3  4  1  0
  4  5  1  0
  5  6  2  0
  5  7  1  0
  7  8  1  0
  8  9  1  0
  9 10  1  0
 10 11  1  0
 11 12  1  0
 12 13  1  0
 13 14  1  0
 14 15  1  0
 15 16  1  0
 16 17  1  0
 17 18  1  0
 18 19  1  0
  2 20  1  0
 20 21  2  0
 21 22  1  0
 22 23  2  0
 23 24  1  0
 24 25  2  0
 25 26  1  0
 25 27  1  0
 27 28  2  0
 28 29  1  0
 29 30  2  0
 13  7  1  0
 19 14  1  0
 30 20  1  0
 29 23  1  0
  3 31  1  0
  4 32  1  0
  4 33  1  0
  8 34  1  0
  8 35  1  0
  9 36  1  0
  9 37  1  0
 10 38  1  0
 10 39  1  0
 11 40  1  0
 11 41  1  0
 12 42  1  0
 12 43  1  0
 13 44  1  6
 14 45  1  0
 15 46  1  0
 15 47  1  0
 16 48  1  0
 16 49  1  0
 17 50  1  0
 17 51  1  0
 18 52  1  0
 18 53  1  0
 19 54  1  0
 19 55  1  0
 21 56  1  0
 22 57  1  0
 24 58  1  0
 27 59  1  0
 28 60  1  0
M  END
>  <smiles>  (31) 
O=C(NCC(=O)N1CCCCCC1C1CCCCC1)c1ccc2cc(Cl)ccc2n1

>  <score_type>  (31) 
oracle

>  <origin>  (31) 
autodockgpu

>  <m_score__min__energy>  (31) 
-7.1299999999999999

>  <m_primary>  (31) 
energy

>  <rmsd>  (31) 
2.3352464634728975

>  <m_score__min__rmsd>  (31) 
2.3352464634728975

>  <meeko>  (31) 
{"free_energy": -4.96, "intermolecular_energy": -8.24, "internal_energy": -2.12, "cluster_size": 10, "cluster_id": 4, "rank_in_cluster": 8}

>  <energy>  (31) 
-5.24

>  <cluster_rmsd>  (31) 
1.93

>  <cluster>  (31) 
4

$$$$

     RDKit          3D

 60 63  0  0  0  0  0  0  0  0999 V2000
  139.7690   74.1040  222.0270 O   0  0  0  0  0  0  0  0  0  0  0  0
  139.6150   72.8590  221.7810 C   0  0  0  0  0  0  0  0  0  0  0  0
  139.3030   72.4050  220.4620 N   0  0  0  0  0  0  0  0  0  0  0  0
  139.1680   73.4000  219.4130 C   0  0  0  0  0  0  0  0  0  0  0  0
  140.3460   73.3170  218.5540 C   0  0  0  0  0  0  0  0  0  0  0  0
  140.4610   72.4990  217.5770 O   0  0  0  0  0  0  0  0  0  0  0  0
  141.4420   74.1900  218.8010 N   0  0  0  0  0  0  0  0  0  0  0  0
  141.7870   75.1810  217.8020 C   0  0  0  0  0  0  0  0  0  0  0  0
  141.1710   76.5040  218.0270 C   0  0  0  0  0  0  0  0  0  0  0  0
  141.4060   77.1620  219.3380 C   0  0  0  0  0  0  0  0  0  0  0  0
  141.2470   76.3480  220.5540 C   0  0  0  0  0  0  0  0  0  0  0  0
  142.2310   75.2860  220.8500 C   0  0  0  0  0  0  0  0  0  0  0  0
  142.1630   74.0310  220.0710 C   0  0  2  0  0  0  0  0  0  0  0  0
  143.4830   73.3280  219.8520 C   0  0  0  0  0  0  0  0  0  0  0  0
  143.4560   71.9180  220.4290 C   0  0  0  0  0  0  0  0  0  0  0  0
  144.5950   71.1740  219.7470 C   0  0  0  0  0  0  0  0  0  0  0  0
  145.8710   71.9960  219.8120 C   0  0  0  0  0  0  0  0  0  0  0  0
  145.7370   73.1140  220.8250 C   0  0  0  0  0  0  0  0  0  0  0  0
  144.6220   74.0520  220.5190 C   0  0  0  0  0  0  0  0  0  0  0  0
  139.7590   71.8860  222.8580 C   0  0  0  0  0  0  0  0  0  0  0  0
  139.3700   70.5780  222.6560 C   0  0  0  0  0  0  0  0  0  0  0  0
  139.5020   69.6470  223.6690 C   0  0  0  0  0  0  0  0  0  0  0  0
  140.0260   70.0260  224.8940 C   0  0  0  0  0  0  0  0  0  0  0  0
  140.1550   69.0920  225.8990 C   0  0  0  0  0  0  0  0  0  0  0  0
  140.6750   69.4380  227.1340 C   0  0  0  0  0  0  0  0  0  0  0  0
  140.8480   68.2760  228.4270 Cl  0  0  0  0  0  0  0  0  0  0  0  0
  141.0510   70.7570  227.2960 C   0  0  0  0  0  0  0  0  0  0  0  0
  140.9240   71.6990  226.2890 C   0  0  0  0  0  0  0  0  0  0  0  0
  140.4050   71.3450  225.0610 C   0  0  0  0  0  0  0  0  0  0  0  0
  140.2640   72.2260  224.0550 N   0  0  0  0  0  0  0  0  0  0  0  0
  139.1870   71.3820  220.3100 H   0  0  0  0  0  0  0  0  0  0  0  0
  138.2616   73.1991  218.8231 H   0  0  0  0  0  0  0  0  0  0  0  0
  139.0857   74.4059  219.8505 H   0  0  0  0  0  0  0  0  0  0  0  0
  142.8800   75.3046  217.8011 H   0  0  0  0  0  0  0  0  0  0  0  0
  141.4004   74.8105  216.8411 H   0  0  0  0  0  0  0  0  0  0  0  0
  141.5515   77.1802  217.2473 H   0  0  0  0  0  0  0  0  0  0  0  0
  140.0879   76.3138  218.0020 H   0  0  0  0  0  0  0  0  0  0  0  0
  142.4371   77.5451  219.3324 H   0  0  0  0  0  0  0  0  0  0  0  0
  140.6162   77.9242  219.4103 H   0  0  0  0  0  0  0  0  0  0  0  0
  141.2578   77.0417  221.4076 H   0  0  0  0  0  0  0  0  0  0  0  0
  140.3136   75.7942  220.3751 H   0  0  0  0  0  0  0  0  0  0  0  0
  143.2312   75.7149  220.6900 H   0  0  0  0  0  0  0  0  0  0  0  0
  141.9979   74.9792  221.8803 H   0  0  0  0  0  0  0  0  0  0  0  0
  141.5821   73.3642  220.7252 H   0  0  0  0  0  0  0  0  0  0  0  0
  143.6345   73.3047  218.7627 H   0  0  0  0  0  0  0  0  0  0  0  0
  143.6129   71.9456  221.5174 H   0  0  0  0  0  0  0  0  0  0  0  0
  142.4875   71.4261  220.2557 H   0  0  0  0  0  0  0  0  0  0  0  0
  144.7563   70.2117  220.2550 H   0  0  0  0  0  0  0  0  0  0  0  0
  144.3316   71.0023  218.6929 H   0  0  0  0  0  0  0  0  0  0  0  0
  146.7067   71.3429  220.1036 H   0  0  0  0  0  0  0  0  0  0  0  0
  146.0584   72.4368  218.8217 H   0  0  0  0  0  0  0  0  0  0  0  0
  145.5580   72.6692  221.8150 H   0  0  0  0  0  0  0  0  0  0  0  0
  146.6705   73.6952  220.7959 H   0  0  0  0  0  0  0  0  0  0  0  0
  144.2632   74.5037  221.4556 H   0  0  0  0  0  0  0  0  0  0  0  0
  144.9932   74.8306  219.8364 H   0  0  0  0  0  0  0  0  0  0  0  0
  138.9529   70.2746  221.6844 H   0  0  0  0  0  0  0  0  0  0  0  0
  139.1910   68.6051  223.5024 H   0  0  0  0  0  0  0  0  0  0  0  0
  139.8394   68.0542  225.7166 H   0  0  0  0  0  0  0  0  0  0  0  0
  141.4681   71.0719  228.2639 H   0  0  0  0  0  0  0  0  0  0  0  0
  141.2393   72.7372  226.4697 H   0  0  0  0  0  0  0  0  0  0  0  0
  1  2  2  0
  2  3  1  0
  3  4  1  0
  4  5  1  0
  5  6  2  0
  5  7  1  0
  7  8  1  0
  8  9  1  0
  9 10  1  0
 10 11  1  0
 11 12  1  0
 12 13  1  0
 13 14  1  0
 14 15  1  0
 15 16  1  0
 16 17  1  0
 17 18  1  0
 18 19  1  0
  2 20  1  0
 20 21  2  0
 21 22  1  0
 22 23  2  0
 23 24  1  0
 24 25  2  0
 25 26  1  0
 25 27  1  0
 27 28  2  0
 28 29  1  0
 29 30  2  0
 13  7  1  0
 19 14  1  0
 30 20  1  0
 29 23  1  0
  3 31  1  0
  4 32  1  0
  4 33  1  0
  8 34  1  0
  8 35  1  0
  9 36  1  0
  9 37  1  0
 10 38  1  0
 10 39  1  0
 11 40  1  0
 11 41  1  0
 12 42  1  0
 12 43  1  0
 13 44  1  1
 14 45  1  0
 15 46  1  0
 15 47  1  0
 16 48  1  0
 16 49  1  0
 17 50  1  0
 17 51  1  0
 18 52  1  0
 18 53  1  0
 19 54  1  0
 19 55  1  0
 21 56  1  0
 22 57  1  0
 24 58  1  0
 27 59  1  0
 28 60  1  0
M  END
>  <smiles>  (32) 
O=C(NCC(=O)N1CCCCCC1C1CCCCC1)c1ccc2cc(Cl)ccc2n1

>  <score_type>  (32) 
oracle

>  <origin>  (32) 
autodockgpu

>  <m_score__min__energy>  (32) 
-7.1299999999999999

>  <m_primary>  (32) 
energy

>  <rmsd>  (32) 
2.5524783867672314

>  <m_score__min__rmsd>  (32) 
2.5524783867672314

>  <meeko>  (32) 
{"free_energy": -5.61, "intermolecular_energy": -8.89, "internal_energy": -2.23, "cluster_size": 10, "cluster_id": 4, "rank_in_cluster": 2}

>  <energy>  (32) 
-4.96

>  <cluster_rmsd>  (32) 
0.36

>  <cluster>  (32) 
4

$$$$

     RDKit          3D

 60 63  0  0  0  0  0  0  0  0999 V2000
  139.7470   72.3920  220.6050 O   0  0  0  0  0  0  0  0  0  0  0  0
  139.6810   72.8440  221.7990 C   0  0  0  0  0  0  0  0  0  0  0  0
  139.5580   74.2470  222.0460 N   0  0  0  0  0  0  0  0  0  0  0  0
  139.5100   75.1380  220.9010 C   0  0  0  0  0  0  0  0  0  0  0  0
  138.1960   75.7760  220.8770 C   0  0  0  0  0  0  0  0  0  0  0  0
  137.4440   75.8220  219.8440 O   0  0  0  0  0  0  0  0  0  0  0  0
  137.7050   76.3880  222.0640 N   0  0  0  0  0  0  0  0  0  0  0  0
  138.6400   77.0630  222.9410 C   0  0  0  0  0  0  0  0  0  0  0  0
  138.4820   78.5300  222.9770 C   0  0  0  0  0  0  0  0  0  0  0  0
  137.5170   79.1460  222.0290 C   0  0  0  0  0  0  0  0  0  0  0  0
  136.0900   78.8290  222.1980 C   0  0  0  0  0  0  0  0  0  0  0  0
  135.6980   77.5600  222.8540 C   0  0  0  0  0  0  0  0  0  0  0  0
  136.2630   76.2980  222.3270 C   0  0  2  0  0  0  0  0  0  0  0  0
  135.9420   75.0570  223.1270 C   0  0  0  0  0  0  0  0  0  0  0  0
  135.3650   73.9630  222.2370 C   0  0  0  0  0  0  0  0  0  0  0  0
  135.5390   72.6670  223.0140 C   0  0  0  0  0  0  0  0  0  0  0  0
  135.0300   72.8350  224.4350 C   0  0  0  0  0  0  0  0  0  0  0  0
  134.1840   74.0860  224.5560 C   0  0  0  0  0  0  0  0  0  0  0  0
  134.9220   75.3290  224.2010 C   0  0  0  0  0  0  0  0  0  0  0  0
  139.7310   71.9200  222.9260 C   0  0  0  0  0  0  0  0  0  0  0  0
  139.1270   70.6840  222.8260 C   0  0  0  0  0  0  0  0  0  0  0  0
  139.1680   69.8000  223.8880 C   0  0  0  0  0  0  0  0  0  0  0  0
  139.8190   70.1540  225.0590 C   0  0  0  0  0  0  0  0  0  0  0  0
  139.8560   69.2660  226.1130 C   0  0  0  0  0  0  0  0  0  0  0  0
  140.4980   69.5890  227.2960 C   0  0  0  0  0  0  0  0  0  0  0  0
  140.5600   68.4850  228.6480 Cl  0  0  0  0  0  0  0  0  0  0  0  0
  141.0890   70.8350  227.3560 C   0  0  0  0  0  0  0  0  0  0  0  0
  141.0550   71.7300  226.2990 C   0  0  0  0  0  0  0  0  0  0  0  0
  140.4130   71.4000  225.1230 C   0  0  0  0  0  0  0  0  0  0  0  0
  140.3550   72.2370  224.0720 N   0  0  0  0  0  0  0  0  0  0  0  0
  139.5080   74.5670  223.0350 H   0  0  0  0  0  0  0  0  0  0  0  0
  140.2946   75.9037  220.9913 H   0  0  0  0  0  0  0  0  0  0  0  0
  139.6765   74.5735  219.9717 H   0  0  0  0  0  0  0  0  0  0  0  0
  138.4985   76.6753  223.9606 H   0  0  0  0  0  0  0  0  0  0  0  0
  139.6467   76.8623  222.5456 H   0  0  0  0  0  0  0  0  0  0  0  0
  138.1614   78.8007  223.9938 H   0  0  0  0  0  0  0  0  0  0  0  0
  139.4624   78.9221  222.6686 H   0  0  0  0  0  0  0  0  0  0  0  0
  137.6230   80.2374  222.1163 H   0  0  0  0  0  0  0  0  0  0  0  0
  137.7808   78.7196  221.0499 H   0  0  0  0  0  0  0  0  0  0  0  0
  135.6488   79.6447  222.7896 H   0  0  0  0  0  0  0  0  0  0  0  0
  135.7277   78.7094  221.1663 H   0  0  0  0  0  0  0  0  0  0  0  0
  135.9941   77.6339  223.9108 H   0  0  0  0  0  0  0  0  0  0  0  0
  134.6179   77.4763  222.6632 H   0  0  0  0  0  0  0  0  0  0  0  0
  135.7373   76.1721  221.3690 H   0  0  0  0  0  0  0  0  0  0  0  0
  136.8928   74.7369  223.5782 H   0  0  0  0  0  0  0  0  0  0  0  0
  134.2995   74.1516  222.0391 H   0  0  0  0  0  0  0  0  0  0  0  0
  135.8720   73.9232  221.2616 H   0  0  0  0  0  0  0  0  0  0  0  0
  134.9715   71.8664  222.5170 H   0  0  0  0  0  0  0  0  0  0  0  0
  136.6074   72.4071  223.0439 H   0  0  0  0  0  0  0  0  0  0  0  0
  134.4214   71.9598  224.7065 H   0  0  0  0  0  0  0  0  0  0  0  0
  135.8927   72.9245  225.1116 H   0  0  0  0  0  0  0  0  0  0  0  0
  133.3185   73.9892  223.8840 H   0  0  0  0  0  0  0  0  0  0  0  0
  133.8809   74.1752  225.6096 H   0  0  0  0  0  0  0  0  0  0  0  0
  134.2069   76.0815  223.8370 H   0  0  0  0  0  0  0  0  0  0  0  0
  135.4430   75.6978  225.0969 H   0  0  0  0  0  0  0  0  0  0  0  0
  138.6104   70.4005  221.8971 H   0  0  0  0  0  0  0  0  0  0  0  0
  138.6840   68.8158  223.8036 H   0  0  0  0  0  0  0  0  0  0  0  0
  139.3677   68.2855  226.0122 H   0  0  0  0  0  0  0  0  0  0  0  0
  141.6079   71.1292  228.2803 H   0  0  0  0  0  0  0  0  0  0  0  0
  141.5433   72.7107  226.3980 H   0  0  0  0  0  0  0  0  0  0  0  0
  1  2  2  0
  2  3  1  0
  3  4  1  0
  4  5  1  0
  5  6  2  0
  5  7  1  0
  7  8  1  0
  8  9  1  0
  9 10  1  0
 10 11  1  0
 11 12  1  0
 12 13  1  0
 13 14  1  0
 14 15  1  0
 15 16  1  0
 16 17  1  0
 17 18  1  0
 18 19  1  0
  2 20  1  0
 20 21  2  0
 21 22  1  0
 22 23  2  0
 23 24  1  0
 24 25  2  0
 25 26  1  0
 25 27  1  0
 27 28  2  0
 28 29  1  0
 29 30  2  0
 13  7  1  0
 19 14  1  0
 30 20  1  0
 29 23  1  0
  3 31  1  0
  4 32  1  0
  4 33  1  0
  8 34  1  0
  8 35  1  0
  9 36  1  0
  9 37  1  0
 10 38  1  0
 10 39  1  0
 11 40  1  0
 11 41  1  0
 12 42  1  0
 12 43  1  0
 13 44  1  6
 14 45  1  0
 15 46  1  0
 15 47  1  0
 16 48  1  0
 16 49  1  0
 17 50  1  0
 17 51  1  0
 18 52  1  0
 18 53  1  0
 19 54  1  0
 19 55  1  0
 21 56  1  0
 22 57  1  0
 24 58  1  0
 27 59  1  0
 28 60  1  0
M  END
>  <smiles>  (33) 
O=C(NCC(=O)N1CCCCCC1C1CCCCC1)c1ccc2cc(Cl)ccc2n1

>  <score_type>  (33) 
oracle

>  <origin>  (33) 
autodockgpu

>  <m_score__min__energy>  (33) 
-7.1299999999999999

>  <m_primary>  (33) 
energy

>  <rmsd>  (33) 
3.98113632697455

>  <m_score__min__rmsd>  (33) 
3.98113632697455

>  <meeko>  (33) 
{"free_energy": -4.65, "intermolecular_energy": -7.94, "internal_energy": -2.38, "cluster_size": 1, "cluster_id": 13, "rank_in_cluster": 1}

>  <energy>  (33) 
-4.91

>  <cluster_rmsd>  (33) 
1.38

>  <cluster>  (33) 
4

$$$$

     RDKit          3D

 60 63  0  0  0  0  0  0  0  0999 V2000
  140.5600   72.1470  220.6400 O   0  0  0  0  0  0  0  0  0  0  0  0
  140.2100   72.5710  221.7940 C   0  0  0  0  0  0  0  0  0  0  0  0
  139.8510   73.9400  221.9950 N   0  0  0  0  0  0  0  0  0  0  0  0
  139.8940   74.8310  220.8490 C   0  0  0  0  0  0  0  0  0  0  0  0
  140.2960   76.1550  221.3180 C   0  0  0  0  0  0  0  0  0  0  0  0
  139.7850   76.7370  222.3350 O   0  0  0  0  0  0  0  0  0  0  0  0
  141.3150   76.8550  220.6130 N   0  0  0  0  0  0  0  0  0  0  0  0
  142.4200   76.1050  220.0540 C   0  0  0  0  0  0  0  0  0  0  0  0
  142.2510   75.7520  218.6300 C   0  0  0  0  0  0  0  0  0  0  0  0
  142.1850   76.8630  217.6450 C   0  0  0  0  0  0  0  0  0  0  0  0
  141.3450   78.0250  217.9750 C   0  0  0  0  0  0  0  0  0  0  0  0
  141.6440   78.8260  219.1890 C   0  0  0  0  0  0  0  0  0  0  0  0
  141.1790   78.3130  220.4950 C   0  0  2  0  0  0  0  0  0  0  0  0
  141.7560   79.0030  221.7100 C   0  0  0  0  0  0  0  0  0  0  0  0
  140.7210   79.1100  222.8230 C   0  0  0  0  0  0  0  0  0  0  0  0
  141.5140   79.3560  224.0980 C   0  0  0  0  0  0  0  0  0  0  0  0
  142.5170   80.4770  223.8830 C   0  0  0  0  0  0  0  0  0  0  0  0
  142.1930   81.2500  222.6210 C   0  0  0  0  0  0  0  0  0  0  0  0
  142.2070   80.4050  221.3960 C   0  0  0  0  0  0  0  0  0  0  0  0
  140.1770   71.6480  222.9240 C   0  0  0  0  0  0  0  0  0  0  0  0
  139.6380   70.3890  222.7630 C   0  0  0  0  0  0  0  0  0  0  0  0
  139.6010   69.5060  223.8260 C   0  0  0  0  0  0  0  0  0  0  0  0
  140.1060   69.8850  225.0590 C   0  0  0  0  0  0  0  0  0  0  0  0
  140.0650   68.9990  226.1140 C   0  0  0  0  0  0  0  0  0  0  0  0
  140.5620   69.3460  227.3580 C   0  0  0  0  0  0  0  0  0  0  0  0
  140.5220   68.2450  228.7130 Cl  0  0  0  0  0  0  0  0  0  0  0  0
  141.0910   70.6160  227.4770 C   0  0  0  0  0  0  0  0  0  0  0  0
  141.1340   71.5100  226.4200 C   0  0  0  0  0  0  0  0  0  0  0  0
  140.6380   71.1550  225.1830 C   0  0  0  0  0  0  0  0  0  0  0  0
  140.6590   71.9900  224.1290 N   0  0  0  0  0  0  0  0  0  0  0  0
  139.5730   74.2380  222.9530 H   0  0  0  0  0  0  0  0  0  0  0  0
  140.6230   74.4585  220.1143 H   0  0  0  0  0  0  0  0  0  0  0  0
  138.9060   74.8810  220.3680 H   0  0  0  0  0  0  0  0  0  0  0  0
  143.3334   76.7098  220.1538 H   0  0  0  0  0  0  0  0  0  0  0  0
  142.4741   75.1580  220.6109 H   0  0  0  0  0  0  0  0  0  0  0  0
  143.1002   75.1125  218.3472 H   0  0  0  0  0  0  0  0  0  0  0  0
  141.2609   75.2755  218.5777 H   0  0  0  0  0  0  0  0  0  0  0  0
  143.2109   77.2315  217.4972 H   0  0  0  0  0  0  0  0  0  0  0  0
  141.7071   76.4191  216.7593 H   0  0  0  0  0  0  0  0  0  0  0  0
  141.3994   78.7121  217.1177 H   0  0  0  0  0  0  0  0  0  0  0  0
  140.3646   77.5784  218.1970 H   0  0  0  0  0  0  0  0  0  0  0  0
  142.7373   78.9305  219.2499 H   0  0  0  0  0  0  0  0  0  0  0  0
  141.0802   79.7596  219.0459 H   0  0  0  0  0  0  0  0  0  0  0  0
  140.1093   78.5693  220.4943 H   0  0  0  0  0  0  0  0  0  0  0  0
  142.6127   78.3901  222.0270 H   0  0  0  0  0  0  0  0  0  0  0  0
  140.0350   79.9479  222.6300 H   0  0  0  0  0  0  0  0  0  0  0  0
  140.1062   78.2007  222.8955 H   0  0  0  0  0  0  0  0  0  0  0  0
  140.8236   79.6362  224.9072 H   0  0  0  0  0  0  0  0  0  0  0  0
  142.0548   78.4369  224.3678 H   0  0  0  0  0  0  0  0  0  0  0  0
  142.4843   81.1609  224.7439 H   0  0  0  0  0  0  0  0  0  0  0  0
  143.5209   80.0390  223.7818 H   0  0  0  0  0  0  0  0  0  0  0  0
  141.1916   81.6922  222.7293 H   0  0  0  0  0  0  0  0  0  0  0  0
  142.9722   82.0167  222.4982 H   0  0  0  0  0  0  0  0  0  0  0  0
  141.5299   80.8429  220.6478 H   0  0  0  0  0  0  0  0  0  0  0  0
  143.2346   80.3663  221.0053 H   0  0  0  0  0  0  0  0  0  0  0  0
  139.2359   70.0861  221.7849 H   0  0  0  0  0  0  0  0  0  0  0  0
  139.1706   68.5025  223.6928 H   0  0  0  0  0  0  0  0  0  0  0  0
  139.6301   67.9997  225.9647 H   0  0  0  0  0  0  0  0  0  0  0  0
  141.4946   70.9304  228.4508 H   0  0  0  0  0  0  0  0  0  0  0  0
  141.5669   72.5103  226.5682 H   0  0  0  0  0  0  0  0  0  0  0  0
  1  2  2  0
  2  3  1  0
  3  4  1  0
  4  5  1  0
  5  6  2  0
  5  7  1  0
  7  8  1  0
  8  9  1  0
  9 10  1  0
 10 11  1  0
 11 12  1  0
 12 13  1  0
 13 14  1  0
 14 15  1  0
 15 16  1  0
 16 17  1  0
 17 18  1  0
 18 19  1  0
  2 20  1  0
 20 21  2  0
 21 22  1  0
 22 23  2  0
 23 24  1  0
 24 25  2  0
 25 26  1  0
 25 27  1  0
 27 28  2  0
 28 29  1  0
 29 30  2  0
 13  7  1  0
 19 14  1  0
 30 20  1  0
 29 23  1  0
  3 31  1  0
  4 32  1  0
  4 33  1  0
  8 34  1  0
  8 35  1  0
  9 36  1  0
  9 37  1  0
 10 38  1  0
 10 39  1  0
 11 40  1  0
 11 41  1  0
 12 42  1  0
 12 43  1  0
 13 44  1  6
 14 45  1  0
 15 46  1  0
 15 47  1  0
 16 48  1  0
 16 49  1  0
 17 50  1  0
 17 51  1  0
 18 52  1  0
 18 53  1  0
 19 54  1  0
 19 55  1  0
 21 56  1  0
 22 57  1  0
 24 58  1  0
 27 59  1  0
 28 60  1  0
M  END
>  <smiles>  (34) 
O=C(NCC(=O)N1CCCCCC1C1CCCCC1)c1ccc2cc(Cl)ccc2n1

>  <score_type>  (34) 
oracle

>  <origin>  (34) 
autodockgpu

>  <m_score__min__energy>  (34) 
-7.1299999999999999

>  <m_primary>  (34) 
energy

>  <rmsd>  (34) 
2.1667830135749884

>  <m_score__min__rmsd>  (34) 
2.1667830135749884

>  <meeko>  (34) 
{"free_energy": -6.79, "intermolecular_energy": -10.07, "internal_energy": -1.6, "cluster_size": 16, "cluster_id": 1, "rank_in_cluster": 3}

>  <energy>  (34) 
-4.53

>  <cluster_rmsd>  (34) 
1.82

>  <cluster>  (34) 
4

$$$$

     RDKit          3D

 60 63  0  0  0  0  0  0  0  0999 V2000
  141.3620   74.6170  220.7940 O   0  0  0  0  0  0  0  0  0  0  0  0
  140.4380   74.5930  221.6760 C   0  0  0  0  0  0  0  0  0  0  0  0
  140.1000   73.3800  222.3530 N   0  0  0  0  0  0  0  0  0  0  0  0
  140.8390   72.1790  222.0070 C   0  0  0  0  0  0  0  0  0  0  0  0
  139.9140   71.0490  222.0430 C   0  0  0  0  0  0  0  0  0  0  0  0
  139.7560   70.2250  221.0790 O   0  0  0  0  0  0  0  0  0  0  0  0
  139.1320   70.8370  223.2130 N   0  0  0  0  0  0  0  0  0  0  0  0
  137.8790   71.5490  223.3560 C   0  0  0  0  0  0  0  0  0  0  0  0
  136.7780   70.7300  223.9010 C   0  0  0  0  0  0  0  0  0  0  0  0
  136.5890   69.3660  223.3430 C   0  0  0  0  0  0  0  0  0  0  0  0
  137.7500   68.4610  223.3320 C   0  0  0  0  0  0  0  0  0  0  0  0
  138.8400   68.6620  224.3120 C   0  0  0  0  0  0  0  0  0  0  0  0
  139.6510   69.8950  224.2140 C   0  0  2  0  0  0  0  0  0  0  0  0
  139.9240   70.6010  225.5220 C   0  0  0  0  0  0  0  0  0  0  0  0
  141.3830   71.0280  225.6200 C   0  0  0  0  0  0  0  0  0  0  0  0
  141.4230   72.1070  226.6930 C   0  0  0  0  0  0  0  0  0  0  0  0
  140.6840   71.6380  227.9350 C   0  0  0  0  0  0  0  0  0  0  0  0
  140.4480   70.1430  227.8850 C   0  0  0  0  0  0  0  0  0  0  0  0
  139.6470   69.7140  226.7060 C   0  0  0  0  0  0  0  0  0  0  0  0
  139.7160   75.8190  222.0000 C   0  0  0  0  0  0  0  0  0  0  0  0
  138.3380   75.8360  221.9440 C   0  0  0  0  0  0  0  0  0  0  0  0
  137.6430   76.9920  222.2490 C   0  0  0  0  0  0  0  0  0  0  0  0
  138.3310   78.1380  222.6130 C   0  0  0  0  0  0  0  0  0  0  0  0
  137.6300   79.2860  222.9170 C   0  0  0  0  0  0  0  0  0  0  0  0
  138.2870   80.4470  223.2850 C   0  0  0  0  0  0  0  0  0  0  0  0
  137.4260   81.9170  223.6720 Cl  0  0  0  0  0  0  0  0  0  0  0  0
  139.6660   80.3870  223.3290 C   0  0  0  0  0  0  0  0  0  0  0  0
  140.3740   79.2360  223.0250 C   0  0  0  0  0  0  0  0  0  0  0  0
  139.7110   78.0830  222.6590 C   0  0  0  0  0  0  0  0  0  0  0  0
  140.3570   76.9430  222.3570 N   0  0  0  0  0  0  0  0  0  0  0  0
  139.3400   73.4100  223.0640 H   0  0  0  0  0  0  0  0  0  0  0  0
  141.2638   72.2808  220.9974 H   0  0  0  0  0  0  0  0  0  0  0  0
  141.6617   72.0200  222.7196 H   0  0  0  0  0  0  0  0  0  0  0  0
  138.0417   72.4020  224.0312 H   0  0  0  0  0  0  0  0  0  0  0  0
  137.5734   71.8585  222.3456 H   0  0  0  0  0  0  0  0  0  0  0  0
  136.9534   70.6213  224.9815 H   0  0  0  0  0  0  0  0  0  0  0  0
  135.8633   71.2734  223.6216 H   0  0  0  0  0  0  0  0  0  0  0  0
  135.7982   68.8777  223.9314 H   0  0  0  0  0  0  0  0  0  0  0  0
  136.3573   69.5315  222.2805 H   0  0  0  0  0  0  0  0  0  0  0  0
  137.3635   67.4430  223.4877 H   0  0  0  0  0  0  0  0  0  0  0  0
  138.2307   68.6694  222.3648 H   0  0  0  0  0  0  0  0  0  0  0  0
  138.3844   68.6503  225.3131 H   0  0  0  0  0  0  0  0  0  0  0  0
  139.5514   67.8508  224.0977 H   0  0  0  0  0  0  0  0  0  0  0  0
  140.6287   69.5225  223.8743 H   0  0  0  0  0  0  0  0  0  0  0  0
  139.2562   71.4750  225.5384 H   0  0  0  0  0  0  0  0  0  0  0  0
  142.0140   70.1749  225.9097 H   0  0  0  0  0  0  0  0  0  0  0  0
  141.7643   71.3978  224.6567 H   0  0  0  0  0  0  0  0  0  0  0  0
  142.4699   72.3229  226.9527 H   0  0  0  0  0  0  0  0  0  0  0  0
  140.9373   73.0155  226.3074 H   0  0  0  0  0  0  0  0  0  0  0  0
  141.2840   71.8793  228.8248 H   0  0  0  0  0  0  0  0  0  0  0  0
  139.7106   72.1483  227.9811 H   0  0  0  0  0  0  0  0  0  0  0  0
  141.4236   69.6363  227.8477 H   0  0  0  0  0  0  0  0  0  0  0  0
  139.8755   69.8726  228.7845 H   0  0  0  0  0  0  0  0  0  0  0  0
  139.9095   68.6771  226.4493 H   0  0  0  0  0  0  0  0  0  0  0  0
  138.5790   69.7864  226.9593 H   0  0  0  0  0  0  0  0  0  0  0  0
  137.7899   74.9269  221.6557 H   0  0  0  0  0  0  0  0  0  0  0  0
  136.5440   77.0016  222.2026 H   0  0  0  0  0  0  0  0  0  0  0  0
  136.5312   79.2787  222.8662 H   0  0  0  0  0  0  0  0  0  0  0  0
  140.2247   81.2897  223.6171 H   0  0  0  0  0  0  0  0  0  0  0  0
  141.4728   79.2414  223.0758 H   0  0  0  0  0  0  0  0  0  0  0  0
  1  2  2  0
  2  3  1  0
  3  4  1  0
  4  5  1  0
  5  6  2  0
  5  7  1  0
  7  8  1  0
  8  9  1  0
  9 10  1  0
 10 11  1  0
 11 12  1  0
 12 13  1  0
 13 14  1  0
 14 15  1  0
 15 16  1  0
 16 17  1  0
 17 18  1  0
 18 19  1  0
  2 20  1  0
 20 21  2  0
 21 22  1  0
 22 23  2  0
 23 24  1  0
 24 25  2  0
 25 26  1  0
 25 27  1  0
 27 28  2  0
 28 29  1  0
 29 30  2  0
 13  7  1  0
 19 14  1  0
 30 20  1  0
 29 23  1  0
  3 31  1  0
  4 32  1  0
  4 33  1  0
  8 34  1  0
  8 35  1  0
  9 36  1  0
  9 37  1  0
 10 38  1  0
 10 39  1  0
 11 40  1  0
 11 41  1  0
 12 42  1  0
 12 43  1  0
 13 44  1  6
 14 45  1  0
 15 46  1  0
 15 47  1  0
 16 48  1  0
 16 49  1  0
 17 50  1  0
 17 51  1  0
 18 52  1  0
 18 53  1  0
 19 54  1  0
 19 55  1  0
 21 56  1  0
 22 57  1  0
 24 58  1  0
 27 59  1  0
 28 60  1  0
M  END
>  <smiles>  (35) 
O=C(NCC(=O)N1CCCCCC1C1CCCCC1)c1ccc2cc(Cl)ccc2n1

>  <score_type>  (35) 
oracle

>  <origin>  (35) 
autodockgpu

>  <m_score__min__energy>  (35) 
-7.1299999999999999

>  <m_primary>  (35) 
energy

>  <rmsd>  (35) 
8.097908787827489

>  <m_score__min__rmsd>  (35) 
8.097908787827489

>  <meeko>  (35) 
{"free_energy": -6.3, "intermolecular_energy": -9.58, "internal_energy": -1.76, "cluster_size": 5, "cluster_id": 2, "rank_in_cluster": 1}

>  <energy>  (35) 
-5.61

>  <cluster_rmsd>  (35) 
0.0

>  <cluster>  (35) 
5

$$$$

     RDKit          3D

 60 63  0  0  0  0  0  0  0  0999 V2000
  139.8560   72.3640  220.6700 O   0  0  0  0  0  0  0  0  0  0  0  0
  139.7910   72.7580  221.8840 C   0  0  0  0  0  0  0  0  0  0  0  0
  139.6120   74.1410  222.1980 N   0  0  0  0  0  0  0  0  0  0  0  0
  139.5060   75.0810  221.0970 C   0  0  0  0  0  0  0  0  0  0  0  0
  140.1570   76.3250  221.4970 C   0  0  0  0  0  0  0  0  0  0  0  0
  140.5230   76.5880  222.6930 O   0  0  0  0  0  0  0  0  0  0  0  0
  140.4100   77.3190  220.5090 N   0  0  0  0  0  0  0  0  0  0  0  0
  139.3280   77.7310  219.6390 C   0  0  0  0  0  0  0  0  0  0  0  0
  138.5950   78.9230  220.1110 C   0  0  0  0  0  0  0  0  0  0  0  0
  139.3720   80.1700  220.3320 C   0  0  0  0  0  0  0  0  0  0  0  0
  140.6510   80.0650  221.0530 C   0  0  0  0  0  0  0  0  0  0  0  0
  141.7850   79.3500  220.4240 C   0  0  0  0  0  0  0  0  0  0  0  0
  141.7690   77.8710  220.4350 C   0  0  2  0  0  0  0  0  0  0  0  0
  142.5580   77.2030  219.3320 C   0  0  0  0  0  0  0  0  0  0  0  0
  141.9200   77.4530  217.9720 C   0  0  0  0  0  0  0  0  0  0  0  0
  143.0110   77.1730  216.9490 C   0  0  0  0  0  0  0  0  0  0  0  0
  143.6740   75.8380  217.2430 C   0  0  0  0  0  0  0  0  0  0  0  0
  142.8390   75.0260  218.2110 C   0  0  0  0  0  0  0  0  0  0  0  0
  142.6250   75.7100  219.5160 C   0  0  0  0  0  0  0  0  0  0  0  0
  139.9010   71.7860  222.9670 C   0  0  0  0  0  0  0  0  0  0  0  0
  139.4770   70.4890  222.7680 C   0  0  0  0  0  0  0  0  0  0  0  0
  139.5760   69.5590  223.7860 C   0  0  0  0  0  0  0  0  0  0  0  0
  140.1040   69.9290  225.0130 C   0  0  0  0  0  0  0  0  0  0  0  0
  140.2000   68.9960  226.0230 C   0  0  0  0  0  0  0  0  0  0  0  0
  140.7220   69.3330  227.2590 C   0  0  0  0  0  0  0  0  0  0  0  0
  140.8550   68.1730  228.5580 Cl  0  0  0  0  0  0  0  0  0  0  0  0
  141.1350   70.6420  227.4170 C   0  0  0  0  0  0  0  0  0  0  0  0
  141.0400   71.5830  226.4050 C   0  0  0  0  0  0  0  0  0  0  0  0
  140.5190   71.2380  225.1750 C   0  0  0  0  0  0  0  0  0  0  0  0
  140.4080   72.1180  224.1640 N   0  0  0  0  0  0  0  0  0  0  0  0
  139.5660   74.4130  223.2010 H   0  0  0  0  0  0  0  0  0  0  0  0
  140.0037   74.6696  220.2065 H   0  0  0  0  0  0  0  0  0  0  0  0
  138.4490   75.2654  220.8544 H   0  0  0  0  0  0  0  0  0  0  0  0
  139.7482   77.9542  218.6472 H   0  0  0  0  0  0  0  0  0  0  0  0
  138.6052   76.9021  219.6176 H   0  0  0  0  0  0  0  0  0  0  0  0
  137.8186   79.1478  219.3649 H   0  0  0  0  0  0  0  0  0  0  0  0
  138.2264   78.6449  221.1094 H   0  0  0  0  0  0  0  0  0  0  0  0
  139.5875   80.6014  219.3434 H   0  0  0  0  0  0  0  0  0  0  0  0
  138.7342   80.7802  220.9884 H   0  0  0  0  0  0  0  0  0  0  0  0
  140.9912   81.0918  221.2527 H   0  0  0  0  0  0  0  0  0  0  0  0
  140.4054   79.4430  221.9264 H   0  0  0  0  0  0  0  0  0  0  0  0
  141.8285   79.6682  219.3719 H   0  0  0  0  0  0  0  0  0  0  0  0
  142.6543   79.6186  221.0422 H   0  0  0  0  0  0  0  0  0  0  0  0
  142.3010   77.6241  221.3656 H   0  0  0  0  0  0  0  0  0  0  0  0
  143.5676   77.6372  219.3784 H   0  0  0  0  0  0  0  0  0  0  0  0
  141.0668   76.7760  217.8181 H   0  0  0  0  0  0  0  0  0  0  0  0
  141.5359   78.4802  217.8858 H   0  0  0  0  0  0  0  0  0  0  0  0
  142.5674   77.1449  215.9428 H   0  0  0  0  0  0  0  0  0  0  0  0
  143.7675   77.9697  217.0031 H   0  0  0  0  0  0  0  0  0  0  0  0
  143.7862   75.2762  216.3039 H   0  0  0  0  0  0  0  0  0  0  0  0
  144.6586   76.0249  217.6965 H   0  0  0  0  0  0  0  0  0  0  0  0
  141.8581   74.8344  217.7515 H   0  0  0  0  0  0  0  0  0  0  0  0
  143.3878   74.0949  218.4155 H   0  0  0  0  0  0  0  0  0  0  0  0
  141.6807   75.3582  219.9571 H   0  0  0  0  0  0  0  0  0  0  0  0
  143.4691   75.4740  220.1806 H   0  0  0  0  0  0  0  0  0  0  0  0
  139.0581   70.1931  221.7949 H   0  0  0  0  0  0  0  0  0  0  0  0
  139.2359   68.5258  223.6223 H   0  0  0  0  0  0  0  0  0  0  0  0
  139.8560   67.9668  225.8433 H   0  0  0  0  0  0  0  0  0  0  0  0
  141.5562   70.9493  228.3856 H   0  0  0  0  0  0  0  0  0  0  0  0
  141.3825   72.6130  226.5834 H   0  0  0  0  0  0  0  0  0  0  0  0
  1  2  2  0
  2  3  1  0
  3  4  1  0
  4  5  1  0
  5  6  2  0
  5  7  1  0
  7  8  1  0
  8  9  1  0
  9 10  1  0
 10 11  1  0
 11 12  1  0
 12 13  1  0
 13 14  1  0
 14 15  1  0
 15 16  1  0
 16 17  1  0
 17 18  1  0
 18 19  1  0
  2 20  1  0
 20 21  2  0
 21 22  1  0
 22 23  2  0
 23 24  1  0
 24 25  2  0
 25 26  1  0
 25 27  1  0
 27 28  2  0
 28 29  1  0
 29 30  2  0
 13  7  1  0
 19 14  1  0
 30 20  1  0
 29 23  1  0
  3 31  1  0
  4 32  1  0
  4 33  1  0
  8 34  1  0
  8 35  1  0
  9 36  1  0
  9 37  1  0
 10 38  1  0
 10 39  1  0
 11 40  1  0
 11 41  1  0
 12 42  1  0
 12 43  1  0
 13 44  1  1
 14 45  1  0
 15 46  1  0
 15 47  1  0
 16 48  1  0
 16 49  1  0
 17 50  1  0
 17 51  1  0
 18 52  1  0
 18 53  1  0
 19 54  1  0
 19 55  1  0
 21 56  1  0
 22 57  1  0
 24 58  1  0
 27 59  1  0
 28 60  1  0
M  END
>  <smiles>  (36) 
O=C(NCC(=O)N1CCCCCC1C1CCCCC1)c1ccc2cc(Cl)ccc2n1

>  <score_type>  (36) 
oracle

>  <origin>  (36) 
autodockgpu

>  <m_score__min__energy>  (36) 
-7.1299999999999999

>  <m_primary>  (36) 
energy

>  <rmsd>  (36) 
2.3524852063382307

>  <m_score__min__rmsd>  (36) 
2.3524852063382307

>  <meeko>  (36) 
{"free_energy": -5.54, "intermolecular_energy": -8.82, "internal_energy": -2.15, "cluster_size": 16, "cluster_id": 1, "rank_in_cluster": 13}

>  <energy>  (36) 
-5.2

>  <cluster_rmsd>  (36) 
1.02

>  <cluster>  (36) 
5

$$$$

     RDKit          3D

 60 63  0  0  0  0  0  0  0  0999 V2000
  138.0500   71.1900  220.5890 O   0  0  0  0  0  0  0  0  0  0  0  0
  138.2790   71.8090  221.6840 C   0  0  0  0  0  0  0  0  0  0  0  0
  138.1380   73.2290  221.7680 N   0  0  0  0  0  0  0  0  0  0  0  0
  137.7270   73.9440  220.5740 C   0  0  0  0  0  0  0  0  0  0  0  0
  138.4130   75.2340  220.5570 C   0  0  0  0  0  0  0  0  0  0  0  0
  138.5710   75.9450  219.5070 O   0  0  0  0  0  0  0  0  0  0  0  0
  138.9420   75.7480  221.7740 N   0  0  0  0  0  0  0  0  0  0  0  0
  138.0390   76.3500  222.7320 C   0  0  0  0  0  0  0  0  0  0  0  0
  137.9280   77.8180  222.6160 C   0  0  0  0  0  0  0  0  0  0  0  0
  139.1850   78.6100  222.6330 C   0  0  0  0  0  0  0  0  0  0  0  0
  140.2910   78.1630  221.7710 C   0  0  0  0  0  0  0  0  0  0  0  0
  141.0530   76.9470  222.1370 C   0  0  0  0  0  0  0  0  0  0  0  0
  140.3920   75.6320  221.9850 C   0  0  2  0  0  0  0  0  0  0  0  0
  141.0090   74.7060  220.9620 C   0  0  0  0  0  0  0  0  0  0  0  0
  141.3090   73.3410  221.5680 C   0  0  0  0  0  0  0  0  0  0  0  0
  141.4540   72.3910  220.3890 C   0  0  0  0  0  0  0  0  0  0  0  0
  142.3920   72.9840  219.3510 C   0  0  0  0  0  0  0  0  0  0  0  0
  143.1770   74.1400  219.9370 C   0  0  0  0  0  0  0  0  0  0  0  0
  142.3110   75.2450  220.4320 C   0  0  0  0  0  0  0  0  0  0  0  0
  138.6900   71.0580  222.8660 C   0  0  0  0  0  0  0  0  0  0  0  0
  138.2710   69.7550  223.0290 C   0  0  0  0  0  0  0  0  0  0  0  0
  138.6540   69.0340  224.1450 C   0  0  0  0  0  0  0  0  0  0  0  0
  139.4610   69.6210  225.1050 C   0  0  0  0  0  0  0  0  0  0  0  0
  139.8390   68.8960  226.2150 C   0  0  0  0  0  0  0  0  0  0  0  0
  140.6450   69.4530  227.1920 C   0  0  0  0  0  0  0  0  0  0  0  0
  141.1380   68.5580  228.6090 Cl  0  0  0  0  0  0  0  0  0  0  0  0
  141.0420   70.7600  226.9910 C   0  0  0  0  0  0  0  0  0  0  0  0
  140.6650   71.4930  225.8780 C   0  0  0  0  0  0  0  0  0  0  0  0
  139.8620   70.9300  224.9080 C   0  0  0  0  0  0  0  0  0  0  0  0
  139.4720   71.6030  223.8120 N   0  0  0  0  0  0  0  0  0  0  0  0
  138.3360   73.6880  222.6810 H   0  0  0  0  0  0  0  0  0  0  0  0
  138.0008   73.3646  219.6800 H   0  0  0  0  0  0  0  0  0  0  0  0
  136.6371   74.0926  220.5757 H   0  0  0  0  0  0  0  0  0  0  0  0
  137.0393   75.9153  222.5849 H   0  0  0  0  0  0  0  0  0  0  0  0
  138.4505   76.1409  223.7305 H   0  0  0  0  0  0  0  0  0  0  0  0
  137.4162   78.0346  221.6667 H   0  0  0  0  0  0  0  0  0  0  0  0
  137.3919   78.1286  223.5249 H   0  0  0  0  0  0  0  0  0  0  0  0
  138.9295   79.6368  222.3324 H   0  0  0  0  0  0  0  0  0  0  0  0
  139.5695   78.4962  223.6573 H   0  0  0  0  0  0  0  0  0  0  0  0
  139.8669   77.9865  220.7715 H   0  0  0  0  0  0  0  0  0  0  0  0
  141.0325   78.9704  221.8613 H   0  0  0  0  0  0  0  0  0  0  0  0
  141.9586   76.9302  221.5129 H   0  0  0  0  0  0  0  0  0  0  0  0
  141.2159   77.0450  223.2204 H   0  0  0  0  0  0  0  0  0  0  0  0
  140.5703   75.1507  222.9579 H   0  0  0  0  0  0  0  0  0  0  0  0
  140.2733   74.6221  220.1486 H   0  0  0  0  0  0  0  0  0  0  0  0
  142.2421   73.3761  222.1495 H   0  0  0  0  0  0  0  0  0  0  0  0
  140.5130   73.0176  222.2549 H   0  0  0  0  0  0  0  0  0  0  0  0
  141.8621   71.4326  220.7424 H   0  0  0  0  0  0  0  0  0  0  0  0
  140.4662   72.2322  219.9318 H   0  0  0  0  0  0  0  0  0  0  0  0
  143.0927   72.2069  219.0116 H   0  0  0  0  0  0  0  0  0  0  0  0
  141.7945   73.3549  218.5051 H   0  0  0  0  0  0  0  0  0  0  0  0
  143.7786   73.7638  220.7776 H   0  0  0  0  0  0  0  0  0  0  0  0
  143.8039   74.5512  219.1320 H   0  0  0  0  0  0  0  0  0  0  0  0
  142.8345   75.7805  221.2377 H   0  0  0  0  0  0  0  0  0  0  0  0
  142.0966   75.9271  219.5960 H   0  0  0  0  0  0  0  0  0  0  0  0
  137.6293   69.2868  222.2681 H   0  0  0  0  0  0  0  0  0  0  0  0
  138.3177   67.9942  224.2702 H   0  0  0  0  0  0  0  0  0  0  0  0
  139.4941   67.8574  226.3258 H   0  0  0  0  0  0  0  0  0  0  0  0
  141.6838   71.2385  227.7454 H   0  0  0  0  0  0  0  0  0  0  0  0
  141.0085   72.5320  225.7667 H   0  0  0  0  0  0  0  0  0  0  0  0
  1  2  2  0
  2  3  1  0
  3  4  1  0
  4  5  1  0
  5  6  2  0
  5  7  1  0
  7  8  1  0
  8  9  1  0
  9 10  1  0
 10 11  1  0
 11 12  1  0
 12 13  1  0
 13 14  1  0
 14 15  1  0
 15 16  1  0
 16 17  1  0
 17 18  1  0
 18 19  1  0
  2 20  1  0
 20 21  2  0
 21 22  1  0
 22 23  2  0
 23 24  1  0
 24 25  2  0
 25 26  1  0
 25 27  1  0
 27 28  2  0
 28 29  1  0
 29 30  2  0
 13  7  1  0
 19 14  1  0
 30 20  1  0
 29 23  1  0
  3 31  1  0
  4 32  1  0
  4 33  1  0
  8 34  1  0
  8 35  1  0
  9 36  1  0
  9 37  1  0
 10 38  1  0
 10 39  1  0
 11 40  1  0
 11 41  1  0
 12 42  1  0
 12 43  1  0
 13 44  1  1
 14 45  1  0
 15 46  1  0
 15 47  1  0
 16 48  1  0
 16 49  1  0
 17 50  1  0
 17 51  1  0
 18 52  1  0
 18 53  1  0
 19 54  1  0
 19 55  1  0
 21 56  1  0
 22 57  1  0
 24 58  1  0
 27 59  1  0
 28 60  1  0
M  END
>  <smiles>  (37) 
O=C(NCC(=O)N1CCCCCC1C1CCCCC1)c1ccc2cc(Cl)ccc2n1

>  <score_type>  (37) 
oracle

>  <origin>  (37) 
autodockgpu

>  <m_score__min__energy>  (37) 
-7.1299999999999999

>  <m_primary>  (37) 
energy

>  <rmsd>  (37) 
2.8779906273910902

>  <m_score__min__rmsd>  (37) 
2.8779906273910902

>  <meeko>  (37) 
{"free_energy": -5.48, "intermolecular_energy": -8.76, "internal_energy": -2.65, "cluster_size": 10, "cluster_id": 4, "rank_in_cluster": 5}

>  <energy>  (37) 
-5.04

>  <cluster_rmsd>  (37) 
1.14

>  <cluster>  (37) 
5

$$$$

     RDKit          3D

 60 63  0  0  0  0  0  0  0  0999 V2000
  141.1990   78.1910  217.4160 O   0  0  0  0  0  0  0  0  0  0  0  0
  141.9930   77.8470  218.3570 C   0  0  0  0  0  0  0  0  0  0  0  0
  142.2610   78.7280  219.4500 N   0  0  0  0  0  0  0  0  0  0  0  0
  141.6030   80.0220  219.4590 C   0  0  0  0  0  0  0  0  0  0  0  0
  140.3600   79.8950  220.2170 C   0  0  0  0  0  0  0  0  0  0  0  0
  139.2040   79.7910  219.6800 O   0  0  0  0  0  0  0  0  0  0  0  0
  140.4190   79.8840  221.6380 N   0  0  0  0  0  0  0  0  0  0  0  0
  140.4280   81.1460  222.3480 C   0  0  0  0  0  0  0  0  0  0  0  0
  141.7760   81.6140  222.7310 C   0  0  0  0  0  0  0  0  0  0  0  0
  142.5680   80.7590  223.6520 C   0  0  0  0  0  0  0  0  0  0  0  0
  141.9490   79.5170  224.1420 C   0  0  0  0  0  0  0  0  0  0  0  0
  141.6420   78.4270  223.1890 C   0  0  0  0  0  0  0  0  0  0  0  0
  140.4660   78.5760  222.3050 C   0  0  2  0  0  0  0  0  0  0  0  0
  140.2540   77.4600  221.3090 C   0  0  0  0  0  0  0  0  0  0  0  0
  138.8160   76.9600  221.3410 C   0  0  0  0  0  0  0  0  0  0  0  0
  138.6060   76.2270  220.0250 C   0  0  0  0  0  0  0  0  0  0  0  0
  139.7430   75.2480  219.7830 C   0  0  0  0  0  0  0  0  0  0  0  0
  140.5360   75.0250  221.0550 C   0  0  0  0  0  0  0  0  0  0  0  0
  141.1350   76.2730  221.5990 C   0  0  0  0  0  0  0  0  0  0  0  0
  142.6380   76.5380  218.3170 C   0  0  0  0  0  0  0  0  0  0  0  0
  142.5070   75.7450  217.1970 C   0  0  0  0  0  0  0  0  0  0  0  0
  143.1130   74.5030  217.1480 C   0  0  0  0  0  0  0  0  0  0  0  0
  143.8550   74.0520  218.2280 C   0  0  0  0  0  0  0  0  0  0  0  0
  144.4570   72.8130  218.1710 C   0  0  0  0  0  0  0  0  0  0  0  0
  145.2040   72.3320  219.2320 C   0  0  0  0  0  0  0  0  0  0  0  0
  145.9760   70.7660  219.1890 Cl  0  0  0  0  0  0  0  0  0  0  0  0
  145.3090   73.1570  220.3350 C   0  0  0  0  0  0  0  0  0  0  0  0
  144.7070   74.4030  220.3960 C   0  0  0  0  0  0  0  0  0  0  0  0
  143.9640   74.8740  219.3340 C   0  0  0  0  0  0  0  0  0  0  0  0
  143.3620   76.0770  219.3490 N   0  0  0  0  0  0  0  0  0  0  0  0
  142.9140   78.4040  220.1930 H   0  0  0  0  0  0  0  0  0  0  0  0
  142.2554   80.7686  219.9354 H   0  0  0  0  0  0  0  0  0  0  0  0
  141.3899   80.3479  218.4302 H   0  0  0  0  0  0  0  0  0  0  0  0
  139.9682   81.9087  221.7023 H   0  0  0  0  0  0  0  0  0  0  0  0
  139.8702   80.9876  223.2827 H   0  0  0  0  0  0  0  0  0  0  0  0
  142.3594   81.7282  221.8055 H   0  0  0  0  0  0  0  0  0  0  0  0
  141.5983   82.5410  223.2960 H   0  0  0  0  0  0  0  0  0  0  0  0
  143.4922   80.4788  223.1254 H   0  0  0  0  0  0  0  0  0  0  0  0
  142.7017   81.3749  224.5536 H   0  0  0  0  0  0  0  0  0  0  0  0
  142.6292   79.0979  224.8981 H   0  0  0  0  0  0  0  0  0  0  0  0
  140.9569   79.8433  224.4874 H   0  0  0  0  0  0  0  0  0  0  0  0
  142.5224   78.3040  222.5410 H   0  0  0  0  0  0  0  0  0  0  0  0
  141.3909   77.5696  223.8307 H   0  0  0  0  0  0  0  0  0  0  0  0
  139.6202   78.5068  223.0049 H   0  0  0  0  0  0  0  0  0  0  0  0
  140.5010   77.8856  220.3252 H   0  0  0  0  0  0  0  0  0  0  0  0
  138.6666   76.2758  222.1893 H   0  0  0  0  0  0  0  0  0  0  0  0
  138.1011   77.7870  221.4638 H   0  0  0  0  0  0  0  0  0  0  0  0
  137.6544   75.6766  220.0634 H   0  0  0  0  0  0  0  0  0  0  0  0
  138.5827   76.9601  219.2052 H   0  0  0  0  0  0  0  0  0  0  0  0
  139.3271   74.2879  219.4435 H   0  0  0  0  0  0  0  0  0  0  0  0
  140.4127   75.6654  219.0167 H   0  0  0  0  0  0  0  0  0  0  0  0
  139.8647   74.5993  221.8153 H   0  0  0  0  0  0  0  0  0  0  0  0
  141.3650   74.3454  220.8082 H   0  0  0  0  0  0  0  0  0  0  0  0
  141.2552   76.1705  222.6876 H   0  0  0  0  0  0  0  0  0  0  0  0
  142.1118   76.4334  221.1192 H   0  0  0  0  0  0  0  0  0  0  0  0
  141.9182   76.1016  216.3390 H   0  0  0  0  0  0  0  0  0  0  0  0
  143.0062   73.8734  216.2523 H   0  0  0  0  0  0  0  0  0  0  0  0
  144.3416   72.1966  217.2673 H   0  0  0  0  0  0  0  0  0  0  0  0
  145.8942   72.8105  221.1996 H   0  0  0  0  0  0  0  0  0  0  0  0
  144.8225   75.0214  221.2983 H   0  0  0  0  0  0  0  0  0  0  0  0
  1  2  2  0
  2  3  1  0
  3  4  1  0
  4  5  1  0
  5  6  2  0
  5  7  1  0
  7  8  1  0
  8  9  1  0
  9 10  1  0
 10 11  1  0
 11 12  1  0
 12 13  1  0
 13 14  1  0
 14 15  1  0
 15 16  1  0
 16 17  1  0
 17 18  1  0
 18 19  1  0
  2 20  1  0
 20 21  2  0
 21 22  1  0
 22 23  2  0
 23 24  1  0
 24 25  2  0
 25 26  1  0
 25 27  1  0
 27 28  2  0
 28 29  1  0
 29 30  2  0
 13  7  1  0
 19 14  1  0
 30 20  1  0
 29 23  1  0
  3 31  1  0
  4 32  1  0
  4 33  1  0
  8 34  1  0
  8 35  1  0
  9 36  1  0
  9 37  1  0
 10 38  1  0
 10 39  1  0
 11 40  1  0
 11 41  1  0
 12 42  1  0
 12 43  1  0
 13 44  1  1
 14 45  1  0
 15 46  1  0
 15 47  1  0
 16 48  1  0
 16 49  1  0
 17 50  1  0
 17 51  1  0
 18 52  1  0
 18 53  1  0
 19 54  1  0
 19 55  1  0
 21 56  1  0
 22 57  1  0
 24 58  1  0
 27 59  1  0
 28 60  1  0
M  END
>  <smiles>  (38) 
O=C(NCC(=O)N1CCCCCC1C1CCCCC1)c1ccc2cc(Cl)ccc2n1

>  <score_type>  (38) 
oracle

>  <origin>  (38) 
autodockgpu

>  <m_score__min__energy>  (38) 
-7.1299999999999999

>  <m_primary>  (38) 
energy

>  <rmsd>  (38) 
7.989319214120391

>  <m_score__min__rmsd>  (38) 
7.989319214120391

>  <meeko>  (38) 
{"free_energy": -4.26, "intermolecular_energy": -7.55, "internal_energy": -3.27, "cluster_size": 1, "cluster_id": 15, "rank_in_cluster": 1}

>  <energy>  (38) 
-5.59

>  <cluster_rmsd>  (38) 
0.0

>  <cluster>  (38) 
6

$$$$

     RDKit          3D

 60 63  0  0  0  0  0  0  0  0999 V2000
  140.5510   72.6010  220.8610 O   0  0  0  0  0  0  0  0  0  0  0  0
  139.7990   72.7980  221.8750 C   0  0  0  0  0  0  0  0  0  0  0  0
  138.9050   73.9140  221.9210 N   0  0  0  0  0  0  0  0  0  0  0  0
  138.8790   74.8120  220.7810 C   0  0  0  0  0  0  0  0  0  0  0  0
  138.3110   76.0850  221.2170 C   0  0  0  0  0  0  0  0  0  0  0  0
  137.1720   76.5250  220.8390 O   0  0  0  0  0  0  0  0  0  0  0  0
  139.0540   76.8980  222.1180 N   0  0  0  0  0  0  0  0  0  0  0  0
  138.3380   77.7120  223.0790 C   0  0  0  0  0  0  0  0  0  0  0  0
  138.3740   79.1590  222.7890 C   0  0  0  0  0  0  0  0  0  0  0  0
  139.5790   79.6980  222.1060 C   0  0  0  0  0  0  0  0  0  0  0  0
  140.8980   79.3000  222.6230 C   0  0  0  0  0  0  0  0  0  0  0  0
  141.1780   77.8660  222.8760 C   0  0  0  0  0  0  0  0  0  0  0  0
  140.5190   76.8590  222.0160 C   0  0  2  0  0  0  0  0  0  0  0  0
  140.9540   76.8530  220.5690 C   0  0  0  0  0  0  0  0  0  0  0  0
  141.9420   75.7250  220.2980 C   0  0  0  0  0  0  0  0  0  0  0  0
  141.9250   75.5180  218.7910 C   0  0  0  0  0  0  0  0  0  0  0  0
  142.0800   76.8510  218.0770 C   0  0  0  0  0  0  0  0  0  0  0  0
  142.5630   77.9190  219.0360 C   0  0  0  0  0  0  0  0  0  0  0  0
  141.6400   78.1370  220.1840 C   0  0  0  0  0  0  0  0  0  0  0  0
  139.8500   71.8750  223.0040 C   0  0  0  0  0  0  0  0  0  0  0  0
  139.3760   70.5890  222.8570 C   0  0  0  0  0  0  0  0  0  0  0  0
  139.4190   69.7050  223.9200 C   0  0  0  0  0  0  0  0  0  0  0  0
  139.9410   70.1110  225.1370 C   0  0  0  0  0  0  0  0  0  0  0  0
  139.9810   69.2230  226.1910 C   0  0  0  0  0  0  0  0  0  0  0  0
  140.4960   69.5970  227.4210 C   0  0  0  0  0  0  0  0  0  0  0  0
  140.5580   68.4950  228.7740 Cl  0  0  0  0  0  0  0  0  0  0  0  0
  140.9590   70.8940  227.5250 C   0  0  0  0  0  0  0  0  0  0  0  0
  140.9210   71.7890  226.4690 C   0  0  0  0  0  0  0  0  0  0  0  0
  140.4070   71.4080  225.2470 C   0  0  0  0  0  0  0  0  0  0  0  0
  140.3500   72.2420  224.1940 N   0  0  0  0  0  0  0  0  0  0  0  0
  138.3130   74.0330  222.7680 H   0  0  0  0  0  0  0  0  0  0  0  0
  139.9015   74.9689  220.4069 H   0  0  0  0  0  0  0  0  0  0  0  0
  138.2712   74.3816  219.9715 H   0  0  0  0  0  0  0  0  0  0  0  0
  137.2868   77.3881  223.0908 H   0  0  0  0  0  0  0  0  0  0  0  0
  138.8372   77.5704  224.0489 H   0  0  0  0  0  0  0  0  0  0  0  0
  137.5061   79.3881  222.1531 H   0  0  0  0  0  0  0  0  0  0  0  0
  138.3770   79.6403  223.7781 H   0  0  0  0  0  0  0  0  0  0  0  0
  139.5295   79.3797  221.0542 H   0  0  0  0  0  0  0  0  0  0  0  0
  139.5312   80.7836  222.2770 H   0  0  0  0  0  0  0  0  0  0  0  0
  141.6459   79.6491  221.8958 H   0  0  0  0  0  0  0  0  0  0  0  0
  140.9309   79.7516  223.6255 H   0  0  0  0  0  0  0  0  0  0  0  0
  142.2636   77.7230  222.7712 H   0  0  0  0  0  0  0  0  0  0  0  0
  140.7614   77.6813  223.8772 H   0  0  0  0  0  0  0  0  0  0  0  0
  140.8766   75.9055  222.4319 H   0  0  0  0  0  0  0  0  0  0  0  0
  140.0351   76.7219  219.9788 H   0  0  0  0  0  0  0  0  0  0  0  0
  142.9500   76.0084  220.6351 H   0  0  0  0  0  0  0  0  0  0  0  0
  141.6683   74.8064  220.8377 H   0  0  0  0  0  0  0  0  0  0  0  0
  142.7546   74.8543  218.5059 H   0  0  0  0  0  0  0  0  0  0  0  0
  140.9654   75.0648  218.5014 H   0  0  0  0  0  0  0  0  0  0  0  0
  142.8100   76.7411  217.2615 H   0  0  0  0  0  0  0  0  0  0  0  0
  141.1015   77.1528  217.6752 H   0  0  0  0  0  0  0  0  0  0  0  0
  143.5451   77.6175  219.4293 H   0  0  0  0  0  0  0  0  0  0  0  0
  142.6151   78.8634  218.4744 H   0  0  0  0  0  0  0  0  0  0  0  0
  142.2156   78.5104  221.0438 H   0  0  0  0  0  0  0  0  0  0  0  0
  140.8756   78.8704  219.8878 H   0  0  0  0  0  0  0  0  0  0  0  0
  138.9621   70.2646  221.8909 H   0  0  0  0  0  0  0  0  0  0  0  0
  139.0388   68.6799  223.7989 H   0  0  0  0  0  0  0  0  0  0  0  0
  139.5978   68.2012  226.0527 H   0  0  0  0  0  0  0  0  0  0  0  0
  141.3751   71.2299  228.4863 H   0  0  0  0  0  0  0  0  0  0  0  0
  141.3035   72.8113  226.6057 H   0  0  0  0  0  0  0  0  0  0  0  0
  1  2  2  0
  2  3  1  0
  3  4  1  0
  4  5  1  0
  5  6  2  0
  5  7  1  0
  7  8  1  0
  8  9  1  0
  9 10  1  0
 10 11  1  0
 11 12  1  0
 12 13  1  0
 13 14  1  0
 14 15  1  0
 15 16  1  0
 16 17  1  0
 17 18  1  0
 18 19  1  0
  2 20  1  0
 20 21  2  0
 21 22  1  0
 22 23  2  0
 23 24  1  0
 24 25  2  0
 25 26  1  0
 25 27  1  0
 27 28  2  0
 28 29  1  0
 29 30  2  0
 13  7  1  0
 19 14  1  0
 30 20  1  0
 29 23  1  0
  3 31  1  0
  4 32  1  0
  4 33  1  0
  8 34  1  0
  8 35  1  0
  9 36  1  0
  9 37  1  0
 10 38  1  0
 10 39  1  0
 11 40  1  0
 11 41  1  0
 12 42  1  0
 12 43  1  0
 13 44  1  1
 14 45  1  0
 15 46  1  0
 15 47  1  0
 16 48  1  0
 16 49  1  0
 17 50  1  0
 17 51  1  0
 18 52  1  0
 18 53  1  0
 19 54  1  0
 19 55  1  0
 21 56  1  0
 22 57  1  0
 24 58  1  0
 27 59  1  0
 28 60  1  0
M  END
>  <smiles>  (39) 
O=C(NCC(=O)N1CCCCCC1C1CCCCC1)c1ccc2cc(Cl)ccc2n1

>  <score_type>  (39) 
oracle

>  <origin>  (39) 
autodockgpu

>  <m_score__min__energy>  (39) 
-7.1299999999999999

>  <m_primary>  (39) 
energy

>  <rmsd>  (39) 
3.2758779148989765

>  <m_score__min__rmsd>  (39) 
3.2758779148989765

>  <meeko>  (39) 
{"free_energy": -5.84, "intermolecular_energy": -9.12, "internal_energy": -1.39, "cluster_size": 16, "cluster_id": 1, "rank_in_cluster": 11}

>  <energy>  (39) 
-5.32

>  <cluster_rmsd>  (39) 
0.0

>  <cluster>  (39) 
7

$$$$

     RDKit          3D

 60 63  0  0  0  0  0  0  0  0999 V2000
  138.6930   71.7810  220.6890 O   0  0  0  0  0  0  0  0  0  0  0  0
  138.8840   72.2760  221.8520 C   0  0  0  0  0  0  0  0  0  0  0  0
  138.8190   73.6880  222.0680 N   0  0  0  0  0  0  0  0  0  0  0  0
  138.5280   74.5390  220.9280 C   0  0  0  0  0  0  0  0  0  0  0  0
  139.6300   74.4180  219.9780 C   0  0  0  0  0  0  0  0  0  0  0  0
  139.5680   73.7410  218.8950 O   0  0  0  0  0  0  0  0  0  0  0  0
  140.8550   75.0860  220.2560 N   0  0  0  0  0  0  0  0  0  0  0  0
  141.8470   74.4190  221.0740 C   0  0  0  0  0  0  0  0  0  0  0  0
  143.0180   73.9260  220.3210 C   0  0  0  0  0  0  0  0  0  0  0  0
  144.0280   74.9240  219.8830 C   0  0  0  0  0  0  0  0  0  0  0  0
  143.5800   76.3110  219.6790 C   0  0  0  0  0  0  0  0  0  0  0  0
  142.3160   76.5650  218.9510 C   0  0  0  0  0  0  0  0  0  0  0  0
  141.0400   76.4280  219.6870 C   0  0  2  0  0  0  0  0  0  0  0  0
  140.7690   77.4910  220.7260 C   0  0  0  0  0  0  0  0  0  0  0  0
  141.7400   78.6570  220.5850 C   0  0  0  0  0  0  0  0  0  0  0  0
  141.0900   79.8230  221.3150 C   0  0  0  0  0  0  0  0  0  0  0  0
  140.6270   79.3840  222.6940 C   0  0  0  0  0  0  0  0  0  0  0  0
  141.2560   78.0590  223.0740 C   0  0  0  0  0  0  0  0  0  0  0  0
  140.9250   76.9600  222.1260 C   0  0  0  0  0  0  0  0  0  0  0  0
  139.1740   71.3920  222.9750 C   0  0  0  0  0  0  0  0  0  0  0  0
  138.8090   70.0640  222.9120 C   0  0  0  0  0  0  0  0  0  0  0  0
  139.0780   69.2160  223.9710 C   0  0  0  0  0  0  0  0  0  0  0  0
  139.7160   69.7010  225.1010 C   0  0  0  0  0  0  0  0  0  0  0  0
  139.9820   68.8490  226.1520 C   0  0  0  0  0  0  0  0  0  0  0  0
  140.6180   69.3020  227.2950 C   0  0  0  0  0  0  0  0  0  0  0  0
  140.9650   68.2470  228.6430 Cl  0  0  0  0  0  0  0  0  0  0  0  0
  140.9660   70.6380  227.3180 C   0  0  0  0  0  0  0  0  0  0  0  0
  140.7020   71.4970  226.2640 C   0  0  0  0  0  0  0  0  0  0  0  0
  140.0670   71.0380  225.1290 C   0  0  0  0  0  0  0  0  0  0  0  0
  139.7910   71.8350  224.0820 N   0  0  0  0  0  0  0  0  0  0  0  0
  138.9810   74.0440  223.0330 H   0  0  0  0  0  0  0  0  0  0  0  0
  137.5893   74.2177  220.4529 H   0  0  0  0  0  0  0  0  0  0  0  0
  138.4172   75.5845  221.2516 H   0  0  0  0  0  0  0  0  0  0  0  0
  142.2005   75.1293  221.8359 H   0  0  0  0  0  0  0  0  0  0  0  0
  141.3564   73.5364  221.5104 H   0  0  0  0  0  0  0  0  0  0  0  0
  143.5347   73.1942  220.9594 H   0  0  0  0  0  0  0  0  0  0  0  0
  142.5988   73.5261  219.3859 H   0  0  0  0  0  0  0  0  0  0  0  0
  144.8209   74.9443  220.6452 H   0  0  0  0  0  0  0  0  0  0  0  0
  144.3378   74.5837  218.8839 H   0  0  0  0  0  0  0  0  0  0  0  0
  143.4725   76.7633  220.6759 H   0  0  0  0  0  0  0  0  0  0  0  0
  144.3502   76.7391  219.0205 H   0  0  0  0  0  0  0  0  0  0  0  0
  142.3621   77.5956  218.5693 H   0  0  0  0  0  0  0  0  0  0  0  0
  142.2768   75.7698  218.1920 H   0  0  0  0  0  0  0  0  0  0  0  0
  140.2841   76.5870  218.9038 H   0  0  0  0  0  0  0  0  0  0  0  0
  139.7326   77.8189  220.5573 H   0  0  0  0  0  0  0  0  0  0  0  0
  142.7079   78.4081  221.0446 H   0  0  0  0  0  0  0  0  0  0  0  0
  141.9367   78.8969  219.5297 H   0  0  0  0  0  0  0  0  0  0  0  0
  141.8200   80.6392  221.4192 H   0  0  0  0  0  0  0  0  0  0  0  0
  140.2205   80.1694  220.7371 H   0  0  0  0  0  0  0  0  0  0  0  0
  140.9174   80.1463  223.4319 H   0  0  0  0  0  0  0  0  0  0  0  0
  139.5336   79.2646  222.6783 H   0  0  0  0  0  0  0  0  0  0  0  0
  142.3486   78.1842  223.0965 H   0  0  0  0  0  0  0  0  0  0  0  0
  140.8526   77.7754  224.0573 H   0  0  0  0  0  0  0  0  0  0  0  0
  141.7340   76.2148  222.1411 H   0  0  0  0  0  0  0  0  0  0  0  0
  139.9753   76.5002  222.4367 H   0  0  0  0  0  0  0  0  0  0  0  0
  138.3018   69.6773  222.0158 H   0  0  0  0  0  0  0  0  0  0  0  0
  138.7855   68.1570  223.9160 H   0  0  0  0  0  0  0  0  0  0  0  0
  139.6840   67.7925  226.0810 H   0  0  0  0  0  0  0  0  0  0  0  0
  141.4733   71.0361  228.2091 H   0  0  0  0  0  0  0  0  0  0  0  0
  141.0011   72.5533  226.3327 H   0  0  0  0  0  0  0  0  0  0  0  0
  1  2  2  0
  2  3  1  0
  3  4  1  0
  4  5  1  0
  5  6  2  0
  5  7  1  0
  7  8  1  0
  8  9  1  0
  9 10  1  0
 10 11  1  0
 11 12  1  0
 12 13  1  0
 13 14  1  0
 14 15  1  0
 15 16  1  0
 16 17  1  0
 17 18  1  0
 18 19  1  0
  2 20  1  0
 20 21  2  0
 21 22  1  0
 22 23  2  0
 23 24  1  0
 24 25  2  0
 25 26  1  0
 25 27  1  0
 27 28  2  0
 28 29  1  0
 29 30  2  0
 13  7  1  0
 19 14  1  0
 30 20  1  0
 29 23  1  0
  3 31  1  0
  4 32  1  0
  4 33  1  0
  8 34  1  0
  8 35  1  0
  9 36  1  0
  9 37  1  0
 10 38  1  0
 10 39  1  0
 11 40  1  0
 11 41  1  0
 12 42  1  0
 12 43  1  0
 13 44  1  6
 14 45  1  0
 15 46  1  0
 15 47  1  0
 16 48  1  0
 16 49  1  0
 17 50  1  0
 17 51  1  0
 18 52  1  0
 18 53  1  0
 19 54  1  0
 19 55  1  0
 21 56  1  0
 22 57  1  0
 24 58  1  0
 27 59  1  0
 28 60  1  0
M  END
>  <smiles>  (40) 
O=C(NCC(=O)N1CCCCCC1C1CCCCC1)c1ccc2cc(Cl)ccc2n1

>  <score_type>  (40) 
oracle

>  <origin>  (40) 
autodockgpu

>  <m_score__min__energy>  (40) 
-7.1299999999999999

>  <m_primary>  (40) 
energy

>  <rmsd>  (40) 
2.1698121993969925

>  <m_score__min__rmsd>  (40) 
2.1698121993969925

>  <meeko>  (40) 
{"free_energy": -5.85, "intermolecular_energy": -9.13, "internal_energy": -1.85, "cluster_size": 16, "cluster_id": 1, "rank_in_cluster": 9}

>  <energy>  (40) 
-5.2

>  <cluster_rmsd>  (40) 
0.0

>  <cluster>  (40) 
8

$$$$

     RDKit          3D

 60 63  0  0  0  0  0  0  0  0999 V2000
  141.1840   73.1430  220.7720 O   0  0  0  0  0  0  0  0  0  0  0  0
  140.4120   73.9820  221.3490 C   0  0  0  0  0  0  0  0  0  0  0  0
  139.2210   73.5480  222.0120 N   0  0  0  0  0  0  0  0  0  0  0  0
  138.9200   72.1280  222.0090 C   0  0  0  0  0  0  0  0  0  0  0  0
  139.5550   71.5260  223.1780 C   0  0  0  0  0  0  0  0  0  0  0  0
  140.7400   71.8040  223.5690 O   0  0  0  0  0  0  0  0  0  0  0  0
  138.8280   70.5710  223.9420 N   0  0  0  0  0  0  0  0  0  0  0  0
  137.4400   70.8370  224.2580 C   0  0  0  0  0  0  0  0  0  0  0  0
  136.5930   69.6290  224.3250 C   0  0  0  0  0  0  0  0  0  0  0  0
  136.6410   68.6860  223.1770 C   0  0  0  0  0  0  0  0  0  0  0  0
  137.9640   68.2640  222.6890 C   0  0  0  0  0  0  0  0  0  0  0  0
  139.0880   68.1480  223.6440 C   0  0  0  0  0  0  0  0  0  0  0  0
  139.5400   69.3570  224.3660 C   0  0  2  0  0  0  0  0  0  0  0  0
  139.5580   69.2480  225.8730 C   0  0  0  0  0  0  0  0  0  0  0  0
  140.4090   70.3490  226.4930 C   0  0  0  0  0  0  0  0  0  0  0  0
  139.9730   70.4350  227.9480 C   0  0  0  0  0  0  0  0  0  0  0  0
  139.9530   69.0500  228.5710 C   0  0  0  0  0  0  0  0  0  0  0  0
  140.7030   68.0610  227.7040 C   0  0  0  0  0  0  0  0  0  0  0  0
  140.1380   67.9360  226.3330 C   0  0  0  0  0  0  0  0  0  0  0  0
  140.7460   75.4020  221.3340 C   0  0  0  0  0  0  0  0  0  0  0  0
  141.6460   75.8830  220.4070 C   0  0  0  0  0  0  0  0  0  0  0  0
  141.9700   77.2270  220.3830 C   0  0  0  0  0  0  0  0  0  0  0  0
  141.3890   78.0960  221.2920 C   0  0  0  0  0  0  0  0  0  0  0  0
  141.7170   79.4350  221.2610 C   0  0  0  0  0  0  0  0  0  0  0  0
  141.1550   80.3290  222.1560 C   0  0  0  0  0  0  0  0  0  0  0  0
  141.5530   82.0290  222.1410 Cl  0  0  0  0  0  0  0  0  0  0  0  0
  140.2590   79.8070  223.0680 C   0  0  0  0  0  0  0  0  0  0  0  0
  139.9260   78.4620  223.1020 C   0  0  0  0  0  0  0  0  0  0  0  0
  140.4910   77.5780  222.2070 C   0  0  0  0  0  0  0  0  0  0  0  0
  140.1980   76.2660  222.2040 N   0  0  0  0  0  0  0  0  0  0  0  0
  138.6240   74.2690  222.4680 H   0  0  0  0  0  0  0  0  0  0  0  0
  137.8314   71.9777  222.0575 H   0  0  0  0  0  0  0  0  0  0  0  0
  139.2980   71.6608  221.0877 H   0  0  0  0  0  0  0  0  0  0  0  0
  137.3990   71.3419  225.2344 H   0  0  0  0  0  0  0  0  0  0  0  0
  137.0427   71.4572  223.4410 H   0  0  0  0  0  0  0  0  0  0  0  0
  136.8912   69.0683  225.2232 H   0  0  0  0  0  0  0  0  0  0  0  0
  135.5620   70.0125  224.3264 H   0  0  0  0  0  0  0  0  0  0  0  0
  136.0967   67.7779  223.4756 H   0  0  0  0  0  0  0  0  0  0  0  0
  136.2036   69.2483  222.3388 H   0  0  0  0  0  0  0  0  0  0  0  0
  137.8339   67.2748  222.2257 H   0  0  0  0  0  0  0  0  0  0  0  0
  138.2706   69.0871  222.0268 H   0  0  0  0  0  0  0  0  0  0  0  0
  138.7911   67.4103  224.4040 H   0  0  0  0  0  0  0  0  0  0  0  0
  139.9470   67.8808  223.0110 H   0  0  0  0  0  0  0  0  0  0  0  0
  140.5950   69.4434  224.0668 H   0  0  0  0  0  0  0  0  0  0  0  0
  138.5093   69.3336  226.1938 H   0  0  0  0  0  0  0  0  0  0  0  0
  141.4765   70.0920  226.4269 H   0  0  0  0  0  0  0  0  0  0  0  0
  140.2755   71.3082  225.9714 H   0  0  0  0  0  0  0  0  0  0  0  0
  140.6779   71.0726  228.5017 H   0  0  0  0  0  0  0  0  0  0  0  0
  138.9617   70.8651  227.9954 H   0  0  0  0  0  0  0  0  0  0  0  0
  140.4277   69.0934  229.5624 H   0  0  0  0  0  0  0  0  0  0  0  0
  138.9080   68.7186  228.6617 H   0  0  0  0  0  0  0  0  0  0  0  0
  141.7491   68.3911  227.6221 H   0  0  0  0  0  0  0  0  0  0  0  0
  140.6168   67.0750  228.1839 H   0  0  0  0  0  0  0  0  0  0  0  0
  140.9363   67.6316  225.6401 H   0  0  0  0  0  0  0  0  0  0  0  0
  139.3372   67.1820  226.3485 H   0  0  0  0  0  0  0  0  0  0  0  0
  142.1081   75.1950  219.6837 H   0  0  0  0  0  0  0  0  0  0  0  0
  142.6892   77.6062  219.6420 H   0  0  0  0  0  0  0  0  0  0  0  0
  142.4369   79.7986  220.5130 H   0  0  0  0  0  0  0  0  0  0  0  0
  139.7910   80.4856  223.7964 H   0  0  0  0  0  0  0  0  0  0  0  0
  139.2055   78.0969  223.8487 H   0  0  0  0  0  0  0  0  0  0  0  0
  1  2  2  0
  2  3  1  0
  3  4  1  0
  4  5  1  0
  5  6  2  0
  5  7  1  0
  7  8  1  0
  8  9  1  0
  9 10  1  0
 10 11  1  0
 11 12  1  0
 12 13  1  0
 13 14  1  0
 14 15  1  0
 15 16  1  0
 16 17  1  0
 17 18  1  0
 18 19  1  0
  2 20  1  0
 20 21  2  0
 21 22  1  0
 22 23  2  0
 23 24  1  0
 24 25  2  0
 25 26  1  0
 25 27  1  0
 27 28  2  0
 28 29  1  0
 29 30  2  0
 13  7  1  0
 19 14  1  0
 30 20  1  0
 29 23  1  0
  3 31  1  0
  4 32  1  0
  4 33  1  0
  8 34  1  0
  8 35  1  0
  9 36  1  0
  9 37  1  0
 10 38  1  0
 10 39  1  0
 11 40  1  0
 11 41  1  0
 12 42  1  0
 12 43  1  0
 13 44  1  6
 14 45  1  0
 15 46  1  0
 15 47  1  0
 16 48  1  0
 16 49  1  0
 17 50  1  0
 17 51  1  0
 18 52  1  0
 18 53  1  0
 19 54  1  0
 19 55  1  0
 21 56  1  0
 22 57  1  0
 24 58  1  0
 27 59  1  0
 28 60  1  0
M  END
>  <smiles>  (41) 
O=C(NCC(=O)N1CCCCCC1C1CCCCC1)c1ccc2cc(Cl)ccc2n1

>  <score_type>  (41) 
oracle

>  <origin>  (41) 
autodockgpu

>  <m_score__min__energy>  (41) 
-7.1299999999999999

>  <m_primary>  (41) 
energy

>  <rmsd>  (41) 
8.405758578792954

>  <m_score__min__rmsd>  (41) 
8.405758578792954

>  <meeko>  (41) 
{"free_energy": -5.8, "intermolecular_energy": -9.08, "internal_energy": -1.87, "cluster_size": 5, "cluster_id": 2, "rank_in_cluster": 3}

>  <energy>  (41) 
-5.16

>  <cluster_rmsd>  (41) 
0.0

>  <cluster>  (41) 
9

$$$$

     RDKit          3D

 60 63  0  0  0  0  0  0  0  0999 V2000
  140.0270   72.4480  220.8320 O   0  0  0  0  0  0  0  0  0  0  0  0
  139.4270   72.6770  221.9370 C   0  0  0  0  0  0  0  0  0  0  0  0
  138.6090   73.8390  222.1010 N   0  0  0  0  0  0  0  0  0  0  0  0
  138.4820   74.7460  220.9750 C   0  0  0  0  0  0  0  0  0  0  0  0
  138.8580   76.0840  221.4250 C   0  0  0  0  0  0  0  0  0  0  0  0
  138.0430   76.9150  221.9540 O   0  0  0  0  0  0  0  0  0  0  0  0
  140.2080   76.5070  221.2730 N   0  0  0  0  0  0  0  0  0  0  0  0
  141.2730   75.5720  221.5730 C   0  0  0  0  0  0  0  0  0  0  0  0
  141.8390   74.9010  220.3860 C   0  0  0  0  0  0  0  0  0  0  0  0
  142.5490   75.7430  219.3880 C   0  0  0  0  0  0  0  0  0  0  0  0
  142.5660   77.1990  219.6050 C   0  0  0  0  0  0  0  0  0  0  0  0
  141.2890   77.9470  219.6050 C   0  0  0  0  0  0  0  0  0  0  0  0
  140.4400   77.8830  220.8140 C   0  0  2  0  0  0  0  0  0  0  0  0
  140.8750   78.7640  221.9630 C   0  0  0  0  0  0  0  0  0  0  0  0
  139.8090   79.8010  222.2930 C   0  0  0  0  0  0  0  0  0  0  0  0
  140.1210   80.2760  223.7040 C   0  0  0  0  0  0  0  0  0  0  0  0
  141.5930   80.6360  223.8220 C   0  0  0  0  0  0  0  0  0  0  0  0
  142.2230   80.7680  222.4510 C   0  0  0  0  0  0  0  0  0  0  0  0
  142.1360   79.5210  221.6430 C   0  0  0  0  0  0  0  0  0  0  0  0
  139.5760   71.7440  223.0490 C   0  0  0  0  0  0  0  0  0  0  0  0
  139.1070   70.4530  222.9250 C   0  0  0  0  0  0  0  0  0  0  0  0
  139.2430   69.5590  223.9720 C   0  0  0  0  0  0  0  0  0  0  0  0
  139.8520   69.9600  225.1500 C   0  0  0  0  0  0  0  0  0  0  0  0
  139.9840   69.0620  226.1880 C   0  0  0  0  0  0  0  0  0  0  0  0
  140.5880   69.4300  227.3780 C   0  0  0  0  0  0  0  0  0  0  0  0
  140.7670   68.3160  228.7100 Cl  0  0  0  0  0  0  0  0  0  0  0  0
  141.0430   70.7320  227.4600 C   0  0  0  0  0  0  0  0  0  0  0  0
  140.9130   71.6370  226.4190 C   0  0  0  0  0  0  0  0  0  0  0  0
  140.3100   71.2610  225.2370 C   0  0  0  0  0  0  0  0  0  0  0  0
  140.1630   72.1050  224.2010 N   0  0  0  0  0  0  0  0  0  0  0  0
  138.1410   73.9820  223.0190 H   0  0  0  0  0  0  0  0  0  0  0  0
  139.1488   74.4254  220.1610 H   0  0  0  0  0  0  0  0  0  0  0  0
  137.4475   74.7465  220.6010 H   0  0  0  0  0  0  0  0  0  0  0  0
  142.0818   76.1203  222.0782 H   0  0  0  0  0  0  0  0  0  0  0  0
  140.8349   74.7843  222.2035 H   0  0  0  0  0  0  0  0  0  0  0  0
  142.5530   74.1453  220.7453 H   0  0  0  0  0  0  0  0  0  0  0  0
  140.9648   74.5082  219.8460 H   0  0  0  0  0  0  0  0  0  0  0  0
  143.5949   75.4038  219.3576 H   0  0  0  0  0  0  0  0  0  0  0  0
  141.9787   75.6087  218.4570 H   0  0  0  0  0  0  0  0  0  0  0  0
  143.0391   77.3720  220.5829 H   0  0  0  0  0  0  0  0  0  0  0  0
  143.0950   77.5874  218.7222 H   0  0  0  0  0  0  0  0  0  0  0  0
  141.5317   79.0060  219.4330 H   0  0  0  0  0  0  0  0  0  0  0  0
  140.6876   77.4582  218.8243 H   0  0  0  0  0  0  0  0  0  0  0  0
  139.4847   78.3046  220.4681 H   0  0  0  0  0  0  0  0  0  0  0  0
  141.0435   78.0876  222.8139 H   0  0  0  0  0  0  0  0  0  0  0  0
  139.8593   80.6416  221.5853 H   0  0  0  0  0  0  0  0  0  0  0  0
  138.7957   79.3792  222.2210 H   0  0  0  0  0  0  0  0  0  0  0  0
  139.5106   81.1621  223.9326 H   0  0  0  0  0  0  0  0  0  0  0  0
  139.8905   79.4683  224.4143 H   0  0  0  0  0  0  0  0  0  0  0  0
  141.6892   81.5922  224.3572 H   0  0  0  0  0  0  0  0  0  0  0  0
  142.1097   79.8366  224.3733 H   0  0  0  0  0  0  0  0  0  0  0  0
  141.7094   81.5740  221.9064 H   0  0  0  0  0  0  0  0  0  0  0  0
  143.2906   80.9860  222.6016 H   0  0  0  0  0  0  0  0  0  0  0  0
  142.1383   79.7826  220.5746 H   0  0  0  0  0  0  0  0  0  0  0  0
  143.0002   78.8842  221.8830 H   0  0  0  0  0  0  0  0  0  0  0  0
  138.6231   70.1330  221.9904 H   0  0  0  0  0  0  0  0  0  0  0  0
  138.8677   68.5301  223.8692 H   0  0  0  0  0  0  0  0  0  0  0  0
  139.6033   68.0369  226.0686 H   0  0  0  0  0  0  0  0  0  0  0  0
  141.5283   71.0636  228.3898 H   0  0  0  0  0  0  0  0  0  0  0  0
  141.2933   72.6625  226.5361 H   0  0  0  0  0  0  0  0  0  0  0  0
  1  2  2  0
  2  3  1  0
  3  4  1  0
  4  5  1  0
  5  6  2  0
  5  7  1  0
  7  8  1  0
  8  9  1  0
  9 10  1  0
 10 11  1  0
 11 12  1  0
 12 13  1  0
 13 14  1  0
 14 15  1  0
 15 16  1  0
 16 17  1  0
 17 18  1  0
 18 19  1  0
  2 20  1  0
 20 21  2  0
 21 22  1  0
 22 23  2  0
 23 24  1  0
 24 25  2  0
 25 26  1  0
 25 27  1  0
 27 28  2  0
 28 29  1  0
 29 30  2  0
 13  7  1  0
 19 14  1  0
 30 20  1  0
 29 23  1  0
  3 31  1  0
  4 32  1  0
  4 33  1  0
  8 34  1  0
  8 35  1  0
  9 36  1  0
  9 37  1  0
 10 38  1  0
 10 39  1  0
 11 40  1  0
 11 41  1  0
 12 42  1  0
 12 43  1  0
 13 44  1  6
 14 45  1  0
 15 46  1  0
 15 47  1  0
 16 48  1  0
 16 49  1  0
 17 50  1  0
 17 51  1  0
 18 52  1  0
 18 53  1  0
 19 54  1  0
 19 55  1  0
 21 56  1  0
 22 57  1  0
 24 58  1  0
 27 59  1  0
 28 60  1  0
M  END
>  <smiles>  (42) 
O=C(NCC(=O)N1CCCCCC1C1CCCCC1)c1ccc2cc(Cl)ccc2n1

>  <score_type>  (42) 
oracle

>  <origin>  (42) 
autodockgpu

>  <m_score__min__energy>  (42) 
-7.1299999999999999

>  <m_primary>  (42) 
energy

>  <rmsd>  (42) 
2.1305460179191726

>  <m_score__min__rmsd>  (42) 
2.1305460179191726

>  <meeko>  (42) 
{"free_energy": -6.88, "intermolecular_energy": -10.17, "internal_energy": -1.79, "cluster_size": 16, "cluster_id": 1, "rank_in_cluster": 2}

>  <energy>  (42) 
-5.04

>  <cluster_rmsd>  (42) 
0.0

>  <cluster>  (42) 
10

$$$$

     RDKit          3D

 60 63  0  0  0  0  0  0  0  0999 V2000
  137.2320   70.8870  221.0440 O   0  0  0  0  0  0  0  0  0  0  0  0
  137.8600   71.5220  221.9590 C   0  0  0  0  0  0  0  0  0  0  0  0
  138.0150   72.9420  221.8930 N   0  0  0  0  0  0  0  0  0  0  0  0
  137.4370   73.6370  220.7580 C   0  0  0  0  0  0  0  0  0  0  0  0
  138.3060   74.7620  220.4230 C   0  0  0  0  0  0  0  0  0  0  0  0
  138.6950   75.0360  219.2360 O   0  0  0  0  0  0  0  0  0  0  0  0
  138.7580   75.6170  221.4670 N   0  0  0  0  0  0  0  0  0  0  0  0
  137.8140   76.5230  222.0870 C   0  0  0  0  0  0  0  0  0  0  0  0
  138.0420   77.9460  221.7650 C   0  0  0  0  0  0  0  0  0  0  0  0
  139.1450   78.6470  222.4730 C   0  0  0  0  0  0  0  0  0  0  0  0
  140.3440   77.8670  222.8220 C   0  0  0  0  0  0  0  0  0  0  0  0
  140.8440   76.8420  221.8800 C   0  0  0  0  0  0  0  0  0  0  0  0
  140.1720   75.5250  221.8550 C   0  0  2  0  0  0  0  0  0  0  0  0
  140.8750   74.4490  221.0610 C   0  0  0  0  0  0  0  0  0  0  0  0
  141.0410   73.1780  221.8840 C   0  0  0  0  0  0  0  0  0  0  0  0
  141.2950   72.0660  220.8780 C   0  0  0  0  0  0  0  0  0  0  0  0
  142.3810   72.4830  219.9000 C   0  0  0  0  0  0  0  0  0  0  0  0
  143.1310   73.6940  220.4160 C   0  0  0  0  0  0  0  0  0  0  0  0
  142.2550   74.8770  220.6350 C   0  0  0  0  0  0  0  0  0  0  0  0
  138.4280   70.7910  223.0870 C   0  0  0  0  0  0  0  0  0  0  0  0
  138.2570   69.4250  223.1740 C   0  0  0  0  0  0  0  0  0  0  0  0
  138.7910   68.7230  224.2380 C   0  0  0  0  0  0  0  0  0  0  0  0
  139.5000   69.3900  225.2230 C   0  0  0  0  0  0  0  0  0  0  0  0
  140.0290   68.6820  226.2810 C   0  0  0  0  0  0  0  0  0  0  0  0
  140.7420   69.3190  227.2810 C   0  0  0  0  0  0  0  0  0  0  0  0
  141.4230   68.4490  228.6340 Cl  0  0  0  0  0  0  0  0  0  0  0  0
  140.8900   70.6870  227.1580 C   0  0  0  0  0  0  0  0  0  0  0  0
  140.3600   71.4020  226.0960 C   0  0  0  0  0  0  0  0  0  0  0  0
  139.6500   70.7590  225.1030 C   0  0  0  0  0  0  0  0  0  0  0  0
  139.1190   71.4130  224.0550 N   0  0  0  0  0  0  0  0  0  0  0  0
  138.5340   73.4140  222.6620 H   0  0  0  0  0  0  0  0  0  0  0  0
  137.3651   72.9531  219.8994 H   0  0  0  0  0  0  0  0  0  0  0  0
  136.4273   73.9965  221.0057 H   0  0  0  0  0  0  0  0  0  0  0  0
  136.8025   76.2508  221.7511 H   0  0  0  0  0  0  0  0  0  0  0  0
  137.9432   76.4197  223.1745 H   0  0  0  0  0  0  0  0  0  0  0  0
  138.2512   78.0093  220.6869 H   0  0  0  0  0  0  0  0  0  0  0  0
  137.1275   78.4568  222.1009 H   0  0  0  0  0  0  0  0  0  0  0  0
  139.4705   79.4786  221.8307 H   0  0  0  0  0  0  0  0  0  0  0  0
  138.7117   78.9359  223.4419 H   0  0  0  0  0  0  0  0  0  0  0  0
  141.1612   78.5872  222.9750 H   0  0  0  0  0  0  0  0  0  0  0  0
  140.0263   77.2814  223.6973 H   0  0  0  0  0  0  0  0  0  0  0  0
  140.7681   77.2655  220.8676 H   0  0  0  0  0  0  0  0  0  0  0  0
  141.8614   76.6207  222.2348 H   0  0  0  0  0  0  0  0  0  0  0  0
  140.2299   75.1979  222.9036 H   0  0  0  0  0  0  0  0  0  0  0  0
  140.2442   74.2665  220.1786 H   0  0  0  0  0  0  0  0  0  0  0  0
  141.8940   73.2752  222.5717 H   0  0  0  0  0  0  0  0  0  0  0  0
  140.1521   72.9737  222.4989 H   0  0  0  0  0  0  0  0  0  0  0  0
  141.6151   71.1590  221.4117 H   0  0  0  0  0  0  0  0  0  0  0  0
  140.3675   71.8659  220.3215 H   0  0  0  0  0  0  0  0  0  0  0  0
  143.0873   71.6501  219.7682 H   0  0  0  0  0  0  0  0  0  0  0  0
  141.9113   72.7411  218.9394 H   0  0  0  0  0  0  0  0  0  0  0  0
  143.6066   73.4294  221.3720 H   0  0  0  0  0  0  0  0  0  0  0  0
  143.8697   73.9718  219.6498 H   0  0  0  0  0  0  0  0  0  0  0  0
  142.6943   75.5108  221.4194 H   0  0  0  0  0  0  0  0  0  0  0  0
  142.1751   75.4362  219.6911 H   0  0  0  0  0  0  0  0  0  0  0  0
  137.6936   68.8925  222.3936 H   0  0  0  0  0  0  0  0  0  0  0  0
  138.6527   67.6336  224.3025 H   0  0  0  0  0  0  0  0  0  0  0  0
  139.8819   67.5930  226.3309 H   0  0  0  0  0  0  0  0  0  0  0  0
  141.4504   71.2298  227.9334 H   0  0  0  0  0  0  0  0  0  0  0  0
  140.5065   72.4910  226.0442 H   0  0  0  0  0  0  0  0  0  0  0  0
  1  2  2  0
  2  3  1  0
  3  4  1  0
  4  5  1  0
  5  6  2  0
  5  7  1  0
  7  8  1  0
  8  9  1  0
  9 10  1  0
 10 11  1  0
 11 12  1  0
 12 13  1  0
 13 14  1  0
 14 15  1  0
 15 16  1  0
 16 17  1  0
 17 18  1  0
 18 19  1  0
  2 20  1  0
 20 21  2  0
 21 22  1  0
 22 23  2  0
 23 24  1  0
 24 25  2  0
 25 26  1  0
 25 27  1  0
 27 28  2  0
 28 29  1  0
 29 30  2  0
 13  7  1  0
 19 14  1  0
 30 20  1  0
 29 23  1  0
  3 31  1  0
  4 32  1  0
  4 33  1  0
  8 34  1  0
  8 35  1  0
  9 36  1  0
  9 37  1  0
 10 38  1  0
 10 39  1  0
 11 40  1  0
 11 41  1  0
 12 42  1  0
 12 43  1  0
 13 44  1  1
 14 45  1  0
 15 46  1  0
 15 47  1  0
 16 48  1  0
 16 49  1  0
 17 50  1  0
 17 51  1  0
 18 52  1  0
 18 53  1  0
 19 54  1  0
 19 55  1  0
 21 56  1  0
 22 57  1  0
 24 58  1  0
 27 59  1  0
 28 60  1  0
M  END
>  <smiles>  (43) 
O=C(NCC(=O)N1CCCCCC1C1CCCCC1)c1ccc2cc(Cl)ccc2n1

>  <score_type>  (43) 
oracle

>  <origin>  (43) 
autodockgpu

>  <m_score__min__energy>  (43) 
-7.1299999999999999

>  <m_primary>  (43) 
energy

>  <rmsd>  (43) 
2.6340904467331696

>  <m_score__min__rmsd>  (43) 
2.6340904467331696

>  <meeko>  (43) 
{"free_energy": -5.24, "intermolecular_energy": -8.53, "internal_energy": -2.61, "cluster_size": 10, "cluster_id": 4, "rank_in_cluster": 7}

>  <energy>  (43) 
-4.72

>  <cluster_rmsd>  (43) 
0.0

>  <cluster>  (43) 
11

$$$$

     RDKit          3D

 60 63  0  0  0  0  0  0  0  0999 V2000
  138.6010   71.3260  220.7970 O   0  0  0  0  0  0  0  0  0  0  0  0
  138.9010   71.8670  221.9160 C   0  0  0  0  0  0  0  0  0  0  0  0
  138.9310   73.2890  222.0590 N   0  0  0  0  0  0  0  0  0  0  0  0
  138.6090   74.0970  220.8960 C   0  0  0  0  0  0  0  0  0  0  0  0
  139.6740   73.9210  219.9120 C   0  0  0  0  0  0  0  0  0  0  0  0
  139.4950   73.4280  218.7460 O   0  0  0  0  0  0  0  0  0  0  0  0
  140.9980   74.3170  220.2520 N   0  0  0  0  0  0  0  0  0  0  0  0
  141.8100   73.4280  221.0570 C   0  0  0  0  0  0  0  0  0  0  0  0
  143.0800   73.0260  220.4200 C   0  0  0  0  0  0  0  0  0  0  0  0
  144.1960   74.0070  220.4230 C   0  0  0  0  0  0  0  0  0  0  0  0
  143.9850   75.2910  219.7330 C   0  0  0  0  0  0  0  0  0  0  0  0
  142.7260   75.5210  218.9910 C   0  0  0  0  0  0  0  0  0  0  0  0
  141.4650   75.6200  219.7580 C   0  0  2  0  0  0  0  0  0  0  0  0
  141.4540   76.6470  220.8650 C   0  0  0  0  0  0  0  0  0  0  0  0
  140.0350   76.9240  221.3440 C   0  0  0  0  0  0  0  0  0  0  0  0
  140.1810   77.5610  222.7170 C   0  0  0  0  0  0  0  0  0  0  0  0
  141.1980   78.6890  222.6660 C   0  0  0  0  0  0  0  0  0  0  0  0
  141.4880   79.0840  221.2330 C   0  0  0  0  0  0  0  0  0  0  0  0
  142.0280   77.9640  220.4140 C   0  0  0  0  0  0  0  0  0  0  0  0
  139.2170   71.0250  223.0640 C   0  0  0  0  0  0  0  0  0  0  0  0
  138.8760   69.6890  223.0490 C   0  0  0  0  0  0  0  0  0  0  0  0
  139.1710   68.8810  224.1310 C   0  0  0  0  0  0  0  0  0  0  0  0
  139.8130   69.4130  225.2380 C   0  0  0  0  0  0  0  0  0  0  0  0
  140.1040   68.6010  226.3130 C   0  0  0  0  0  0  0  0  0  0  0  0
  140.7440   69.1010  227.4330 C   0  0  0  0  0  0  0  0  0  0  0  0
  141.1240   68.0970  228.8100 Cl  0  0  0  0  0  0  0  0  0  0  0  0
  141.0690   70.4440  227.4090 C   0  0  0  0  0  0  0  0  0  0  0  0
  140.7780   71.2640  226.3310 C   0  0  0  0  0  0  0  0  0  0  0  0
  140.1400   70.7560  225.2180 C   0  0  0  0  0  0  0  0  0  0  0  0
  139.8390   71.5150  224.1490 N   0  0  0  0  0  0  0  0  0  0  0  0
  139.1810   73.6830  222.9890 H   0  0  0  0  0  0  0  0  0  0  0  0
  137.6493   73.7702  220.4691 H   0  0  0  0  0  0  0  0  0  0  0  0
  138.5237   75.1563  221.1798 H   0  0  0  0  0  0  0  0  0  0  0  0
  142.0447   73.9371  222.0034 H   0  0  0  0  0  0  0  0  0  0  0  0
  141.2239   72.5085  221.2020 H   0  0  0  0  0  0  0  0  0  0  0  0
  143.4354   72.1227  220.9375 H   0  0  0  0  0  0  0  0  0  0  0  0
  142.8283   72.8951  219.3572 H   0  0  0  0  0  0  0  0  0  0  0  0
  144.4302   74.2340  221.4736 H   0  0  0  0  0  0  0  0  0  0  0  0
  144.9979   73.5152  219.8528 H   0  0  0  0  0  0  0  0  0  0  0  0
  144.0551   76.0798  220.4965 H   0  0  0  0  0  0  0  0  0  0  0  0
  144.7527   75.2901  218.9452 H   0  0  0  0  0  0  0  0  0  0  0  0
  142.8435   76.4631  218.4355 H   0  0  0  0  0  0  0  0  0  0  0  0
  142.6014   74.6133  218.3822 H   0  0  0  0  0  0  0  0  0  0  0  0
  140.7488   75.9913  219.0102 H   0  0  0  0  0  0  0  0  0  0  0  0
  142.0662   76.2227  221.6744 H   0  0  0  0  0  0  0  0  0  0  0  0
  139.5249   77.6124  220.6541 H   0  0  0  0  0  0  0  0  0  0  0  0
  139.4336   76.0039  221.3853 H   0  0  0  0  0  0  0  0  0  0  0  0
  139.2082   77.9629  223.0365 H   0  0  0  0  0  0  0  0  0  0  0  0
  140.5253   76.7990  223.4317 H   0  0  0  0  0  0  0  0  0  0  0  0
  140.7989   79.5597  223.2068 H   0  0  0  0  0  0  0  0  0  0  0  0
  142.1320   78.3444  223.1338 H   0  0  0  0  0  0  0  0  0  0  0  0
  140.5536   79.4359  220.7714 H   0  0  0  0  0  0  0  0  0  0  0  0
  142.2571   79.8700  221.2597 H   0  0  0  0  0  0  0  0  0  0  0  0
  141.7653   78.1295  219.3587 H   0  0  0  0  0  0  0  0  0  0  0  0
  143.1208   77.9328  220.5360 H   0  0  0  0  0  0  0  0  0  0  0  0
  138.3666   69.2641  222.1715 H   0  0  0  0  0  0  0  0  0  0  0  0
  138.8963   67.8160  224.1134 H   0  0  0  0  0  0  0  0  0  0  0  0
  139.8228   67.5381  226.2799 H   0  0  0  0  0  0  0  0  0  0  0  0
  141.5792   70.8794  228.2809 H   0  0  0  0  0  0  0  0  0  0  0  0
  141.0575   72.3274  226.3625 H   0  0  0  0  0  0  0  0  0  0  0  0
  1  2  2  0
  2  3  1  0
  3  4  1  0
  4  5  1  0
  5  6  2  0
  5  7  1  0
  7  8  1  0
  8  9  1  0
  9 10  1  0
 10 11  1  0
 11 12  1  0
 12 13  1  0
 13 14  1  0
 14 15  1  0
 15 16  1  0
 16 17  1  0
 17 18  1  0
 18 19  1  0
  2 20  1  0
 20 21  2  0
 21 22  1  0
 22 23  2  0
 23 24  1  0
 24 25  2  0
 25 26  1  0
 25 27  1  0
 27 28  2  0
 28 29  1  0
 29 30  2  0
 13  7  1  0
 19 14  1  0
 30 20  1  0
 29 23  1  0
  3 31  1  0
  4 32  1  0
  4 33  1  0
  8 34  1  0
  8 35  1  0
  9 36  1  0
  9 37  1  0
 10 38  1  0
 10 39  1  0
 11 40  1  0
 11 41  1  0
 12 42  1  0
 12 43  1  0
 13 44  1  6
 14 45  1  0
 15 46  1  0
 15 47  1  0
 16 48  1  0
 16 49  1  0
 17 50  1  0
 17 51  1  0
 18 52  1  0
 18 53  1  0
 19 54  1  0
 19 55  1  0
 21 56  1  0
 22 57  1  0
 24 58  1  0
 27 59  1  0
 28 60  1  0
M  END
>  <smiles>  (44) 
O=C(NCC(=O)N1CCCCCC1C1CCCCC1)c1ccc2cc(Cl)ccc2n1

>  <score_type>  (44) 
oracle

>  <origin>  (44) 
autodockgpu

>  <m_score__min__energy>  (44) 
-7.1299999999999999

>  <m_primary>  (44) 
energy

>  <rmsd>  (44) 
2.3472597012430403

>  <m_score__min__rmsd>  (44) 
2.3472597012430403

>  <meeko>  (44) 
{"free_energy": -5.78, "intermolecular_energy": -9.06, "internal_energy": -2.13, "cluster_size": 10, "cluster_id": 4, "rank_in_cluster": 1}

>  <energy>  (44) 
-4.71

>  <cluster_rmsd>  (44) 
0.0

>  <cluster>  (44) 
12

$$$$

     RDKit          3D

 60 63  0  0  0  0  0  0  0  0999 V2000
  137.4280   80.5130  221.5110 O   0  0  0  0  0  0  0  0  0  0  0  0
  137.6530   79.8740  222.5950 C   0  0  0  0  0  0  0  0  0  0  0  0
  138.4040   78.6570  222.5870 N   0  0  0  0  0  0  0  0  0  0  0  0
  138.9030   78.1730  221.3120 C   0  0  0  0  0  0  0  0  0  0  0  0
  140.2590   77.6720  221.5150 C   0  0  0  0  0  0  0  0  0  0  0  0
  140.5830   76.8400  222.4300 O   0  0  0  0  0  0  0  0  0  0  0  0
  141.2970   78.1250  220.6540 N   0  0  0  0  0  0  0  0  0  0  0  0
  142.2200   77.1560  220.1000 C   0  0  0  0  0  0  0  0  0  0  0  0
  142.0060   76.8700  218.6670 C   0  0  0  0  0  0  0  0  0  0  0  0
  141.2320   77.8590  217.8720 C   0  0  0  0  0  0  0  0  0  0  0  0
  141.6930   79.2570  217.8770 C   0  0  0  0  0  0  0  0  0  0  0  0
  142.1320   79.8750  219.1490 C   0  0  0  0  0  0  0  0  0  0  0  0
  141.3680   79.5660  220.3760 C   0  0  2  0  0  0  0  0  0  0  0  0
  141.7840   80.3290  221.6130 C   0  0  0  0  0  0  0  0  0  0  0  0
  142.5950   79.4480  222.5540 C   0  0  0  0  0  0  0  0  0  0  0  0
  143.3420   80.4050  223.4710 C   0  0  0  0  0  0  0  0  0  0  0  0
  142.3860   81.4410  224.0370 C   0  0  0  0  0  0  0  0  0  0  0  0
  140.9480   81.0150  223.8270 C   0  0  0  0  0  0  0  0  0  0  0  0
  140.5960   80.8250  222.3930 C   0  0  0  0  0  0  0  0  0  0  0  0
  137.1370   80.3890  223.8590 C   0  0  0  0  0  0  0  0  0  0  0  0
  137.9160   81.2330  224.6210 C   0  0  0  0  0  0  0  0  0  0  0  0
  137.4380   81.7280  225.8210 C   0  0  0  0  0  0  0  0  0  0  0  0
  136.1730   81.3760  226.2600 C   0  0  0  0  0  0  0  0  0  0  0  0
  135.7030   81.8740  227.4570 C   0  0  0  0  0  0  0  0  0  0  0  0
  134.4440   81.5420  227.9240 C   0  0  0  0  0  0  0  0  0  0  0  0
  133.8240   82.1550  229.4370 Cl  0  0  0  0  0  0  0  0  0  0  0  0
  133.6970   80.6930  227.1310 C   0  0  0  0  0  0  0  0  0  0  0  0
  134.1640   80.1910  225.9280 C   0  0  0  0  0  0  0  0  0  0  0  0
  135.4210   80.5270  225.4690 C   0  0  0  0  0  0  0  0  0  0  0  0
  135.9150   80.0640  224.3080 N   0  0  0  0  0  0  0  0  0  0  0  0
  138.5610   78.1720  223.4940 H   0  0  0  0  0  0  0  0  0  0  0  0
  138.2576   77.3624  220.9427 H   0  0  0  0  0  0  0  0  0  0  0  0
  138.9045   78.9856  220.5706 H   0  0  0  0  0  0  0  0  0  0  0  0
  143.2425   77.5414  220.2264 H   0  0  0  0  0  0  0  0  0  0  0  0
  142.0517   76.2127  220.6403 H   0  0  0  0  0  0  0  0  0  0  0  0
  142.9972   76.7764  218.1993 H   0  0  0  0  0  0  0  0  0  0  0  0
  141.3883   75.9599  218.6549 H   0  0  0  0  0  0  0  0  0  0  0  0
  141.2373   77.5158  216.8269 H   0  0  0  0  0  0  0  0  0  0  0  0
  140.2450   77.8916  218.3566 H   0  0  0  0  0  0  0  0  0  0  0  0
  142.5437   79.3159  217.1822 H   0  0  0  0  0  0  0  0  0  0  0  0
  140.7912   79.8276  217.6101 H   0  0  0  0  0  0  0  0  0  0  0  0
  143.1711   79.5590  219.3236 H   0  0  0  0  0  0  0  0  0  0  0  0
  141.9771   80.9532  218.9958 H   0  0  0  0  0  0  0  0  0  0  0  0
  140.3578   79.9286  220.1351 H   0  0  0  0  0  0  0  0  0  0  0  0
  142.3837   81.1787  221.2547 H   0  0  0  0  0  0  0  0  0  0  0  0
  141.9291   78.7969  223.1394 H   0  0  0  0  0  0  0  0  0  0  0  0
  143.2846   78.7917  222.0029 H   0  0  0  0  0  0  0  0  0  0  0  0
  143.7944   79.8377  224.2977 H   0  0  0  0  0  0  0  0  0  0  0  0
  144.1263   80.9169  222.8941 H   0  0  0  0  0  0  0  0  0  0  0  0
  142.5748   81.5557  225.1146 H   0  0  0  0  0  0  0  0  0  0  0  0
  142.5512   82.3958  223.5164 H   0  0  0  0  0  0  0  0  0  0  0  0
  140.7841   80.0646  224.3561 H   0  0  0  0  0  0  0  0  0  0  0  0
  140.3082   81.8205  224.2166 H   0  0  0  0  0  0  0  0  0  0  0  0
  139.7813   80.0899  222.3158 H   0  0  0  0  0  0  0  0  0  0  0  0
  140.2791   81.7924  221.9762 H   0  0  0  0  0  0  0  0  0  0  0  0
  138.9212   81.5139  224.2737 H   0  0  0  0  0  0  0  0  0  0  0  0
  138.0628   82.4012  226.4263 H   0  0  0  0  0  0  0  0  0  0  0  0
  136.3399   82.5465  228.0504 H   0  0  0  0  0  0  0  0  0  0  0  0
  132.6908   80.4041  227.4686 H   0  0  0  0  0  0  0  0  0  0  0  0
  133.5277   79.5189  225.3335 H   0  0  0  0  0  0  0  0  0  0  0  0
  1  2  2  0
  2  3  1  0
  3  4  1  0
  4  5  1  0
  5  6  2  0
  5  7  1  0
  7  8  1  0
  8  9  1  0
  9 10  1  0
 10 11  1  0
 11 12  1  0
 12 13  1  0
 13 14  1  0
 14 15  1  0
 15 16  1  0
 16 17  1  0
 17 18  1  0
 18 19  1  0
  2 20  1  0
 20 21  2  0
 21 22  1  0
 22 23  2  0
 23 24  1  0
 24 25  2  0
 25 26  1  0
 25 27  1  0
 27 28  2  0
 28 29  1  0
 29 30  2  0
 13  7  1  0
 19 14  1  0
 30 20  1  0
 29 23  1  0
  3 31  1  0
  4 32  1  0
  4 33  1  0
  8 34  1  0
  8 35  1  0
  9 36  1  0
  9 37  1  0
 10 38  1  0
 10 39  1  0
 11 40  1  0
 11 41  1  0
 12 42  1  0
 12 43  1  0
 13 44  1  6
 14 45  1  0
 15 46  1  0
 15 47  1  0
 16 48  1  0
 16 49  1  0
 17 50  1  0
 17 51  1  0
 18 52  1  0
 18 53  1  0
 19 54  1  0
 19 55  1  0
 21 56  1  0
 22 57  1  0
 24 58  1  0
 27 59  1  0
 28 60  1  0
M  END
>  <smiles>  (45) 
O=C(NCC(=O)N1CCCCCC1C1CCCCC1)c1ccc2cc(Cl)ccc2n1

>  <score_type>  (45) 
oracle

>  <origin>  (45) 
autodockgpu

>  <m_score__min__energy>  (45) 
-7.1299999999999999

>  <m_primary>  (45) 
energy

>  <rmsd>  (45) 
8.795859112855611

>  <m_score__min__rmsd>  (45) 
8.795859112855611

>  <meeko>  (45) 
{"free_energy": -4.71, "intermolecular_energy": -7.99, "internal_energy": -2.19, "cluster_size": 2, "cluster_id": 12, "rank_in_cluster": 1}

>  <energy>  (45) 
-4.42

>  <cluster_rmsd>  (45) 
1.68

>  <cluster>  (45) 
12

$$$$

     RDKit          3D

 60 63  0  0  0  0  0  0  0  0999 V2000
  142.2050   74.6200  221.1080 O   0  0  0  0  0  0  0  0  0  0  0  0
  143.1590   74.5650  220.2590 C   0  0  0  0  0  0  0  0  0  0  0  0
  143.5710   75.7300  219.5410 N   0  0  0  0  0  0  0  0  0  0  0  0
  142.8740   76.9750  219.8050 C   0  0  0  0  0  0  0  0  0  0  0  0
  141.4990   76.8360  219.3310 C   0  0  0  0  0  0  0  0  0  0  0  0
  141.1790   76.2920  218.2190 O   0  0  0  0  0  0  0  0  0  0  0  0
  140.4380   77.3280  220.1410 N   0  0  0  0  0  0  0  0  0  0  0  0
  139.2190   77.7770  219.5000 C   0  0  0  0  0  0  0  0  0  0  0  0
  138.0060   77.0590  219.9410 C   0  0  0  0  0  0  0  0  0  0  0  0
  137.4180   77.4330  221.2530 C   0  0  0  0  0  0  0  0  0  0  0  0
  138.2580   77.2780  222.4520 C   0  0  0  0  0  0  0  0  0  0  0  0
  139.5860   76.6350  222.3360 C   0  0  0  0  0  0  0  0  0  0  0  0
  140.6480   77.3500  221.5950 C   0  0  2  0  0  0  0  0  0  0  0  0
  140.9440   78.7530  222.0720 C   0  0  0  0  0  0  0  0  0  0  0  0
  141.7380   79.5310  221.0300 C   0  0  0  0  0  0  0  0  0  0  0  0
  141.5550   80.9990  221.3850 C   0  0  0  0  0  0  0  0  0  0  0  0
  141.8260   81.2170  222.8640 C   0  0  0  0  0  0  0  0  0  0  0  0
  142.5370   80.0200  223.4610 C   0  0  0  0  0  0  0  0  0  0  0  0
  141.7620   78.7560  223.3360 C   0  0  0  0  0  0  0  0  0  0  0  0
  143.8400   73.2970  220.0180 C   0  0  0  0  0  0  0  0  0  0  0  0
  145.2120   73.2710  219.8900 C   0  0  0  0  0  0  0  0  0  0  0  0
  145.8680   72.0750  219.6620 C   0  0  0  0  0  0  0  0  0  0  0  0
  145.1460   70.8970  219.5610 C   0  0  0  0  0  0  0  0  0  0  0  0
  145.8070   69.7090  219.3350 C   0  0  0  0  0  0  0  0  0  0  0  0
  145.1150   68.5150  219.2290 C   0  0  0  0  0  0  0  0  0  0  0  0
  145.9260   66.9950  218.9400 Cl  0  0  0  0  0  0  0  0  0  0  0  0
  143.7420   68.5850  219.3630 C   0  0  0  0  0  0  0  0  0  0  0  0
  143.0740   69.7760  219.5920 C   0  0  0  0  0  0  0  0  0  0  0  0
  143.7710   70.9620  219.6960 C   0  0  0  0  0  0  0  0  0  0  0  0
  143.1640   72.1410  219.9170 N   0  0  0  0  0  0  0  0  0  0  0  0
  144.3530   75.6350  218.8600 H   0  0  0  0  0  0  0  0  0  0  0  0
  142.8766   77.1817  220.8854 H   0  0  0  0  0  0  0  0  0  0  0  0
  143.3727   77.8076  219.2873 H   0  0  0  0  0  0  0  0  0  0  0  0
  139.0866   78.8465  219.7203 H   0  0  0  0  0  0  0  0  0  0  0  0
  139.3334   77.5757  218.4246 H   0  0  0  0  0  0  0  0  0  0  0  0
  137.2322   77.2218  219.1763 H   0  0  0  0  0  0  0  0  0  0  0  0
  138.3330   76.0168  220.0711 H   0  0  0  0  0  0  0  0  0  0  0  0
  137.1263   78.4918  221.1917 H   0  0  0  0  0  0  0  0  0  0  0  0
  136.5929   76.7204  221.3994 H   0  0  0  0  0  0  0  0  0  0  0  0
  138.4258   78.2868  222.8571 H   0  0  0  0  0  0  0  0  0  0  0  0
  137.6864   76.5767  223.0777 H   0  0  0  0  0  0  0  0  0  0  0  0
  139.9575   76.4679  223.3578 H   0  0  0  0  0  0  0  0  0  0  0  0
  139.3990   75.7307  221.7382 H   0  0  0  0  0  0  0  0  0  0  0  0
  141.5503   76.7664  221.8298 H   0  0  0  0  0  0  0  0  0  0  0  0
  139.9653   79.2216  222.2523 H   0  0  0  0  0  0  0  0  0  0  0  0
  142.8020   79.2554  221.0742 H   0  0  0  0  0  0  0  0  0  0  0  0
  141.3906   79.3137  220.0092 H   0  0  0  0  0  0  0  0  0  0  0  0
  142.2559   81.6063  220.7934 H   0  0  0  0  0  0  0  0  0  0  0  0
  140.5200   81.2969  221.1612 H   0  0  0  0  0  0  0  0  0  0  0  0
  142.4564   82.1099  222.9877 H   0  0  0  0  0  0  0  0  0  0  0  0
  140.8656   81.3525  223.3830 H   0  0  0  0  0  0  0  0  0  0  0  0
  143.5000   79.8922  222.9450 H   0  0  0  0  0  0  0  0  0  0  0  0
  142.6671   80.2190  224.5350 H   0  0  0  0  0  0  0  0  0  0  0  0
  142.4596   77.9057  223.3161 H   0  0  0  0  0  0  0  0  0  0  0  0
  141.0816   78.6731  224.1964 H   0  0  0  0  0  0  0  0  0  0  0  0
  145.7875   74.2051  219.9695 H   0  0  0  0  0  0  0  0  0  0  0  0
  146.9632   72.0591  219.5608 H   0  0  0  0  0  0  0  0  0  0  0  0
  146.9027   69.7097  219.2373 H   0  0  0  0  0  0  0  0  0  0  0  0
  143.1559   67.6575  219.2847 H   0  0  0  0  0  0  0  0  0  0  0  0
  141.9785   69.7765  219.6918 H   0  0  0  0  0  0  0  0  0  0  0  0
  1  2  2  0
  2  3  1  0
  3  4  1  0
  4  5  1  0
  5  6  2  0
  5  7  1  0
  7  8  1  0
  8  9  1  0
  9 10  1  0
 10 11  1  0
 11 12  1  0
 12 13  1  0
 13 14  1  0
 14 15  1  0
 15 16  1  0
 16 17  1  0
 17 18  1  0
 18 19  1  0
  2 20  1  0
 20 21  2  0
 21 22  1  0
 22 23  2  0
 23 24  1  0
 24 25  2  0
 25 26  1  0
 25 27  1  0
 27 28  2  0
 28 29  1  0
 29 30  2  0
 13  7  1  0
 19 14  1  0
 30 20  1  0
 29 23  1  0
  3 31  1  0
  4 32  1  0
  4 33  1  0
  8 34  1  0
  8 35  1  0
  9 36  1  0
  9 37  1  0
 10 38  1  0
 10 39  1  0
 11 40  1  0
 11 41  1  0
 12 42  1  0
 12 43  1  0
 13 44  1  6
 14 45  1  0
 15 46  1  0
 15 47  1  0
 16 48  1  0
 16 49  1  0
 17 50  1  0
 17 51  1  0
 18 52  1  0
 18 53  1  0
 19 54  1  0
 19 55  1  0
 21 56  1  0
 22 57  1  0
 24 58  1  0
 27 59  1  0
 28 60  1  0
M  END
>  <smiles>  (46) 
O=C(NCC(=O)N1CCCCCC1C1CCCCC1)c1ccc2cc(Cl)ccc2n1

>  <score_type>  (46) 
oracle

>  <origin>  (46) 
autodockgpu

>  <m_score__min__energy>  (46) 
-7.1299999999999999

>  <m_primary>  (46) 
energy

>  <rmsd>  (46) 
6.5908087323701015

>  <m_score__min__rmsd>  (46) 
6.5908087323701015

>  <meeko>  (46) 
{"free_energy": -5.16, "intermolecular_energy": -8.44, "internal_energy": -1.74, "cluster_size": 1, "cluster_id": 9, "rank_in_cluster": 1}

>  <energy>  (46) 
-4.65

>  <cluster_rmsd>  (46) 
0.0

>  <cluster>  (46) 
13

$$$$

     RDKit          3D

 60 63  0  0  0  0  0  0  0  0999 V2000
  141.4610   73.3170  221.3520 O   0  0  0  0  0  0  0  0  0  0  0  0
  140.5130   74.1440  221.5780 C   0  0  0  0  0  0  0  0  0  0  0  0
  139.2070   73.6840  221.9350 N   0  0  0  0  0  0  0  0  0  0  0  0
  138.9930   72.2520  222.0330 C   0  0  0  0  0  0  0  0  0  0  0  0
  137.8700   72.0200  222.9390 C   0  0  0  0  0  0  0  0  0  0  0  0
  136.8890   72.8280  223.0800 O   0  0  0  0  0  0  0  0  0  0  0  0
  137.8480   70.8310  223.7190 N   0  0  0  0  0  0  0  0  0  0  0  0
  136.5870   70.3750  224.2660 C   0  0  0  0  0  0  0  0  0  0  0  0
  135.9120   69.3470  223.4490 C   0  0  0  0  0  0  0  0  0  0  0  0
  136.7560   68.4960  222.5720 C   0  0  0  0  0  0  0  0  0  0  0  0
  138.0220   67.9850  223.1220 C   0  0  0  0  0  0  0  0  0  0  0  0
  139.2110   68.8680  223.1550 C   0  0  0  0  0  0  0  0  0  0  0  0
  139.1230   70.1290  223.9230 C   0  0  2  0  0  0  0  0  0  0  0  0
  139.4440   70.0190  225.3950 C   0  0  0  0  0  0  0  0  0  0  0  0
  140.6750   70.8420  225.7520 C   0  0  0  0  0  0  0  0  0  0  0  0
  140.6100   71.0460  227.2590 C   0  0  0  0  0  0  0  0  0  0  0  0
  140.3550   69.7210  227.9560 C   0  0  0  0  0  0  0  0  0  0  0  0
  140.6010   68.5630  227.0120 C   0  0  0  0  0  0  0  0  0  0  0  0
  139.7350   68.5990  225.8020 C   0  0  0  0  0  0  0  0  0  0  0  0
  140.7630   75.5770  221.4710 C   0  0  0  0  0  0  0  0  0  0  0  0
  141.3800   76.0820  220.3470 C   0  0  0  0  0  0  0  0  0  0  0  0
  141.6220   77.4390  220.2350 C   0  0  0  0  0  0  0  0  0  0  0  0
  141.2430   78.2970  221.2550 C   0  0  0  0  0  0  0  0  0  0  0  0
  141.4880   79.6480  221.1350 C   0  0  0  0  0  0  0  0  0  0  0  0
  141.1220   80.5320  222.1350 C   0  0  0  0  0  0  0  0  0  0  0  0
  141.4200   82.2480  222.0120 Cl  0  0  0  0  0  0  0  0  0  0  0  0
  140.5060   79.9850  223.2450 C   0  0  0  0  0  0  0  0  0  0  0  0
  140.2590   78.6280  223.3690 C   0  0  0  0  0  0  0  0  0  0  0  0
  140.6270   77.7550  222.3670 C   0  0  0  0  0  0  0  0  0  0  0  0
  140.4060   76.4310  222.4450 N   0  0  0  0  0  0  0  0  0  0  0  0
  138.4680   74.3950  222.1100 H   0  0  0  0  0  0  0  0  0  0  0  0
  138.7610   71.8411  221.0393 H   0  0  0  0  0  0  0  0  0  0  0  0
  139.8983   71.7574  222.4149 H   0  0  0  0  0  0  0  0  0  0  0  0
  136.7758   69.9537  225.2644 H   0  0  0  0  0  0  0  0  0  0  0  0
  135.9186   71.2482  224.2927 H   0  0  0  0  0  0  0  0  0  0  0  0
  135.3774   68.6780  224.1394 H   0  0  0  0  0  0  0  0  0  0  0  0
  135.2776   69.9173  222.7546 H   0  0  0  0  0  0  0  0  0  0  0  0
  136.1507   67.6255  222.2791 H   0  0  0  0  0  0  0  0  0  0  0  0
  137.0601   69.1616  221.7507 H   0  0  0  0  0  0  0  0  0  0  0  0
  137.8205   67.6804  224.1596 H   0  0  0  0  0  0  0  0  0  0  0  0
  138.3088   67.1910  222.4167 H   0  0  0  0  0  0  0  0  0  0  0  0
  140.0398   68.2836  223.5811 H   0  0  0  0  0  0  0  0  0  0  0  0
  139.3392   69.1922  222.1117 H   0  0  0  0  0  0  0  0  0  0  0  0
  139.9323   70.7374  223.4930 H   0  0  0  0  0  0  0  0  0  0  0  0
  138.5546   70.3911  225.9246 H   0  0  0  0  0  0  0  0  0  0  0  0
  141.5919   70.2999  225.4774 H   0  0  0  0  0  0  0  0  0  0  0  0
  140.6935   71.8005  225.2126 H   0  0  0  0  0  0  0  0  0  0  0  0
  141.5647   71.4640  227.6108 H   0  0  0  0  0  0  0  0  0  0  0  0
  139.7884   71.7390  227.4928 H   0  0  0  0  0  0  0  0  0  0  0  0
  141.0298   69.6319  228.8201 H   0  0  0  0  0  0  0  0  0  0  0  0
  139.3060   69.6913  228.2859 H   0  0  0  0  0  0  0  0  0  0  0  0
  141.6525   68.5914  226.6903 H   0  0  0  0  0  0  0  0  0  0  0  0
  140.3610   67.6390  227.5585 H   0  0  0  0  0  0  0  0  0  0  0  0
  140.2481   68.0850  224.9759 H   0  0  0  0  0  0  0  0  0  0  0  0
  138.7842   68.0967  226.0338 H   0  0  0  0  0  0  0  0  0  0  0  0
  141.6812   75.4030  219.5357 H   0  0  0  0  0  0  0  0  0  0  0  0
  142.1154   77.8373  219.3361 H   0  0  0  0  0  0  0  0  0  0  0  0
  141.9825   80.0299  220.2297 H   0  0  0  0  0  0  0  0  0  0  0  0
  140.1998   80.6543  224.0625 H   0  0  0  0  0  0  0  0  0  0  0  0
  139.7655   78.2436  224.2738 H   0  0  0  0  0  0  0  0  0  0  0  0
  1  2  2  0
  2  3  1  0
  3  4  1  0
  4  5  1  0
  5  6  2  0
  5  7  1  0
  7  8  1  0
  8  9  1  0
  9 10  1  0
 10 11  1  0
 11 12  1  0
 12 13  1  0
 13 14  1  0
 14 15  1  0
 15 16  1  0
 16 17  1  0
 17 18  1  0
 18 19  1  0
  2 20  1  0
 20 21  2  0
 21 22  1  0
 22 23  2  0
 23 24  1  0
 24 25  2  0
 25 26  1  0
 25 27  1  0
 27 28  2  0
 28 29  1  0
 29 30  2  0
 13  7  1  0
 19 14  1  0
 30 20  1  0
 29 23  1  0
  3 31  1  0
  4 32  1  0
  4 33  1  0
  8 34  1  0
  8 35  1  0
  9 36  1  0
  9 37  1  0
 10 38  1  0
 10 39  1  0
 11 40  1  0
 11 41  1  0
 12 42  1  0
 12 43  1  0
 13 44  1  6
 14 45  1  0
 15 46  1  0
 15 47  1  0
 16 48  1  0
 16 49  1  0
 17 50  1  0
 17 51  1  0
 18 52  1  0
 18 53  1  0
 19 54  1  0
 19 55  1  0
 21 56  1  0
 22 57  1  0
 24 58  1  0
 27 59  1  0
 28 60  1  0
M  END
>  <smiles>  (47) 
O=C(NCC(=O)N1CCCCCC1C1CCCCC1)c1ccc2cc(Cl)ccc2n1

>  <score_type>  (47) 
oracle

>  <origin>  (47) 
autodockgpu

>  <m_score__min__energy>  (47) 
-7.1299999999999999

>  <m_primary>  (47) 
energy

>  <rmsd>  (47) 
8.31846586699449

>  <m_score__min__rmsd>  (47) 
8.31846586699449

>  <meeko>  (47) 
{"free_energy": -5.95, "intermolecular_energy": -9.23, "internal_energy": -2.0, "cluster_size": 5, "cluster_id": 2, "rank_in_cluster": 2}

>  <energy>  (47) 
-4.62

>  <cluster_rmsd>  (47) 
0.0

>  <cluster>  (47) 
14

$$$$

     RDKit          3D

 60 63  0  0  0  0  0  0  0  0999 V2000
  140.0520   72.5920  220.7820 O   0  0  0  0  0  0  0  0  0  0  0  0
  139.8190   72.9290  221.9920 C   0  0  0  0  0  0  0  0  0  0  0  0
  139.4580   74.2720  222.3250 N   0  0  0  0  0  0  0  0  0  0  0  0
  139.3640   75.2380  221.2460 C   0  0  0  0  0  0  0  0  0  0  0  0
  139.1690   76.5600  221.8350 C   0  0  0  0  0  0  0  0  0  0  0  0
  138.4010   76.7920  222.8320 O   0  0  0  0  0  0  0  0  0  0  0  0
  139.8660   77.6700  221.2820 N   0  0  0  0  0  0  0  0  0  0  0  0
  139.1110   78.8340  220.8670 C   0  0  0  0  0  0  0  0  0  0  0  0
  139.2710   80.0050  221.7530 C   0  0  0  0  0  0  0  0  0  0  0  0
  140.5320   80.7830  221.6500 C   0  0  0  0  0  0  0  0  0  0  0  0
  141.7450   80.0730  221.2150 C   0  0  0  0  0  0  0  0  0  0  0  0
  142.0320   78.7230  221.7570 C   0  0  0  0  0  0  0  0  0  0  0  0
  141.3270   77.5650  221.1660 C   0  0  2  0  0  0  0  0  0  0  0  0
  141.7270   77.2100  219.7530 C   0  0  0  0  0  0  0  0  0  0  0  0
  143.1580   76.6900  219.7010 C   0  0  0  0  0  0  0  0  0  0  0  0
  143.2740   75.9370  218.3840 C   0  0  0  0  0  0  0  0  0  0  0  0
  142.7340   76.7860  217.2460 C   0  0  0  0  0  0  0  0  0  0  0  0
  142.5830   78.2300  217.6790 C   0  0  0  0  0  0  0  0  0  0  0  0
  141.6620   78.4020  218.8350 C   0  0  0  0  0  0  0  0  0  0  0  0
  139.9210   71.9310  223.0520 C   0  0  0  0  0  0  0  0  0  0  0  0
  139.5140   70.6360  222.8150 C   0  0  0  0  0  0  0  0  0  0  0  0
  139.6070   69.6820  223.8120 C   0  0  0  0  0  0  0  0  0  0  0  0
  140.1110   70.0270  225.0550 C   0  0  0  0  0  0  0  0  0  0  0  0
  140.2000   69.0700  226.0430 C   0  0  0  0  0  0  0  0  0  0  0  0
  140.6990   69.3820  227.2960 C   0  0  0  0  0  0  0  0  0  0  0  0
  140.8230   68.1910  228.5680 Cl  0  0  0  0  0  0  0  0  0  0  0  0
  141.0950   70.6900  227.4930 C   0  0  0  0  0  0  0  0  0  0  0  0
  141.0070   71.6550  226.5030 C   0  0  0  0  0  0  0  0  0  0  0  0
  140.5090   71.3350  225.2570 C   0  0  0  0  0  0  0  0  0  0  0  0
  140.4060   72.2390  224.2660 N   0  0  0  0  0  0  0  0  0  0  0  0
  139.2780   74.4970  223.3250 H   0  0  0  0  0  0  0  0  0  0  0  0
  140.2910   75.2268  220.6540 H   0  0  0  0  0  0  0  0  0  0  0  0
  138.5219   74.9883  220.5838 H   0  0  0  0  0  0  0  0  0  0  0  0
  139.4413   79.1177  219.8568 H   0  0  0  0  0  0  0  0  0  0  0  0
  138.0484   78.5519  220.9035 H   0  0  0  0  0  0  0  0  0  0  0  0
  138.4413   80.6947  221.5386 H   0  0  0  0  0  0  0  0  0  0  0  0
  139.2870   79.5840  222.7691 H   0  0  0  0  0  0  0  0  0  0  0  0
  140.3557   81.5994  220.9342 H   0  0  0  0  0  0  0  0  0  0  0  0
  140.7495   81.0940  222.6824 H   0  0  0  0  0  0  0  0  0  0  0  0
  141.6827   79.9726  220.1214 H   0  0  0  0  0  0  0  0  0  0  0  0
  142.5638   80.6913  221.6116 H   0  0  0  0  0  0  0  0  0  0  0  0
  143.1105   78.5452  221.6335 H   0  0  0  0  0  0  0  0  0  0  0  0
  141.6656   78.7634  222.7934 H   0  0  0  0  0  0  0  0  0  0  0  0
  141.6703   76.7238  221.7861 H   0  0  0  0  0  0  0  0  0  0  0  0
  141.0156   76.4380  219.4245 H   0  0  0  0  0  0  0  0  0  0  0  0
  143.8715   77.5267  219.7287 H   0  0  0  0  0  0  0  0  0  0  0  0
  143.3866   76.0428  220.5606 H   0  0  0  0  0  0  0  0  0  0  0  0
  144.3312   75.7014  218.1918 H   0  0  0  0  0  0  0  0  0  0  0  0
  142.6884   75.0081  218.4485 H   0  0  0  0  0  0  0  0  0  0  0  0
  143.4302   76.7350  216.3958 H   0  0  0  0  0  0  0  0  0  0  0  0
  141.7462   76.3994  216.9547 H   0  0  0  0  0  0  0  0  0  0  0  0
  143.5738   78.6159  217.9609 H   0  0  0  0  0  0  0  0  0  0  0  0
  142.1505   78.7819  216.8315 H   0  0  0  0  0  0  0  0  0  0  0  0
  141.9502   79.3041  219.3945 H   0  0  0  0  0  0  0  0  0  0  0  0
  140.6341   78.4988  218.4553 H   0  0  0  0  0  0  0  0  0  0  0  0
  139.1134   70.3598  221.8285 H   0  0  0  0  0  0  0  0  0  0  0  0
  139.2808   68.6496  223.6178 H   0  0  0  0  0  0  0  0  0  0  0  0
  139.8693   68.0422  225.8325 H   0  0  0  0  0  0  0  0  0  0  0  0
  141.4966   70.9774  228.4759 H   0  0  0  0  0  0  0  0  0  0  0  0
  141.3365   72.6835  226.7119 H   0  0  0  0  0  0  0  0  0  0  0  0
  1  2  2  0
  2  3  1  0
  3  4  1  0
  4  5  1  0
  5  6  2  0
  5  7  1  0
  7  8  1  0
  8  9  1  0
  9 10  1  0
 10 11  1  0
 11 12  1  0
 12 13  1  0
 13 14  1  0
 14 15  1  0
 15 16  1  0
 16 17  1  0
 17 18  1  0
 18 19  1  0
  2 20  1  0
 20 21  2  0
 21 22  1  0
 22 23  2  0
 23 24  1  0
 24 25  2  0
 25 26  1  0
 25 27  1  0
 27 28  2  0
 28 29  1  0
 29 30  2  0
 13  7  1  0
 19 14  1  0
 30 20  1  0
 29 23  1  0
  3 31  1  0
  4 32  1  0
  4 33  1  0
  8 34  1  0
  8 35  1  0
  9 36  1  0
  9 37  1  0
 10 38  1  0
 10 39  1  0
 11 40  1  0
 11 41  1  0
 12 42  1  0
 12 43  1  0
 13 44  1  1
 14 45  1  0
 15 46  1  0
 15 47  1  0
 16 48  1  0
 16 49  1  0
 17 50  1  0
 17 51  1  0
 18 52  1  0
 18 53  1  0
 19 54  1  0
 19 55  1  0
 21 56  1  0
 22 57  1  0
 24 58  1  0
 27 59  1  0
 28 60  1  0
M  END
>  <smiles>  (48) 
O=C(NCC(=O)N1CCCCCC1C1CCCCC1)c1ccc2cc(Cl)ccc2n1

>  <score_type>  (48) 
oracle

>  <origin>  (48) 
autodockgpu

>  <m_score__min__energy>  (48) 
-7.1299999999999999

>  <m_primary>  (48) 
energy

>  <rmsd>  (48) 
3.0187833793687715

>  <m_score__min__rmsd>  (48) 
3.0187833793687715

>  <meeko>  (48) 
{"free_energy": -6.19, "intermolecular_energy": -9.48, "internal_energy": -1.79, "cluster_size": 16, "cluster_id": 1, "rank_in_cluster": 8}

>  <energy>  (48) 
-4.26

>  <cluster_rmsd>  (48) 
0.0

>  <cluster>  (48) 
15

$$$$

     RDKit          3D

 60 63  0  0  0  0  0  0  0  0999 V2000
  140.5750   72.4280  220.6610 O   0  0  0  0  0  0  0  0  0  0  0  0
  140.2100   72.8180  221.8220 C   0  0  0  0  0  0  0  0  0  0  0  0
  139.8530   74.1820  222.0600 N   0  0  0  0  0  0  0  0  0  0  0  0
  139.9180   75.1070  220.9440 C   0  0  0  0  0  0  0  0  0  0  0  0
  140.9400   76.1070  221.2410 C   0  0  0  0  0  0  0  0  0  0  0  0
  141.3700   76.3610  222.4180 O   0  0  0  0  0  0  0  0  0  0  0  0
  141.5040   76.8550  220.1700 N   0  0  0  0  0  0  0  0  0  0  0  0
  142.3620   76.1790  219.2190 C   0  0  0  0  0  0  0  0  0  0  0  0
  141.9830   76.3900  217.8080 C   0  0  0  0  0  0  0  0  0  0  0  0
  142.4200   77.6510  217.1550 C   0  0  0  0  0  0  0  0  0  0  0  0
  142.0460   78.9220  217.7950 C   0  0  0  0  0  0  0  0  0  0  0  0
  142.1350   79.0490  219.2680 C   0  0  0  0  0  0  0  0  0  0  0  0
  141.1750   78.2850  220.0940 C   0  0  2  0  0  0  0  0  0  0  0  0
  140.9110   78.8470  221.4720 C   0  0  0  0  0  0  0  0  0  0  0  0
  139.9590   80.0340  221.4080 C   0  0  0  0  0  0  0  0  0  0  0  0
  139.4040   80.1920  222.8150 C   0  0  0  0  0  0  0  0  0  0  0  0
  140.5350   80.1810  223.8290 C   0  0  0  0  0  0  0  0  0  0  0  0
  141.8710   80.3820  223.1440 C   0  0  0  0  0  0  0  0  0  0  0  0
  142.1740   79.3340  222.1310 C   0  0  0  0  0  0  0  0  0  0  0  0
  140.1540   71.8610  222.9220 C   0  0  0  0  0  0  0  0  0  0  0  0
  139.5830   70.6220  222.7230 C   0  0  0  0  0  0  0  0  0  0  0  0
  139.5250   69.7070  223.7580 C   0  0  0  0  0  0  0  0  0  0  0  0
  140.0420   70.0330  225.0010 C   0  0  0  0  0  0  0  0  0  0  0  0
  139.9810   69.1150  226.0270 C   0  0  0  0  0  0  0  0  0  0  0  0
  140.4880   69.4100  227.2810 C   0  0  0  0  0  0  0  0  0  0  0  0
  140.4230   68.2680  228.6000 Cl  0  0  0  0  0  0  0  0  0  0  0  0
  141.0510   70.6610  227.4380 C   0  0  0  0  0  0  0  0  0  0  0  0
  141.1150   71.5870  226.4100 C   0  0  0  0  0  0  0  0  0  0  0  0
  140.6070   71.2840  225.1640 C   0  0  0  0  0  0  0  0  0  0  0  0
  140.6480   72.1510  224.1360 N   0  0  0  0  0  0  0  0  0  0  0  0
  139.5620   74.4510  223.0220 H   0  0  0  0  0  0  0  0  0  0  0  0
  140.1838   74.5641  220.0250 H   0  0  0  0  0  0  0  0  0  0  0  0
  138.9423   75.5926  220.7949 H   0  0  0  0  0  0  0  0  0  0  0  0
  143.3894   76.5461  219.3592 H   0  0  0  0  0  0  0  0  0  0  0  0
  142.2650   75.1010  219.4153 H   0  0  0  0  0  0  0  0  0  0  0  0
  142.4042   75.5564  217.2269 H   0  0  0  0  0  0  0  0  0  0  0  0
  140.8848   76.4512  217.8221 H   0  0  0  0  0  0  0  0  0  0  0  0
  143.5180   77.6252  217.0942 H   0  0  0  0  0  0  0  0  0  0  0  0
  141.8905   77.6608  216.1909 H   0  0  0  0  0  0  0  0  0  0  0  0
  142.6956   79.6996  217.3667 H   0  0  0  0  0  0  0  0  0  0  0  0
  140.9682   79.0068  217.5923 H   0  0  0  0  0  0  0  0  0  0  0  0
  143.1455   78.7294  219.5626 H   0  0  0  0  0  0  0  0  0  0  0  0
  141.8879   80.1023  219.4665 H   0  0  0  0  0  0  0  0  0  0  0  0
  140.2287   78.4000  219.5452 H   0  0  0  0  0  0  0  0  0  0  0  0
  140.4729   78.0227  222.0539 H   0  0  0  0  0  0  0  0  0  0  0  0
  140.4990   80.9429  221.1043 H   0  0  0  0  0  0  0  0  0  0  0  0
  139.1582   79.8732  220.6712 H   0  0  0  0  0  0  0  0  0  0  0  0
  138.8611   81.1460  222.8865 H   0  0  0  0  0  0  0  0  0  0  0  0
  138.7225   79.3553  223.0282 H   0  0  0  0  0  0  0  0  0  0  0  0
  140.3763   80.9915  224.5556 H   0  0  0  0  0  0  0  0  0  0  0  0
  140.5426   79.2066  224.3394 H   0  0  0  0  0  0  0  0  0  0  0  0
  141.8630   81.3610  222.6426 H   0  0  0  0  0  0  0  0  0  0  0  0
  142.6486   80.3215  223.9197 H   0  0  0  0  0  0  0  0  0  0  0  0
  142.8414   79.7552  221.3647 H   0  0  0  0  0  0  0  0  0  0  0  0
  142.6585   78.4851  222.6357 H   0  0  0  0  0  0  0  0  0  0  0  0
  139.1719   70.3603  221.7368 H   0  0  0  0  0  0  0  0  0  0  0  0
  139.0681   68.7199  223.5942 H   0  0  0  0  0  0  0  0  0  0  0  0
  139.5220   68.1318  225.8466 H   0  0  0  0  0  0  0  0  0  0  0  0
  141.4657   70.9333  228.4198 H   0  0  0  0  0  0  0  0  0  0  0  0
  141.5740   72.5706  226.5885 H   0  0  0  0  0  0  0  0  0  0  0  0
  1  2  2  0
  2  3  1  0
  3  4  1  0
  4  5  1  0
  5  6  2  0
  5  7  1  0
  7  8  1  0
  8  9  1  0
  9 10  1  0
 10 11  1  0
 11 12  1  0
 12 13  1  0
 13 14  1  0
 14 15  1  0
 15 16  1  0
 16 17  1  0
 17 18  1  0
 18 19  1  0
  2 20  1  0
 20 21  2  0
 21 22  1  0
 22 23  2  0
 23 24  1  0
 24 25  2  0
 25 26  1  0
 25 27  1  0
 27 28  2  0
 28 29  1  0
 29 30  2  0
 13  7  1  0
 19 14  1  0
 30 20  1  0
 29 23  1  0
  3 31  1  0
  4 32  1  0
  4 33  1  0
  8 34  1  0
  8 35  1  0
  9 36  1  0
  9 37  1  0
 10 38  1  0
 10 39  1  0
 11 40  1  0
 11 41  1  0
 12 42  1  0
 12 43  1  0
 13 44  1  6
 14 45  1  0
 15 46  1  0
 15 47  1  0
 16 48  1  0
 16 49  1  0
 17 50  1  0
 17 51  1  0
 18 52  1  0
 18 53  1  0
 19 54  1  0
 19 55  1  0
 21 56  1  0
 22 57  1  0
 24 58  1  0
 27 59  1  0
 28 60  1  0
M  END
>  <smiles>  (49) 
O=C(NCC(=O)N1CCCCCC1C1CCCCC1)c1ccc2cc(Cl)ccc2n1

>  <score_type>  (49) 
oracle

>  <origin>  (49) 
autodockgpu

>  <m_score__min__energy>  (49) 
-7.1299999999999999

>  <m_primary>  (49) 
energy

>  <rmsd>  (49) 
2.1434369221056477

>  <m_score__min__rmsd>  (49) 
2.1434369221056477

>  <meeko>  (49) 
{"free_energy": -6.65, "intermolecular_energy": -9.93, "internal_energy": -1.7, "cluster_size": 16, "cluster_id": 1, "rank_in_cluster": 4}

>  <energy>  (49) 
-3.85

>  <cluster_rmsd>  (49) 
0.0

>  <cluster>  (49) 
16

$$$$

     RDKit          3D

 60 63  0  0  0  0  0  0  0  0999 V2000
  140.4720   74.0300  220.6310 O   0  0  0  0  0  0  0  0  0  0  0  0
  139.7970   73.9950  221.7160 C   0  0  0  0  0  0  0  0  0  0  0  0
  139.1880   75.1790  222.2390 N   0  0  0  0  0  0  0  0  0  0  0  0
  139.3590   76.4160  221.5000 C   0  0  0  0  0  0  0  0  0  0  0  0
  140.3960   77.2020  222.1630 C   0  0  0  0  0  0  0  0  0  0  0  0
  141.2450   76.7140  222.9860 O   0  0  0  0  0  0  0  0  0  0  0  0
  140.4840   78.5960  221.8900 N   0  0  0  0  0  0  0  0  0  0  0  0
  139.3380   79.4370  222.1670 C   0  0  0  0  0  0  0  0  0  0  0  0
  139.6740   80.8540  222.4070 C   0  0  0  0  0  0  0  0  0  0  0  0
  140.6530   81.1610  223.4820 C   0  0  0  0  0  0  0  0  0  0  0  0
  141.8610   80.3250  223.5700 C   0  0  0  0  0  0  0  0  0  0  0  0
  142.5290   79.8820  222.3240 C   0  0  0  0  0  0  0  0  0  0  0  0
  141.7490   79.1010  221.3400 C   0  0  2  0  0  0  0  0  0  0  0  0
  141.5210   79.7740  220.0060 C   0  0  0  0  0  0  0  0  0  0  0  0
  141.4480   81.2880  220.1610 C   0  0  0  0  0  0  0  0  0  0  0  0
  141.7040   81.8550  218.7730 C   0  0  0  0  0  0  0  0  0  0  0  0
  140.8260   81.1540  217.7500 C   0  0  0  0  0  0  0  0  0  0  0  0
  139.7210   80.3780  218.4360 C   0  0  0  0  0  0  0  0  0  0  0  0
  140.2280   79.3370  219.3710 C   0  0  0  0  0  0  0  0  0  0  0  0
  139.6440   72.7340  222.4330 C   0  0  0  0  0  0  0  0  0  0  0  0
  138.7070   71.8150  222.0090 C   0  0  0  0  0  0  0  0  0  0  0  0
  138.5530   70.6170  222.6810 C   0  0  0  0  0  0  0  0  0  0  0  0
  139.3420   70.3350  223.7840 C   0  0  0  0  0  0  0  0  0  0  0  0
  139.1820   69.1370  224.4470 C   0  0  0  0  0  0  0  0  0  0  0  0
  139.9540   68.8250  225.5530 C   0  0  0  0  0  0  0  0  0  0  0  0
  139.7740   67.3160  226.4140 Cl  0  0  0  0  0  0  0  0  0  0  0  0
  140.8800   69.7720  225.9450 C   0  0  0  0  0  0  0  0  0  0  0  0
  141.0440   70.9760  225.2810 C   0  0  0  0  0  0  0  0  0  0  0  0
  140.2700   71.2790  224.1800 C   0  0  0  0  0  0  0  0  0  0  0  0
  140.3950   72.4360  223.5050 N   0  0  0  0  0  0  0  0  0  0  0  0
  138.6480   75.1010  223.1250 H   0  0  0  0  0  0  0  0  0  0  0  0
  139.6633   76.1937  220.4666 H   0  0  0  0  0  0  0  0  0  0  0  0
  138.4136   76.9778  221.4741 H   0  0  0  0  0  0  0  0  0  0  0  0
  138.6552   79.3849  221.3061 H   0  0  0  0  0  0  0  0  0  0  0  0
  138.8830   79.0577  223.0939 H   0  0  0  0  0  0  0  0  0  0  0  0
  140.0799   81.2586  221.4681 H   0  0  0  0  0  0  0  0  0  0  0  0
  138.7329   81.3076  222.7513 H   0  0  0  0  0  0  0  0  0  0  0  0
  140.9832   82.2003  223.3378 H   0  0  0  0  0  0  0  0  0  0  0  0
  140.1092   80.9608  224.4170 H   0  0  0  0  0  0  0  0  0  0  0  0
  142.6041   80.8947  224.1473 H   0  0  0  0  0  0  0  0  0  0  0  0
  141.4973   79.3883  224.0175 H   0  0  0  0  0  0  0  0  0  0  0  0
  142.8871   80.7859  221.8095 H   0  0  0  0  0  0  0  0  0  0  0  0
  143.3021   79.1802  222.6700 H   0  0  0  0  0  0  0  0  0  0  0  0
  142.4071   78.2458  221.1264 H   0  0  0  0  0  0  0  0  0  0  0  0
  142.3722   79.4834  219.3727 H   0  0  0  0  0  0  0  0  0  0  0  0
  140.4533   81.5894  220.5213 H   0  0  0  0  0  0  0  0  0  0  0  0
  142.1813   81.6577  220.8929 H   0  0  0  0  0  0  0  0  0  0  0  0
  141.4750   82.9309  218.7720 H   0  0  0  0  0  0  0  0  0  0  0  0
  142.7599   81.6957  218.5092 H   0  0  0  0  0  0  0  0  0  0  0  0
  140.3790   81.9053  217.0823 H   0  0  0  0  0  0  0  0  0  0  0  0
  141.4460   80.4520  217.1732 H   0  0  0  0  0  0  0  0  0  0  0  0
  139.0984   81.0848  219.0042 H   0  0  0  0  0  0  0  0  0  0  0  0
  139.1490   79.8614  217.6512 H   0  0  0  0  0  0  0  0  0  0  0  0
  139.4797   79.1640  220.1585 H   0  0  0  0  0  0  0  0  0  0  0  0
  140.4081   78.4114  218.8046 H   0  0  0  0  0  0  0  0  0  0  0  0
  138.0799   72.0363  221.1328 H   0  0  0  0  0  0  0  0  0  0  0  0
  137.8038   69.8874  222.3398 H   0  0  0  0  0  0  0  0  0  0  0  0
  138.4293   68.4178  224.0918 H   0  0  0  0  0  0  0  0  0  0  0  0
  141.5126   69.5612  226.8199 H   0  0  0  0  0  0  0  0  0  0  0  0
  141.7969   71.6961  225.6340 H   0  0  0  0  0  0  0  0  0  0  0  0
  1  2  2  0
  2  3  1  0
  3  4  1  0
  4  5  1  0
  5  6  2  0
  5  7  1  0
  7  8  1  0
  8  9  1  0
  9 10  1  0
 10 11  1  0
 11 12  1  0
 12 13  1  0
 13 14  1  0
 14 15  1  0
 15 16  1  0
 16 17  1  0
 17 18  1  0
 18 19  1  0
  2 20  1  0
 20 21  2  0
 21 22  1  0
 22 23  2  0
 23 24  1  0
 24 25  2  0
 25 26  1  0
 25 27  1  0
 27 28  2  0
 28 29  1  0
 29 30  2  0
 13  7  1  0
 19 14  1  0
 30 20  1  0
 29 23  1  0
  3 31  1  0
  4 32  1  0
  4 33  1  0
  8 34  1  0
  8 35  1  0
  9 36  1  0
  9 37  1  0
 10 38  1  0
 10 39  1  0
 11 40  1  0
 11 41  1  0
 12 42  1  0
 12 43  1  0
 13 44  1  6
 14 45  1  0
 15 46  1  0
 15 47  1  0
 16 48  1  0
 16 49  1  0
 17 50  1  0
 17 51  1  0
 18 52  1  0
 18 53  1  0
 19 54  1  0
 19 55  1  0
 21 56  1  0
 22 57  1  0
 24 58  1  0
 27 59  1  0
 28 60  1  0
M  END
>  <smiles>  (50) 
O=C(NCC(=O)N1CCCCCC1C1CCCCC1)c1ccc2cc(Cl)ccc2n1

>  <score_type>  (50) 
oracle

>  <origin>  (50) 
autodockgpu

>  <m_score__min__energy>  (50) 
-7.1299999999999999

>  <m_primary>  (50) 
energy

>  <rmsd>  (50) 
3.9031203360995126

>  <m_score__min__rmsd>  (50) 
3.9031203360995126

>  <meeko>  (50) 
{"free_energy": -5.2, "intermolecular_energy": -8.48, "internal_energy": -1.27, "cluster_size": 1, "cluster_id": 8, "rank_in_cluster": 1}

>  <energy>  (50) 
-3.65

>  <cluster_rmsd>  (50) 
0.0

>  <cluster>  (50) 
17

$$$$

     RDKit          3D

 60 63  0  0  0  0  0  0  0  0999 V2000
  138.6020   72.4560  220.9750 O   0  0  0  0  0  0  0  0  0  0  0  0
  139.4940   72.6820  221.8310 C   0  0  0  0  0  0  0  0  0  0  0  0
  140.4050   73.7710  221.7520 N   0  0  0  0  0  0  0  0  0  0  0  0
  140.3510   74.7080  220.6470 C   0  0  0  0  0  0  0  0  0  0  0  0
  141.6380   75.3890  220.5600 C   0  0  0  0  0  0  0  0  0  0  0  0
  142.6210   74.8670  221.1800 O   0  0  0  0  0  0  0  0  0  0  0  0
  141.8330   76.6230  219.8020 N   0  0  0  0  0  0  0  0  0  0  0  0
  141.9650   76.3250  218.3980 C   0  0  0  0  0  0  0  0  0  0  0  0
  141.1750   77.2650  217.5380 C   0  0  0  0  0  0  0  0  0  0  0  0
  141.8770   78.6060  217.5880 C   0  0  0  0  0  0  0  0  0  0  0  0
  141.2500   79.4090  218.7190 C   0  0  0  0  0  0  0  0  0  0  0  0
  141.8170   79.1130  220.0380 C   0  0  0  0  0  0  0  0  0  0  0  0
  141.8360   77.7890  220.6260 C   0  0  1  0  0  0  0  0  0  0  0  0
  140.9560   77.5540  221.8650 C   0  0  0  0  0  0  0  0  0  0  0  0
  139.5050   77.7150  221.6670 C   0  0  0  0  0  0  0  0  0  0  0  0
  138.9590   79.0690  222.0100 C   0  0  0  0  0  0  0  0  0  0  0  0
  139.2680   79.3130  223.4610 C   0  0  0  0  0  0  0  0  0  0  0  0
  140.7460   79.3360  223.6600 C   0  0  0  0  0  0  0  0  0  0  0  0
  141.5090   78.2010  223.0990 C   0  0  0  0  0  0  0  0  0  0  0  0
  139.6070   71.7710  222.9810 C   0  0  0  0  0  0  0  0  0  0  0  0
  139.0170   70.5220  222.9550 C   0  0  0  0  0  0  0  0  0  0  0  0
  139.0810   69.6230  223.9870 C   0  0  0  0  0  0  0  0  0  0  0  0
  139.7820   70.0050  225.1170 C   0  0  0  0  0  0  0  0  0  0  0  0
  139.8690   69.1270  226.1790 C   0  0  0  0  0  0  0  0  0  0  0  0
  140.5700   69.5360  227.2790 C   0  0  0  0  0  0  0  0  0  0  0  0
  140.6870   68.4320  228.6330 Cl  0  0  0  0  0  0  0  0  0  0  0  0
  141.1630   70.7890  227.3120 C   0  0  0  0  0  0  0  0  0  0  0  0
  141.0760   71.6730  226.2420 C   0  0  0  0  0  0  0  0  0  0  0  0
  140.3600   71.2560  225.1160 C   0  0  0  0  0  0  0  0  0  0  0  0
  140.2780   72.1120  224.0860 N   0  0  0  0  0  0  0  0  0  0  0  0
  141.1340   73.9070  222.5040 H   0  0  0  0  0  0  0  0  0  0  0  0
  140.1525   74.1670  219.7100 H   0  0  0  0  0  0  0  0  0  0  0  0
  139.5457   75.4394  220.8096 H   0  0  0  0  0  0  0  0  0  0  0  0
  143.0266   76.3988  218.1194 H   0  0  0  0  0  0  0  0  0  0  0  0
  141.5746   75.3101  218.2322 H   0  0  0  0  0  0  0  0  0  0  0  0
  141.1428   76.8937  216.5031 H   0  0  0  0  0  0  0  0  0  0  0  0
  140.1391   77.3503  217.8981 H   0  0  0  0  0  0  0  0  0  0  0  0
  142.9503   78.4611  217.7805 H   0  0  0  0  0  0  0  0  0  0  0  0
  141.7685   79.1360  216.6302 H   0  0  0  0  0  0  0  0  0  0  0  0
  141.3989   80.4785  218.5093 H   0  0  0  0  0  0  0  0  0  0  0  0
  140.1860   79.1324  218.7576 H   0  0  0  0  0  0  0  0  0  0  0  0
  142.8677   79.4354  219.9917 H   0  0  0  0  0  0  0  0  0  0  0  0
  141.1023   79.6278  220.6969 H   0  0  0  0  0  0  0  0  0  0  0  0
  142.8848   77.8883  220.9425 H   0  0  0  0  0  0  0  0  0  0  0  0
  141.0242   76.4714  222.0475 H   0  0  0  0  0  0  0  0  0  0  0  0
  139.2822   77.5167  220.6082 H   0  0  0  0  0  0  0  0  0  0  0  0
  139.0228   77.0080  222.3581 H   0  0  0  0  0  0  0  0  0  0  0  0
  139.4384   79.8385  221.3871 H   0  0  0  0  0  0  0  0  0  0  0  0
  137.8753   79.1132  221.8266 H   0  0  0  0  0  0  0  0  0  0  0  0
  138.8420   80.2793  223.7687 H   0  0  0  0  0  0  0  0  0  0  0  0
  138.8297   78.5076  224.0686 H   0  0  0  0  0  0  0  0  0  0  0  0
  141.1303   80.2571  223.1975 H   0  0  0  0  0  0  0  0  0  0  0  0
  140.8922   79.2729  224.7484 H   0  0  0  0  0  0  0  0  0  0  0  0
  142.5184   78.5660  222.8586 H   0  0  0  0  0  0  0  0  0  0  0  0
  141.4709   77.4203  223.8729 H   0  0  0  0  0  0  0  0  0  0  0  0
  138.4621   70.2316  222.0507 H   0  0  0  0  0  0  0  0  0  0  0  0
  138.5952   68.6384  223.9199 H   0  0  0  0  0  0  0  0  0  0  0  0
  139.3925   68.1363  226.1414 H   0  0  0  0  0  0  0  0  0  0  0  0
  141.7188   71.0928  228.2113 H   0  0  0  0  0  0  0  0  0  0  0  0
  141.5528   72.6635  226.2802 H   0  0  0  0  0  0  0  0  0  0  0  0
  1  2  2  0
  2  3  1  0
  3  4  1  0
  4  5  1  0
  5  6  2  0
  5  7  1  0
  7  8  1  0
  8  9  1  0
  9 10  1  0
 10 11  1  0
 11 12  1  0
 12 13  1  0
 13 14  1  0
 14 15  1  0
 15 16  1  0
 16 17  1  0
 17 18  1  0
 18 19  1  0
  2 20  1  0
 20 21  2  0
 21 22  1  0
 22 23  2  0
 23 24  1  0
 24 25  2  0
 25 26  1  0
 25 27  1  0
 27 28  2  0
 28 29  1  0
 29 30  2  0
 13  7  1  0
 19 14  1  0
 30 20  1  0
 29 23  1  0
  3 31  1  0
  4 32  1  0
  4 33  1  0
  8 34  1  0
  8 35  1  0
  9 36  1  0
  9 37  1  0
 10 38  1  0
 10 39  1  0
 11 40  1  0
 11 41  1  0
 12 42  1  0
 12 43  1  0
 13 44  1  1
 14 45  1  0
 15 46  1  0
 15 47  1  0
 16 48  1  0
 16 49  1  0
 17 50  1  0
 17 51  1  0
 18 52  1  0
 18 53  1  0
 19 54  1  0
 19 55  1  0
 21 56  1  0
 22 57  1  0
 24 58  1  0
 27 59  1  0
 28 60  1  0
M  END
>  <smiles>  (51) 
O=C(NCC(=O)N1CCCCCC1C1CCCCC1)c1ccc2cc(Cl)ccc2n1

>  <score_type>  (51) 
oracle

>  <origin>  (51) 
autodockgpu

>  <m_score__min__energy>  (51) 
-6.6600000000000001

>  <m_primary>  (51) 
energy

>  <rmsd>  (51) 
2.0934070642907714

>  <m_score__min__rmsd>  (51) 
2.0934070642907714

>  <meeko>  (51) 
{"free_energy": -5.72, "intermolecular_energy": -9.01, "internal_energy": -2.48, "cluster_size": 30, "cluster_id": 1, "rank_in_cluster": 14}

>  <energy>  (51) 
-6.66

>  <cluster_rmsd>  (51) 
0.0

>  <cluster>  (51) 
1

$$$$

     RDKit          3D

 60 63  0  0  0  0  0  0  0  0999 V2000
  137.5280   71.0220  221.2860 O   0  0  0  0  0  0  0  0  0  0  0  0
  138.1160   71.6290  222.2170 C   0  0  0  0  0  0  0  0  0  0  0  0
  138.2970   73.0390  222.2470 N   0  0  0  0  0  0  0  0  0  0  0  0
  137.7990   73.8770  221.1730 C   0  0  0  0  0  0  0  0  0  0  0  0
  138.8140   73.9330  220.1270 C   0  0  0  0  0  0  0  0  0  0  0  0
  138.4810   74.4550  219.0140 O   0  0  0  0  0  0  0  0  0  0  0  0
  140.1700   73.4200  220.3090 N   0  0  0  0  0  0  0  0  0  0  0  0
  140.2540   72.0640  219.8270 C   0  0  0  0  0  0  0  0  0  0  0  0
  141.3810   71.3030  220.4560 C   0  0  0  0  0  0  0  0  0  0  0  0
  142.6680   71.8790  219.9030 C   0  0  0  0  0  0  0  0  0  0  0  0
  143.1710   72.9150  220.8990 C   0  0  0  0  0  0  0  0  0  0  0  0
  142.4890   74.2140  220.8020 C   0  0  0  0  0  0  0  0  0  0  0  0
  141.0530   74.3730  220.8990 C   0  0  1  0  0  0  0  0  0  0  0  0
  140.4860   75.7910  220.7160 C   0  0  0  0  0  0  0  0  0  0  0  0
  141.1310   76.6170  219.6810 C   0  0  0  0  0  0  0  0  0  0  0  0
  142.2160   77.5290  220.1720 C   0  0  0  0  0  0  0  0  0  0  0  0
  141.5930   78.4460  221.1880 C   0  0  0  0  0  0  0  0  0  0  0  0
  141.0890   77.6450  222.3410 C   0  0  0  0  0  0  0  0  0  0  0  0
  140.2310   76.4850  222.0200 C   0  0  0  0  0  0  0  0  0  0  0  0
  138.6480   70.8420  223.3410 C   0  0  0  0  0  0  0  0  0  0  0  0
  138.4200   69.4820  223.4220 C   0  0  0  0  0  0  0  0  0  0  0  0
  138.8830   68.6870  224.4380 C   0  0  0  0  0  0  0  0  0  0  0  0
  139.6220   69.2980  225.4330 C   0  0  0  0  0  0  0  0  0  0  0  0
  140.1070   68.5320  226.4740 C   0  0  0  0  0  0  0  0  0  0  0  0
  140.8350   69.1690  227.4410 C   0  0  0  0  0  0  0  0  0  0  0  0
  141.4550   68.2070  228.7670 Cl  0  0  0  0  0  0  0  0  0  0  0  0
  141.0670   70.5340  227.3650 C   0  0  0  0  0  0  0  0  0  0  0  0
  140.5790   71.3060  226.3170 C   0  0  0  0  0  0  0  0  0  0  0  0
  139.8350   70.6560  225.3270 C   0  0  0  0  0  0  0  0  0  0  0  0
  139.3660   71.4050  224.3180 N   0  0  0  0  0  0  0  0  0  0  0  0
  138.8020   73.4910  223.0580 H   0  0  0  0  0  0  0  0  0  0  0  0
  136.8703   73.4491  220.7675 H   0  0  0  0  0  0  0  0  0  0  0  0
  137.5865   74.8886  221.5492 H   0  0  0  0  0  0  0  0  0  0  0  0
  139.3092   71.5489  220.0551 H   0  0  0  0  0  0  0  0  0  0  0  0
  140.4399   72.1041  218.7436 H   0  0  0  0  0  0  0  0  0  0  0  0
  141.3531   71.4217  221.5492 H   0  0  0  0  0  0  0  0  0  0  0  0
  141.3031   70.2291  220.2308 H   0  0  0  0  0  0  0  0  0  0  0  0
  143.4151   71.0808  219.7818 H   0  0  0  0  0  0  0  0  0  0  0  0
  142.4950   72.3395  218.9191 H   0  0  0  0  0  0  0  0  0  0  0  0
  143.0216   72.5202  221.9148 H   0  0  0  0  0  0  0  0  0  0  0  0
  144.2315   73.0927  220.6672 H   0  0  0  0  0  0  0  0  0  0  0  0
  142.9150   74.8374  221.6020 H   0  0  0  0  0  0  0  0  0  0  0  0
  142.6617   74.4681  219.7458 H   0  0  0  0  0  0  0  0  0  0  0  0
  141.0455   74.1157  221.9685 H   0  0  0  0  0  0  0  0  0  0  0  0
  139.4933   75.6322  220.2696 H   0  0  0  0  0  0  0  0  0  0  0  0
  141.5684   75.9415  218.9311 H   0  0  0  0  0  0  0  0  0  0  0  0
  140.3430   77.2709  219.2792 H   0  0  0  0  0  0  0  0  0  0  0  0
  143.0216   76.9417  220.6369 H   0  0  0  0  0  0  0  0  0  0  0  0
  142.6528   78.1025  219.3411 H   0  0  0  0  0  0  0  0  0  0  0  0
  142.3460   79.1651  221.5429 H   0  0  0  0  0  0  0  0  0  0  0  0
  140.7553   78.9888  220.7258 H   0  0  0  0  0  0  0  0  0  0  0  0
  141.9631   77.2700  222.8936 H   0  0  0  0  0  0  0  0  0  0  0  0
  140.4450   78.3317  222.9100 H   0  0  0  0  0  0  0  0  0  0  0  0
  140.3617   75.7434  222.8219 H   0  0  0  0  0  0  0  0  0  0  0  0
  139.2149   76.8968  221.9309 H   0  0  0  0  0  0  0  0  0  0  0  0
  137.8312   69.0083  222.6227 H   0  0  0  0  0  0  0  0  0  0  0  0
  138.6749   67.6071  224.4604 H   0  0  0  0  0  0  0  0  0  0  0  0
  139.9152   67.4500  226.5240 H   0  0  0  0  0  0  0  0  0  0  0  0
  141.6546   71.0204  228.1575 H   0  0  0  0  0  0  0  0  0  0  0  0
  140.7709   72.3880  226.2682 H   0  0  0  0  0  0  0  0  0  0  0  0
  1  2  2  0
  2  3  1  0
  3  4  1  0
  4  5  1  0
  5  6  2  0
  5  7  1  0
  7  8  1  0
  8  9  1  0
  9 10  1  0
 10 11  1  0
 11 12  1  0
 12 13  1  0
 13 14  1  0
 14 15  1  0
 15 16  1  0
 16 17  1  0
 17 18  1  0
 18 19  1  0
  2 20  1  0
 20 21  2  0
 21 22  1  0
 22 23  2  0
 23 24  1  0
 24 25  2  0
 25 26  1  0
 25 27  1  0
 27 28  2  0
 28 29  1  0
 29 30  2  0
 13  7  1  0
 19 14  1  0
 30 20  1  0
 29 23  1  0
  3 31  1  0
  4 32  1  0
  4 33  1  0
  8 34  1  0
  8 35  1  0
  9 36  1  0
  9 37  1  0
 10 38  1  0
 10 39  1  0
 11 40  1  0
 11 41  1  0
 12 42  1  0
 12 43  1  0
 13 44  1  1
 14 45  1  0
 15 46  1  0
 15 47  1  0
 16 48  1  0
 16 49  1  0
 17 50  1  0
 17 51  1  0
 18 52  1  0
 18 53  1  0
 19 54  1  0
 19 55  1  0
 21 56  1  0
 22 57  1  0
 24 58  1  0
 27 59  1  0
 28 60  1  0
M  END
>  <smiles>  (52) 
O=C(NCC(=O)N1CCCCCC1C1CCCCC1)c1ccc2cc(Cl)ccc2n1

>  <score_type>  (52) 
oracle

>  <origin>  (52) 
autodockgpu

>  <m_score__min__energy>  (52) 
-6.6600000000000001

>  <m_primary>  (52) 
energy

>  <rmsd>  (52) 
2.517353160480131

>  <m_score__min__rmsd>  (52) 
2.517353160480131

>  <meeko>  (52) 
{"free_energy": -4.79, "intermolecular_energy": -8.07, "internal_energy": -2.48, "cluster_size": 7, "cluster_id": 3, "rank_in_cluster": 6}

>  <energy>  (52) 
-6.38

>  <cluster_rmsd>  (52) 
0.99

>  <cluster>  (52) 
1

$$$$

     RDKit          3D

 60 63  0  0  0  0  0  0  0  0999 V2000
  138.8480   76.1790  222.5680 O   0  0  0  0  0  0  0  0  0  0  0  0
  139.6590   76.3940  221.6320 C   0  0  0  0  0  0  0  0  0  0  0  0
  139.7130   77.6120  220.9000 N   0  0  0  0  0  0  0  0  0  0  0  0
  138.8090   78.7040  221.2050 C   0  0  0  0  0  0  0  0  0  0  0  0
  139.3110   79.9100  220.5560 C   0  0  0  0  0  0  0  0  0  0  0  0
  139.8310   79.7820  219.4000 O   0  0  0  0  0  0  0  0  0  0  0  0
  139.2410   81.2320  221.1750 N   0  0  0  0  0  0  0  0  0  0  0  0
  137.8810   81.5310  221.5480 C   0  0  0  0  0  0  0  0  0  0  0  0
  137.4680   82.9140  221.1420 C   0  0  0  0  0  0  0  0  0  0  0  0
  138.3860   83.8790  221.8630 C   0  0  0  0  0  0  0  0  0  0  0  0
  139.5240   84.2260  220.9130 C   0  0  0  0  0  0  0  0  0  0  0  0
  140.6480   83.2890  220.9630 C   0  0  0  0  0  0  0  0  0  0  0  0
  140.5110   81.8780  221.2590 C   0  0  1  0  0  0  0  0  0  0  0  0
  141.2950   81.3300  222.4630 C   0  0  0  0  0  0  0  0  0  0  0  0
  142.4560   80.4810  222.1470 C   0  0  0  0  0  0  0  0  0  0  0  0
  142.1870   79.0050  222.1380 C   0  0  0  0  0  0  0  0  0  0  0  0
  141.6940   78.6400  223.5120 C   0  0  0  0  0  0  0  0  0  0  0  0
  140.4140   79.3530  223.7880 C   0  0  0  0  0  0  0  0  0  0  0  0
  140.4000   80.8110  223.5490 C   0  0  0  0  0  0  0  0  0  0  0  0
  140.6080   75.3300  221.2690 C   0  0  0  0  0  0  0  0  0  0  0  0
  140.3000   74.0020  221.4910 C   0  0  0  0  0  0  0  0  0  0  0  0
  141.1330   72.9590  221.1790 C   0  0  0  0  0  0  0  0  0  0  0  0
  142.3520   73.2730  220.6070 C   0  0  0  0  0  0  0  0  0  0  0  0
  143.2200   72.2510  220.2770 C   0  0  0  0  0  0  0  0  0  0  0  0
  144.4170   72.5960  219.7130 C   0  0  0  0  0  0  0  0  0  0  0  0
  145.5260   71.3090  219.2920 Cl  0  0  0  0  0  0  0  0  0  0  0  0
  144.7320   73.9280  219.4880 C   0  0  0  0  0  0  0  0  0  0  0  0
  143.8580   74.9580  219.8200 C   0  0  0  0  0  0  0  0  0  0  0  0
  142.6340   74.6050  220.3960 C   0  0  0  0  0  0  0  0  0  0  0  0
  141.7940   75.6020  220.7140 N   0  0  0  0  0  0  0  0  0  0  0  0
  140.4180   77.7320  220.1230 H   0  0  0  0  0  0  0  0  0  0  0  0
  137.8026   78.4701  220.8275 H   0  0  0  0  0  0  0  0  0  0  0  0
  138.7516   78.8554  222.2930 H   0  0  0  0  0  0  0  0  0  0  0  0
  137.2133   80.8055  221.0604 H   0  0  0  0  0  0  0  0  0  0  0  0
  137.8123   81.4686  222.6441 H   0  0  0  0  0  0  0  0  0  0  0  0
  137.5719   83.0352  220.0536 H   0  0  0  0  0  0  0  0  0  0  0  0
  136.4163   83.1026  221.4034 H   0  0  0  0  0  0  0  0  0  0  0  0
  137.8334   84.7902  222.1355 H   0  0  0  0  0  0  0  0  0  0  0  0
  138.7768   83.4252  222.7857 H   0  0  0  0  0  0  0  0  0  0  0  0
  139.1273   84.2359  219.8871 H   0  0  0  0  0  0  0  0  0  0  0  0
  139.9126   85.2062  221.2263 H   0  0  0  0  0  0  0  0  0  0  0  0
  141.1248   83.3415  219.9731 H   0  0  0  0  0  0  0  0  0  0  0  0
  141.1759   83.6418  221.8612 H   0  0  0  0  0  0  0  0  0  0  0  0
  141.0209   81.5825  220.3302 H   0  0  0  0  0  0  0  0  0  0  0  0
  141.7916   82.2138  222.8900 H   0  0  0  0  0  0  0  0  0  0  0  0
  142.8239   80.7655  221.1502 H   0  0  0  0  0  0  0  0  0  0  0  0
  143.1863   80.6523  222.9516 H   0  0  0  0  0  0  0  0  0  0  0  0
  141.4212   78.7650  221.3857 H   0  0  0  0  0  0  0  0  0  0  0  0
  143.0970   78.4414  221.8846 H   0  0  0  0  0  0  0  0  0  0  0  0
  141.5273   77.5540  223.5649 H   0  0  0  0  0  0  0  0  0  0  0  0
  142.4451   78.9333  224.2602 H   0  0  0  0  0  0  0  0  0  0  0  0
  139.6383   78.9036  223.1506 H   0  0  0  0  0  0  0  0  0  0  0  0
  140.2462   79.2363  224.8688 H   0  0  0  0  0  0  0  0  0  0  0  0
  139.3686   81.0959  223.2939 H   0  0  0  0  0  0  0  0  0  0  0  0
  140.7873   81.2571  224.4769 H   0  0  0  0  0  0  0  0  0  0  0  0
  139.3265   73.7669  221.9461 H   0  0  0  0  0  0  0  0  0  0  0  0
  140.8438   71.9160  221.3755 H   0  0  0  0  0  0  0  0  0  0  0  0
  142.9583   71.1985  220.4609 H   0  0  0  0  0  0  0  0  0  0  0  0
  145.7021   74.1773  219.0334 H   0  0  0  0  0  0  0  0  0  0  0  0
  144.1200   76.0104  219.6363 H   0  0  0  0  0  0  0  0  0  0  0  0
  1  2  2  0
  2  3  1  0
  3  4  1  0
  4  5  1  0
  5  6  2  0
  5  7  1  0
  7  8  1  0
  8  9  1  0
  9 10  1  0
 10 11  1  0
 11 12  1  0
 12 13  1  0
 13 14  1  0
 14 15  1  0
 15 16  1  0
 16 17  1  0
 17 18  1  0
 18 19  1  0
  2 20  1  0
 20 21  2  0
 21 22  1  0
 22 23  2  0
 23 24  1  0
 24 25  2  0
 25 26  1  0
 25 27  1  0
 27 28  2  0
 28 29  1  0
 29 30  2  0
 13  7  1  0
 19 14  1  0
 30 20  1  0
 29 23  1  0
  3 31  1  0
  4 32  1  0
  4 33  1  0
  8 34  1  0
  8 35  1  0
  9 36  1  0
  9 37  1  0
 10 38  1  0
 10 39  1  0
 11 40  1  0
 11 41  1  0
 12 42  1  0
 12 43  1  0
 13 44  1  6
 14 45  1  0
 15 46  1  0
 15 47  1  0
 16 48  1  0
 16 49  1  0
 17 50  1  0
 17 51  1  0
 18 52  1  0
 18 53  1  0
 19 54  1  0
 19 55  1  0
 21 56  1  0
 22 57  1  0
 24 58  1  0
 27 59  1  0
 28 60  1  0
M  END
>  <smiles>  (53) 
O=C(NCC(=O)N1CCCCCC1C1CCCCC1)c1ccc2cc(Cl)ccc2n1

>  <score_type>  (53) 
oracle

>  <origin>  (53) 
autodockgpu

>  <m_score__min__energy>  (53) 
-6.6600000000000001

>  <m_primary>  (53) 
energy

>  <rmsd>  (53) 
6.929100000305203

>  <m_score__min__rmsd>  (53) 
6.929100000305203

>  <meeko>  (53) 
{"free_energy": -3.87, "intermolecular_energy": -7.15, "internal_energy": -3.01, "cluster_size": 2, "cluster_id": 8, "rank_in_cluster": 2}

>  <energy>  (53) 
-6.28

>  <cluster_rmsd>  (53) 
1.38

>  <cluster>  (53) 
1

$$$$

     RDKit          3D

 60 63  0  0  0  0  0  0  0  0999 V2000
  139.7590   72.3230  220.4710 O   0  0  0  0  0  0  0  0  0  0  0  0
  140.2600   72.7400  221.5460 C   0  0  0  0  0  0  0  0  0  0  0  0
  140.9010   74.0030  221.6800 N   0  0  0  0  0  0  0  0  0  0  0  0
  141.0130   74.9040  220.5490 C   0  0  0  0  0  0  0  0  0  0  0  0
  139.7360   75.5880  220.3800 C   0  0  0  0  0  0  0  0  0  0  0  0
  139.0810   75.3560  219.3130 O   0  0  0  0  0  0  0  0  0  0  0  0
  139.1940   76.5130  221.3740 N   0  0  0  0  0  0  0  0  0  0  0  0
  138.3530   75.8020  222.3040 C   0  0  0  0  0  0  0  0  0  0  0  0
  137.0170   76.4580  222.4840 C   0  0  0  0  0  0  0  0  0  0  0  0
  137.2730   77.8240  223.0860 C   0  0  0  0  0  0  0  0  0  0  0  0
  137.3730   78.8190  221.9380 C   0  0  0  0  0  0  0  0  0  0  0  0
  138.7330   78.9710  221.4150 C   0  0  0  0  0  0  0  0  0  0  0  0
  139.6310   77.8580  221.1810 C   0  0  1  0  0  0  0  0  0  0  0  0
  141.0830   78.0080  221.6660 C   0  0  0  0  0  0  0  0  0  0  0  0
  141.2940   77.8960  223.1190 C   0  0  0  0  0  0  0  0  0  0  0  0
  141.3150   79.1970  223.8660 C   0  0  0  0  0  0  0  0  0  0  0  0
  142.4350   80.0180  223.2870 C   0  0  0  0  0  0  0  0  0  0  0  0
  142.1540   80.3020  221.8500 C   0  0  0  0  0  0  0  0  0  0  0  0
  141.8000   79.1450  221.0010 C   0  0  0  0  0  0  0  0  0  0  0  0
  140.1830   71.8780  222.7360 C   0  0  0  0  0  0  0  0  0  0  0  0
  139.5770   70.6380  222.6730 C   0  0  0  0  0  0  0  0  0  0  0  0
  139.4690   69.7830  223.7380 C   0  0  0  0  0  0  0  0  0  0  0  0
  140.0030   70.2020  224.9430 C   0  0  0  0  0  0  0  0  0  0  0  0
  139.9140   69.3690  226.0400 C   0  0  0  0  0  0  0  0  0  0  0  0
  140.4520   69.8140  227.2150 C   0  0  0  0  0  0  0  0  0  0  0  0
  140.3450   68.7670  228.6150 Cl  0  0  0  0  0  0  0  0  0  0  0  0
  141.0600   71.0590  227.2850 C   0  0  0  0  0  0  0  0  0  0  0  0
  141.1500   71.8980  226.1800 C   0  0  0  0  0  0  0  0  0  0  0  0
  140.6010   71.4430  224.9780 C   0  0  0  0  0  0  0  0  0  0  0  0
  140.6890   72.2550  223.9140 N   0  0  0  0  0  0  0  0  0  0  0  0
  141.3040   74.2960  222.6110 H   0  0  0  0  0  0  0  0  0  0  0  0
  141.8075   75.6409  220.7378 H   0  0  0  0  0  0  0  0  0  0  0  0
  141.2641   74.3400  219.6386 H   0  0  0  0  0  0  0  0  0  0  0  0
  138.1968   74.7799  221.9287 H   0  0  0  0  0  0  0  0  0  0  0  0
  138.8597   75.8002  223.2803 H   0  0  0  0  0  0  0  0  0  0  0  0
  136.5129   76.5619  221.5118 H   0  0  0  0  0  0  0  0  0  0  0  0
  136.3684   75.8559  223.1374 H   0  0  0  0  0  0  0  0  0  0  0  0
  136.4434   78.1020  223.7527 H   0  0  0  0  0  0  0  0  0  0  0  0
  138.2011   77.8193  223.6764 H   0  0  0  0  0  0  0  0  0  0  0  0
  136.7219   78.4749  221.1209 H   0  0  0  0  0  0  0  0  0  0  0  0
  137.0654   79.7993  222.3309 H   0  0  0  0  0  0  0  0  0  0  0  0
  138.6267   79.4798  220.4456 H   0  0  0  0  0  0  0  0  0  0  0  0
  139.2308   79.4737  222.2573 H   0  0  0  0  0  0  0  0  0  0  0  0
  139.5987   77.9948  220.0900 H   0  0  0  0  0  0  0  0  0  0  0  0
  141.5859   77.0966  221.3105 H   0  0  0  0  0  0  0  0  0  0  0  0
  140.4831   77.2791  223.5336 H   0  0  0  0  0  0  0  0  0  0  0  0
  142.2934   77.4550  223.2481 H   0  0  0  0  0  0  0  0  0  0  0  0
  140.3567   79.7217  223.7381 H   0  0  0  0  0  0  0  0  0  0  0  0
  141.4667   79.0294  224.9425 H   0  0  0  0  0  0  0  0  0  0  0  0
  142.5173   80.9662  223.8386 H   0  0  0  0  0  0  0  0  0  0  0  0
  143.3793   79.4603  223.3720 H   0  0  0  0  0  0  0  0  0  0  0  0
  141.3167   81.0142  221.8086 H   0  0  0  0  0  0  0  0  0  0  0  0
  143.1014   80.6819  221.4401 H   0  0  0  0  0  0  0  0  0  0  0  0
  141.1564   79.5138  220.1887 H   0  0  0  0  0  0  0  0  0  0  0  0
  142.7626   78.7245  220.6745 H   0  0  0  0  0  0  0  0  0  0  0  0
  139.1555   70.3176  221.7088 H   0  0  0  0  0  0  0  0  0  0  0  0
  138.9779   68.8037  223.6388 H   0  0  0  0  0  0  0  0  0  0  0  0
  139.4285   68.3843  225.9712 H   0  0  0  0  0  0  0  0  0  0  0  0
  141.4837   71.3925  228.2438 H   0  0  0  0  0  0  0  0  0  0  0  0
  141.6350   72.8829  226.2492 H   0  0  0  0  0  0  0  0  0  0  0  0
  1  2  2  0
  2  3  1  0
  3  4  1  0
  4  5  1  0
  5  6  2  0
  5  7  1  0
  7  8  1  0
  8  9  1  0
  9 10  1  0
 10 11  1  0
 11 12  1  0
 12 13  1  0
 13 14  1  0
 14 15  1  0
 15 16  1  0
 16 17  1  0
 17 18  1  0
 18 19  1  0
  2 20  1  0
 20 21  2  0
 21 22  1  0
 22 23  2  0
 23 24  1  0
 24 25  2  0
 25 26  1  0
 25 27  1  0
 27 28  2  0
 28 29  1  0
 29 30  2  0
 13  7  1  0
 19 14  1  0
 30 20  1  0
 29 23  1  0
  3 31  1  0
  4 32  1  0
  4 33  1  0
  8 34  1  0
  8 35  1  0
  9 36  1  0
  9 37  1  0
 10 38  1  0
 10 39  1  0
 11 40  1  0
 11 41  1  0
 12 42  1  0
 12 43  1  0
 13 44  1  6
 14 45  1  0
 15 46  1  0
 15 47  1  0
 16 48  1  0
 16 49  1  0
 17 50  1  0
 17 51  1  0
 18 52  1  0
 18 53  1  0
 19 54  1  0
 19 55  1  0
 21 56  1  0
 22 57  1  0
 24 58  1  0
 27 59  1  0
 28 60  1  0
M  END
>  <smiles>  (54) 
O=C(NCC(=O)N1CCCCCC1C1CCCCC1)c1ccc2cc(Cl)ccc2n1

>  <score_type>  (54) 
oracle

>  <origin>  (54) 
autodockgpu

>  <m_score__min__energy>  (54) 
-6.6600000000000001

>  <m_primary>  (54) 
energy

>  <rmsd>  (54) 
3.1109968621919664

>  <m_score__min__rmsd>  (54) 
3.1109968621919664

>  <meeko>  (54) 
{"free_energy": -5.02, "intermolecular_energy": -8.3, "internal_energy": -2.23, "cluster_size": 30, "cluster_id": 1, "rank_in_cluster": 28}

>  <energy>  (54) 
-6.13

>  <cluster_rmsd>  (54) 
1.48

>  <cluster>  (54) 
1

$$$$

     RDKit          3D

 60 63  0  0  0  0  0  0  0  0999 V2000
  139.2100   71.8030  220.7680 O   0  0  0  0  0  0  0  0  0  0  0  0
  139.4970   72.3130  221.8810 C   0  0  0  0  0  0  0  0  0  0  0  0
  139.6900   73.7080  222.0820 N   0  0  0  0  0  0  0  0  0  0  0  0
  139.5620   74.6430  220.9810 C   0  0  0  0  0  0  0  0  0  0  0  0
  140.7590   75.4750  220.9450 C   0  0  0  0  0  0  0  0  0  0  0  0
  141.4680   75.5290  222.0020 O   0  0  0  0  0  0  0  0  0  0  0  0
  141.1630   76.2340  219.7630 N   0  0  0  0  0  0  0  0  0  0  0  0
  141.4540   77.5980  220.1280 C   0  0  0  0  0  0  0  0  0  0  0  0
  142.0010   78.3920  218.9800 C   0  0  0  0  0  0  0  0  0  0  0  0
  140.9130   78.4550  217.9280 C   0  0  0  0  0  0  0  0  0  0  0  0
  141.2210   77.3860  216.8870 C   0  0  0  0  0  0  0  0  0  0  0  0
  140.8270   76.0330  217.2930 C   0  0  0  0  0  0  0  0  0  0  0  0
  141.1740   75.4480  218.5720 C   0  0  1  0  0  0  0  0  0  0  0  0
  142.3630   74.4740  218.6030 C   0  0  0  0  0  0  0  0  0  0  0  0
  142.0780   73.1220  219.1130 C   0  0  0  0  0  0  0  0  0  0  0  0
  142.3640   72.9140  220.5720 C   0  0  0  0  0  0  0  0  0  0  0  0
  143.8270   73.1990  220.7780 C   0  0  0  0  0  0  0  0  0  0  0  0
  144.1110   74.6230  220.4370 C   0  0  0  0  0  0  0  0  0  0  0  0
  143.6160   75.1050  219.1310 C   0  0  0  0  0  0  0  0  0  0  0  0
  139.6420   71.4230  223.0430 C   0  0  0  0  0  0  0  0  0  0  0  0
  139.1800   70.1230  223.0010 C   0  0  0  0  0  0  0  0  0  0  0  0
  139.2800   69.2390  224.0430 C   0  0  0  0  0  0  0  0  0  0  0  0
  139.8840   69.6920  225.2010 C   0  0  0  0  0  0  0  0  0  0  0  0
  140.0050   68.8320  226.2740 C   0  0  0  0  0  0  0  0  0  0  0  0
  140.6080   69.3130  227.4040 C   0  0  0  0  0  0  0  0  0  0  0  0
  140.7670   68.2320  228.7720 Cl  0  0  0  0  0  0  0  0  0  0  0  0
  141.0740   70.6180  227.4530 C   0  0  0  0  0  0  0  0  0  0  0  0
  140.9520   71.4850  226.3720 C   0  0  0  0  0  0  0  0  0  0  0  0
  140.3370   70.9940  225.2170 C   0  0  0  0  0  0  0  0  0  0  0  0
  140.2210   71.8330  224.1760 N   0  0  0  0  0  0  0  0  0  0  0  0
  139.9300   74.0760  223.0420 H   0  0  0  0  0  0  0  0  0  0  0  0
  139.4638   74.0915  220.0343 H   0  0  0  0  0  0  0  0  0  0  0  0
  138.6687   75.2701  221.1184 H   0  0  0  0  0  0  0  0  0  0  0  0
  140.5270   78.0756  220.4780 H   0  0  0  0  0  0  0  0  0  0  0  0
  142.2198   77.5781  220.9174 H   0  0  0  0  0  0  0  0  0  0  0  0
  142.2635   79.4068  219.3134 H   0  0  0  0  0  0  0  0  0  0  0  0
  142.9110   77.9238  218.5766 H   0  0  0  0  0  0  0  0  0  0  0  0
  139.9333   78.2597  218.3886 H   0  0  0  0  0  0  0  0  0  0  0  0
  140.8807   79.4513  217.4628 H   0  0  0  0  0  0  0  0  0  0  0  0
  140.6852   77.6398  215.9604 H   0  0  0  0  0  0  0  0  0  0  0  0
  142.3127   77.3749  216.7528 H   0  0  0  0  0  0  0  0  0  0  0  0
  139.7284   76.0118  217.2412 H   0  0  0  0  0  0  0  0  0  0  0  0
  141.4293   75.4197  216.6067 H   0  0  0  0  0  0  0  0  0  0  0  0
  140.2360   74.8756  218.6222 H   0  0  0  0  0  0  0  0  0  0  0  0
  142.5677   74.2607  217.5435 H   0  0  0  0  0  0  0  0  0  0  0  0
  141.0118   72.9120  218.9422 H   0  0  0  0  0  0  0  0  0  0  0  0
  142.7528   72.4434  218.5707 H   0  0  0  0  0  0  0  0  0  0  0  0
  141.7561   73.6019  221.1780 H   0  0  0  0  0  0  0  0  0  0  0  0
  142.1171   71.8867  220.8781 H   0  0  0  0  0  0  0  0  0  0  0  0
  144.0916   73.0144  221.8296 H   0  0  0  0  0  0  0  0  0  0  0  0
  144.4229   72.5414  220.1280 H   0  0  0  0  0  0  0  0  0  0  0  0
  143.6555   75.2497  221.2178 H   0  0  0  0  0  0  0  0  0  0  0  0
  145.2070   74.6915  220.3734 H   0  0  0  0  0  0  0  0  0  0  0  0
  143.4295   76.1850  219.2249 H   0  0  0  0  0  0  0  0  0  0  0  0
  144.3998   74.8307  218.4096 H   0  0  0  0  0  0  0  0  0  0  0  0
  138.7019   69.7751  222.0734 H   0  0  0  0  0  0  0  0  0  0  0  0
  138.8957   68.2116  223.9615 H   0  0  0  0  0  0  0  0  0  0  0  0
  139.6307   67.7989  226.2225 H   0  0  0  0  0  0  0  0  0  0  0  0
  141.5546   70.9786  228.3744 H   0  0  0  0  0  0  0  0  0  0  0  0
  141.3256   72.5183  226.4243 H   0  0  0  0  0  0  0  0  0  0  0  0
  1  2  2  0
  2  3  1  0
  3  4  1  0
  4  5  1  0
  5  6  2  0
  5  7  1  0
  7  8  1  0
  8  9  1  0
  9 10  1  0
 10 11  1  0
 11 12  1  0
 12 13  1  0
 13 14  1  0
 14 15  1  0
 15 16  1  0
 16 17  1  0
 17 18  1  0
 18 19  1  0
  2 20  1  0
 20 21  2  0
 21 22  1  0
 22 23  2  0
 23 24  1  0
 24 25  2  0
 25 26  1  0
 25 27  1  0
 27 28  2  0
 28 29  1  0
 29 30  2  0
 13  7  1  0
 19 14  1  0
 30 20  1  0
 29 23  1  0
  3 31  1  0
  4 32  1  0
  4 33  1  0
  8 34  1  0
  8 35  1  0
  9 36  1  0
  9 37  1  0
 10 38  1  0
 10 39  1  0
 11 40  1  0
 11 41  1  0
 12 42  1  0
 12 43  1  0
 13 44  1  1
 14 45  1  0
 15 46  1  0
 15 47  1  0
 16 48  1  0
 16 49  1  0
 17 50  1  0
 17 51  1  0
 18 52  1  0
 18 53  1  0
 19 54  1  0
 19 55  1  0
 21 56  1  0
 22 57  1  0
 24 58  1  0
 27 59  1  0
 28 60  1  0
M  END
>  <smiles>  (55) 
O=C(NCC(=O)N1CCCCCC1C1CCCCC1)c1ccc2cc(Cl)ccc2n1

>  <score_type>  (55) 
oracle

>  <origin>  (55) 
autodockgpu

>  <m_score__min__energy>  (55) 
-6.6600000000000001

>  <m_primary>  (55) 
energy

>  <rmsd>  (55) 
2.198343438566908

>  <m_score__min__rmsd>  (55) 
2.198343438566908

>  <meeko>  (55) 
{"free_energy": -5.1, "intermolecular_energy": -8.38, "internal_energy": -2.75, "cluster_size": 30, "cluster_id": 1, "rank_in_cluster": 27}

>  <energy>  (55) 
-6.11

>  <cluster_rmsd>  (55) 
0.85

>  <cluster>  (55) 
1

$$$$

     RDKit          3D

 60 63  0  0  0  0  0  0  0  0999 V2000
  139.0650   71.8510  220.7940 O   0  0  0  0  0  0  0  0  0  0  0  0
  139.3850   72.3430  221.9050 C   0  0  0  0  0  0  0  0  0  0  0  0
  139.6110   73.7310  222.1170 N   0  0  0  0  0  0  0  0  0  0  0  0
  139.4790   74.6810  221.0290 C   0  0  0  0  0  0  0  0  0  0  0  0
  140.6240   75.5840  221.0680 C   0  0  0  0  0  0  0  0  0  0  0  0
  141.4460   75.4490  222.0320 O   0  0  0  0  0  0  0  0  0  0  0  0
  140.8540   76.6180  220.0610 N   0  0  0  0  0  0  0  0  0  0  0  0
  140.9960   77.9040  220.6970 C   0  0  0  0  0  0  0  0  0  0  0  0
  140.7960   79.0400  219.7400 C   0  0  0  0  0  0  0  0  0  0  0  0
  141.7920   78.8500  218.6140 C   0  0  0  0  0  0  0  0  0  0  0  0
  141.0280   78.3050  217.4150 C   0  0  0  0  0  0  0  0  0  0  0  0
  140.5310   76.9400  217.6020 C   0  0  0  0  0  0  0  0  0  0  0  0
  140.8860   76.1040  218.7300 C   0  0  1  0  0  0  0  0  0  0  0  0
  142.0950   75.1690  218.5620 C   0  0  0  0  0  0  0  0  0  0  0  0
  141.8190   73.7270  218.6880 C   0  0  0  0  0  0  0  0  0  0  0  0
  142.0470   73.1490  220.0540 C   0  0  0  0  0  0  0  0  0  0  0  0
  143.4920   73.3860  220.3970 C   0  0  0  0  0  0  0  0  0  0  0  0
  143.7580   74.8530  220.4540 C   0  0  0  0  0  0  0  0  0  0  0  0
  143.3090   75.6540  219.2960 C   0  0  0  0  0  0  0  0  0  0  0  0
  139.5360   71.4380  223.0550 C   0  0  0  0  0  0  0  0  0  0  0  0
  139.0550   70.1440  223.0050 C   0  0  0  0  0  0  0  0  0  0  0  0
  139.1600   69.2470  224.0360 C   0  0  0  0  0  0  0  0  0  0  0  0
  139.7880   69.6790  225.1890 C   0  0  0  0  0  0  0  0  0  0  0  0
  139.9140   68.8050  226.2510 C   0  0  0  0  0  0  0  0  0  0  0  0
  140.5400   69.2640  227.3760 C   0  0  0  0  0  0  0  0  0  0  0  0
  140.7050   68.1650  228.7290 Cl  0  0  0  0  0  0  0  0  0  0  0  0
  141.0250   70.5620  227.4320 C   0  0  0  0  0  0  0  0  0  0  0  0
  140.8990   71.4430  226.3640 C   0  0  0  0  0  0  0  0  0  0  0  0
  140.2590   70.9740  225.2130 C   0  0  0  0  0  0  0  0  0  0  0  0
  140.1390   71.8270  224.1840 N   0  0  0  0  0  0  0  0  0  0  0  0
  139.8790   74.0840  223.0760 H   0  0  0  0  0  0  0  0  0  0  0  0
  139.4599   74.1458  220.0682 H   0  0  0  0  0  0  0  0  0  0  0  0
  138.5436   75.2502  221.1343 H   0  0  0  0  0  0  0  0  0  0  0  0
  140.2502   77.9844  221.5016 H   0  0  0  0  0  0  0  0  0  0  0  0
  142.0213   77.9727  221.0894 H   0  0  0  0  0  0  0  0  0  0  0  0
  139.7700   79.0241  219.3437 H   0  0  0  0  0  0  0  0  0  0  0  0
  140.9490   80.0073  220.2409 H   0  0  0  0  0  0  0  0  0  0  0  0
  142.2568   79.8133  218.3570 H   0  0  0  0  0  0  0  0  0  0  0  0
  142.5890   78.1540  218.9148 H   0  0  0  0  0  0  0  0  0  0  0  0
  140.1684   78.9639  217.2227 H   0  0  0  0  0  0  0  0  0  0  0  0
  141.7333   78.2766  216.5714 H   0  0  0  0  0  0  0  0  0  0  0  0
  139.4341   77.0204  217.6219 H   0  0  0  0  0  0  0  0  0  0  0  0
  141.0382   76.4143  216.7796 H   0  0  0  0  0  0  0  0  0  0  0  0
  139.9598   75.5160  218.6506 H   0  0  0  0  0  0  0  0  0  0  0  0
  142.3506   75.2423  217.4946 H   0  0  0  0  0  0  0  0  0  0  0  0
  140.7662   73.5573  218.4183 H   0  0  0  0  0  0  0  0  0  0  0  0
  142.5313   73.2207  218.0199 H   0  0  0  0  0  0  0  0  0  0  0  0
  141.3978   73.6481  220.7884 H   0  0  0  0  0  0  0  0  0  0  0  0
  141.8112   72.0747  220.0697 H   0  0  0  0  0  0  0  0  0  0  0  0
  143.7149   72.9351  221.3753 H   0  0  0  0  0  0  0  0  0  0  0  0
  144.1304   72.9283  219.6270 H   0  0  0  0  0  0  0  0  0  0  0  0
  143.2545   75.2486  221.3484 H   0  0  0  0  0  0  0  0  0  0  0  0
  144.8538   74.9481  220.4641 H   0  0  0  0  0  0  0  0  0  0  0  0
  143.0935   76.6698  219.6588 H   0  0  0  0  0  0  0  0  0  0  0  0
  144.1296   75.5862  218.5666 H   0  0  0  0  0  0  0  0  0  0  0  0
  138.5573   69.8133  222.0814 H   0  0  0  0  0  0  0  0  0  0  0  0
  138.7610   68.2256  223.9494 H   0  0  0  0  0  0  0  0  0  0  0  0
  139.5250   67.7777  226.1936 H   0  0  0  0  0  0  0  0  0  0  0  0
  141.5248   70.9051  228.3499 H   0  0  0  0  0  0  0  0  0  0  0  0
  141.2881   72.4702  226.4224 H   0  0  0  0  0  0  0  0  0  0  0  0
  1  2  2  0
  2  3  1  0
  3  4  1  0
  4  5  1  0
  5  6  2  0
  5  7  1  0
  7  8  1  0
  8  9  1  0
  9 10  1  0
 10 11  1  0
 11 12  1  0
 12 13  1  0
 13 14  1  0
 14 15  1  0
 15 16  1  0
 16 17  1  0
 17 18  1  0
 18 19  1  0
  2 20  1  0
 20 21  2  0
 21 22  1  0
 22 23  2  0
 23 24  1  0
 24 25  2  0
 25 26  1  0
 25 27  1  0
 27 28  2  0
 28 29  1  0
 29 30  2  0
 13  7  1  0
 19 14  1  0
 30 20  1  0
 29 23  1  0
  3 31  1  0
  4 32  1  0
  4 33  1  0
  8 34  1  0
  8 35  1  0
  9 36  1  0
  9 37  1  0
 10 38  1  0
 10 39  1  0
 11 40  1  0
 11 41  1  0
 12 42  1  0
 12 43  1  0
 13 44  1  1
 14 45  1  0
 15 46  1  0
 15 47  1  0
 16 48  1  0
 16 49  1  0
 17 50  1  0
 17 51  1  0
 18 52  1  0
 18 53  1  0
 19 54  1  0
 19 55  1  0
 21 56  1  0
 22 57  1  0
 24 58  1  0
 27 59  1  0
 28 60  1  0
M  END
>  <smiles>  (56) 
O=C(NCC(=O)N1CCCCCC1C1CCCCC1)c1ccc2cc(Cl)ccc2n1

>  <score_type>  (56) 
oracle

>  <origin>  (56) 
autodockgpu

>  <m_score__min__energy>  (56) 
-6.6600000000000001

>  <m_primary>  (56) 
energy

>  <rmsd>  (56) 
2.1469004658850515

>  <m_score__min__rmsd>  (56) 
2.1469004658850515

>  <meeko>  (56) 
{"free_energy": -5.28, "intermolecular_energy": -8.56, "internal_energy": -2.55, "cluster_size": 30, "cluster_id": 1, "rank_in_cluster": 24}

>  <energy>  (56) 
-6.07

>  <cluster_rmsd>  (56) 
0.31

>  <cluster>  (56) 
1

$$$$

     RDKit          3D

 60 63  0  0  0  0  0  0  0  0999 V2000
  138.5750   71.8540  220.8880 O   0  0  0  0  0  0  0  0  0  0  0  0
  138.9830   72.3440  221.9720 C   0  0  0  0  0  0  0  0  0  0  0  0
  139.2030   73.7340  222.1740 N   0  0  0  0  0  0  0  0  0  0  0  0
  138.9600   74.6890  221.1100 C   0  0  0  0  0  0  0  0  0  0  0  0
  139.9160   74.4340  220.0380 C   0  0  0  0  0  0  0  0  0  0  0  0
  139.4600   74.3590  218.8510 O   0  0  0  0  0  0  0  0  0  0  0  0
  141.3480   74.2640  220.2760 N   0  0  0  0  0  0  0  0  0  0  0  0
  141.6410   72.8800  220.5530 C   0  0  0  0  0  0  0  0  0  0  0  0
  142.8160   72.3770  219.7700 C   0  0  0  0  0  0  0  0  0  0  0  0
  144.0480   73.0470  220.3410 C   0  0  0  0  0  0  0  0  0  0  0  0
  144.2840   74.3250  219.5480 C   0  0  0  0  0  0  0  0  0  0  0  0
  143.5230   75.4740  220.0380 C   0  0  0  0  0  0  0  0  0  0  0  0
  142.0810   75.4840  220.1680 C   0  0  1  0  0  0  0  0  0  0  0  0
  141.3000   76.4850  219.3010 C   0  0  0  0  0  0  0  0  0  0  0  0
  141.7480   76.6170  217.9040 C   0  0  0  0  0  0  0  0  0  0  0  0
  142.7160   77.7330  217.6440 C   0  0  0  0  0  0  0  0  0  0  0  0
  142.0310   79.0110  218.0430 C   0  0  0  0  0  0  0  0  0  0  0  0
  141.7260   78.9790  219.5030 C   0  0  0  0  0  0  0  0  0  0  0  0
  141.0300   77.7780  220.0100 C   0  0  0  0  0  0  0  0  0  0  0  0
  139.2510   71.4330  223.0960 C   0  0  0  0  0  0  0  0  0  0  0  0
  138.8890   70.1020  223.0290 C   0  0  0  0  0  0  0  0  0  0  0  0
  139.1060   69.1970  224.0350 C   0  0  0  0  0  0  0  0  0  0  0  0
  139.7260   69.6610  225.1800 C   0  0  0  0  0  0  0  0  0  0  0  0
  139.9620   68.7810  226.2170 C   0  0  0  0  0  0  0  0  0  0  0  0
  140.5770   69.2740  227.3350 C   0  0  0  0  0  0  0  0  0  0  0  0
  140.8820   68.1670  228.6570 Cl  0  0  0  0  0  0  0  0  0  0  0  0
  140.9420   70.6090  227.4090 C   0  0  0  0  0  0  0  0  0  0  0  0
  140.7040   71.4970  226.3650 C   0  0  0  0  0  0  0  0  0  0  0  0
  140.0760   70.9940  225.2210 C   0  0  0  0  0  0  0  0  0  0  0  0
  139.8480   71.8530  224.2160 N   0  0  0  0  0  0  0  0  0  0  0  0
  139.5490   74.0850  223.1090 H   0  0  0  0  0  0  0  0  0  0  0  0
  137.9346   74.5696  220.7301 H   0  0  0  0  0  0  0  0  0  0  0  0
  139.0791   75.7153  221.4876 H   0  0  0  0  0  0  0  0  0  0  0  0
  141.8594   72.7730  221.6258 H   0  0  0  0  0  0  0  0  0  0  0  0
  140.7630   72.2860  220.2592 H   0  0  0  0  0  0  0  0  0  0  0  0
  142.8984   71.2848  219.8720 H   0  0  0  0  0  0  0  0  0  0  0  0
  142.7032   72.6085  218.7006 H   0  0  0  0  0  0  0  0  0  0  0  0
  143.8866   73.2880  221.4021 H   0  0  0  0  0  0  0  0  0  0  0  0
  144.9198   72.3801  220.2689 H   0  0  0  0  0  0  0  0  0  0  0  0
  145.3548   74.5715  219.5985 H   0  0  0  0  0  0  0  0  0  0  0  0
  143.9440   74.1310  218.5200 H   0  0  0  0  0  0  0  0  0  0  0  0
  143.9163   75.6879  221.0428 H   0  0  0  0  0  0  0  0  0  0  0  0
  143.6681   76.1917  219.2171 H   0  0  0  0  0  0  0  0  0  0  0  0
  142.1267   75.8601  221.2007 H   0  0  0  0  0  0  0  0  0  0  0  0
  140.3147   76.0157  219.1631 H   0  0  0  0  0  0  0  0  0  0  0  0
  142.2311   75.6730  217.6114 H   0  0  0  0  0  0  0  0  0  0  0  0
  140.8480   76.8520  217.3169 H   0  0  0  0  0  0  0  0  0  0  0  0
  143.6274   77.5899  218.2431 H   0  0  0  0  0  0  0  0  0  0  0  0
  143.0095   77.7592  216.5842 H   0  0  0  0  0  0  0  0  0  0  0  0
  142.6908   79.8638  217.8252 H   0  0  0  0  0  0  0  0  0  0  0  0
  141.0945   79.1167  217.4758 H   0  0  0  0  0  0  0  0  0  0  0  0
  142.6796   79.0650  220.0446 H   0  0  0  0  0  0  0  0  0  0  0  0
  141.0257   79.8107  219.6701 H   0  0  0  0  0  0  0  0  0  0  0  0
  141.3200   77.6460  221.0628 H   0  0  0  0  0  0  0  0  0  0  0  0
  139.9607   77.9765  219.8450 H   0  0  0  0  0  0  0  0  0  0  0  0
  138.3963   69.7464  222.1120 H   0  0  0  0  0  0  0  0  0  0  0  0
  138.7996   68.1452  223.9355 H   0  0  0  0  0  0  0  0  0  0  0  0
  139.6668   67.7237  226.1470 H   0  0  0  0  0  0  0  0  0  0  0  0
  141.4348   70.9775  228.3208 H   0  0  0  0  0  0  0  0  0  0  0  0
  140.9985   72.5544  226.4365 H   0  0  0  0  0  0  0  0  0  0  0  0
  1  2  2  0
  2  3  1  0
  3  4  1  0
  4  5  1  0
  5  6  2  0
  5  7  1  0
  7  8  1  0
  8  9  1  0
  9 10  1  0
 10 11  1  0
 11 12  1  0
 12 13  1  0
 13 14  1  0
 14 15  1  0
 15 16  1  0
 16 17  1  0
 17 18  1  0
 18 19  1  0
  2 20  1  0
 20 21  2  0
 21 22  1  0
 22 23  2  0
 23 24  1  0
 24 25  2  0
 25 26  1  0
 25 27  1  0
 27 28  2  0
 28 29  1  0
 29 30  2  0
 13  7  1  0
 19 14  1  0
 30 20  1  0
 29 23  1  0
  3 31  1  0
  4 32  1  0
  4 33  1  0
  8 34  1  0
  8 35  1  0
  9 36  1  0
  9 37  1  0
 10 38  1  0
 10 39  1  0
 11 40  1  0
 11 41  1  0
 12 42  1  0
 12 43  1  0
 13 44  1  1
 14 45  1  0
 15 46  1  0
 15 47  1  0
 16 48  1  0
 16 49  1  0
 17 50  1  0
 17 51  1  0
 18 52  1  0
 18 53  1  0
 19 54  1  0
 19 55  1  0
 21 56  1  0
 22 57  1  0
 24 58  1  0
 27 59  1  0
 28 60  1  0
M  END
>  <smiles>  (57) 
O=C(NCC(=O)N1CCCCCC1C1CCCCC1)c1ccc2cc(Cl)ccc2n1

>  <score_type>  (57) 
oracle

>  <origin>  (57) 
autodockgpu

>  <m_score__min__energy>  (57) 
-6.6600000000000001

>  <m_primary>  (57) 
energy

>  <rmsd>  (57) 
2.4780328558703193

>  <m_score__min__rmsd>  (57) 
2.4780328558703193

>  <meeko>  (57) 
{"free_energy": -5.28, "intermolecular_energy": -8.56, "internal_energy": -2.09, "cluster_size": 7, "cluster_id": 3, "rank_in_cluster": 5}

>  <energy>  (57) 
-6.03

>  <cluster_rmsd>  (57) 
1.06

>  <cluster>  (57) 
1

$$$$

     RDKit          3D

 60 63  0  0  0  0  0  0  0  0999 V2000
  140.4100   72.3280  220.7500 O   0  0  0  0  0  0  0  0  0  0  0  0
  140.1180   72.7700  221.8900 C   0  0  0  0  0  0  0  0  0  0  0  0
  139.7990   74.1320  222.1490 N   0  0  0  0  0  0  0  0  0  0  0  0
  139.7940   75.1110  221.0800 C   0  0  0  0  0  0  0  0  0  0  0  0
  140.5030   76.2990  221.5440 C   0  0  0  0  0  0  0  0  0  0  0  0
  140.4500   76.5660  222.7880 O   0  0  0  0  0  0  0  0  0  0  0  0
  141.2540   77.1750  220.6470 N   0  0  0  0  0  0  0  0  0  0  0  0
  141.8030   76.4100  219.5550 C   0  0  0  0  0  0  0  0  0  0  0  0
  141.6940   77.1280  218.2430 C   0  0  0  0  0  0  0  0  0  0  0  0
  142.6880   78.2700  218.2800 C   0  0  0  0  0  0  0  0  0  0  0  0
  141.9520   79.5020  218.7870 C   0  0  0  0  0  0  0  0  0  0  0  0
  141.8590   79.5690  220.2490 C   0  0  0  0  0  0  0  0  0  0  0  0
  141.2500   78.5390  221.0660 C   0  0  1  0  0  0  0  0  0  0  0  0
  139.9080   78.8730  221.7390 C   0  0  0  0  0  0  0  0  0  0  0  0
  138.9490   79.6370  220.9230 C   0  0  0  0  0  0  0  0  0  0  0  0
  138.9800   81.1230  221.1210 C   0  0  0  0  0  0  0  0  0  0  0  0
  138.6760   81.3800  222.5720 C   0  0  0  0  0  0  0  0  0  0  0  0
  139.7390   80.7670  223.4200 C   0  0  0  0  0  0  0  0  0  0  0  0
  140.0710   79.3520  223.1500 C   0  0  0  0  0  0  0  0  0  0  0  0
  140.1030   71.8310  223.0230 C   0  0  0  0  0  0  0  0  0  0  0  0
  139.5540   70.5710  222.8900 C   0  0  0  0  0  0  0  0  0  0  0  0
  139.5050   69.6460  223.9000 C   0  0  0  0  0  0  0  0  0  0  0  0
  140.0420   70.0120  225.1200 C   0  0  0  0  0  0  0  0  0  0  0  0
  140.0120   69.1090  226.1640 C   0  0  0  0  0  0  0  0  0  0  0  0
  140.5510   69.5040  227.3560 C   0  0  0  0  0  0  0  0  0  0  0  0
  140.5190   68.3660  228.6870 Cl  0  0  0  0  0  0  0  0  0  0  0  0
  141.1020   70.7680  227.4960 C   0  0  0  0  0  0  0  0  0  0  0  0
  141.1330   71.6790  226.4460 C   0  0  0  0  0  0  0  0  0  0  0  0
  140.5820   71.2760  225.2260 C   0  0  0  0  0  0  0  0  0  0  0  0
  140.6130   72.1570  224.2150 N   0  0  0  0  0  0  0  0  0  0  0  0
  139.5620   74.4420  223.1310 H   0  0  0  0  0  0  0  0  0  0  0  0
  140.2998   74.6979  220.1948 H   0  0  0  0  0  0  0  0  0  0  0  0
  138.7601   75.3689  220.8069 H   0  0  0  0  0  0  0  0  0  0  0  0
  142.8649   76.2110  219.7617 H   0  0  0  0  0  0  0  0  0  0  0  0
  141.2262   75.4767  219.4757 H   0  0  0  0  0  0  0  0  0  0  0  0
  141.9354   76.4435  217.4165 H   0  0  0  0  0  0  0  0  0  0  0  0
  140.6719   77.5019  218.0836 H   0  0  0  0  0  0  0  0  0  0  0  0
  143.5183   78.0232  218.9580 H   0  0  0  0  0  0  0  0  0  0  0  0
  143.1049   78.4529  217.2786 H   0  0  0  0  0  0  0  0  0  0  0  0
  142.4842   80.3964  218.4309 H   0  0  0  0  0  0  0  0  0  0  0  0
  140.9238   79.4459  218.4002 H   0  0  0  0  0  0  0  0  0  0  0  0
  142.8935   79.6648  220.6104 H   0  0  0  0  0  0  0  0  0  0  0  0
  141.1412   80.3925  220.3775 H   0  0  0  0  0  0  0  0  0  0  0  0
  142.0529   78.5888  221.8162 H   0  0  0  0  0  0  0  0  0  0  0  0
  139.3930   77.9042  221.8175 H   0  0  0  0  0  0  0  0  0  0  0  0
  139.1638   79.4307  219.8641 H   0  0  0  0  0  0  0  0  0  0  0  0
  137.9488   79.3085  221.2420 H   0  0  0  0  0  0  0  0  0  0  0  0
  139.9753   81.5171  220.8680 H   0  0  0  0  0  0  0  0  0  0  0  0
  138.2448   81.6209  220.4718 H   0  0  0  0  0  0  0  0  0  0  0  0
  138.6428   82.4645  222.7530 H   0  0  0  0  0  0  0  0  0  0  0  0
  137.7026   80.9353  222.8266 H   0  0  0  0  0  0  0  0  0  0  0  0
  140.6571   81.3569  223.2816 H   0  0  0  0  0  0  0  0  0  0  0  0
  139.3348   80.7786  224.4430 H   0  0  0  0  0  0  0  0  0  0  0  0
  141.1226   79.1977  223.4336 H   0  0  0  0  0  0  0  0  0  0  0  0
  139.3433   78.7707  223.7353 H   0  0  0  0  0  0  0  0  0  0  0  0
  139.1301   70.2927  221.9138 H   0  0  0  0  0  0  0  0  0  0  0  0
  139.0568   68.6533  223.7462 H   0  0  0  0  0  0  0  0  0  0  0  0
  139.5707   68.1090  226.0409 H   0  0  0  0  0  0  0  0  0  0  0  0
  141.5278   71.0594  228.4675 H   0  0  0  0  0  0  0  0  0  0  0  0
  141.5743   72.6789  226.5706 H   0  0  0  0  0  0  0  0  0  0  0  0
  1  2  2  0
  2  3  1  0
  3  4  1  0
  4  5  1  0
  5  6  2  0
  5  7  1  0
  7  8  1  0
  8  9  1  0
  9 10  1  0
 10 11  1  0
 11 12  1  0
 12 13  1  0
 13 14  1  0
 14 15  1  0
 15 16  1  0
 16 17  1  0
 17 18  1  0
 18 19  1  0
  2 20  1  0
 20 21  2  0
 21 22  1  0
 22 23  2  0
 23 24  1  0
 24 25  2  0
 25 26  1  0
 25 27  1  0
 27 28  2  0
 28 29  1  0
 29 30  2  0
 13  7  1  0
 19 14  1  0
 30 20  1  0
 29 23  1  0
  3 31  1  0
  4 32  1  0
  4 33  1  0
  8 34  1  0
  8 35  1  0
  9 36  1  0
  9 37  1  0
 10 38  1  0
 10 39  1  0
 11 40  1  0
 11 41  1  0
 12 42  1  0
 12 43  1  0
 13 44  1  1
 14 45  1  0
 15 46  1  0
 15 47  1  0
 16 48  1  0
 16 49  1  0
 17 50  1  0
 17 51  1  0
 18 52  1  0
 18 53  1  0
 19 54  1  0
 19 55  1  0
 21 56  1  0
 22 57  1  0
 24 58  1  0
 27 59  1  0
 28 60  1  0
M  END
>  <smiles>  (58) 
O=C(NCC(=O)N1CCCCCC1C1CCCCC1)c1ccc2cc(Cl)ccc2n1

>  <score_type>  (58) 
oracle

>  <origin>  (58) 
autodockgpu

>  <m_score__min__energy>  (58) 
-6.6600000000000001

>  <m_primary>  (58) 
energy

>  <rmsd>  (58) 
2.1775859337640817

>  <m_score__min__rmsd>  (58) 
2.1775859337640817

>  <meeko>  (58) 
{"free_energy": -5.8, "intermolecular_energy": -9.08, "internal_energy": -1.86, "cluster_size": 30, "cluster_id": 1, "rank_in_cluster": 11}

>  <energy>  (58) 
-6.03

>  <cluster_rmsd>  (58) 
0.68

>  <cluster>  (58) 
1

$$$$

     RDKit          3D

 60 63  0  0  0  0  0  0  0  0999 V2000
  139.2760   71.4530  220.8550 O   0  0  0  0  0  0  0  0  0  0  0  0
  139.4700   72.0040  221.9680 C   0  0  0  0  0  0  0  0  0  0  0  0
  139.5420   73.4130  222.1480 N   0  0  0  0  0  0  0  0  0  0  0  0
  139.3880   74.3150  221.0230 C   0  0  0  0  0  0  0  0  0  0  0  0
  140.3150   73.9030  219.9750 C   0  0  0  0  0  0  0  0  0  0  0  0
  139.8250   73.6290  218.8320 O   0  0  0  0  0  0  0  0  0  0  0  0
  141.7570   73.7950  220.1890 N   0  0  0  0  0  0  0  0  0  0  0  0
  142.1560   72.4090  220.1770 C   0  0  0  0  0  0  0  0  0  0  0  0
  143.5120   72.2000  220.7800 C   0  0  0  0  0  0  0  0  0  0  0  0
  144.5160   72.8340  219.8420 C   0  0  0  0  0  0  0  0  0  0  0  0
  144.8250   74.2270  220.3750 C   0  0  0  0  0  0  0  0  0  0  0  0
  143.8040   75.2250  220.0500 C   0  0  0  0  0  0  0  0  0  0  0  0
  142.3950   75.0620  220.3450 C   0  0  1  0  0  0  0  0  0  0  0  0
  141.4440   76.1830  219.8920 C   0  0  0  0  0  0  0  0  0  0  0  0
  141.7210   76.7700  218.5700 C   0  0  0  0  0  0  0  0  0  0  0  0
  142.5610   78.0130  218.5840 C   0  0  0  0  0  0  0  0  0  0  0  0
  141.8250   79.0320  219.4100 C   0  0  0  0  0  0  0  0  0  0  0  0
  141.6900   78.5360  220.8100 C   0  0  0  0  0  0  0  0  0  0  0  0
  141.1530   77.1700  220.9820 C   0  0  0  0  0  0  0  0  0  0  0  0
  139.6340   71.1490  223.1550 C   0  0  0  0  0  0  0  0  0  0  0  0
  139.1980   69.8390  223.1480 C   0  0  0  0  0  0  0  0  0  0  0  0
  139.3170   68.9860  224.2140 C   0  0  0  0  0  0  0  0  0  0  0  0
  139.9130   69.4830  225.3580 C   0  0  0  0  0  0  0  0  0  0  0  0
  140.0520   68.6550  226.4550 C   0  0  0  0  0  0  0  0  0  0  0  0
  140.6460   69.1790  227.5700 C   0  0  0  0  0  0  0  0  0  0  0  0
  140.8270   68.1390  228.9670 Cl  0  0  0  0  0  0  0  0  0  0  0  0
  141.0850   70.4940  227.5820 C   0  0  0  0  0  0  0  0  0  0  0  0
  140.9460   71.3280  226.4790 C   0  0  0  0  0  0  0  0  0  0  0  0
  140.3390   70.7940  225.3380 C   0  0  0  0  0  0  0  0  0  0  0  0
  140.2060   71.6020  224.2750 N   0  0  0  0  0  0  0  0  0  0  0  0
  139.7080   73.8170  223.1100 H   0  0  0  0  0  0  0  0  0  0  0  0
  138.3556   74.2668  220.6463 H   0  0  0  0  0  0  0  0  0  0  0  0
  139.6024   75.3482  221.3337 H   0  0  0  0  0  0  0  0  0  0  0  0
  141.4208   71.8247  220.7497 H   0  0  0  0  0  0  0  0  0  0  0  0
  142.2013   72.0819  219.1277 H   0  0  0  0  0  0  0  0  0  0  0  0
  143.5637   72.6794  221.7687 H   0  0  0  0  0  0  0  0  0  0  0  0
  143.7214   71.1283  220.9130 H   0  0  0  0  0  0  0  0  0  0  0  0
  145.4354   72.2308  219.8126 H   0  0  0  0  0  0  0  0  0  0  0  0
  144.1100   72.8912  218.8213 H   0  0  0  0  0  0  0  0  0  0  0  0
  144.9152   74.1672  221.4697 H   0  0  0  0  0  0  0  0  0  0  0  0
  145.7577   74.5546  219.8925 H   0  0  0  0  0  0  0  0  0  0  0  0
  144.1126   76.1471  220.5643 H   0  0  0  0  0  0  0  0  0  0  0  0
  143.7975   75.1707  218.9514 H   0  0  0  0  0  0  0  0  0  0  0  0
  142.5605   75.1451  221.4293 H   0  0  0  0  0  0  0  0  0  0  0  0
  140.4897   75.6712  219.6987 H   0  0  0  0  0  0  0  0  0  0  0  0
  142.2428   76.0139  217.9650 H   0  0  0  0  0  0  0  0  0  0  0  0
  140.7451   77.0669  218.1583 H   0  0  0  0  0  0  0  0  0  0  0  0
  143.5426   77.8006  219.0328 H   0  0  0  0  0  0  0  0  0  0  0  0
  142.7301   78.3840  217.5623 H   0  0  0  0  0  0  0  0  0  0  0  0
  142.3856   79.9784  219.4091 H   0  0  0  0  0  0  0  0  0  0  0  0
  140.8251   79.1967  218.9821 H   0  0  0  0  0  0  0  0  0  0  0  0
  142.6887   78.5618  221.2704 H   0  0  0  0  0  0  0  0  0  0  0  0
  140.9493   79.1989  221.2810 H   0  0  0  0  0  0  0  0  0  0  0  0
  141.5689   76.7650  221.9163 H   0  0  0  0  0  0  0  0  0  0  0  0
  140.0595   77.2896  220.9751 H   0  0  0  0  0  0  0  0  0  0  0  0
  138.7263   69.4566  222.2308 H   0  0  0  0  0  0  0  0  0  0  0  0
  138.9534   67.9491  224.1615 H   0  0  0  0  0  0  0  0  0  0  0  0
  139.6983   67.6136  226.4326 H   0  0  0  0  0  0  0  0  0  0  0  0
  141.5581   70.8896  228.4929 H   0  0  0  0  0  0  0  0  0  0  0  0
  141.3002   72.3692  226.5026 H   0  0  0  0  0  0  0  0  0  0  0  0
  1  2  2  0
  2  3  1  0
  3  4  1  0
  4  5  1  0
  5  6  2  0
  5  7  1  0
  7  8  1  0
  8  9  1  0
  9 10  1  0
 10 11  1  0
 11 12  1  0
 12 13  1  0
 13 14  1  0
 14 15  1  0
 15 16  1  0
 16 17  1  0
 17 18  1  0
 18 19  1  0
  2 20  1  0
 20 21  2  0
 21 22  1  0
 22 23  2  0
 23 24  1  0
 24 25  2  0
 25 26  1  0
 25 27  1  0
 27 28  2  0
 28 29  1  0
 29 30  2  0
 13  7  1  0
 19 14  1  0
 30 20  1  0
 29 23  1  0
  3 31  1  0
  4 32  1  0
  4 33  1  0
  8 34  1  0
  8 35  1  0
  9 36  1  0
  9 37  1  0
 10 38  1  0
 10 39  1  0
 11 40  1  0
 11 41  1  0
 12 42  1  0
 12 43  1  0
 13 44  1  1
 14 45  1  0
 15 46  1  0
 15 47  1  0
 16 48  1  0
 16 49  1  0
 17 50  1  0
 17 51  1  0
 18 52  1  0
 18 53  1  0
 19 54  1  0
 19 55  1  0
 21 56  1  0
 22 57  1  0
 24 58  1  0
 27 59  1  0
 28 60  1  0
M  END
>  <smiles>  (59) 
O=C(NCC(=O)N1CCCCCC1C1CCCCC1)c1ccc2cc(Cl)ccc2n1

>  <score_type>  (59) 
oracle

>  <origin>  (59) 
autodockgpu

>  <m_score__min__energy>  (59) 
-6.6600000000000001

>  <m_primary>  (59) 
energy

>  <rmsd>  (59) 
2.658028870060648

>  <m_score__min__rmsd>  (59) 
2.658028870060648

>  <meeko>  (59) 
{"free_energy": -5.82, "intermolecular_energy": -9.1, "internal_energy": -1.99, "cluster_size": 7, "cluster_id": 3, "rank_in_cluster": 2}

>  <energy>  (59) 
-6.01

>  <cluster_rmsd>  (59) 
0.89

>  <cluster>  (59) 
1

$$$$

     RDKit          3D

 60 63  0  0  0  0  0  0  0  0999 V2000
  138.5690   72.6660  220.9020 O   0  0  0  0  0  0  0  0  0  0  0  0
  139.4410   72.8780  221.7830 C   0  0  0  0  0  0  0  0  0  0  0  0
  140.3320   73.9870  221.7590 N   0  0  0  0  0  0  0  0  0  0  0  0
  140.2800   74.9610  220.6860 C   0  0  0  0  0  0  0  0  0  0  0  0
  141.5820   75.6110  220.5940 C   0  0  0  0  0  0  0  0  0  0  0  0
  142.5480   75.0850  221.2370 O   0  0  0  0  0  0  0  0  0  0  0  0
  141.8110   76.8200  219.8060 N   0  0  0  0  0  0  0  0  0  0  0  0
  142.0530   76.4730  218.4280 C   0  0  0  0  0  0  0  0  0  0  0  0
  142.6970   77.5900  217.6620 C   0  0  0  0  0  0  0  0  0  0  0  0
  141.6690   78.6950  217.5430 C   0  0  0  0  0  0  0  0  0  0  0  0
  141.9450   79.6990  218.6550 C   0  0  0  0  0  0  0  0  0  0  0  0
  141.4250   79.2860  219.9590 C   0  0  0  0  0  0  0  0  0  0  0  0
  141.7320   78.0160  220.5820 C   0  0  1  0  0  0  0  0  0  0  0  0
  141.0690   77.7140  221.9360 C   0  0  0  0  0  0  0  0  0  0  0  0
  139.6010   77.8220  221.9750 C   0  0  0  0  0  0  0  0  0  0  0  0
  139.0670   79.1440  222.4420 C   0  0  0  0  0  0  0  0  0  0  0  0
  139.5940   79.3640  223.8330 C   0  0  0  0  0  0  0  0  0  0  0  0
  141.0840   79.4410  223.7970 C   0  0  0  0  0  0  0  0  0  0  0  0
  141.7870   78.3520  223.0880 C   0  0  0  0  0  0  0  0  0  0  0  0
  139.5500   71.9300  222.9030 C   0  0  0  0  0  0  0  0  0  0  0  0
  138.9410   70.6930  222.8440 C   0  0  0  0  0  0  0  0  0  0  0  0
  139.0000   69.7610  223.8460 C   0  0  0  0  0  0  0  0  0  0  0  0
  139.7170   70.0950  224.9800 C   0  0  0  0  0  0  0  0  0  0  0  0
  139.8010   69.1840  226.0130 C   0  0  0  0  0  0  0  0  0  0  0  0
  140.5180   69.5470  227.1190 C   0  0  0  0  0  0  0  0  0  0  0  0
  140.6310   68.3990  228.4370 Cl  0  0  0  0  0  0  0  0  0  0  0  0
  141.1320   70.7890  227.1850 C   0  0  0  0  0  0  0  0  0  0  0  0
  141.0480   71.7080  226.1440 C   0  0  0  0  0  0  0  0  0  0  0  0
  140.3150   71.3370  225.0130 C   0  0  0  0  0  0  0  0  0  0  0  0
  140.2370   72.2260  224.0110 N   0  0  0  0  0  0  0  0  0  0  0  0
  141.0440   74.1100  222.5290 H   0  0  0  0  0  0  0  0  0  0  0  0
  140.0483   74.4563  219.7365 H   0  0  0  0  0  0  0  0  0  0  0  0
  139.4975   75.7070  220.8890 H   0  0  0  0  0  0  0  0  0  0  0  0
  142.7148   75.5950  218.3957 H   0  0  0  0  0  0  0  0  0  0  0  0
  141.0804   76.2620  217.9594 H   0  0  0  0  0  0  0  0  0  0  0  0
  143.5838   77.9554  218.2006 H   0  0  0  0  0  0  0  0  0  0  0  0
  143.0228   77.2481  216.6685 H   0  0  0  0  0  0  0  0  0  0  0  0
  141.7576   79.1864  216.5629 H   0  0  0  0  0  0  0  0  0  0  0  0
  140.6509   78.2882  217.6323 H   0  0  0  0  0  0  0  0  0  0  0  0
  143.0335   79.8323  218.7410 H   0  0  0  0  0  0  0  0  0  0  0  0
  141.4297   80.6319  218.3828 H   0  0  0  0  0  0  0  0  0  0  0  0
  141.7561   80.0564  220.6709 H   0  0  0  0  0  0  0  0  0  0  0  0
  140.3570   79.1566  219.7297 H   0  0  0  0  0  0  0  0  0  0  0  0
  142.7826   78.2959  220.7486 H   0  0  0  0  0  0  0  0  0  0  0  0
  141.2047   76.6307  222.0702 H   0  0  0  0  0  0  0  0  0  0  0  0
  139.2200   77.6414  220.9590 H   0  0  0  0  0  0  0  0  0  0  0  0
  139.2611   77.0795  222.7120 H   0  0  0  0  0  0  0  0  0  0  0  0
  139.4127   79.9479  221.7755 H   0  0  0  0  0  0  0  0  0  0  0  0
  137.9670   79.1484  222.4335 H   0  0  0  0  0  0  0  0  0  0  0  0
  139.1883   80.3046  224.2337 H   0  0  0  0  0  0  0  0  0  0  0  0
  139.2867   78.5268  224.4769 H   0  0  0  0  0  0  0  0  0  0  0  0
  141.3573   80.3879  223.3084 H   0  0  0  0  0  0  0  0  0  0  0  0
  141.4036   79.3569  224.8462 H   0  0  0  0  0  0  0  0  0  0  0  0
  142.7323   78.7626  222.7034 H   0  0  0  0  0  0  0  0  0  0  0  0
  141.8983   77.5511  223.8338 H   0  0  0  0  0  0  0  0  0  0  0  0
  138.3733   70.4399  221.9364 H   0  0  0  0  0  0  0  0  0  0  0  0
  138.4976   68.7869  223.7523 H   0  0  0  0  0  0  0  0  0  0  0  0
  139.3093   68.2021  225.9490 H   0  0  0  0  0  0  0  0  0  0  0  0
  141.7022   71.0552  228.0872 H   0  0  0  0  0  0  0  0  0  0  0  0
  141.5399   72.6898  226.2084 H   0  0  0  0  0  0  0  0  0  0  0  0
  1  2  2  0
  2  3  1  0
  3  4  1  0
  4  5  1  0
  5  6  2  0
  5  7  1  0
  7  8  1  0
  8  9  1  0
  9 10  1  0
 10 11  1  0
 11 12  1  0
 12 13  1  0
 13 14  1  0
 14 15  1  0
 15 16  1  0
 16 17  1  0
 17 18  1  0
 18 19  1  0
  2 20  1  0
 20 21  2  0
 21 22  1  0
 22 23  2  0
 23 24  1  0
 24 25  2  0
 25 26  1  0
 25 27  1  0
 27 28  2  0
 28 29  1  0
 29 30  2  0
 13  7  1  0
 19 14  1  0
 30 20  1  0
 29 23  1  0
  3 31  1  0
  4 32  1  0
  4 33  1  0
  8 34  1  0
  8 35  1  0
  9 36  1  0
  9 37  1  0
 10 38  1  0
 10 39  1  0
 11 40  1  0
 11 41  1  0
 12 42  1  0
 12 43  1  0
 13 44  1  1
 14 45  1  0
 15 46  1  0
 15 47  1  0
 16 48  1  0
 16 49  1  0
 17 50  1  0
 17 51  1  0
 18 52  1  0
 18 53  1  0
 19 54  1  0
 19 55  1  0
 21 56  1  0
 22 57  1  0
 24 58  1  0
 27 59  1  0
 28 60  1  0
M  END
>  <smiles>  (60) 
O=C(NCC(=O)N1CCCCCC1C1CCCCC1)c1ccc2cc(Cl)ccc2n1

>  <score_type>  (60) 
oracle

>  <origin>  (60) 
autodockgpu

>  <m_score__min__energy>  (60) 
-6.6600000000000001

>  <m_primary>  (60) 
energy

>  <rmsd>  (60) 
2.2355791104785303

>  <m_score__min__rmsd>  (60) 
2.2355791104785303

>  <meeko>  (60) 
{"free_energy": -5.63, "intermolecular_energy": -8.91, "internal_energy": -2.39, "cluster_size": 30, "cluster_id": 1, "rank_in_cluster": 17}

>  <energy>  (60) 
-5.93

>  <cluster_rmsd>  (60) 
0.57

>  <cluster>  (60) 
1

$$$$

     RDKit          3D

 60 63  0  0  0  0  0  0  0  0999 V2000
  144.1550   75.8860  219.9950 O   0  0  0  0  0  0  0  0  0  0  0  0
  143.4160   74.8800  220.1470 C   0  0  0  0  0  0  0  0  0  0  0  0
  142.0510   74.9570  220.5370 N   0  0  0  0  0  0  0  0  0  0  0  0
  141.4200   76.2390  220.7880 C   0  0  0  0  0  0  0  0  0  0  0  0
  140.2080   76.0080  221.5670 C   0  0  0  0  0  0  0  0  0  0  0  0
  140.0570   74.8570  222.0910 O   0  0  0  0  0  0  0  0  0  0  0  0
  139.1830   77.0310  221.7610 N   0  0  0  0  0  0  0  0  0  0  0  0
  137.9120   76.4100  222.0400 C   0  0  0  0  0  0  0  0  0  0  0  0
  136.9750   77.3280  222.7660 C   0  0  0  0  0  0  0  0  0  0  0  0
  136.5630   78.4050  221.7860 C   0  0  0  0  0  0  0  0  0  0  0  0
  137.4720   79.6060  222.0150 C   0  0  0  0  0  0  0  0  0  0  0  0
  138.7960   79.4750  221.3940 C   0  0  0  0  0  0  0  0  0  0  0  0
  139.6890   78.3600  221.6340 C   0  0  1  0  0  0  0  0  0  0  0  0
  140.8360   78.5780  222.6350 C   0  0  0  0  0  0  0  0  0  0  0  0
  140.4940   79.3260  223.8570 C   0  0  0  0  0  0  0  0  0  0  0  0
  140.7730   80.8000  223.8040 C   0  0  0  0  0  0  0  0  0  0  0  0
  142.2460   80.9600  223.5480 C   0  0  0  0  0  0  0  0  0  0  0  0
  142.5900   80.3650  222.2240 C   0  0  0  0  0  0  0  0  0  0  0  0
  142.1150   78.9890  221.9700 C   0  0  0  0  0  0  0  0  0  0  0  0
  143.9900   73.5460  219.9090 C   0  0  0  0  0  0  0  0  0  0  0  0
  145.3480   73.3860  219.7110 C   0  0  0  0  0  0  0  0  0  0  0  0
  145.9510   72.1760  219.4850 C   0  0  0  0  0  0  0  0  0  0  0  0
  145.1380   71.0590  219.4550 C   0  0  0  0  0  0  0  0  0  0  0  0
  145.7070   69.8220  219.2290 C   0  0  0  0  0  0  0  0  0  0  0  0
  144.8740   68.7380  219.2060 C   0  0  0  0  0  0  0  0  0  0  0  0
  145.5850   67.1630  218.9210 Cl  0  0  0  0  0  0  0  0  0  0  0  0
  143.5100   68.8930  219.4030 C   0  0  0  0  0  0  0  0  0  0  0  0
  142.9350   70.1390  219.6300 C   0  0  0  0  0  0  0  0  0  0  0  0
  143.7870   71.2470  219.6550 C   0  0  0  0  0  0  0  0  0  0  0  0
  143.2290   72.4480  219.8740 N   0  0  0  0  0  0  0  0  0  0  0  0
  141.4810   74.0750  220.6490 H   0  0  0  0  0  0  0  0  0  0  0  0
  142.1066   76.8876  221.3518 H   0  0  0  0  0  0  0  0  0  0  0  0
  141.1710   76.7318  219.8366 H   0  0  0  0  0  0  0  0  0  0  0  0
  137.4479   76.1119  221.0883 H   0  0  0  0  0  0  0  0  0  0  0  0
  138.0983   75.5403  222.6872 H   0  0  0  0  0  0  0  0  0  0  0  0
  136.0906   76.7710  223.1090 H   0  0  0  0  0  0  0  0  0  0  0  0
  137.4614   77.7666  223.6498 H   0  0  0  0  0  0  0  0  0  0  0  0
  136.6778   78.0384  220.7552 H   0  0  0  0  0  0  0  0  0  0  0  0
  135.5094   78.6828  221.9366 H   0  0  0  0  0  0  0  0  0  0  0  0
  136.9803   80.4974  221.5982 H   0  0  0  0  0  0  0  0  0  0  0  0
  137.6337   79.6826  223.1003 H   0  0  0  0  0  0  0  0  0  0  0  0
  138.6206   79.4902  220.3082 H   0  0  0  0  0  0  0  0  0  0  0  0
  139.3426   80.2944  221.8837 H   0  0  0  0  0  0  0  0  0  0  0  0
  140.0902   78.3945  220.6104 H   0  0  0  0  0  0  0  0  0  0  0  0
  141.0309   77.5777  223.0489 H   0  0  0  0  0  0  0  0  0  0  0  0
  139.4196   79.1899  224.0497 H   0  0  0  0  0  0  0  0  0  0  0  0
  141.1380   78.9221  224.6521 H   0  0  0  0  0  0  0  0  0  0  0  0
  140.1957   81.2647  222.9911 H   0  0  0  0  0  0  0  0  0  0  0  0
  140.4831   81.2884  224.7460 H   0  0  0  0  0  0  0  0  0  0  0  0
  142.5036   82.0294  223.5471 H   0  0  0  0  0  0  0  0  0  0  0  0
  142.8127   80.4461  224.3384 H   0  0  0  0  0  0  0  0  0  0  0  0
  142.1620   81.0141  221.4458 H   0  0  0  0  0  0  0  0  0  0  0  0
  143.6879   80.2977  222.2144 H   0  0  0  0  0  0  0  0  0  0  0  0
  141.9743   78.8814  220.8844 H   0  0  0  0  0  0  0  0  0  0  0  0
  142.8860   78.3355  222.4041 H   0  0  0  0  0  0  0  0  0  0  0  0
  145.9834   74.2836  219.7362 H   0  0  0  0  0  0  0  0  0  0  0  0
  147.0377   72.0973  219.3337 H   0  0  0  0  0  0  0  0  0  0  0  0
  146.7904   69.7123  219.0732 H   0  0  0  0  0  0  0  0  0  0  0  0
  142.8632   68.0036  219.3790 H   0  0  0  0  0  0  0  0  0  0  0  0
  141.8513   70.2483  219.7840 H   0  0  0  0  0  0  0  0  0  0  0  0
  1  2  2  0
  2  3  1  0
  3  4  1  0
  4  5  1  0
  5  6  2  0
  5  7  1  0
  7  8  1  0
  8  9  1  0
  9 10  1  0
 10 11  1  0
 11 12  1  0
 12 13  1  0
 13 14  1  0
 14 15  1  0
 15 16  1  0
 16 17  1  0
 17 18  1  0
 18 19  1  0
  2 20  1  0
 20 21  2  0
 21 22  1  0
 22 23  2  0
 23 24  1  0
 24 25  2  0
 25 26  1  0
 25 27  1  0
 27 28  2  0
 28 29  1  0
 29 30  2  0
 13  7  1  0
 19 14  1  0
 30 20  1  0
 29 23  1  0
  3 31  1  0
  4 32  1  0
  4 33  1  0
  8 34  1  0
  8 35  1  0
  9 36  1  0
  9 37  1  0
 10 38  1  0
 10 39  1  0
 11 40  1  0
 11 41  1  0
 12 42  1  0
 12 43  1  0
 13 44  1  6
 14 45  1  0
 15 46  1  0
 15 47  1  0
 16 48  1  0
 16 49  1  0
 17 50  1  0
 17 51  1  0
 18 52  1  0
 18 53  1  0
 19 54  1  0
 19 55  1  0
 21 56  1  0
 22 57  1  0
 24 58  1  0
 27 59  1  0
 28 60  1  0
M  END
>  <smiles>  (61) 
O=C(NCC(=O)N1CCCCCC1C1CCCCC1)c1ccc2cc(Cl)ccc2n1

>  <score_type>  (61) 
oracle

>  <origin>  (61) 
autodockgpu

>  <m_score__min__energy>  (61) 
-6.6600000000000001

>  <m_primary>  (61) 
energy

>  <rmsd>  (61) 
6.583875447244393

>  <m_score__min__rmsd>  (61) 
6.583875447244393

>  <meeko>  (61) 
{"free_energy": -5.49, "intermolecular_energy": -8.77, "internal_energy": -2.36, "cluster_size": 1, "cluster_id": 4, "rank_in_cluster": 1}

>  <energy>  (61) 
-5.8

>  <cluster_rmsd>  (61) 
0.78

>  <cluster>  (61) 
1

$$$$

     RDKit          3D

 60 63  0  0  0  0  0  0  0  0999 V2000
  140.9430   73.6620  220.6700 O   0  0  0  0  0  0  0  0  0  0  0  0
  140.2650   73.8230  221.7170 C   0  0  0  0  0  0  0  0  0  0  0  0
  140.0220   72.7910  222.6650 N   0  0  0  0  0  0  0  0  0  0  0  0
  140.5590   71.4590  222.4690 C   0  0  0  0  0  0  0  0  0  0  0  0
  139.4420   70.5320  222.3170 C   0  0  0  0  0  0  0  0  0  0  0  0
  139.6180   69.5180  221.5670 O   0  0  0  0  0  0  0  0  0  0  0  0
  138.1550   70.7250  222.9820 N   0  0  0  0  0  0  0  0  0  0  0  0
  137.2140   71.3280  222.0710 C   0  0  0  0  0  0  0  0  0  0  0  0
  135.8600   71.5110  222.6880 C   0  0  0  0  0  0  0  0  0  0  0  0
  135.3600   70.1350  223.0760 C   0  0  0  0  0  0  0  0  0  0  0  0
  135.6170   69.9580  224.5660 C   0  0  0  0  0  0  0  0  0  0  0  0
  137.0000   69.5920  224.8880 C   0  0  0  0  0  0  0  0  0  0  0  0
  138.1530   70.2720  224.3360 C   0  0  1  0  0  0  0  0  0  0  0  0
  139.5400   69.7210  224.7030 C   0  0  0  0  0  0  0  0  0  0  0  0
  139.5830   68.3140  225.1380 C   0  0  0  0  0  0  0  0  0  0  0  0
  139.5290   68.1010  226.6230 C   0  0  0  0  0  0  0  0  0  0  0  0
  140.7150   68.8150  227.2120 C   0  0  0  0  0  0  0  0  0  0  0  0
  140.6030   70.2770  226.9390 C   0  0  0  0  0  0  0  0  0  0  0  0
  140.3390   70.6740  225.5400 C   0  0  0  0  0  0  0  0  0  0  0  0
  139.6890   75.1510  221.9800 C   0  0  0  0  0  0  0  0  0  0  0  0
  138.3230   75.3510  221.9380 C   0  0  0  0  0  0  0  0  0  0  0  0
  137.7180   76.5570  222.1720 C   0  0  0  0  0  0  0  0  0  0  0  0
  138.5380   77.6300  222.4680 C   0  0  0  0  0  0  0  0  0  0  0  0
  137.9660   78.8640  222.7100 C   0  0  0  0  0  0  0  0  0  0  0  0
  138.8060   79.9030  223.0000 C   0  0  0  0  0  0  0  0  0  0  0  0
  138.0930   81.4720  223.3080 Cl  0  0  0  0  0  0  0  0  0  0  0  0
  140.1790   79.7090  223.0430 C   0  0  0  0  0  0  0  0  0  0  0  0
  140.7550   78.4670  222.7990 C   0  0  0  0  0  0  0  0  0  0  0  0
  139.8970   77.4040  222.5040 C   0  0  0  0  0  0  0  0  0  0  0  0
  140.4570   76.2070  222.2690 N   0  0  0  0  0  0  0  0  0  0  0  0
  139.4420   72.9890  223.5260 H   0  0  0  0  0  0  0  0  0  0  0  0
  141.1842   71.4395  221.5642 H   0  0  0  0  0  0  0  0  0  0  0  0
  141.1773   71.1691  223.3314 H   0  0  0  0  0  0  0  0  0  0  0  0
  137.5990   72.3120  221.7652 H   0  0  0  0  0  0  0  0  0  0  0  0
  137.1020   70.6540  221.2089 H   0  0  0  0  0  0  0  0  0  0  0  0
  135.9346   72.1510  223.5795 H   0  0  0  0  0  0  0  0  0  0  0  0
  135.1692   71.9948  221.9818 H   0  0  0  0  0  0  0  0  0  0  0  0
  134.2827   70.0546  222.8686 H   0  0  0  0  0  0  0  0  0  0  0  0
  135.8799   69.3567  222.4981 H   0  0  0  0  0  0  0  0  0  0  0  0
  135.3816   70.9051  225.0736 H   0  0  0  0  0  0  0  0  0  0  0  0
  134.9786   69.1289  224.9052 H   0  0  0  0  0  0  0  0  0  0  0  0
  137.0897   69.6852  225.9804 H   0  0  0  0  0  0  0  0  0  0  0  0
  137.0800   68.6060  224.4070 H   0  0  0  0  0  0  0  0  0  0  0  0
  137.9612   71.1832  224.9216 H   0  0  0  0  0  0  0  0  0  0  0  0
  140.0718   69.6596  223.7421 H   0  0  0  0  0  0  0  0  0  0  0  0
  138.7252   67.7926  224.6882 H   0  0  0  0  0  0  0  0  0  0  0  0
  140.5572   67.9230  224.8093 H   0  0  0  0  0  0  0  0  0  0  0  0
  138.5962   68.5175  227.0309 H   0  0  0  0  0  0  0  0  0  0  0  0
  139.5545   67.0288  226.8674 H   0  0  0  0  0  0  0  0  0  0  0  0
  140.7417   68.6462  228.2986 H   0  0  0  0  0  0  0  0  0  0  0  0
  141.6385   68.4274  226.7571 H   0  0  0  0  0  0  0  0  0  0  0  0
  139.7820   70.6693  227.5571 H   0  0  0  0  0  0  0  0  0  0  0  0
  141.5945   70.6912  227.1742 H   0  0  0  0  0  0  0  0  0  0  0  0
  139.7969   71.6309  225.5629 H   0  0  0  0  0  0  0  0  0  0  0  0
  141.3289   70.7143  225.0621 H   0  0  0  0  0  0  0  0  0  0  0  0
  137.6819   74.4888  221.7022 H   0  0  0  0  0  0  0  0  0  0  0  0
  136.6245   76.6675  222.1263 H   0  0  0  0  0  0  0  0  0  0  0  0
  136.8758   79.0053  222.6709 H   0  0  0  0  0  0  0  0  0  0  0  0
  140.8315   80.5631  223.2771 H   0  0  0  0  0  0  0  0  0  0  0  0
  141.8453   78.3265  222.8368 H   0  0  0  0  0  0  0  0  0  0  0  0
  1  2  2  0
  2  3  1  0
  3  4  1  0
  4  5  1  0
  5  6  2  0
  5  7  1  0
  7  8  1  0
  8  9  1  0
  9 10  1  0
 10 11  1  0
 11 12  1  0
 12 13  1  0
 13 14  1  0
 14 15  1  0
 15 16  1  0
 16 17  1  0
 17 18  1  0
 18 19  1  0
  2 20  1  0
 20 21  2  0
 21 22  1  0
 22 23  2  0
 23 24  1  0
 24 25  2  0
 25 26  1  0
 25 27  1  0
 27 28  2  0
 28 29  1  0
 29 30  2  0
 13  7  1  0
 19 14  1  0
 30 20  1  0
 29 23  1  0
  3 31  1  0
  4 32  1  0
  4 33  1  0
  8 34  1  0
  8 35  1  0
  9 36  1  0
  9 37  1  0
 10 38  1  0
 10 39  1  0
 11 40  1  0
 11 41  1  0
 12 42  1  0
 12 43  1  0
 13 44  1  1
 14 45  1  0
 15 46  1  0
 15 47  1  0
 16 48  1  0
 16 49  1  0
 17 50  1  0
 17 51  1  0
 18 52  1  0
 18 53  1  0
 19 54  1  0
 19 55  1  0
 21 56  1  0
 22 57  1  0
 24 58  1  0
 27 59  1  0
 28 60  1  0
M  END
>  <smiles>  (62) 
O=C(NCC(=O)N1CCCCCC1C1CCCCC1)c1ccc2cc(Cl)ccc2n1

>  <score_type>  (62) 
oracle

>  <origin>  (62) 
autodockgpu

>  <m_score__min__energy>  (62) 
-6.6600000000000001

>  <m_primary>  (62) 
energy

>  <rmsd>  (62) 
7.824382192948369

>  <m_score__min__rmsd>  (62) 
7.824382192948369

>  <meeko>  (62) 
{"free_energy": -4.53, "intermolecular_energy": -7.81, "internal_energy": -1.73, "cluster_size": 1, "cluster_id": 6, "rank_in_cluster": 1}

>  <energy>  (62) 
-5.75

>  <cluster_rmsd>  (62) 
0.89

>  <cluster>  (62) 
1

$$$$

     RDKit          3D

 60 63  0  0  0  0  0  0  0  0999 V2000
  139.2010   74.3710  220.3270 O   0  0  0  0  0  0  0  0  0  0  0  0
  139.8960   74.2020  221.3610 C   0  0  0  0  0  0  0  0  0  0  0  0
  140.8410   75.1510  221.8390 N   0  0  0  0  0  0  0  0  0  0  0  0
  141.0600   76.4020  221.1390 C   0  0  0  0  0  0  0  0  0  0  0  0
  141.0720   77.4800  222.1210 C   0  0  0  0  0  0  0  0  0  0  0  0
  141.4660   77.1970  223.2990 O   0  0  0  0  0  0  0  0  0  0  0  0
  140.6560   78.8450  221.8060 N   0  0  0  0  0  0  0  0  0  0  0  0
  141.7930   79.6200  221.3740 C   0  0  0  0  0  0  0  0  0  0  0  0
  141.7300   81.0400  221.8510 C   0  0  0  0  0  0  0  0  0  0  0  0
  140.6430   81.7280  221.0530 C   0  0  0  0  0  0  0  0  0  0  0  0
  139.3520   81.6250  221.8530 C   0  0  0  0  0  0  0  0  0  0  0  0
  138.6570   80.3430  221.6910 C   0  0  0  0  0  0  0  0  0  0  0  0
  139.2580   79.0610  221.9940 C   0  0  1  0  0  0  0  0  0  0  0  0
  138.4780   77.8010  221.5850 C   0  0  0  0  0  0  0  0  0  0  0  0
  137.4830   77.9760  220.5130 C   0  0  0  0  0  0  0  0  0  0  0  0
  136.0790   78.2290  220.9780 C   0  0  0  0  0  0  0  0  0  0  0  0
  135.6710   77.0450  221.8110 C   0  0  0  0  0  0  0  0  0  0  0  0
  136.5560   76.9500  223.0090 C   0  0  0  0  0  0  0  0  0  0  0  0
  138.0130   76.9990  222.7640 C   0  0  0  0  0  0  0  0  0  0  0  0
  139.7270   72.9540  222.1220 C   0  0  0  0  0  0  0  0  0  0  0  0
  138.8000   72.0080  221.7320 C   0  0  0  0  0  0  0  0  0  0  0  0
  138.5870   70.8250  222.3910 C   0  0  0  0  0  0  0  0  0  0  0  0
  139.3560   70.5800  223.5140 C   0  0  0  0  0  0  0  0  0  0  0  0
  139.1730   69.3990  224.2060 C   0  0  0  0  0  0  0  0  0  0  0  0
  139.9500   69.1890  225.3110 C   0  0  0  0  0  0  0  0  0  0  0  0
  139.7270   67.6960  226.1980 Cl  0  0  0  0  0  0  0  0  0  0  0  0
  140.8820   70.1360  225.7090 C   0  0  0  0  0  0  0  0  0  0  0  0
  141.0670   71.3250  225.0120 C   0  0  0  0  0  0  0  0  0  0  0  0
  140.2740   71.5410  223.8810 C   0  0  0  0  0  0  0  0  0  0  0  0
  140.4550   72.6890  223.2110 N   0  0  0  0  0  0  0  0  0  0  0  0
  141.3970   74.9490  222.7150 H   0  0  0  0  0  0  0  0  0  0  0  0
  142.0245   76.3690  220.6111 H   0  0  0  0  0  0  0  0  0  0  0  0
  140.2604   76.5692  220.4024 H   0  0  0  0  0  0  0  0  0  0  0  0
  142.7084   79.1548  221.7687 H   0  0  0  0  0  0  0  0  0  0  0  0
  141.7910   79.6348  220.2741 H   0  0  0  0  0  0  0  0  0  0  0  0
  141.4862   81.0677  222.9233 H   0  0  0  0  0  0  0  0  0  0  0  0
  142.6977   81.5440  221.7114 H   0  0  0  0  0  0  0  0  0  0  0  0
  140.9042   82.7850  220.8963 H   0  0  0  0  0  0  0  0  0  0  0  0
  140.5267   81.2530  220.0677 H   0  0  0  0  0  0  0  0  0  0  0  0
  139.5924   81.7573  222.9182 H   0  0  0  0  0  0  0  0  0  0  0  0
  138.6766   82.4063  221.4743 H   0  0  0  0  0  0  0  0  0  0  0  0
  137.7567   80.4083  222.3197 H   0  0  0  0  0  0  0  0  0  0  0  0
  138.5706   80.2843  220.5960 H   0  0  0  0  0  0  0  0  0  0  0  0
  139.1558   79.2139  223.0785 H   0  0  0  0  0  0  0  0  0  0  0  0
  139.2242   77.1710  221.0787 H   0  0  0  0  0  0  0  0  0  0  0  0
  137.7957   78.8305  219.8949 H   0  0  0  0  0  0  0  0  0  0  0  0
  137.4553   77.0229  219.9645 H   0  0  0  0  0  0  0  0  0  0  0  0
  136.0411   79.1472  221.5826 H   0  0  0  0  0  0  0  0  0  0  0  0
  135.3999   78.3595  220.1225 H   0  0  0  0  0  0  0  0  0  0  0  0
  134.6270   77.1673  222.1353 H   0  0  0  0  0  0  0  0  0  0  0  0
  135.7643   76.1266  221.2128 H   0  0  0  0  0  0  0  0  0  0  0  0
  136.3023   77.7856  223.6779 H   0  0  0  0  0  0  0  0  0  0  0  0
  136.3671   75.9512  223.4293 H   0  0  0  0  0  0  0  0  0  0  0  0
  138.4865   77.4233  223.6617 H   0  0  0  0  0  0  0  0  0  0  0  0
  138.2995   75.9619  222.5353 H   0  0  0  0  0  0  0  0  0  0  0  0
  138.1950   72.2165  220.8373 H   0  0  0  0  0  0  0  0  0  0  0  0
  137.8361   70.1012  222.0413 H   0  0  0  0  0  0  0  0  0  0  0  0
  138.4304   68.6557  223.8805 H   0  0  0  0  0  0  0  0  0  0  0  0
  141.4930   69.9407  226.6026 H   0  0  0  0  0  0  0  0  0  0  0  0
  141.8096   72.0679  225.3384 H   0  0  0  0  0  0  0  0  0  0  0  0
  1  2  2  0
  2  3  1  0
  3  4  1  0
  4  5  1  0
  5  6  2  0
  5  7  1  0
  7  8  1  0
  8  9  1  0
  9 10  1  0
 10 11  1  0
 11 12  1  0
 12 13  1  0
 13 14  1  0
 14 15  1  0
 15 16  1  0
 16 17  1  0
 17 18  1  0
 18 19  1  0
  2 20  1  0
 20 21  2  0
 21 22  1  0
 22 23  2  0
 23 24  1  0
 24 25  2  0
 25 26  1  0
 25 27  1  0
 27 28  2  0
 28 29  1  0
 29 30  2  0
 13  7  1  0
 19 14  1  0
 30 20  1  0
 29 23  1  0
  3 31  1  0
  4 32  1  0
  4 33  1  0
  8 34  1  0
  8 35  1  0
  9 36  1  0
  9 37  1  0
 10 38  1  0
 10 39  1  0
 11 40  1  0
 11 41  1  0
 12 42  1  0
 12 43  1  0
 13 44  1  1
 14 45  1  0
 15 46  1  0
 15 47  1  0
 16 48  1  0
 16 49  1  0
 17 50  1  0
 17 51  1  0
 18 52  1  0
 18 53  1  0
 19 54  1  0
 19 55  1  0
 21 56  1  0
 22 57  1  0
 24 58  1  0
 27 59  1  0
 28 60  1  0
M  END
>  <smiles>  (63) 
O=C(NCC(=O)N1CCCCCC1C1CCCCC1)c1ccc2cc(Cl)ccc2n1

>  <score_type>  (63) 
oracle

>  <origin>  (63) 
autodockgpu

>  <m_score__min__energy>  (63) 
-6.6600000000000001

>  <m_primary>  (63) 
energy

>  <rmsd>  (63) 
4.2029554245738066

>  <m_score__min__rmsd>  (63) 
4.2029554245738066

>  <meeko>  (63) 
{"free_energy": -4.21, "intermolecular_energy": -7.5, "internal_energy": -2.55, "cluster_size": 4, "cluster_id": 2, "rank_in_cluster": 4}

>  <energy>  (63) 
-5.73

>  <cluster_rmsd>  (63) 
0.83

>  <cluster>  (63) 
1

$$$$

     RDKit          3D

 60 63  0  0  0  0  0  0  0  0999 V2000
  138.4500   72.1850  221.0880 O   0  0  0  0  0  0  0  0  0  0  0  0
  139.3380   72.4750  221.9290 C   0  0  0  0  0  0  0  0  0  0  0  0
  140.1640   73.6290  221.8370 N   0  0  0  0  0  0  0  0  0  0  0  0
  140.0210   74.5610  220.7350 C   0  0  0  0  0  0  0  0  0  0  0  0
  141.2580   75.3230  220.6160 C   0  0  0  0  0  0  0  0  0  0  0  0
  142.2760   74.8940  221.2510 O   0  0  0  0  0  0  0  0  0  0  0  0
  141.3680   76.5380  219.8100 N   0  0  0  0  0  0  0  0  0  0  0  0
  141.2890   76.2090  218.4080 C   0  0  0  0  0  0  0  0  0  0  0  0
  142.1650   77.0860  217.5660 C   0  0  0  0  0  0  0  0  0  0  0  0
  141.5230   78.4570  217.5370 C   0  0  0  0  0  0  0  0  0  0  0  0
  142.1480   79.2780  218.6570 C   0  0  0  0  0  0  0  0  0  0  0  0
  141.5580   79.0260  219.9740 C   0  0  0  0  0  0  0  0  0  0  0  0
  141.5160   77.7190  220.5970 C   0  0  1  0  0  0  0  0  0  0  0  0
  140.7060   77.5830  221.8970 C   0  0  0  0  0  0  0  0  0  0  0  0
  139.3390   78.1300  221.8670 C   0  0  0  0  0  0  0  0  0  0  0  0
  139.1990   79.5330  222.3800 C   0  0  0  0  0  0  0  0  0  0  0  0
  139.6770   79.5300  223.8060 C   0  0  0  0  0  0  0  0  0  0  0  0
  141.1190   79.1510  223.8490 C   0  0  0  0  0  0  0  0  0  0  0  0
  141.5060   77.9270  223.1170 C   0  0  0  0  0  0  0  0  0  0  0  0
  139.5390   71.5740  223.0750 C   0  0  0  0  0  0  0  0  0  0  0  0
  139.0920   70.2680  223.0340 C   0  0  0  0  0  0  0  0  0  0  0  0
  139.2430   69.3740  224.0610 C   0  0  0  0  0  0  0  0  0  0  0  0
  139.8850   69.8220  225.2010 C   0  0  0  0  0  0  0  0  0  0  0  0
  140.0580   68.9520  226.2590 C   0  0  0  0  0  0  0  0  0  0  0  0
  140.6970   69.4280  227.3700 C   0  0  0  0  0  0  0  0  0  0  0  0
  140.9210   68.3330  228.7180 Cl  0  0  0  0  0  0  0  0  0  0  0  0
  141.1480   70.7380  227.4170 C   0  0  0  0  0  0  0  0  0  0  0  0
  140.9740   71.6160  226.3520 C   0  0  0  0  0  0  0  0  0  0  0  0
  140.3210   71.1300  225.2150 C   0  0  0  0  0  0  0  0  0  0  0  0
  140.1560   71.9790  224.1900 N   0  0  0  0  0  0  0  0  0  0  0  0
  140.8940   73.8180  222.5770 H   0  0  0  0  0  0  0  0  0  0  0  0
  139.8335   74.0084  219.8026 H   0  0  0  0  0  0  0  0  0  0  0  0
  139.1747   75.2390  220.9197 H   0  0  0  0  0  0  0  0  0  0  0  0
  141.6012   75.1630  218.2723 H   0  0  0  0  0  0  0  0  0  0  0  0
  140.2490   76.3639  218.0849 H   0  0  0  0  0  0  0  0  0  0  0  0
  143.1710   77.1493  218.0064 H   0  0  0  0  0  0  0  0  0  0  0  0
  142.2664   76.6787  216.5492 H   0  0  0  0  0  0  0  0  0  0  0  0
  141.7118   78.9398  216.5668 H   0  0  0  0  0  0  0  0  0  0  0  0
  140.4345   78.3784  217.6748 H   0  0  0  0  0  0  0  0  0  0  0  0
  143.2205   79.0386  218.7057 H   0  0  0  0  0  0  0  0  0  0  0  0
  141.9636   80.3363  218.4202 H   0  0  0  0  0  0  0  0  0  0  0  0
  142.1018   79.6755  220.6757 H   0  0  0  0  0  0  0  0  0  0  0  0
  140.4915   79.1978  219.7664 H   0  0  0  0  0  0  0  0  0  0  0  0
  142.5886   77.7436  220.8399 H   0  0  0  0  0  0  0  0  0  0  0  0
  140.4993   76.5056  221.9780 H   0  0  0  0  0  0  0  0  0  0  0  0
  138.9887   78.1127  220.8244 H   0  0  0  0  0  0  0  0  0  0  0  0
  138.7434   77.4981  222.5422 H   0  0  0  0  0  0  0  0  0  0  0  0
  139.8129   80.2185  221.7773 H   0  0  0  0  0  0  0  0  0  0  0  0
  138.1542   79.8714  222.3171 H   0  0  0  0  0  0  0  0  0  0  0  0
  139.5492   80.5339  224.2372 H   0  0  0  0  0  0  0  0  0  0  0  0
  139.0904   78.8028  224.3866 H   0  0  0  0  0  0  0  0  0  0  0  0
  141.6961   79.9875  223.4281 H   0  0  0  0  0  0  0  0  0  0  0  0
  141.3292   78.9337  224.9066 H   0  0  0  0  0  0  0  0  0  0  0  0
  142.5541   78.0445  222.8045 H   0  0  0  0  0  0  0  0  0  0  0  0
  141.3222   77.1024  223.8214 H   0  0  0  0  0  0  0  0  0  0  0  0
  138.5837   69.9246  222.1209 H   0  0  0  0  0  0  0  0  0  0  0  0
  138.8691   68.3425  223.9821 H   0  0  0  0  0  0  0  0  0  0  0  0
  139.6953   67.9147  226.2099 H   0  0  0  0  0  0  0  0  0  0  0  0
  141.6589   71.0940  228.3238 H   0  0  0  0  0  0  0  0  0  0  0  0
  141.3364   72.6534  226.4024 H   0  0  0  0  0  0  0  0  0  0  0  0
  1  2  2  0
  2  3  1  0
  3  4  1  0
  4  5  1  0
  5  6  2  0
  5  7  1  0
  7  8  1  0
  8  9  1  0
  9 10  1  0
 10 11  1  0
 11 12  1  0
 12 13  1  0
 13 14  1  0
 14 15  1  0
 15 16  1  0
 16 17  1  0
 17 18  1  0
 18 19  1  0
  2 20  1  0
 20 21  2  0
 21 22  1  0
 22 23  2  0
 23 24  1  0
 24 25  2  0
 25 26  1  0
 25 27  1  0
 27 28  2  0
 28 29  1  0
 29 30  2  0
 13  7  1  0
 19 14  1  0
 30 20  1  0
 29 23  1  0
  3 31  1  0
  4 32  1  0
  4 33  1  0
  8 34  1  0
  8 35  1  0
  9 36  1  0
  9 37  1  0
 10 38  1  0
 10 39  1  0
 11 40  1  0
 11 41  1  0
 12 42  1  0
 12 43  1  0
 13 44  1  1
 14 45  1  0
 15 46  1  0
 15 47  1  0
 16 48  1  0
 16 49  1  0
 17 50  1  0
 17 51  1  0
 18 52  1  0
 18 53  1  0
 19 54  1  0
 19 55  1  0
 21 56  1  0
 22 57  1  0
 24 58  1  0
 27 59  1  0
 28 60  1  0
M  END
>  <smiles>  (64) 
O=C(NCC(=O)N1CCCCCC1C1CCCCC1)c1ccc2cc(Cl)ccc2n1

>  <score_type>  (64) 
oracle

>  <origin>  (64) 
autodockgpu

>  <m_score__min__energy>  (64) 
-6.6600000000000001

>  <m_primary>  (64) 
energy

>  <rmsd>  (64) 
1.8554392409975309

>  <m_score__min__rmsd>  (64) 
1.8554392409975309

>  <meeko>  (64) 
{"free_energy": -5.53, "intermolecular_energy": -8.81, "internal_energy": -2.44, "cluster_size": 30, "cluster_id": 1, "rank_in_cluster": 19}

>  <energy>  (64) 
-5.72

>  <cluster_rmsd>  (64) 
0.95

>  <cluster>  (64) 
1

$$$$

     RDKit          3D

 60 63  0  0  0  0  0  0  0  0999 V2000
  139.3630   71.7960  220.5380 O   0  0  0  0  0  0  0  0  0  0  0  0
  139.7710   72.3060  221.6120 C   0  0  0  0  0  0  0  0  0  0  0  0
  140.2210   73.6510  221.7250 N   0  0  0  0  0  0  0  0  0  0  0  0
  140.2330   74.5310  220.5720 C   0  0  0  0  0  0  0  0  0  0  0  0
  141.1130   75.6560  220.8640 C   0  0  0  0  0  0  0  0  0  0  0  0
  141.3540   75.9110  222.0890 O   0  0  0  0  0  0  0  0  0  0  0  0
  141.7140   76.4850  219.8210 N   0  0  0  0  0  0  0  0  0  0  0  0
  142.0110   77.7970  220.3420 C   0  0  0  0  0  0  0  0  0  0  0  0
  141.7250   78.8830  219.3500 C   0  0  0  0  0  0  0  0  0  0  0  0
  142.5650   78.5940  218.1230 C   0  0  0  0  0  0  0  0  0  0  0  0
  141.6690   77.8970  217.1080 C   0  0  0  0  0  0  0  0  0  0  0  0
  141.5370   76.4550  217.3270 C   0  0  0  0  0  0  0  0  0  0  0  0
  141.8590   75.8000  218.5770 C   0  0  1  0  0  0  0  0  0  0  0  0
  143.1220   74.9230  218.6110 C   0  0  0  0  0  0  0  0  0  0  0  0
  142.9280   73.4980  218.2920 C   0  0  0  0  0  0  0  0  0  0  0  0
  142.7360   72.5970  219.4760 C   0  0  0  0  0  0  0  0  0  0  0  0
  143.9670   72.7270  220.3320 C   0  0  0  0  0  0  0  0  0  0  0  0
  144.0890   74.1310  220.8200 C   0  0  0  0  0  0  0  0  0  0  0  0
  143.9870   75.1990  219.8040 C   0  0  0  0  0  0  0  0  0  0  0  0
  139.7860   71.4710  222.8240 C   0  0  0  0  0  0  0  0  0  0  0  0
  139.2210   70.2110  222.8210 C   0  0  0  0  0  0  0  0  0  0  0  0
  139.1980   69.3790  223.9100 C   0  0  0  0  0  0  0  0  0  0  0  0
  139.7810   69.8450  225.0740 C   0  0  0  0  0  0  0  0  0  0  0  0
  139.7790   69.0370  226.1940 C   0  0  0  0  0  0  0  0  0  0  0  0
  140.3630   69.5280  227.3280 C   0  0  0  0  0  0  0  0  0  0  0  0
  140.3660   68.5120  228.7540 Cl  0  0  0  0  0  0  0  0  0  0  0  0
  140.9320   70.7930  227.3370 C   0  0  0  0  0  0  0  0  0  0  0  0
  140.9340   71.6070  226.2100 C   0  0  0  0  0  0  0  0  0  0  0  0
  140.3370   71.1050  225.0490 C   0  0  0  0  0  0  0  0  0  0  0  0
  140.3420   71.8940  223.9640 N   0  0  0  0  0  0  0  0  0  0  0  0
  140.5530   74.0220  222.6570 H   0  0  0  0  0  0  0  0  0  0  0  0
  140.6054   73.9861  219.6920 H   0  0  0  0  0  0  0  0  0  0  0  0
  139.2155   74.8909  220.3593 H   0  0  0  0  0  0  0  0  0  0  0  0
  141.3983   77.9678  221.2395 H   0  0  0  0  0  0  0  0  0  0  0  0
  143.0854   77.8301  220.5755 H   0  0  0  0  0  0  0  0  0  0  0  0
  140.6572   78.8817  219.0858 H   0  0  0  0  0  0  0  0  0  0  0  0
  141.9678   79.8709  219.7684 H   0  0  0  0  0  0  0  0  0  0  0  0
  142.9495   79.5344  217.7012 H   0  0  0  0  0  0  0  0  0  0  0  0
  143.4238   77.9576  218.3828 H   0  0  0  0  0  0  0  0  0  0  0  0
  140.6676   78.3489  217.1616 H   0  0  0  0  0  0  0  0  0  0  0  0
  142.1388   78.0293  216.1222 H   0  0  0  0  0  0  0  0  0  0  0  0
  140.4819   76.2168  217.1270 H   0  0  0  0  0  0  0  0  0  0  0  0
  142.3318   76.0671  216.6729 H   0  0  0  0  0  0  0  0  0  0  0  0
  140.9709   75.1531  218.5234 H   0  0  0  0  0  0  0  0  0  0  0  0
  143.7085   75.2554  217.7418 H   0  0  0  0  0  0  0  0  0  0  0  0
  142.0383   73.4112  217.6509 H   0  0  0  0  0  0  0  0  0  0  0  0
  143.8564   73.1661  217.8042 H   0  0  0  0  0  0  0  0  0  0  0  0
  141.8462   72.9049  220.0447 H   0  0  0  0  0  0  0  0  0  0  0  0
  142.5883   71.5549  219.1564 H   0  0  0  0  0  0  0  0  0  0  0  0
  143.8888   72.0457  221.1920 H   0  0  0  0  0  0  0  0  0  0  0  0
  144.8554   72.4677  219.7374 H   0  0  0  0  0  0  0  0  0  0  0  0
  143.2915   74.2972  221.5592 H   0  0  0  0  0  0  0  0  0  0  0  0
  145.1107   74.2098  221.2199 H   0  0  0  0  0  0  0  0  0  0  0  0
  143.5883   76.0946  220.3029 H   0  0  0  0  0  0  0  0  0  0  0  0
  145.0045   75.3073  219.4002 H   0  0  0  0  0  0  0  0  0  0  0  0
  138.7614   69.8532  221.8878 H   0  0  0  0  0  0  0  0  0  0  0  0
  138.7352   68.3824  223.8601 H   0  0  0  0  0  0  0  0  0  0  0  0
  139.3243   68.0356  226.1742 H   0  0  0  0  0  0  0  0  0  0  0  0
  141.3954   71.1631  228.2634 H   0  0  0  0  0  0  0  0  0  0  0  0
  141.3882   72.6086  226.2306 H   0  0  0  0  0  0  0  0  0  0  0  0
  1  2  2  0
  2  3  1  0
  3  4  1  0
  4  5  1  0
  5  6  2  0
  5  7  1  0
  7  8  1  0
  8  9  1  0
  9 10  1  0
 10 11  1  0
 11 12  1  0
 12 13  1  0
 13 14  1  0
 14 15  1  0
 15 16  1  0
 16 17  1  0
 17 18  1  0
 18 19  1  0
  2 20  1  0
 20 21  2  0
 21 22  1  0
 22 23  2  0
 23 24  1  0
 24 25  2  0
 25 26  1  0
 25 27  1  0
 27 28  2  0
 28 29  1  0
 29 30  2  0
 13  7  1  0
 19 14  1  0
 30 20  1  0
 29 23  1  0
  3 31  1  0
  4 32  1  0
  4 33  1  0
  8 34  1  0
  8 35  1  0
  9 36  1  0
  9 37  1  0
 10 38  1  0
 10 39  1  0
 11 40  1  0
 11 41  1  0
 12 42  1  0
 12 43  1  0
 13 44  1  1
 14 45  1  0
 15 46  1  0
 15 47  1  0
 16 48  1  0
 16 49  1  0
 17 50  1  0
 17 51  1  0
 18 52  1  0
 18 53  1  0
 19 54  1  0
 19 55  1  0
 21 56  1  0
 22 57  1  0
 24 58  1  0
 27 59  1  0
 28 60  1  0
M  END
>  <smiles>  (65) 
O=C(NCC(=O)N1CCCCCC1C1CCCCC1)c1ccc2cc(Cl)ccc2n1

>  <score_type>  (65) 
oracle

>  <origin>  (65) 
autodockgpu

>  <m_score__min__energy>  (65) 
-6.6600000000000001

>  <m_primary>  (65) 
energy

>  <rmsd>  (65) 
2.361866511335091

>  <m_score__min__rmsd>  (65) 
2.361866511335091

>  <meeko>  (65) 
{"free_energy": -5.17, "intermolecular_energy": -8.45, "internal_energy": -2.95, "cluster_size": 30, "cluster_id": 1, "rank_in_cluster": 26}

>  <energy>  (65) 
-5.69

>  <cluster_rmsd>  (65) 
1.59

>  <cluster>  (65) 
1

$$$$

     RDKit          3D

 60 63  0  0  0  0  0  0  0  0999 V2000
  137.5380   77.0510  221.9420 O   0  0  0  0  0  0  0  0  0  0  0  0
  138.4400   77.2990  221.1020 C   0  0  0  0  0  0  0  0  0  0  0  0
  138.3940   78.3950  220.1970 N   0  0  0  0  0  0  0  0  0  0  0  0
  137.2710   79.3120  220.1950 C   0  0  0  0  0  0  0  0  0  0  0  0
  137.6550   80.5090  220.9340 C   0  0  0  0  0  0  0  0  0  0  0  0
  138.2160   81.4480  220.2820 O   0  0  0  0  0  0  0  0  0  0  0  0
  137.4240   80.6640  222.3690 N   0  0  0  0  0  0  0  0  0  0  0  0
  136.0110   80.5970  222.6520 C   0  0  0  0  0  0  0  0  0  0  0  0
  135.6150   81.4820  223.7950 C   0  0  0  0  0  0  0  0  0  0  0  0
  136.1510   80.8400  225.0580 C   0  0  0  0  0  0  0  0  0  0  0  0
  137.5110   81.4610  225.3460 C   0  0  0  0  0  0  0  0  0  0  0  0
  138.6070   80.8780  224.5620 C   0  0  0  0  0  0  0  0  0  0  0  0
  138.6300   80.8310  223.1150 C   0  0  1  0  0  0  0  0  0  0  0  0
  139.7660   80.0350  222.4510 C   0  0  0  0  0  0  0  0  0  0  0  0
  140.2730   78.8790  223.2100 C   0  0  0  0  0  0  0  0  0  0  0  0
  141.4770   79.1500  224.0620 C   0  0  0  0  0  0  0  0  0  0  0  0
  142.5680   79.6280  223.1430 C   0  0  0  0  0  0  0  0  0  0  0  0
  142.1500   80.9050  222.4950 C   0  0  0  0  0  0  0  0  0  0  0  0
  140.8190   80.9190  221.8530 C   0  0  0  0  0  0  0  0  0  0  0  0
  139.6110   76.4100  221.0480 C   0  0  0  0  0  0  0  0  0  0  0  0
  139.5540   75.1330  221.5700 C   0  0  0  0  0  0  0  0  0  0  0  0
  140.6020   74.2510  221.5550 C   0  0  0  0  0  0  0  0  0  0  0  0
  141.7830   74.6820  220.9790 C   0  0  0  0  0  0  0  0  0  0  0  0
  142.8640   73.8230  220.9440 C   0  0  0  0  0  0  0  0  0  0  0  0
  144.0160   74.2810  220.3670 C   0  0  0  0  0  0  0  0  0  0  0  0
  145.3930   73.2010  220.3170 Cl  0  0  0  0  0  0  0  0  0  0  0  0
  144.0800   75.5630  219.8420 C   0  0  0  0  0  0  0  0  0  0  0  0
  142.9920   76.4280  219.8770 C   0  0  0  0  0  0  0  0  0  0  0  0
  141.8140   75.9610  220.4660 C   0  0  0  0  0  0  0  0  0  0  0  0
  140.7660   76.7980  220.4980 N   0  0  0  0  0  0  0  0  0  0  0  0
  139.1840   78.5510  219.5130 H   0  0  0  0  0  0  0  0  0  0  0  0
  137.0124   79.5809  219.1602 H   0  0  0  0  0  0  0  0  0  0  0  0
  136.3962   78.8403  220.6664 H   0  0  0  0  0  0  0  0  0  0  0  0
  135.4558   80.9087  221.7550 H   0  0  0  0  0  0  0  0  0  0  0  0
  135.7738   79.5602  222.9326 H   0  0  0  0  0  0  0  0  0  0  0  0
  136.0510   82.4836  223.6660 H   0  0  0  0  0  0  0  0  0  0  0  0
  134.5218   81.5938  223.8447 H   0  0  0  0  0  0  0  0  0  0  0  0
  135.4655   81.0317  225.8967 H   0  0  0  0  0  0  0  0  0  0  0  0
  136.2417   79.7512  224.9305 H   0  0  0  0  0  0  0  0  0  0  0  0
  137.4563   82.5360  225.1195 H   0  0  0  0  0  0  0  0  0  0  0  0
  137.7350   81.2646  226.4049 H   0  0  0  0  0  0  0  0  0  0  0  0
  139.5115   81.4300  224.8571 H   0  0  0  0  0  0  0  0  0  0  0  0
  138.4940   79.8111  224.8047 H   0  0  0  0  0  0  0  0  0  0  0  0
  138.8475   81.9063  223.0344 H   0  0  0  0  0  0  0  0  0  0  0  0
  139.2867   79.5331  221.5975 H   0  0  0  0  0  0  0  0  0  0  0  0
  139.4654   78.5228  223.8664 H   0  0  0  0  0  0  0  0  0  0  0  0
  140.5908   78.1389  222.4608 H   0  0  0  0  0  0  0  0  0  0  0  0
  141.2452   79.9245  224.8080 H   0  0  0  0  0  0  0  0  0  0  0  0
  141.7878   78.2434  224.6018 H   0  0  0  0  0  0  0  0  0  0  0  0
  143.4881   79.7950  223.7223 H   0  0  0  0  0  0  0  0  0  0  0  0
  142.7539   78.8685  222.3693 H   0  0  0  0  0  0  0  0  0  0  0  0
  142.1557   81.6882  223.2674 H   0  0  0  0  0  0  0  0  0  0  0  0
  142.8675   81.0620  221.6761 H   0  0  0  0  0  0  0  0  0  0  0  0
  140.4442   81.9525  221.8886 H   0  0  0  0  0  0  0  0  0  0  0  0
  140.9855   80.5210  220.8411 H   0  0  0  0  0  0  0  0  0  0  0  0
  138.6087   74.8036  222.0261 H   0  0  0  0  0  0  0  0  0  0  0  0
  140.5081   73.2421  221.9832 H   0  0  0  0  0  0  0  0  0  0  0  0
  142.8006   72.8085  221.3645 H   0  0  0  0  0  0  0  0  0  0  0  0
  145.0196   75.9058  219.3842 H   0  0  0  0  0  0  0  0  0  0  0  0
  143.0562   77.4425  219.4566 H   0  0  0  0  0  0  0  0  0  0  0  0
  1  2  2  0
  2  3  1  0
  3  4  1  0
  4  5  1  0
  5  6  2  0
  5  7  1  0
  7  8  1  0
  8  9  1  0
  9 10  1  0
 10 11  1  0
 11 12  1  0
 12 13  1  0
 13 14  1  0
 14 15  1  0
 15 16  1  0
 16 17  1  0
 17 18  1  0
 18 19  1  0
  2 20  1  0
 20 21  2  0
 21 22  1  0
 22 23  2  0
 23 24  1  0
 24 25  2  0
 25 26  1  0
 25 27  1  0
 27 28  2  0
 28 29  1  0
 29 30  2  0
 13  7  1  0
 19 14  1  0
 30 20  1  0
 29 23  1  0
  3 31  1  0
  4 32  1  0
  4 33  1  0
  8 34  1  0
  8 35  1  0
  9 36  1  0
  9 37  1  0
 10 38  1  0
 10 39  1  0
 11 40  1  0
 11 41  1  0
 12 42  1  0
 12 43  1  0
 13 44  1  6
 14 45  1  0
 15 46  1  0
 15 47  1  0
 16 48  1  0
 16 49  1  0
 17 50  1  0
 17 51  1  0
 18 52  1  0
 18 53  1  0
 19 54  1  0
 19 55  1  0
 21 56  1  0
 22 57  1  0
 24 58  1  0
 27 59  1  0
 28 60  1  0
M  END
>  <smiles>  (66) 
O=C(NCC(=O)N1CCCCCC1C1CCCCC1)c1ccc2cc(Cl)ccc2n1

>  <score_type>  (66) 
oracle

>  <origin>  (66) 
autodockgpu

>  <m_score__min__energy>  (66) 
-6.6600000000000001

>  <m_primary>  (66) 
energy

>  <rmsd>  (66) 
7.5714761495382925

>  <m_score__min__rmsd>  (66) 
7.5714761495382925

>  <meeko>  (66) 
{"free_energy": -4.07, "intermolecular_energy": -7.35, "internal_energy": -2.88, "cluster_size": 2, "cluster_id": 9, "rank_in_cluster": 2}

>  <energy>  (66) 
-5.65

>  <cluster_rmsd>  (66) 
1.05

>  <cluster>  (66) 
1

$$$$

     RDKit          3D

 60 63  0  0  0  0  0  0  0  0999 V2000
  139.0260   73.8820  220.3950 O   0  0  0  0  0  0  0  0  0  0  0  0
  139.7490   73.8530  221.4230 C   0  0  0  0  0  0  0  0  0  0  0  0
  140.6190   74.9110  221.8050 N   0  0  0  0  0  0  0  0  0  0  0  0
  140.7230   76.1150  221.0040 C   0  0  0  0  0  0  0  0  0  0  0  0
  141.0650   77.2250  221.8870 C   0  0  0  0  0  0  0  0  0  0  0  0
  141.3080   76.9510  223.1070 O   0  0  0  0  0  0  0  0  0  0  0  0
  141.1340   78.6110  221.4290 N   0  0  0  0  0  0  0  0  0  0  0  0
  141.3750   78.6500  220.0080 C   0  0  0  0  0  0  0  0  0  0  0  0
  140.9040   79.9290  219.3840 C   0  0  0  0  0  0  0  0  0  0  0  0
  141.8350   81.0230  219.8620 C   0  0  0  0  0  0  0  0  0  0  0  0
  141.1810   81.6880  221.0660 C   0  0  0  0  0  0  0  0  0  0  0  0
  141.3410   80.9400  222.3160 C   0  0  0  0  0  0  0  0  0  0  0  0
  140.9440   79.5570  222.4810 C   0  0  1  0  0  0  0  0  0  0  0  0
  139.6070   79.2850  223.1890 C   0  0  0  0  0  0  0  0  0  0  0  0
  138.4900   78.8670  222.3240 C   0  0  0  0  0  0  0  0  0  0  0  0
  137.5850   79.9740  221.8680 C   0  0  0  0  0  0  0  0  0  0  0  0
  137.0120   80.6110  223.1040 C   0  0  0  0  0  0  0  0  0  0  0  0
  138.1140   81.2050  223.9150 C   0  0  0  0  0  0  0  0  0  0  0  0
  139.2680   80.3310  224.2090 C   0  0  0  0  0  0  0  0  0  0  0  0
  139.6950   72.6610  222.2840 C   0  0  0  0  0  0  0  0  0  0  0  0
  138.9340   71.5650  221.9270 C   0  0  0  0  0  0  0  0  0  0  0  0
  138.8360   70.4230  222.6780 C   0  0  0  0  0  0  0  0  0  0  0  0
  139.5490   70.3800  223.8620 C   0  0  0  0  0  0  0  0  0  0  0  0
  139.4780   69.2470  224.6470 C   0  0  0  0  0  0  0  0  0  0  0  0
  140.1960   69.2390  225.8100 C   0  0  0  0  0  0  0  0  0  0  0  0
  140.1120   67.8070  226.8150 Cl  0  0  0  0  0  0  0  0  0  0  0  0
  140.9620   70.3360  226.1740 C   0  0  0  0  0  0  0  0  0  0  0  0
  141.0340   71.4780  225.3840 C   0  0  0  0  0  0  0  0  0  0  0  0
  140.3010   71.4870  224.1940 C   0  0  0  0  0  0  0  0  0  0  0  0
  140.3730   72.5910  223.4340 N   0  0  0  0  0  0  0  0  0  0  0  0
  141.2030   74.8260  222.6810 H   0  0  0  0  0  0  0  0  0  0  0  0
  141.5079   75.9892  220.2437 H   0  0  0  0  0  0  0  0  0  0  0  0
  139.7683   76.3155  220.4957 H   0  0  0  0  0  0  0  0  0  0  0  0
  142.4556   78.5469  219.8299 H   0  0  0  0  0  0  0  0  0  0  0  0
  140.8106   77.8249  219.5491 H   0  0  0  0  0  0  0  0  0  0  0  0
  140.9436   79.8515  218.2875 H   0  0  0  0  0  0  0  0  0  0  0  0
  139.8640   80.1457  219.6694 H   0  0  0  0  0  0  0  0  0  0  0  0
  142.8042   80.5911  220.1521 H   0  0  0  0  0  0  0  0  0  0  0  0
  142.0118   81.7576  219.0626 H   0  0  0  0  0  0  0  0  0  0  0  0
  141.6296   82.6836  221.1981 H   0  0  0  0  0  0  0  0  0  0  0  0
  140.1019   81.7358  220.8579 H   0  0  0  0  0  0  0  0  0  0  0  0
  142.4154   80.9733  222.5498 H   0  0  0  0  0  0  0  0  0  0  0  0
  140.6117   81.4491  222.9632 H   0  0  0  0  0  0  0  0  0  0  0  0
  141.7699   79.3512  223.1778 H   0  0  0  0  0  0  0  0  0  0  0  0
  139.7854   78.3635  223.7625 H   0  0  0  0  0  0  0  0  0  0  0  0
  138.9136   78.3843  221.4310 H   0  0  0  0  0  0  0  0  0  0  0  0
  137.8673   78.1955  222.9334 H   0  0  0  0  0  0  0  0  0  0  0  0
  138.1567   80.7158  221.2911 H   0  0  0  0  0  0  0  0  0  0  0  0
  136.7855   79.5856  221.2200 H   0  0  0  0  0  0  0  0  0  0  0  0
  136.3034   81.4009  222.8143 H   0  0  0  0  0  0  0  0  0  0  0  0
  136.4887   79.8487  223.6999 H   0  0  0  0  0  0  0  0  0  0  0  0
  138.4915   82.0835  223.3712 H   0  0  0  0  0  0  0  0  0  0  0  0
  137.6642   81.4281  224.8937 H   0  0  0  0  0  0  0  0  0  0  0  0
  140.1509   80.9761  224.3288 H   0  0  0  0  0  0  0  0  0  0  0  0
  138.9788   79.7690  225.1093 H   0  0  0  0  0  0  0  0  0  0  0  0
  138.3724   71.6117  220.9823 H   0  0  0  0  0  0  0  0  0  0  0  0
  138.2155   69.5751  222.3523 H   0  0  0  0  0  0  0  0  0  0  0  0
  138.8665   68.3829  224.3479 H   0  0  0  0  0  0  0  0  0  0  0  0
  141.5296   70.3018  227.1156 H   0  0  0  0  0  0  0  0  0  0  0  0
  141.6450   72.3420  225.6844 H   0  0  0  0  0  0  0  0  0  0  0  0
  1  2  2  0
  2  3  1  0
  3  4  1  0
  4  5  1  0
  5  6  2  0
  5  7  1  0
  7  8  1  0
  8  9  1  0
  9 10  1  0
 10 11  1  0
 11 12  1  0
 12 13  1  0
 13 14  1  0
 14 15  1  0
 15 16  1  0
 16 17  1  0
 17 18  1  0
 18 19  1  0
  2 20  1  0
 20 21  2  0
 21 22  1  0
 22 23  2  0
 23 24  1  0
 24 25  2  0
 25 26  1  0
 25 27  1  0
 27 28  2  0
 28 29  1  0
 29 30  2  0
 13  7  1  0
 19 14  1  0
 30 20  1  0
 29 23  1  0
  3 31  1  0
  4 32  1  0
  4 33  1  0
  8 34  1  0
  8 35  1  0
  9 36  1  0
  9 37  1  0
 10 38  1  0
 10 39  1  0
 11 40  1  0
 11 41  1  0
 12 42  1  0
 12 43  1  0
 13 44  1  1
 14 45  1  0
 15 46  1  0
 15 47  1  0
 16 48  1  0
 16 49  1  0
 17 50  1  0
 17 51  1  0
 18 52  1  0
 18 53  1  0
 19 54  1  0
 19 55  1  0
 21 56  1  0
 22 57  1  0
 24 58  1  0
 27 59  1  0
 28 60  1  0
M  END
>  <smiles>  (67) 
O=C(NCC(=O)N1CCCCCC1C1CCCCC1)c1ccc2cc(Cl)ccc2n1

>  <score_type>  (67) 
oracle

>  <origin>  (67) 
autodockgpu

>  <m_score__min__energy>  (67) 
-6.6600000000000001

>  <m_primary>  (67) 
energy

>  <rmsd>  (67) 
3.579917360708443

>  <m_score__min__rmsd>  (67) 
3.579917360708443

>  <meeko>  (67) 
{"free_energy": -5.45, "intermolecular_energy": -8.73, "internal_energy": -2.55, "cluster_size": 30, "cluster_id": 1, "rank_in_cluster": 22}

>  <energy>  (67) 
-5.63

>  <cluster_rmsd>  (67) 
0.89

>  <cluster>  (67) 
1

$$$$

     RDKit          3D

 60 63  0  0  0  0  0  0  0  0999 V2000
  134.2950   71.2000  225.1100 O   0  0  0  0  0  0  0  0  0  0  0  0
  135.0250   72.2150  224.9820 C   0  0  0  0  0  0  0  0  0  0  0  0
  136.3260   72.1830  224.4080 N   0  0  0  0  0  0  0  0  0  0  0  0
  136.8960   70.9410  223.9240 C   0  0  0  0  0  0  0  0  0  0  0  0
  138.3320   71.1320  223.7510 C   0  0  0  0  0  0  0  0  0  0  0  0
  138.7100   71.9880  222.8870 O   0  0  0  0  0  0  0  0  0  0  0  0
  139.3290   70.3890  224.5190 N   0  0  0  0  0  0  0  0  0  0  0  0
  139.9010   71.2370  225.5360 C   0  0  0  0  0  0  0  0  0  0  0  0
  140.5050   70.4520  226.6600 C   0  0  0  0  0  0  0  0  0  0  0  0
  139.4850   69.4110  227.0710 C   0  0  0  0  0  0  0  0  0  0  0  0
  139.8970   68.0900  226.4370 C   0  0  0  0  0  0  0  0  0  0  0  0
  139.4830   67.9470  225.0340 C   0  0  0  0  0  0  0  0  0  0  0  0
  139.4780   69.0390  224.0820 C   0  0  1  0  0  0  0  0  0  0  0  0
  138.7050   68.8270  222.7700 C   0  0  0  0  0  0  0  0  0  0  0  0
  137.9170   67.5860  222.6770 C   0  0  0  0  0  0  0  0  0  0  0  0
  138.6100   66.4370  222.0060 C   0  0  0  0  0  0  0  0  0  0  0  0
  138.9540   66.8840  220.6120 C   0  0  0  0  0  0  0  0  0  0  0  0
  139.9010   68.0350  220.6770 C   0  0  0  0  0  0  0  0  0  0  0  0
  139.5210   69.1600  221.5570 C   0  0  0  0  0  0  0  0  0  0  0  0
  134.5110   73.5120  225.4510 C   0  0  0  0  0  0  0  0  0  0  0  0
  134.9890   74.6950  224.9230 C   0  0  0  0  0  0  0  0  0  0  0  0
  134.5570   75.9360  225.3100 C   0  0  0  0  0  0  0  0  0  0  0  0
  133.5840   75.9910  226.2900 C   0  0  0  0  0  0  0  0  0  0  0  0
  133.1220   77.2230  226.7090 C   0  0  0  0  0  0  0  0  0  0  0  0
  132.1600   77.2400  227.6790 C   0  0  0  0  0  0  0  0  0  0  0  0
  131.5660   78.7970  228.2180 Cl  0  0  0  0  0  0  0  0  0  0  0  0
  131.6760   76.0550  228.2140 C   0  0  0  0  0  0  0  0  0  0  0  0
  132.1410   74.8140  227.7930 C   0  0  0  0  0  0  0  0  0  0  0  0
  133.1250   74.7950  226.8000 C   0  0  0  0  0  0  0  0  0  0  0  0
  133.5700   73.5960  226.3970 N   0  0  0  0  0  0  0  0  0  0  0  0
  136.8920   73.0720  224.3280 H   0  0  0  0  0  0  0  0  0  0  0  0
  136.7129   70.1385  224.6537 H   0  0  0  0  0  0  0  0  0  0  0  0
  136.4333   70.6597  222.9665 H   0  0  0  0  0  0  0  0  0  0  0  0
  140.6845   71.8587  225.0781 H   0  0  0  0  0  0  0  0  0  0  0  0
  139.0911   71.8529  225.9540 H   0  0  0  0  0  0  0  0  0  0  0  0
  141.4306   69.9619  226.3238 H   0  0  0  0  0  0  0  0  0  0  0  0
  140.7586   71.1084  227.5055 H   0  0  0  0  0  0  0  0  0  0  0  0
  139.4693   69.3129  228.1665 H   0  0  0  0  0  0  0  0  0  0  0  0
  138.4782   69.7029  226.7376 H   0  0  0  0  0  0  0  0  0  0  0  0
  140.9931   68.0103  226.4843 H   0  0  0  0  0  0  0  0  0  0  0  0
  139.3904   67.2935  227.0017 H   0  0  0  0  0  0  0  0  0  0  0  0
  140.1416   67.1779  224.6042 H   0  0  0  0  0  0  0  0  0  0  0  0
  138.4050   67.7603  225.1487 H   0  0  0  0  0  0  0  0  0  0  0  0
  140.5559   68.9416  223.8855 H   0  0  0  0  0  0  0  0  0  0  0  0
  137.9047   69.5811  222.7994 H   0  0  0  0  0  0  0  0  0  0  0  0
  137.6521   67.2740  223.6980 H   0  0  0  0  0  0  0  0  0  0  0  0
  137.0454   67.8246  222.0498 H   0  0  0  0  0  0  0  0  0  0  0  0
  139.5262   66.1754  222.5557 H   0  0  0  0  0  0  0  0  0  0  0  0
  137.9635   65.5473  221.9845 H   0  0  0  0  0  0  0  0  0  0  0  0
  139.4244   66.0528  220.0662 H   0  0  0  0  0  0  0  0  0  0  0  0
  138.0366   67.1937  220.0899 H   0  0  0  0  0  0  0  0  0  0  0  0
  140.8697   67.6499  221.0283 H   0  0  0  0  0  0  0  0  0  0  0  0
  139.9141   68.4555  219.6606 H   0  0  0  0  0  0  0  0  0  0  0  0
  140.4487   69.6399  221.9021 H   0  0  0  0  0  0  0  0  0  0  0  0
  138.8712   69.7990  220.9410 H   0  0  0  0  0  0  0  0  0  0  0  0
  135.7638   74.6373  224.1443 H   0  0  0  0  0  0  0  0  0  0  0  0
  134.9678   76.8514  224.8592 H   0  0  0  0  0  0  0  0  0  0  0  0
  133.5139   78.1560  226.2778 H   0  0  0  0  0  0  0  0  0  0  0  0
  130.9017   76.0984  228.9941 H   0  0  0  0  0  0  0  0  0  0  0  0
  131.7491   73.8815  228.2253 H   0  0  0  0  0  0  0  0  0  0  0  0
  1  2  2  0
  2  3  1  0
  3  4  1  0
  4  5  1  0
  5  6  2  0
  5  7  1  0
  7  8  1  0
  8  9  1  0
  9 10  1  0
 10 11  1  0
 11 12  1  0
 12 13  1  0
 13 14  1  0
 14 15  1  0
 15 16  1  0
 16 17  1  0
 17 18  1  0
 18 19  1  0
  2 20  1  0
 20 21  2  0
 21 22  1  0
 22 23  2  0
 23 24  1  0
 24 25  2  0
 25 26  1  0
 25 27  1  0
 27 28  2  0
 28 29  1  0
 29 30  2  0
 13  7  1  0
 19 14  1  0
 30 20  1  0
 29 23  1  0
  3 31  1  0
  4 32  1  0
  4 33  1  0
  8 34  1  0
  8 35  1  0
  9 36  1  0
  9 37  1  0
 10 38  1  0
 10 39  1  0
 11 40  1  0
 11 41  1  0
 12 42  1  0
 12 43  1  0
 13 44  1  6
 14 45  1  0
 15 46  1  0
 15 47  1  0
 16 48  1  0
 16 49  1  0
 17 50  1  0
 17 51  1  0
 18 52  1  0
 18 53  1  0
 19 54  1  0
 19 55  1  0
 21 56  1  0
 22 57  1  0
 24 58  1  0
 27 59  1  0
 28 60  1  0
M  END
>  <smiles>  (68) 
O=C(NCC(=O)N1CCCCCC1C1CCCCC1)c1ccc2cc(Cl)ccc2n1

>  <score_type>  (68) 
oracle

>  <origin>  (68) 
autodockgpu

>  <m_score__min__energy>  (68) 
-6.6600000000000001

>  <m_primary>  (68) 
energy

>  <rmsd>  (68) 
8.70138975473431

>  <m_score__min__rmsd>  (68) 
8.70138975473431

>  <meeko>  (68) 
{"free_energy": -5.19, "intermolecular_energy": -8.47, "internal_energy": -1.65, "cluster_size": 1, "cluster_id": 5, "rank_in_cluster": 1}

>  <energy>  (68) 
-5.62

>  <cluster_rmsd>  (68) 
1.9

>  <cluster>  (68) 
1

$$$$

     RDKit          3D

 60 63  0  0  0  0  0  0  0  0999 V2000
  140.1210   72.1340  220.6630 O   0  0  0  0  0  0  0  0  0  0  0  0
  140.0140   72.6420  221.8080 C   0  0  0  0  0  0  0  0  0  0  0  0
  139.9280   74.0420  222.0440 N   0  0  0  0  0  0  0  0  0  0  0  0
  139.9600   74.9860  220.9440 C   0  0  0  0  0  0  0  0  0  0  0  0
  140.9200   76.0350  221.2680 C   0  0  0  0  0  0  0  0  0  0  0  0
  141.4230   76.0290  222.4390 O   0  0  0  0  0  0  0  0  0  0  0  0
  141.3160   77.0700  220.3160 N   0  0  0  0  0  0  0  0  0  0  0  0
  141.4110   76.5110  218.9900 C   0  0  0  0  0  0  0  0  0  0  0  0
  140.8050   77.4030  217.9490 C   0  0  0  0  0  0  0  0  0  0  0  0
  141.7280   78.5940  217.7950 C   0  0  0  0  0  0  0  0  0  0  0  0
  141.2360   79.6800  218.7410 C   0  0  0  0  0  0  0  0  0  0  0  0
  141.7240   79.5290  220.1160 C   0  0  0  0  0  0  0  0  0  0  0  0
  141.4970   78.3490  220.9240 C   0  0  1  0  0  0  0  0  0  0  0  0
  140.5550   78.4890  222.1310 C   0  0  0  0  0  0  0  0  0  0  0  0
  139.2430   79.1010  221.8580 C   0  0  0  0  0  0  0  0  0  0  0  0
  139.1610   80.5780  222.1090 C   0  0  0  0  0  0  0  0  0  0  0  0
  139.4930   80.7970  223.5590 C   0  0  0  0  0  0  0  0  0  0  0  0
  140.8910   80.3490  223.8240 C   0  0  0  0  0  0  0  0  0  0  0  0
  141.2550   78.9960  223.3560 C   0  0  0  0  0  0  0  0  0  0  0  0
  139.9740   71.7430  222.9720 C   0  0  0  0  0  0  0  0  0  0  0  0
  139.3630   70.5070  222.8910 C   0  0  0  0  0  0  0  0  0  0  0  0
  139.2880   69.6190  223.9320 C   0  0  0  0  0  0  0  0  0  0  0  0
  139.8650   69.9990  225.1300 C   0  0  0  0  0  0  0  0  0  0  0  0
  139.8110   69.1330  226.2040 C   0  0  0  0  0  0  0  0  0  0  0  0
  140.3910   69.5400  227.3730 C   0  0  0  0  0  0  0  0  0  0  0  0
  140.3280   68.4500  228.7420 Cl  0  0  0  0  0  0  0  0  0  0  0  0
  141.0050   70.7800  227.4610 C   0  0  0  0  0  0  0  0  0  0  0  0
  141.0600   71.6530  226.3800 C   0  0  0  0  0  0  0  0  0  0  0  0
  140.4680   71.2370  225.1840 C   0  0  0  0  0  0  0  0  0  0  0  0
  140.5230   72.0830  224.1430 N   0  0  0  0  0  0  0  0  0  0  0  0
  139.8400   74.4070  223.0310 H   0  0  0  0  0  0  0  0  0  0  0  0
  140.2681   74.4719  220.0216 H   0  0  0  0  0  0  0  0  0  0  0  0
  138.9616   75.4209  220.7889 H   0  0  0  0  0  0  0  0  0  0  0  0
  142.4726   76.3556  218.7474 H   0  0  0  0  0  0  0  0  0  0  0  0
  140.8533   75.5629  218.9850 H   0  0  0  0  0  0  0  0  0  0  0  0
  140.7200   76.8649  216.9934 H   0  0  0  0  0  0  0  0  0  0  0  0
  139.7958   77.7242  218.2463 H   0  0  0  0  0  0  0  0  0  0  0  0
  142.7575   78.3073  218.0555 H   0  0  0  0  0  0  0  0  0  0  0  0
  141.7244   78.9549  216.7559 H   0  0  0  0  0  0  0  0  0  0  0  0
  141.5739   80.6540  218.3575 H   0  0  0  0  0  0  0  0  0  0  0  0
  140.1394   79.6015  218.7784 H   0  0  0  0  0  0  0  0  0  0  0  0
  142.8160   79.6491  220.0613 H   0  0  0  0  0  0  0  0  0  0  0  0
  141.1053   80.2699  220.6435 H   0  0  0  0  0  0  0  0  0  0  0  0
  142.5379   78.3310  221.2791 H   0  0  0  0  0  0  0  0  0  0  0  0
  140.2604   77.4565  222.3699 H   0  0  0  0  0  0  0  0  0  0  0  0
  138.9974   78.9216  220.8009 H   0  0  0  0  0  0  0  0  0  0  0  0
  138.5366   78.6331  222.5595 H   0  0  0  0  0  0  0  0  0  0  0  0
  139.8827   81.1100  221.4718 H   0  0  0  0  0  0  0  0  0  0  0  0
  138.1568   80.9608  221.8742 H   0  0  0  0  0  0  0  0  0  0  0  0
  139.3993   81.8664  223.7988 H   0  0  0  0  0  0  0  0  0  0  0  0
  138.7983   80.2178  224.1850 H   0  0  0  0  0  0  0  0  0  0  0  0
  141.5684   81.0642  223.3346 H   0  0  0  0  0  0  0  0  0  0  0  0
  140.9784   80.3086  224.9198 H   0  0  0  0  0  0  0  0  0  0  0  0
  142.3346   78.9970  223.1450 H   0  0  0  0  0  0  0  0  0  0  0  0
  140.9417   78.3197  224.1650 H   0  0  0  0  0  0  0  0  0  0  0  0
  138.9087   70.2176  221.9319 H   0  0  0  0  0  0  0  0  0  0  0  0
  138.7897   68.6448  223.8195 H   0  0  0  0  0  0  0  0  0  0  0  0
  139.3196   68.1523  226.1220 H   0  0  0  0  0  0  0  0  0  0  0  0
  141.4624   71.0823  228.4146 H   0  0  0  0  0  0  0  0  0  0  0  0
  141.5508   72.6339  226.4629 H   0  0  0  0  0  0  0  0  0  0  0  0
  1  2  2  0
  2  3  1  0
  3  4  1  0
  4  5  1  0
  5  6  2  0
  5  7  1  0
  7  8  1  0
  8  9  1  0
  9 10  1  0
 10 11  1  0
 11 12  1  0
 12 13  1  0
 13 14  1  0
 14 15  1  0
 15 16  1  0
 16 17  1  0
 17 18  1  0
 18 19  1  0
  2 20  1  0
 20 21  2  0
 21 22  1  0
 22 23  2  0
 23 24  1  0
 24 25  2  0
 25 26  1  0
 25 27  1  0
 27 28  2  0
 28 29  1  0
 29 30  2  0
 13  7  1  0
 19 14  1  0
 30 20  1  0
 29 23  1  0
  3 31  1  0
  4 32  1  0
  4 33  1  0
  8 34  1  0
  8 35  1  0
  9 36  1  0
  9 37  1  0
 10 38  1  0
 10 39  1  0
 11 40  1  0
 11 41  1  0
 12 42  1  0
 12 43  1  0
 13 44  1  1
 14 45  1  0
 15 46  1  0
 15 47  1  0
 16 48  1  0
 16 49  1  0
 17 50  1  0
 17 51  1  0
 18 52  1  0
 18 53  1  0
 19 54  1  0
 19 55  1  0
 21 56  1  0
 22 57  1  0
 24 58  1  0
 27 59  1  0
 28 60  1  0
M  END
>  <smiles>  (69) 
O=C(NCC(=O)N1CCCCCC1C1CCCCC1)c1ccc2cc(Cl)ccc2n1

>  <score_type>  (69) 
oracle

>  <origin>  (69) 
autodockgpu

>  <m_score__min__energy>  (69) 
-6.6600000000000001

>  <m_primary>  (69) 
energy

>  <rmsd>  (69) 
2.0208166140788784

>  <m_score__min__rmsd>  (69) 
2.0208166140788784

>  <meeko>  (69) 
{"free_energy": -5.93, "intermolecular_energy": -9.21, "internal_energy": -2.01, "cluster_size": 30, "cluster_id": 1, "rank_in_cluster": 10}

>  <energy>  (69) 
-5.53

>  <cluster_rmsd>  (69) 
0.84

>  <cluster>  (69) 
1

$$$$

     RDKit          3D

 60 63  0  0  0  0  0  0  0  0999 V2000
  139.3880   72.6610  220.7450 O   0  0  0  0  0  0  0  0  0  0  0  0
  139.3800   73.0210  221.9490 C   0  0  0  0  0  0  0  0  0  0  0  0
  139.1890   74.3670  222.3680 N   0  0  0  0  0  0  0  0  0  0  0  0
  138.9870   75.4270  221.3990 C   0  0  0  0  0  0  0  0  0  0  0  0
  138.2910   76.5250  222.0600 C   0  0  0  0  0  0  0  0  0  0  0  0
  138.1380   76.4490  223.3220 O   0  0  0  0  0  0  0  0  0  0  0  0
  137.7720   77.6850  221.3370 N   0  0  0  0  0  0  0  0  0  0  0  0
  136.4020   77.4550  220.9530 C   0  0  0  0  0  0  0  0  0  0  0  0
  135.5070   78.6010  221.3180 C   0  0  0  0  0  0  0  0  0  0  0  0
  135.8840   79.7610  220.4200 C   0  0  0  0  0  0  0  0  0  0  0  0
  136.9390   80.5800  221.1510 C   0  0  0  0  0  0  0  0  0  0  0  0
  138.3110   80.0940  220.9400 C   0  0  0  0  0  0  0  0  0  0  0  0
  138.7310   78.7340  221.2030 C   0  0  1  0  0  0  0  0  0  0  0  0
  139.8700   78.5290  222.2160 C   0  0  0  0  0  0  0  0  0  0  0  0
  139.8340   79.3900  223.4110 C   0  0  0  0  0  0  0  0  0  0  0  0
  140.6540   80.6440  223.3220 C   0  0  0  0  0  0  0  0  0  0  0  0
  142.0780   80.2230  223.0850 C   0  0  0  0  0  0  0  0  0  0  0  0
  142.1750   79.5010  221.7830 C   0  0  0  0  0  0  0  0  0  0  0  0
  141.2120   78.4020  221.5600 C   0  0  0  0  0  0  0  0  0  0  0  0
  139.5790   71.9980  222.9880 C   0  0  0  0  0  0  0  0  0  0  0  0
  139.1470   70.7010  222.7940 C   0  0  0  0  0  0  0  0  0  0  0  0
  139.2980   69.6970  223.7150 C   0  0  0  0  0  0  0  0  0  0  0  0
  139.9220   70.0200  224.9060 C   0  0  0  0  0  0  0  0  0  0  0  0
  140.0940   69.0370  225.8600 C   0  0  0  0  0  0  0  0  0  0  0  0
  140.7140   69.3900  227.0260 C   0  0  0  0  0  0  0  0  0  0  0  0
  140.9370   68.1520  228.2440 Cl  0  0  0  0  0  0  0  0  0  0  0  0
  141.1490   70.6920  227.2260 C   0  0  0  0  0  0  0  0  0  0  0  0
  140.9760   71.6830  226.2660 C   0  0  0  0  0  0  0  0  0  0  0  0
  140.3420   71.3220  225.0730 C   0  0  0  0  0  0  0  0  0  0  0  0
  140.1780   72.2800  224.1490 N   0  0  0  0  0  0  0  0  0  0  0  0
  139.1930   74.6070  223.3970 H   0  0  0  0  0  0  0  0  0  0  0  0
  139.9594   75.7764  221.0218 H   0  0  0  0  0  0  0  0  0  0  0  0
  138.3921   75.0570  220.5509 H   0  0  0  0  0  0  0  0  0  0  0  0
  136.3603   77.3070  219.8638 H   0  0  0  0  0  0  0  0  0  0  0  0
  136.0464   76.5657  221.4940 H   0  0  0  0  0  0  0  0  0  0  0  0
  134.4546   78.3247  221.1564 H   0  0  0  0  0  0  0  0  0  0  0  0
  135.6265   78.8702  222.3778 H   0  0  0  0  0  0  0  0  0  0  0  0
  136.2921   79.3841  219.4706 H   0  0  0  0  0  0  0  0  0  0  0  0
  135.0023   80.3783  220.1929 H   0  0  0  0  0  0  0  0  0  0  0  0
  136.8798   81.6196  220.7964 H   0  0  0  0  0  0  0  0  0  0  0  0
  136.7273   80.4927  222.2269 H   0  0  0  0  0  0  0  0  0  0  0  0
  138.5333   80.2761  219.8782 H   0  0  0  0  0  0  0  0  0  0  0  0
  138.8527   80.6393  221.7269 H   0  0  0  0  0  0  0  0  0  0  0  0
  139.1260   78.6064  220.1843 H   0  0  0  0  0  0  0  0  0  0  0  0
  139.6672   77.5432  222.6600 H   0  0  0  0  0  0  0  0  0  0  0  0
  138.7880   79.6797  223.5899 H   0  0  0  0  0  0  0  0  0  0  0  0
  140.2723   78.7968  224.2271 H   0  0  0  0  0  0  0  0  0  0  0  0
  140.3008   81.2678  222.4877 H   0  0  0  0  0  0  0  0  0  0  0  0
  140.5683   81.2352  224.2457 H   0  0  0  0  0  0  0  0  0  0  0  0
  142.7237   81.1132  223.0593 H   0  0  0  0  0  0  0  0  0  0  0  0
  142.4027   79.5568  223.8979 H   0  0  0  0  0  0  0  0  0  0  0  0
  142.0297   80.2394  220.9808 H   0  0  0  0  0  0  0  0  0  0  0  0
  143.1646   79.0209  221.7917 H   0  0  0  0  0  0  0  0  0  0  0  0
  141.0450   78.3221  220.4757 H   0  0  0  0  0  0  0  0  0  0  0  0
  141.6744   77.5186  222.0245 H   0  0  0  0  0  0  0  0  0  0  0  0
  138.6514   70.4586  221.8423 H   0  0  0  0  0  0  0  0  0  0  0  0
  138.9379   68.6770  223.5150 H   0  0  0  0  0  0  0  0  0  0  0  0
  139.7451   68.0080  225.6882 H   0  0  0  0  0  0  0  0  0  0  0  0
  141.6461   70.9484  228.1732 H   0  0  0  0  0  0  0  0  0  0  0  0
  141.3246   72.7119  226.4385 H   0  0  0  0  0  0  0  0  0  0  0  0
  1  2  2  0
  2  3  1  0
  3  4  1  0
  4  5  1  0
  5  6  2  0
  5  7  1  0
  7  8  1  0
  8  9  1  0
  9 10  1  0
 10 11  1  0
 11 12  1  0
 12 13  1  0
 13 14  1  0
 14 15  1  0
 15 16  1  0
 16 17  1  0
 17 18  1  0
 18 19  1  0
  2 20  1  0
 20 21  2  0
 21 22  1  0
 22 23  2  0
 23 24  1  0
 24 25  2  0
 25 26  1  0
 25 27  1  0
 27 28  2  0
 28 29  1  0
 29 30  2  0
 13  7  1  0
 19 14  1  0
 30 20  1  0
 29 23  1  0
  3 31  1  0
  4 32  1  0
  4 33  1  0
  8 34  1  0
  8 35  1  0
  9 36  1  0
  9 37  1  0
 10 38  1  0
 10 39  1  0
 11 40  1  0
 11 41  1  0
 12 42  1  0
 12 43  1  0
 13 44  1  6
 14 45  1  0
 15 46  1  0
 15 47  1  0
 16 48  1  0
 16 49  1  0
 17 50  1  0
 17 51  1  0
 18 52  1  0
 18 53  1  0
 19 54  1  0
 19 55  1  0
 21 56  1  0
 22 57  1  0
 24 58  1  0
 27 59  1  0
 28 60  1  0
M  END
>  <smiles>  (70) 
O=C(NCC(=O)N1CCCCCC1C1CCCCC1)c1ccc2cc(Cl)ccc2n1

>  <score_type>  (70) 
oracle

>  <origin>  (70) 
autodockgpu

>  <m_score__min__energy>  (70) 
-6.6600000000000001

>  <m_primary>  (70) 
energy

>  <rmsd>  (70) 
3.2391398519335737

>  <m_score__min__rmsd>  (70) 
3.2391398519335737

>  <meeko>  (70) 
{"free_energy": -5.11, "intermolecular_energy": -8.39, "internal_energy": -2.37, "cluster_size": 4, "cluster_id": 2, "rank_in_cluster": 3}

>  <energy>  (70) 
-5.46

>  <cluster_rmsd>  (70) 
0.9

>  <cluster>  (70) 
1

$$$$

     RDKit          3D

 60 63  0  0  0  0  0  0  0  0999 V2000
  138.8910   71.4870  221.0420 O   0  0  0  0  0  0  0  0  0  0  0  0
  139.2290   72.0580  222.1100 C   0  0  0  0  0  0  0  0  0  0  0  0
  139.3730   73.4670  222.2390 N   0  0  0  0  0  0  0  0  0  0  0  0
  139.1290   74.3460  221.1120 C   0  0  0  0  0  0  0  0  0  0  0  0
  139.9490   73.8950  219.9930 C   0  0  0  0  0  0  0  0  0  0  0  0
  139.3520   73.6180  218.9020 O   0  0  0  0  0  0  0  0  0  0  0  0
  141.4000   73.7530  220.0790 N   0  0  0  0  0  0  0  0  0  0  0  0
  141.7860   72.4070  219.7330 C   0  0  0  0  0  0  0  0  0  0  0  0
  143.0880   72.0080  220.3590 C   0  0  0  0  0  0  0  0  0  0  0  0
  144.1760   72.7930  219.6580 C   0  0  0  0  0  0  0  0  0  0  0  0
  144.4560   74.0350  220.4930 C   0  0  0  0  0  0  0  0  0  0  0  0
  143.4860   75.1170  220.2900 C   0  0  0  0  0  0  0  0  0  0  0  0
  142.0580   74.9580  220.4700 C   0  0  1  0  0  0  0  0  0  0  0  0
  141.1660   76.1670  220.1410 C   0  0  0  0  0  0  0  0  0  0  0  0
  141.4070   76.8130  218.8390 C   0  0  0  0  0  0  0  0  0  0  0  0
  142.3340   77.9920  218.8710 C   0  0  0  0  0  0  0  0  0  0  0  0
  141.7230   79.0070  219.7970 C   0  0  0  0  0  0  0  0  0  0  0  0
  141.6340   78.4380  221.1730 C   0  0  0  0  0  0  0  0  0  0  0  0
  141.0100   77.1050  221.3010 C   0  0  0  0  0  0  0  0  0  0  0  0
  139.4930   71.2270  223.2950 C   0  0  0  0  0  0  0  0  0  0  0  0
  139.1500   69.8890  223.3120 C   0  0  0  0  0  0  0  0  0  0  0  0
  139.3650   69.0560  224.3780 C   0  0  0  0  0  0  0  0  0  0  0  0
  139.9620   69.6030  225.4990 C   0  0  0  0  0  0  0  0  0  0  0  0
  140.1960   68.7970  226.5950 C   0  0  0  0  0  0  0  0  0  0  0  0
  140.7880   69.3710  227.6850 C   0  0  0  0  0  0  0  0  0  0  0  0
  141.0900   68.3580  229.0820 Cl  0  0  0  0  0  0  0  0  0  0  0  0
  141.1350   70.7130  227.6750 C   0  0  0  0  0  0  0  0  0  0  0  0
  140.8990   71.5260  226.5720 C   0  0  0  0  0  0  0  0  0  0  0  0
  140.2940   70.9400  225.4560 C   0  0  0  0  0  0  0  0  0  0  0  0
  140.0690   71.7280  224.3930 N   0  0  0  0  0  0  0  0  0  0  0  0
  139.6620   73.8870  223.1640 H   0  0  0  0  0  0  0  0  0  0  0  0
  138.0656   74.3069  220.8333 H   0  0  0  0  0  0  0  0  0  0  0  0
  139.3865   75.3821  221.3770 H   0  0  0  0  0  0  0  0  0  0  0  0
  141.0024   71.7154  220.0760 H   0  0  0  0  0  0  0  0  0  0  0  0
  141.9114   72.3639  218.6410 H   0  0  0  0  0  0  0  0  0  0  0  0
  143.0804   72.2488  221.4323 H   0  0  0  0  0  0  0  0  0  0  0  0
  143.2571   70.9259  220.2566 H   0  0  0  0  0  0  0  0  0  0  0  0
  145.0870   72.1819  219.5770 H   0  0  0  0  0  0  0  0  0  0  0  0
  143.8584   73.0728  218.6427 H   0  0  0  0  0  0  0  0  0  0  0  0
  144.4397   73.7496  221.5552 H   0  0  0  0  0  0  0  0  0  0  0  0
  145.4361   74.4201  220.1751 H   0  0  0  0  0  0  0  0  0  0  0  0
  143.7870   75.9224  220.9761 H   0  0  0  0  0  0  0  0  0  0  0  0
  143.5491   75.2584  219.2009 H   0  0  0  0  0  0  0  0  0  0  0  0
  142.1556   74.8657  221.5618 H   0  0  0  0  0  0  0  0  0  0  0  0
  140.1680   75.7335  219.9794 H   0  0  0  0  0  0  0  0  0  0  0  0
  141.8366   76.0611  218.1607 H   0  0  0  0  0  0  0  0  0  0  0  0
  140.4328   77.2006  218.5064 H   0  0  0  0  0  0  0  0  0  0  0  0
  143.3219   77.6856  219.2453 H   0  0  0  0  0  0  0  0  0  0  0  0
  142.4700   78.4118  217.8634 H   0  0  0  0  0  0  0  0  0  0  0  0
  142.3495   79.9110  219.8143 H   0  0  0  0  0  0  0  0  0  0  0  0
  140.7144   79.2654  219.4421 H   0  0  0  0  0  0  0  0  0  0  0  0
  142.6570   78.3667  221.5709 H   0  0  0  0  0  0  0  0  0  0  0  0
  140.9724   79.1211  221.7259 H   0  0  0  0  0  0  0  0  0  0  0  0
  141.4480   76.6168  222.1840 H   0  0  0  0  0  0  0  0  0  0  0  0
  139.9295   77.3001  221.3679 H   0  0  0  0  0  0  0  0  0  0  0  0
  138.6750   69.4665  222.4143 H   0  0  0  0  0  0  0  0  0  0  0  0
  139.0747   67.9956  224.3437 H   0  0  0  0  0  0  0  0  0  0  0  0
  139.9166   67.7331  226.5912 H   0  0  0  0  0  0  0  0  0  0  0  0
  141.6112   71.1477  228.5662 H   0  0  0  0  0  0  0  0  0  0  0  0
  141.1778   72.5901  226.5772 H   0  0  0  0  0  0  0  0  0  0  0  0
  1  2  2  0
  2  3  1  0
  3  4  1  0
  4  5  1  0
  5  6  2  0
  5  7  1  0
  7  8  1  0
  8  9  1  0
  9 10  1  0
 10 11  1  0
 11 12  1  0
 12 13  1  0
 13 14  1  0
 14 15  1  0
 15 16  1  0
 16 17  1  0
 17 18  1  0
 18 19  1  0
  2 20  1  0
 20 21  2  0
 21 22  1  0
 22 23  2  0
 23 24  1  0
 24 25  2  0
 25 26  1  0
 25 27  1  0
 27 28  2  0
 28 29  1  0
 29 30  2  0
 13  7  1  0
 19 14  1  0
 30 20  1  0
 29 23  1  0
  3 31  1  0
  4 32  1  0
  4 33  1  0
  8 34  1  0
  8 35  1  0
  9 36  1  0
  9 37  1  0
 10 38  1  0
 10 39  1  0
 11 40  1  0
 11 41  1  0
 12 42  1  0
 12 43  1  0
 13 44  1  1
 14 45  1  0
 15 46  1  0
 15 47  1  0
 16 48  1  0
 16 49  1  0
 17 50  1  0
 17 51  1  0
 18 52  1  0
 18 53  1  0
 19 54  1  0
 19 55  1  0
 21 56  1  0
 22 57  1  0
 24 58  1  0
 27 59  1  0
 28 60  1  0
M  END
>  <smiles>  (71) 
O=C(NCC(=O)N1CCCCCC1C1CCCCC1)c1ccc2cc(Cl)ccc2n1

>  <score_type>  (71) 
oracle

>  <origin>  (71) 
autodockgpu

>  <m_score__min__energy>  (71) 
-6.6600000000000001

>  <m_primary>  (71) 
energy

>  <rmsd>  (71) 
2.5304631335120944

>  <m_score__min__rmsd>  (71) 
2.5304631335120944

>  <meeko>  (71) 
{"free_energy": -5.55, "intermolecular_energy": -8.83, "internal_energy": -1.99, "cluster_size": 7, "cluster_id": 3, "rank_in_cluster": 3}

>  <energy>  (71) 
-5.46

>  <cluster_rmsd>  (71) 
1.79

>  <cluster>  (71) 
1

$$$$

     RDKit          3D

 60 63  0  0  0  0  0  0  0  0999 V2000
  140.5650   72.4590  220.6680 O   0  0  0  0  0  0  0  0  0  0  0  0
  140.2360   72.8740  221.8090 C   0  0  0  0  0  0  0  0  0  0  0  0
  139.9190   74.2310  222.0920 N   0  0  0  0  0  0  0  0  0  0  0  0
  139.9580   75.2380  221.0500 C   0  0  0  0  0  0  0  0  0  0  0  0
  140.8600   76.3030  221.4750 C   0  0  0  0  0  0  0  0  0  0  0  0
  141.1230   76.3880  222.7180 O   0  0  0  0  0  0  0  0  0  0  0  0
  141.4580   77.2560  220.5420 N   0  0  0  0  0  0  0  0  0  0  0  0
  141.9620   76.5620  219.3830 C   0  0  0  0  0  0  0  0  0  0  0  0
  141.5410   77.2140  218.1000 C   0  0  0  0  0  0  0  0  0  0  0  0
  142.2980   78.5210  217.9990 C   0  0  0  0  0  0  0  0  0  0  0  0
  141.4330   79.6020  218.6340 C   0  0  0  0  0  0  0  0  0  0  0  0
  141.5950   79.7120  220.0890 C   0  0  0  0  0  0  0  0  0  0  0  0
  141.3880   78.6060  221.0010 C   0  0  1  0  0  0  0  0  0  0  0  0
  140.2590   78.7460  222.0350 C   0  0  0  0  0  0  0  0  0  0  0  0
  138.9890   79.3000  221.5340 C   0  0  0  0  0  0  0  0  0  0  0  0
  138.8190   80.7790  221.7170 C   0  0  0  0  0  0  0  0  0  0  0  0
  138.9050   81.0530  223.1930 C   0  0  0  0  0  0  0  0  0  0  0  0
  140.2560   80.6660  223.6950 C   0  0  0  0  0  0  0  0  0  0  0  0
  140.7340   79.3140  223.3390 C   0  0  0  0  0  0  0  0  0  0  0  0
  140.1750   71.9070  222.9160 C   0  0  0  0  0  0  0  0  0  0  0  0
  139.5820   70.6710  222.7430 C   0  0  0  0  0  0  0  0  0  0  0  0
  139.4890   69.7220  223.7270 C   0  0  0  0  0  0  0  0  0  0  0  0
  140.0260   70.0360  224.9620 C   0  0  0  0  0  0  0  0  0  0  0  0
  139.9520   69.1060  225.9800 C   0  0  0  0  0  0  0  0  0  0  0  0
  140.4930   69.4490  227.1880 C   0  0  0  0  0  0  0  0  0  0  0  0
  140.4050   68.2780  228.4870 Cl  0  0  0  0  0  0  0  0  0  0  0  0
  141.0890   70.6880  227.3670 C   0  0  0  0  0  0  0  0  0  0  0  0
  141.1630   71.6250  226.3430 C   0  0  0  0  0  0  0  0  0  0  0  0
  140.6110   71.2750  225.1070 C   0  0  0  0  0  0  0  0  0  0  0  0
  140.6850   72.1820  224.1200 N   0  0  0  0  0  0  0  0  0  0  0  0
  139.6500   74.5190  223.0730 H   0  0  0  0  0  0  0  0  0  0  0  0
  140.3252   74.7910  220.1144 H   0  0  0  0  0  0  0  0  0  0  0  0
  138.9499   75.6423  220.8761 H   0  0  0  0  0  0  0  0  0  0  0  0
  143.0610   76.5490  219.4289 H   0  0  0  0  0  0  0  0  0  0  0  0
  141.5467   75.5435  219.3943 H   0  0  0  0  0  0  0  0  0  0  0  0
  141.7907   76.5658  217.2471 H   0  0  0  0  0  0  0  0  0  0  0  0
  140.4548   77.3871  218.0855 H   0  0  0  0  0  0  0  0  0  0  0  0
  143.2552   78.4429  218.5353 H   0  0  0  0  0  0  0  0  0  0  0  0
  142.5121   78.7642  216.9478 H   0  0  0  0  0  0  0  0  0  0  0  0
  141.6984   80.5688  218.1815 H   0  0  0  0  0  0  0  0  0  0  0  0
  140.3851   79.3237  218.4485 H   0  0  0  0  0  0  0  0  0  0  0  0
  142.6301   80.0468  220.2521 H   0  0  0  0  0  0  0  0  0  0  0  0
  140.7512   80.3674  220.3506 H   0  0  0  0  0  0  0  0  0  0  0  0
  142.3558   78.7683  221.4980 H   0  0  0  0  0  0  0  0  0  0  0  0
  139.9638   77.7101  222.2582 H   0  0  0  0  0  0  0  0  0  0  0  0
  138.9235   79.0808  220.4580 H   0  0  0  0  0  0  0  0  0  0  0  0
  138.1944   78.8263  222.1291 H   0  0  0  0  0  0  0  0  0  0  0  0
  139.6162   81.3193  221.1855 H   0  0  0  0  0  0  0  0  0  0  0  0
  137.8538   81.1160  221.3111 H   0  0  0  0  0  0  0  0  0  0  0  0
  138.7391   82.1248  223.3769 H   0  0  0  0  0  0  0  0  0  0  0  0
  138.1374   80.4665  223.7192 H   0  0  0  0  0  0  0  0  0  0  0  0
  140.9803   81.3914  223.2959 H   0  0  0  0  0  0  0  0  0  0  0  0
  140.1667   80.6616  224.7914 H   0  0  0  0  0  0  0  0  0  0  0  0
  141.8329   79.3486  223.3053 H   0  0  0  0  0  0  0  0  0  0  0  0
  140.3146   78.6504  224.1096 H   0  0  0  0  0  0  0  0  0  0  0  0
  139.1590   70.4346  221.7555 H   0  0  0  0  0  0  0  0  0  0  0  0
  139.0071   68.7506  223.5422 H   0  0  0  0  0  0  0  0  0  0  0  0
  139.4760   68.1265  225.8250 H   0  0  0  0  0  0  0  0  0  0  0  0
  141.5164   70.9371  228.3495 H   0  0  0  0  0  0  0  0  0  0  0  0
  141.6379   72.6048  226.4991 H   0  0  0  0  0  0  0  0  0  0  0  0
  1  2  2  0
  2  3  1  0
  3  4  1  0
  4  5  1  0
  5  6  2  0
  5  7  1  0
  7  8  1  0
  8  9  1  0
  9 10  1  0
 10 11  1  0
 11 12  1  0
 12 13  1  0
 13 14  1  0
 14 15  1  0
 15 16  1  0
 16 17  1  0
 17 18  1  0
 18 19  1  0
  2 20  1  0
 20 21  2  0
 21 22  1  0
 22 23  2  0
 23 24  1  0
 24 25  2  0
 25 26  1  0
 25 27  1  0
 27 28  2  0
 28 29  1  0
 29 30  2  0
 13  7  1  0
 19 14  1  0
 30 20  1  0
 29 23  1  0
  3 31  1  0
  4 32  1  0
  4 33  1  0
  8 34  1  0
  8 35  1  0
  9 36  1  0
  9 37  1  0
 10 38  1  0
 10 39  1  0
 11 40  1  0
 11 41  1  0
 12 42  1  0
 12 43  1  0
 13 44  1  1
 14 45  1  0
 15 46  1  0
 15 47  1  0
 16 48  1  0
 16 49  1  0
 17 50  1  0
 17 51  1  0
 18 52  1  0
 18 53  1  0
 19 54  1  0
 19 55  1  0
 21 56  1  0
 22 57  1  0
 24 58  1  0
 27 59  1  0
 28 60  1  0
M  END
>  <smiles>  (72) 
O=C(NCC(=O)N1CCCCCC1C1CCCCC1)c1ccc2cc(Cl)ccc2n1

>  <score_type>  (72) 
oracle

>  <origin>  (72) 
autodockgpu

>  <m_score__min__energy>  (72) 
-6.6600000000000001

>  <m_primary>  (72) 
energy

>  <rmsd>  (72) 
2.2585585904120777

>  <m_score__min__rmsd>  (72) 
2.2585585904120777

>  <meeko>  (72) 
{"free_energy": -6.03, "intermolecular_energy": -9.31, "internal_energy": -1.84, "cluster_size": 30, "cluster_id": 1, "rank_in_cluster": 8}

>  <energy>  (72) 
-5.45

>  <cluster_rmsd>  (72) 
1.86

>  <cluster>  (72) 
1

$$$$

     RDKit          3D

 60 63  0  0  0  0  0  0  0  0999 V2000
  138.6540   72.3050  220.7570 O   0  0  0  0  0  0  0  0  0  0  0  0
  139.4850   72.6100  221.6500 C   0  0  0  0  0  0  0  0  0  0  0  0
  140.3010   73.7730  221.6030 N   0  0  0  0  0  0  0  0  0  0  0  0
  140.2160   74.6980  220.4880 C   0  0  0  0  0  0  0  0  0  0  0  0
  141.3910   75.5610  220.5180 C   0  0  0  0  0  0  0  0  0  0  0  0
  142.4000   75.1570  221.1840 O   0  0  0  0  0  0  0  0  0  0  0  0
  141.4490   76.8470  219.8260 N   0  0  0  0  0  0  0  0  0  0  0  0
  141.2060   76.6610  218.4170 C   0  0  0  0  0  0  0  0  0  0  0  0
  142.0410   77.5710  217.5690 C   0  0  0  0  0  0  0  0  0  0  0  0
  141.4820   78.9680  217.7350 C   0  0  0  0  0  0  0  0  0  0  0  0
  142.2590   79.6420  218.8570 C   0  0  0  0  0  0  0  0  0  0  0  0
  141.7810   79.2970  220.1990 C   0  0  0  0  0  0  0  0  0  0  0  0
  141.7190   77.9410  220.7020 C   0  0  1  0  0  0  0  0  0  0  0  0
  141.0070   77.7190  222.0470 C   0  0  0  0  0  0  0  0  0  0  0  0
  139.5360   77.7990  222.0200 C   0  0  0  0  0  0  0  0  0  0  0  0
  138.9610   79.1390  222.3740 C   0  0  0  0  0  0  0  0  0  0  0  0
  139.4280   79.4640  223.7660 C   0  0  0  0  0  0  0  0  0  0  0  0
  140.9150   79.5680  223.7830 C   0  0  0  0  0  0  0  0  0  0  0  0
  141.6670   78.4480  223.1790 C   0  0  0  0  0  0  0  0  0  0  0  0
  139.6240   71.7170  222.8110 C   0  0  0  0  0  0  0  0  0  0  0  0
  139.0580   70.4580  222.8070 C   0  0  0  0  0  0  0  0  0  0  0  0
  139.1470   69.5740  223.8500 C   0  0  0  0  0  0  0  0  0  0  0  0
  139.8500   69.9830  224.9680 C   0  0  0  0  0  0  0  0  0  0  0  0
  139.9630   69.1220  226.0410 C   0  0  0  0  0  0  0  0  0  0  0  0
  140.6650   69.5590  227.1300 C   0  0  0  0  0  0  0  0  0  0  0  0
  140.8140   68.4750  228.4980 Cl  0  0  0  0  0  0  0  0  0  0  0  0
  141.2350   70.8220  227.1400 C   0  0  0  0  0  0  0  0  0  0  0  0
  141.1220   71.6910  226.0600 C   0  0  0  0  0  0  0  0  0  0  0  0
  140.4050   71.2450  224.9460 C   0  0  0  0  0  0  0  0  0  0  0  0
  140.2980   72.0850  223.9060 N   0  0  0  0  0  0  0  0  0  0  0  0
  140.9820   73.9740  222.3850 H   0  0  0  0  0  0  0  0  0  0  0  0
  140.1899   74.1381  219.5415 H   0  0  0  0  0  0  0  0  0  0  0  0
  139.3001   75.3022  220.5660 H   0  0  0  0  0  0  0  0  0  0  0  0
  141.4392   75.6190  218.1527 H   0  0  0  0  0  0  0  0  0  0  0  0
  140.1494   76.8986  218.2244 H   0  0  0  0  0  0  0  0  0  0  0  0
  143.0890   77.5415  217.9020 H   0  0  0  0  0  0  0  0  0  0  0  0
  142.0129   77.2599  216.5143 H   0  0  0  0  0  0  0  0  0  0  0  0
  141.6044   79.5349  216.8003 H   0  0  0  0  0  0  0  0  0  0  0  0
  140.4093   78.9298  217.9756 H   0  0  0  0  0  0  0  0  0  0  0  0
  143.3142   79.3416  218.7770 H   0  0  0  0  0  0  0  0  0  0  0  0
  142.1192   80.7264  218.7365 H   0  0  0  0  0  0  0  0  0  0  0  0
  142.4269   79.8477  220.8987 H   0  0  0  0  0  0  0  0  0  0  0  0
  140.7122   79.5435  220.1155 H   0  0  0  0  0  0  0  0  0  0  0  0
  142.8071   77.8948  220.8568 H   0  0  0  0  0  0  0  0  0  0  0  0
  141.1556   76.6505  222.2622 H   0  0  0  0  0  0  0  0  0  0  0  0
  139.2001   77.5424  221.0045 H   0  0  0  0  0  0  0  0  0  0  0  0
  139.1788   77.1009  222.7914 H   0  0  0  0  0  0  0  0  0  0  0  0
  139.3191   79.9023  221.6675 H   0  0  0  0  0  0  0  0  0  0  0  0
  137.8623   79.1207  222.3228 H   0  0  0  0  0  0  0  0  0  0  0  0
  138.9904   80.4215  224.0848 H   0  0  0  0  0  0  0  0  0  0  0  0
  139.1096   78.6666  224.4536 H   0  0  0  0  0  0  0  0  0  0  0  0
  141.1909   80.4848  223.2415 H   0  0  0  0  0  0  0  0  0  0  0  0
  141.1925   79.5610  224.8474 H   0  0  0  0  0  0  0  0  0  0  0  0
  142.6193   78.8512  222.8041 H   0  0  0  0  0  0  0  0  0  0  0  0
  141.7642   77.7024  223.9819 H   0  0  0  0  0  0  0  0  0  0  0  0
  138.5013   70.1452  221.9114 H   0  0  0  0  0  0  0  0  0  0  0  0
  138.6785   68.5800  223.7999 H   0  0  0  0  0  0  0  0  0  0  0  0
  139.5055   68.1219  226.0208 H   0  0  0  0  0  0  0  0  0  0  0  0
  141.7942   71.1474  228.0296 H   0  0  0  0  0  0  0  0  0  0  0  0
  141.5794   72.6912  226.0816 H   0  0  0  0  0  0  0  0  0  0  0  0
  1  2  2  0
  2  3  1  0
  3  4  1  0
  4  5  1  0
  5  6  2  0
  5  7  1  0
  7  8  1  0
  8  9  1  0
  9 10  1  0
 10 11  1  0
 11 12  1  0
 12 13  1  0
 13 14  1  0
 14 15  1  0
 15 16  1  0
 16 17  1  0
 17 18  1  0
 18 19  1  0
  2 20  1  0
 20 21  2  0
 21 22  1  0
 22 23  2  0
 23 24  1  0
 24 25  2  0
 25 26  1  0
 25 27  1  0
 27 28  2  0
 28 29  1  0
 29 30  2  0
 13  7  1  0
 19 14  1  0
 30 20  1  0
 29 23  1  0
  3 31  1  0
  4 32  1  0
  4 33  1  0
  8 34  1  0
  8 35  1  0
  9 36  1  0
  9 37  1  0
 10 38  1  0
 10 39  1  0
 11 40  1  0
 11 41  1  0
 12 42  1  0
 12 43  1  0
 13 44  1  1
 14 45  1  0
 15 46  1  0
 15 47  1  0
 16 48  1  0
 16 49  1  0
 17 50  1  0
 17 51  1  0
 18 52  1  0
 18 53  1  0
 19 54  1  0
 19 55  1  0
 21 56  1  0
 22 57  1  0
 24 58  1  0
 27 59  1  0
 28 60  1  0
M  END
>  <smiles>  (73) 
O=C(NCC(=O)N1CCCCCC1C1CCCCC1)c1ccc2cc(Cl)ccc2n1

>  <score_type>  (73) 
oracle

>  <origin>  (73) 
autodockgpu

>  <m_score__min__energy>  (73) 
-6.6600000000000001

>  <m_primary>  (73) 
energy

>  <rmsd>  (73) 
2.0888382997735597

>  <m_score__min__rmsd>  (73) 
2.0888382997735597

>  <meeko>  (73) 
{"free_energy": -5.75, "intermolecular_energy": -9.03, "internal_energy": -2.5, "cluster_size": 30, "cluster_id": 1, "rank_in_cluster": 12}

>  <energy>  (73) 
-5.28

>  <cluster_rmsd>  (73) 
1.51

>  <cluster>  (73) 
1

$$$$

     RDKit          3D

 60 63  0  0  0  0  0  0  0  0999 V2000
  139.5890   75.9490  222.6870 O   0  0  0  0  0  0  0  0  0  0  0  0
  140.3070   76.0710  221.6620 C   0  0  0  0  0  0  0  0  0  0  0  0
  140.3080   77.2260  220.8330 N   0  0  0  0  0  0  0  0  0  0  0  0
  139.4560   78.3600  221.1360 C   0  0  0  0  0  0  0  0  0  0  0  0
  140.0720   79.5580  220.5760 C   0  0  0  0  0  0  0  0  0  0  0  0
  140.9960   79.3950  219.7140 O   0  0  0  0  0  0  0  0  0  0  0  0
  139.6750   80.9100  220.9640 N   0  0  0  0  0  0  0  0  0  0  0  0
  138.2390   81.0360  220.9130 C   0  0  0  0  0  0  0  0  0  0  0  0
  137.8000   82.2430  220.1400 C   0  0  0  0  0  0  0  0  0  0  0  0
  138.3040   83.4570  220.8910 C   0  0  0  0  0  0  0  0  0  0  0  0
  139.6590   83.8290  220.3040 C   0  0  0  0  0  0  0  0  0  0  0  0
  140.7850   83.1510  220.9490 C   0  0  0  0  0  0  0  0  0  0  0  0
  140.7840   81.7450  221.2960 C   0  0  1  0  0  0  0  0  0  0  0  0
  141.3290   81.3590  222.6810 C   0  0  0  0  0  0  0  0  0  0  0  0
  142.6180   80.6460  222.6920 C   0  0  0  0  0  0  0  0  0  0  0  0
  142.5210   79.1490  222.7380 C   0  0  0  0  0  0  0  0  0  0  0  0
  141.7730   78.7950  223.9940 C   0  0  0  0  0  0  0  0  0  0  0  0
  140.3930   79.3570  223.9280 C   0  0  0  0  0  0  0  0  0  0  0  0
  140.2750   80.7880  223.5810 C   0  0  0  0  0  0  0  0  0  0  0  0
  141.1960   74.9580  221.2940 C   0  0  0  0  0  0  0  0  0  0  0  0
  140.8240   73.6480  221.5260 C   0  0  0  0  0  0  0  0  0  0  0  0
  141.6000   72.5640  221.2100 C   0  0  0  0  0  0  0  0  0  0  0  0
  142.8270   72.8130  220.6240 C   0  0  0  0  0  0  0  0  0  0  0  0
  143.6390   71.7470  220.2910 C   0  0  0  0  0  0  0  0  0  0  0  0
  144.8460   72.0290  219.7130 C   0  0  0  0  0  0  0  0  0  0  0  0
  145.8840   70.6850  219.2870 Cl  0  0  0  0  0  0  0  0  0  0  0  0
  145.2250   73.3420  219.4790 C   0  0  0  0  0  0  0  0  0  0  0  0
  144.4090   74.4160  219.8140 C   0  0  0  0  0  0  0  0  0  0  0  0
  143.1740   74.1290  220.4040 C   0  0  0  0  0  0  0  0  0  0  0  0
  142.3890   75.1680  220.7270 N   0  0  0  0  0  0  0  0  0  0  0  0
  140.9340   77.2680  219.9830 H   0  0  0  0  0  0  0  0  0  0  0  0
  138.4625   78.2088  220.6888 H   0  0  0  0  0  0  0  0  0  0  0  0
  139.3400   78.4669  222.2246 H   0  0  0  0  0  0  0  0  0  0  0  0
  137.8221   80.1381  220.4334 H   0  0  0  0  0  0  0  0  0  0  0  0
  137.8745   81.1468  221.9449 H   0  0  0  0  0  0  0  0  0  0  0  0
  138.2295   82.2200  219.1276 H   0  0  0  0  0  0  0  0  0  0  0  0
  136.7047   82.2691  220.0415 H   0  0  0  0  0  0  0  0  0  0  0  0
  137.5997   84.2931  220.7691 H   0  0  0  0  0  0  0  0  0  0  0  0
  138.3943   83.2379  221.9652 H   0  0  0  0  0  0  0  0  0  0  0  0
  139.6596   83.5645  219.2363 H   0  0  0  0  0  0  0  0  0  0  0  0
  139.7958   84.9080  220.4686 H   0  0  0  0  0  0  0  0  0  0  0  0
  141.6449   83.2935  220.2779 H   0  0  0  0  0  0  0  0  0  0  0  0
  140.7703   83.6159  221.9458 H   0  0  0  0  0  0  0  0  0  0  0  0
  141.5370   81.5043  220.5311 H   0  0  0  0  0  0  0  0  0  0  0  0
  141.6141   82.3179  223.1385 H   0  0  0  0  0  0  0  0  0  0  0  0
  143.1678   80.9233  221.7805 H   0  0  0  0  0  0  0  0  0  0  0  0
  143.1250   80.9473  223.6205 H   0  0  0  0  0  0  0  0  0  0  0  0
  141.9765   78.7785  221.8570 H   0  0  0  0  0  0  0  0  0  0  0  0
  143.5209   78.6906  222.7343 H   0  0  0  0  0  0  0  0  0  0  0  0
  141.7186   77.7007  224.0919 H   0  0  0  0  0  0  0  0  0  0  0  0
  142.2984   79.2161  224.8638 H   0  0  0  0  0  0  0  0  0  0  0  0
  139.8355   78.7838  223.1725 H   0  0  0  0  0  0  0  0  0  0  0  0
  139.9981   79.2743  224.9513 H   0  0  0  0  0  0  0  0  0  0  0  0
  139.3031   80.9304  223.0859 H   0  0  0  0  0  0  0  0  0  0  0  0
  140.3925   81.3238  224.5344 H   0  0  0  0  0  0  0  0  0  0  0  0
  139.8451   73.4640  221.9929 H   0  0  0  0  0  0  0  0  0  0  0  0
  141.2606   71.5378  221.4142 H   0  0  0  0  0  0  0  0  0  0  0  0
  143.3268   70.7099  220.4834 H   0  0  0  0  0  0  0  0  0  0  0  0
  146.2019   73.5398  219.0137 H   0  0  0  0  0  0  0  0  0  0  0  0
  144.7227   75.4527  219.6223 H   0  0  0  0  0  0  0  0  0  0  0  0
  1  2  2  0
  2  3  1  0
  3  4  1  0
  4  5  1  0
  5  6  2  0
  5  7  1  0
  7  8  1  0
  8  9  1  0
  9 10  1  0
 10 11  1  0
 11 12  1  0
 12 13  1  0
 13 14  1  0
 14 15  1  0
 15 16  1  0
 16 17  1  0
 17 18  1  0
 18 19  1  0
  2 20  1  0
 20 21  2  0
 21 22  1  0
 22 23  2  0
 23 24  1  0
 24 25  2  0
 25 26  1  0
 25 27  1  0
 27 28  2  0
 28 29  1  0
 29 30  2  0
 13  7  1  0
 19 14  1  0
 30 20  1  0
 29 23  1  0
  3 31  1  0
  4 32  1  0
  4 33  1  0
  8 34  1  0
  8 35  1  0
  9 36  1  0
  9 37  1  0
 10 38  1  0
 10 39  1  0
 11 40  1  0
 11 41  1  0
 12 42  1  0
 12 43  1  0
 13 44  1  6
 14 45  1  0
 15 46  1  0
 15 47  1  0
 16 48  1  0
 16 49  1  0
 17 50  1  0
 17 51  1  0
 18 52  1  0
 18 53  1  0
 19 54  1  0
 19 55  1  0
 21 56  1  0
 22 57  1  0
 24 58  1  0
 27 59  1  0
 28 60  1  0
M  END
>  <smiles>  (74) 
O=C(NCC(=O)N1CCCCCC1C1CCCCC1)c1ccc2cc(Cl)ccc2n1

>  <score_type>  (74) 
oracle

>  <origin>  (74) 
autodockgpu

>  <m_score__min__energy>  (74) 
-6.6600000000000001

>  <m_primary>  (74) 
energy

>  <rmsd>  (74) 
6.68700600782824

>  <m_score__min__rmsd>  (74) 
6.68700600782824

>  <meeko>  (74) 
{"free_energy": -4.41, "intermolecular_energy": -7.69, "internal_energy": -2.85, "cluster_size": 2, "cluster_id": 8, "rank_in_cluster": 1}

>  <energy>  (74) 
-5.28

>  <cluster_rmsd>  (74) 
1.55

>  <cluster>  (74) 
1

$$$$

     RDKit          3D

 60 63  0  0  0  0  0  0  0  0999 V2000
  138.8130   71.6740  220.8020 O   0  0  0  0  0  0  0  0  0  0  0  0
  139.4630   72.1180  221.7820 C   0  0  0  0  0  0  0  0  0  0  0  0
  140.0790   73.4000  221.8030 N   0  0  0  0  0  0  0  0  0  0  0  0
  139.9860   74.2890  220.6610 C   0  0  0  0  0  0  0  0  0  0  0  0
  141.0360   75.2940  220.7770 C   0  0  0  0  0  0  0  0  0  0  0  0
  141.3530   75.6810  221.9490 O   0  0  0  0  0  0  0  0  0  0  0  0
  141.7220   75.8620  219.6180 N   0  0  0  0  0  0  0  0  0  0  0  0
  142.1910   77.1910  219.9230 C   0  0  0  0  0  0  0  0  0  0  0  0
  142.5220   77.9770  218.6900 C   0  0  0  0  0  0  0  0  0  0  0  0
  141.3290   77.8720  217.7640 C   0  0  0  0  0  0  0  0  0  0  0  0
  141.6540   76.8150  216.7170 C   0  0  0  0  0  0  0  0  0  0  0  0
  141.4300   75.4390  217.1700 C   0  0  0  0  0  0  0  0  0  0  0  0
  141.7610   74.9730  218.5010 C   0  0  1  0  0  0  0  0  0  0  0  0
  142.9590   74.0190  218.6380 C   0  0  0  0  0  0  0  0  0  0  0  0
  142.6320   72.6020  218.8760 C   0  0  0  0  0  0  0  0  0  0  0  0
  142.6220   72.1800  220.3160 C   0  0  0  0  0  0  0  0  0  0  0  0
  143.9980   72.4470  220.8620 C   0  0  0  0  0  0  0  0  0  0  0  0
  144.2860   73.9090  220.7990 C   0  0  0  0  0  0  0  0  0  0  0  0
  144.0490   74.5770  219.5020 C   0  0  0  0  0  0  0  0  0  0  0  0
  139.5980   71.2690  222.9760 C   0  0  0  0  0  0  0  0  0  0  0  0
  139.1140   69.9760  222.9830 C   0  0  0  0  0  0  0  0  0  0  0  0
  139.2050   69.1300  224.0570 C   0  0  0  0  0  0  0  0  0  0  0  0
  139.8200   69.6150  225.1950 C   0  0  0  0  0  0  0  0  0  0  0  0
  139.9310   68.7940  226.2990 C   0  0  0  0  0  0  0  0  0  0  0  0
  140.5460   69.3060  227.4080 C   0  0  0  0  0  0  0  0  0  0  0  0
  140.6920   68.2730  228.8150 Cl  0  0  0  0  0  0  0  0  0  0  0  0
  141.0330   70.6040  227.4080 C   0  0  0  0  0  0  0  0  0  0  0  0
  140.9220   71.4320  226.2960 C   0  0  0  0  0  0  0  0  0  0  0  0
  140.2940   70.9090  225.1620 C   0  0  0  0  0  0  0  0  0  0  0  0
  140.1880   71.7110  224.0910 N   0  0  0  0  0  0  0  0  0  0  0  0
  140.6130   73.7170  222.6580 H   0  0  0  0  0  0  0  0  0  0  0  0
  140.1204   73.7161  219.7316 H   0  0  0  0  0  0  0  0  0  0  0  0
  138.9986   74.7733  220.6369 H   0  0  0  0  0  0  0  0  0  0  0  0
  141.4065   77.7231  220.4812 H   0  0  0  0  0  0  0  0  0  0  0  0
  143.1122   77.0938  220.5163 H   0  0  0  0  0  0  0  0  0  0  0  0
  142.7059   79.0296  218.9512 H   0  0  0  0  0  0  0  0  0  0  0  0
  143.4293   77.5854  218.2069 H   0  0  0  0  0  0  0  0  0  0  0  0
  140.4364   77.5743  218.3337 H   0  0  0  0  0  0  0  0  0  0  0  0
  141.1234   78.8409  217.2856 H   0  0  0  0  0  0  0  0  0  0  0  0
  141.0222   76.9960  215.8349 H   0  0  0  0  0  0  0  0  0  0  0  0
  142.7275   76.9063  216.4948 H   0  0  0  0  0  0  0  0  0  0  0  0
  140.3531   75.2526  217.0451 H   0  0  0  0  0  0  0  0  0  0  0  0
  142.1633   74.8899  216.5611 H   0  0  0  0  0  0  0  0  0  0  0  0
  140.8283   74.3960  218.5859 H   0  0  0  0  0  0  0  0  0  0  0  0
  143.3861   73.9703  217.6255 H   0  0  0  0  0  0  0  0  0  0  0  0
  141.6330   72.4088  218.4582 H   0  0  0  0  0  0  0  0  0  0  0  0
  143.4311   72.0199  218.3937 H   0  0  0  0  0  0  0  0  0  0  0  0
  141.8743   72.7618  220.8750 H   0  0  0  0  0  0  0  0  0  0  0  0
  142.3615   71.1156  220.4114 H   0  0  0  0  0  0  0  0  0  0  0  0
  144.0491   72.1085  221.9074 H   0  0  0  0  0  0  0  0  0  0  0  0
  144.7414   71.9019  220.2618 H   0  0  0  0  0  0  0  0  0  0  0  0
  143.6543   74.4058  221.5501 H   0  0  0  0  0  0  0  0  0  0  0  0
  145.3678   73.9984  220.9768 H   0  0  0  0  0  0  0  0  0  0  0  0
  143.8016   75.6283  219.7106 H   0  0  0  0  0  0  0  0  0  0  0  0
  144.9749   74.4233  218.9283 H   0  0  0  0  0  0  0  0  0  0  0  0
  138.6256   69.6023  222.0710 H   0  0  0  0  0  0  0  0  0  0  0  0
  138.8047   68.1063  224.0148 H   0  0  0  0  0  0  0  0  0  0  0  0
  139.5394   67.7661  226.2872 H   0  0  0  0  0  0  0  0  0  0  0  0
  141.5218   70.9906  228.3145 H   0  0  0  0  0  0  0  0  0  0  0  0
  141.3137   72.4598  226.3085 H   0  0  0  0  0  0  0  0  0  0  0  0
  1  2  2  0
  2  3  1  0
  3  4  1  0
  4  5  1  0
  5  6  2  0
  5  7  1  0
  7  8  1  0
  8  9  1  0
  9 10  1  0
 10 11  1  0
 11 12  1  0
 12 13  1  0
 13 14  1  0
 14 15  1  0
 15 16  1  0
 16 17  1  0
 17 18  1  0
 18 19  1  0
  2 20  1  0
 20 21  2  0
 21 22  1  0
 22 23  2  0
 23 24  1  0
 24 25  2  0
 25 26  1  0
 25 27  1  0
 27 28  2  0
 28 29  1  0
 29 30  2  0
 13  7  1  0
 19 14  1  0
 30 20  1  0
 29 23  1  0
  3 31  1  0
  4 32  1  0
  4 33  1  0
  8 34  1  0
  8 35  1  0
  9 36  1  0
  9 37  1  0
 10 38  1  0
 10 39  1  0
 11 40  1  0
 11 41  1  0
 12 42  1  0
 12 43  1  0
 13 44  1  1
 14 45  1  0
 15 46  1  0
 15 47  1  0
 16 48  1  0
 16 49  1  0
 17 50  1  0
 17 51  1  0
 18 52  1  0
 18 53  1  0
 19 54  1  0
 19 55  1  0
 21 56  1  0
 22 57  1  0
 24 58  1  0
 27 59  1  0
 28 60  1  0
M  END
>  <smiles>  (75) 
O=C(NCC(=O)N1CCCCCC1C1CCCCC1)c1ccc2cc(Cl)ccc2n1

>  <score_type>  (75) 
oracle

>  <origin>  (75) 
autodockgpu

>  <m_score__min__energy>  (75) 
-6.6600000000000001

>  <m_primary>  (75) 
energy

>  <rmsd>  (75) 
2.3126319593715117

>  <m_score__min__rmsd>  (75) 
2.3126319593715117

>  <meeko>  (75) 
{"free_energy": -4.37, "intermolecular_energy": -7.65, "internal_energy": -3.05, "cluster_size": 7, "cluster_id": 3, "rank_in_cluster": 7}

>  <energy>  (75) 
-5.23

>  <cluster_rmsd>  (75) 
1.29

>  <cluster>  (75) 
1

$$$$

     RDKit          3D

 60 63  0  0  0  0  0  0  0  0999 V2000
  138.7930   70.9810  220.9610 O   0  0  0  0  0  0  0  0  0  0  0  0
  138.5610   71.4520  222.1030 C   0  0  0  0  0  0  0  0  0  0  0  0
  137.9070   72.6950  222.3250 N   0  0  0  0  0  0  0  0  0  0  0  0
  137.4610   73.5100  221.2120 C   0  0  0  0  0  0  0  0  0  0  0  0
  136.0340   73.7660  221.3760 C   0  0  0  0  0  0  0  0  0  0  0  0
  135.2680   73.4670  220.4030 O   0  0  0  0  0  0  0  0  0  0  0  0
  135.4660   74.3440  222.5920 N   0  0  0  0  0  0  0  0  0  0  0  0
  135.0630   75.7070  222.3500 C   0  0  0  0  0  0  0  0  0  0  0  0
  135.4360   76.6210  223.4780 C   0  0  0  0  0  0  0  0  0  0  0  0
  134.5260   76.2840  224.6400 C   0  0  0  0  0  0  0  0  0  0  0  0
  135.2400   75.2450  225.4950 C   0  0  0  0  0  0  0  0  0  0  0  0
  135.0700   73.8700  225.0160 C   0  0  0  0  0  0  0  0  0  0  0  0
  135.4460   73.4300  223.6880 C   0  0  1  0  0  0  0  0  0  0  0  0
  134.9130   72.0660  223.2190 C   0  0  0  0  0  0  0  0  0  0  0  0
  133.4580   71.8660  223.3370 C   0  0  0  0  0  0  0  0  0  0  0  0
  133.0050   71.1810  224.5920 C   0  0  0  0  0  0  0  0  0  0  0  0
  133.6720   69.8330  224.6220 C   0  0  0  0  0  0  0  0  0  0  0  0
  135.1520   70.0090  224.6870 C   0  0  0  0  0  0  0  0  0  0  0  0
  135.7560   70.9200  223.6920 C   0  0  0  0  0  0  0  0  0  0  0  0
  138.9870   70.6780  223.2800 C   0  0  0  0  0  0  0  0  0  0  0  0
  138.7890   69.3120  223.3370 C   0  0  0  0  0  0  0  0  0  0  0  0
  139.1590   68.5280  224.3980 C   0  0  0  0  0  0  0  0  0  0  0  0
  139.7660   69.1580  225.4690 C   0  0  0  0  0  0  0  0  0  0  0  0
  140.1540   68.4030  226.5580 C   0  0  0  0  0  0  0  0  0  0  0  0
  140.7510   69.0580  227.5990 C   0  0  0  0  0  0  0  0  0  0  0  0
  141.2470   68.1110  228.9860 Cl  0  0  0  0  0  0  0  0  0  0  0  0
  140.9520   70.4290  227.5480 C   0  0  0  0  0  0  0  0  0  0  0  0
  140.5620   71.1900  226.4510 C   0  0  0  0  0  0  0  0  0  0  0  0
  139.9510   70.5210  225.3860 C   0  0  0  0  0  0  0  0  0  0  0  0
  139.5760   71.2580  224.3300 N   0  0  0  0  0  0  0  0  0  0  0  0
  137.7410   73.0380  223.3110 H   0  0  0  0  0  0  0  0  0  0  0  0
  138.0114   74.4623  221.2040 H   0  0  0  0  0  0  0  0  0  0  0  0
  137.6462   72.9883  220.2615 H   0  0  0  0  0  0  0  0  0  0  0  0
  135.5519   76.0622  221.4309 H   0  0  0  0  0  0  0  0  0  0  0  0
  133.9672   75.7213  222.2545 H   0  0  0  0  0  0  0  0  0  0  0  0
  136.4866   76.4611  223.7622 H   0  0  0  0  0  0  0  0  0  0  0  0
  135.3227   77.6747  223.1834 H   0  0  0  0  0  0  0  0  0  0  0  0
  134.3268   77.1874  225.2352 H   0  0  0  0  0  0  0  0  0  0  0  0
  133.5641   75.8924  224.2776 H   0  0  0  0  0  0  0  0  0  0  0  0
  136.3146   75.4800  225.5019 H   0  0  0  0  0  0  0  0  0  0  0  0
  134.7934   75.2931  226.4991 H   0  0  0  0  0  0  0  0  0  0  0  0
  135.6382   73.2371  225.7136 H   0  0  0  0  0  0  0  0  0  0  0  0
  133.9737   73.7976  224.9617 H   0  0  0  0  0  0  0  0  0  0  0  0
  136.5050   73.3279  223.9674 H   0  0  0  0  0  0  0  0  0  0  0  0
  135.0356   72.0864  222.1260 H   0  0  0  0  0  0  0  0  0  0  0  0
  132.9747   72.8533  223.2953 H   0  0  0  0  0  0  0  0  0  0  0  0
  133.1741   71.2010  222.5080 H   0  0  0  0  0  0  0  0  0  0  0  0
  133.3028   71.7696  225.4723 H   0  0  0  0  0  0  0  0  0  0  0  0
  131.9100   71.0779  224.6098 H   0  0  0  0  0  0  0  0  0  0  0  0
  133.3304   69.2750  225.5063 H   0  0  0  0  0  0  0  0  0  0  0  0
  133.4099   69.2751  223.7110 H   0  0  0  0  0  0  0  0  0  0  0  0
  135.3981   70.3966  225.6866 H   0  0  0  0  0  0  0  0  0  0  0  0
  135.5714   69.0170  224.4631 H   0  0  0  0  0  0  0  0  0  0  0  0
  136.6686   71.3415  224.1388 H   0  0  0  0  0  0  0  0  0  0  0  0
  135.9212   70.2991  222.7992 H   0  0  0  0  0  0  0  0  0  0  0  0
  138.3048   68.8240  222.4783 H   0  0  0  0  0  0  0  0  0  0  0  0
  138.9806   67.4426  224.3979 H   0  0  0  0  0  0  0  0  0  0  0  0
  139.9890   67.3158  226.5869 H   0  0  0  0  0  0  0  0  0  0  0  0
  141.4342   70.9297  228.4005 H   0  0  0  0  0  0  0  0  0  0  0  0
  140.7280   72.2770  226.4224 H   0  0  0  0  0  0  0  0  0  0  0  0
  1  2  2  0
  2  3  1  0
  3  4  1  0
  4  5  1  0
  5  6  2  0
  5  7  1  0
  7  8  1  0
  8  9  1  0
  9 10  1  0
 10 11  1  0
 11 12  1  0
 12 13  1  0
 13 14  1  0
 14 15  1  0
 15 16  1  0
 16 17  1  0
 17 18  1  0
 18 19  1  0
  2 20  1  0
 20 21  2  0
 21 22  1  0
 22 23  2  0
 23 24  1  0
 24 25  2  0
 25 26  1  0
 25 27  1  0
 27 28  2  0
 28 29  1  0
 29 30  2  0
 13  7  1  0
 19 14  1  0
 30 20  1  0
 29 23  1  0
  3 31  1  0
  4 32  1  0
  4 33  1  0
  8 34  1  0
  8 35  1  0
  9 36  1  0
  9 37  1  0
 10 38  1  0
 10 39  1  0
 11 40  1  0
 11 41  1  0
 12 42  1  0
 12 43  1  0
 13 44  1  1
 14 45  1  0
 15 46  1  0
 15 47  1  0
 16 48  1  0
 16 49  1  0
 17 50  1  0
 17 51  1  0
 18 52  1  0
 18 53  1  0
 19 54  1  0
 19 55  1  0
 21 56  1  0
 22 57  1  0
 24 58  1  0
 27 59  1  0
 28 60  1  0
M  END
>  <smiles>  (76) 
O=C(NCC(=O)N1CCCCCC1C1CCCCC1)c1ccc2cc(Cl)ccc2n1

>  <score_type>  (76) 
oracle

>  <origin>  (76) 
autodockgpu

>  <m_score__min__energy>  (76) 
-6.6600000000000001

>  <m_primary>  (76) 
energy

>  <rmsd>  (76) 
4.86768728924806

>  <m_score__min__rmsd>  (76) 
4.86768728924806

>  <meeko>  (76) 
{"free_energy": -4.51, "intermolecular_energy": -7.8, "internal_energy": -2.47, "cluster_size": 1, "cluster_id": 7, "rank_in_cluster": 1}

>  <energy>  (76) 
-5.17

>  <cluster_rmsd>  (76) 
1.83

>  <cluster>  (76) 
1

$$$$

     RDKit          3D

 60 63  0  0  0  0  0  0  0  0999 V2000
  139.3590   71.8660  220.8020 O   0  0  0  0  0  0  0  0  0  0  0  0
  139.5080   72.3790  221.9400 C   0  0  0  0  0  0  0  0  0  0  0  0
  139.5470   73.7820  222.1730 N   0  0  0  0  0  0  0  0  0  0  0  0
  139.4120   74.7220  221.0770 C   0  0  0  0  0  0  0  0  0  0  0  0
  140.4970   75.6930  221.1710 C   0  0  0  0  0  0  0  0  0  0  0  0
  141.2470   75.6380  222.1990 O   0  0  0  0  0  0  0  0  0  0  0  0
  140.7450   76.7060  220.1470 N   0  0  0  0  0  0  0  0  0  0  0  0
  140.9910   77.9850  220.7670 C   0  0  0  0  0  0  0  0  0  0  0  0
  140.7440   79.1300  219.8320 C   0  0  0  0  0  0  0  0  0  0  0  0
  141.6320   78.9140  218.6250 C   0  0  0  0  0  0  0  0  0  0  0  0
  140.7550   78.3880  217.4980 C   0  0  0  0  0  0  0  0  0  0  0  0
  140.2730   77.0170  217.7110 C   0  0  0  0  0  0  0  0  0  0  0  0
  140.6900   76.1840  218.8200 C   0  0  1  0  0  0  0  0  0  0  0  0
  141.8790   75.2380  218.5840 C   0  0  0  0  0  0  0  0  0  0  0  0
  141.6930   73.8440  219.0220 C   0  0  0  0  0  0  0  0  0  0  0  0
  142.2090   73.5290  220.3950 C   0  0  0  0  0  0  0  0  0  0  0  0
  143.6830   73.8300  220.3900 C   0  0  0  0  0  0  0  0  0  0  0  0
  143.8950   75.2830  220.1260 C   0  0  0  0  0  0  0  0  0  0  0  0
  143.1940   75.8550  218.9570 C   0  0  0  0  0  0  0  0  0  0  0  0
  139.6510   71.4840  223.0990 C   0  0  0  0  0  0  0  0  0  0  0  0
  139.1930   70.1820  223.0480 C   0  0  0  0  0  0  0  0  0  0  0  0
  139.2910   69.2940  224.0870 C   0  0  0  0  0  0  0  0  0  0  0  0
  139.8890   69.7440  225.2500 C   0  0  0  0  0  0  0  0  0  0  0  0
  140.0080   68.8790  226.3200 C   0  0  0  0  0  0  0  0  0  0  0  0
  140.6030   69.3570  227.4540 C   0  0  0  0  0  0  0  0  0  0  0  0
  140.7590   68.2700  228.8180 Cl  0  0  0  0  0  0  0  0  0  0  0  0
  141.0650   70.6640  227.5110 C   0  0  0  0  0  0  0  0  0  0  0  0
  140.9460   71.5350  226.4340 C   0  0  0  0  0  0  0  0  0  0  0  0
  140.3370   71.0470  225.2740 C   0  0  0  0  0  0  0  0  0  0  0  0
  140.2240   71.8910  224.2370 N   0  0  0  0  0  0  0  0  0  0  0  0
  139.6760   74.1520  223.1540 H   0  0  0  0  0  0  0  0  0  0  0  0
  139.4737   74.1867  220.1180 H   0  0  0  0  0  0  0  0  0  0  0  0
  138.4396   75.2331  221.1332 H   0  0  0  0  0  0  0  0  0  0  0  0
  140.3261   78.0896  221.6370 H   0  0  0  0  0  0  0  0  0  0  0  0
  142.0500   78.0161  221.0630 H   0  0  0  0  0  0  0  0  0  0  0  0
  139.6876   79.1468  219.5258 H   0  0  0  0  0  0  0  0  0  0  0  0
  140.9692   80.0904  220.3187 H   0  0  0  0  0  0  0  0  0  0  0  0
  142.0969   79.8651  218.3261 H   0  0  0  0  0  0  0  0  0  0  0  0
  142.4335   78.1975  218.8578 H   0  0  0  0  0  0  0  0  0  0  0  0
  139.8826   79.0507  217.3996 H   0  0  0  0  0  0  0  0  0  0  0  0
  141.3763   78.3712  216.5904 H   0  0  0  0  0  0  0  0  0  0  0  0
  139.1782   77.0922  217.7872 H   0  0  0  0  0  0  0  0  0  0  0  0
  140.7387   76.4929  216.8634 H   0  0  0  0  0  0  0  0  0  0  0  0
  139.7560   75.6033  218.8009 H   0  0  0  0  0  0  0  0  0  0  0  0
  141.9144   75.1127  217.4917 H   0  0  0  0  0  0  0  0  0  0  0  0
  140.6155   73.6234  219.0051 H   0  0  0  0  0  0  0  0  0  0  0  0
  142.2805   73.2259  218.3271 H   0  0  0  0  0  0  0  0  0  0  0  0
  141.6984   74.1533  221.1430 H   0  0  0  0  0  0  0  0  0  0  0  0
  142.0241   72.4756  220.6520 H   0  0  0  0  0  0  0  0  0  0  0  0
  144.1135   73.5688  221.3680 H   0  0  0  0  0  0  0  0  0  0  0  0
  144.1742   73.2396  219.6025 H   0  0  0  0  0  0  0  0  0  0  0  0
  143.5625   75.8356  221.0171 H   0  0  0  0  0  0  0  0  0  0  0  0
  144.9664   75.3817  219.8971 H   0  0  0  0  0  0  0  0  0  0  0  0
  143.0137   76.9198  219.1662 H   0  0  0  0  0  0  0  0  0  0  0  0
  143.8561   75.6568  218.1012 H   0  0  0  0  0  0  0  0  0  0  0  0
  138.7207   69.8368  222.1165 H   0  0  0  0  0  0  0  0  0  0  0  0
  138.9098   68.2659  223.9997 H   0  0  0  0  0  0  0  0  0  0  0  0
  139.6380   67.8447  226.2619 H   0  0  0  0  0  0  0  0  0  0  0  0
  141.5399   71.0219  228.4364 H   0  0  0  0  0  0  0  0  0  0  0  0
  141.3169   72.5689  226.4923 H   0  0  0  0  0  0  0  0  0  0  0  0
  1  2  2  0
  2  3  1  0
  3  4  1  0
  4  5  1  0
  5  6  2  0
  5  7  1  0
  7  8  1  0
  8  9  1  0
  9 10  1  0
 10 11  1  0
 11 12  1  0
 12 13  1  0
 13 14  1  0
 14 15  1  0
 15 16  1  0
 16 17  1  0
 17 18  1  0
 18 19  1  0
  2 20  1  0
 20 21  2  0
 21 22  1  0
 22 23  2  0
 23 24  1  0
 24 25  2  0
 25 26  1  0
 25 27  1  0
 27 28  2  0
 28 29  1  0
 29 30  2  0
 13  7  1  0
 19 14  1  0
 30 20  1  0
 29 23  1  0
  3 31  1  0
  4 32  1  0
  4 33  1  0
  8 34  1  0
  8 35  1  0
  9 36  1  0
  9 37  1  0
 10 38  1  0
 10 39  1  0
 11 40  1  0
 11 41  1  0
 12 42  1  0
 12 43  1  0
 13 44  1  1
 14 45  1  0
 15 46  1  0
 15 47  1  0
 16 48  1  0
 16 49  1  0
 17 50  1  0
 17 51  1  0
 18 52  1  0
 18 53  1  0
 19 54  1  0
 19 55  1  0
 21 56  1  0
 22 57  1  0
 24 58  1  0
 27 59  1  0
 28 60  1  0
M  END
>  <smiles>  (77) 
O=C(NCC(=O)N1CCCCCC1C1CCCCC1)c1ccc2cc(Cl)ccc2n1

>  <score_type>  (77) 
oracle

>  <origin>  (77) 
autodockgpu

>  <m_score__min__energy>  (77) 
-6.6600000000000001

>  <m_primary>  (77) 
energy

>  <rmsd>  (77) 
2.1810077332746003

>  <m_score__min__rmsd>  (77) 
2.1810077332746003

>  <meeko>  (77) 
{"free_energy": -5.28, "intermolecular_energy": -8.56, "internal_energy": -2.32, "cluster_size": 30, "cluster_id": 1, "rank_in_cluster": 23}

>  <energy>  (77) 
-5.1

>  <cluster_rmsd>  (77) 
1.8

>  <cluster>  (77) 
1

$$$$

     RDKit          3D

 60 63  0  0  0  0  0  0  0  0999 V2000
  138.5090   72.5700  220.6290 O   0  0  0  0  0  0  0  0  0  0  0  0
  139.4470   72.7610  221.4430 C   0  0  0  0  0  0  0  0  0  0  0  0
  140.4420   73.7640  221.2780 N   0  0  0  0  0  0  0  0  0  0  0  0
  140.4260   74.6460  220.1280 C   0  0  0  0  0  0  0  0  0  0  0  0
  141.4960   75.6250  220.2860 C   0  0  0  0  0  0  0  0  0  0  0  0
  142.5260   75.2670  220.9450 O   0  0  0  0  0  0  0  0  0  0  0  0
  141.4270   76.9730  219.7270 N   0  0  0  0  0  0  0  0  0  0  0  0
  141.0960   76.9100  218.3250 C   0  0  0  0  0  0  0  0  0  0  0  0
  141.8940   77.8790  217.5060 C   0  0  0  0  0  0  0  0  0  0  0  0
  141.3750   79.2650  217.8290 C   0  0  0  0  0  0  0  0  0  0  0  0
  142.2240   79.8190  218.9650 C   0  0  0  0  0  0  0  0  0  0  0  0
  141.7920   79.3810  220.2950 C   0  0  0  0  0  0  0  0  0  0  0  0
  141.6930   77.9920  220.6910 C   0  0  1  0  0  0  0  0  0  0  0  0
  140.9410   77.6820  221.9960 C   0  0  0  0  0  0  0  0  0  0  0  0
  139.4710   77.7470  221.9260 C   0  0  0  0  0  0  0  0  0  0  0  0
  138.8670   79.0570  222.3390 C   0  0  0  0  0  0  0  0  0  0  0  0
  139.2830   79.3040  223.7630 C   0  0  0  0  0  0  0  0  0  0  0  0
  140.7690   79.4240  223.8340 C   0  0  0  0  0  0  0  0  0  0  0  0
  141.5540   78.3500  223.1900 C   0  0  0  0  0  0  0  0  0  0  0  0
  139.5260   71.9020  222.6350 C   0  0  0  0  0  0  0  0  0  0  0  0
  138.8400   70.7050  222.6900 C   0  0  0  0  0  0  0  0  0  0  0  0
  138.8660   69.8550  223.7650 C   0  0  0  0  0  0  0  0  0  0  0  0
  139.6310   70.2340  224.8530 C   0  0  0  0  0  0  0  0  0  0  0  0
  139.6840   69.4050  225.9560 C   0  0  0  0  0  0  0  0  0  0  0  0
  140.4500   69.8110  227.0130 C   0  0  0  0  0  0  0  0  0  0  0  0
  140.5240   68.7680  228.4180 Cl  0  0  0  0  0  0  0  0  0  0  0  0
  141.1410   71.0120  226.9640 C   0  0  0  0  0  0  0  0  0  0  0  0
  141.0880   71.8470  225.8530 C   0  0  0  0  0  0  0  0  0  0  0  0
  140.3050   71.4330  224.7710 C   0  0  0  0  0  0  0  0  0  0  0  0
  140.2570   72.2410  223.7010 N   0  0  0  0  0  0  0  0  0  0  0  0
  141.2070   73.8740  221.9990 H   0  0  0  0  0  0  0  0  0  0  0  0
  140.5883   74.0626  219.2097 H   0  0  0  0  0  0  0  0  0  0  0  0
  139.4540   75.1557  220.0551 H   0  0  0  0  0  0  0  0  0  0  0  0
  141.2949   75.8914  217.9604 H   0  0  0  0  0  0  0  0  0  0  0  0
  140.0339   77.1756  218.2186 H   0  0  0  0  0  0  0  0  0  0  0  0
  142.9603   77.8049  217.7660 H   0  0  0  0  0  0  0  0  0  0  0  0
  141.7923   77.6623  216.4324 H   0  0  0  0  0  0  0  0  0  0  0  0
  141.4613   79.9137  216.9449 H   0  0  0  0  0  0  0  0  0  0  0  0
  140.3156   79.2232  218.1222 H   0  0  0  0  0  0  0  0  0  0  0  0
  143.2631   79.4917  218.8127 H   0  0  0  0  0  0  0  0  0  0  0  0
  142.1189   80.9137  218.9387 H   0  0  0  0  0  0  0  0  0  0  0  0
  142.4916   79.8458  221.0053 H   0  0  0  0  0  0  0  0  0  0  0  0
  140.7317   79.6736  220.2807 H   0  0  0  0  0  0  0  0  0  0  0  0
  142.7756   77.9133  220.8695 H   0  0  0  0  0  0  0  0  0  0  0  0
  141.0969   76.6043  222.1515 H   0  0  0  0  0  0  0  0  0  0  0  0
  139.1710   77.5470  220.8868 H   0  0  0  0  0  0  0  0  0  0  0  0
  139.0989   77.0007  222.6433 H   0  0  0  0  0  0  0  0  0  0  0  0
  139.2384   79.8650  221.6915 H   0  0  0  0  0  0  0  0  0  0  0  0
  137.7710   79.0293  222.2496 H   0  0  0  0  0  0  0  0  0  0  0  0
  138.8224   80.2357  224.1231 H   0  0  0  0  0  0  0  0  0  0  0  0
  138.9527   78.4644  224.3922 H   0  0  0  0  0  0  0  0  0  0  0  0
  141.0497   80.3742  223.3561 H   0  0  0  0  0  0  0  0  0  0  0  0
  141.0132   79.3578  224.9045 H   0  0  0  0  0  0  0  0  0  0  0  0
  142.5127   78.7851  222.8712 H   0  0  0  0  0  0  0  0  0  0  0  0
  141.6341   77.5591  223.9504 H   0  0  0  0  0  0  0  0  0  0  0  0
  138.2356   70.4158  221.8176 H   0  0  0  0  0  0  0  0  0  0  0  0
  138.3019   68.9107  223.7624 H   0  0  0  0  0  0  0  0  0  0  0  0
  139.1311   68.4544  225.9831 H   0  0  0  0  0  0  0  0  0  0  0  0
  141.7492   71.3134  227.8296 H   0  0  0  0  0  0  0  0  0  0  0  0
  141.6413   72.7974  225.8265 H   0  0  0  0  0  0  0  0  0  0  0  0
  1  2  2  0
  2  3  1  0
  3  4  1  0
  4  5  1  0
  5  6  2  0
  5  7  1  0
  7  8  1  0
  8  9  1  0
  9 10  1  0
 10 11  1  0
 11 12  1  0
 12 13  1  0
 13 14  1  0
 14 15  1  0
 15 16  1  0
 16 17  1  0
 17 18  1  0
 18 19  1  0
  2 20  1  0
 20 21  2  0
 21 22  1  0
 22 23  2  0
 23 24  1  0
 24 25  2  0
 25 26  1  0
 25 27  1  0
 27 28  2  0
 28 29  1  0
 29 30  2  0
 13  7  1  0
 19 14  1  0
 30 20  1  0
 29 23  1  0
  3 31  1  0
  4 32  1  0
  4 33  1  0
  8 34  1  0
  8 35  1  0
  9 36  1  0
  9 37  1  0
 10 38  1  0
 10 39  1  0
 11 40  1  0
 11 41  1  0
 12 42  1  0
 12 43  1  0
 13 44  1  1
 14 45  1  0
 15 46  1  0
 15 47  1  0
 16 48  1  0
 16 49  1  0
 17 50  1  0
 17 51  1  0
 18 52  1  0
 18 53  1  0
 19 54  1  0
 19 55  1  0
 21 56  1  0
 22 57  1  0
 24 58  1  0
 27 59  1  0
 28 60  1  0
M  END
>  <smiles>  (78) 
O=C(NCC(=O)N1CCCCCC1C1CCCCC1)c1ccc2cc(Cl)ccc2n1

>  <score_type>  (78) 
oracle

>  <origin>  (78) 
autodockgpu

>  <m_score__min__energy>  (78) 
-6.6600000000000001

>  <m_primary>  (78) 
energy

>  <rmsd>  (78) 
2.2594167355200065

>  <m_score__min__rmsd>  (78) 
2.2594167355200065

>  <meeko>  (78) 
{"free_energy": -5.65, "intermolecular_energy": -8.94, "internal_energy": -2.55, "cluster_size": 30, "cluster_id": 1, "rank_in_cluster": 16}

>  <energy>  (78) 
-5.02

>  <cluster_rmsd>  (78) 
1.97

>  <cluster>  (78) 
1

$$$$

     RDKit          3D

 60 63  0  0  0  0  0  0  0  0999 V2000
  138.1550   72.3450  220.8130 O   0  0  0  0  0  0  0  0  0  0  0  0
  139.0230   72.6940  221.6520 C   0  0  0  0  0  0  0  0  0  0  0  0
  139.8310   73.8550  221.5140 N   0  0  0  0  0  0  0  0  0  0  0  0
  139.6920   74.7270  220.3630 C   0  0  0  0  0  0  0  0  0  0  0  0
  140.1370   76.0630  220.7430 C   0  0  0  0  0  0  0  0  0  0  0  0
  141.3910   76.2860  220.7450 O   0  0  0  0  0  0  0  0  0  0  0  0
  139.2120   77.1310  221.1160 N   0  0  0  0  0  0  0  0  0  0  0  0
  137.8890   76.5920  221.3130 C   0  0  0  0  0  0  0  0  0  0  0  0
  136.9280   77.6140  221.8410 C   0  0  0  0  0  0  0  0  0  0  0  0
  136.7920   78.6840  220.7780 C   0  0  0  0  0  0  0  0  0  0  0  0
  137.7040   79.8390  221.1710 C   0  0  0  0  0  0  0  0  0  0  0  0
  139.1160   79.6150  220.8450 C   0  0  0  0  0  0  0  0  0  0  0  0
  139.8390   78.4100  221.1970 C   0  0  1  0  0  0  0  0  0  0  0  0
  140.7460   78.4680  222.4370 C   0  0  0  0  0  0  0  0  0  0  0  0
  140.1760   79.1280  223.6240 C   0  0  0  0  0  0  0  0  0  0  0  0
  140.5220   80.5800  223.7780 C   0  0  0  0  0  0  0  0  0  0  0  0
  142.0220   80.6680  223.8610 C   0  0  0  0  0  0  0  0  0  0  0  0
  142.6220   80.1700  222.5900 C   0  0  0  0  0  0  0  0  0  0  0  0
  142.1560   78.8540  222.1060 C   0  0  0  0  0  0  0  0  0  0  0  0
  139.2190   71.8560  222.8460 C   0  0  0  0  0  0  0  0  0  0  0  0
  138.5720   70.6420  222.9720 C   0  0  0  0  0  0  0  0  0  0  0  0
  138.7070   69.8110  224.0530 C   0  0  0  0  0  0  0  0  0  0  0  0
  139.5430   70.2280  225.0720 C   0  0  0  0  0  0  0  0  0  0  0  0
  139.7050   69.4190  226.1790 C   0  0  0  0  0  0  0  0  0  0  0  0
  140.5400   69.8620  227.1670 C   0  0  0  0  0  0  0  0  0  0  0  0
  140.7530   68.8450  228.5770 Cl  0  0  0  0  0  0  0  0  0  0  0  0
  141.1910   71.0810  227.0470 C   0  0  0  0  0  0  0  0  0  0  0  0
  141.0280   71.8960  225.9320 C   0  0  0  0  0  0  0  0  0  0  0  0
  140.1750   71.4440  224.9210 C   0  0  0  0  0  0  0  0  0  0  0  0
  140.0210   72.2330  223.8470 N   0  0  0  0  0  0  0  0  0  0  0  0
  140.5460   74.0950  222.2550 H   0  0  0  0  0  0  0  0  0  0  0  0
  140.3104   74.3507  219.5347 H   0  0  0  0  0  0  0  0  0  0  0  0
  138.6425   74.7566  220.0350 H   0  0  0  0  0  0  0  0  0  0  0  0
  137.5128   76.2182  220.3493 H   0  0  0  0  0  0  0  0  0  0  0  0
  137.9630   75.7854  222.0573 H   0  0  0  0  0  0  0  0  0  0  0  0
  135.9506   77.1485  222.0357 H   0  0  0  0  0  0  0  0  0  0  0  0
  137.2914   78.0434  222.7863 H   0  0  0  0  0  0  0  0  0  0  0  0
  137.0952   78.2822  219.7999 H   0  0  0  0  0  0  0  0  0  0  0  0
  135.7485   79.0233  220.7014 H   0  0  0  0  0  0  0  0  0  0  0  0
  137.3655   80.7431  220.6438 H   0  0  0  0  0  0  0  0  0  0  0  0
  137.6397   79.9405  222.2644 H   0  0  0  0  0  0  0  0  0  0  0  0
  139.1883   79.6994  219.7506 H   0  0  0  0  0  0  0  0  0  0  0  0
  139.6051   80.3549  221.4956 H   0  0  0  0  0  0  0  0  0  0  0  0
  140.4618   78.4581  220.2916 H   0  0  0  0  0  0  0  0  0  0  0  0
  140.8026   77.4253  222.7828 H   0  0  0  0  0  0  0  0  0  0  0  0
  139.0807   79.0438  223.5666 H   0  0  0  0  0  0  0  0  0  0  0  0
  140.6121   78.6171  224.4951 H   0  0  0  0  0  0  0  0  0  0  0  0
  140.1575   81.1494  222.9103 H   0  0  0  0  0  0  0  0  0  0  0  0
  140.0534   81.0020  224.6793 H   0  0  0  0  0  0  0  0  0  0  0  0
  142.3193   81.7149  224.0209 H   0  0  0  0  0  0  0  0  0  0  0  0
  142.3788   80.0524  224.6999 H   0  0  0  0  0  0  0  0  0  0  0  0
  142.4031   80.9099  221.8060 H   0  0  0  0  0  0  0  0  0  0  0  0
  143.6914   80.0347  222.8092 H   0  0  0  0  0  0  0  0  0  0  0  0
  142.2527   78.8501  221.0103 H   0  0  0  0  0  0  0  0  0  0  0  0
  142.7842   78.1181  222.6294 H   0  0  0  0  0  0  0  0  0  0  0  0
  137.9082   70.3231  222.1549 H   0  0  0  0  0  0  0  0  0  0  0  0
  138.1721   68.8514  224.1078 H   0  0  0  0  0  0  0  0  0  0  0  0
  139.1823   68.4548  226.2629 H   0  0  0  0  0  0  0  0  0  0  0  0
  141.8560   71.4129  227.8579 H   0  0  0  0  0  0  0  0  0  0  0  0
  141.5508   72.8603  225.8488 H   0  0  0  0  0  0  0  0  0  0  0  0
  1  2  2  0
  2  3  1  0
  3  4  1  0
  4  5  1  0
  5  6  2  0
  5  7  1  0
  7  8  1  0
  8  9  1  0
  9 10  1  0
 10 11  1  0
 11 12  1  0
 12 13  1  0
 13 14  1  0
 14 15  1  0
 15 16  1  0
 16 17  1  0
 17 18  1  0
 18 19  1  0
  2 20  1  0
 20 21  2  0
 21 22  1  0
 22 23  2  0
 23 24  1  0
 24 25  2  0
 25 26  1  0
 25 27  1  0
 27 28  2  0
 28 29  1  0
 29 30  2  0
 13  7  1  0
 19 14  1  0
 30 20  1  0
 29 23  1  0
  3 31  1  0
  4 32  1  0
  4 33  1  0
  8 34  1  0
  8 35  1  0
  9 36  1  0
  9 37  1  0
 10 38  1  0
 10 39  1  0
 11 40  1  0
 11 41  1  0
 12 42  1  0
 12 43  1  0
 13 44  1  6
 14 45  1  0
 15 46  1  0
 15 47  1  0
 16 48  1  0
 16 49  1  0
 17 50  1  0
 17 51  1  0
 18 52  1  0
 18 53  1  0
 19 54  1  0
 19 55  1  0
 21 56  1  0
 22 57  1  0
 24 58  1  0
 27 59  1  0
 28 60  1  0
M  END
>  <smiles>  (79) 
O=C(NCC(=O)N1CCCCCC1C1CCCCC1)c1ccc2cc(Cl)ccc2n1

>  <score_type>  (79) 
oracle

>  <origin>  (79) 
autodockgpu

>  <m_score__min__energy>  (79) 
-6.6600000000000001

>  <m_primary>  (79) 
energy

>  <rmsd>  (79) 
2.7873490392643125

>  <m_score__min__rmsd>  (79) 
2.7873490392643125

>  <meeko>  (79) 
{"free_energy": -5.46, "intermolecular_energy": -8.74, "internal_energy": -1.98, "cluster_size": 30, "cluster_id": 1, "rank_in_cluster": 21}

>  <energy>  (79) 
-4.59

>  <cluster_rmsd>  (79) 
1.82

>  <cluster>  (79) 
1

$$$$

     RDKit          3D

 60 63  0  0  0  0  0  0  0  0999 V2000
  139.6010   72.9590  220.5480 O   0  0  0  0  0  0  0  0  0  0  0  0
  139.0550   73.1660  221.6610 C   0  0  0  0  0  0  0  0  0  0  0  0
  138.2820   74.3220  221.9560 N   0  0  0  0  0  0  0  0  0  0  0  0
  138.0740   75.3540  220.9580 C   0  0  0  0  0  0  0  0  0  0  0  0
  138.3330   76.6490  221.5780 C   0  0  0  0  0  0  0  0  0  0  0  0
  137.7180   76.9150  222.6610 O   0  0  0  0  0  0  0  0  0  0  0  0
  139.2530   77.6310  221.0080 N   0  0  0  0  0  0  0  0  0  0  0  0
  138.6120   78.3390  219.9280 C   0  0  0  0  0  0  0  0  0  0  0  0
  139.6000   78.9100  218.9550 C   0  0  0  0  0  0  0  0  0  0  0  0
  140.6130   77.8230  218.6640 C   0  0  0  0  0  0  0  0  0  0  0  0
  141.8500   78.1140  219.5030 C   0  0  0  0  0  0  0  0  0  0  0  0
  141.7500   77.6390  220.8860 C   0  0  0  0  0  0  0  0  0  0  0  0
  140.5240   77.6470  221.6570 C   0  0  1  0  0  0  0  0  0  0  0  0
  140.4700   78.5690  222.8870 C   0  0  0  0  0  0  0  0  0  0  0  0
  139.6590   79.7900  222.7440 C   0  0  0  0  0  0  0  0  0  0  0  0
  140.4180   81.0180  222.3350 C   0  0  0  0  0  0  0  0  0  0  0  0
  141.4600   81.2630  223.3920 C   0  0  0  0  0  0  0  0  0  0  0  0
  142.4080   80.1120  223.4340 C   0  0  0  0  0  0  0  0  0  0  0  0
  141.8120   78.7630  223.5250 C   0  0  0  0  0  0  0  0  0  0  0  0
  139.2230   72.1600  222.7220 C   0  0  0  0  0  0  0  0  0  0  0  0
  138.4620   71.0080  222.7310 C   0  0  0  0  0  0  0  0  0  0  0  0
  138.5640   70.0290  223.6840 C   0  0  0  0  0  0  0  0  0  0  0  0
  139.4900   70.2230  224.6930 C   0  0  0  0  0  0  0  0  0  0  0  0
  139.6230   69.2600  225.6740 C   0  0  0  0  0  0  0  0  0  0  0  0
  140.5470   69.4840  226.6570 C   0  0  0  0  0  0  0  0  0  0  0  0
  140.7250   68.2700  227.9060 Cl  0  0  0  0  0  0  0  0  0  0  0  0
  141.3140   70.6400  226.6540 C   0  0  0  0  0  0  0  0  0  0  0  0
  141.1800   71.6100  225.6660 C   0  0  0  0  0  0  0  0  0  0  0  0
  140.2350   71.3820  224.6610 C   0  0  0  0  0  0  0  0  0  0  0  0
  140.1090   72.3200  223.7100 N   0  0  0  0  0  0  0  0  0  0  0  0
  137.8480   74.4400  222.9130 H   0  0  0  0  0  0  0  0  0  0  0  0
  138.7637   75.2006  220.1149 H   0  0  0  0  0  0  0  0  0  0  0  0
  137.0416   75.3140  220.5806 H   0  0  0  0  0  0  0  0  0  0  0  0
  137.9502   77.6426  219.3922 H   0  0  0  0  0  0  0  0  0  0  0  0
  138.0469   79.1762  220.3635 H   0  0  0  0  0  0  0  0  0  0  0  0
  139.0884   79.2077  218.0278 H   0  0  0  0  0  0  0  0  0  0  0  0
  140.0902   79.8024  219.3713 H   0  0  0  0  0  0  0  0  0  0  0  0
  140.1982   76.8408  218.9346 H   0  0  0  0  0  0  0  0  0  0  0  0
  140.8660   77.8056  217.5936 H   0  0  0  0  0  0  0  0  0  0  0  0
  142.7137   77.6244  219.0294 H   0  0  0  0  0  0  0  0  0  0  0  0
  141.9587   79.2078  219.5462 H   0  0  0  0  0  0  0  0  0  0  0  0
  142.0835   76.5909  220.8665 H   0  0  0  0  0  0  0  0  0  0  0  0
  142.3350   78.4063  221.4142 H   0  0  0  0  0  0  0  0  0  0  0  0
  140.6651   76.6085  221.9910 H   0  0  0  0  0  0  0  0  0  0  0  0
  139.8760   78.0077  223.6233 H   0  0  0  0  0  0  0  0  0  0  0  0
  138.8870   79.5985  221.9841 H   0  0  0  0  0  0  0  0  0  0  0  0
  139.2500   80.0030  223.7427 H   0  0  0  0  0  0  0  0  0  0  0  0
  140.9000   80.8568  221.3595 H   0  0  0  0  0  0  0  0  0  0  0  0
  139.7444   81.8824  222.2398 H   0  0  0  0  0  0  0  0  0  0  0  0
  142.0125   82.1843  223.1553 H   0  0  0  0  0  0  0  0  0  0  0  0
  140.9702   81.3697  224.3711 H   0  0  0  0  0  0  0  0  0  0  0  0
  143.0150   80.1468  222.5173 H   0  0  0  0  0  0  0  0  0  0  0  0
  142.9761   80.2400  224.3672 H   0  0  0  0  0  0  0  0  0  0  0  0
  142.5106   78.0586  223.0498 H   0  0  0  0  0  0  0  0  0  0  0  0
  141.6450   78.5957  224.5993 H   0  0  0  0  0  0  0  0  0  0  0  0
  137.7286   70.8676  221.9233 H   0  0  0  0  0  0  0  0  0  0  0  0
  137.9359   69.1267  223.6482 H   0  0  0  0  0  0  0  0  0  0  0  0
  139.0090   68.3474  225.6650 H   0  0  0  0  0  0  0  0  0  0  0  0
  142.0500   70.7941  227.4568 H   0  0  0  0  0  0  0  0  0  0  0  0
  141.7945   72.5223  225.6750 H   0  0  0  0  0  0  0  0  0  0  0  0
  1  2  2  0
  2  3  1  0
  3  4  1  0
  4  5  1  0
  5  6  2  0
  5  7  1  0
  7  8  1  0
  8  9  1  0
  9 10  1  0
 10 11  1  0
 11 12  1  0
 12 13  1  0
 13 14  1  0
 14 15  1  0
 15 16  1  0
 16 17  1  0
 17 18  1  0
 18 19  1  0
  2 20  1  0
 20 21  2  0
 21 22  1  0
 22 23  2  0
 23 24  1  0
 24 25  2  0
 25 26  1  0
 25 27  1  0
 27 28  2  0
 28 29  1  0
 29 30  2  0
 13  7  1  0
 19 14  1  0
 30 20  1  0
 29 23  1  0
  3 31  1  0
  4 32  1  0
  4 33  1  0
  8 34  1  0
  8 35  1  0
  9 36  1  0
  9 37  1  0
 10 38  1  0
 10 39  1  0
 11 40  1  0
 11 41  1  0
 12 42  1  0
 12 43  1  0
 13 44  1  1
 14 45  1  0
 15 46  1  0
 15 47  1  0
 16 48  1  0
 16 49  1  0
 17 50  1  0
 17 51  1  0
 18 52  1  0
 18 53  1  0
 19 54  1  0
 19 55  1  0
 21 56  1  0
 22 57  1  0
 24 58  1  0
 27 59  1  0
 28 60  1  0
M  END
>  <smiles>  (80) 
O=C(NCC(=O)N1CCCCCC1C1CCCCC1)c1ccc2cc(Cl)ccc2n1

>  <score_type>  (80) 
oracle

>  <origin>  (80) 
autodockgpu

>  <m_score__min__energy>  (80) 
-6.6600000000000001

>  <m_primary>  (80) 
energy

>  <rmsd>  (80) 
2.3980613152637416

>  <m_score__min__rmsd>  (80) 
2.3980613152637416

>  <meeko>  (80) 
{"free_energy": -6.13, "intermolecular_energy": -9.42, "internal_energy": -2.1, "cluster_size": 30, "cluster_id": 1, "rank_in_cluster": 4}

>  <energy>  (80) 
-4.56

>  <cluster_rmsd>  (80) 
1.17

>  <cluster>  (80) 
1

$$$$

     RDKit          3D

 60 63  0  0  0  0  0  0  0  0999 V2000
  140.8510   72.5230  220.8810 O   0  0  0  0  0  0  0  0  0  0  0  0
  140.1940   72.8420  221.9040 C   0  0  0  0  0  0  0  0  0  0  0  0
  139.4890   74.0700  222.0350 N   0  0  0  0  0  0  0  0  0  0  0  0
  139.4890   75.0470  220.9640 C   0  0  0  0  0  0  0  0  0  0  0  0
  140.7080   75.8410  221.0670 C   0  0  0  0  0  0  0  0  0  0  0  0
  141.4250   75.6830  222.1090 O   0  0  0  0  0  0  0  0  0  0  0  0
  141.1260   76.7920  220.0390 N   0  0  0  0  0  0  0  0  0  0  0  0
  141.1070   76.1580  218.7440 C   0  0  0  0  0  0  0  0  0  0  0  0
  142.0200   76.8330  217.7650 C   0  0  0  0  0  0  0  0  0  0  0  0
  141.4010   78.1760  217.4360 C   0  0  0  0  0  0  0  0  0  0  0  0
  142.0480   79.2130  218.3440 C   0  0  0  0  0  0  0  0  0  0  0  0
  141.4900   79.2420  219.6980 C   0  0  0  0  0  0  0  0  0  0  0  0
  141.4340   78.0830  220.5640 C   0  0  1  0  0  0  0  0  0  0  0  0
  140.7650   78.2590  221.9370 C   0  0  0  0  0  0  0  0  0  0  0  0
  139.6130   79.1770  221.9820 C   0  0  0  0  0  0  0  0  0  0  0  0
  139.9330   80.5870  222.3850 C   0  0  0  0  0  0  0  0  0  0  0  0
  140.5420   80.5240  223.7590 C   0  0  0  0  0  0  0  0  0  0  0  0
  141.8140   79.7470  223.7060 C   0  0  0  0  0  0  0  0  0  0  0  0
  141.7580   78.4240  223.0480 C   0  0  0  0  0  0  0  0  0  0  0  0
  140.1500   71.8980  223.0310 C   0  0  0  0  0  0  0  0  0  0  0  0
  139.6070   70.6370  222.8770 C   0  0  0  0  0  0  0  0  0  0  0  0
  139.5330   69.7070  223.8800 C   0  0  0  0  0  0  0  0  0  0  0  0
  140.0350   70.0690  225.1170 C   0  0  0  0  0  0  0  0  0  0  0  0
  139.9780   69.1600  226.1540 C   0  0  0  0  0  0  0  0  0  0  0  0
  140.4840   69.5500  227.3630 C   0  0  0  0  0  0  0  0  0  0  0  0
  140.4170   68.4050  228.6870 Cl  0  0  0  0  0  0  0  0  0  0  0  0
  141.0300   70.8140  227.5250 C   0  0  0  0  0  0  0  0  0  0  0  0
  141.0870   71.7300  226.4800 C   0  0  0  0  0  0  0  0  0  0  0  0
  140.5700   71.3320  225.2440 C   0  0  0  0  0  0  0  0  0  0  0  0
  140.6280   72.2190  224.2380 N   0  0  0  0  0  0  0  0  0  0  0  0
  138.9550   74.2820  222.9220 H   0  0  0  0  0  0  0  0  0  0  0  0
  139.4612   74.5330  219.9919 H   0  0  0  0  0  0  0  0  0  0  0  0
  138.6056   75.6974  221.0450 H   0  0  0  0  0  0  0  0  0  0  0  0
  141.4235   75.1108  218.8585 H   0  0  0  0  0  0  0  0  0  0  0  0
  140.0821   76.2280  218.3508 H   0  0  0  0  0  0  0  0  0  0  0  0
  143.0150   76.9749  218.2121 H   0  0  0  0  0  0  0  0  0  0  0  0
  142.1419   76.2238  216.8572 H   0  0  0  0  0  0  0  0  0  0  0  0
  141.5905   78.4289  216.3824 H   0  0  0  0  0  0  0  0  0  0  0  0
  140.3125   78.1496  217.5922 H   0  0  0  0  0  0  0  0  0  0  0  0
  143.1225   78.9889  218.4162 H   0  0  0  0  0  0  0  0  0  0  0  0
  141.8533   80.1984  217.8955 H   0  0  0  0  0  0  0  0  0  0  0  0
  142.0700   79.9991  220.2461 H   0  0  0  0  0  0  0  0  0  0  0  0
  140.4227   79.4040  219.4869 H   0  0  0  0  0  0  0  0  0  0  0  0
  142.5261   78.0644  220.6940 H   0  0  0  0  0  0  0  0  0  0  0  0
  140.2723   77.2940  222.1265 H   0  0  0  0  0  0  0  0  0  0  0  0
  139.1605   79.2042  220.9797 H   0  0  0  0  0  0  0  0  0  0  0  0
  138.9402   78.7836  222.7582 H   0  0  0  0  0  0  0  0  0  0  0  0
  140.6471   81.0300  221.6752 H   0  0  0  0  0  0  0  0  0  0  0  0
  139.0268   81.2105  222.3854 H   0  0  0  0  0  0  0  0  0  0  0  0
  140.7503   81.5439  224.1145 H   0  0  0  0  0  0  0  0  0  0  0  0
  139.8404   80.0307  224.4479 H   0  0  0  0  0  0  0  0  0  0  0  0
  142.5543   80.3562  223.1667 H   0  0  0  0  0  0  0  0  0  0  0  0
  142.0679   79.5370  224.7555 H   0  0  0  0  0  0  0  0  0  0  0  0
  142.7561   78.2161  222.6349 H   0  0  0  0  0  0  0  0  0  0  0  0
  141.4274   77.7278  223.8329 H   0  0  0  0  0  0  0  0  0  0  0  0
  139.2098   70.3630  221.8885 H   0  0  0  0  0  0  0  0  0  0  0  0
  139.0927   68.7136  223.7088 H   0  0  0  0  0  0  0  0  0  0  0  0
  139.5421   68.1599  226.0133 H   0  0  0  0  0  0  0  0  0  0  0  0
  141.4298   71.1008  228.5088 H   0  0  0  0  0  0  0  0  0  0  0  0
  141.5226   72.7302  226.6210 H   0  0  0  0  0  0  0  0  0  0  0  0
  1  2  2  0
  2  3  1  0
  3  4  1  0
  4  5  1  0
  5  6  2  0
  5  7  1  0
  7  8  1  0
  8  9  1  0
  9 10  1  0
 10 11  1  0
 11 12  1  0
 12 13  1  0
 13 14  1  0
 14 15  1  0
 15 16  1  0
 16 17  1  0
 17 18  1  0
 18 19  1  0
  2 20  1  0
 20 21  2  0
 21 22  1  0
 22 23  2  0
 23 24  1  0
 24 25  2  0
 25 26  1  0
 25 27  1  0
 27 28  2  0
 28 29  1  0
 29 30  2  0
 13  7  1  0
 19 14  1  0
 30 20  1  0
 29 23  1  0
  3 31  1  0
  4 32  1  0
  4 33  1  0
  8 34  1  0
  8 35  1  0
  9 36  1  0
  9 37  1  0
 10 38  1  0
 10 39  1  0
 11 40  1  0
 11 41  1  0
 12 42  1  0
 12 43  1  0
 13 44  1  1
 14 45  1  0
 15 46  1  0
 15 47  1  0
 16 48  1  0
 16 49  1  0
 17 50  1  0
 17 51  1  0
 18 52  1  0
 18 53  1  0
 19 54  1  0
 19 55  1  0
 21 56  1  0
 22 57  1  0
 24 58  1  0
 27 59  1  0
 28 60  1  0
M  END
>  <smiles>  (81) 
O=C(NCC(=O)N1CCCCCC1C1CCCCC1)c1ccc2cc(Cl)ccc2n1

>  <score_type>  (81) 
oracle

>  <origin>  (81) 
autodockgpu

>  <m_score__min__energy>  (81) 
-6.6600000000000001

>  <m_primary>  (81) 
energy

>  <rmsd>  (81) 
1.8684673801127962

>  <m_score__min__rmsd>  (81) 
1.8684673801127962

>  <meeko>  (81) 
{"free_energy": -6.66, "intermolecular_energy": -9.94, "internal_energy": -1.57, "cluster_size": 30, "cluster_id": 1, "rank_in_cluster": 1}

>  <energy>  (81) 
-6.28

>  <cluster_rmsd>  (81) 
0.0

>  <cluster>  (81) 
2

$$$$

     RDKit          3D

 60 63  0  0  0  0  0  0  0  0999 V2000
  138.4580   71.7830  221.0220 O   0  0  0  0  0  0  0  0  0  0  0  0
  138.9790   72.2740  222.0550 C   0  0  0  0  0  0  0  0  0  0  0  0
  139.3110   73.6500  222.1930 N   0  0  0  0  0  0  0  0  0  0  0  0
  139.0570   74.5880  221.1160 C   0  0  0  0  0  0  0  0  0  0  0  0
  139.6080   75.8830  221.4980 C   0  0  0  0  0  0  0  0  0  0  0  0
  140.8620   76.0550  221.3520 O   0  0  0  0  0  0  0  0  0  0  0  0
  138.7870   76.9680  222.0320 N   0  0  0  0  0  0  0  0  0  0  0  0
  137.6330   76.4280  222.7070 C   0  0  0  0  0  0  0  0  0  0  0  0
  136.3570   77.0780  222.2650 C   0  0  0  0  0  0  0  0  0  0  0  0
  136.3980   78.5110  222.7510 C   0  0  0  0  0  0  0  0  0  0  0  0
  137.0040   79.3550  221.6380 C   0  0  0  0  0  0  0  0  0  0  0  0
  138.4650   79.4230  221.6770 C   0  0  0  0  0  0  0  0  0  0  0  0
  139.3260   78.2620  221.7620 C   0  0  1  0  0  0  0  0  0  0  0  0
  140.6670   78.4300  222.4970 C   0  0  0  0  0  0  0  0  0  0  0  0
  140.6080   79.1120  223.8010 C   0  0  0  0  0  0  0  0  0  0  0  0
  140.8820   80.5870  223.7640 C   0  0  0  0  0  0  0  0  0  0  0  0
  142.2650   80.7640  223.1990 C   0  0  0  0  0  0  0  0  0  0  0  0
  142.3040   80.2410  221.8030 C   0  0  0  0  0  0  0  0  0  0  0  0
  141.7730   78.8780  221.5890 C   0  0  0  0  0  0  0  0  0  0  0  0
  139.2640   71.3800  223.1890 C   0  0  0  0  0  0  0  0  0  0  0  0
  138.9460   70.0380  223.1290 C   0  0  0  0  0  0  0  0  0  0  0  0
  139.1810   69.1480  224.1440 C   0  0  0  0  0  0  0  0  0  0  0  0
  139.7750   69.6400  225.2920 C   0  0  0  0  0  0  0  0  0  0  0  0
  140.0290   68.7750  226.3370 C   0  0  0  0  0  0  0  0  0  0  0  0
  140.6160   69.2950  227.4570 C   0  0  0  0  0  0  0  0  0  0  0  0
  140.9430   68.2080  228.7910 Cl  0  0  0  0  0  0  0  0  0  0  0  0
  140.9380   70.6420  227.5240 C   0  0  0  0  0  0  0  0  0  0  0  0
  140.6820   71.5140  226.4710 C   0  0  0  0  0  0  0  0  0  0  0  0
  140.0820   70.9830  225.3250 C   0  0  0  0  0  0  0  0  0  0  0  0
  139.8370   71.8270  224.3110 N   0  0  0  0  0  0  0  0  0  0  0  0
  139.7480   74.0030  223.0870 H   0  0  0  0  0  0  0  0  0  0  0  0
  139.5411   74.2352  220.1934 H   0  0  0  0  0  0  0  0  0  0  0  0
  137.9754   74.6744  220.9355 H   0  0  0  0  0  0  0  0  0  0  0  0
  137.5722   75.3502  222.4956 H   0  0  0  0  0  0  0  0  0  0  0  0
  137.7528   76.6213  223.7832 H   0  0  0  0  0  0  0  0  0  0  0  0
  136.2809   77.0533  221.1679 H   0  0  0  0  0  0  0  0  0  0  0  0
  135.4845   76.5492  222.6761 H   0  0  0  0  0  0  0  0  0  0  0  0
  135.3795   78.8607  222.9753 H   0  0  0  0  0  0  0  0  0  0  0  0
  136.9987   78.5916  223.6690 H   0  0  0  0  0  0  0  0  0  0  0  0
  136.7026   78.9233  220.6722 H   0  0  0  0  0  0  0  0  0  0  0  0
  136.6318   80.3810  221.7752 H   0  0  0  0  0  0  0  0  0  0  0  0
  138.7639   79.9498  220.7588 H   0  0  0  0  0  0  0  0  0  0  0  0
  138.6277   79.8778  222.6653 H   0  0  0  0  0  0  0  0  0  0  0  0
  139.5054   78.2538  220.6768 H   0  0  0  0  0  0  0  0  0  0  0  0
  140.9392   77.4101  222.8063 H   0  0  0  0  0  0  0  0  0  0  0  0
  139.6008   78.9634  224.2174 H   0  0  0  0  0  0  0  0  0  0  0  0
  141.4068   78.6686  224.4136 H   0  0  0  0  0  0  0  0  0  0  0  0
  140.1446   81.0921  223.1229 H   0  0  0  0  0  0  0  0  0  0  0  0
  140.8105   81.0247  224.7706 H   0  0  0  0  0  0  0  0  0  0  0  0
  142.5261   81.8326  223.1974 H   0  0  0  0  0  0  0  0  0  0  0  0
  142.9867   80.2104  223.8176 H   0  0  0  0  0  0  0  0  0  0  0  0
  141.7205   80.9286  221.1731 H   0  0  0  0  0  0  0  0  0  0  0  0
  143.3722   80.1782  221.5478 H   0  0  0  0  0  0  0  0  0  0  0  0
  141.3968   78.8263  220.5566 H   0  0  0  0  0  0  0  0  0  0  0  0
  142.6147   78.2048  221.8089 H   0  0  0  0  0  0  0  0  0  0  0  0
  138.4749   69.6598  222.2097 H   0  0  0  0  0  0  0  0  0  0  0  0
  138.9086   68.0865  224.0497 H   0  0  0  0  0  0  0  0  0  0  0  0
  139.7692   67.7081  226.2713 H   0  0  0  0  0  0  0  0  0  0  0  0
  141.4101   71.0328  228.4374 H   0  0  0  0  0  0  0  0  0  0  0  0
  140.9417   72.5808  226.5372 H   0  0  0  0  0  0  0  0  0  0  0  0
  1  2  2  0
  2  3  1  0
  3  4  1  0
  4  5  1  0
  5  6  2  0
  5  7  1  0
  7  8  1  0
  8  9  1  0
  9 10  1  0
 10 11  1  0
 11 12  1  0
 12 13  1  0
 13 14  1  0
 14 15  1  0
 15 16  1  0
 16 17  1  0
 17 18  1  0
 18 19  1  0
  2 20  1  0
 20 21  2  0
 21 22  1  0
 22 23  2  0
 23 24  1  0
 24 25  2  0
 25 26  1  0
 25 27  1  0
 27 28  2  0
 28 29  1  0
 29 30  2  0
 13  7  1  0
 19 14  1  0
 30 20  1  0
 29 23  1  0
  3 31  1  0
  4 32  1  0
  4 33  1  0
  8 34  1  0
  8 35  1  0
  9 36  1  0
  9 37  1  0
 10 38  1  0
 10 39  1  0
 11 40  1  0
 11 41  1  0
 12 42  1  0
 12 43  1  0
 13 44  1  6
 14 45  1  0
 15 46  1  0
 15 47  1  0
 16 48  1  0
 16 49  1  0
 17 50  1  0
 17 51  1  0
 18 52  1  0
 18 53  1  0
 19 54  1  0
 19 55  1  0
 21 56  1  0
 22 57  1  0
 24 58  1  0
 27 59  1  0
 28 60  1  0
M  END
>  <smiles>  (82) 
O=C(NCC(=O)N1CCCCCC1C1CCCCC1)c1ccc2cc(Cl)ccc2n1

>  <score_type>  (82) 
oracle

>  <origin>  (82) 
autodockgpu

>  <m_score__min__energy>  (82) 
-6.6600000000000001

>  <m_primary>  (82) 
energy

>  <rmsd>  (82) 
3.0191869025288267

>  <m_score__min__rmsd>  (82) 
3.0191869025288267

>  <meeko>  (82) 
{"free_energy": -6.28, "intermolecular_energy": -9.56, "internal_energy": -1.72, "cluster_size": 4, "cluster_id": 2, "rank_in_cluster": 1}

>  <energy>  (82) 
-5.97

>  <cluster_rmsd>  (82) 
1.6

>  <cluster>  (82) 
2

$$$$

     RDKit          3D

 60 63  0  0  0  0  0  0  0  0999 V2000
  140.6250   72.5200  220.8330 O   0  0  0  0  0  0  0  0  0  0  0  0
  140.1630   72.9260  221.9300 C   0  0  0  0  0  0  0  0  0  0  0  0
  139.6940   74.2510  222.1450 N   0  0  0  0  0  0  0  0  0  0  0  0
  139.7240   75.2340  221.0790 C   0  0  0  0  0  0  0  0  0  0  0  0
  140.9090   76.0660  221.2560 C   0  0  0  0  0  0  0  0  0  0  0  0
  141.4670   76.0560  222.4010 O   0  0  0  0  0  0  0  0  0  0  0  0
  141.4650   76.8940  220.1880 N   0  0  0  0  0  0  0  0  0  0  0  0
  141.7250   76.0860  219.0220 C   0  0  0  0  0  0  0  0  0  0  0  0
  142.5540   76.8060  218.0020 C   0  0  0  0  0  0  0  0  0  0  0  0
  141.7100   77.9450  217.4690 C   0  0  0  0  0  0  0  0  0  0  0  0
  142.1160   79.2060  218.2190 C   0  0  0  0  0  0  0  0  0  0  0  0
  141.5310   79.3130  219.5600 C   0  0  0  0  0  0  0  0  0  0  0  0
  141.6010   78.2660  220.5570 C   0  0  1  0  0  0  0  0  0  0  0  0
  140.8880   78.5170  221.8960 C   0  0  0  0  0  0  0  0  0  0  0  0
  139.6610   79.3280  221.8330 C   0  0  0  0  0  0  0  0  0  0  0  0
  139.8470   80.7940  222.0960 C   0  0  0  0  0  0  0  0  0  0  0  0
  140.4280   80.9220  223.4770 C   0  0  0  0  0  0  0  0  0  0  0  0
  141.7640   80.2600  223.5210 C   0  0  0  0  0  0  0  0  0  0  0  0
  141.8380   78.8790  222.9990 C   0  0  0  0  0  0  0  0  0  0  0  0
  140.1010   71.9820  223.0570 C   0  0  0  0  0  0  0  0  0  0  0  0
  139.5070   70.7440  222.9110 C   0  0  0  0  0  0  0  0  0  0  0  0
  139.4130   69.8160  223.9140 C   0  0  0  0  0  0  0  0  0  0  0  0
  139.9510   70.1550  225.1420 C   0  0  0  0  0  0  0  0  0  0  0  0
  139.8770   69.2470  226.1790 C   0  0  0  0  0  0  0  0  0  0  0  0
  140.4200   69.6140  227.3800 C   0  0  0  0  0  0  0  0  0  0  0  0
  140.3310   68.4710  228.7030 Cl  0  0  0  0  0  0  0  0  0  0  0  0
  141.0170   70.8560  227.5320 C   0  0  0  0  0  0  0  0  0  0  0  0
  141.0920   71.7710  226.4880 C   0  0  0  0  0  0  0  0  0  0  0  0
  140.5380   71.3960  225.2610 C   0  0  0  0  0  0  0  0  0  0  0  0
  140.6130   72.2820  224.2550 N   0  0  0  0  0  0  0  0  0  0  0  0
  139.3170   74.5330  223.0910 H   0  0  0  0  0  0  0  0  0  0  0  0
  139.7691   74.7250  220.1049 H   0  0  0  0  0  0  0  0  0  0  0  0
  138.8167   75.8552  221.1108 H   0  0  0  0  0  0  0  0  0  0  0  0
  142.2599   75.1769  219.3342 H   0  0  0  0  0  0  0  0  0  0  0  0
  140.7572   75.8447  218.5582 H   0  0  0  0  0  0  0  0  0  0  0  0
  143.4688   77.2000  218.4687 H   0  0  0  0  0  0  0  0  0  0  0  0
  142.8545   76.1271  217.1904 H   0  0  0  0  0  0  0  0  0  0  0  0
  141.8910   78.0742  216.3917 H   0  0  0  0  0  0  0  0  0  0  0  0
  140.6401   77.7353  217.6149 H   0  0  0  0  0  0  0  0  0  0  0  0
  143.2116   79.2132  218.3172 H   0  0  0  0  0  0  0  0  0  0  0  0
  141.7392   80.0598  217.6367 H   0  0  0  0  0  0  0  0  0  0  0  0
  141.9989   80.1957  220.0204 H   0  0  0  0  0  0  0  0  0  0  0  0
  140.4571   79.3055  219.3222 H   0  0  0  0  0  0  0  0  0  0  0  0
  142.6843   78.3993  220.6935 H   0  0  0  0  0  0  0  0  0  0  0  0
  140.4767   77.5355  222.1743 H   0  0  0  0  0  0  0  0  0  0  0  0
  139.2303   79.2151  220.8271 H   0  0  0  0  0  0  0  0  0  0  0  0
  139.0084   78.9552  222.6362 H   0  0  0  0  0  0  0  0  0  0  0  0
  140.5353   81.2265  221.3549 H   0  0  0  0  0  0  0  0  0  0  0  0
  138.8899   81.3310  222.0211 H   0  0  0  0  0  0  0  0  0  0  0  0
  140.5384   81.9867  223.7305 H   0  0  0  0  0  0  0  0  0  0  0  0
  139.7567   80.4386  224.2021 H   0  0  0  0  0  0  0  0  0  0  0  0
  142.4608   80.8761  222.9337 H   0  0  0  0  0  0  0  0  0  0  0  0
  142.0114   80.1788  224.5897 H   0  0  0  0  0  0  0  0  0  0  0  0
  142.8594   78.7206  222.6228 H   0  0  0  0  0  0  0  0  0  0  0  0
  141.5514   78.2375  223.8454 H   0  0  0  0  0  0  0  0  0  0  0  0
  139.0833   70.4873  221.9289 H   0  0  0  0  0  0  0  0  0  0  0  0
  138.9297   68.8417  223.7496 H   0  0  0  0  0  0  0  0  0  0  0  0
  139.3994   68.2652  226.0449 H   0  0  0  0  0  0  0  0  0  0  0  0
  141.4446   71.1258  228.5089 H   0  0  0  0  0  0  0  0  0  0  0  0
  141.5693   72.7529  226.6226 H   0  0  0  0  0  0  0  0  0  0  0  0
  1  2  2  0
  2  3  1  0
  3  4  1  0
  4  5  1  0
  5  6  2  0
  5  7  1  0
  7  8  1  0
  8  9  1  0
  9 10  1  0
 10 11  1  0
 11 12  1  0
 12 13  1  0
 13 14  1  0
 14 15  1  0
 15 16  1  0
 16 17  1  0
 17 18  1  0
 18 19  1  0
  2 20  1  0
 20 21  2  0
 21 22  1  0
 22 23  2  0
 23 24  1  0
 24 25  2  0
 25 26  1  0
 25 27  1  0
 27 28  2  0
 28 29  1  0
 29 30  2  0
 13  7  1  0
 19 14  1  0
 30 20  1  0
 29 23  1  0
  3 31  1  0
  4 32  1  0
  4 33  1  0
  8 34  1  0
  8 35  1  0
  9 36  1  0
  9 37  1  0
 10 38  1  0
 10 39  1  0
 11 40  1  0
 11 41  1  0
 12 42  1  0
 12 43  1  0
 13 44  1  1
 14 45  1  0
 15 46  1  0
 15 47  1  0
 16 48  1  0
 16 49  1  0
 17 50  1  0
 17 51  1  0
 18 52  1  0
 18 53  1  0
 19 54  1  0
 19 55  1  0
 21 56  1  0
 22 57  1  0
 24 58  1  0
 27 59  1  0
 28 60  1  0
M  END
>  <smiles>  (83) 
O=C(NCC(=O)N1CCCCCC1C1CCCCC1)c1ccc2cc(Cl)ccc2n1

>  <score_type>  (83) 
oracle

>  <origin>  (83) 
autodockgpu

>  <m_score__min__energy>  (83) 
-6.6600000000000001

>  <m_primary>  (83) 
energy

>  <rmsd>  (83) 
2.0488241277347514

>  <m_score__min__rmsd>  (83) 
2.0488241277347514

>  <meeko>  (83) 
{"free_energy": -6.07, "intermolecular_energy": -9.35, "internal_energy": -1.54, "cluster_size": 30, "cluster_id": 1, "rank_in_cluster": 6}

>  <energy>  (83) 
-5.11

>  <cluster_rmsd>  (83) 
1.15

>  <cluster>  (83) 
2

$$$$

     RDKit          3D

 60 63  0  0  0  0  0  0  0  0999 V2000
  138.4350   72.3400  221.1780 O   0  0  0  0  0  0  0  0  0  0  0  0
  139.3780   72.5670  221.9790 C   0  0  0  0  0  0  0  0  0  0  0  0
  140.2460   73.6890  221.8750 N   0  0  0  0  0  0  0  0  0  0  0  0
  140.0850   74.6590  220.8090 C   0  0  0  0  0  0  0  0  0  0  0  0
  141.3390   75.3890  220.6610 C   0  0  0  0  0  0  0  0  0  0  0  0
  142.3730   74.9010  221.2220 O   0  0  0  0  0  0  0  0  0  0  0  0
  141.4460   76.6360  219.9070 N   0  0  0  0  0  0  0  0  0  0  0  0
  141.2760   76.3780  218.4980 C   0  0  0  0  0  0  0  0  0  0  0  0
  142.1120   77.2840  217.6460 C   0  0  0  0  0  0  0  0  0  0  0  0
  141.4900   78.6630  217.7250 C   0  0  0  0  0  0  0  0  0  0  0  0
  142.1990   79.4220  218.8380 C   0  0  0  0  0  0  0  0  0  0  0  0
  141.6980   79.1090  220.1790 C   0  0  0  0  0  0  0  0  0  0  0  0
  141.6810   77.7730  220.7370 C   0  0  1  0  0  0  0  0  0  0  0  0
  140.9770   77.5820  222.0910 C   0  0  0  0  0  0  0  0  0  0  0  0
  139.5120   77.7340  222.0850 C   0  0  0  0  0  0  0  0  0  0  0  0
  139.0080   79.1000  222.4500 C   0  0  0  0  0  0  0  0  0  0  0  0
  139.5090   79.3970  223.8360 C   0  0  0  0  0  0  0  0  0  0  0  0
  141.0010   79.4290  223.8320 C   0  0  0  0  0  0  0  0  0  0  0  0
  141.6870   78.2750  223.2150 C   0  0  0  0  0  0  0  0  0  0  0  0
  139.6000   71.6240  223.0860 C   0  0  0  0  0  0  0  0  0  0  0  0
  139.1830   70.3110  222.9900 C   0  0  0  0  0  0  0  0  0  0  0  0
  139.3560   69.3780  223.9790 C   0  0  0  0  0  0  0  0  0  0  0  0
  139.9880   69.7930  225.1370 C   0  0  0  0  0  0  0  0  0  0  0  0
  140.1820   68.8830  226.1570 C   0  0  0  0  0  0  0  0  0  0  0  0
  140.8100   69.3270  227.2880 C   0  0  0  0  0  0  0  0  0  0  0  0
  141.0610   68.1830  228.5890 Cl  0  0  0  0  0  0  0  0  0  0  0  0
  141.2310   70.6450  227.3890 C   0  0  0  0  0  0  0  0  0  0  0  0
  141.0360   71.5610  226.3620 C   0  0  0  0  0  0  0  0  0  0  0  0
  140.3940   71.1080  225.2060 C   0  0  0  0  0  0  0  0  0  0  0  0
  140.2080   71.9960  224.2170 N   0  0  0  0  0  0  0  0  0  0  0  0
  141.0220   73.8250  222.5790 H   0  0  0  0  0  0  0  0  0  0  0  0
  139.8425   74.1418  219.8690 H   0  0  0  0  0  0  0  0  0  0  0  0
  139.2676   75.3546  221.0498 H   0  0  0  0  0  0  0  0  0  0  0  0
  141.5628   75.3361  218.2926 H   0  0  0  0  0  0  0  0  0  0  0  0
  140.2207   76.5625  218.2484 H   0  0  0  0  0  0  0  0  0  0  0  0
  143.1443   77.3127  218.0247 H   0  0  0  0  0  0  0  0  0  0  0  0
  142.1443   76.9264  216.6062 H   0  0  0  0  0  0  0  0  0  0  0  0
  141.6217   79.1897  216.7683 H   0  0  0  0  0  0  0  0  0  0  0  0
  140.4120   78.5904  217.9315 H   0  0  0  0  0  0  0  0  0  0  0  0
  143.2697   79.1723  218.8007 H   0  0  0  0  0  0  0  0  0  0  0  0
  142.0102   80.4921  218.6670 H   0  0  0  0  0  0  0  0  0  0  0  0
  142.2980   79.7162  220.8727 H   0  0  0  0  0  0  0  0  0  0  0  0
  140.6222   79.3020  220.0551 H   0  0  0  0  0  0  0  0  0  0  0  0
  142.7701   77.7697  220.8914 H   0  0  0  0  0  0  0  0  0  0  0  0
  141.0758   76.5068  222.3011 H   0  0  0  0  0  0  0  0  0  0  0  0
  139.1497   77.4970  221.0738 H   0  0  0  0  0  0  0  0  0  0  0  0
  139.1320   77.0521  222.8600 H   0  0  0  0  0  0  0  0  0  0  0  0
  139.3937   79.8470  221.7406 H   0  0  0  0  0  0  0  0  0  0  0  0
  137.9092   79.1359  222.4135 H   0  0  0  0  0  0  0  0  0  0  0  0
  139.1226   80.3734  224.1637 H   0  0  0  0  0  0  0  0  0  0  0  0
  139.1619   78.6137  224.5259 H   0  0  0  0  0  0  0  0  0  0  0  0
  141.3137   80.3326  223.2882 H   0  0  0  0  0  0  0  0  0  0  0  0
  141.2938   79.4069  224.8921 H   0  0  0  0  0  0  0  0  0  0  0  0
  142.6528   78.6315  222.8276 H   0  0  0  0  0  0  0  0  0  0  0  0
  141.7569   77.5233  224.0150 H   0  0  0  0  0  0  0  0  0  0  0  0
  138.6815   69.9947  222.0635 H   0  0  0  0  0  0  0  0  0  0  0  0
  139.0067   68.3421  223.8568 H   0  0  0  0  0  0  0  0  0  0  0  0
  139.8443   67.8403  226.0636 H   0  0  0  0  0  0  0  0  0  0  0  0
  141.7344   70.9751  228.3097 H   0  0  0  0  0  0  0  0  0  0  0  0
  141.3743   72.6035  226.4555 H   0  0  0  0  0  0  0  0  0  0  0  0
  1  2  2  0
  2  3  1  0
  3  4  1  0
  4  5  1  0
  5  6  2  0
  5  7  1  0
  7  8  1  0
  8  9  1  0
  9 10  1  0
 10 11  1  0
 11 12  1  0
 12 13  1  0
 13 14  1  0
 14 15  1  0
 15 16  1  0
 16 17  1  0
 17 18  1  0
 18 19  1  0
  2 20  1  0
 20 21  2  0
 21 22  1  0
 22 23  2  0
 23 24  1  0
 24 25  2  0
 25 26  1  0
 25 27  1  0
 27 28  2  0
 28 29  1  0
 29 30  2  0
 13  7  1  0
 19 14  1  0
 30 20  1  0
 29 23  1  0
  3 31  1  0
  4 32  1  0
  4 33  1  0
  8 34  1  0
  8 35  1  0
  9 36  1  0
  9 37  1  0
 10 38  1  0
 10 39  1  0
 11 40  1  0
 11 41  1  0
 12 42  1  0
 12 43  1  0
 13 44  1  1
 14 45  1  0
 15 46  1  0
 15 47  1  0
 16 48  1  0
 16 49  1  0
 17 50  1  0
 17 51  1  0
 18 52  1  0
 18 53  1  0
 19 54  1  0
 19 55  1  0
 21 56  1  0
 22 57  1  0
 24 58  1  0
 27 59  1  0
 28 60  1  0
M  END
>  <smiles>  (84) 
O=C(NCC(=O)N1CCCCCC1C1CCCCC1)c1ccc2cc(Cl)ccc2n1

>  <score_type>  (84) 
oracle

>  <origin>  (84) 
autodockgpu

>  <m_score__min__energy>  (84) 
-6.6600000000000001

>  <m_primary>  (84) 
energy

>  <rmsd>  (84) 
1.9593095194439574

>  <m_score__min__rmsd>  (84) 
1.9593095194439574

>  <meeko>  (84) 
{"free_energy": -6.01, "intermolecular_energy": -9.29, "internal_energy": -2.42, "cluster_size": 30, "cluster_id": 1, "rank_in_cluster": 9}

>  <energy>  (84) 
-4.21

>  <cluster_rmsd>  (84) 
1.63

>  <cluster>  (84) 
2

$$$$

     RDKit          3D

 60 63  0  0  0  0  0  0  0  0999 V2000
  140.1550   72.4170  220.7470 O   0  0  0  0  0  0  0  0  0  0  0  0
  139.9420   72.8410  221.9110 C   0  0  0  0  0  0  0  0  0  0  0  0
  139.6500   74.1990  222.2140 N   0  0  0  0  0  0  0  0  0  0  0  0
  139.5800   75.1980  221.1650 C   0  0  0  0  0  0  0  0  0  0  0  0
  138.9830   76.4060  221.7220 C   0  0  0  0  0  0  0  0  0  0  0  0
  138.4660   76.3240  222.8830 O   0  0  0  0  0  0  0  0  0  0  0  0
  138.9570   77.6800  221.0070 N   0  0  0  0  0  0  0  0  0  0  0  0
  137.6080   77.9940  220.6050 C   0  0  0  0  0  0  0  0  0  0  0  0
  137.5490   79.1590  219.6630 C   0  0  0  0  0  0  0  0  0  0  0  0
  138.2370   80.3190  220.3520 C   0  0  0  0  0  0  0  0  0  0  0  0
  139.6110   80.4800  219.7160 C   0  0  0  0  0  0  0  0  0  0  0  0
  140.4940   79.3280  219.9220 C   0  0  0  0  0  0  0  0  0  0  0  0
  140.2450   78.2840  220.8950 C   0  0  1  0  0  0  0  0  0  0  0  0
  140.8600   78.4620  222.2930 C   0  0  0  0  0  0  0  0  0  0  0  0
  139.9910   79.0850  223.3060 C   0  0  0  0  0  0  0  0  0  0  0  0
  140.1540   80.5680  223.4660 C   0  0  0  0  0  0  0  0  0  0  0  0
  141.5860   80.8130  223.8560 C   0  0  0  0  0  0  0  0  0  0  0  0
  142.4880   80.3530  222.7600 C   0  0  0  0  0  0  0  0  0  0  0  0
  142.2640   78.9850  222.2470 C   0  0  0  0  0  0  0  0  0  0  0  0
  139.9960   71.8820  223.0260 C   0  0  0  0  0  0  0  0  0  0  0  0
  139.5160   70.5960  222.8770 C   0  0  0  0  0  0  0  0  0  0  0  0
  139.5340   69.6510  223.8700 C   0  0  0  0  0  0  0  0  0  0  0  0
  140.0690   70.0250  225.0890 C   0  0  0  0  0  0  0  0  0  0  0  0
  140.1060   69.1020  226.1150 C   0  0  0  0  0  0  0  0  0  0  0  0
  140.6410   69.5050  227.3070 C   0  0  0  0  0  0  0  0  0  0  0  0
  140.6920   68.3430  228.6160 Cl  0  0  0  0  0  0  0  0  0  0  0  0
  141.1240   70.7950  227.4630 C   0  0  0  0  0  0  0  0  0  0  0  0
  141.0880   71.7250  226.4300 C   0  0  0  0  0  0  0  0  0  0  0  0
  140.5410   71.3140  225.2100 C   0  0  0  0  0  0  0  0  0  0  0  0
  140.5070   72.2140  224.2160 N   0  0  0  0  0  0  0  0  0  0  0  0
  139.4810   74.4940  223.2150 H   0  0  0  0  0  0  0  0  0  0  0  0
  140.5917   75.4199  220.7946 H   0  0  0  0  0  0  0  0  0  0  0  0
  138.9714   74.8261  220.3276 H   0  0  0  0  0  0  0  0  0  0  0  0
  137.1740   77.1145  220.1068 H   0  0  0  0  0  0  0  0  0  0  0  0
  137.0429   78.2647  221.5091 H   0  0  0  0  0  0  0  0  0  0  0  0
  138.0694   78.9137  218.7254 H   0  0  0  0  0  0  0  0  0  0  0  0
  136.5076   79.4111  219.4143 H   0  0  0  0  0  0  0  0  0  0  0  0
  137.6497   81.2389  220.2150 H   0  0  0  0  0  0  0  0  0  0  0  0
  138.3299   80.1284  221.4314 H   0  0  0  0  0  0  0  0  0  0  0  0
  139.4779   80.6265  218.6340 H   0  0  0  0  0  0  0  0  0  0  0  0
  140.0904   81.3434  220.2004 H   0  0  0  0  0  0  0  0  0  0  0  0
  140.5551   78.8204  218.9480 H   0  0  0  0  0  0  0  0  0  0  0  0
  141.3783   79.8157  220.3580 H   0  0  0  0  0  0  0  0  0  0  0  0
  140.8352   77.5467  220.3310 H   0  0  0  0  0  0  0  0  0  0  0  0
  140.9432   77.4381  222.6864 H   0  0  0  0  0  0  0  0  0  0  0  0
  138.9460   78.8862  223.0259 H   0  0  0  0  0  0  0  0  0  0  0  0
  140.2809   78.6413  224.2699 H   0  0  0  0  0  0  0  0  0  0  0  0
  139.9282   81.0775  222.5176 H   0  0  0  0  0  0  0  0  0  0  0  0
  139.4664   80.9585  224.2307 H   0  0  0  0  0  0  0  0  0  0  0  0
  141.7395   81.8883  224.0296 H   0  0  0  0  0  0  0  0  0  0  0  0
  141.8149   80.2556  224.7762 H   0  0  0  0  0  0  0  0  0  0  0  0
  142.3696   81.0490  221.9165 H   0  0  0  0  0  0  0  0  0  0  0  0
  143.4950   80.3349  223.2023 H   0  0  0  0  0  0  0  0  0  0  0  0
  142.5905   78.9669  221.1967 H   0  0  0  0  0  0  0  0  0  0  0  0
  142.8349   78.3301  222.9216 H   0  0  0  0  0  0  0  0  0  0  0  0
  139.0933   70.3124  221.9019 H   0  0  0  0  0  0  0  0  0  0  0  0
  139.1394   68.6377  223.7040 H   0  0  0  0  0  0  0  0  0  0  0  0
  139.7197   68.0811  225.9787 H   0  0  0  0  0  0  0  0  0  0  0  0
  141.5486   71.0919  228.4334 H   0  0  0  0  0  0  0  0  0  0  0  0
  141.4751   72.7455  226.5670 H   0  0  0  0  0  0  0  0  0  0  0  0
  1  2  2  0
  2  3  1  0
  3  4  1  0
  4  5  1  0
  5  6  2  0
  5  7  1  0
  7  8  1  0
  8  9  1  0
  9 10  1  0
 10 11  1  0
 11 12  1  0
 12 13  1  0
 13 14  1  0
 14 15  1  0
 15 16  1  0
 16 17  1  0
 17 18  1  0
 18 19  1  0
  2 20  1  0
 20 21  2  0
 21 22  1  0
 22 23  2  0
 23 24  1  0
 24 25  2  0
 25 26  1  0
 25 27  1  0
 27 28  2  0
 28 29  1  0
 29 30  2  0
 13  7  1  0
 19 14  1  0
 30 20  1  0
 29 23  1  0
  3 31  1  0
  4 32  1  0
  4 33  1  0
  8 34  1  0
  8 35  1  0
  9 36  1  0
  9 37  1  0
 10 38  1  0
 10 39  1  0
 11 40  1  0
 11 41  1  0
 12 42  1  0
 12 43  1  0
 13 44  1  6
 14 45  1  0
 15 46  1  0
 15 47  1  0
 16 48  1  0
 16 49  1  0
 17 50  1  0
 17 51  1  0
 18 52  1  0
 18 53  1  0
 19 54  1  0
 19 55  1  0
 21 56  1  0
 22 57  1  0
 24 58  1  0
 27 59  1  0
 28 60  1  0
M  END
>  <smiles>  (85) 
O=C(NCC(=O)N1CCCCCC1C1CCCCC1)c1ccc2cc(Cl)ccc2n1

>  <score_type>  (85) 
oracle

>  <origin>  (85) 
autodockgpu

>  <m_score__min__energy>  (85) 
-6.6600000000000001

>  <m_primary>  (85) 
energy

>  <rmsd>  (85) 
2.5407079550903893

>  <m_score__min__rmsd>  (85) 
2.5407079550903893

>  <meeko>  (85) 
{"free_energy": -6.28, "intermolecular_energy": -9.56, "internal_energy": -2.5, "cluster_size": 30, "cluster_id": 1, "rank_in_cluster": 3}

>  <energy>  (85) 
-5.92

>  <cluster_rmsd>  (85) 
0.0

>  <cluster>  (85) 
3

$$$$

     RDKit          3D

 60 63  0  0  0  0  0  0  0  0999 V2000
  140.3840   72.4610  220.9000 O   0  0  0  0  0  0  0  0  0  0  0  0
  140.0250   72.8320  222.0460 C   0  0  0  0  0  0  0  0  0  0  0  0
  139.5910   74.1530  222.3470 N   0  0  0  0  0  0  0  0  0  0  0  0
  139.5350   75.1710  221.3150 C   0  0  0  0  0  0  0  0  0  0  0  0
  140.8200   75.8600  221.2820 C   0  0  0  0  0  0  0  0  0  0  0  0
  141.8710   75.1410  221.2550 O   0  0  0  0  0  0  0  0  0  0  0  0
  140.9390   77.3160  221.2810 N   0  0  0  0  0  0  0  0  0  0  0  0
  141.0490   77.8040  222.6330 C   0  0  0  0  0  0  0  0  0  0  0  0
  141.7590   79.1220  222.7090 C   0  0  0  0  0  0  0  0  0  0  0  0
  140.8320   80.1600  222.1130 C   0  0  0  0  0  0  0  0  0  0  0  0
  141.2220   80.3360  220.6510 C   0  0  0  0  0  0  0  0  0  0  0  0
  140.6930   79.2920  219.7680 C   0  0  0  0  0  0  0  0  0  0  0  0
  140.9240   77.8770  219.9680 C   0  0  1  0  0  0  0  0  0  0  0  0
  142.0080   77.2090  219.1050 C   0  0  0  0  0  0  0  0  0  0  0  0
  142.9100   78.1210  218.3800 C   0  0  0  0  0  0  0  0  0  0  0  0
  142.5120   78.4240  216.9650 C   0  0  0  0  0  0  0  0  0  0  0  0
  142.4730   77.1120  216.2290 C   0  0  0  0  0  0  0  0  0  0  0  0
  141.4340   76.2310  216.8350 C   0  0  0  0  0  0  0  0  0  0  0  0
  141.4820   76.0580  218.3020 C   0  0  0  0  0  0  0  0  0  0  0  0
  140.0560   71.8510  223.1420 C   0  0  0  0  0  0  0  0  0  0  0  0
  139.5770   70.5690  222.9570 C   0  0  0  0  0  0  0  0  0  0  0  0
  139.5740   69.6040  223.9300 C   0  0  0  0  0  0  0  0  0  0  0  0
  140.0840   69.9520  225.1680 C   0  0  0  0  0  0  0  0  0  0  0  0
  140.0990   69.0080  226.1750 C   0  0  0  0  0  0  0  0  0  0  0  0
  140.6100   69.3850  227.3860 C   0  0  0  0  0  0  0  0  0  0  0  0
  140.6340   68.1970  228.6720 Cl  0  0  0  0  0  0  0  0  0  0  0  0
  141.0920   70.6710  227.5780 C   0  0  0  0  0  0  0  0  0  0  0  0
  141.0780   71.6220  226.5640 C   0  0  0  0  0  0  0  0  0  0  0  0
  140.5550   71.2370  225.3250 C   0  0  0  0  0  0  0  0  0  0  0  0
  140.5430   72.1580  224.3490 N   0  0  0  0  0  0  0  0  0  0  0  0
  139.3030   74.4040  223.3320 H   0  0  0  0  0  0  0  0  0  0  0  0
  139.3394   74.7016  220.3396 H   0  0  0  0  0  0  0  0  0  0  0  0
  138.7270   75.8856  221.5306 H   0  0  0  0  0  0  0  0  0  0  0  0
  140.0376   77.9231  223.0489 H   0  0  0  0  0  0  0  0  0  0  0  0
  141.6373   77.0727  223.2066 H   0  0  0  0  0  0  0  0  0  0  0  0
  141.9811   79.3714  223.7571 H   0  0  0  0  0  0  0  0  0  0  0  0
  142.7120   79.0863  222.1609 H   0  0  0  0  0  0  0  0  0  0  0  0
  139.7891   79.8178  222.1850 H   0  0  0  0  0  0  0  0  0  0  0  0
  140.9183   81.1135  222.6547 H   0  0  0  0  0  0  0  0  0  0  0  0
  140.8415   81.3084  220.3051 H   0  0  0  0  0  0  0  0  0  0  0  0
  142.3190   80.2717  220.6019 H   0  0  0  0  0  0  0  0  0  0  0  0
  139.6006   79.4207  219.7730 H   0  0  0  0  0  0  0  0  0  0  0  0
  141.2742   79.4744  218.8521 H   0  0  0  0  0  0  0  0  0  0  0  0
  139.9323   77.6087  219.5748 H   0  0  0  0  0  0  0  0  0  0  0  0
  142.7007   76.7634  219.8341 H   0  0  0  0  0  0  0  0  0  0  0  0
  142.9494   79.0710  218.9330 H   0  0  0  0  0  0  0  0  0  0  0  0
  143.8802   77.6061  218.3201 H   0  0  0  0  0  0  0  0  0  0  0  0
  141.5197   78.8982  216.9449 H   0  0  0  0  0  0  0  0  0  0  0  0
  143.2263   79.1165  216.4958 H   0  0  0  0  0  0  0  0  0  0  0  0
  142.2292   77.2922  215.1716 H   0  0  0  0  0  0  0  0  0  0  0  0
  143.4554   76.6225  216.3014 H   0  0  0  0  0  0  0  0  0  0  0  0
  140.4503   76.6530  216.5814 H   0  0  0  0  0  0  0  0  0  0  0  0
  141.6264   75.2306  216.4201 H   0  0  0  0  0  0  0  0  0  0  0  0
  140.4573   75.8540  218.6460 H   0  0  0  0  0  0  0  0  0  0  0  0
  142.1985   75.2405  218.4704 H   0  0  0  0  0  0  0  0  0  0  0  0
  139.1731   70.3064  221.9681 H   0  0  0  0  0  0  0  0  0  0  0  0
  139.1824   68.5948  223.7348 H   0  0  0  0  0  0  0  0  0  0  0  0
  139.7144   67.9908  226.0095 H   0  0  0  0  0  0  0  0  0  0  0  0
  141.4977   70.9470  228.5625 H   0  0  0  0  0  0  0  0  0  0  0  0
  141.4636   72.6388  226.7297 H   0  0  0  0  0  0  0  0  0  0  0  0
  1  2  2  0
  2  3  1  0
  3  4  1  0
  4  5  1  0
  5  6  2  0
  5  7  1  0
  7  8  1  0
  8  9  1  0
  9 10  1  0
 10 11  1  0
 11 12  1  0
 12 13  1  0
 13 14  1  0
 14 15  1  0
 15 16  1  0
 16 17  1  0
 17 18  1  0
 18 19  1  0
  2 20  1  0
 20 21  2  0
 21 22  1  0
 22 23  2  0
 23 24  1  0
 24 25  2  0
 25 26  1  0
 25 27  1  0
 27 28  2  0
 28 29  1  0
 29 30  2  0
 13  7  1  0
 19 14  1  0
 30 20  1  0
 29 23  1  0
  3 31  1  0
  4 32  1  0
  4 33  1  0
  8 34  1  0
  8 35  1  0
  9 36  1  0
  9 37  1  0
 10 38  1  0
 10 39  1  0
 11 40  1  0
 11 41  1  0
 12 42  1  0
 12 43  1  0
 13 44  1  6
 14 45  1  0
 15 46  1  0
 15 47  1  0
 16 48  1  0
 16 49  1  0
 17 50  1  0
 17 51  1  0
 18 52  1  0
 18 53  1  0
 19 54  1  0
 19 55  1  0
 21 56  1  0
 22 57  1  0
 24 58  1  0
 27 59  1  0
 28 60  1  0
M  END
>  <smiles>  (86) 
O=C(NCC(=O)N1CCCCCC1C1CCCCC1)c1ccc2cc(Cl)ccc2n1

>  <score_type>  (86) 
oracle

>  <origin>  (86) 
autodockgpu

>  <m_score__min__energy>  (86) 
-6.6600000000000001

>  <m_primary>  (86) 
energy

>  <rmsd>  (86) 
3.042570368198241

>  <m_score__min__rmsd>  (86) 
3.042570368198241

>  <meeko>  (86) 
{"free_energy": -6.11, "intermolecular_energy": -9.39, "internal_energy": -1.65, "cluster_size": 30, "cluster_id": 1, "rank_in_cluster": 5}

>  <energy>  (86) 
-5.82

>  <cluster_rmsd>  (86) 
0.9

>  <cluster>  (86) 
3

$$$$

     RDKit          3D

 60 63  0  0  0  0  0  0  0  0999 V2000
  138.5670   71.8850  220.9450 O   0  0  0  0  0  0  0  0  0  0  0  0
  139.2980   72.2830  221.8880 C   0  0  0  0  0  0  0  0  0  0  0  0
  139.9540   73.5440  221.8980 N   0  0  0  0  0  0  0  0  0  0  0  0
  139.8100   74.4680  220.7900 C   0  0  0  0  0  0  0  0  0  0  0  0
  140.6770   75.6150  221.0330 C   0  0  0  0  0  0  0  0  0  0  0  0
  141.5000   75.5340  222.0020 O   0  0  0  0  0  0  0  0  0  0  0  0
  140.6330   76.8300  220.2220 N   0  0  0  0  0  0  0  0  0  0  0  0
  139.9930   76.5560  218.9590 C   0  0  0  0  0  0  0  0  0  0  0  0
  140.3000   77.5990  217.9260 C   0  0  0  0  0  0  0  0  0  0  0  0
  141.7840   77.8840  218.0120 C   0  0  0  0  0  0  0  0  0  0  0  0
  141.9550   79.2040  218.7500 C   0  0  0  0  0  0  0  0  0  0  0  0
  141.4890   79.1780  220.1410 C   0  0  0  0  0  0  0  0  0  0  0  0
  141.2160   77.9580  220.8730 C   0  0  1  0  0  0  0  0  0  0  0  0
  140.6330   78.1000  222.2890 C   0  0  0  0  0  0  0  0  0  0  0  0
  139.2110   78.4750  222.3680 C   0  0  0  0  0  0  0  0  0  0  0  0
  138.9440   79.9430  222.5260 C   0  0  0  0  0  0  0  0  0  0  0  0
  139.6190   80.3790  223.7970 C   0  0  0  0  0  0  0  0  0  0  0  0
  141.0920   80.1760  223.6740 C   0  0  0  0  0  0  0  0  0  0  0  0
  141.5440   78.8450  223.2180 C   0  0  0  0  0  0  0  0  0  0  0  0
  139.4890   71.3970  223.0470 C   0  0  0  0  0  0  0  0  0  0  0  0
  139.0300   70.0950  223.0250 C   0  0  0  0  0  0  0  0  0  0  0  0
  139.1720   69.2140  224.0660 C   0  0  0  0  0  0  0  0  0  0  0  0
  139.8160   69.6740  225.2000 C   0  0  0  0  0  0  0  0  0  0  0  0
  139.9790   68.8180  226.2700 C   0  0  0  0  0  0  0  0  0  0  0  0
  140.6200   69.3050  227.3750 C   0  0  0  0  0  0  0  0  0  0  0  0
  140.8330   68.2280  228.7400 Cl  0  0  0  0  0  0  0  0  0  0  0  0
  141.0830   70.6120  227.4040 C   0  0  0  0  0  0  0  0  0  0  0  0
  140.9190   71.4740  226.3260 C   0  0  0  0  0  0  0  0  0  0  0  0
  140.2640   70.9770  225.1950 C   0  0  0  0  0  0  0  0  0  0  0  0
  140.1070   71.8130  224.1570 N   0  0  0  0  0  0  0  0  0  0  0  0
  140.5560   73.8210  222.7210 H   0  0  0  0  0  0  0  0  0  0  0  0
  140.1028   73.9727  219.8525 H   0  0  0  0  0  0  0  0  0  0  0  0
  138.7635   74.7960  220.7044 H   0  0  0  0  0  0  0  0  0  0  0  0
  140.3416   75.5800  218.5904 H   0  0  0  0  0  0  0  0  0  0  0  0
  138.9057   76.5581  219.1258 H   0  0  0  0  0  0  0  0  0  0  0  0
  140.0448   77.2246  216.9237 H   0  0  0  0  0  0  0  0  0  0  0  0
  139.7139   78.5126  218.1045 H   0  0  0  0  0  0  0  0  0  0  0  0
  142.2899   77.0775  218.5630 H   0  0  0  0  0  0  0  0  0  0  0  0
  142.2259   77.9426  217.0064 H   0  0  0  0  0  0  0  0  0  0  0  0
  143.0237   79.4645  218.7487 H   0  0  0  0  0  0  0  0  0  0  0  0
  141.3362   79.9447  218.2222 H   0  0  0  0  0  0  0  0  0  0  0  0
  142.2537   79.7126  220.7236 H   0  0  0  0  0  0  0  0  0  0  0  0
  140.4762   79.5937  220.0343 H   0  0  0  0  0  0  0  0  0  0  0  0
  142.2832   77.7016  220.9456 H   0  0  0  0  0  0  0  0  0  0  0  0
  140.6000   77.0707  222.6755 H   0  0  0  0  0  0  0  0  0  0  0  0
  138.7184   78.1373  221.4442 H   0  0  0  0  0  0  0  0  0  0  0  0
  138.8192   77.9945  223.2766 H   0  0  0  0  0  0  0  0  0  0  0  0
  139.3574   80.4963  221.6699 H   0  0  0  0  0  0  0  0  0  0  0  0
  137.8631   80.1429  222.5674 H   0  0  0  0  0  0  0  0  0  0  0  0
  139.4095   81.4438  223.9765 H   0  0  0  0  0  0  0  0  0  0  0  0
  139.2361   79.7825  224.6382 H   0  0  0  0  0  0  0  0  0  0  0  0
  141.4721   80.9200  222.9585 H   0  0  0  0  0  0  0  0  0  0  0  0
  141.4838   80.2790  224.6967 H   0  0  0  0  0  0  0  0  0  0  0  0
  142.5063   78.9796  222.7024 H   0  0  0  0  0  0  0  0  0  0  0  0
  141.5892   78.2302  224.1290 H   0  0  0  0  0  0  0  0  0  0  0  0
  138.5191   69.7429  222.1167 H   0  0  0  0  0  0  0  0  0  0  0  0
  138.7897   68.1846  224.0018 H   0  0  0  0  0  0  0  0  0  0  0  0
  139.6074   67.7833  226.2352 H   0  0  0  0  0  0  0  0  0  0  0  0
  141.5950   70.9771  228.3065 H   0  0  0  0  0  0  0  0  0  0  0  0
  141.2907   72.5087  226.3613 H   0  0  0  0  0  0  0  0  0  0  0  0
  1  2  2  0
  2  3  1  0
  3  4  1  0
  4  5  1  0
  5  6  2  0
  5  7  1  0
  7  8  1  0
  8  9  1  0
  9 10  1  0
 10 11  1  0
 11 12  1  0
 12 13  1  0
 13 14  1  0
 14 15  1  0
 15 16  1  0
 16 17  1  0
 17 18  1  0
 18 19  1  0
  2 20  1  0
 20 21  2  0
 21 22  1  0
 22 23  2  0
 23 24  1  0
 24 25  2  0
 25 26  1  0
 25 27  1  0
 27 28  2  0
 28 29  1  0
 29 30  2  0
 13  7  1  0
 19 14  1  0
 30 20  1  0
 29 23  1  0
  3 31  1  0
  4 32  1  0
  4 33  1  0
  8 34  1  0
  8 35  1  0
  9 36  1  0
  9 37  1  0
 10 38  1  0
 10 39  1  0
 11 40  1  0
 11 41  1  0
 12 42  1  0
 12 43  1  0
 13 44  1  1
 14 45  1  0
 15 46  1  0
 15 47  1  0
 16 48  1  0
 16 49  1  0
 17 50  1  0
 17 51  1  0
 18 52  1  0
 18 53  1  0
 19 54  1  0
 19 55  1  0
 21 56  1  0
 22 57  1  0
 24 58  1  0
 27 59  1  0
 28 60  1  0
M  END
>  <smiles>  (87) 
O=C(NCC(=O)N1CCCCCC1C1CCCCC1)c1ccc2cc(Cl)ccc2n1

>  <score_type>  (87) 
oracle

>  <origin>  (87) 
autodockgpu

>  <m_score__min__energy>  (87) 
-6.6600000000000001

>  <m_primary>  (87) 
energy

>  <rmsd>  (87) 
1.606576174299555

>  <m_score__min__rmsd>  (87) 
1.606576174299555

>  <meeko>  (87) 
{"free_energy": -5.73, "intermolecular_energy": -9.01, "internal_energy": -2.38, "cluster_size": 30, "cluster_id": 1, "rank_in_cluster": 13}

>  <energy>  (87) 
-5.55

>  <cluster_rmsd>  (87) 
0.95

>  <cluster>  (87) 
3

$$$$

     RDKit          3D

 60 63  0  0  0  0  0  0  0  0999 V2000
  138.2790   70.9010  220.9340 O   0  0  0  0  0  0  0  0  0  0  0  0
  138.9380   71.4510  221.8530 C   0  0  0  0  0  0  0  0  0  0  0  0
  139.4320   72.7820  221.7810 N   0  0  0  0  0  0  0  0  0  0  0  0
  139.1950   73.6020  220.6090 C   0  0  0  0  0  0  0  0  0  0  0  0
  140.4090   73.6090  219.8010 C   0  0  0  0  0  0  0  0  0  0  0  0
  140.2730   73.6760  218.5360 O   0  0  0  0  0  0  0  0  0  0  0  0
  141.7490   73.5410  220.3820 N   0  0  0  0  0  0  0  0  0  0  0  0
  142.0800   72.1740  220.7010 C   0  0  0  0  0  0  0  0  0  0  0  0
  143.4230   71.7740  220.1680 C   0  0  0  0  0  0  0  0  0  0  0  0
  144.4490   72.6580  220.8440 C   0  0  0  0  0  0  0  0  0  0  0  0
  144.6980   73.8510  219.9320 C   0  0  0  0  0  0  0  0  0  0  0  0
  143.7860   74.9750  220.1670 C   0  0  0  0  0  0  0  0  0  0  0  0
  142.3810   74.8170  220.4790 C   0  0  1  0  0  0  0  0  0  0  0  0
  141.4200   75.9120  219.9860 C   0  0  0  0  0  0  0  0  0  0  0  0
  141.7500   76.5240  218.6870 C   0  0  0  0  0  0  0  0  0  0  0  0
  142.5470   77.7930  218.7610 C   0  0  0  0  0  0  0  0  0  0  0  0
  141.7330   78.7780  219.5550 C   0  0  0  0  0  0  0  0  0  0  0  0
  141.5370   78.2610  220.9400 C   0  0  0  0  0  0  0  0  0  0  0  0
  141.0360   76.8760  221.0680 C   0  0  0  0  0  0  0  0  0  0  0  0
  139.2160   70.6780  223.0740 C   0  0  0  0  0  0  0  0  0  0  0  0
  138.8260   69.3570  223.1790 C   0  0  0  0  0  0  0  0  0  0  0  0
  139.0510   68.5770  224.2820 C   0  0  0  0  0  0  0  0  0  0  0  0
  139.7090   69.1630  225.3480 C   0  0  0  0  0  0  0  0  0  0  0  0
  139.9550   68.4100  226.4790 C   0  0  0  0  0  0  0  0  0  0  0  0
  140.6080   69.0210  227.5140 C   0  0  0  0  0  0  0  0  0  0  0  0
  140.9250   68.0770  228.9540 Cl  0  0  0  0  0  0  0  0  0  0  0  0
  141.0010   70.3470  227.4150 C   0  0  0  0  0  0  0  0  0  0  0  0
  140.7530   71.1060  226.2760 C   0  0  0  0  0  0  0  0  0  0  0  0
  140.0860   70.4820  225.2170 C   0  0  0  0  0  0  0  0  0  0  0  0
  139.8500   71.2170  224.1200 N   0  0  0  0  0  0  0  0  0  0  0  0
  139.9800   73.1880  222.5880 H   0  0  0  0  0  0  0  0  0  0  0  0
  138.3620   73.1838  220.0249 H   0  0  0  0  0  0  0  0  0  0  0  0
  138.9349   74.6274  220.9106 H   0  0  0  0  0  0  0  0  0  0  0  0
  142.0845   72.0572  221.7948 H   0  0  0  0  0  0  0  0  0  0  0  0
  141.3251   71.5267  220.2307 H   0  0  0  0  0  0  0  0  0  0  0  0
  143.6225   70.7176  220.4010 H   0  0  0  0  0  0  0  0  0  0  0  0
  143.4625   71.8921  219.0751 H   0  0  0  0  0  0  0  0  0  0  0  0
  144.0660   73.0020  221.8161 H   0  0  0  0  0  0  0  0  0  0  0  0
  145.3826   72.1033  221.0194 H   0  0  0  0  0  0  0  0  0  0  0  0
  145.7285   74.2010  220.0920 H   0  0  0  0  0  0  0  0  0  0  0  0
  144.5256   73.5082  218.9011 H   0  0  0  0  0  0  0  0  0  0  0  0
  144.2175   75.5409  221.0058 H   0  0  0  0  0  0  0  0  0  0  0  0
  143.7321   75.4189  219.1620 H   0  0  0  0  0  0  0  0  0  0  0  0
  142.5546   74.9473  221.5574 H   0  0  0  0  0  0  0  0  0  0  0  0
  140.4953   75.3715  219.7354 H   0  0  0  0  0  0  0  0  0  0  0  0
  142.3287   75.7926  218.1038 H   0  0  0  0  0  0  0  0  0  0  0  0
  140.7891   76.7944  218.2249 H   0  0  0  0  0  0  0  0  0  0  0  0
  143.5084   77.6066  219.2620 H   0  0  0  0  0  0  0  0  0  0  0  0
  142.7608   78.1816  217.7544 H   0  0  0  0  0  0  0  0  0  0  0  0
  142.2614   79.7420  219.5951 H   0  0  0  0  0  0  0  0  0  0  0  0
  140.7535   78.9157  219.0736 H   0  0  0  0  0  0  0  0  0  0  0  0
  142.5073   78.3132  221.4555 H   0  0  0  0  0  0  0  0  0  0  0  0
  140.7500   78.8941  221.3757 H   0  0  0  0  0  0  0  0  0  0  0  0
  141.4120   76.4735  222.0202 H   0  0  0  0  0  0  0  0  0  0  0  0
  139.9413   76.9603  221.0010 H   0  0  0  0  0  0  0  0  0  0  0  0
  138.3026   68.9037  222.3242 H   0  0  0  0  0  0  0  0  0  0  0  0
  138.7220   67.5280  224.3185 H   0  0  0  0  0  0  0  0  0  0  0  0
  139.6379   67.3588  226.5451 H   0  0  0  0  0  0  0  0  0  0  0  0
  141.5247   70.8128  228.2628 H   0  0  0  0  0  0  0  0  0  0  0  0
  141.0696   72.1574  226.2107 H   0  0  0  0  0  0  0  0  0  0  0  0
  1  2  2  0
  2  3  1  0
  3  4  1  0
  4  5  1  0
  5  6  2  0
  5  7  1  0
  7  8  1  0
  8  9  1  0
  9 10  1  0
 10 11  1  0
 11 12  1  0
 12 13  1  0
 13 14  1  0
 14 15  1  0
 15 16  1  0
 16 17  1  0
 17 18  1  0
 18 19  1  0
  2 20  1  0
 20 21  2  0
 21 22  1  0
 22 23  2  0
 23 24  1  0
 24 25  2  0
 25 26  1  0
 25 27  1  0
 27 28  2  0
 28 29  1  0
 29 30  2  0
 13  7  1  0
 19 14  1  0
 30 20  1  0
 29 23  1  0
  3 31  1  0
  4 32  1  0
  4 33  1  0
  8 34  1  0
  8 35  1  0
  9 36  1  0
  9 37  1  0
 10 38  1  0
 10 39  1  0
 11 40  1  0
 11 41  1  0
 12 42  1  0
 12 43  1  0
 13 44  1  1
 14 45  1  0
 15 46  1  0
 15 47  1  0
 16 48  1  0
 16 49  1  0
 17 50  1  0
 17 51  1  0
 18 52  1  0
 18 53  1  0
 19 54  1  0
 19 55  1  0
 21 56  1  0
 22 57  1  0
 24 58  1  0
 27 59  1  0
 28 60  1  0
M  END
>  <smiles>  (88) 
O=C(NCC(=O)N1CCCCCC1C1CCCCC1)c1ccc2cc(Cl)ccc2n1

>  <score_type>  (88) 
oracle

>  <origin>  (88) 
autodockgpu

>  <m_score__min__energy>  (88) 
-6.6600000000000001

>  <m_primary>  (88) 
energy

>  <rmsd>  (88) 
2.7920625304694395

>  <m_score__min__rmsd>  (88) 
2.7920625304694395

>  <meeko>  (88) 
{"free_energy": -5.42, "intermolecular_energy": -8.7, "internal_energy": -2.08, "cluster_size": 7, "cluster_id": 3, "rank_in_cluster": 4}

>  <energy>  (88) 
-5.42

>  <cluster_rmsd>  (88) 
1.08

>  <cluster>  (88) 
3

$$$$

     RDKit          3D

 60 63  0  0  0  0  0  0  0  0999 V2000
  139.8850   71.9550  220.7660 O   0  0  0  0  0  0  0  0  0  0  0  0
  139.7700   72.4500  221.9160 C   0  0  0  0  0  0  0  0  0  0  0  0
  139.5730   73.8370  222.1610 N   0  0  0  0  0  0  0  0  0  0  0  0
  139.4910   74.7820  221.0640 C   0  0  0  0  0  0  0  0  0  0  0  0
  140.0490   76.0530  221.5120 C   0  0  0  0  0  0  0  0  0  0  0  0
  140.4380   76.1300  222.7220 O   0  0  0  0  0  0  0  0  0  0  0  0
  140.1720   77.2180  220.6370 N   0  0  0  0  0  0  0  0  0  0  0  0
  139.8880   76.8440  219.2740 C   0  0  0  0  0  0  0  0  0  0  0  0
  140.9540   77.2990  218.3230 C   0  0  0  0  0  0  0  0  0  0  0  0
  140.9400   78.8130  218.3340 C   0  0  0  0  0  0  0  0  0  0  0  0
  141.9440   79.2730  219.3830 C   0  0  0  0  0  0  0  0  0  0  0  0
  141.3750   79.4080  220.7240 C   0  0  0  0  0  0  0  0  0  0  0  0
  140.5270   78.4090  221.3390 C   0  0  1  0  0  0  0  0  0  0  0  0
  139.3250   78.9090  222.1570 C   0  0  0  0  0  0  0  0  0  0  0  0
  138.3750   79.7790  221.4420 C   0  0  0  0  0  0  0  0  0  0  0  0
  138.6090   81.2520  221.6030 C   0  0  0  0  0  0  0  0  0  0  0  0
  138.5130   81.5550  223.0740 C   0  0  0  0  0  0  0  0  0  0  0  0
  139.5870   80.8220  223.8050 C   0  0  0  0  0  0  0  0  0  0  0  0
  139.7110   79.3750  223.5290 C   0  0  0  0  0  0  0  0  0  0  0  0
  139.8430   71.5490  223.0770 C   0  0  0  0  0  0  0  0  0  0  0  0
  139.4050   70.2430  222.9870 C   0  0  0  0  0  0  0  0  0  0  0  0
  139.4420   69.3490  224.0250 C   0  0  0  0  0  0  0  0  0  0  0  0
  139.9520   69.7980  225.2290 C   0  0  0  0  0  0  0  0  0  0  0  0
  140.0070   68.9280  226.3000 C   0  0  0  0  0  0  0  0  0  0  0  0
  140.5170   69.4050  227.4750 C   0  0  0  0  0  0  0  0  0  0  0  0
  140.5910   68.3110  228.8400 Cl  0  0  0  0  0  0  0  0  0  0  0  0
  140.9580   70.7160  227.5720 C   0  0  0  0  0  0  0  0  0  0  0  0
  140.9030   71.5930  226.4940 C   0  0  0  0  0  0  0  0  0  0  0  0
  140.3820   71.1060  225.2920 C   0  0  0  0  0  0  0  0  0  0  0  0
  140.3310   71.9550  224.2540 N   0  0  0  0  0  0  0  0  0  0  0  0
  139.4850   74.1930  223.1520 H   0  0  0  0  0  0  0  0  0  0  0  0
  140.0658   74.4055  220.2050 H   0  0  0  0  0  0  0  0  0  0  0  0
  138.4434   74.9154  220.7561 H   0  0  0  0  0  0  0  0  0  0  0  0
  139.8083   75.7483  219.2175 H   0  0  0  0  0  0  0  0  0  0  0  0
  138.9466   77.3320  218.9813 H   0  0  0  0  0  0  0  0  0  0  0  0
  141.9362   76.9279  218.6509 H   0  0  0  0  0  0  0  0  0  0  0  0
  140.7679   76.9120  217.3103 H   0  0  0  0  0  0  0  0  0  0  0  0
  141.2275   79.1984  217.3446 H   0  0  0  0  0  0  0  0  0  0  0  0
  139.9336   79.1892  218.5699 H   0  0  0  0  0  0  0  0  0  0  0  0
  142.7623   78.5392  219.4255 H   0  0  0  0  0  0  0  0  0  0  0  0
  142.2905   80.2719  219.0793 H   0  0  0  0  0  0  0  0  0  0  0  0
  142.2319   79.5330  221.4023 H   0  0  0  0  0  0  0  0  0  0  0  0
  140.6599   80.2296  220.5706 H   0  0  0  0  0  0  0  0  0  0  0  0
  141.3221   78.0855  222.0268 H   0  0  0  0  0  0  0  0  0  0  0  0
  138.7102   78.0109  222.3166 H   0  0  0  0  0  0  0  0  0  0  0  0
  138.4362   79.5403  220.3700 H   0  0  0  0  0  0  0  0  0  0  0  0
  137.3873   79.5779  221.8825 H   0  0  0  0  0  0  0  0  0  0  0  0
  139.6075   81.5192  221.2267 H   0  0  0  0  0  0  0  0  0  0  0  0
  137.8674   81.8316  221.0338 H   0  0  0  0  0  0  0  0  0  0  0  0
  138.6334   82.6366  223.2340 H   0  0  0  0  0  0  0  0  0  0  0  0
  137.5301   81.2352  223.4503 H   0  0  0  0  0  0  0  0  0  0  0  0
  140.5468   81.2936  223.5474 H   0  0  0  0  0  0  0  0  0  0  0  0
  139.3112   80.8904  224.8676 H   0  0  0  0  0  0  0  0  0  0  0  0
  140.7623   79.0950  223.6912 H   0  0  0  0  0  0  0  0  0  0  0  0
  138.9929   78.8918  224.2078 H   0  0  0  0  0  0  0  0  0  0  0  0
  139.0016   69.8989  222.0232 H   0  0  0  0  0  0  0  0  0  0  0  0
  139.0809   68.3169  223.9052 H   0  0  0  0  0  0  0  0  0  0  0  0
  139.6537   67.8901  226.2109 H   0  0  0  0  0  0  0  0  0  0  0  0
  141.3634   71.0731  228.5302 H   0  0  0  0  0  0  0  0  0  0  0  0
  141.2562   72.6308  226.5840 H   0  0  0  0  0  0  0  0  0  0  0  0
  1  2  2  0
  2  3  1  0
  3  4  1  0
  4  5  1  0
  5  6  2  0
  5  7  1  0
  7  8  1  0
  8  9  1  0
  9 10  1  0
 10 11  1  0
 11 12  1  0
 12 13  1  0
 13 14  1  0
 14 15  1  0
 15 16  1  0
 16 17  1  0
 17 18  1  0
 18 19  1  0
  2 20  1  0
 20 21  2  0
 21 22  1  0
 22 23  2  0
 23 24  1  0
 24 25  2  0
 25 26  1  0
 25 27  1  0
 27 28  2  0
 28 29  1  0
 29 30  2  0
 13  7  1  0
 19 14  1  0
 30 20  1  0
 29 23  1  0
  3 31  1  0
  4 32  1  0
  4 33  1  0
  8 34  1  0
  8 35  1  0
  9 36  1  0
  9 37  1  0
 10 38  1  0
 10 39  1  0
 11 40  1  0
 11 41  1  0
 12 42  1  0
 12 43  1  0
 13 44  1  1
 14 45  1  0
 15 46  1  0
 15 47  1  0
 16 48  1  0
 16 49  1  0
 17 50  1  0
 17 51  1  0
 18 52  1  0
 18 53  1  0
 19 54  1  0
 19 55  1  0
 21 56  1  0
 22 57  1  0
 24 58  1  0
 27 59  1  0
 28 60  1  0
M  END
>  <smiles>  (89) 
O=C(NCC(=O)N1CCCCCC1C1CCCCC1)c1ccc2cc(Cl)ccc2n1

>  <score_type>  (89) 
oracle

>  <origin>  (89) 
autodockgpu

>  <m_score__min__energy>  (89) 
-6.6600000000000001

>  <m_primary>  (89) 
energy

>  <rmsd>  (89) 
1.9352497526298036

>  <m_score__min__rmsd>  (89) 
1.9352497526298036

>  <meeko>  (89) 
{"free_energy": -5.46, "intermolecular_energy": -8.74, "internal_energy": -2.35, "cluster_size": 30, "cluster_id": 1, "rank_in_cluster": 20}

>  <energy>  (89) 
-5.28

>  <cluster_rmsd>  (89) 
0.83

>  <cluster>  (89) 
3

$$$$

     RDKit          3D

 60 63  0  0  0  0  0  0  0  0999 V2000
  138.4300   72.7190  220.8560 O   0  0  0  0  0  0  0  0  0  0  0  0
  139.5040   72.7210  221.5100 C   0  0  0  0  0  0  0  0  0  0  0  0
  140.6210   73.5400  221.1880 N   0  0  0  0  0  0  0  0  0  0  0  0
  140.5800   74.4440  220.0550 C   0  0  0  0  0  0  0  0  0  0  0  0
  141.7120   75.3570  220.1560 C   0  0  0  0  0  0  0  0  0  0  0  0
  142.7570   74.9340  220.7510 O   0  0  0  0  0  0  0  0  0  0  0  0
  141.6900   76.7130  219.6100 N   0  0  0  0  0  0  0  0  0  0  0  0
  141.6420   76.6640  218.1690 C   0  0  0  0  0  0  0  0  0  0  0  0
  140.8260   77.7800  217.5880 C   0  0  0  0  0  0  0  0  0  0  0  0
  141.6300   79.0510  217.7600 C   0  0  0  0  0  0  0  0  0  0  0  0
  141.1840   79.7020  219.0630 C   0  0  0  0  0  0  0  0  0  0  0  0
  141.8020   79.1230  220.2660 C   0  0  0  0  0  0  0  0  0  0  0  0
  141.7130   77.7220  220.6190 C   0  0  1  0  0  0  0  0  0  0  0  0
  140.7540   77.3400  221.7590 C   0  0  0  0  0  0  0  0  0  0  0  0
  139.3550   77.0910  221.3700 C   0  0  0  0  0  0  0  0  0  0  0  0
  138.4340   78.2680  221.5030 C   0  0  0  0  0  0  0  0  0  0  0  0
  138.4560   78.6820  222.9490 C   0  0  0  0  0  0  0  0  0  0  0  0
  139.8340   79.1150  223.3230 C   0  0  0  0  0  0  0  0  0  0  0  0
  140.9360   78.1930  222.9790 C   0  0  0  0  0  0  0  0  0  0  0  0
  139.6170   71.8280  222.6730 C   0  0  0  0  0  0  0  0  0  0  0  0
  139.0960   70.5490  222.6370 C   0  0  0  0  0  0  0  0  0  0  0  0
  139.1640   69.6640  223.6810 C   0  0  0  0  0  0  0  0  0  0  0  0
  139.7950   70.0920  224.8340 C   0  0  0  0  0  0  0  0  0  0  0  0
  139.8840   69.2300  225.9080 C   0  0  0  0  0  0  0  0  0  0  0  0
  140.5150   69.6860  227.0320 C   0  0  0  0  0  0  0  0  0  0  0  0
  140.6340   68.6020  228.4020 Cl  0  0  0  0  0  0  0  0  0  0  0  0
  141.0400   70.9690  227.0750 C   0  0  0  0  0  0  0  0  0  0  0  0
  140.9500   71.8380  225.9930 C   0  0  0  0  0  0  0  0  0  0  0  0
  140.3060   71.3730  224.8440 C   0  0  0  0  0  0  0  0  0  0  0  0
  140.2210   72.2140  223.8010 N   0  0  0  0  0  0  0  0  0  0  0  0
  141.4970   73.4950  221.7760 H   0  0  0  0  0  0  0  0  0  0  0  0
  140.6474   73.8703  219.1189 H   0  0  0  0  0  0  0  0  0  0  0  0
  139.6363   75.0092  220.0554 H   0  0  0  0  0  0  0  0  0  0  0  0
  142.6678   76.7355  217.7784 H   0  0  0  0  0  0  0  0  0  0  0  0
  141.1672   75.7147  217.8804 H   0  0  0  0  0  0  0  0  0  0  0  0
  140.6371   77.5939  216.5204 H   0  0  0  0  0  0  0  0  0  0  0  0
  139.8524   77.8595  218.0938 H   0  0  0  0  0  0  0  0  0  0  0  0
  142.7030   78.8132  217.8070 H   0  0  0  0  0  0  0  0  0  0  0  0
  141.4660   79.7311  216.9111 H   0  0  0  0  0  0  0  0  0  0  0  0
  141.4429   80.7703  219.0217 H   0  0  0  0  0  0  0  0  0  0  0  0
  140.1009   79.5303  219.1489 H   0  0  0  0  0  0  0  0  0  0  0  0
  142.8766   79.3446  220.1872 H   0  0  0  0  0  0  0  0  0  0  0  0
  141.1932   79.5813  221.0593 H   0  0  0  0  0  0  0  0  0  0  0  0
  142.7469   77.6997  220.9938 H   0  0  0  0  0  0  0  0  0  0  0  0
  141.0728   76.3305  222.0578 H   0  0  0  0  0  0  0  0  0  0  0  0
  139.3467   76.7700  220.3179 H   0  0  0  0  0  0  0  0  0  0  0  0
  138.9766   76.3281  222.0662 H   0  0  0  0  0  0  0  0  0  0  0  0
  138.7838   79.0951  220.8678 H   0  0  0  0  0  0  0  0  0  0  0  0
  137.4140   78.0064  221.1849 H   0  0  0  0  0  0  0  0  0  0  0  0
  137.7556   79.5163  223.1019 H   0  0  0  0  0  0  0  0  0  0  0  0
  138.1564   77.8308  223.5781 H   0  0  0  0  0  0  0  0  0  0  0  0
  140.0309   80.0725  222.8185 H   0  0  0  0  0  0  0  0  0  0  0  0
  139.8325   79.1661  224.4218 H   0  0  0  0  0  0  0  0  0  0  0  0
  141.8412   78.7995  222.8279 H   0  0  0  0  0  0  0  0  0  0  0  0
  140.9879   77.4839  223.8183 H   0  0  0  0  0  0  0  0  0  0  0  0
  138.5960   70.2210  221.7138 H   0  0  0  0  0  0  0  0  0  0  0  0
  138.7341   68.6544  223.6047 H   0  0  0  0  0  0  0  0  0  0  0  0
  139.4633   68.2147  225.8616 H   0  0  0  0  0  0  0  0  0  0  0  0
  141.5426   71.3094  227.9924 H   0  0  0  0  0  0  0  0  0  0  0  0
  141.3702   72.8535  226.0402 H   0  0  0  0  0  0  0  0  0  0  0  0
  1  2  2  0
  2  3  1  0
  3  4  1  0
  4  5  1  0
  5  6  2  0
  5  7  1  0
  7  8  1  0
  8  9  1  0
  9 10  1  0
 10 11  1  0
 11 12  1  0
 12 13  1  0
 13 14  1  0
 14 15  1  0
 15 16  1  0
 16 17  1  0
 17 18  1  0
 18 19  1  0
  2 20  1  0
 20 21  2  0
 21 22  1  0
 22 23  2  0
 23 24  1  0
 24 25  2  0
 25 26  1  0
 25 27  1  0
 27 28  2  0
 28 29  1  0
 29 30  2  0
 13  7  1  0
 19 14  1  0
 30 20  1  0
 29 23  1  0
  3 31  1  0
  4 32  1  0
  4 33  1  0
  8 34  1  0
  8 35  1  0
  9 36  1  0
  9 37  1  0
 10 38  1  0
 10 39  1  0
 11 40  1  0
 11 41  1  0
 12 42  1  0
 12 43  1  0
 13 44  1  1
 14 45  1  0
 15 46  1  0
 15 47  1  0
 16 48  1  0
 16 49  1  0
 17 50  1  0
 17 51  1  0
 18 52  1  0
 18 53  1  0
 19 54  1  0
 19 55  1  0
 21 56  1  0
 22 57  1  0
 24 58  1  0
 27 59  1  0
 28 60  1  0
M  END
>  <smiles>  (90) 
O=C(NCC(=O)N1CCCCCC1C1CCCCC1)c1ccc2cc(Cl)ccc2n1

>  <score_type>  (90) 
oracle

>  <origin>  (90) 
autodockgpu

>  <m_score__min__energy>  (90) 
-6.6600000000000001

>  <m_primary>  (90) 
energy

>  <rmsd>  (90) 
2.2257442271723247

>  <m_score__min__rmsd>  (90) 
2.2257442271723247

>  <meeko>  (90) 
{"free_energy": -4.56, "intermolecular_energy": -7.84, "internal_energy": -2.53, "cluster_size": 30, "cluster_id": 1, "rank_in_cluster": 30}

>  <energy>  (90) 
-4.79

>  <cluster_rmsd>  (90) 
1.49

>  <cluster>  (90) 
3

$$$$

     RDKit          3D

 60 63  0  0  0  0  0  0  0  0999 V2000
  139.8530   72.3890  220.8010 O   0  0  0  0  0  0  0  0  0  0  0  0
  139.7860   72.8410  221.9720 C   0  0  0  0  0  0  0  0  0  0  0  0
  139.5920   74.2160  222.2760 N   0  0  0  0  0  0  0  0  0  0  0  0
  139.4560   75.2000  221.2190 C   0  0  0  0  0  0  0  0  0  0  0  0
  138.7780   76.3700  221.7670 C   0  0  0  0  0  0  0  0  0  0  0  0
  138.2900   76.2710  222.9390 O   0  0  0  0  0  0  0  0  0  0  0  0
  138.6420   77.6250  221.0310 N   0  0  0  0  0  0  0  0  0  0  0  0
  137.2770   77.8000  220.6000 C   0  0  0  0  0  0  0  0  0  0  0  0
  136.8760   79.2430  220.5460 C   0  0  0  0  0  0  0  0  0  0  0  0
  137.5980   79.8600  219.3670 C   0  0  0  0  0  0  0  0  0  0  0  0
  138.8860   80.4800  219.8930 C   0  0  0  0  0  0  0  0  0  0  0  0
  139.9720   79.5200  220.0860 C   0  0  0  0  0  0  0  0  0  0  0  0
  139.8680   78.3510  220.9330 C   0  0  1  0  0  0  0  0  0  0  0  0
  140.5460   78.4150  222.3110 C   0  0  0  0  0  0  0  0  0  0  0  0
  139.8130   79.1450  223.3600 C   0  0  0  0  0  0  0  0  0  0  0  0
  140.2010   80.5850  223.5280 C   0  0  0  0  0  0  0  0  0  0  0  0
  141.6650   80.6080  223.8710 C   0  0  0  0  0  0  0  0  0  0  0  0
  142.4520   80.0350  222.7410 C   0  0  0  0  0  0  0  0  0  0  0  0
  142.0110   78.7230  222.2220 C   0  0  0  0  0  0  0  0  0  0  0  0
  139.9160   71.8990  223.0950 C   0  0  0  0  0  0  0  0  0  0  0  0
  139.5260   70.5810  222.9610 C   0  0  0  0  0  0  0  0  0  0  0  0
  139.6170   69.6490  223.9620 C   0  0  0  0  0  0  0  0  0  0  0  0
  140.1340   70.0700  225.1730 C   0  0  0  0  0  0  0  0  0  0  0  0
  140.2420   69.1620  226.2070 C   0  0  0  0  0  0  0  0  0  0  0  0
  140.7580   69.6120  227.3910 C   0  0  0  0  0  0  0  0  0  0  0  0
  140.9000   68.4690  228.7100 Cl  0  0  0  0  0  0  0  0  0  0  0  0
  141.1510   70.9340  227.5310 C   0  0  0  0  0  0  0  0  0  0  0  0
  141.0420   71.8500  226.4910 C   0  0  0  0  0  0  0  0  0  0  0  0
  140.5150   71.3900  225.2800 C   0  0  0  0  0  0  0  0  0  0  0  0
  140.4120   72.2770  224.2780 N   0  0  0  0  0  0  0  0  0  0  0  0
  139.5450   74.5350  223.2820 H   0  0  0  0  0  0  0  0  0  0  0  0
  140.4508   75.4867  220.8474 H   0  0  0  0  0  0  0  0  0  0  0  0
  138.8748   74.7816  220.3840 H   0  0  0  0  0  0  0  0  0  0  0  0
  137.1648   77.3643  219.5962 H   0  0  0  0  0  0  0  0  0  0  0  0
  136.6270   77.2982  221.3319 H   0  0  0  0  0  0  0  0  0  0  0  0
  135.7879   79.3277  220.4089 H   0  0  0  0  0  0  0  0  0  0  0  0
  137.1399   79.7587  221.4811 H   0  0  0  0  0  0  0  0  0  0  0  0
  137.8311   79.0851  218.6218 H   0  0  0  0  0  0  0  0  0  0  0  0
  136.9698   80.6227  218.8837 H   0  0  0  0  0  0  0  0  0  0  0  0
  139.2217   81.2423  219.1745 H   0  0  0  0  0  0  0  0  0  0  0  0
  138.6552   80.9029  220.8819 H   0  0  0  0  0  0  0  0  0  0  0  0
  140.2203   79.1425  219.0831 H   0  0  0  0  0  0  0  0  0  0  0  0
  140.6956   80.1275  220.6494 H   0  0  0  0  0  0  0  0  0  0  0  0
  140.4845   77.7425  220.2550 H   0  0  0  0  0  0  0  0  0  0  0  0
  140.4862   77.3848  222.6920 H   0  0  0  0  0  0  0  0  0  0  0  0
  138.7414   79.1079  223.1146 H   0  0  0  0  0  0  0  0  0  0  0  0
  140.0645   78.6489  224.3090 H   0  0  0  0  0  0  0  0  0  0  0  0
  140.0233   81.1358  222.5926 H   0  0  0  0  0  0  0  0  0  0  0  0
  139.6046   81.0628  224.3192 H   0  0  0  0  0  0  0  0  0  0  0  0
  141.9830   81.6458  224.0496 H   0  0  0  0  0  0  0  0  0  0  0  0
  141.8376   80.0091  224.7774 H   0  0  0  0  0  0  0  0  0  0  0  0
  142.4115   80.7532  221.9088 H   0  0  0  0  0  0  0  0  0  0  0  0
  143.4584   79.8606  223.1492 H   0  0  0  0  0  0  0  0  0  0  0  0
  142.2973   78.6722  221.1611 H   0  0  0  0  0  0  0  0  0  0  0  0
  142.4998   77.9799  222.8693 H   0  0  0  0  0  0  0  0  0  0  0  0
  139.1173   70.2594  221.9917 H   0  0  0  0  0  0  0  0  0  0  0  0
  139.2922   68.6094  223.8081 H   0  0  0  0  0  0  0  0  0  0  0  0
  139.9250   68.1159  226.0834 H   0  0  0  0  0  0  0  0  0  0  0  0
  141.5619   71.2686  228.4950 H   0  0  0  0  0  0  0  0  0  0  0  0
  141.3581   72.8962  226.6158 H   0  0  0  0  0  0  0  0  0  0  0  0
  1  2  2  0
  2  3  1  0
  3  4  1  0
  4  5  1  0
  5  6  2  0
  5  7  1  0
  7  8  1  0
  8  9  1  0
  9 10  1  0
 10 11  1  0
 11 12  1  0
 12 13  1  0
 13 14  1  0
 14 15  1  0
 15 16  1  0
 16 17  1  0
 17 18  1  0
 18 19  1  0
  2 20  1  0
 20 21  2  0
 21 22  1  0
 22 23  2  0
 23 24  1  0
 24 25  2  0
 25 26  1  0
 25 27  1  0
 27 28  2  0
 28 29  1  0
 29 30  2  0
 13  7  1  0
 19 14  1  0
 30 20  1  0
 29 23  1  0
  3 31  1  0
  4 32  1  0
  4 33  1  0
  8 34  1  0
  8 35  1  0
  9 36  1  0
  9 37  1  0
 10 38  1  0
 10 39  1  0
 11 40  1  0
 11 41  1  0
 12 42  1  0
 12 43  1  0
 13 44  1  6
 14 45  1  0
 15 46  1  0
 15 47  1  0
 16 48  1  0
 16 49  1  0
 17 50  1  0
 17 51  1  0
 18 52  1  0
 18 53  1  0
 19 54  1  0
 19 55  1  0
 21 56  1  0
 22 57  1  0
 24 58  1  0
 27 59  1  0
 28 60  1  0
M  END
>  <smiles>  (91) 
O=C(NCC(=O)N1CCCCCC1C1CCCCC1)c1ccc2cc(Cl)ccc2n1

>  <score_type>  (91) 
oracle

>  <origin>  (91) 
autodockgpu

>  <m_score__min__energy>  (91) 
-6.6600000000000001

>  <m_primary>  (91) 
energy

>  <rmsd>  (91) 
2.705231956284229

>  <m_score__min__rmsd>  (91) 
2.705231956284229

>  <meeko>  (91) 
{"free_energy": -5.69, "intermolecular_energy": -8.97, "internal_energy": -2.48, "cluster_size": 30, "cluster_id": 1, "rank_in_cluster": 15}

>  <energy>  (91) 
-4.37

>  <cluster_rmsd>  (91) 
1.58

>  <cluster>  (91) 
3

$$$$

     RDKit          3D

 60 63  0  0  0  0  0  0  0  0999 V2000
  137.7430   76.8540  222.3860 O   0  0  0  0  0  0  0  0  0  0  0  0
  138.5320   77.0550  221.4280 C   0  0  0  0  0  0  0  0  0  0  0  0
  138.3730   78.1070  220.4840 N   0  0  0  0  0  0  0  0  0  0  0  0
  137.2590   79.0300  220.5790 C   0  0  0  0  0  0  0  0  0  0  0  0
  137.7920   80.3720  220.7820 C   0  0  0  0  0  0  0  0  0  0  0  0
  138.4490   80.8940  219.8240 O   0  0  0  0  0  0  0  0  0  0  0  0
  137.6020   81.1220  222.0220 N   0  0  0  0  0  0  0  0  0  0  0  0
  136.2780   81.6920  222.0570 C   0  0  0  0  0  0  0  0  0  0  0  0
  135.6610   81.6190  223.4210 C   0  0  0  0  0  0  0  0  0  0  0  0
  136.2300   80.3910  224.0990 C   0  0  0  0  0  0  0  0  0  0  0  0
  137.3560   80.8540  225.0150 C   0  0  0  0  0  0  0  0  0  0  0  0
  138.6070   81.1470  224.3120 C   0  0  0  0  0  0  0  0  0  0  0  0
  138.7490   81.0960  222.8710 C   0  0  1  0  0  0  0  0  0  0  0  0
  139.7990   80.1290  222.2990 C   0  0  0  0  0  0  0  0  0  0  0  0
  140.1880   79.0080  223.1710 C   0  0  0  0  0  0  0  0  0  0  0  0
  141.4140   79.2390  224.0040 C   0  0  0  0  0  0  0  0  0  0  0  0
  142.5460   79.5130  223.0520 C   0  0  0  0  0  0  0  0  0  0  0  0
  142.2580   80.7550  222.2780 C   0  0  0  0  0  0  0  0  0  0  0  0
  140.9340   80.8400  221.6260 C   0  0  0  0  0  0  0  0  0  0  0  0
  139.6870   76.1570  221.2710 C   0  0  0  0  0  0  0  0  0  0  0  0
  139.6460   74.8620  221.7490 C   0  0  0  0  0  0  0  0  0  0  0  0
  140.6810   73.9710  221.6390 C   0  0  0  0  0  0  0  0  0  0  0  0
  141.8290   74.4100  221.0070 C   0  0  0  0  0  0  0  0  0  0  0  0
  142.8950   73.5420  220.8750 C   0  0  0  0  0  0  0  0  0  0  0  0
  144.0150   74.0090  220.2440 C   0  0  0  0  0  0  0  0  0  0  0  0
  145.3730   72.9180  220.0720 Cl  0  0  0  0  0  0  0  0  0  0  0  0
  144.0620   75.3090  219.7620 C   0  0  0  0  0  0  0  0  0  0  0  0
  142.9890   76.1830  219.8950 C   0  0  0  0  0  0  0  0  0  0  0  0
  141.8440   75.7060  220.5390 C   0  0  0  0  0  0  0  0  0  0  0  0
  140.8100   76.5530  220.6640 N   0  0  0  0  0  0  0  0  0  0  0  0
  139.0710   78.2240  219.6990 H   0  0  0  0  0  0  0  0  0  0  0  0
  136.6709   79.0000  219.6499 H   0  0  0  0  0  0  0  0  0  0  0  0
  136.6061   78.7506  221.4190 H   0  0  0  0  0  0  0  0  0  0  0  0
  136.3395   82.7474  221.7530 H   0  0  0  0  0  0  0  0  0  0  0  0
  135.6443   81.1113  221.3705 H   0  0  0  0  0  0  0  0  0  0  0  0
  135.9134   82.5205  223.9986 H   0  0  0  0  0  0  0  0  0  0  0  0
  134.5648   81.5575  223.3532 H   0  0  0  0  0  0  0  0  0  0  0  0
  135.4475   79.8911  224.6888 H   0  0  0  0  0  0  0  0  0  0  0  0
  136.6068   79.6760  223.3528 H   0  0  0  0  0  0  0  0  0  0  0  0
  137.0278   81.7667  225.5340 H   0  0  0  0  0  0  0  0  0  0  0  0
  137.5648   80.0268  225.7094 H   0  0  0  0  0  0  0  0  0  0  0  0
  138.8826   82.1710  224.6044 H   0  0  0  0  0  0  0  0  0  0  0  0
  139.2283   80.2922  224.6176 H   0  0  0  0  0  0  0  0  0  0  0  0
  139.1396   82.1231  222.8215 H   0  0  0  0  0  0  0  0  0  0  0  0
  139.2706   79.5955  221.4951 H   0  0  0  0  0  0  0  0  0  0  0  0
  139.3491   78.7999  223.8514 H   0  0  0  0  0  0  0  0  0  0  0  0
  140.4297   78.1705  222.5000 H   0  0  0  0  0  0  0  0  0  0  0  0
  141.2621   80.1020  224.6689 H   0  0  0  0  0  0  0  0  0  0  0  0
  141.6326   78.3634  224.6329 H   0  0  0  0  0  0  0  0  0  0  0  0
  143.4789   79.6435  223.6201 H   0  0  0  0  0  0  0  0  0  0  0  0
  142.6534   78.6663  222.3581 H   0  0  0  0  0  0  0  0  0  0  0  0
  142.3440   81.6060  222.9696 H   0  0  0  0  0  0  0  0  0  0  0  0
  142.9863   80.7568  221.4537 H   0  0  0  0  0  0  0  0  0  0  0  0
  140.6652   81.9044  221.5575 H   0  0  0  0  0  0  0  0  0  0  0  0
  141.0578   80.3308  220.6589 H   0  0  0  0  0  0  0  0  0  0  0  0
  138.7258   74.5251  222.2488 H   0  0  0  0  0  0  0  0  0  0  0  0
  140.6015   72.9487  222.0372 H   0  0  0  0  0  0  0  0  0  0  0  0
  142.8452   72.5138  221.2627 H   0  0  0  0  0  0  0  0  0  0  0  0
  144.9758   75.6588  219.2594 H   0  0  0  0  0  0  0  0  0  0  0  0
  143.0393   77.2114  219.5079 H   0  0  0  0  0  0  0  0  0  0  0  0
  1  2  2  0
  2  3  1  0
  3  4  1  0
  4  5  1  0
  5  6  2  0
  5  7  1  0
  7  8  1  0
  8  9  1  0
  9 10  1  0
 10 11  1  0
 11 12  1  0
 12 13  1  0
 13 14  1  0
 14 15  1  0
 15 16  1  0
 16 17  1  0
 17 18  1  0
 18 19  1  0
  2 20  1  0
 20 21  2  0
 21 22  1  0
 22 23  2  0
 23 24  1  0
 24 25  2  0
 25 26  1  0
 25 27  1  0
 27 28  2  0
 28 29  1  0
 29 30  2  0
 13  7  1  0
 19 14  1  0
 30 20  1  0
 29 23  1  0
  3 31  1  0
  4 32  1  0
  4 33  1  0
  8 34  1  0
  8 35  1  0
  9 36  1  0
  9 37  1  0
 10 38  1  0
 10 39  1  0
 11 40  1  0
 11 41  1  0
 12 42  1  0
 12 43  1  0
 13 44  1  6
 14 45  1  0
 15 46  1  0
 15 47  1  0
 16 48  1  0
 16 49  1  0
 17 50  1  0
 17 51  1  0
 18 52  1  0
 18 53  1  0
 19 54  1  0
 19 55  1  0
 21 56  1  0
 22 57  1  0
 24 58  1  0
 27 59  1  0
 28 60  1  0
M  END
>  <smiles>  (92) 
O=C(NCC(=O)N1CCCCCC1C1CCCCC1)c1ccc2cc(Cl)ccc2n1

>  <score_type>  (92) 
oracle

>  <origin>  (92) 
autodockgpu

>  <m_score__min__energy>  (92) 
-6.6600000000000001

>  <m_primary>  (92) 
energy

>  <rmsd>  (92) 
7.473082420838718

>  <m_score__min__rmsd>  (92) 
7.473082420838718

>  <meeko>  (92) 
{"free_energy": -4.41, "intermolecular_energy": -7.69, "internal_energy": -2.87, "cluster_size": 2, "cluster_id": 9, "rank_in_cluster": 1}

>  <energy>  (92) 
-5.49

>  <cluster_rmsd>  (92) 
0.0

>  <cluster>  (92) 
4

$$$$

     RDKit          3D

 60 63  0  0  0  0  0  0  0  0999 V2000
  138.8570   71.5160  221.0360 O   0  0  0  0  0  0  0  0  0  0  0  0
  139.1860   72.0540  222.1240 C   0  0  0  0  0  0  0  0  0  0  0  0
  139.3370   73.4570  222.2940 N   0  0  0  0  0  0  0  0  0  0  0  0
  139.1120   74.3700  221.1900 C   0  0  0  0  0  0  0  0  0  0  0  0
  140.3480   74.4710  220.4210 C   0  0  0  0  0  0  0  0  0  0  0  0
  141.1520   73.4850  220.4700 O   0  0  0  0  0  0  0  0  0  0  0  0
  140.6870   75.6420  219.6150 N   0  0  0  0  0  0  0  0  0  0  0  0
  140.0590   75.5480  218.3200 C   0  0  0  0  0  0  0  0  0  0  0  0
  140.8450   76.2480  217.2520 C   0  0  0  0  0  0  0  0  0  0  0  0
  142.3050   75.9300  217.4980 C   0  0  0  0  0  0  0  0  0  0  0  0
  142.9180   77.1220  218.2210 C   0  0  0  0  0  0  0  0  0  0  0  0
  142.7270   77.0870  219.6710 C   0  0  0  0  0  0  0  0  0  0  0  0
  141.5310   76.5670  220.3000 C   0  0  1  0  0  0  0  0  0  0  0  0
  140.6720   77.5540  221.1090 C   0  0  0  0  0  0  0  0  0  0  0  0
  140.7170   78.9590  220.6700 C   0  0  0  0  0  0  0  0  0  0  0  0
  141.7070   79.8240  221.3920 C   0  0  0  0  0  0  0  0  0  0  0  0
  141.3360   79.7950  222.8500 C   0  0  0  0  0  0  0  0  0  0  0  0
  141.4590   78.4020  223.3680 C   0  0  0  0  0  0  0  0  0  0  0  0
  140.7860   77.3420  222.5890 C   0  0  0  0  0  0  0  0  0  0  0  0
  139.4290   71.1880  223.2880 C   0  0  0  0  0  0  0  0  0  0  0  0
  139.0810   69.8520  223.2610 C   0  0  0  0  0  0  0  0  0  0  0  0
  139.2770   68.9870  224.3060 C   0  0  0  0  0  0  0  0  0  0  0  0
  139.8600   69.4990  225.4500 C   0  0  0  0  0  0  0  0  0  0  0  0
  140.0750   68.6610  226.5250 C   0  0  0  0  0  0  0  0  0  0  0  0
  140.6530   69.2000  227.6410 C   0  0  0  0  0  0  0  0  0  0  0  0
  140.9300   68.1460  229.0110 Cl  0  0  0  0  0  0  0  0  0  0  0  0
  141.0050   70.5410  227.6740 C   0  0  0  0  0  0  0  0  0  0  0  0
  140.7890   71.3860  226.5910 C   0  0  0  0  0  0  0  0  0  0  0  0
  140.1970   70.8360  225.4510 C   0  0  0  0  0  0  0  0  0  0  0  0
  139.9910   71.6540  224.4080 N   0  0  0  0  0  0  0  0  0  0  0  0
  139.6160   73.8490  223.2350 H   0  0  0  0  0  0  0  0  0  0  0  0
  138.3049   73.9865  220.5485 H   0  0  0  0  0  0  0  0  0  0  0  0
  138.8196   75.3600  221.5700 H   0  0  0  0  0  0  0  0  0  0  0  0
  139.9636   74.4860  218.0498 H   0  0  0  0  0  0  0  0  0  0  0  0
  139.0757   76.0363  218.3876 H   0  0  0  0  0  0  0  0  0  0  0  0
  140.5410   75.8844  216.2593 H   0  0  0  0  0  0  0  0  0  0  0  0
  140.6687   77.3334  217.2819 H   0  0  0  0  0  0  0  0  0  0  0  0
  142.3930   75.0274  218.1206 H   0  0  0  0  0  0  0  0  0  0  0  0
  142.8263   75.7437  216.5474 H   0  0  0  0  0  0  0  0  0  0  0  0
  143.9979   77.1378  218.0124 H   0  0  0  0  0  0  0  0  0  0  0  0
  142.4078   78.0229  217.8493 H   0  0  0  0  0  0  0  0  0  0  0  0
  143.5618   76.4931  220.0716 H   0  0  0  0  0  0  0  0  0  0  0  0
  142.6493   78.1586  219.9068 H   0  0  0  0  0  0  0  0  0  0  0  0
  142.1086   75.9378  220.9931 H   0  0  0  0  0  0  0  0  0  0  0  0
  139.6355   77.2874  220.8548 H   0  0  0  0  0  0  0  0  0  0  0  0
  140.9704   78.9728  219.5997 H   0  0  0  0  0  0  0  0  0  0  0  0
  139.7254   79.3796  220.8932 H   0  0  0  0  0  0  0  0  0  0  0  0
  142.7246   79.4300  221.2533 H   0  0  0  0  0  0  0  0  0  0  0  0
  141.6871   80.8525  221.0024 H   0  0  0  0  0  0  0  0  0  0  0  0
  142.0110   80.4563  223.4131 H   0  0  0  0  0  0  0  0  0  0  0  0
  140.2986   80.1402  222.9707 H   0  0  0  0  0  0  0  0  0  0  0  0
  142.5302   78.1555  223.4100 H   0  0  0  0  0  0  0  0  0  0  0  0
  140.9506   78.4106  224.3434 H   0  0  0  0  0  0  0  0  0  0  0  0
  141.3442   76.4077  222.7485 H   0  0  0  0  0  0  0  0  0  0  0  0
  139.7494   77.3311  222.9570 H   0  0  0  0  0  0  0  0  0  0  0  0
  138.6180   69.4576  222.3444 H   0  0  0  0  0  0  0  0  0  0  0  0
  138.9826   67.9294  224.2372 H   0  0  0  0  0  0  0  0  0  0  0  0
  139.7919   67.5988  226.4857 H   0  0  0  0  0  0  0  0  0  0  0  0
  141.4691   70.9485  228.5843 H   0  0  0  0  0  0  0  0  0  0  0  0
  141.0735   72.4478  226.6302 H   0  0  0  0  0  0  0  0  0  0  0  0
  1  2  2  0
  2  3  1  0
  3  4  1  0
  4  5  1  0
  5  6  2  0
  5  7  1  0
  7  8  1  0
  8  9  1  0
  9 10  1  0
 10 11  1  0
 11 12  1  0
 12 13  1  0
 13 14  1  0
 14 15  1  0
 15 16  1  0
 16 17  1  0
 17 18  1  0
 18 19  1  0
  2 20  1  0
 20 21  2  0
 21 22  1  0
 22 23  2  0
 23 24  1  0
 24 25  2  0
 25 26  1  0
 25 27  1  0
 27 28  2  0
 28 29  1  0
 29 30  2  0
 13  7  1  0
 19 14  1  0
 30 20  1  0
 29 23  1  0
  3 31  1  0
  4 32  1  0
  4 33  1  0
  8 34  1  0
  8 35  1  0
  9 36  1  0
  9 37  1  0
 10 38  1  0
 10 39  1  0
 11 40  1  0
 11 41  1  0
 12 42  1  0
 12 43  1  0
 13 44  1  1
 14 45  1  0
 15 46  1  0
 15 47  1  0
 16 48  1  0
 16 49  1  0
 17 50  1  0
 17 51  1  0
 18 52  1  0
 18 53  1  0
 19 54  1  0
 19 55  1  0
 21 56  1  0
 22 57  1  0
 24 58  1  0
 27 59  1  0
 28 60  1  0
M  END
>  <smiles>  (93) 
O=C(NCC(=O)N1CCCCCC1C1CCCCC1)c1ccc2cc(Cl)ccc2n1

>  <score_type>  (93) 
oracle

>  <origin>  (93) 
autodockgpu

>  <m_score__min__energy>  (93) 
-6.6600000000000001

>  <m_primary>  (93) 
energy

>  <rmsd>  (93) 
1.209800288308968

>  <m_score__min__rmsd>  (93) 
1.209800288308968

>  <meeko>  (93) 
{"free_energy": -5.23, "intermolecular_energy": -8.51, "internal_energy": -1.95, "cluster_size": 30, "cluster_id": 1, "rank_in_cluster": 25}

>  <energy>  (93) 
-5.19

>  <cluster_rmsd>  (93) 
0.0

>  <cluster>  (93) 
5

$$$$

     RDKit          3D

 60 63  0  0  0  0  0  0  0  0999 V2000
  138.4500   71.4900  221.2070 O   0  0  0  0  0  0  0  0  0  0  0  0
  139.0280   71.9820  222.2100 C   0  0  0  0  0  0  0  0  0  0  0  0
  139.4000   73.3500  222.3120 N   0  0  0  0  0  0  0  0  0  0  0  0
  139.1240   74.2800  221.2340 C   0  0  0  0  0  0  0  0  0  0  0  0
  139.5270   75.6140  221.6640 C   0  0  0  0  0  0  0  0  0  0  0  0
  140.6410   75.7230  222.2740 O   0  0  0  0  0  0  0  0  0  0  0  0
  138.7130   76.8040  221.4260 N   0  0  0  0  0  0  0  0  0  0  0  0
  137.3500   76.5580  221.8260 C   0  0  0  0  0  0  0  0  0  0  0  0
  136.6750   77.7930  222.3420 C   0  0  0  0  0  0  0  0  0  0  0  0
  136.4260   78.6930  221.1500 C   0  0  0  0  0  0  0  0  0  0  0  0
  137.6010   79.6550  221.0490 C   0  0  0  0  0  0  0  0  0  0  0  0
  138.7920   79.0880  220.4110 C   0  0  0  0  0  0  0  0  0  0  0  0
  139.4590   77.8900  220.8760 C   0  0  1  0  0  0  0  0  0  0  0  0
  140.7700   78.0700  221.6600 C   0  0  0  0  0  0  0  0  0  0  0  0
  140.6290   78.4010  223.0880 C   0  0  0  0  0  0  0  0  0  0  0  0
  140.6800   79.8640  223.4150 C   0  0  0  0  0  0  0  0  0  0  0  0
  142.0130   80.3740  222.9410 C   0  0  0  0  0  0  0  0  0  0  0  0
  142.1110   80.2160  221.4610 C   0  0  0  0  0  0  0  0  0  0  0  0
  141.7840   78.8830  220.9130 C   0  0  0  0  0  0  0  0  0  0  0  0
  139.3390   71.0960  223.3430 C   0  0  0  0  0  0  0  0  0  0  0  0
  139.0450   69.7480  223.2890 C   0  0  0  0  0  0  0  0  0  0  0  0
  139.3060   68.8650  224.3040 C   0  0  0  0  0  0  0  0  0  0  0  0
  139.9000   69.3710  225.4450 C   0  0  0  0  0  0  0  0  0  0  0  0
  140.1790   68.5140  226.4910 C   0  0  0  0  0  0  0  0  0  0  0  0
  140.7660   69.0470  227.6050 C   0  0  0  0  0  0  0  0  0  0  0  0
  141.1250   67.9700  228.9380 Cl  0  0  0  0  0  0  0  0  0  0  0  0
  141.0630   70.4010  227.6650 C   0  0  0  0  0  0  0  0  0  0  0  0
  140.7820   71.2640  226.6130 C   0  0  0  0  0  0  0  0  0  0  0  0
  140.1820   70.7200  225.4730 C   0  0  0  0  0  0  0  0  0  0  0  0
  139.9130   71.5560  224.4600 N   0  0  0  0  0  0  0  0  0  0  0  0
  139.8850   73.7040  223.1820 H   0  0  0  0  0  0  0  0  0  0  0  0
  139.6931   73.9904  220.3383 H   0  0  0  0  0  0  0  0  0  0  0  0
  138.0515   74.2689  220.9899 H   0  0  0  0  0  0  0  0  0  0  0  0
  136.7884   76.1852  220.9567 H   0  0  0  0  0  0  0  0  0  0  0  0
  137.3674   75.8194  222.6410 H   0  0  0  0  0  0  0  0  0  0  0  0
  135.7210   77.5294  222.8220 H   0  0  0  0  0  0  0  0  0  0  0  0
  137.3018   78.2987  223.0913 H   0  0  0  0  0  0  0  0  0  0  0  0
  136.3545   78.0901  220.2327 H   0  0  0  0  0  0  0  0  0  0  0  0
  135.4827   79.2455  221.2723 H   0  0  0  0  0  0  0  0  0  0  0  0
  137.2806   80.5299  220.4643 H   0  0  0  0  0  0  0  0  0  0  0  0
  137.8877   79.9110  222.0797 H   0  0  0  0  0  0  0  0  0  0  0  0
  138.5059   78.8861  219.3682 H   0  0  0  0  0  0  0  0  0  0  0  0
  139.5445   79.8550  220.6463 H   0  0  0  0  0  0  0  0  0  0  0  0
  139.6924   77.5621  219.8523 H   0  0  0  0  0  0  0  0  0  0  0  0
  141.1935   77.0566  221.7198 H   0  0  0  0  0  0  0  0  0  0  0  0
  139.6611   78.0091  223.4337 H   0  0  0  0  0  0  0  0  0  0  0  0
  141.4943   77.9462  223.5925 H   0  0  0  0  0  0  0  0  0  0  0  0
  139.8669   80.3951  222.8985 H   0  0  0  0  0  0  0  0  0  0  0  0
  140.5580   80.0293  224.4956 H   0  0  0  0  0  0  0  0  0  0  0  0
  142.1124   81.4377  223.2031 H   0  0  0  0  0  0  0  0  0  0  0  0
  142.8170   79.7994  223.4240 H   0  0  0  0  0  0  0  0  0  0  0  0
  141.4245   80.9427  221.0020 H   0  0  0  0  0  0  0  0  0  0  0  0
  143.1733   80.3739  221.2230 H   0  0  0  0  0  0  0  0  0  0  0  0
  141.4048   79.0284  219.8907 H   0  0  0  0  0  0  0  0  0  0  0  0
  142.7191   78.3080  220.9834 H   0  0  0  0  0  0  0  0  0  0  0  0
  138.5722   69.3590  222.3751 H   0  0  0  0  0  0  0  0  0  0  0  0
  139.0534   67.7981  224.2145 H   0  0  0  0  0  0  0  0  0  0  0  0
  139.9380   67.4424  226.4304 H   0  0  0  0  0  0  0  0  0  0  0  0
  141.5354   70.8035  228.5732 H   0  0  0  0  0  0  0  0  0  0  0  0
  141.0226   72.3356  226.6746 H   0  0  0  0  0  0  0  0  0  0  0  0
  1  2  2  0
  2  3  1  0
  3  4  1  0
  4  5  1  0
  5  6  2  0
  5  7  1  0
  7  8  1  0
  8  9  1  0
  9 10  1  0
 10 11  1  0
 11 12  1  0
 12 13  1  0
 13 14  1  0
 14 15  1  0
 15 16  1  0
 16 17  1  0
 17 18  1  0
 18 19  1  0
  2 20  1  0
 20 21  2  0
 21 22  1  0
 22 23  2  0
 23 24  1  0
 24 25  2  0
 25 26  1  0
 25 27  1  0
 27 28  2  0
 28 29  1  0
 29 30  2  0
 13  7  1  0
 19 14  1  0
 30 20  1  0
 29 23  1  0
  3 31  1  0
  4 32  1  0
  4 33  1  0
  8 34  1  0
  8 35  1  0
  9 36  1  0
  9 37  1  0
 10 38  1  0
 10 39  1  0
 11 40  1  0
 11 41  1  0
 12 42  1  0
 12 43  1  0
 13 44  1  6
 14 45  1  0
 15 46  1  0
 15 47  1  0
 16 48  1  0
 16 49  1  0
 17 50  1  0
 17 51  1  0
 18 52  1  0
 18 53  1  0
 19 54  1  0
 19 55  1  0
 21 56  1  0
 22 57  1  0
 24 58  1  0
 27 59  1  0
 28 60  1  0
M  END
>  <smiles>  (94) 
O=C(NCC(=O)N1CCCCCC1C1CCCCC1)c1ccc2cc(Cl)ccc2n1

>  <score_type>  (94) 
oracle

>  <origin>  (94) 
autodockgpu

>  <m_score__min__energy>  (94) 
-6.6600000000000001

>  <m_primary>  (94) 
energy

>  <rmsd>  (94) 
2.7024391481790615

>  <m_score__min__rmsd>  (94) 
2.7024391481790615

>  <meeko>  (94) 
{"free_energy": -5.62, "intermolecular_energy": -8.9, "internal_energy": -1.63, "cluster_size": 30, "cluster_id": 1, "rank_in_cluster": 18}

>  <energy>  (94) 
-4.53

>  <cluster_rmsd>  (94) 
0.0

>  <cluster>  (94) 
6

$$$$

     RDKit          3D

 60 63  0  0  0  0  0  0  0  0999 V2000
  138.0350   79.2470  221.5800 O   0  0  0  0  0  0  0  0  0  0  0  0
  138.2920   80.4750  221.5110 C   0  0  0  0  0  0  0  0  0  0  0  0
  139.0900   81.0570  220.4870 N   0  0  0  0  0  0  0  0  0  0  0  0
  139.6660   80.2380  219.4370 C   0  0  0  0  0  0  0  0  0  0  0  0
  141.0840   80.0540  219.7250 C   0  0  0  0  0  0  0  0  0  0  0  0
  141.8670   79.8820  218.7350 O   0  0  0  0  0  0  0  0  0  0  0  0
  141.6250   80.0590  221.0830 N   0  0  0  0  0  0  0  0  0  0  0  0
  141.8550   81.4150  221.5180 C   0  0  0  0  0  0  0  0  0  0  0  0
  141.2560   81.6920  222.8630 C   0  0  0  0  0  0  0  0  0  0  0  0
  142.0480   80.8890  223.8740 C   0  0  0  0  0  0  0  0  0  0  0  0
  141.3540   79.5430  224.0330 C   0  0  0  0  0  0  0  0  0  0  0  0
  141.7880   78.5370  223.0600 C   0  0  0  0  0  0  0  0  0  0  0  0
  141.7790   78.7490  221.6280 C   0  0  1  0  0  0  0  0  0  0  0  0
  141.0060   77.7340  220.7690 C   0  0  0  0  0  0  0  0  0  0  0  0
  139.8960   77.0340  221.4370 C   0  0  0  0  0  0  0  0  0  0  0  0
  140.2420   75.6970  222.0230 C   0  0  0  0  0  0  0  0  0  0  0  0
  140.7310   74.8350  220.8910 C   0  0  0  0  0  0  0  0  0  0  0  0
  141.9680   75.4310  220.3080 C   0  0  0  0  0  0  0  0  0  0  0  0
  141.9090   76.8630  219.9480 C   0  0  0  0  0  0  0  0  0  0  0  0
  137.7410   81.3670  222.5430 C   0  0  0  0  0  0  0  0  0  0  0  0
  137.2460   82.6130  222.2120 C   0  0  0  0  0  0  0  0  0  0  0  0
  136.7180   83.4940  223.1180 C   0  0  0  0  0  0  0  0  0  0  0  0
  136.6860   83.0960  224.4420 C   0  0  0  0  0  0  0  0  0  0  0  0
  136.1620   83.9560  225.3870 C   0  0  0  0  0  0  0  0  0  0  0  0
  136.1450   83.5310  226.6860 C   0  0  0  0  0  0  0  0  0  0  0  0
  135.4830   84.6120  227.8940 Cl  0  0  0  0  0  0  0  0  0  0  0  0
  136.6400   82.2810  227.0260 C   0  0  0  0  0  0  0  0  0  0  0  0
  137.1680   81.4150  226.0750 C   0  0  0  0  0  0  0  0  0  0  0  0
  137.1860   81.8480  224.7460 C   0  0  0  0  0  0  0  0  0  0  0  0
  137.6960   81.0100  223.8310 N   0  0  0  0  0  0  0  0  0  0  0  0
  139.2720   82.0970  220.4830 H   0  0  0  0  0  0  0  0  0  0  0  0
  139.1623   79.2605  219.4093 H   0  0  0  0  0  0  0  0  0  0  0  0
  139.5383   80.7286  218.4608 H   0  0  0  0  0  0  0  0  0  0  0  0
  142.9397   81.5898  221.5715 H   0  0  0  0  0  0  0  0  0  0  0  0
  141.3741   82.0867  220.7916 H   0  0  0  0  0  0  0  0  0  0  0  0
  141.3264   82.7651  223.0942 H   0  0  0  0  0  0  0  0  0  0  0  0
  140.1927   81.4112  222.8847 H   0  0  0  0  0  0  0  0  0  0  0  0
  143.0767   80.7411  223.5135 H   0  0  0  0  0  0  0  0  0  0  0  0
  142.0951   81.4173  224.8377 H   0  0  0  0  0  0  0  0  0  0  0  0
  141.5634   79.1617  225.0433 H   0  0  0  0  0  0  0  0  0  0  0  0
  140.2807   79.7130  223.8621 H   0  0  0  0  0  0  0  0  0  0  0  0
  142.8293   78.2972  223.3210 H   0  0  0  0  0  0  0  0  0  0  0  0
  140.9962   77.7812  223.1680 H   0  0  0  0  0  0  0  0  0  0  0  0
  142.8573   78.5500  221.5409 H   0  0  0  0  0  0  0  0  0  0  0  0
  140.4578   78.3530  220.0435 H   0  0  0  0  0  0  0  0  0  0  0  0
  139.5291   77.6771  222.2505 H   0  0  0  0  0  0  0  0  0  0  0  0
  139.1454   76.8394  220.6568 H   0  0  0  0  0  0  0  0  0  0  0  0
  141.0314   75.8093  222.7808 H   0  0  0  0  0  0  0  0  0  0  0  0
  139.3671   75.2441  222.5123 H   0  0  0  0  0  0  0  0  0  0  0  0
  140.9533   73.8260  221.2685 H   0  0  0  0  0  0  0  0  0  0  0  0
  139.9535   74.7742  220.1152 H   0  0  0  0  0  0  0  0  0  0  0  0
  142.7768   75.3051  221.0428 H   0  0  0  0  0  0  0  0  0  0  0  0
  142.1241   74.9002  219.3573 H   0  0  0  0  0  0  0  0  0  0  0  0
  142.9280   77.2687  220.0321 H   0  0  0  0  0  0  0  0  0  0  0  0
  141.4835   76.8856  218.9339 H   0  0  0  0  0  0  0  0  0  0  0  0
  137.2778   82.9167  221.1552 H   0  0  0  0  0  0  0  0  0  0  0  0
  136.3355   84.4769  222.8056 H   0  0  0  0  0  0  0  0  0  0  0  0
  135.7730   84.9455  225.1050 H   0  0  0  0  0  0  0  0  0  0  0  0
  136.6141   81.9652  228.0794 H   0  0  0  0  0  0  0  0  0  0  0  0
  137.5571   80.4258  226.3579 H   0  0  0  0  0  0  0  0  0  0  0  0
  1  2  2  0
  2  3  1  0
  3  4  1  0
  4  5  1  0
  5  6  2  0
  5  7  1  0
  7  8  1  0
  8  9  1  0
  9 10  1  0
 10 11  1  0
 11 12  1  0
 12 13  1  0
 13 14  1  0
 14 15  1  0
 15 16  1  0
 16 17  1  0
 17 18  1  0
 18 19  1  0
  2 20  1  0
 20 21  2  0
 21 22  1  0
 22 23  2  0
 23 24  1  0
 24 25  2  0
 25 26  1  0
 25 27  1  0
 27 28  2  0
 28 29  1  0
 29 30  2  0
 13  7  1  0
 19 14  1  0
 30 20  1  0
 29 23  1  0
  3 31  1  0
  4 32  1  0
  4 33  1  0
  8 34  1  0
  8 35  1  0
  9 36  1  0
  9 37  1  0
 10 38  1  0
 10 39  1  0
 11 40  1  0
 11 41  1  0
 12 42  1  0
 12 43  1  0
 13 44  1  6
 14 45  1  0
 15 46  1  0
 15 47  1  0
 16 48  1  0
 16 49  1  0
 17 50  1  0
 17 51  1  0
 18 52  1  0
 18 53  1  0
 19 54  1  0
 19 55  1  0
 21 56  1  0
 22 57  1  0
 24 58  1  0
 27 59  1  0
 28 60  1  0
M  END
>  <smiles>  (95) 
O=C(NCC(=O)N1CCCCCC1C1CCCCC1)c1ccc2cc(Cl)ccc2n1

>  <score_type>  (95) 
oracle

>  <origin>  (95) 
autodockgpu

>  <m_score__min__energy>  (95) 
-6.6600000000000001

>  <m_primary>  (95) 
energy

>  <rmsd>  (95) 
10.219116437272563

>  <m_score__min__rmsd>  (95) 
10.219116437272563

>  <meeko>  (95) 
{"free_energy": -4.2, "intermolecular_energy": -7.48, "internal_energy": -2.54, "cluster_size": 1, "cluster_id": 10, "rank_in_cluster": 1}

>  <energy>  (95) 
-4.51

>  <cluster_rmsd>  (95) 
0.0

>  <cluster>  (95) 
7

$$$$

     RDKit          3D

 60 63  0  0  0  0  0  0  0  0999 V2000
  140.5000   72.4750  221.0200 O   0  0  0  0  0  0  0  0  0  0  0  0
  139.7620   72.6400  222.0250 C   0  0  0  0  0  0  0  0  0  0  0  0
  138.8300   73.7070  222.1510 N   0  0  0  0  0  0  0  0  0  0  0  0
  138.6760   74.6900  221.0960 C   0  0  0  0  0  0  0  0  0  0  0  0
  139.7110   75.7040  221.2610 C   0  0  0  0  0  0  0  0  0  0  0  0
  140.3610   75.7080  222.3570 O   0  0  0  0  0  0  0  0  0  0  0  0
  140.0200   76.6970  220.2340 N   0  0  0  0  0  0  0  0  0  0  0  0
  139.1250   76.5430  219.1130 C   0  0  0  0  0  0  0  0  0  0  0  0
  139.7040   77.0860  217.8420 C   0  0  0  0  0  0  0  0  0  0  0  0
  141.1310   76.5860  217.7570 C   0  0  0  0  0  0  0  0  0  0  0  0
  142.0410   77.7200  218.2080 C   0  0  0  0  0  0  0  0  0  0  0  0
  142.1800   77.8210  219.6640 C   0  0  0  0  0  0  0  0  0  0  0  0
  141.1020   77.5550  220.5940 C   0  0  1  0  0  0  0  0  0  0  0  0
  140.5740   78.7400  221.4200 C   0  0  0  0  0  0  0  0  0  0  0  0
  140.9620   80.0800  220.9490 C   0  0  0  0  0  0  0  0  0  0  0  0
  142.1800   80.6620  221.6060 C   0  0  0  0  0  0  0  0  0  0  0  0
  141.8880   80.7440  223.0790 C   0  0  0  0  0  0  0  0  0  0  0  0
  141.6670   79.3720  223.6210 C   0  0  0  0  0  0  0  0  0  0  0  0
  140.7020   78.5190  222.8970 C   0  0  0  0  0  0  0  0  0  0  0  0
  139.8640   71.6790  223.1340 C   0  0  0  0  0  0  0  0  0  0  0  0
  139.4560   70.3700  222.9760 C   0  0  0  0  0  0  0  0  0  0  0  0
  139.5210   69.4210  223.9630 C   0  0  0  0  0  0  0  0  0  0  0  0
  140.0300   69.8160  225.1860 C   0  0  0  0  0  0  0  0  0  0  0  0
  140.1120   68.8900  226.2070 C   0  0  0  0  0  0  0  0  0  0  0  0
  140.6200   69.3140  227.4040 C   0  0  0  0  0  0  0  0  0  0  0  0
  140.7290   68.1490  228.7070 Cl  0  0  0  0  0  0  0  0  0  0  0  0
  141.0310   70.6280  227.5690 C   0  0  0  0  0  0  0  0  0  0  0  0
  140.9480   71.5610  226.5420 C   0  0  0  0  0  0  0  0  0  0  0  0
  140.4300   71.1280  225.3180 C   0  0  0  0  0  0  0  0  0  0  0  0
  140.3510   72.0310  224.3280 N   0  0  0  0  0  0  0  0  0  0  0  0
  138.2370   73.7920  223.0220 H   0  0  0  0  0  0  0  0  0  0  0  0
  138.7847   74.2035  220.1154 H   0  0  0  0  0  0  0  0  0  0  0  0
  137.6796   75.1527  221.1513 H   0  0  0  0  0  0  0  0  0  0  0  0
  138.9119   75.4727  218.9753 H   0  0  0  0  0  0  0  0  0  0  0  0
  138.2091   77.1107  219.3342 H   0  0  0  0  0  0  0  0  0  0  0  0
  139.1252   76.7254  216.9788 H   0  0  0  0  0  0  0  0  0  0  0  0
  139.6719   78.1855  217.8341 H   0  0  0  0  0  0  0  0  0  0  0  0
  141.2632   75.7142  218.4146 H   0  0  0  0  0  0  0  0  0  0  0  0
  141.3737   76.2802  216.7286 H   0  0  0  0  0  0  0  0  0  0  0  0
  143.0388   77.5578  217.7744 H   0  0  0  0  0  0  0  0  0  0  0  0
  141.5808   78.6578  217.8633 H   0  0  0  0  0  0  0  0  0  0  0  0
  142.9891   77.1275  219.9367 H   0  0  0  0  0  0  0  0  0  0  0  0
  142.3072   78.9062  219.7907 H   0  0  0  0  0  0  0  0  0  0  0  0
  141.7396   76.9251  221.2317 H   0  0  0  0  0  0  0  0  0  0  0  0
  139.4925   78.7523  221.2194 H   0  0  0  0  0  0  0  0  0  0  0  0
  141.1558   80.0176  219.8680 H   0  0  0  0  0  0  0  0  0  0  0  0
  140.1273   80.7477  221.2087 H   0  0  0  0  0  0  0  0  0  0  0  0
  143.0509   80.0138  221.4290 H   0  0  0  0  0  0  0  0  0  0  0  0
  142.4103   81.6562  221.1955 H   0  0  0  0  0  0  0  0  0  0  0  0
  142.7402   81.2093  223.5960 H   0  0  0  0  0  0  0  0  0  0  0  0
  140.9847   81.3508  223.2397 H   0  0  0  0  0  0  0  0  0  0  0  0
  142.6369   78.8530  223.6195 H   0  0  0  0  0  0  0  0  0  0  0  0
  141.2275   79.5229  224.6181 H   0  0  0  0  0  0  0  0  0  0  0  0
  141.0032   77.4723  223.0512 H   0  0  0  0  0  0  0  0  0  0  0  0
  139.7184   78.7840  223.3121 H   0  0  0  0  0  0  0  0  0  0  0  0
  139.0537   70.0696  221.9973 H   0  0  0  0  0  0  0  0  0  0  0  0
  139.1825   68.3889  223.7892 H   0  0  0  0  0  0  0  0  0  0  0  0
  139.7813   67.8508  226.0631 H   0  0  0  0  0  0  0  0  0  0  0  0
  141.4352   70.9417  228.5427 H   0  0  0  0  0  0  0  0  0  0  0  0
  141.2774   72.6005  226.6869 H   0  0  0  0  0  0  0  0  0  0  0  0
  1  2  2  0
  2  3  1  0
  3  4  1  0
  4  5  1  0
  5  6  2  0
  5  7  1  0
  7  8  1  0
  8  9  1  0
  9 10  1  0
 10 11  1  0
 11 12  1  0
 12 13  1  0
 13 14  1  0
 14 15  1  0
 15 16  1  0
 16 17  1  0
 17 18  1  0
 18 19  1  0
  2 20  1  0
 20 21  2  0
 21 22  1  0
 22 23  2  0
 23 24  1  0
 24 25  2  0
 25 26  1  0
 25 27  1  0
 27 28  2  0
 28 29  1  0
 29 30  2  0
 13  7  1  0
 19 14  1  0
 30 20  1  0
 29 23  1  0
  3 31  1  0
  4 32  1  0
  4 33  1  0
  8 34  1  0
  8 35  1  0
  9 36  1  0
  9 37  1  0
 10 38  1  0
 10 39  1  0
 11 40  1  0
 11 41  1  0
 12 42  1  0
 12 43  1  0
 13 44  1  1
 14 45  1  0
 15 46  1  0
 15 47  1  0
 16 48  1  0
 16 49  1  0
 17 50  1  0
 17 51  1  0
 18 52  1  0
 18 53  1  0
 19 54  1  0
 19 55  1  0
 21 56  1  0
 22 57  1  0
 24 58  1  0
 27 59  1  0
 28 60  1  0
M  END
>  <smiles>  (96) 
O=C(NCC(=O)N1CCCCCC1C1CCCCC1)c1ccc2cc(Cl)ccc2n1

>  <score_type>  (96) 
oracle

>  <origin>  (96) 
autodockgpu

>  <m_score__min__energy>  (96) 
-6.6600000000000001

>  <m_primary>  (96) 
energy

>  <rmsd>  (96) 
1.3775446580308752

>  <m_score__min__rmsd>  (96) 
1.3775446580308752

>  <meeko>  (96) 
{"free_energy": -6.03, "intermolecular_energy": -9.31, "internal_energy": -1.73, "cluster_size": 30, "cluster_id": 1, "rank_in_cluster": 7}

>  <energy>  (96) 
-4.41

>  <cluster_rmsd>  (96) 
0.0

>  <cluster>  (96) 
8

$$$$

     RDKit          3D

 60 63  0  0  0  0  0  0  0  0999 V2000
  138.9350   71.4360  221.0100 O   0  0  0  0  0  0  0  0  0  0  0  0
  139.2320   71.9740  222.1060 C   0  0  0  0  0  0  0  0  0  0  0  0
  139.3280   73.3800  222.2940 N   0  0  0  0  0  0  0  0  0  0  0  0
  139.0800   74.2960  221.1970 C   0  0  0  0  0  0  0  0  0  0  0  0
  140.2320   75.1800  221.0690 C   0  0  0  0  0  0  0  0  0  0  0  0
  140.1650   76.3190  221.6360 O   0  0  0  0  0  0  0  0  0  0  0  0
  141.4360   74.8130  220.3250 N   0  0  0  0  0  0  0  0  0  0  0  0
  141.4640   73.3880  220.1040 C   0  0  0  0  0  0  0  0  0  0  0  0
  142.7710   72.7740  220.5030 C   0  0  0  0  0  0  0  0  0  0  0  0
  143.8170   73.2930  219.5400 C   0  0  0  0  0  0  0  0  0  0  0  0
  144.4190   74.5510  220.1520 C   0  0  0  0  0  0  0  0  0  0  0  0
  143.6880   75.7770  219.8240 C   0  0  0  0  0  0  0  0  0  0  0  0
  142.2600   75.9340  220.0070 C   0  0  1  0  0  0  0  0  0  0  0  0
  141.5200   76.8620  219.0290 C   0  0  0  0  0  0  0  0  0  0  0  0
  141.9050   76.7460  217.6110 C   0  0  0  0  0  0  0  0  0  0  0  0
  142.9470   77.7210  217.1490 C   0  0  0  0  0  0  0  0  0  0  0  0
  142.3900   79.1000  217.3760 C   0  0  0  0  0  0  0  0  0  0  0  0
  142.1590   79.3100  218.8350 C   0  0  0  0  0  0  0  0  0  0  0  0
  141.3930   78.2640  219.5440 C   0  0  0  0  0  0  0  0  0  0  0  0
  139.4980   71.1050  223.2640 C   0  0  0  0  0  0  0  0  0  0  0  0
  139.1540   69.7670  223.2370 C   0  0  0  0  0  0  0  0  0  0  0  0
  139.3700   68.9000  224.2760 C   0  0  0  0  0  0  0  0  0  0  0  0
  139.9700   69.4100  225.4120 C   0  0  0  0  0  0  0  0  0  0  0  0
  140.2050   68.5690  226.4810 C   0  0  0  0  0  0  0  0  0  0  0  0
  140.8000   69.1070  227.5890 C   0  0  0  0  0  0  0  0  0  0  0  0
  141.1030   68.0490  228.9510 Cl  0  0  0  0  0  0  0  0  0  0  0  0
  141.1460   70.4490  227.6210 C   0  0  0  0  0  0  0  0  0  0  0  0
  140.9100   71.2970  226.5450 C   0  0  0  0  0  0  0  0  0  0  0  0
  140.3020   70.7480  225.4120 C   0  0  0  0  0  0  0  0  0  0  0  0
  140.0760   71.5700  224.3760 N   0  0  0  0  0  0  0  0  0  0  0  0
  139.5840   73.7720  223.2410 H   0  0  0  0  0  0  0  0  0  0  0  0
  138.9402   73.7299  220.2643 H   0  0  0  0  0  0  0  0  0  0  0  0
  138.1712   74.8840  221.3926 H   0  0  0  0  0  0  0  0  0  0  0  0
  140.6605   72.9231  220.6941 H   0  0  0  0  0  0  0  0  0  0  0  0
  141.3260   73.2128  219.0269 H   0  0  0  0  0  0  0  0  0  0  0  0
  143.0270   73.0663  221.5321 H   0  0  0  0  0  0  0  0  0  0  0  0
  142.7156   71.6760  220.4675 H   0  0  0  0  0  0  0  0  0  0  0  0
  144.6006   72.5352  219.3924 H   0  0  0  0  0  0  0  0  0  0  0  0
  143.3662   73.5157  218.5616 H   0  0  0  0  0  0  0  0  0  0  0  0
  144.4274   74.4345  221.2458 H   0  0  0  0  0  0  0  0  0  0  0  0
  145.4298   74.6591  219.7319 H   0  0  0  0  0  0  0  0  0  0  0  0
  144.1560   76.5737  220.4208 H   0  0  0  0  0  0  0  0  0  0  0  0
  143.7635   75.7824  218.7266 H   0  0  0  0  0  0  0  0  0  0  0  0
  142.3892   76.4519  220.9688 H   0  0  0  0  0  0  0  0  0  0  0  0
  140.4938   76.4669  219.0018 H   0  0  0  0  0  0  0  0  0  0  0  0
  142.2930   75.7300  217.4460 H   0  0  0  0  0  0  0  0  0  0  0  0
  140.9985   76.9707  217.0298 H   0  0  0  0  0  0  0  0  0  0  0  0
  143.8727   77.5874  217.7281 H   0  0  0  0  0  0  0  0  0  0  0  0
  143.1878   77.5646  216.0871 H   0  0  0  0  0  0  0  0  0  0  0  0
  143.1053   79.8496  217.0065 H   0  0  0  0  0  0  0  0  0  0  0  0
  141.4375   79.2039  216.8356 H   0  0  0  0  0  0  0  0  0  0  0  0
  143.1431   79.3887  219.3201 H   0  0  0  0  0  0  0  0  0  0  0  0
  141.5394   80.2165  218.9015 H   0  0  0  0  0  0  0  0  0  0  0  0
  141.7239   78.2636  220.5930 H   0  0  0  0  0  0  0  0  0  0  0  0
  140.3366   78.5302  219.3917 H   0  0  0  0  0  0  0  0  0  0  0  0
  138.6780   69.3741  222.3265 H   0  0  0  0  0  0  0  0  0  0  0  0
  139.0779   67.8416  224.2087 H   0  0  0  0  0  0  0  0  0  0  0  0
  139.9243   67.5061  226.4433 H   0  0  0  0  0  0  0  0  0  0  0  0
  141.6219   70.8554  228.5256 H   0  0  0  0  0  0  0  0  0  0  0  0
  141.1910   72.3598  226.5835 H   0  0  0  0  0  0  0  0  0  0  0  0
  1  2  2  0
  2  3  1  0
  3  4  1  0
  4  5  1  0
  5  6  2  0
  5  7  1  0
  7  8  1  0
  8  9  1  0
  9 10  1  0
 10 11  1  0
 11 12  1  0
 12 13  1  0
 13 14  1  0
 14 15  1  0
 15 16  1  0
 16 17  1  0
 17 18  1  0
 18 19  1  0
  2 20  1  0
 20 21  2  0
 21 22  1  0
 22 23  2  0
 23 24  1  0
 24 25  2  0
 25 26  1  0
 25 27  1  0
 27 28  2  0
 28 29  1  0
 29 30  2  0
 13  7  1  0
 19 14  1  0
 30 20  1  0
 29 23  1  0
  3 31  1  0
  4 32  1  0
  4 33  1  0
  8 34  1  0
  8 35  1  0
  9 36  1  0
  9 37  1  0
 10 38  1  0
 10 39  1  0
 11 40  1  0
 11 41  1  0
 12 42  1  0
 12 43  1  0
 13 44  1  1
 14 45  1  0
 15 46  1  0
 15 47  1  0
 16 48  1  0
 16 49  1  0
 17 50  1  0
 17 51  1  0
 18 52  1  0
 18 53  1  0
 19 54  1  0
 19 55  1  0
 21 56  1  0
 22 57  1  0
 24 58  1  0
 27 59  1  0
 28 60  1  0
M  END
>  <smiles>  (97) 
O=C(NCC(=O)N1CCCCCC1C1CCCCC1)c1ccc2cc(Cl)ccc2n1

>  <score_type>  (97) 
oracle

>  <origin>  (97) 
autodockgpu

>  <m_score__min__energy>  (97) 
-6.6600000000000001

>  <m_primary>  (97) 
energy

>  <rmsd>  (97) 
2.1874509690005306

>  <m_score__min__rmsd>  (97) 
2.1874509690005306

>  <meeko>  (97) 
{"free_energy": -5.92, "intermolecular_energy": -9.2, "internal_energy": -2.05, "cluster_size": 7, "cluster_id": 3, "rank_in_cluster": 1}

>  <energy>  (97) 
-3.87

>  <cluster_rmsd>  (97) 
0.7

>  <cluster>  (97) 
8

$$$$

     RDKit          3D

 60 63  0  0  0  0  0  0  0  0999 V2000
  140.0250   73.7230  220.3250 O   0  0  0  0  0  0  0  0  0  0  0  0
  139.7380   73.8580  221.5410 C   0  0  0  0  0  0  0  0  0  0  0  0
  139.4590   75.1120  222.1510 N   0  0  0  0  0  0  0  0  0  0  0  0
  139.4890   76.3380  221.3780 C   0  0  0  0  0  0  0  0  0  0  0  0
  138.5990   77.3030  222.0140 C   0  0  0  0  0  0  0  0  0  0  0  0
  138.0700   76.9710  223.1250 O   0  0  0  0  0  0  0  0  0  0  0  0
  138.2980   78.6090  221.4320 N   0  0  0  0  0  0  0  0  0  0  0  0
  136.9240   78.6520  220.9970 C   0  0  0  0  0  0  0  0  0  0  0  0
  136.2320   79.9140  221.4150 C   0  0  0  0  0  0  0  0  0  0  0  0
  136.8160   81.0350  220.5810 C   0  0  0  0  0  0  0  0  0  0  0  0
  137.9810   81.6270  221.3610 C   0  0  0  0  0  0  0  0  0  0  0  0
  139.2450   80.9090  221.1730 C   0  0  0  0  0  0  0  0  0  0  0  0
  139.4150   79.4980  221.4480 C   0  0  1  0  0  0  0  0  0  0  0  0
  140.3720   79.1110  222.5870 C   0  0  0  0  0  0  0  0  0  0  0  0
  140.2830   79.9270  223.8110 C   0  0  0  0  0  0  0  0  0  0  0  0
  141.2580   81.0650  223.8940 C   0  0  0  0  0  0  0  0  0  0  0  0
  142.6370   80.4680  223.8220 C   0  0  0  0  0  0  0  0  0  0  0  0
  142.8180   79.7850  222.5080 C   0  0  0  0  0  0  0  0  0  0  0  0
  141.7640   78.8310  222.1050 C   0  0  0  0  0  0  0  0  0  0  0  0
  139.6890   72.6540  222.3870 C   0  0  0  0  0  0  0  0  0  0  0  0
  138.9800   71.5380  221.9880 C   0  0  0  0  0  0  0  0  0  0  0  0
  138.8900   70.3850  222.7230 C   0  0  0  0  0  0  0  0  0  0  0  0
  139.5560   70.3530  223.9340 C   0  0  0  0  0  0  0  0  0  0  0  0
  139.4900   69.2080  224.7040 C   0  0  0  0  0  0  0  0  0  0  0  0
  140.1590   69.2110  225.8960 C   0  0  0  0  0  0  0  0  0  0  0  0
  140.0830   67.7650  226.8820 Cl  0  0  0  0  0  0  0  0  0  0  0  0
  140.8730   70.3280  226.3020 C   0  0  0  0  0  0  0  0  0  0  0  0
  140.9400   71.4810  225.5270 C   0  0  0  0  0  0  0  0  0  0  0  0
  140.2560   71.4800  224.3080 C   0  0  0  0  0  0  0  0  0  0  0  0
  140.3220   72.5930  223.5630 N   0  0  0  0  0  0  0  0  0  0  0  0
  139.2250   75.1600  223.1800 H   0  0  0  0  0  0  0  0  0  0  0  0
  140.5137   76.7372  221.3535 H   0  0  0  0  0  0  0  0  0  0  0  0
  139.1613   76.1433  220.3462 H   0  0  0  0  0  0  0  0  0  0  0  0
  136.8985   78.5819  219.8995 H   0  0  0  0  0  0  0  0  0  0  0  0
  136.3967   77.8087  221.4669 H   0  0  0  0  0  0  0  0  0  0  0  0
  135.1506   79.8305  221.2318 H   0  0  0  0  0  0  0  0  0  0  0  0
  136.3783   80.1054  222.4883 H   0  0  0  0  0  0  0  0  0  0  0  0
  137.1710   80.6405  219.6175 H   0  0  0  0  0  0  0  0  0  0  0  0
  136.0555   81.8034  220.3782 H   0  0  0  0  0  0  0  0  0  0  0  0
  138.1222   82.6684  221.0362 H   0  0  0  0  0  0  0  0  0  0  0  0
  137.7244   81.5496  222.4278 H   0  0  0  0  0  0  0  0  0  0  0  0
  139.5108   81.0422  220.1139 H   0  0  0  0  0  0  0  0  0  0  0  0
  139.8635   81.3561  221.9652 H   0  0  0  0  0  0  0  0  0  0  0  0
  139.9108   79.3186  220.4826 H   0  0  0  0  0  0  0  0  0  0  0  0
  139.9890   78.1454  222.9489 H   0  0  0  0  0  0  0  0  0  0  0  0
  139.2670   80.3448  223.8681 H   0  0  0  0  0  0  0  0  0  0  0  0
  140.5293   79.2533  224.6450 H   0  0  0  0  0  0  0  0  0  0  0  0
  141.1020   81.7582  223.0543 H   0  0  0  0  0  0  0  0  0  0  0  0
  141.1231   81.6306  224.8278 H   0  0  0  0  0  0  0  0  0  0  0  0
  143.3873   81.2656  223.9266 H   0  0  0  0  0  0  0  0  0  0  0  0
  142.7617   79.7368  224.6343 H   0  0  0  0  0  0  0  0  0  0  0  0
  142.8769   80.5635  221.7331 H   0  0  0  0  0  0  0  0  0  0  0  0
  143.7289   79.1787  222.6205 H   0  0  0  0  0  0  0  0  0  0  0  0
  141.7368   78.8115  221.0055 H   0  0  0  0  0  0  0  0  0  0  0  0
  142.0443   77.8787  222.5789 H   0  0  0  0  0  0  0  0  0  0  0  0
  138.4558   71.5770  221.0217 H   0  0  0  0  0  0  0  0  0  0  0  0
  138.3118   69.5207  222.3643 H   0  0  0  0  0  0  0  0  0  0  0  0
  138.9209   68.3276  224.3707 H   0  0  0  0  0  0  0  0  0  0  0  0
  141.4023   70.3015  227.2659 H   0  0  0  0  0  0  0  0  0  0  0  0
  141.5099   72.3607  225.8608 H   0  0  0  0  0  0  0  0  0  0  0  0
  1  2  2  0
  2  3  1  0
  3  4  1  0
  4  5  1  0
  5  6  2  0
  5  7  1  0
  7  8  1  0
  8  9  1  0
  9 10  1  0
 10 11  1  0
 11 12  1  0
 12 13  1  0
 13 14  1  0
 14 15  1  0
 15 16  1  0
 16 17  1  0
 17 18  1  0
 18 19  1  0
  2 20  1  0
 20 21  2  0
 21 22  1  0
 22 23  2  0
 23 24  1  0
 24 25  2  0
 25 26  1  0
 25 27  1  0
 27 28  2  0
 28 29  1  0
 29 30  2  0
 13  7  1  0
 19 14  1  0
 30 20  1  0
 29 23  1  0
  3 31  1  0
  4 32  1  0
  4 33  1  0
  8 34  1  0
  8 35  1  0
  9 36  1  0
  9 37  1  0
 10 38  1  0
 10 39  1  0
 11 40  1  0
 11 41  1  0
 12 42  1  0
 12 43  1  0
 13 44  1  6
 14 45  1  0
 15 46  1  0
 15 47  1  0
 16 48  1  0
 16 49  1  0
 17 50  1  0
 17 51  1  0
 18 52  1  0
 18 53  1  0
 19 54  1  0
 19 55  1  0
 21 56  1  0
 22 57  1  0
 24 58  1  0
 27 59  1  0
 28 60  1  0
M  END
>  <smiles>  (98) 
O=C(NCC(=O)N1CCCCCC1C1CCCCC1)c1ccc2cc(Cl)ccc2n1

>  <score_type>  (98) 
oracle

>  <origin>  (98) 
autodockgpu

>  <m_score__min__energy>  (98) 
-6.6600000000000001

>  <m_primary>  (98) 
energy

>  <rmsd>  (98) 
3.7404421225520825

>  <m_score__min__rmsd>  (98) 
3.7404421225520825

>  <meeko>  (98) 
{"free_energy": -5.97, "intermolecular_energy": -9.25, "internal_energy": -2.28, "cluster_size": 4, "cluster_id": 2, "rank_in_cluster": 2}

>  <energy>  (98) 
-4.41

>  <cluster_rmsd>  (98) 
0.0

>  <cluster>  (98) 
9

$$$$

     RDKit          3D

 60 63  0  0  0  0  0  0  0  0999 V2000
  141.4370   73.7090  218.9640 O   0  0  0  0  0  0  0  0  0  0  0  0
  141.5160   73.8230  220.2140 C   0  0  0  0  0  0  0  0  0  0  0  0
  142.1240   74.9300  220.8670 N   0  0  0  0  0  0  0  0  0  0  0  0
  142.7020   76.0190  220.1030 C   0  0  0  0  0  0  0  0  0  0  0  0
  141.6160   76.8450  219.5900 C   0  0  0  0  0  0  0  0  0  0  0  0
  140.4940   76.2780  219.3820 O   0  0  0  0  0  0  0  0  0  0  0  0
  141.7670   78.2720  219.3110 N   0  0  0  0  0  0  0  0  0  0  0  0
  141.8180   78.4940  217.8870 C   0  0  0  0  0  0  0  0  0  0  0  0
  141.2140   79.8080  217.4920 C   0  0  0  0  0  0  0  0  0  0  0  0
  142.1670   80.8900  217.9530 C   0  0  0  0  0  0  0  0  0  0  0  0
  141.7020   81.3560  219.3260 C   0  0  0  0  0  0  0  0  0  0  0  0
  142.1310   80.4820  220.4230 C   0  0  0  0  0  0  0  0  0  0  0  0
  141.8190   79.0700  220.4930 C   0  0  1  0  0  0  0  0  0  0  0  0
  140.7020   78.6410  221.4590 C   0  0  0  0  0  0  0  0  0  0  0  0
  139.4920   79.4810  221.4630 C   0  0  0  0  0  0  0  0  0  0  0  0
  139.4610   80.5550  222.5110 C   0  0  0  0  0  0  0  0  0  0  0  0
  139.5640   79.8690  223.8460 C   0  0  0  0  0  0  0  0  0  0  0  0
  140.8700   79.1540  223.9400 C   0  0  0  0  0  0  0  0  0  0  0  0
  141.2220   78.2630  222.8140 C   0  0  0  0  0  0  0  0  0  0  0  0
  140.9500   72.7540  221.0520 C   0  0  0  0  0  0  0  0  0  0  0  0
  140.2990   71.6780  220.4820 C   0  0  0  0  0  0  0  0  0  0  0  0
  139.7480   70.6480  221.1990 C   0  0  0  0  0  0  0  0  0  0  0  0
  139.8600   70.7050  222.5760 C   0  0  0  0  0  0  0  0  0  0  0  0
  139.3180   69.6860  223.3340 C   0  0  0  0  0  0  0  0  0  0  0  0
  139.4460   69.7740  224.6930 C   0  0  0  0  0  0  0  0  0  0  0  0
  138.7620   68.4890  225.6650 Cl  0  0  0  0  0  0  0  0  0  0  0  0
  140.0980   70.8530  225.2710 C   0  0  0  0  0  0  0  0  0  0  0  0
  140.6440   71.8790  224.5080 C   0  0  0  0  0  0  0  0  0  0  0  0
  140.5140   71.7900  223.1190 C   0  0  0  0  0  0  0  0  0  0  0  0
  141.0420   72.7820  222.3860 N   0  0  0  0  0  0  0  0  0  0  0  0
  142.1610   74.9680  221.9220 H   0  0  0  0  0  0  0  0  0  0  0  0
  143.3544   76.6227  220.7510 H   0  0  0  0  0  0  0  0  0  0  0  0
  143.3017   75.6217  219.2708 H   0  0  0  0  0  0  0  0  0  0  0  0
  142.8694   78.4771  217.5642 H   0  0  0  0  0  0  0  0  0  0  0  0
  141.2349   77.6973  217.4020 H   0  0  0  0  0  0  0  0  0  0  0  0
  141.0903   79.8538  216.3999 H   0  0  0  0  0  0  0  0  0  0  0  0
  140.2222   79.9375  217.9499 H   0  0  0  0  0  0  0  0  0  0  0  0
  143.1885   80.4873  218.0193 H   0  0  0  0  0  0  0  0  0  0  0  0
  142.1739   81.7287  217.2413 H   0  0  0  0  0  0  0  0  0  0  0  0
  142.1064   82.3630  219.5061 H   0  0  0  0  0  0  0  0  0  0  0  0
  140.6022   81.3406  219.3147 H   0  0  0  0  0  0  0  0  0  0  0  0
  143.2287   80.5480  220.4472 H   0  0  0  0  0  0  0  0  0  0  0  0
  141.5289   80.8745  221.2557 H   0  0  0  0  0  0  0  0  0  0  0  0
  142.7955   78.8253  220.9363 H   0  0  0  0  0  0  0  0  0  0  0  0
  140.3095   77.7094  221.0253 H   0  0  0  0  0  0  0  0  0  0  0  0
  139.4105   79.9644  220.4783 H   0  0  0  0  0  0  0  0  0  0  0  0
  138.6540   78.8067  221.6932 H   0  0  0  0  0  0  0  0  0  0  0  0
  140.3087   81.2423  222.3729 H   0  0  0  0  0  0  0  0  0  0  0  0
  138.5346   81.1441  222.4425 H   0  0  0  0  0  0  0  0  0  0  0  0
  139.4977   80.6180  224.6489 H   0  0  0  0  0  0  0  0  0  0  0  0
  138.7422   79.1452  223.9499 H   0  0  0  0  0  0  0  0  0  0  0  0
  141.6608   79.9141  224.0234 H   0  0  0  0  0  0  0  0  0  0  0  0
  140.7748   78.4921  224.8134 H   0  0  0  0  0  0  0  0  0  0  0  0
  142.3195   78.2267  222.7501 H   0  0  0  0  0  0  0  0  0  0  0  0
  140.7393   77.3026  223.0477 H   0  0  0  0  0  0  0  0  0  0  0  0
  140.2176   71.6454  219.3855 H   0  0  0  0  0  0  0  0  0  0  0  0
  139.2380   69.8109  220.6998 H   0  0  0  0  0  0  0  0  0  0  0  0
  138.8029   68.8359  222.8629 H   0  0  0  0  0  0  0  0  0  0  0  0
  140.1858   70.8984  226.3665 H   0  0  0  0  0  0  0  0  0  0  0  0
  141.1590   72.7289  224.9796 H   0  0  0  0  0  0  0  0  0  0  0  0
  1  2  2  0
  2  3  1  0
  3  4  1  0
  4  5  1  0
  5  6  2  0
  5  7  1  0
  7  8  1  0
  8  9  1  0
  9 10  1  0
 10 11  1  0
 11 12  1  0
 12 13  1  0
 13 14  1  0
 14 15  1  0
 15 16  1  0
 16 17  1  0
 17 18  1  0
 18 19  1  0
  2 20  1  0
 20 21  2  0
 21 22  1  0
 22 23  2  0
 23 24  1  0
 24 25  2  0
 25 26  1  0
 25 27  1  0
 27 28  2  0
 28 29  1  0
 29 30  2  0
 13  7  1  0
 19 14  1  0
 30 20  1  0
 29 23  1  0
  3 31  1  0
  4 32  1  0
  4 33  1  0
  8 34  1  0
  8 35  1  0
  9 36  1  0
  9 37  1  0
 10 38  1  0
 10 39  1  0
 11 40  1  0
 11 41  1  0
 12 42  1  0
 12 43  1  0
 13 44  1  1
 14 45  1  0
 15 46  1  0
 15 47  1  0
 16 48  1  0
 16 49  1  0
 17 50  1  0
 17 51  1  0
 18 52  1  0
 18 53  1  0
 19 54  1  0
 19 55  1  0
 21 56  1  0
 22 57  1  0
 24 58  1  0
 27 59  1  0
 28 60  1  0
M  END
>  <smiles>  (99) 
O=C(NCC(=O)N1CCCCCC1C1CCCCC1)c1ccc2cc(Cl)ccc2n1

>  <score_type>  (99) 
oracle

>  <origin>  (99) 
autodockgpu

>  <m_score__min__energy>  (99) 
-6.6600000000000001

>  <m_primary>  (99) 
energy

>  <rmsd>  (99) 
3.985523087480166

>  <m_score__min__rmsd>  (99) 
3.985523087480166

>  <meeko>  (99) 
{"free_energy": -4.59, "intermolecular_energy": -7.88, "internal_energy": -2.0, "cluster_size": 30, "cluster_id": 1, "rank_in_cluster": 29}

>  <energy>  (99) 
-4.07

>  <cluster_rmsd>  (99) 
0.48

>  <cluster>  (99) 
9

$$$$

     RDKit          3D

 60 63  0  0  0  0  0  0  0  0999 V2000
  140.2320   73.5330  220.5860 O   0  0  0  0  0  0  0  0  0  0  0  0
  139.7410   73.7340  221.7250 C   0  0  0  0  0  0  0  0  0  0  0  0
  139.3340   75.0140  222.1930 N   0  0  0  0  0  0  0  0  0  0  0  0
  139.4660   76.1900  221.3550 C   0  0  0  0  0  0  0  0  0  0  0  0
  140.8220   76.7080  221.5030 C   0  0  0  0  0  0  0  0  0  0  0  0
  141.3960   76.5370  222.6270 O   0  0  0  0  0  0  0  0  0  0  0  0
  141.5270   77.4030  220.4280 N   0  0  0  0  0  0  0  0  0  0  0  0
  141.7470   76.5060  219.3210 C   0  0  0  0  0  0  0  0  0  0  0  0
  141.2800   77.0830  218.0180 C   0  0  0  0  0  0  0  0  0  0  0  0
  142.1530   78.2860  217.7290 C   0  0  0  0  0  0  0  0  0  0  0  0
  141.4520   79.5090  218.3050 C   0  0  0  0  0  0  0  0  0  0  0  0
  141.7910   79.7820  219.7030 C   0  0  0  0  0  0  0  0  0  0  0  0
  141.8100   78.7680  220.7370 C   0  0  1  0  0  0  0  0  0  0  0  0
  141.1900   79.1330  222.0950 C   0  0  0  0  0  0  0  0  0  0  0  0
  140.2680   80.2820  222.0970 C   0  0  0  0  0  0  0  0  0  0  0  0
  140.8870   81.6000  222.4580 C   0  0  0  0  0  0  0  0  0  0  0  0
  141.4620   81.4520  223.8400 C   0  0  0  0  0  0  0  0  0  0  0  0
  142.5320   80.4140  223.8270 C   0  0  0  0  0  0  0  0  0  0  0  0
  142.1900   79.1140  223.2120 C   0  0  0  0  0  0  0  0  0  0  0  0
  139.5770   72.5860  222.6300 C   0  0  0  0  0  0  0  0  0  0  0  0
  138.5920   71.6440  222.4070 C   0  0  0  0  0  0  0  0  0  0  0  0
  138.3810   70.5510  223.2060 C   0  0  0  0  0  0  0  0  0  0  0  0
  139.2130   70.3960  224.2990 C   0  0  0  0  0  0  0  0  0  0  0  0
  139.0330   69.3070  225.1290 C   0  0  0  0  0  0  0  0  0  0  0  0
  139.8740   69.1850  226.2000 C   0  0  0  0  0  0  0  0  0  0  0  0
  139.6550   67.8090  227.2600 Cl  0  0  0  0  0  0  0  0  0  0  0  0
  140.8650   70.1270  226.4300 C   0  0  0  0  0  0  0  0  0  0  0  0
  141.0470   71.2240  225.5950 C   0  0  0  0  0  0  0  0  0  0  0  0
  140.1880   71.3500  224.4990 C   0  0  0  0  0  0  0  0  0  0  0  0
  140.3660   72.4090  223.6950 N   0  0  0  0  0  0  0  0  0  0  0  0
  138.9290   75.1190  223.1630 H   0  0  0  0  0  0  0  0  0  0  0  0
  139.2834   75.9204  220.3043 H   0  0  0  0  0  0  0  0  0  0  0  0
  138.7336   76.9537  221.6555 H   0  0  0  0  0  0  0  0  0  0  0  0
  142.8236   76.2925  219.2475 H   0  0  0  0  0  0  0  0  0  0  0  0
  141.1673   75.5904  219.5101 H   0  0  0  0  0  0  0  0  0  0  0  0
  141.3854   76.3381  217.2155 H   0  0  0  0  0  0  0  0  0  0  0  0
  140.2199   77.3712  218.0735 H   0  0  0  0  0  0  0  0  0  0  0  0
  143.1370   78.1587  218.2038 H   0  0  0  0  0  0  0  0  0  0  0  0
  142.3070   78.4018  216.6460 H   0  0  0  0  0  0  0  0  0  0  0  0
  141.7332   80.3854  217.7027 H   0  0  0  0  0  0  0  0  0  0  0  0
  140.3718   79.3037  218.2720 H   0  0  0  0  0  0  0  0  0  0  0  0
  142.8027   80.2134  219.6875 H   0  0  0  0  0  0  0  0  0  0  0  0
  140.9292   80.3895  220.0164 H   0  0  0  0  0  0  0  0  0  0  0  0
  142.9064   78.8007  220.8202 H   0  0  0  0  0  0  0  0  0  0  0  0
  140.4965   78.3065  222.3092 H   0  0  0  0  0  0  0  0  0  0  0  0
  139.8370   80.3736  221.0891 H   0  0  0  0  0  0  0  0  0  0  0  0
  139.5222   80.0722  222.8778 H   0  0  0  0  0  0  0  0  0  0  0  0
  141.6835   81.8519  221.7424 H   0  0  0  0  0  0  0  0  0  0  0  0
  140.1392   82.4062  222.4282 H   0  0  0  0  0  0  0  0  0  0  0  0
  141.8879   82.4130  224.1643 H   0  0  0  0  0  0  0  0  0  0  0  0
  140.6665   81.1485  224.5365 H   0  0  0  0  0  0  0  0  0  0  0  0
  143.3902   80.8272  223.2768 H   0  0  0  0  0  0  0  0  0  0  0  0
  142.7290   80.1894  224.8857 H   0  0  0  0  0  0  0  0  0  0  0  0
  143.1199   78.6782  222.8179 H   0  0  0  0  0  0  0  0  0  0  0  0
  141.7112   78.5345  224.0151 H   0  0  0  0  0  0  0  0  0  0  0  0
  137.9364   71.7795  221.5341 H   0  0  0  0  0  0  0  0  0  0  0  0
  137.5826   69.8268  222.9867 H   0  0  0  0  0  0  0  0  0  0  0  0
  138.2432   68.5661  224.9358 H   0  0  0  0  0  0  0  0  0  0  0  0
  141.5274   70.0028  227.2994 H   0  0  0  0  0  0  0  0  0  0  0  0
  141.8368   71.9646  225.7894 H   0  0  0  0  0  0  0  0  0  0  0  0
  1  2  2  0
  2  3  1  0
  3  4  1  0
  4  5  1  0
  5  6  2  0
  5  7  1  0
  7  8  1  0
  8  9  1  0
  9 10  1  0
 10 11  1  0
 11 12  1  0
 12 13  1  0
 13 14  1  0
 14 15  1  0
 15 16  1  0
 16 17  1  0
 17 18  1  0
 18 19  1  0
  2 20  1  0
 20 21  2  0
 21 22  1  0
 22 23  2  0
 23 24  1  0
 24 25  2  0
 25 26  1  0
 25 27  1  0
 27 28  2  0
 28 29  1  0
 29 30  2  0
 13  7  1  0
 19 14  1  0
 30 20  1  0
 29 23  1  0
  3 31  1  0
  4 32  1  0
  4 33  1  0
  8 34  1  0
  8 35  1  0
  9 36  1  0
  9 37  1  0
 10 38  1  0
 10 39  1  0
 11 40  1  0
 11 41  1  0
 12 42  1  0
 12 43  1  0
 13 44  1  1
 14 45  1  0
 15 46  1  0
 15 47  1  0
 16 48  1  0
 16 49  1  0
 17 50  1  0
 17 51  1  0
 18 52  1  0
 18 53  1  0
 19 54  1  0
 19 55  1  0
 21 56  1  0
 22 57  1  0
 24 58  1  0
 27 59  1  0
 28 60  1  0
M  END
>  <smiles>  (100) 
O=C(NCC(=O)N1CCCCCC1C1CCCCC1)c1ccc2cc(Cl)ccc2n1

>  <score_type>  (100) 
oracle

>  <origin>  (100) 
autodockgpu

>  <m_score__min__energy>  (100) 
-6.6600000000000001

>  <m_primary>  (100) 
energy

>  <rmsd>  (100) 
2.5531950466647393

>  <m_score__min__rmsd>  (100) 
2.5531950466647393

>  <meeko>  (100) 
{"free_energy": -6.38, "intermolecular_energy": -9.67, "internal_energy": -1.5, "cluster_size": 30, "cluster_id": 1, "rank_in_cluster": 2}

>  <energy>  (100) 
-4.2

>  <cluster_rmsd>  (100) 
0.0

>  <cluster>  (100) 
10

$$$$
