
     RDKit          3D

 47 49  0  0  0  0  0  0  0  0999 V2000
  139.8590   67.7700  226.5880 C   0  0  0  0  0  0  0  0  0  0  0  0
  140.2030   69.2070  226.5810 C   0  0  0  0  0  0  0  0  0  0  0  0
  140.6790   69.7360  227.7830 C   0  0  0  0  0  0  0  0  0  0  0  0
  141.0350   71.0630  227.9070 C   0  0  0  0  0  0  0  0  0  0  0  0
  140.9070   71.8740  226.7920 C   0  0  0  0  0  0  0  0  0  0  0  0
  140.4370   71.3380  225.6190 C   0  0  0  0  0  0  0  0  0  0  0  0
  140.0790   70.0210  225.4750 C   0  0  0  0  0  0  0  0  0  0  0  0
  139.5710   69.4360  224.2070 C   0  0  2  0  0  0  0  0  0  0  0  0
  139.7600   70.4600  223.1120 C   0  0  0  0  0  0  0  0  0  0  0  0
  138.1720   69.0970  224.3850 N   0  0  0  0  0  0  0  0  0  0  0  0
  137.1590   70.1020  224.5720 C   0  0  0  0  0  0  0  0  0  0  0  0
  137.5650   71.3000  224.5710 O   0  0  0  0  0  0  0  0  0  0  0  0
  135.7280   69.7600  224.7540 C   0  0  0  0  0  0  0  0  0  0  0  0
  135.0680   70.9730  225.2210 N   0  0  0  0  0  0  0  0  0  0  0  0
  133.9360   70.9300  226.0800 C   0  0  0  0  0  0  0  0  0  0  0  0
  133.4670   69.8040  226.4680 O   0  0  0  0  0  0  0  0  0  0  0  0
  133.3110   72.1810  226.5190 C   0  0  0  0  0  0  0  0  0  0  0  0
  132.0830   72.1240  227.1600 C   0  0  0  0  0  0  0  0  0  0  0  0
  131.4270   73.2410  227.6020 C   0  0  0  0  0  0  0  0  0  0  0  0
  132.0350   74.4610  227.3900 C   0  0  0  0  0  0  0  0  0  0  0  0
  131.3740   75.5850  227.8370 C   0  0  0  0  0  0  0  0  0  0  0  0
  131.9450   76.8200  227.6450 C   0  0  0  0  0  0  0  0  0  0  0  0
  131.2620   77.9000  228.0980 F   0  0  0  0  0  0  0  0  0  0  0  0
  133.1570   76.8890  227.0130 C   0  0  0  0  0  0  0  0  0  0  0  0
  133.8210   75.7450  226.5640 C   0  0  0  0  0  0  0  0  0  0  0  0
  133.2530   74.4940  226.7520 C   0  0  0  0  0  0  0  0  0  0  0  0
  133.8920   73.3850  226.3180 N   0  0  0  0  0  0  0  0  0  0  0  0
  139.7748   67.4182  227.6268 H   0  0  0  0  0  0  0  0  0  0  0  0
  138.8996   67.6201  226.0712 H   0  0  0  0  0  0  0  0  0  0  0  0
  140.6465   67.2019  226.0712 H   0  0  0  0  0  0  0  0  0  0  0  0
  140.7728   69.0746  228.6569 H   0  0  0  0  0  0  0  0  0  0  0  0
  141.4085   71.4639  228.8608 H   0  0  0  0  0  0  0  0  0  0  0  0
  141.1795   72.9383  226.8458 H   0  0  0  0  0  0  0  0  0  0  0  0
  140.3421   72.0007  224.7462 H   0  0  0  0  0  0  0  0  0  0  0  0
  140.1150   68.5203  223.9322 H   0  0  0  0  0  0  0  0  0  0  0  0
  139.9423   71.4475  223.5610 H   0  0  0  0  0  0  0  0  0  0  0  0
  140.6209   70.1759  222.4890 H   0  0  0  0  0  0  0  0  0  0  0  0
  138.8544   70.5020  222.4890 H   0  0  0  0  0  0  0  0  0  0  0  0
  137.8160   68.1120  224.3880 H   0  0  0  0  0  0  0  0  0  0  0  0
  135.2910   69.4334  223.7988 H   0  0  0  0  0  0  0  0  0  0  0  0
  135.6043   68.9377  225.4741 H   0  0  0  0  0  0  0  0  0  0  0  0
  135.4330   71.9210  224.9170 H   0  0  0  0  0  0  0  0  0  0  0  0
  131.6167   71.1406  227.3199 H   0  0  0  0  0  0  0  0  0  0  0  0
  130.4524   73.1687  228.1069 H   0  0  0  0  0  0  0  0  0  0  0  0
  130.4007   75.4944  228.3415 H   0  0  0  0  0  0  0  0  0  0  0  0
  133.6215   77.8734  226.8541 H   0  0  0  0  0  0  0  0  0  0  0  0
  134.7950   75.8365  226.0610 H   0  0  0  0  0  0  0  0  0  0  0  0
  1  2  1  0
  2  3  2  0
  3  4  1  0
  4  5  2  0
  5  6  1  0
  6  7  2  0
  7  8  1  0
  8  9  1  0
  8 10  1  0
 10 11  1  0
 11 12  2  0
 11 13  1  0
 13 14  1  0
 14 15  1  0
 15 16  2  0
 15 17  1  0
 17 18  2  0
 18 19  1  0
 19 20  2  0
 20 21  1  0
 21 22  2  0
 22 23  1  0
 22 24  1  0
 24 25  2  0
 25 26  1  0
 26 27  2  0
  7  2  1  0
 27 17  1  0
 26 20  1  0
  1 28  1  0
  1 29  1  0
  1 30  1  0
  3 31  1  0
  4 32  1  0
  5 33  1  0
  6 34  1  0
  8 35  1  6
  9 36  1  0
  9 37  1  0
  9 38  1  0
 10 39  1  0
 13 40  1  0
 13 41  1  0
 14 42  1  0
 18 43  1  0
 19 44  1  0
 21 45  1  0
 24 46  1  0
 25 47  1  0
M  END
>  <smiles>  (1) 
Cc1ccccc1[C@H](C)NC(=O)CNC(=O)c1ccc2cc(F)ccc2n1

>  <score_type>  (1) 
oracle

>  <origin>  (1) 
autodockgpu

>  <m_score__min__energy>  (1) 
-8.6999999999999993

>  <m_primary>  (1) 
energy

>  <rmsd>  (1) 
10.532003257680582

>  <m_score__min__rmsd>  (1) 
10.532003257680582

>  <meeko>  (1) 
{"free_energy": -8.2, "intermolecular_energy": -9.69, "internal_energy": -1.78, "cluster_size": 13, "cluster_id": 2, "rank_in_cluster": 12}

>  <energy>  (1) 
-8.7

>  <cluster_rmsd>  (1) 
0.0

>  <cluster>  (1) 
1

$$$$

     RDKit          3D

 47 49  0  0  0  0  0  0  0  0999 V2000
  142.2710   79.0640  222.8190 C   0  0  0  0  0  0  0  0  0  0  0  0
  140.7950   79.0620  222.8640 C   0  0  0  0  0  0  0  0  0  0  0  0
  140.2030   79.8800  223.8290 C   0  0  0  0  0  0  0  0  0  0  0  0
  138.8350   79.9670  223.9730 C   0  0  0  0  0  0  0  0  0  0  0  0
  138.0450   79.2110  223.1240 C   0  0  0  0  0  0  0  0  0  0  0  0
  138.6430   78.4120  222.1820 C   0  0  0  0  0  0  0  0  0  0  0  0
  140.0020   78.3120  222.0220 C   0  0  0  0  0  0  0  0  0  0  0  0
  140.6540   77.4490  221.0020 C   0  0  2  0  0  0  0  0  0  0  0  0
  140.7800   78.2460  219.7260 C   0  0  0  0  0  0  0  0  0  0  0  0
  139.8380   76.2640  220.8130 N   0  0  0  0  0  0  0  0  0  0  0  0
  140.0860   75.0430  221.5320 C   0  0  0  0  0  0  0  0  0  0  0  0
  141.0590   75.0660  222.3400 O   0  0  0  0  0  0  0  0  0  0  0  0
  139.2550   73.8300  221.3420 C   0  0  0  0  0  0  0  0  0  0  0  0
  139.4890   72.9810  222.5040 N   0  0  0  0  0  0  0  0  0  0  0  0
  139.1520   71.5990  222.5060 C   0  0  0  0  0  0  0  0  0  0  0  0
  138.6290   71.0650  221.4690 O   0  0  0  0  0  0  0  0  0  0  0  0
  139.4090   70.7930  223.7030 C   0  0  0  0  0  0  0  0  0  0  0  0
  139.0100   69.4650  223.7100 C   0  0  0  0  0  0  0  0  0  0  0  0
  139.2090   68.6390  224.7840 C   0  0  0  0  0  0  0  0  0  0  0  0
  139.8340   69.1740  225.8900 C   0  0  0  0  0  0  0  0  0  0  0  0
  140.0340   68.3410  226.9710 C   0  0  0  0  0  0  0  0  0  0  0  0
  140.6530   68.8350  228.0940 C   0  0  0  0  0  0  0  0  0  0  0  0
  140.8300   67.9840  229.1340 F   0  0  0  0  0  0  0  0  0  0  0  0
  141.0510   70.1450  228.0980 C   0  0  0  0  0  0  0  0  0  0  0  0
  140.8450   70.9820  227.0000 C   0  0  0  0  0  0  0  0  0  0  0  0
  140.2210   70.4930  225.8610 C   0  0  0  0  0  0  0  0  0  0  0  0
  140.0190   71.3010  224.7960 N   0  0  0  0  0  0  0  0  0  0  0  0
  142.6691   79.0645  223.8444 H   0  0  0  0  0  0  0  0  0  0  0  0
  142.6229   78.1663  222.2895 H   0  0  0  0  0  0  0  0  0  0  0  0
  142.6205   79.9626  222.2895 H   0  0  0  0  0  0  0  0  0  0  0  0
  140.8481   80.4727  224.4942 H   0  0  0  0  0  0  0  0  0  0  0  0
  138.3852   80.6166  224.7383 H   0  0  0  0  0  0  0  0  0  0  0  0
  136.9486   79.2503  223.2036 H   0  0  0  0  0  0  0  0  0  0  0  0
  137.9968   77.8187  221.5183 H   0  0  0  0  0  0  0  0  0  0  0  0
  141.6579   77.1297  221.3186 H   0  0  0  0  0  0  0  0  0  0  0  0
  140.9475   79.3054  219.9704 H   0  0  0  0  0  0  0  0  0  0  0  0
  141.6293   77.8664  219.1389 H   0  0  0  0  0  0  0  0  0  0  0  0
  139.8550   78.1469  219.1389 H   0  0  0  0  0  0  0  0  0  0  0  0
  139.0280   76.2250  220.1500 H   0  0  0  0  0  0  0  0  0  0  0  0
  138.1915   74.1040  221.2797 H   0  0  0  0  0  0  0  0  0  0  0  0
  139.5189   73.3094  220.4096 H   0  0  0  0  0  0  0  0  0  0  0  0
  139.9200   73.3950  223.3800 H   0  0  0  0  0  0  0  0  0  0  0  0
  138.5135   69.0585  222.8166 H   0  0  0  0  0  0  0  0  0  0  0  0
  138.8826   67.5887  224.7648 H   0  0  0  0  0  0  0  0  0  0  0  0
  139.7017   67.2930  226.9346 H   0  0  0  0  0  0  0  0  0  0  0  0
  141.5474   70.5496  228.9923 H   0  0  0  0  0  0  0  0  0  0  0  0
  141.1775   72.0299  227.0376 H   0  0  0  0  0  0  0  0  0  0  0  0
  1  2  1  0
  2  3  2  0
  3  4  1  0
  4  5  2  0
  5  6  1  0
  6  7  2  0
  7  8  1  0
  8  9  1  0
  8 10  1  0
 10 11  1  0
 11 12  2  0
 11 13  1  0
 13 14  1  0
 14 15  1  0
 15 16  2  0
 15 17  1  0
 17 18  2  0
 18 19  1  0
 19 20  2  0
 20 21  1  0
 21 22  2  0
 22 23  1  0
 22 24  1  0
 24 25  2  0
 25 26  1  0
 26 27  2  0
  7  2  1  0
 27 17  1  0
 26 20  1  0
  1 28  1  0
  1 29  1  0
  1 30  1  0
  3 31  1  0
  4 32  1  0
  5 33  1  0
  6 34  1  0
  8 35  1  1
  9 36  1  0
  9 37  1  0
  9 38  1  0
 10 39  1  0
 13 40  1  0
 13 41  1  0
 14 42  1  0
 18 43  1  0
 19 44  1  0
 21 45  1  0
 24 46  1  0
 25 47  1  0
M  END
>  <smiles>  (2) 
Cc1ccccc1[C@H](C)NC(=O)CNC(=O)c1ccc2cc(F)ccc2n1

>  <score_type>  (2) 
oracle

>  <origin>  (2) 
autodockgpu

>  <m_score__min__energy>  (2) 
-8.6999999999999993

>  <m_primary>  (2) 
energy

>  <rmsd>  (2) 
4.315102696693787

>  <m_score__min__rmsd>  (2) 
4.315102696693787

>  <meeko>  (2) 
{"free_energy": -7.74, "intermolecular_energy": -9.24, "internal_energy": -1.8, "cluster_size": 30, "cluster_id": 1, "rank_in_cluster": 29}

>  <energy>  (2) 
-8.66

>  <cluster_rmsd>  (2) 
1.43

>  <cluster>  (2) 
1

$$$$

     RDKit          3D

 47 49  0  0  0  0  0  0  0  0999 V2000
  139.8910   68.0590  227.3810 C   0  0  0  0  0  0  0  0  0  0  0  0
  140.2600   69.4730  227.1680 C   0  0  0  0  0  0  0  0  0  0  0  0
  140.7150   70.1720  228.2890 C   0  0  0  0  0  0  0  0  0  0  0  0
  141.0910   71.4960  228.2220 C   0  0  0  0  0  0  0  0  0  0  0  0
  141.0060   72.1310  226.9950 C   0  0  0  0  0  0  0  0  0  0  0  0
  140.5570   71.4310  225.9030 C   0  0  0  0  0  0  0  0  0  0  0  0
  140.1790   70.1130  225.9490 C   0  0  0  0  0  0  0  0  0  0  0  0
  139.6930   69.3500  224.7700 C   0  0  2  0  0  0  0  0  0  0  0  0
  139.8880   70.2110  223.5440 C   0  0  0  0  0  0  0  0  0  0  0  0
  138.2950   69.0250  224.9770 N   0  0  0  0  0  0  0  0  0  0  0  0
  137.2430   69.9740  224.7220 C   0  0  0  0  0  0  0  0  0  0  0  0
  137.6140   71.1090  224.3050 O   0  0  0  0  0  0  0  0  0  0  0  0
  135.8130   69.6450  224.9310 C   0  0  0  0  0  0  0  0  0  0  0  0
  135.1680   70.8720  225.3850 N   0  0  0  0  0  0  0  0  0  0  0  0
  133.9800   70.8520  226.1660 C   0  0  0  0  0  0  0  0  0  0  0  0
  133.4450   69.7370  226.4920 O   0  0  0  0  0  0  0  0  0  0  0  0
  133.3740   72.1160  226.5940 C   0  0  0  0  0  0  0  0  0  0  0  0
  132.1540   72.0810  227.2520 C   0  0  0  0  0  0  0  0  0  0  0  0
  131.5160   73.2110  227.6870 C   0  0  0  0  0  0  0  0  0  0  0  0
  132.1330   74.4210  227.4500 C   0  0  0  0  0  0  0  0  0  0  0  0
  131.4900   75.5590  227.8880 C   0  0  0  0  0  0  0  0  0  0  0  0
  132.0710   76.7850  227.6710 C   0  0  0  0  0  0  0  0  0  0  0  0
  131.4050   77.8780  228.1180 F   0  0  0  0  0  0  0  0  0  0  0  0
  133.2750   76.8320  227.0220 C   0  0  0  0  0  0  0  0  0  0  0  0
  133.9210   75.6750  226.5810 C   0  0  0  0  0  0  0  0  0  0  0  0
  133.3430   74.4320  226.7950 C   0  0  0  0  0  0  0  0  0  0  0  0
  133.9650   73.3110  226.3690 N   0  0  0  0  0  0  0  0  0  0  0  0
  139.8372   67.8527  228.4601 H   0  0  0  0  0  0  0  0  0  0  0  0
  138.9115   67.8623  226.9208 H   0  0  0  0  0  0  0  0  0  0  0  0
  140.6496   67.4088  226.9208 H   0  0  0  0  0  0  0  0  0  0  0  0
  140.7749   69.6492  229.2550 H   0  0  0  0  0  0  0  0  0  0  0  0
  141.4472   72.0310  229.1147 H   0  0  0  0  0  0  0  0  0  0  0  0
  141.2958   73.1875  226.8959 H   0  0  0  0  0  0  0  0  0  0  0  0
  140.4970   71.9556  224.9380 H   0  0  0  0  0  0  0  0  0  0  0  0
  140.2485   68.4104  224.6337 H   0  0  0  0  0  0  0  0  0  0  0  0
  140.1212   71.2408  223.8525 H   0  0  0  0  0  0  0  0  0  0  0  0
  140.7183   69.8112  222.9434 H   0  0  0  0  0  0  0  0  0  0  0  0
  138.9664   70.2080  222.9434 H   0  0  0  0  0  0  0  0  0  0  0  0
  137.9670   68.0910  225.3200 H   0  0  0  0  0  0  0  0  0  0  0  0
  135.3599   69.3037  223.9886 H   0  0  0  0  0  0  0  0  0  0  0  0
  135.6942   68.8369  225.6678 H   0  0  0  0  0  0  0  0  0  0  0  0
  135.5870   71.8120  225.1300 H   0  0  0  0  0  0  0  0  0  0  0  0
  131.6795   71.1050  227.4318 H   0  0  0  0  0  0  0  0  0  0  0  0
  130.5477   73.1559  228.2060 H   0  0  0  0  0  0  0  0  0  0  0  0
  130.5222   75.4863  228.4057 H   0  0  0  0  0  0  0  0  0  0  0  0
  133.7474   77.8090  226.8426 H   0  0  0  0  0  0  0  0  0  0  0  0
  134.8889   75.7493  226.0636 H   0  0  0  0  0  0  0  0  0  0  0  0
  1  2  1  0
  2  3  2  0
  3  4  1  0
  4  5  2  0
  5  6  1  0
  6  7  2  0
  7  8  1  0
  8  9  1  0
  8 10  1  0
 10 11  1  0
 11 12  2  0
 11 13  1  0
 13 14  1  0
 14 15  1  0
 15 16  2  0
 15 17  1  0
 17 18  2  0
 18 19  1  0
 19 20  2  0
 20 21  1  0
 21 22  2  0
 22 23  1  0
 22 24  1  0
 24 25  2  0
 25 26  1  0
 26 27  2  0
  7  2  1  0
 27 17  1  0
 26 20  1  0
  1 28  1  0
  1 29  1  0
  1 30  1  0
  3 31  1  0
  4 32  1  0
  5 33  1  0
  6 34  1  0
  8 35  1  6
  9 36  1  0
  9 37  1  0
  9 38  1  0
 10 39  1  0
 13 40  1  0
 13 41  1  0
 14 42  1  0
 18 43  1  0
 19 44  1  0
 21 45  1  0
 24 46  1  0
 25 47  1  0
M  END
>  <smiles>  (3) 
Cc1ccccc1[C@H](C)NC(=O)CNC(=O)c1ccc2cc(F)ccc2n1

>  <score_type>  (3) 
oracle

>  <origin>  (3) 
autodockgpu

>  <m_score__min__energy>  (3) 
-8.6999999999999993

>  <m_primary>  (3) 
energy

>  <rmsd>  (3) 
10.556724516277622

>  <m_score__min__rmsd>  (3) 
10.556724516277622

>  <meeko>  (3) 
{"free_energy": -8.27, "intermolecular_energy": -9.76, "internal_energy": -1.49, "cluster_size": 13, "cluster_id": 2, "rank_in_cluster": 8}

>  <energy>  (3) 
-8.65

>  <cluster_rmsd>  (3) 
1.24

>  <cluster>  (3) 
1

$$$$

     RDKit          3D

 47 49  0  0  0  0  0  0  0  0999 V2000
  139.8760   67.7710  226.6290 C   0  0  0  0  0  0  0  0  0  0  0  0
  140.2160   69.2080  226.6160 C   0  0  0  0  0  0  0  0  0  0  0  0
  140.6960   69.7430  227.8140 C   0  0  0  0  0  0  0  0  0  0  0  0
  141.0490   71.0700  227.9320 C   0  0  0  0  0  0  0  0  0  0  0  0
  140.9150   71.8770  226.8160 C   0  0  0  0  0  0  0  0  0  0  0  0
  140.4410   71.3370  225.6460 C   0  0  0  0  0  0  0  0  0  0  0  0
  140.0860   70.0180  225.5080 C   0  0  0  0  0  0  0  0  0  0  0  0
  139.5740   69.4280  224.2440 C   0  0  2  0  0  0  0  0  0  0  0  0
  139.7610   70.4460  223.1440 C   0  0  0  0  0  0  0  0  0  0  0  0
  138.1750   69.0910  224.4270 N   0  0  0  0  0  0  0  0  0  0  0  0
  137.1620   70.0990  224.5960 C   0  0  0  0  0  0  0  0  0  0  0  0
  137.5670   71.2970  224.5740 O   0  0  0  0  0  0  0  0  0  0  0  0
  135.7310   69.7590  224.7820 C   0  0  0  0  0  0  0  0  0  0  0  0
  135.0730   70.9750  225.2440 N   0  0  0  0  0  0  0  0  0  0  0  0
  133.9340   70.9370  226.0950 C   0  0  0  0  0  0  0  0  0  0  0  0
  133.4570   69.8140  226.4790 O   0  0  0  0  0  0  0  0  0  0  0  0
  133.3120   72.1910  226.5280 C   0  0  0  0  0  0  0  0  0  0  0  0
  132.0820   72.1400  227.1670 C   0  0  0  0  0  0  0  0  0  0  0  0
  131.4280   73.2600  227.6050 C   0  0  0  0  0  0  0  0  0  0  0  0
  132.0400   74.4770  227.3910 C   0  0  0  0  0  0  0  0  0  0  0  0
  131.3810   75.6050  227.8320 C   0  0  0  0  0  0  0  0  0  0  0  0
  131.9560   76.8380  227.6380 C   0  0  0  0  0  0  0  0  0  0  0  0
  131.2750   77.9210  228.0870 F   0  0  0  0  0  0  0  0  0  0  0  0
  133.1700   76.9020  227.0080 C   0  0  0  0  0  0  0  0  0  0  0  0
  133.8310   75.7550  226.5630 C   0  0  0  0  0  0  0  0  0  0  0  0
  133.2590   74.5050  226.7550 C   0  0  0  0  0  0  0  0  0  0  0  0
  133.8960   73.3930  226.3260 N   0  0  0  0  0  0  0  0  0  0  0  0
  139.7937   67.4231  227.6693 H   0  0  0  0  0  0  0  0  0  0  0  0
  138.9165   67.6166  226.1137 H   0  0  0  0  0  0  0  0  0  0  0  0
  140.6645   67.2030  226.1137 H   0  0  0  0  0  0  0  0  0  0  0  0
  140.7952   69.0850  228.6899 H   0  0  0  0  0  0  0  0  0  0  0  0
  141.4253   71.4747  228.8831 H   0  0  0  0  0  0  0  0  0  0  0  0
  141.1859   72.9420  226.8657 H   0  0  0  0  0  0  0  0  0  0  0  0
  140.3402   71.9970  224.7718 H   0  0  0  0  0  0  0  0  0  0  0  0
  140.1166   68.5106  223.9722 H   0  0  0  0  0  0  0  0  0  0  0  0
  139.9429   71.4360  223.5876 H   0  0  0  0  0  0  0  0  0  0  0  0
  140.6215   70.1594  222.5216 H   0  0  0  0  0  0  0  0  0  0  0  0
  138.8548   70.4840  222.5216 H   0  0  0  0  0  0  0  0  0  0  0  0
  137.8200   68.1060  224.4470 H   0  0  0  0  0  0  0  0  0  0  0  0
  135.2921   69.4280  223.8292 H   0  0  0  0  0  0  0  0  0  0  0  0
  135.6077   68.9404  225.5063 H   0  0  0  0  0  0  0  0  0  0  0  0
  135.4440   71.9210  224.9420 H   0  0  0  0  0  0  0  0  0  0  0  0
  131.6124   71.1585  227.3286 H   0  0  0  0  0  0  0  0  0  0  0  0
  130.4522   73.1918  228.1081 H   0  0  0  0  0  0  0  0  0  0  0  0
  130.4058   75.5189  228.3336 H   0  0  0  0  0  0  0  0  0  0  0  0
  133.6379   77.8846  226.8478 H   0  0  0  0  0  0  0  0  0  0  0  0
  134.8054   75.8423  226.0601 H   0  0  0  0  0  0  0  0  0  0  0  0
  1  2  1  0
  2  3  2  0
  3  4  1  0
  4  5  2  0
  5  6  1  0
  6  7  2  0
  7  8  1  0
  8  9  1  0
  8 10  1  0
 10 11  1  0
 11 12  2  0
 11 13  1  0
 13 14  1  0
 14 15  1  0
 15 16  2  0
 15 17  1  0
 17 18  2  0
 18 19  1  0
 19 20  2  0
 20 21  1  0
 21 22  2  0
 22 23  1  0
 22 24  1  0
 24 25  2  0
 25 26  1  0
 26 27  2  0
  7  2  1  0
 27 17  1  0
 26 20  1  0
  1 28  1  0
  1 29  1  0
  1 30  1  0
  3 31  1  0
  4 32  1  0
  5 33  1  0
  6 34  1  0
  8 35  1  6
  9 36  1  0
  9 37  1  0
  9 38  1  0
 10 39  1  0
 13 40  1  0
 13 41  1  0
 14 42  1  0
 18 43  1  0
 19 44  1  0
 21 45  1  0
 24 46  1  0
 25 47  1  0
M  END
>  <smiles>  (4) 
Cc1ccccc1[C@H](C)NC(=O)CNC(=O)c1ccc2cc(F)ccc2n1

>  <score_type>  (4) 
oracle

>  <origin>  (4) 
autodockgpu

>  <m_score__min__energy>  (4) 
-8.6999999999999993

>  <m_primary>  (4) 
energy

>  <rmsd>  (4) 
10.541150105944695

>  <m_score__min__rmsd>  (4) 
10.541150105944695

>  <meeko>  (4) 
{"free_energy": -8.22, "intermolecular_energy": -9.71, "internal_energy": -1.79, "cluster_size": 13, "cluster_id": 2, "rank_in_cluster": 10}

>  <energy>  (4) 
-8.63

>  <cluster_rmsd>  (4) 
0.17

>  <cluster>  (4) 
1

$$$$

     RDKit          3D

 47 49  0  0  0  0  0  0  0  0999 V2000
  141.6790   79.6150  219.9450 C   0  0  0  0  0  0  0  0  0  0  0  0
  141.5420   79.4130  221.4020 C   0  0  0  0  0  0  0  0  0  0  0  0
  142.5810   79.9030  222.1970 C   0  0  0  0  0  0  0  0  0  0  0  0
  142.5710   79.7770  223.5700 C   0  0  0  0  0  0  0  0  0  0  0  0
  141.4880   79.1440  224.1550 C   0  0  0  0  0  0  0  0  0  0  0  0
  140.4760   78.6680  223.3590 C   0  0  0  0  0  0  0  0  0  0  0  0
  140.4660   78.7830  221.9920 C   0  0  0  0  0  0  0  0  0  0  0  0
  139.3720   78.2710  221.1270 C   0  0  2  0  0  0  0  0  0  0  0  0
  138.0950   78.2800  221.9340 C   0  0  0  0  0  0  0  0  0  0  0  0
  139.7190   76.9310  220.6910 N   0  0  0  0  0  0  0  0  0  0  0  0
  139.6750   75.8030  221.5820 C   0  0  0  0  0  0  0  0  0  0  0  0
  139.3140   76.0510  222.7690 O   0  0  0  0  0  0  0  0  0  0  0  0
  140.0280   74.4320  221.1420 C   0  0  0  0  0  0  0  0  0  0  0  0
  139.9020   73.5740  222.3140 N   0  0  0  0  0  0  0  0  0  0  0  0
  140.4100   72.2460  222.3320 C   0  0  0  0  0  0  0  0  0  0  0  0
  140.9990   71.7700  221.3010 O   0  0  0  0  0  0  0  0  0  0  0  0
  140.2560   71.4280  223.5380 C   0  0  0  0  0  0  0  0  0  0  0  0
  139.6160   70.2020  223.4340 C   0  0  0  0  0  0  0  0  0  0  0  0
  139.4280   69.3730  224.5080 C   0  0  0  0  0  0  0  0  0  0  0  0
  139.9030   69.7990  225.7300 C   0  0  0  0  0  0  0  0  0  0  0  0
  139.7130   68.9630  226.8100 C   0  0  0  0  0  0  0  0  0  0  0  0
  140.1710   69.3490  228.0470 C   0  0  0  0  0  0  0  0  0  0  0  0
  139.9640   68.4990  229.0820 F   0  0  0  0  0  0  0  0  0  0  0  0
  140.8040   70.5580  228.1620 C   0  0  0  0  0  0  0  0  0  0  0  0
  140.9930   71.3990  227.0630 C   0  0  0  0  0  0  0  0  0  0  0  0
  140.5340   71.0180  225.8100 C   0  0  0  0  0  0  0  0  0  0  0  0
  140.7150   71.8290  224.7440 N   0  0  0  0  0  0  0  0  0  0  0  0
  142.2871   80.5117  219.7547 H   0  0  0  0  0  0  0  0  0  0  0  0
  142.1693   78.7378  219.4977 H   0  0  0  0  0  0  0  0  0  0  0  0
  140.6826   79.7460  219.4977 H   0  0  0  0  0  0  0  0  0  0  0  0
  143.4323   80.4042  221.7133 H   0  0  0  0  0  0  0  0  0  0  0  0
  143.3979   80.1674  224.1814 H   0  0  0  0  0  0  0  0  0  0  0  0
  141.4387   79.0235  225.2473 H   0  0  0  0  0  0  0  0  0  0  0  0
  139.6257   78.1664  223.8442 H   0  0  0  0  0  0  0  0  0  0  0  0
  139.2296   78.8977  220.2342 H   0  0  0  0  0  0  0  0  0  0  0  0
  138.3391   78.2783  223.0066 H   0  0  0  0  0  0  0  0  0  0  0  0
  137.5144   79.1823  221.6915 H   0  0  0  0  0  0  0  0  0  0  0  0
  137.5017   77.3860  221.6915 H   0  0  0  0  0  0  0  0  0  0  0  0
  140.0190   76.7050  219.7130 H   0  0  0  0  0  0  0  0  0  0  0  0
  139.3401   74.0981  220.3512 H   0  0  0  0  0  0  0  0  0  0  0  0
  141.0481   74.3969  220.7320 H   0  0  0  0  0  0  0  0  0  0  0  0
  139.4190   73.9400  223.1840 H   0  0  0  0  0  0  0  0  0  0  0  0
  139.2444   69.8825  222.4492 H   0  0  0  0  0  0  0  0  0  0  0  0
  138.9176   68.4046  224.3996 H   0  0  0  0  0  0  0  0  0  0  0  0
  139.2006   67.9980  226.6829 H   0  0  0  0  0  0  0  0  0  0  0  0
  141.1741   70.8758  229.1479 H   0  0  0  0  0  0  0  0  0  0  0  0
  141.5059   72.3637  227.1907 H   0  0  0  0  0  0  0  0  0  0  0  0
  1  2  1  0
  2  3  2  0
  3  4  1  0
  4  5  2  0
  5  6  1  0
  6  7  2  0
  7  8  1  0
  8  9  1  0
  8 10  1  0
 10 11  1  0
 11 12  2  0
 11 13  1  0
 13 14  1  0
 14 15  1  0
 15 16  2  0
 15 17  1  0
 17 18  2  0
 18 19  1  0
 19 20  2  0
 20 21  1  0
 21 22  2  0
 22 23  1  0
 22 24  1  0
 24 25  2  0
 25 26  1  0
 26 27  2  0
  7  2  1  0
 27 17  1  0
 26 20  1  0
  1 28  1  0
  1 29  1  0
  1 30  1  0
  3 31  1  0
  4 32  1  0
  5 33  1  0
  6 34  1  0
  8 35  1  6
  9 36  1  0
  9 37  1  0
  9 38  1  0
 10 39  1  0
 13 40  1  0
 13 41  1  0
 14 42  1  0
 18 43  1  0
 19 44  1  0
 21 45  1  0
 24 46  1  0
 25 47  1  0
M  END
>  <smiles>  (5) 
Cc1ccccc1[C@H](C)NC(=O)CNC(=O)c1ccc2cc(F)ccc2n1

>  <score_type>  (5) 
oracle

>  <origin>  (5) 
autodockgpu

>  <m_score__min__energy>  (5) 
-8.6999999999999993

>  <m_primary>  (5) 
energy

>  <rmsd>  (5) 
4.304417973109162

>  <m_score__min__rmsd>  (5) 
4.304417973109162

>  <meeko>  (5) 
{"free_energy": -8.3, "intermolecular_energy": -9.79, "internal_energy": -1.54, "cluster_size": 30, "cluster_id": 1, "rank_in_cluster": 15}

>  <energy>  (5) 
-8.62

>  <cluster_rmsd>  (5) 
0.31

>  <cluster>  (5) 
1

$$$$

     RDKit          3D

 47 49  0  0  0  0  0  0  0  0999 V2000
  142.6660   79.4670  222.9720 C   0  0  0  0  0  0  0  0  0  0  0  0
  141.1960   79.3840  222.8610 C   0  0  0  0  0  0  0  0  0  0  0  0
  140.4600   80.0790  223.8230 C   0  0  0  0  0  0  0  0  0  0  0  0
  139.0810   80.0810  223.8290 C   0  0  0  0  0  0  0  0  0  0  0  0
  138.4290   79.3650  222.8410 C   0  0  0  0  0  0  0  0  0  0  0  0
  139.1670   78.6860  221.9020 C   0  0  0  0  0  0  0  0  0  0  0  0
  140.5380   78.6730  221.8790 C   0  0  0  0  0  0  0  0  0  0  0  0
  141.3410   77.9400  220.8650 C   0  0  2  0  0  0  0  0  0  0  0  0
  141.5130   78.8410  219.6650 C   0  0  0  0  0  0  0  0  0  0  0  0
  140.6410   76.7180  220.5190 N   0  0  0  0  0  0  0  0  0  0  0  0
  140.2910   75.7320  221.5060 C   0  0  0  0  0  0  0  0  0  0  0  0
  140.6320   75.9970  222.6950 O   0  0  0  0  0  0  0  0  0  0  0  0
  139.5750   74.4810  221.1570 C   0  0  0  0  0  0  0  0  0  0  0  0
  139.6410   73.6230  222.3340 N   0  0  0  0  0  0  0  0  0  0  0  0
  139.7940   72.2140  222.2300 C   0  0  0  0  0  0  0  0  0  0  0  0
  139.8800   71.6610  221.0790 O   0  0  0  0  0  0  0  0  0  0  0  0
  139.8540   71.3990  223.4460 C   0  0  0  0  0  0  0  0  0  0  0  0
  139.3640   70.1020  223.4060 C   0  0  0  0  0  0  0  0  0  0  0  0
  139.3790   69.2720  224.4940 C   0  0  0  0  0  0  0  0  0  0  0  0
  139.9100   69.7690  225.6660 C   0  0  0  0  0  0  0  0  0  0  0  0
  139.9250   68.9310  226.7610 C   0  0  0  0  0  0  0  0  0  0  0  0
  140.4450   69.3870  227.9480 C   0  0  0  0  0  0  0  0  0  0  0  0
  140.4410   68.5320  229.0000 F   0  0  0  0  0  0  0  0  0  0  0  0
  140.9320   70.6660  228.0000 C   0  0  0  0  0  0  0  0  0  0  0  0
  140.9130   71.5080  226.8870 C   0  0  0  0  0  0  0  0  0  0  0  0
  140.3900   71.0570  225.6830 C   0  0  0  0  0  0  0  0  0  0  0  0
  140.3700   71.8700  224.6040 N   0  0  0  0  0  0  0  0  0  0  0  0
  142.9532   79.4832  224.0337 H   0  0  0  0  0  0  0  0  0  0  0  0
  143.1206   78.5931  222.4825 H   0  0  0  0  0  0  0  0  0  0  0  0
  143.0193   80.3865  222.4825 H   0  0  0  0  0  0  0  0  0  0  0  0
  140.9970   80.6425  224.6003 H   0  0  0  0  0  0  0  0  0  0  0  0
  138.5175   80.6342  224.5948 H   0  0  0  0  0  0  0  0  0  0  0  0
  137.3298   79.3396  222.8076 H   0  0  0  0  0  0  0  0  0  0  0  0
  138.6287   78.1219  221.1261 H   0  0  0  0  0  0  0  0  0  0  0  0
  142.3357   77.6698  221.2492 H   0  0  0  0  0  0  0  0  0  0  0  0
  141.7093   79.8691  220.0035 H   0  0  0  0  0  0  0  0  0  0  0  0
  142.3597   78.4866  219.0588 H   0  0  0  0  0  0  0  0  0  0  0  0
  140.5953   78.8235  219.0588 H   0  0  0  0  0  0  0  0  0  0  0  0
  140.3490   76.4810  219.5410 H   0  0  0  0  0  0  0  0  0  0  0  0
  138.5269   74.7007  220.9054 H   0  0  0  0  0  0  0  0  0  0  0  0
  140.0310   73.9927  220.2832 H   0  0  0  0  0  0  0  0  0  0  0  0
  139.5730   74.0510  223.3020 H   0  0  0  0  0  0  0  0  0  0  0  0
  138.9461   69.7250  222.4609 H   0  0  0  0  0  0  0  0  0  0  0  0
  138.9827   68.2475  224.4361 H   0  0  0  0  0  0  0  0  0  0  0  0
  139.5252   67.9091  226.6849 H   0  0  0  0  0  0  0  0  0  0  0  0
  141.3501   71.0404  228.9460 H   0  0  0  0  0  0  0  0  0  0  0  0
  141.3128   72.5299  226.9641 H   0  0  0  0  0  0  0  0  0  0  0  0
  1  2  1  0
  2  3  2  0
  3  4  1  0
  4  5  2  0
  5  6  1  0
  6  7  2  0
  7  8  1  0
  8  9  1  0
  8 10  1  0
 10 11  1  0
 11 12  2  0
 11 13  1  0
 13 14  1  0
 14 15  1  0
 15 16  2  0
 15 17  1  0
 17 18  2  0
 18 19  1  0
 19 20  2  0
 20 21  1  0
 21 22  2  0
 22 23  1  0
 22 24  1  0
 24 25  2  0
 25 26  1  0
 26 27  2  0
  7  2  1  0
 27 17  1  0
 26 20  1  0
  1 28  1  0
  1 29  1  0
  1 30  1  0
  3 31  1  0
  4 32  1  0
  5 33  1  0
  6 34  1  0
  8 35  1  1
  9 36  1  0
  9 37  1  0
  9 38  1  0
 10 39  1  0
 13 40  1  0
 13 41  1  0
 14 42  1  0
 18 43  1  0
 19 44  1  0
 21 45  1  0
 24 46  1  0
 25 47  1  0
M  END
>  <smiles>  (6) 
Cc1ccccc1[C@H](C)NC(=O)CNC(=O)c1ccc2cc(F)ccc2n1

>  <score_type>  (6) 
oracle

>  <origin>  (6) 
autodockgpu

>  <m_score__min__energy>  (6) 
-8.6999999999999993

>  <m_primary>  (6) 
energy

>  <rmsd>  (6) 
4.002058838307948

>  <m_score__min__rmsd>  (6) 
4.002058838307948

>  <meeko>  (6) 
{"free_energy": -8.12, "intermolecular_energy": -9.61, "internal_energy": -1.63, "cluster_size": 30, "cluster_id": 1, "rank_in_cluster": 25}

>  <energy>  (6) 
-8.61

>  <cluster_rmsd>  (6) 
1.22

>  <cluster>  (6) 
1

$$$$

     RDKit          3D

 47 49  0  0  0  0  0  0  0  0999 V2000
  141.7950   79.0030  219.8240 C   0  0  0  0  0  0  0  0  0  0  0  0
  141.5250   79.1150  221.2710 C   0  0  0  0  0  0  0  0  0  0  0  0
  142.5680   79.6050  222.0610 C   0  0  0  0  0  0  0  0  0  0  0  0
  142.4420   79.7570  223.4250 C   0  0  0  0  0  0  0  0  0  0  0  0
  141.2350   79.4070  224.0070 C   0  0  0  0  0  0  0  0  0  0  0  0
  140.2210   78.9270  223.2170 C   0  0  0  0  0  0  0  0  0  0  0  0
  140.3260   78.7690  221.8580 C   0  0  0  0  0  0  0  0  0  0  0  0
  139.2300   78.2510  220.9980 C   0  0  2  0  0  0  0  0  0  0  0  0
  137.9530   78.2740  221.8050 C   0  0  0  0  0  0  0  0  0  0  0  0
  139.5720   76.9050  220.5780 N   0  0  0  0  0  0  0  0  0  0  0  0
  139.7350   75.8290  221.5190 C   0  0  0  0  0  0  0  0  0  0  0  0
  139.5620   76.1290  222.7350 O   0  0  0  0  0  0  0  0  0  0  0  0
  140.0840   74.4520  221.0940 C   0  0  0  0  0  0  0  0  0  0  0  0
  139.9670   73.6110  222.2790 N   0  0  0  0  0  0  0  0  0  0  0  0
  140.3820   72.2510  222.2790 C   0  0  0  0  0  0  0  0  0  0  0  0
  140.8770   71.7300  221.2200 O   0  0  0  0  0  0  0  0  0  0  0  0
  140.2410   71.4500  223.4980 C   0  0  0  0  0  0  0  0  0  0  0  0
  139.6250   70.2100  223.4140 C   0  0  0  0  0  0  0  0  0  0  0  0
  139.4500   69.3970  224.5020 C   0  0  0  0  0  0  0  0  0  0  0  0
  139.9140   69.8520  225.7170 C   0  0  0  0  0  0  0  0  0  0  0  0
  139.7380   69.0320  226.8110 C   0  0  0  0  0  0  0  0  0  0  0  0
  140.1860   69.4480  228.0420 C   0  0  0  0  0  0  0  0  0  0  0  0
  139.9920   68.6110  229.0910 F   0  0  0  0  0  0  0  0  0  0  0  0
  140.7950   70.6700  228.1370 C   0  0  0  0  0  0  0  0  0  0  0  0
  140.9700   71.4950  227.0240 C   0  0  0  0  0  0  0  0  0  0  0  0
  140.5210   71.0850  225.7770 C   0  0  0  0  0  0  0  0  0  0  0  0
  140.6890   71.8810  224.6980 N   0  0  0  0  0  0  0  0  0  0  0  0
  142.8010   78.5857  219.6700 H   0  0  0  0  0  0  0  0  0  0  0  0
  141.0484   78.3403  219.3619 H   0  0  0  0  0  0  0  0  0  0  0  0
  141.7367   79.9995  219.3619 H   0  0  0  0  0  0  0  0  0  0  0  0
  143.5187   79.8778  221.5796 H   0  0  0  0  0  0  0  0  0  0  0  0
  143.2737   80.1440  224.0321 H   0  0  0  0  0  0  0  0  0  0  0  0
  141.0906   79.5128  225.0923 H   0  0  0  0  0  0  0  0  0  0  0  0
  139.2712   78.6537  223.6999 H   0  0  0  0  0  0  0  0  0  0  0  0
  139.0902   78.8676  220.0979 H   0  0  0  0  0  0  0  0  0  0  0  0
  138.1970   78.2696  222.8776 H   0  0  0  0  0  0  0  0  0  0  0  0
  137.3823   79.1826  221.5625 H   0  0  0  0  0  0  0  0  0  0  0  0
  137.3500   77.3866  221.5625 H   0  0  0  0  0  0  0  0  0  0  0  0
  139.7190   76.6370  219.5760 H   0  0  0  0  0  0  0  0  0  0  0  0
  139.3895   74.1077  220.3135 H   0  0  0  0  0  0  0  0  0  0  0  0
  141.1004   74.4104  220.6754 H   0  0  0  0  0  0  0  0  0  0  0  0
  139.5600   74.0120  223.1710 H   0  0  0  0  0  0  0  0  0  0  0  0
  139.2625   69.8659  222.4341 H   0  0  0  0  0  0  0  0  0  0  0  0
  138.9576   68.4177  224.4095 H   0  0  0  0  0  0  0  0  0  0  0  0
  139.2444   68.0553  226.7000 H   0  0  0  0  0  0  0  0  0  0  0  0
  141.1569   71.0120  229.1179 H   0  0  0  0  0  0  0  0  0  0  0  0
  141.4645   72.4712  227.1361 H   0  0  0  0  0  0  0  0  0  0  0  0
  1  2  1  0
  2  3  2  0
  3  4  1  0
  4  5  2  0
  5  6  1  0
  6  7  2  0
  7  8  1  0
  8  9  1  0
  8 10  1  0
 10 11  1  0
 11 12  2  0
 11 13  1  0
 13 14  1  0
 14 15  1  0
 15 16  2  0
 15 17  1  0
 17 18  2  0
 18 19  1  0
 19 20  2  0
 20 21  1  0
 21 22  2  0
 22 23  1  0
 22 24  1  0
 24 25  2  0
 25 26  1  0
 26 27  2  0
  7  2  1  0
 27 17  1  0
 26 20  1  0
  1 28  1  0
  1 29  1  0
  1 30  1  0
  3 31  1  0
  4 32  1  0
  5 33  1  0
  6 34  1  0
  8 35  1  6
  9 36  1  0
  9 37  1  0
  9 38  1  0
 10 39  1  0
 13 40  1  0
 13 41  1  0
 14 42  1  0
 18 43  1  0
 19 44  1  0
 21 45  1  0
 24 46  1  0
 25 47  1  0
M  END
>  <smiles>  (7) 
Cc1ccccc1[C@H](C)NC(=O)CNC(=O)c1ccc2cc(F)ccc2n1

>  <score_type>  (7) 
oracle

>  <origin>  (7) 
autodockgpu

>  <m_score__min__energy>  (7) 
-8.6999999999999993

>  <m_primary>  (7) 
energy

>  <rmsd>  (7) 
4.360331967950798

>  <m_score__min__rmsd>  (7) 
4.360331967950798

>  <meeko>  (7) 
{"free_energy": -8.15, "intermolecular_energy": -9.64, "internal_energy": -1.66, "cluster_size": 30, "cluster_id": 1, "rank_in_cluster": 19}

>  <energy>  (7) 
-8.61

>  <cluster_rmsd>  (7) 
1.21

>  <cluster>  (7) 
1

$$$$

     RDKit          3D

 47 49  0  0  0  0  0  0  0  0999 V2000
  139.7680   68.2780  226.3170 C   0  0  0  0  0  0  0  0  0  0  0  0
  140.2190   69.6520  226.6200 C   0  0  0  0  0  0  0  0  0  0  0  0
  140.5600   69.9150  227.9490 C   0  0  0  0  0  0  0  0  0  0  0  0
  140.9950   71.1570  228.3600 C   0  0  0  0  0  0  0  0  0  0  0  0
  141.0880   72.1570  227.4080 C   0  0  0  0  0  0  0  0  0  0  0  0
  140.7480   71.8830  226.1070 C   0  0  0  0  0  0  0  0  0  0  0  0
  140.3140   70.6540  225.6780 C   0  0  0  0  0  0  0  0  0  0  0  0
  139.9460   70.3520  224.2700 C   0  0  2  0  0  0  0  0  0  0  0  0
  140.2850   71.5610  223.4290 C   0  0  0  0  0  0  0  0  0  0  0  0
  138.5290   70.0470  224.2190 N   0  0  0  0  0  0  0  0  0  0  0  0
  137.9660   69.1990  223.2030 C   0  0  0  0  0  0  0  0  0  0  0  0
  138.7830   68.7350  222.3560 O   0  0  0  0  0  0  0  0  0  0  0  0
  136.5180   68.8840  223.1480 C   0  0  0  0  0  0  0  0  0  0  0  0
  135.8310   69.9690  223.8360 N   0  0  0  0  0  0  0  0  0  0  0  0
  134.9730   69.7330  224.9450 C   0  0  0  0  0  0  0  0  0  0  0  0
  134.7850   68.5400  225.3690 O   0  0  0  0  0  0  0  0  0  0  0  0
  134.3070   70.8620  225.6000 C   0  0  0  0  0  0  0  0  0  0  0  0
  133.3000   70.6020  226.5170 C   0  0  0  0  0  0  0  0  0  0  0  0
  132.6240   71.5950  227.1750 C   0  0  0  0  0  0  0  0  0  0  0  0
  132.9800   72.8980  226.8970 C   0  0  0  0  0  0  0  0  0  0  0  0
  132.2990   73.8960  227.5600 C   0  0  0  0  0  0  0  0  0  0  0  0
  132.6220   75.2090  227.3110 C   0  0  0  0  0  0  0  0  0  0  0  0
  131.9280   76.1600  227.9840 F   0  0  0  0  0  0  0  0  0  0  0  0
  133.6140   75.4780  226.4080 C   0  0  0  0  0  0  0  0  0  0  0  0
  134.3000   74.4600  225.7400 C   0  0  0  0  0  0  0  0  0  0  0  0
  133.9810   73.1320  225.9840 C   0  0  0  0  0  0  0  0  0  0  0  0
  134.6420   72.1450  225.3390 N   0  0  0  0  0  0  0  0  0  0  0  0
  139.5898   67.7350  227.2569 H   0  0  0  0  0  0  0  0  0  0  0  0
  138.8359   68.3182  225.7343 H   0  0  0  0  0  0  0  0  0  0  0  0
  140.5426   67.7580  225.7343 H   0  0  0  0  0  0  0  0  0  0  0  0
  140.4789   69.1063  228.6903 H   0  0  0  0  0  0  0  0  0  0  0  0
  141.2596   71.3469  229.4107 H   0  0  0  0  0  0  0  0  0  0  0  0
  141.4315   73.1628  227.6916 H   0  0  0  0  0  0  0  0  0  0  0  0
  140.8278   72.6933  225.3673 H   0  0  0  0  0  0  0  0  0  0  0  0
  140.4988   69.4843  223.8808 H   0  0  0  0  0  0  0  0  0  0  0  0
  140.5231   72.4100  224.0866 H   0  0  0  0  0  0  0  0  0  0  0  0
  141.1541   71.3340  222.7941 H   0  0  0  0  0  0  0  0  0  0  0  0
  139.4246   71.8190  222.7941 H   0  0  0  0  0  0  0  0  0  0  0  0
  137.8370   70.4200  224.9110 H   0  0  0  0  0  0  0  0  0  0  0  0
  136.1818   68.8242  222.1023 H   0  0  0  0  0  0  0  0  0  0  0  0
  136.3040   67.9146  223.6218 H   0  0  0  0  0  0  0  0  0  0  0  0
  135.9660   70.9690  223.5090 H   0  0  0  0  0  0  0  0  0  0  0  0
  133.0331   69.5553  226.7246 H   0  0  0  0  0  0  0  0  0  0  0  0
  131.8278   71.3621  227.8974 H   0  0  0  0  0  0  0  0  0  0  0  0
  131.5062   73.6450  228.2800 H   0  0  0  0  0  0  0  0  0  0  0  0
  133.8792   76.5255  226.2019 H   0  0  0  0  0  0  0  0  0  0  0  0
  135.0931   74.7117  225.0206 H   0  0  0  0  0  0  0  0  0  0  0  0
  1  2  1  0
  2  3  2  0
  3  4  1  0
  4  5  2  0
  5  6  1  0
  6  7  2  0
  7  8  1  0
  8  9  1  0
  8 10  1  0
 10 11  1  0
 11 12  2  0
 11 13  1  0
 13 14  1  0
 14 15  1  0
 15 16  2  0
 15 17  1  0
 17 18  2  0
 18 19  1  0
 19 20  2  0
 20 21  1  0
 21 22  2  0
 22 23  1  0
 22 24  1  0
 24 25  2  0
 25 26  1  0
 26 27  2  0
  7  2  1  0
 27 17  1  0
 26 20  1  0
  1 28  1  0
  1 29  1  0
  1 30  1  0
  3 31  1  0
  4 32  1  0
  5 33  1  0
  6 34  1  0
  8 35  1  6
  9 36  1  0
  9 37  1  0
  9 38  1  0
 10 39  1  0
 13 40  1  0
 13 41  1  0
 14 42  1  0
 18 43  1  0
 19 44  1  0
 21 45  1  0
 24 46  1  0
 25 47  1  0
M  END
>  <smiles>  (8) 
Cc1ccccc1[C@H](C)NC(=O)CNC(=O)c1ccc2cc(F)ccc2n1

>  <score_type>  (8) 
oracle

>  <origin>  (8) 
autodockgpu

>  <m_score__min__energy>  (8) 
-8.6999999999999993

>  <m_primary>  (8) 
energy

>  <rmsd>  (8) 
9.764997956322553

>  <m_score__min__rmsd>  (8) 
9.764997956322553

>  <meeko>  (8) 
{"free_energy": -7.93, "intermolecular_energy": -9.42, "internal_energy": -1.47, "cluster_size": 13, "cluster_id": 2, "rank_in_cluster": 13}

>  <energy>  (8) 
-8.59

>  <cluster_rmsd>  (8) 
1.21

>  <cluster>  (8) 
1

$$$$

     RDKit          3D

 47 49  0  0  0  0  0  0  0  0999 V2000
  139.1850   69.5130  228.7760 C   0  0  0  0  0  0  0  0  0  0  0  0
  139.9880   70.3000  227.8190 C   0  0  0  0  0  0  0  0  0  0  0  0
  140.6630   71.4080  228.3390 C   0  0  0  0  0  0  0  0  0  0  0  0
  141.4460   72.2230  227.5500 C   0  0  0  0  0  0  0  0  0  0  0  0
  141.5500   71.9150  226.2050 C   0  0  0  0  0  0  0  0  0  0  0  0
  140.8810   70.8240  225.7090 C   0  0  0  0  0  0  0  0  0  0  0  0
  140.0980   70.0000  226.4780 C   0  0  0  0  0  0  0  0  0  0  0  0
  139.3720   68.8170  225.9460 C   0  0  2  0  0  0  0  0  0  0  0  0
  140.2520   67.6040  226.1350 C   0  0  0  0  0  0  0  0  0  0  0  0
  139.0770   69.0500  224.5450 N   0  0  0  0  0  0  0  0  0  0  0  0
  137.8400   69.6450  224.1130 C   0  0  0  0  0  0  0  0  0  0  0  0
  137.0260   69.9530  225.0300 O   0  0  0  0  0  0  0  0  0  0  0  0
  137.5340   69.8850  222.6820 C   0  0  0  0  0  0  0  0  0  0  0  0
  138.1310   71.1710  222.3410 N   0  0  0  0  0  0  0  0  0  0  0  0
  139.5390   71.3500  222.2650 C   0  0  0  0  0  0  0  0  0  0  0  0
  140.3250   70.3670  222.4980 O   0  0  0  0  0  0  0  0  0  0  0  0
  140.0850   72.6650  221.9180 C   0  0  0  0  0  0  0  0  0  0  0  0
  141.2310   72.7270  221.1390 C   0  0  0  0  0  0  0  0  0  0  0  0
  141.8080   73.9120  220.7680 C   0  0  0  0  0  0  0  0  0  0  0  0
  141.2070   75.0750  221.1980 C   0  0  0  0  0  0  0  0  0  0  0  0
  141.7900   76.2670  220.8240 C   0  0  0  0  0  0  0  0  0  0  0  0
  141.2230   77.4500  221.2320 C   0  0  0  0  0  0  0  0  0  0  0  0
  141.8270   78.5990  220.8420 F   0  0  0  0  0  0  0  0  0  0  0  0
  140.0910   77.4010  222.0030 C   0  0  0  0  0  0  0  0  0  0  0  0
  139.5070   76.1890  222.3780 C   0  0  0  0  0  0  0  0  0  0  0  0
  140.0720   74.9900  221.9700 C   0  0  0  0  0  0  0  0  0  0  0  0
  139.5090   73.8150  222.3320 N   0  0  0  0  0  0  0  0  0  0  0  0
  139.4657   69.7881  229.8034 H   0  0  0  0  0  0  0  0  0  0  0  0
  138.1169   69.7238  228.6188 H   0  0  0  0  0  0  0  0  0  0  0  0
  139.3742   68.4409  228.6188 H   0  0  0  0  0  0  0  0  0  0  0  0
  140.5664   71.6365  229.4107 H   0  0  0  0  0  0  0  0  0  0  0  0
  141.9714   73.0905  227.9759 H   0  0  0  0  0  0  0  0  0  0  0  0
  142.1637   72.5393  225.5389 H   0  0  0  0  0  0  0  0  0  0  0  0
  140.9777   70.5978  224.6369 H   0  0  0  0  0  0  0  0  0  0  0  0
  138.4221   68.6490  226.4746 H   0  0  0  0  0  0  0  0  0  0  0  0
  140.3894   67.4146  227.2098 H   0  0  0  0  0  0  0  0  0  0  0  0
  139.7767   66.7296  225.6664 H   0  0  0  0  0  0  0  0  0  0  0  0
  141.2307   67.7844  225.6664 H   0  0  0  0  0  0  0  0  0  0  0  0
  139.7370   68.8030  223.7710 H   0  0  0  0  0  0  0  0  0  0  0  0
  137.9689   69.0876  222.0615 H   0  0  0  0  0  0  0  0  0  0  0  0
  136.4487   69.8902  222.5027 H   0  0  0  0  0  0  0  0  0  0  0  0
  137.5070   72.0040  222.1430 H   0  0  0  0  0  0  0  0  0  0  0  0
  141.6947   71.7867  220.8060 H   0  0  0  0  0  0  0  0  0  0  0  0
  142.7175   73.9347  220.1497 H   0  0  0  0  0  0  0  0  0  0  0  0
  142.6996   76.2708  220.2054 H   0  0  0  0  0  0  0  0  0  0  0  0
  139.6295   78.3425  222.3357 H   0  0  0  0  0  0  0  0  0  0  0  0
  138.5981   76.1854  222.9975 H   0  0  0  0  0  0  0  0  0  0  0  0
  1  2  1  0
  2  3  2  0
  3  4  1  0
  4  5  2  0
  5  6  1  0
  6  7  2  0
  7  8  1  0
  8  9  1  0
  8 10  1  0
 10 11  1  0
 11 12  2  0
 11 13  1  0
 13 14  1  0
 14 15  1  0
 15 16  2  0
 15 17  1  0
 17 18  2  0
 18 19  1  0
 19 20  2  0
 20 21  1  0
 21 22  2  0
 22 23  1  0
 22 24  1  0
 24 25  2  0
 25 26  1  0
 26 27  2  0
  7  2  1  0
 27 17  1  0
 26 20  1  0
  1 28  1  0
  1 29  1  0
  1 30  1  0
  3 31  1  0
  4 32  1  0
  5 33  1  0
  6 34  1  0
  8 35  1  1
  9 36  1  0
  9 37  1  0
  9 38  1  0
 10 39  1  0
 13 40  1  0
 13 41  1  0
 14 42  1  0
 18 43  1  0
 19 44  1  0
 21 45  1  0
 24 46  1  0
 25 47  1  0
M  END
>  <smiles>  (9) 
Cc1ccccc1[C@H](C)NC(=O)CNC(=O)c1ccc2cc(F)ccc2n1

>  <score_type>  (9) 
oracle

>  <origin>  (9) 
autodockgpu

>  <m_score__min__energy>  (9) 
-8.6999999999999993

>  <m_primary>  (9) 
energy

>  <rmsd>  (9) 
9.839616835111174

>  <m_score__min__rmsd>  (9) 
9.839616835111174

>  <meeko>  (9) 
{"free_energy": -7.66, "intermolecular_energy": -9.15, "internal_energy": -2.32, "cluster_size": 4, "cluster_id": 4, "rank_in_cluster": 1}

>  <energy>  (9) 
-8.54

>  <cluster_rmsd>  (9) 
1.24

>  <cluster>  (9) 
1

$$$$

     RDKit          3D

 47 49  0  0  0  0  0  0  0  0999 V2000
  141.5710   79.4590  220.0000 C   0  0  0  0  0  0  0  0  0  0  0  0
  141.7460   79.4570  221.4670 C   0  0  0  0  0  0  0  0  0  0  0  0
  142.5970   80.4330  221.9910 C   0  0  0  0  0  0  0  0  0  0  0  0
  142.8440   80.5360  223.3440 C   0  0  0  0  0  0  0  0  0  0  0  0
  142.2180   79.6350  224.1870 C   0  0  0  0  0  0  0  0  0  0  0  0
  141.3850   78.6820  223.6550 C   0  0  0  0  0  0  0  0  0  0  0  0
  141.1260   78.5630  222.3130 C   0  0  0  0  0  0  0  0  0  0  0  0
  140.2240   77.5330  221.7330 C   0  0  2  0  0  0  0  0  0  0  0  0
  139.0850   77.3110  222.7000 C   0  0  0  0  0  0  0  0  0  0  0  0
  140.9890   76.3190  221.5200 N   0  0  0  0  0  0  0  0  0  0  0  0
  140.3980   75.1330  220.9590 C   0  0  0  0  0  0  0  0  0  0  0  0
  139.1720   75.2150  220.6620 O   0  0  0  0  0  0  0  0  0  0  0  0
  141.1760   73.8900  220.7390 C   0  0  0  0  0  0  0  0  0  0  0  0
  141.0530   73.1030  221.9600 N   0  0  0  0  0  0  0  0  0  0  0  0
  139.9240   72.2750  222.2110 C   0  0  0  0  0  0  0  0  0  0  0  0
  138.9780   72.2020  221.3530 O   0  0  0  0  0  0  0  0  0  0  0  0
  139.8530   71.5060  223.4560 C   0  0  0  0  0  0  0  0  0  0  0  0
  139.0550   70.3720  223.4950 C   0  0  0  0  0  0  0  0  0  0  0  0
  138.9280   69.5950  224.6150 C   0  0  0  0  0  0  0  0  0  0  0  0
  139.6340   69.9760  225.7360 C   0  0  0  0  0  0  0  0  0  0  0  0
  139.5060   69.1920  226.8630 C   0  0  0  0  0  0  0  0  0  0  0  0
  140.1920   69.5370  228.0030 C   0  0  0  0  0  0  0  0  0  0  0  0
  140.0380   68.7400  229.0880 F   0  0  0  0  0  0  0  0  0  0  0  0
  140.9830   70.6540  227.9770 C   0  0  0  0  0  0  0  0  0  0  0  0
  141.1070   71.4430  226.8310 C   0  0  0  0  0  0  0  0  0  0  0  0
  140.4190   71.1030  225.6760 C   0  0  0  0  0  0  0  0  0  0  0  0
  140.5370   71.8650  224.5650 N   0  0  0  0  0  0  0  0  0  0  0  0
  140.4978   79.4713  219.7588 H   0  0  0  0  0  0  0  0  0  0  0  0
  142.0527   80.3517  219.5745 H   0  0  0  0  0  0  0  0  0  0  0  0
  142.0322   78.5555  219.5745 H   0  0  0  0  0  0  0  0  0  0  0  0
  143.0846   81.1404  221.3041 H   0  0  0  0  0  0  0  0  0  0  0  0
  143.5175   81.3101  223.7404 H   0  0  0  0  0  0  0  0  0  0  0  0
  142.3861   79.6817  225.2731 H   0  0  0  0  0  0  0  0  0  0  0  0
  140.8984   77.9748  224.3428 H   0  0  0  0  0  0  0  0  0  0  0  0
  139.8080   77.8517  220.7658 H   0  0  0  0  0  0  0  0  0  0  0  0
  139.4602   77.3841  223.7314 H   0  0  0  0  0  0  0  0  0  0  0  0
  138.3109   78.0752  222.5364 H   0  0  0  0  0  0  0  0  0  0  0  0
  138.6545   76.3120  222.5364 H   0  0  0  0  0  0  0  0  0  0  0  0
  142.0050   76.2310  221.7590 H   0  0  0  0  0  0  0  0  0  0  0  0
  140.7666   73.3317  219.8842 H   0  0  0  0  0  0  0  0  0  0  0  0
  142.2293   74.1144  220.5149 H   0  0  0  0  0  0  0  0  0  0  0  0
  141.8200   73.1420  222.6910 H   0  0  0  0  0  0  0  0  0  0  0  0
  138.5014   70.0853  222.5887 H   0  0  0  0  0  0  0  0  0  0  0  0
  138.2872   68.7010  224.6202 H   0  0  0  0  0  0  0  0  0  0  0  0
  138.8620   68.3003  226.8499 H   0  0  0  0  0  0  0  0  0  0  0  0
  141.5365   70.9382  228.8841 H   0  0  0  0  0  0  0  0  0  0  0  0
  141.7509   72.3347  226.8447 H   0  0  0  0  0  0  0  0  0  0  0  0
  1  2  1  0
  2  3  2  0
  3  4  1  0
  4  5  2  0
  5  6  1  0
  6  7  2  0
  7  8  1  0
  8  9  1  0
  8 10  1  0
 10 11  1  0
 11 12  2  0
 11 13  1  0
 13 14  1  0
 14 15  1  0
 15 16  2  0
 15 17  1  0
 17 18  2  0
 18 19  1  0
 19 20  2  0
 20 21  1  0
 21 22  2  0
 22 23  1  0
 22 24  1  0
 24 25  2  0
 25 26  1  0
 26 27  2  0
  7  2  1  0
 27 17  1  0
 26 20  1  0
  1 28  1  0
  1 29  1  0
  1 30  1  0
  3 31  1  0
  4 32  1  0
  5 33  1  0
  6 34  1  0
  8 35  1  6
  9 36  1  0
  9 37  1  0
  9 38  1  0
 10 39  1  0
 13 40  1  0
 13 41  1  0
 14 42  1  0
 18 43  1  0
 19 44  1  0
 21 45  1  0
 24 46  1  0
 25 47  1  0
M  END
>  <smiles>  (10) 
Cc1ccccc1[C@H](C)NC(=O)CNC(=O)c1ccc2cc(F)ccc2n1

>  <score_type>  (10) 
oracle

>  <origin>  (10) 
autodockgpu

>  <m_score__min__energy>  (10) 
-8.6999999999999993

>  <m_primary>  (10) 
energy

>  <rmsd>  (10) 
4.16728472623301

>  <m_score__min__rmsd>  (10) 
4.16728472623301

>  <meeko>  (10) 
{"free_energy": -8.37, "intermolecular_energy": -9.86, "internal_energy": -1.21, "cluster_size": 30, "cluster_id": 1, "rank_in_cluster": 11}

>  <energy>  (10) 
-8.37

>  <cluster_rmsd>  (10) 
1.41

>  <cluster>  (10) 
1

$$$$

     RDKit          3D

 47 49  0  0  0  0  0  0  0  0999 V2000
  140.4470   80.9470  222.9400 C   0  0  0  0  0  0  0  0  0  0  0  0
  141.0220   80.3680  221.7100 C   0  0  0  0  0  0  0  0  0  0  0  0
  141.3500   81.2690  220.6940 C   0  0  0  0  0  0  0  0  0  0  0  0
  141.8940   80.8550  219.4970 C   0  0  0  0  0  0  0  0  0  0  0  0
  142.1110   79.5000  219.3190 C   0  0  0  0  0  0  0  0  0  0  0  0
  141.7820   78.6270  220.3260 C   0  0  0  0  0  0  0  0  0  0  0  0
  141.2410   79.0190  221.5250 C   0  0  0  0  0  0  0  0  0  0  0  0
  140.8840   78.0780  222.6180 C   0  0  2  0  0  0  0  0  0  0  0  0
  141.8210   78.3300  223.7760 C   0  0  0  0  0  0  0  0  0  0  0  0
  141.0070   76.7220  222.1170 N   0  0  0  0  0  0  0  0  0  0  0  0
  139.8650   75.9600  221.6880 C   0  0  0  0  0  0  0  0  0  0  0  0
  138.7470   76.5450  221.7750 O   0  0  0  0  0  0  0  0  0  0  0  0
  139.9860   74.5740  221.1750 C   0  0  0  0  0  0  0  0  0  0  0  0
  139.8970   73.6940  222.3340 N   0  0  0  0  0  0  0  0  0  0  0  0
  140.3110   72.3340  222.2790 C   0  0  0  0  0  0  0  0  0  0  0  0
  140.7780   71.8490  221.1910 O   0  0  0  0  0  0  0  0  0  0  0  0
  140.1990   71.4940  223.4740 C   0  0  0  0  0  0  0  0  0  0  0  0
  139.5900   70.2520  223.3620 C   0  0  0  0  0  0  0  0  0  0  0  0
  139.4430   69.4030  224.4260 C   0  0  0  0  0  0  0  0  0  0  0  0
  139.9280   69.8230  225.6460 C   0  0  0  0  0  0  0  0  0  0  0  0
  139.7780   68.9660  226.7170 C   0  0  0  0  0  0  0  0  0  0  0  0
  140.2470   69.3460  227.9510 C   0  0  0  0  0  0  0  0  0  0  0  0
  140.0800   68.4750  228.9770 F   0  0  0  0  0  0  0  0  0  0  0  0
  140.8500   70.5690  228.0740 C   0  0  0  0  0  0  0  0  0  0  0  0
  140.9970   71.4310  226.9850 C   0  0  0  0  0  0  0  0  0  0  0  0
  140.5270   71.0570  225.7340 C   0  0  0  0  0  0  0  0  0  0  0  0
  140.6680   71.8890  224.6780 N   0  0  0  0  0  0  0  0  0  0  0  0
  140.9131   80.4776  223.8189 H   0  0  0  0  0  0  0  0  0  0  0  0
  140.6370   82.0303  222.9589 H   0  0  0  0  0  0  0  0  0  0  0  0
  139.3624   80.7646  222.9589 H   0  0  0  0  0  0  0  0  0  0  0  0
  141.1686   82.3420  220.8542 H   0  0  0  0  0  0  0  0  0  0  0  0
  142.1475   81.5787  218.7084 H   0  0  0  0  0  0  0  0  0  0  0  0
  142.5432   79.1258  218.3792 H   0  0  0  0  0  0  0  0  0  0  0  0
  141.9619   77.5541  220.1630 H   0  0  0  0  0  0  0  0  0  0  0  0
  139.8496   78.2252  222.9621 H   0  0  0  0  0  0  0  0  0  0  0  0
  141.2808   78.1847  224.7231 H   0  0  0  0  0  0  0  0  0  0  0  0
  142.6655   77.6271  223.7240 H   0  0  0  0  0  0  0  0  0  0  0  0
  142.1990   79.3617  223.7240 H   0  0  0  0  0  0  0  0  0  0  0  0
  141.9230   76.2210  222.0380 H   0  0  0  0  0  0  0  0  0  0  0  0
  139.1700   74.3573  220.4699 H   0  0  0  0  0  0  0  0  0  0  0  0
  140.9354   74.4301  220.6384 H   0  0  0  0  0  0  0  0  0  0  0  0
  139.5140   74.0660  223.2490 H   0  0  0  0  0  0  0  0  0  0  0  0
  139.2101   69.9370  222.3789 H   0  0  0  0  0  0  0  0  0  0  0  0
  138.9564   68.4231  224.3116 H   0  0  0  0  0  0  0  0  0  0  0  0
  139.2886   67.9899  226.5842 H   0  0  0  0  0  0  0  0  0  0  0  0
  141.2294   70.8814  229.0581 H   0  0  0  0  0  0  0  0  0  0  0  0
  141.4858   72.4073  227.1190 H   0  0  0  0  0  0  0  0  0  0  0  0
  1  2  1  0
  2  3  2  0
  3  4  1  0
  4  5  2  0
  5  6  1  0
  6  7  2  0
  7  8  1  0
  8  9  1  0
  8 10  1  0
 10 11  1  0
 11 12  2  0
 11 13  1  0
 13 14  1  0
 14 15  1  0
 15 16  2  0
 15 17  1  0
 17 18  2  0
 18 19  1  0
 19 20  2  0
 20 21  1  0
 21 22  2  0
 22 23  1  0
 22 24  1  0
 24 25  2  0
 25 26  1  0
 26 27  2  0
  7  2  1  0
 27 17  1  0
 26 20  1  0
  1 28  1  0
  1 29  1  0
  1 30  1  0
  3 31  1  0
  4 32  1  0
  5 33  1  0
  6 34  1  0
  8 35  1  1
  9 36  1  0
  9 37  1  0
  9 38  1  0
 10 39  1  0
 13 40  1  0
 13 41  1  0
 14 42  1  0
 18 43  1  0
 19 44  1  0
 21 45  1  0
 24 46  1  0
 25 47  1  0
M  END
>  <smiles>  (11) 
Cc1ccccc1[C@H](C)NC(=O)CNC(=O)c1ccc2cc(F)ccc2n1

>  <score_type>  (11) 
oracle

>  <origin>  (11) 
autodockgpu

>  <m_score__min__energy>  (11) 
-8.6999999999999993

>  <m_primary>  (11) 
energy

>  <rmsd>  (11) 
3.4167543142864556

>  <m_score__min__rmsd>  (11) 
3.4167543142864556

>  <meeko>  (11) 
{"free_energy": -8.62, "intermolecular_energy": -10.11, "internal_energy": -1.02, "cluster_size": 30, "cluster_id": 1, "rank_in_cluster": 5}

>  <energy>  (11) 
-8.37

>  <cluster_rmsd>  (11) 
1.48

>  <cluster>  (11) 
1

$$$$

     RDKit          3D

 47 49  0  0  0  0  0  0  0  0999 V2000
  141.2360   79.8330  220.1360 C   0  0  0  0  0  0  0  0  0  0  0  0
  141.5610   79.7880  221.5760 C   0  0  0  0  0  0  0  0  0  0  0  0
  142.5760   80.6440  222.0100 C   0  0  0  0  0  0  0  0  0  0  0  0
  142.9730   80.6970  223.3290 C   0  0  0  0  0  0  0  0  0  0  0  0
  142.3310   79.8670  224.2320 C   0  0  0  0  0  0  0  0  0  0  0  0
  141.3360   79.0320  223.7890 C   0  0  0  0  0  0  0  0  0  0  0  0
  140.9260   78.9650  222.4810 C   0  0  0  0  0  0  0  0  0  0  0  0
  139.8480   78.0620  221.9980 C   0  0  2  0  0  0  0  0  0  0  0  0
  138.7860   77.9870  223.0690 C   0  0  0  0  0  0  0  0  0  0  0  0
  140.4260   76.7600  221.7260 N   0  0  0  0  0  0  0  0  0  0  0  0
  139.6220   75.6360  221.3260 C   0  0  0  0  0  0  0  0  0  0  0  0
  138.3810   75.8540  221.2260 O   0  0  0  0  0  0  0  0  0  0  0  0
  140.2080   74.3030  221.0470 C   0  0  0  0  0  0  0  0  0  0  0  0
  140.0360   73.5120  222.2600 N   0  0  0  0  0  0  0  0  0  0  0  0
  140.5060   72.1730  222.3580 C   0  0  0  0  0  0  0  0  0  0  0  0
  141.1010   71.6280  221.3660 O   0  0  0  0  0  0  0  0  0  0  0  0
  140.3050   71.4250  223.6020 C   0  0  0  0  0  0  0  0  0  0  0  0
  139.6570   70.1990  223.5450 C   0  0  0  0  0  0  0  0  0  0  0  0
  139.4270   69.4330  224.6560 C   0  0  0  0  0  0  0  0  0  0  0  0
  139.8670   69.9220  225.8680 C   0  0  0  0  0  0  0  0  0  0  0  0
  139.6340   69.1490  226.9860 C   0  0  0  0  0  0  0  0  0  0  0  0
  140.0550   69.6000  228.2140 C   0  0  0  0  0  0  0  0  0  0  0  0
  139.8070   68.8100  229.2870 F   0  0  0  0  0  0  0  0  0  0  0  0
  140.6950   70.8080  228.2820 C   0  0  0  0  0  0  0  0  0  0  0  0
  140.9280   71.5850  227.1450 C   0  0  0  0  0  0  0  0  0  0  0  0
  140.5060   71.1390  225.9010 C   0  0  0  0  0  0  0  0  0  0  0  0
  140.7280   71.8890  224.7980 N   0  0  0  0  0  0  0  0  0  0  0  0
  140.1537   79.9828  220.0089 H   0  0  0  0  0  0  0  0  0  0  0  0
  141.7793   80.6645  219.6633 H   0  0  0  0  0  0  0  0  0  0  0  0
  141.5329   78.8852  219.6633 H   0  0  0  0  0  0  0  0  0  0  0  0
  143.0737   81.2957  221.2768 H   0  0  0  0  0  0  0  0  0  0  0  0
  143.7743   81.3771  223.6537 H   0  0  0  0  0  0  0  0  0  0  0  0
  142.6157   79.8767  225.2945 H   0  0  0  0  0  0  0  0  0  0  0  0
  140.8396   78.3803  224.5231 H   0  0  0  0  0  0  0  0  0  0  0  0
  139.3877   78.4345  221.0710 H   0  0  0  0  0  0  0  0  0  0  0  0
  139.2618   78.0206  224.0602 H   0  0  0  0  0  0  0  0  0  0  0  0
  138.0980   78.8388  222.9635 H   0  0  0  0  0  0  0  0  0  0  0  0
  138.2246   77.0470  222.9635 H   0  0  0  0  0  0  0  0  0  0  0  0
  141.4520   76.5590  221.8030 H   0  0  0  0  0  0  0  0  0  0  0  0
  139.6842   73.8264  220.2053 H   0  0  0  0  0  0  0  0  0  0  0  0
  141.2703   74.3852  220.7735 H   0  0  0  0  0  0  0  0  0  0  0  0
  139.5460   73.9360  223.0990 H   0  0  0  0  0  0  0  0  0  0  0  0
  139.3145   69.8279  222.5678 H   0  0  0  0  0  0  0  0  0  0  0  0
  138.9108   68.4642  224.5847 H   0  0  0  0  0  0  0  0  0  0  0  0
  139.1170   68.1823  226.8959 H   0  0  0  0  0  0  0  0  0  0  0  0
  141.0357   71.1776  229.2604 H   0  0  0  0  0  0  0  0  0  0  0  0
  141.4463   72.5510  227.2360 H   0  0  0  0  0  0  0  0  0  0  0  0
  1  2  1  0
  2  3  2  0
  3  4  1  0
  4  5  2  0
  5  6  1  0
  6  7  2  0
  7  8  1  0
  8  9  1  0
  8 10  1  0
 10 11  1  0
 11 12  2  0
 11 13  1  0
 13 14  1  0
 14 15  1  0
 15 16  2  0
 15 17  1  0
 17 18  2  0
 18 19  1  0
 19 20  2  0
 20 21  1  0
 21 22  2  0
 22 23  1  0
 22 24  1  0
 24 25  2  0
 25 26  1  0
 26 27  2  0
  7  2  1  0
 27 17  1  0
 26 20  1  0
  1 28  1  0
  1 29  1  0
  1 30  1  0
  3 31  1  0
  4 32  1  0
  5 33  1  0
  6 34  1  0
  8 35  1  6
  9 36  1  0
  9 37  1  0
  9 38  1  0
 10 39  1  0
 13 40  1  0
 13 41  1  0
 14 42  1  0
 18 43  1  0
 19 44  1  0
 21 45  1  0
 24 46  1  0
 25 47  1  0
M  END
>  <smiles>  (12) 
Cc1ccccc1[C@H](C)NC(=O)CNC(=O)c1ccc2cc(F)ccc2n1

>  <score_type>  (12) 
oracle

>  <origin>  (12) 
autodockgpu

>  <m_score__min__energy>  (12) 
-8.6999999999999993

>  <m_primary>  (12) 
energy

>  <rmsd>  (12) 
4.115469385715274

>  <m_score__min__rmsd>  (12) 
4.115469385715274

>  <meeko>  (12) 
{"free_energy": -8.61, "intermolecular_energy": -10.1, "internal_energy": -1.01, "cluster_size": 30, "cluster_id": 1, "rank_in_cluster": 6}

>  <energy>  (12) 
-8.35

>  <cluster_rmsd>  (12) 
1.4

>  <cluster>  (12) 
1

$$$$

     RDKit          3D

 47 49  0  0  0  0  0  0  0  0999 V2000
  139.5880   69.2410  228.7230 C   0  0  0  0  0  0  0  0  0  0  0  0
  140.2080   70.2520  227.8430 C   0  0  0  0  0  0  0  0  0  0  0  0
  140.9250   71.2700  228.4770 C   0  0  0  0  0  0  0  0  0  0  0  0
  141.5500   72.2740  227.7680 C   0  0  0  0  0  0  0  0  0  0  0  0
  141.4490   72.2510  226.3880 C   0  0  0  0  0  0  0  0  0  0  0  0
  140.7400   71.2440  225.7810 C   0  0  0  0  0  0  0  0  0  0  0  0
  140.1120   70.2360  226.4680 C   0  0  0  0  0  0  0  0  0  0  0  0
  139.3440   69.1440  225.8150 C   0  0  2  0  0  0  0  0  0  0  0  0
  140.1970   67.8980  225.8330 C   0  0  0  0  0  0  0  0  0  0  0  0
  139.0230   69.5530  224.4610 N   0  0  0  0  0  0  0  0  0  0  0  0
  137.6730   69.8180  224.0420 C   0  0  0  0  0  0  0  0  0  0  0  0
  136.7820   69.6740  224.9280 O   0  0  0  0  0  0  0  0  0  0  0  0
  137.3400   70.2360  222.6590 C   0  0  0  0  0  0  0  0  0  0  0  0
  137.9110   71.5660  222.4800 N   0  0  0  0  0  0  0  0  0  0  0  0
  139.2730   71.7570  222.1180 C   0  0  0  0  0  0  0  0  0  0  0  0
  140.0370   70.7470  221.9390 O   0  0  0  0  0  0  0  0  0  0  0  0
  139.7940   73.1170  221.9510 C   0  0  0  0  0  0  0  0  0  0  0  0
  141.0440   73.2860  221.3740 C   0  0  0  0  0  0  0  0  0  0  0  0
  141.6080   74.5180  221.1800 C   0  0  0  0  0  0  0  0  0  0  0  0
  140.8830   75.6200  221.5840 C   0  0  0  0  0  0  0  0  0  0  0  0
  141.4520   76.8600  221.3880 C   0  0  0  0  0  0  0  0  0  0  0  0
  140.7630   77.9840  221.7760 C   0  0  0  0  0  0  0  0  0  0  0  0
  141.3590   79.1840  221.5660 F   0  0  0  0  0  0  0  0  0  0  0  0
  139.5290   77.8290  222.3480 C   0  0  0  0  0  0  0  0  0  0  0  0
  138.9590   76.5690  222.5430 C   0  0  0  0  0  0  0  0  0  0  0  0
  139.6460   75.4290  222.1540 C   0  0  0  0  0  0  0  0  0  0  0  0
  139.0980   74.2080  222.3420 N   0  0  0  0  0  0  0  0  0  0  0  0
  139.7571   69.5168  229.7744 H   0  0  0  0  0  0  0  0  0  0  0  0
  138.5069   69.1961  228.5251 H   0  0  0  0  0  0  0  0  0  0  0  0
  140.0382   68.2570  228.5251 H   0  0  0  0  0  0  0  0  0  0  0  0
  140.9929   71.2705  229.5749 H   0  0  0  0  0  0  0  0  0  0  0  0
  142.1110   73.0679  228.2829 H   0  0  0  0  0  0  0  0  0  0  0  0
  141.9323   73.0323  225.7830 H   0  0  0  0  0  0  0  0  0  0  0  0
  140.6717   71.2455  224.6831 H   0  0  0  0  0  0  0  0  0  0  0  0
  138.4021   68.9341  226.3430 H   0  0  0  0  0  0  0  0  0  0  0  0
  140.3971   67.6057  226.8744 H   0  0  0  0  0  0  0  0  0  0  0  0
  139.6665   67.0830  225.3189 H   0  0  0  0  0  0  0  0  0  0  0  0
  141.1487   68.0977  225.3189 H   0  0  0  0  0  0  0  0  0  0  0  0
  139.7460   69.6780  223.7130 H   0  0  0  0  0  0  0  0  0  0  0  0
  137.7774   69.5338  221.9340 H   0  0  0  0  0  0  0  0  0  0  0  0
  136.2520   70.2449  222.4970 H   0  0  0  0  0  0  0  0  0  0  0  0
  137.3030   72.4230  222.6210 H   0  0  0  0  0  0  0  0  0  0  0  0
  141.6049   72.3936  221.0595 H   0  0  0  0  0  0  0  0  0  0  0  0
  142.6012   74.6253  220.7196 H   0  0  0  0  0  0  0  0  0  0  0  0
  142.4464   76.9489  220.9262 H   0  0  0  0  0  0  0  0  0  0  0  0
  138.9703   78.7226  222.6631 H   0  0  0  0  0  0  0  0  0  0  0  0
  137.9648   76.4809  223.0053 H   0  0  0  0  0  0  0  0  0  0  0  0
  1  2  1  0
  2  3  2  0
  3  4  1  0
  4  5  2  0
  5  6  1  0
  6  7  2  0
  7  8  1  0
  8  9  1  0
  8 10  1  0
 10 11  1  0
 11 12  2  0
 11 13  1  0
 13 14  1  0
 14 15  1  0
 15 16  2  0
 15 17  1  0
 17 18  2  0
 18 19  1  0
 19 20  2  0
 20 21  1  0
 21 22  2  0
 22 23  1  0
 22 24  1  0
 24 25  2  0
 25 26  1  0
 26 27  2  0
  7  2  1  0
 27 17  1  0
 26 20  1  0
  1 28  1  0
  1 29  1  0
  1 30  1  0
  3 31  1  0
  4 32  1  0
  5 33  1  0
  6 34  1  0
  8 35  1  1
  9 36  1  0
  9 37  1  0
  9 38  1  0
 10 39  1  0
 13 40  1  0
 13 41  1  0
 14 42  1  0
 18 43  1  0
 19 44  1  0
 21 45  1  0
 24 46  1  0
 25 47  1  0
M  END
>  <smiles>  (13) 
Cc1ccccc1[C@H](C)NC(=O)CNC(=O)c1ccc2cc(F)ccc2n1

>  <score_type>  (13) 
oracle

>  <origin>  (13) 
autodockgpu

>  <m_score__min__energy>  (13) 
-8.6999999999999993

>  <m_primary>  (13) 
energy

>  <rmsd>  (13) 
9.716633870460583

>  <m_score__min__rmsd>  (13) 
9.716633870460583

>  <meeko>  (13) 
{"free_energy": -7.28, "intermolecular_energy": -8.77, "internal_energy": -2.31, "cluster_size": 4, "cluster_id": 4, "rank_in_cluster": 4}

>  <energy>  (13) 
-8.35

>  <cluster_rmsd>  (13) 
1.41

>  <cluster>  (13) 
1

$$$$

     RDKit          3D

 47 49  0  0  0  0  0  0  0  0999 V2000
  142.6410   79.4450  223.0460 C   0  0  0  0  0  0  0  0  0  0  0  0
  141.1740   79.3590  222.8950 C   0  0  0  0  0  0  0  0  0  0  0  0
  140.4120   80.0450  223.8440 C   0  0  0  0  0  0  0  0  0  0  0  0
  139.0330   80.0430  223.8130 C   0  0  0  0  0  0  0  0  0  0  0  0
  138.4090   79.3330  222.8020 C   0  0  0  0  0  0  0  0  0  0  0  0
  139.1730   78.6640  221.8780 C   0  0  0  0  0  0  0  0  0  0  0  0
  140.5450   78.6540  221.8910 C   0  0  0  0  0  0  0  0  0  0  0  0
  141.3760   77.9310  220.8930 C   0  0  2  0  0  0  0  0  0  0  0  0
  141.5590   78.8350  219.6960 C   0  0  0  0  0  0  0  0  0  0  0  0
  140.6970   76.7010  220.5340 N   0  0  0  0  0  0  0  0  0  0  0  0
  140.3000   75.7310  221.5200 C   0  0  0  0  0  0  0  0  0  0  0  0
  140.5790   76.0190  222.7190 O   0  0  0  0  0  0  0  0  0  0  0  0
  139.6060   74.4720  221.1580 C   0  0  0  0  0  0  0  0  0  0  0  0
  139.6550   73.6180  222.3380 N   0  0  0  0  0  0  0  0  0  0  0  0
  139.8430   72.2110  222.2410 C   0  0  0  0  0  0  0  0  0  0  0  0
  139.9770   71.6590  221.0940 O   0  0  0  0  0  0  0  0  0  0  0  0
  139.8840   71.4000  223.4600 C   0  0  0  0  0  0  0  0  0  0  0  0
  139.3940   70.1030  223.4160 C   0  0  0  0  0  0  0  0  0  0  0  0
  139.3920   69.2760  224.5060 C   0  0  0  0  0  0  0  0  0  0  0  0
  139.9040   69.7760  225.6850 C   0  0  0  0  0  0  0  0  0  0  0  0
  139.9020   68.9410  226.7820 C   0  0  0  0  0  0  0  0  0  0  0  0
  140.4030   69.4000  227.9760 C   0  0  0  0  0  0  0  0  0  0  0  0
  140.3820   68.5480  229.0300 F   0  0  0  0  0  0  0  0  0  0  0  0
  140.8900   70.6790  228.0330 C   0  0  0  0  0  0  0  0  0  0  0  0
  140.8890   71.5180  226.9170 C   0  0  0  0  0  0  0  0  0  0  0  0
  140.3850   71.0640  225.7060 C   0  0  0  0  0  0  0  0  0  0  0  0
  140.3820   71.8740  224.6240 N   0  0  0  0  0  0  0  0  0  0  0  0
  142.8993   79.4601  224.1151 H   0  0  0  0  0  0  0  0  0  0  0  0
  143.1106   78.5728  222.5677 H   0  0  0  0  0  0  0  0  0  0  0  0
  143.0055   80.3661  222.5677 H   0  0  0  0  0  0  0  0  0  0  0  0
  140.9271   80.6033  224.6396 H   0  0  0  0  0  0  0  0  0  0  0  0
  138.4477   80.5884  224.5679 H   0  0  0  0  0  0  0  0  0  0  0  0
  137.3111   79.3050  222.7394 H   0  0  0  0  0  0  0  0  0  0  0  0
  138.6567   78.1052  221.0835 H   0  0  0  0  0  0  0  0  0  0  0  0
  142.3666   77.6726  221.2955 H   0  0  0  0  0  0  0  0  0  0  0  0
  141.7664   79.8595  220.0386 H   0  0  0  0  0  0  0  0  0  0  0  0
  142.4022   78.4736  219.0891 H   0  0  0  0  0  0  0  0  0  0  0  0
  140.6416   78.8300  219.0891 H   0  0  0  0  0  0  0  0  0  0  0  0
  140.4580   76.4440  219.5470 H   0  0  0  0  0  0  0  0  0  0  0  0
  138.5615   74.6796  220.8824 H   0  0  0  0  0  0  0  0  0  0  0  0
  140.0867   73.9868  220.2957 H   0  0  0  0  0  0  0  0  0  0  0  0
  139.5470   74.0450  223.3020 H   0  0  0  0  0  0  0  0  0  0  0  0
  138.9904   69.7237  222.4656 H   0  0  0  0  0  0  0  0  0  0  0  0
  138.9970   68.2512  224.4443 H   0  0  0  0  0  0  0  0  0  0  0  0
  139.5037   67.9188  226.7021 H   0  0  0  0  0  0  0  0  0  0  0  0
  141.2931   71.0556  228.9846 H   0  0  0  0  0  0  0  0  0  0  0  0
  141.2881   72.5399  226.9976 H   0  0  0  0  0  0  0  0  0  0  0  0
  1  2  1  0
  2  3  2  0
  3  4  1  0
  4  5  2  0
  5  6  1  0
  6  7  2  0
  7  8  1  0
  8  9  1  0
  8 10  1  0
 10 11  1  0
 11 12  2  0
 11 13  1  0
 13 14  1  0
 14 15  1  0
 15 16  2  0
 15 17  1  0
 17 18  2  0
 18 19  1  0
 19 20  2  0
 20 21  1  0
 21 22  2  0
 22 23  1  0
 22 24  1  0
 24 25  2  0
 25 26  1  0
 26 27  2  0
  7  2  1  0
 27 17  1  0
 26 20  1  0
  1 28  1  0
  1 29  1  0
  1 30  1  0
  3 31  1  0
  4 32  1  0
  5 33  1  0
  6 34  1  0
  8 35  1  1
  9 36  1  0
  9 37  1  0
  9 38  1  0
 10 39  1  0
 13 40  1  0
 13 41  1  0
 14 42  1  0
 18 43  1  0
 19 44  1  0
 21 45  1  0
 24 46  1  0
 25 47  1  0
M  END
>  <smiles>  (14) 
Cc1ccccc1[C@H](C)NC(=O)CNC(=O)c1ccc2cc(F)ccc2n1

>  <score_type>  (14) 
oracle

>  <origin>  (14) 
autodockgpu

>  <m_score__min__energy>  (14) 
-8.6999999999999993

>  <m_primary>  (14) 
energy

>  <rmsd>  (14) 
3.9964746994419844

>  <m_score__min__rmsd>  (14) 
3.9964746994419844

>  <meeko>  (14) 
{"free_energy": -8.15, "intermolecular_energy": -9.64, "internal_energy": -1.59, "cluster_size": 30, "cluster_id": 1, "rank_in_cluster": 18}

>  <energy>  (14) 
-8.33

>  <cluster_rmsd>  (14) 
1.4

>  <cluster>  (14) 
1

$$$$

     RDKit          3D

 47 49  0  0  0  0  0  0  0  0999 V2000
  141.8240   78.9180  219.8440 C   0  0  0  0  0  0  0  0  0  0  0  0
  141.5280   79.0720  221.2830 C   0  0  0  0  0  0  0  0  0  0  0  0
  142.5680   79.5550  222.0810 C   0  0  0  0  0  0  0  0  0  0  0  0
  142.4190   79.7430  223.4390 C   0  0  0  0  0  0  0  0  0  0  0  0
  141.1930   79.4370  224.0040 C   0  0  0  0  0  0  0  0  0  0  0  0
  140.1820   78.9630  223.2060 C   0  0  0  0  0  0  0  0  0  0  0  0
  140.3100   78.7700  221.8530 C   0  0  0  0  0  0  0  0  0  0  0  0
  139.2180   78.2570  220.9840 C   0  0  2  0  0  0  0  0  0  0  0  0
  137.9350   78.2860  221.7810 C   0  0  0  0  0  0  0  0  0  0  0  0
  139.5570   76.9110  220.5660 N   0  0  0  0  0  0  0  0  0  0  0  0
  139.7480   75.8420  221.5100 C   0  0  0  0  0  0  0  0  0  0  0  0
  139.6020   76.1500  222.7280 O   0  0  0  0  0  0  0  0  0  0  0  0
  140.0940   74.4640  221.0870 C   0  0  0  0  0  0  0  0  0  0  0  0
  139.9670   73.6230  222.2710 N   0  0  0  0  0  0  0  0  0  0  0  0
  140.3830   72.2630  222.2740 C   0  0  0  0  0  0  0  0  0  0  0  0
  140.8860   71.7420  221.2200 O   0  0  0  0  0  0  0  0  0  0  0  0
  140.2330   71.4630  223.4930 C   0  0  0  0  0  0  0  0  0  0  0  0
  139.6140   70.2240  223.4060 C   0  0  0  0  0  0  0  0  0  0  0  0
  139.4310   69.4120  224.4920 C   0  0  0  0  0  0  0  0  0  0  0  0
  139.8900   69.8650  225.7100 C   0  0  0  0  0  0  0  0  0  0  0  0
  139.7050   69.0460  226.8030 C   0  0  0  0  0  0  0  0  0  0  0  0
  140.1470   69.4600  228.0370 C   0  0  0  0  0  0  0  0  0  0  0  0
  139.9450   68.6250  229.0850 F   0  0  0  0  0  0  0  0  0  0  0  0
  140.7590   70.6810  228.1350 C   0  0  0  0  0  0  0  0  0  0  0  0
  140.9430   71.5060  227.0230 C   0  0  0  0  0  0  0  0  0  0  0  0
  140.5000   71.0960  225.7740 C   0  0  0  0  0  0  0  0  0  0  0  0
  140.6750   71.8920  224.6960 N   0  0  0  0  0  0  0  0  0  0  0  0
  142.7937   78.4135  219.7211 H   0  0  0  0  0  0  0  0  0  0  0  0
  141.0348   78.3161  219.3697 H   0  0  0  0  0  0  0  0  0  0  0  0
  141.8639   79.9097  219.3697 H   0  0  0  0  0  0  0  0  0  0  0  0
  143.5344   79.7924  221.6122 H   0  0  0  0  0  0  0  0  0  0  0  0
  143.2480   80.1239  224.0536 H   0  0  0  0  0  0  0  0  0  0  0  0
  141.0304   79.5726  225.0834 H   0  0  0  0  0  0  0  0  0  0  0  0
  139.2165   78.7248  223.6762 H   0  0  0  0  0  0  0  0  0  0  0  0
  139.0878   78.8743  220.0829 H   0  0  0  0  0  0  0  0  0  0  0  0
  138.1706   78.2807  222.8555 H   0  0  0  0  0  0  0  0  0  0  0  0
  137.3704   79.1971  221.5339 H   0  0  0  0  0  0  0  0  0  0  0  0
  137.3298   77.4013  221.5339 H   0  0  0  0  0  0  0  0  0  0  0  0
  139.6820   76.6360  219.5630 H   0  0  0  0  0  0  0  0  0  0  0  0
  139.4027   74.1225  220.3025 H   0  0  0  0  0  0  0  0  0  0  0  0
  141.1127   74.4186  220.6745 H   0  0  0  0  0  0  0  0  0  0  0  0
  139.5540   74.0250  223.1600 H   0  0  0  0  0  0  0  0  0  0  0  0
  139.2559   69.8808  222.4242 H   0  0  0  0  0  0  0  0  0  0  0  0
  138.9361   68.4343  224.3965 H   0  0  0  0  0  0  0  0  0  0  0  0
  139.2087   68.0710  226.6890 H   0  0  0  0  0  0  0  0  0  0  0  0
  141.1161   71.0220  229.1179 H   0  0  0  0  0  0  0  0  0  0  0  0
  141.4392   72.4810  227.1377 H   0  0  0  0  0  0  0  0  0  0  0  0
  1  2  1  0
  2  3  2  0
  3  4  1  0
  4  5  2  0
  5  6  1  0
  6  7  2  0
  7  8  1  0
  8  9  1  0
  8 10  1  0
 10 11  1  0
 11 12  2  0
 11 13  1  0
 13 14  1  0
 14 15  1  0
 15 16  2  0
 15 17  1  0
 17 18  2  0
 18 19  1  0
 19 20  2  0
 20 21  1  0
 21 22  2  0
 22 23  1  0
 22 24  1  0
 24 25  2  0
 25 26  1  0
 26 27  2  0
  7  2  1  0
 27 17  1  0
 26 20  1  0
  1 28  1  0
  1 29  1  0
  1 30  1  0
  3 31  1  0
  4 32  1  0
  5 33  1  0
  6 34  1  0
  8 35  1  6
  9 36  1  0
  9 37  1  0
  9 38  1  0
 10 39  1  0
 13 40  1  0
 13 41  1  0
 14 42  1  0
 18 43  1  0
 19 44  1  0
 21 45  1  0
 24 46  1  0
 25 47  1  0
M  END
>  <smiles>  (15) 
Cc1ccccc1[C@H](C)NC(=O)CNC(=O)c1ccc2cc(F)ccc2n1

>  <score_type>  (15) 
oracle

>  <origin>  (15) 
autodockgpu

>  <m_score__min__energy>  (15) 
-8.6999999999999993

>  <m_primary>  (15) 
energy

>  <rmsd>  (15) 
4.362970262783164

>  <m_score__min__rmsd>  (15) 
4.362970262783164

>  <meeko>  (15) 
{"free_energy": -8.13, "intermolecular_energy": -9.62, "internal_energy": -1.66, "cluster_size": 30, "cluster_id": 1, "rank_in_cluster": 22}

>  <energy>  (15) 
-8.3

>  <cluster_rmsd>  (15) 
1.4

>  <cluster>  (15) 
1

$$$$

     RDKit          3D

 47 49  0  0  0  0  0  0  0  0999 V2000
  139.9060   67.7890  226.8350 C   0  0  0  0  0  0  0  0  0  0  0  0
  140.2240   69.2300  226.7730 C   0  0  0  0  0  0  0  0  0  0  0  0
  140.7130   69.8080  227.9470 C   0  0  0  0  0  0  0  0  0  0  0  0
  141.0470   71.1440  228.0190 C   0  0  0  0  0  0  0  0  0  0  0  0
  140.8840   71.9140  226.8810 C   0  0  0  0  0  0  0  0  0  0  0  0
  140.4020   71.3310  225.7360 C   0  0  0  0  0  0  0  0  0  0  0  0
  140.0650   70.0040  225.6440 C   0  0  0  0  0  0  0  0  0  0  0  0
  139.5430   69.3680  224.4060 C   0  0  2  0  0  0  0  0  0  0  0  0
  139.7250   70.3440  223.2660 C   0  0  0  0  0  0  0  0  0  0  0  0
  138.1450   69.0410  224.6100 N   0  0  0  0  0  0  0  0  0  0  0  0
  137.1150   70.0450  224.5900 C   0  0  0  0  0  0  0  0  0  0  0  0
  137.5040   71.2300  224.3820 O   0  0  0  0  0  0  0  0  0  0  0  0
  135.6840   69.7150  224.7980 C   0  0  0  0  0  0  0  0  0  0  0  0
  135.0400   70.9390  225.2580 N   0  0  0  0  0  0  0  0  0  0  0  0
  133.8930   70.9140  226.1000 C   0  0  0  0  0  0  0  0  0  0  0  0
  133.3970   69.7970  226.4760 O   0  0  0  0  0  0  0  0  0  0  0  0
  133.2850   72.1750  226.5320 C   0  0  0  0  0  0  0  0  0  0  0  0
  132.0520   72.1380  227.1670 C   0  0  0  0  0  0  0  0  0  0  0  0
  131.4120   73.2670  227.6040 C   0  0  0  0  0  0  0  0  0  0  0  0
  132.0390   74.4760  227.3930 C   0  0  0  0  0  0  0  0  0  0  0  0
  131.3930   75.6110  227.8330 C   0  0  0  0  0  0  0  0  0  0  0  0
  131.9830   76.8370  227.6430 C   0  0  0  0  0  0  0  0  0  0  0  0
  131.3140   77.9280  228.0900 F   0  0  0  0  0  0  0  0  0  0  0  0
  133.2000   76.8870  227.0170 C   0  0  0  0  0  0  0  0  0  0  0  0
  133.8480   75.7320  226.5740 C   0  0  0  0  0  0  0  0  0  0  0  0
  133.2610   74.4900  226.7620 C   0  0  0  0  0  0  0  0  0  0  0  0
  133.8850   73.3700  226.3330 N   0  0  0  0  0  0  0  0  0  0  0  0
  139.8364   67.4738  227.8866 H   0  0  0  0  0  0  0  0  0  0  0  0
  138.9453   67.6035  226.3323 H   0  0  0  0  0  0  0  0  0  0  0  0
  140.6994   67.2165  226.3323 H   0  0  0  0  0  0  0  0  0  0  0  0
  140.8353   69.1786  228.8408 H   0  0  0  0  0  0  0  0  0  0  0  0
  141.4308   71.5836  228.9515 H   0  0  0  0  0  0  0  0  0  0  0  0
  141.1386   72.9841  226.8940 H   0  0  0  0  0  0  0  0  0  0  0  0
  140.2791   71.9618  224.8433 H   0  0  0  0  0  0  0  0  0  0  0  0
  140.0821   68.4397  224.1658 H   0  0  0  0  0  0  0  0  0  0  0  0
  139.9125   71.3496  223.6706 H   0  0  0  0  0  0  0  0  0  0  0  0
  140.5804   70.0317  222.6489 H   0  0  0  0  0  0  0  0  0  0  0  0
  138.8145   70.3610  222.6489 H   0  0  0  0  0  0  0  0  0  0  0  0
  137.8030   68.0660  224.7830 H   0  0  0  0  0  0  0  0  0  0  0  0
  135.2305   69.3785  223.8540 H   0  0  0  0  0  0  0  0  0  0  0  0
  135.5653   68.9033  225.5308 H   0  0  0  0  0  0  0  0  0  0  0  0
  135.4260   71.8810  224.9630 H   0  0  0  0  0  0  0  0  0  0  0  0
  131.5691   71.1625  227.3258 H   0  0  0  0  0  0  0  0  0  0  0  0
  130.4341   73.2110  228.1047 H   0  0  0  0  0  0  0  0  0  0  0  0
  130.4151   75.5361  228.3311 H   0  0  0  0  0  0  0  0  0  0  0  0
  133.6803   77.8639  226.8588 H   0  0  0  0  0  0  0  0  0  0  0  0
  134.8255   75.8077  226.0752 H   0  0  0  0  0  0  0  0  0  0  0  0
  1  2  1  0
  2  3  2  0
  3  4  1  0
  4  5  2  0
  5  6  1  0
  6  7  2  0
  7  8  1  0
  8  9  1  0
  8 10  1  0
 10 11  1  0
 11 12  2  0
 11 13  1  0
 13 14  1  0
 14 15  1  0
 15 16  2  0
 15 17  1  0
 17 18  2  0
 18 19  1  0
 19 20  2  0
 20 21  1  0
 21 22  2  0
 22 23  1  0
 22 24  1  0
 24 25  2  0
 25 26  1  0
 26 27  2  0
  7  2  1  0
 27 17  1  0
 26 20  1  0
  1 28  1  0
  1 29  1  0
  1 30  1  0
  3 31  1  0
  4 32  1  0
  5 33  1  0
  6 34  1  0
  8 35  1  6
  9 36  1  0
  9 37  1  0
  9 38  1  0
 10 39  1  0
 13 40  1  0
 13 41  1  0
 14 42  1  0
 18 43  1  0
 19 44  1  0
 21 45  1  0
 24 46  1  0
 25 47  1  0
M  END
>  <smiles>  (16) 
Cc1ccccc1[C@H](C)NC(=O)CNC(=O)c1ccc2cc(F)ccc2n1

>  <score_type>  (16) 
oracle

>  <origin>  (16) 
autodockgpu

>  <m_score__min__energy>  (16) 
-8.6999999999999993

>  <m_primary>  (16) 
energy

>  <rmsd>  (16) 
10.582069838699955

>  <m_score__min__rmsd>  (16) 
10.582069838699955

>  <meeko>  (16) 
{"free_energy": -8.36, "intermolecular_energy": -9.85, "internal_energy": -1.68, "cluster_size": 13, "cluster_id": 2, "rank_in_cluster": 3}

>  <energy>  (16) 
-8.3

>  <cluster_rmsd>  (16) 
1.41

>  <cluster>  (16) 
1

$$$$

     RDKit          3D

 47 49  0  0  0  0  0  0  0  0999 V2000
  142.6840   79.4490  222.7060 C   0  0  0  0  0  0  0  0  0  0  0  0
  141.2100   79.3480  222.7190 C   0  0  0  0  0  0  0  0  0  0  0  0
  140.5520   80.0100  223.7580 C   0  0  0  0  0  0  0  0  0  0  0  0
  139.1790   79.9930  223.8820 C   0  0  0  0  0  0  0  0  0  0  0  0
  138.4530   79.2910  222.9360 C   0  0  0  0  0  0  0  0  0  0  0  0
  139.1150   78.6450  221.9210 C   0  0  0  0  0  0  0  0  0  0  0  0
  140.4800   78.6510  221.7800 C   0  0  0  0  0  0  0  0  0  0  0  0
  141.2010   77.9540  220.6830 C   0  0  2  0  0  0  0  0  0  0  0  0
  141.2650   78.8890  219.4980 C   0  0  0  0  0  0  0  0  0  0  0  0
  140.4830   76.7350  220.3630 N   0  0  0  0  0  0  0  0  0  0  0  0
  140.4230   75.6220  221.2720 C   0  0  0  0  0  0  0  0  0  0  0  0
  141.0350   75.7720  222.3690 O   0  0  0  0  0  0  0  0  0  0  0  0
  139.6900   74.3740  220.9490 C   0  0  0  0  0  0  0  0  0  0  0  0
  139.7010   73.5620  222.1590 N   0  0  0  0  0  0  0  0  0  0  0  0
  139.8470   72.1480  222.1150 C   0  0  0  0  0  0  0  0  0  0  0  0
  139.9760   71.5510  220.9910 O   0  0  0  0  0  0  0  0  0  0  0  0
  139.8510   71.3810  223.3630 C   0  0  0  0  0  0  0  0  0  0  0  0
  139.3170   70.1000  223.3610 C   0  0  0  0  0  0  0  0  0  0  0  0
  139.2780   69.3130  224.4800 C   0  0  0  0  0  0  0  0  0  0  0  0
  139.7990   69.8380  225.6450 C   0  0  0  0  0  0  0  0  0  0  0  0
  139.7590   69.0440  226.7710 C   0  0  0  0  0  0  0  0  0  0  0  0
  140.2660   69.5290  227.9520 C   0  0  0  0  0  0  0  0  0  0  0  0
  140.2080   68.7170  229.0360 F   0  0  0  0  0  0  0  0  0  0  0  0
  140.7960   70.7920  227.9670 C   0  0  0  0  0  0  0  0  0  0  0  0
  140.8320   71.5890  226.8220 C   0  0  0  0  0  0  0  0  0  0  0  0
  140.3220   71.1090  225.6240 C   0  0  0  0  0  0  0  0  0  0  0  0
  140.3550   71.8790  224.5140 N   0  0  0  0  0  0  0  0  0  0  0  0
  143.0589   79.4747  223.7398 H   0  0  0  0  0  0  0  0  0  0  0  0
  143.1066   78.5777  222.1842 H   0  0  0  0  0  0  0  0  0  0  0  0
  142.9839   80.3698  222.1842 H   0  0  0  0  0  0  0  0  0  0  0  0
  141.1475   80.5619  224.5001 H   0  0  0  0  0  0  0  0  0  0  0  0
  138.6768   80.5205  224.7064 H   0  0  0  0  0  0  0  0  0  0  0  0
  137.3554   79.2508  222.9965 H   0  0  0  0  0  0  0  0  0  0  0  0
  138.5184   78.0924  221.1803 H   0  0  0  0  0  0  0  0  0  0  0  0
  142.2265   77.6834  220.9748 H   0  0  0  0  0  0  0  0  0  0  0  0
  141.3361   79.9275  219.8537 H   0  0  0  0  0  0  0  0  0  0  0  0
  142.1488   78.6488  218.8887 H   0  0  0  0  0  0  0  0  0  0  0  0
  140.3567   78.7715  218.8887 H   0  0  0  0  0  0  0  0  0  0  0  0
  139.9700   76.5910  219.4600 H   0  0  0  0  0  0  0  0  0  0  0  0
  138.6553   74.6060  220.6566 H   0  0  0  0  0  0  0  0  0  0  0  0
  140.1611   73.8423  220.1092 H   0  0  0  0  0  0  0  0  0  0  0  0
  139.5960   74.0270  223.1060 H   0  0  0  0  0  0  0  0  0  0  0  0
  138.9082   69.7007  222.4211 H   0  0  0  0  0  0  0  0  0  0  0  0
  138.8479   68.3010  224.4518 H   0  0  0  0  0  0  0  0  0  0  0  0
  139.3262   68.0338  226.7244 H   0  0  0  0  0  0  0  0  0  0  0  0
  141.2047   71.1891  228.9079 H   0  0  0  0  0  0  0  0  0  0  0  0
  141.2652   72.5990  226.8692 H   0  0  0  0  0  0  0  0  0  0  0  0
  1  2  1  0
  2  3  2  0
  3  4  1  0
  4  5  2  0
  5  6  1  0
  6  7  2  0
  7  8  1  0
  8  9  1  0
  8 10  1  0
 10 11  1  0
 11 12  2  0
 11 13  1  0
 13 14  1  0
 14 15  1  0
 15 16  2  0
 15 17  1  0
 17 18  2  0
 18 19  1  0
 19 20  2  0
 20 21  1  0
 21 22  2  0
 22 23  1  0
 22 24  1  0
 24 25  2  0
 25 26  1  0
 26 27  2  0
  7  2  1  0
 27 17  1  0
 26 20  1  0
  1 28  1  0
  1 29  1  0
  1 30  1  0
  3 31  1  0
  4 32  1  0
  5 33  1  0
  6 34  1  0
  8 35  1  1
  9 36  1  0
  9 37  1  0
  9 38  1  0
 10 39  1  0
 13 40  1  0
 13 41  1  0
 14 42  1  0
 18 43  1  0
 19 44  1  0
 21 45  1  0
 24 46  1  0
 25 47  1  0
M  END
>  <smiles>  (17) 
Cc1ccccc1[C@H](C)NC(=O)CNC(=O)c1ccc2cc(F)ccc2n1

>  <score_type>  (17) 
oracle

>  <origin>  (17) 
autodockgpu

>  <m_score__min__energy>  (17) 
-8.6999999999999993

>  <m_primary>  (17) 
energy

>  <rmsd>  (17) 
4.049338286507394

>  <m_score__min__rmsd>  (17) 
4.049338286507394

>  <meeko>  (17) 
{"free_energy": -8.07, "intermolecular_energy": -9.56, "internal_energy": -1.6, "cluster_size": 30, "cluster_id": 1, "rank_in_cluster": 26}

>  <energy>  (17) 
-8.19

>  <cluster_rmsd>  (17) 
1.47

>  <cluster>  (17) 
1

$$$$

     RDKit          3D

 47 49  0  0  0  0  0  0  0  0999 V2000
  141.8100   78.8810  219.8610 C   0  0  0  0  0  0  0  0  0  0  0  0
  141.5180   79.0430  221.2990 C   0  0  0  0  0  0  0  0  0  0  0  0
  142.5630   79.5180  222.0950 C   0  0  0  0  0  0  0  0  0  0  0  0
  142.4170   79.7120  223.4530 C   0  0  0  0  0  0  0  0  0  0  0  0
  141.1890   79.4190  224.0200 C   0  0  0  0  0  0  0  0  0  0  0  0
  140.1730   78.9520  223.2240 C   0  0  0  0  0  0  0  0  0  0  0  0
  140.2980   78.7530  221.8720 C   0  0  0  0  0  0  0  0  0  0  0  0
  139.2000   78.2490  221.0060 C   0  0  2  0  0  0  0  0  0  0  0  0
  137.9200   78.2820  221.8070 C   0  0  0  0  0  0  0  0  0  0  0  0
  139.5300   76.9010  220.5830 N   0  0  0  0  0  0  0  0  0  0  0  0
  139.7330   75.8330  221.5250 C   0  0  0  0  0  0  0  0  0  0  0  0
  139.6060   76.1420  222.7450 O   0  0  0  0  0  0  0  0  0  0  0  0
  140.0700   74.4540  221.0980 C   0  0  0  0  0  0  0  0  0  0  0  0
  139.9640   73.6140  222.2850 N   0  0  0  0  0  0  0  0  0  0  0  0
  140.3700   72.2510  222.2800 C   0  0  0  0  0  0  0  0  0  0  0  0
  140.8450   71.7260  221.2150 O   0  0  0  0  0  0  0  0  0  0  0  0
  140.2400   71.4530  223.5020 C   0  0  0  0  0  0  0  0  0  0  0  0
  139.6280   70.2110  223.4260 C   0  0  0  0  0  0  0  0  0  0  0  0
  139.4640   69.4000  224.5170 C   0  0  0  0  0  0  0  0  0  0  0  0
  139.9370   69.8590  225.7280 C   0  0  0  0  0  0  0  0  0  0  0  0
  139.7720   69.0400  226.8250 C   0  0  0  0  0  0  0  0  0  0  0  0
  140.2280   69.4600  228.0510 C   0  0  0  0  0  0  0  0  0  0  0  0
  140.0460   68.6250  229.1040 F   0  0  0  0  0  0  0  0  0  0  0  0
  140.8350   70.6840  228.1380 C   0  0  0  0  0  0  0  0  0  0  0  0
  140.9990   71.5080  227.0220 C   0  0  0  0  0  0  0  0  0  0  0  0
  140.5410   71.0930  225.7800 C   0  0  0  0  0  0  0  0  0  0  0  0
  140.6970   71.8880  224.6980 N   0  0  0  0  0  0  0  0  0  0  0  0
  142.7659   78.3507  219.7384 H   0  0  0  0  0  0  0  0  0  0  0  0
  141.0051   78.3004  219.3865 H   0  0  0  0  0  0  0  0  0  0  0  0
  141.8766   79.8712  219.3865 H   0  0  0  0  0  0  0  0  0  0  0  0
  143.5314   79.7442  221.6249 H   0  0  0  0  0  0  0  0  0  0  0  0
  143.2499   80.0875  224.0655 H   0  0  0  0  0  0  0  0  0  0  0  0
  141.0286   79.5592  225.0992 H   0  0  0  0  0  0  0  0  0  0  0  0
  139.2056   78.7248  223.6957 H   0  0  0  0  0  0  0  0  0  0  0  0
  139.0703   78.8704  220.1077 H   0  0  0  0  0  0  0  0  0  0  0  0
  138.1591   78.2758  222.8807 H   0  0  0  0  0  0  0  0  0  0  0  0
  137.3575   79.1949  221.5619 H   0  0  0  0  0  0  0  0  0  0  0  0
  137.3112   77.3992  221.5619 H   0  0  0  0  0  0  0  0  0  0  0  0
  139.6400   76.6260  219.5790 H   0  0  0  0  0  0  0  0  0  0  0  0
  139.3643   74.1122  220.3266 H   0  0  0  0  0  0  0  0  0  0  0  0
  141.0812   74.4075  220.6675 H   0  0  0  0  0  0  0  0  0  0  0  0
  139.5740   74.0200  223.1830 H   0  0  0  0  0  0  0  0  0  0  0  0
  139.2594   69.8632  222.4497 H   0  0  0  0  0  0  0  0  0  0  0  0
  138.9734   68.4193  224.4305 H   0  0  0  0  0  0  0  0  0  0  0  0
  139.2808   68.0614  226.7197 H   0  0  0  0  0  0  0  0  0  0  0  0
  141.2044   71.0286  229.1151 H   0  0  0  0  0  0  0  0  0  0  0  0
  141.4913   72.4860  227.1280 H   0  0  0  0  0  0  0  0  0  0  0  0
  1  2  1  0
  2  3  2  0
  3  4  1  0
  4  5  2  0
  5  6  1  0
  6  7  2  0
  7  8  1  0
  8  9  1  0
  8 10  1  0
 10 11  1  0
 11 12  2  0
 11 13  1  0
 13 14  1  0
 14 15  1  0
 15 16  2  0
 15 17  1  0
 17 18  2  0
 18 19  1  0
 19 20  2  0
 20 21  1  0
 21 22  2  0
 22 23  1  0
 22 24  1  0
 24 25  2  0
 25 26  1  0
 26 27  2  0
  7  2  1  0
 27 17  1  0
 26 20  1  0
  1 28  1  0
  1 29  1  0
  1 30  1  0
  3 31  1  0
  4 32  1  0
  5 33  1  0
  6 34  1  0
  8 35  1  6
  9 36  1  0
  9 37  1  0
  9 38  1  0
 10 39  1  0
 13 40  1  0
 13 41  1  0
 14 42  1  0
 18 43  1  0
 19 44  1  0
 21 45  1  0
 24 46  1  0
 25 47  1  0
M  END
>  <smiles>  (18) 
Cc1ccccc1[C@H](C)NC(=O)CNC(=O)c1ccc2cc(F)ccc2n1

>  <score_type>  (18) 
oracle

>  <origin>  (18) 
autodockgpu

>  <m_score__min__energy>  (18) 
-8.6999999999999993

>  <m_primary>  (18) 
energy

>  <rmsd>  (18) 
4.374721519958671

>  <m_score__min__rmsd>  (18) 
4.374721519958671

>  <meeko>  (18) 
{"free_energy": -8.12, "intermolecular_energy": -9.61, "internal_energy": -1.66, "cluster_size": 30, "cluster_id": 1, "rank_in_cluster": 24}

>  <energy>  (18) 
-8.15

>  <cluster_rmsd>  (18) 
1.48

>  <cluster>  (18) 
1

$$$$

     RDKit          3D

 47 49  0  0  0  0  0  0  0  0999 V2000
  139.8760   67.7970  226.8310 C   0  0  0  0  0  0  0  0  0  0  0  0
  140.2200   69.2310  226.7580 C   0  0  0  0  0  0  0  0  0  0  0  0
  140.7120   69.8120  227.9290 C   0  0  0  0  0  0  0  0  0  0  0  0
  141.0690   71.1420  227.9900 C   0  0  0  0  0  0  0  0  0  0  0  0
  140.9260   71.9040  226.8440 C   0  0  0  0  0  0  0  0  0  0  0  0
  140.4410   71.3180  225.7010 C   0  0  0  0  0  0  0  0  0  0  0  0
  140.0800   69.9970  225.6200 C   0  0  0  0  0  0  0  0  0  0  0  0
  139.5550   69.3580  224.3850 C   0  0  2  0  0  0  0  0  0  0  0  0
  139.7450   70.3260  223.2410 C   0  0  0  0  0  0  0  0  0  0  0  0
  138.1540   69.0420  224.5900 N   0  0  0  0  0  0  0  0  0  0  0  0
  137.1330   70.0560  224.5830 C   0  0  0  0  0  0  0  0  0  0  0  0
  137.5330   71.2390  224.3850 O   0  0  0  0  0  0  0  0  0  0  0  0
  135.7000   69.7380  224.7920 C   0  0  0  0  0  0  0  0  0  0  0  0
  135.0650   70.9690  225.2450 N   0  0  0  0  0  0  0  0  0  0  0  0
  133.9190   70.9580  226.0880 C   0  0  0  0  0  0  0  0  0  0  0  0
  133.4160   69.8460  226.4730 O   0  0  0  0  0  0  0  0  0  0  0  0
  133.3200   72.2260  226.5130 C   0  0  0  0  0  0  0  0  0  0  0  0
  132.0900   72.2010  227.1540 C   0  0  0  0  0  0  0  0  0  0  0  0
  131.4580   73.3360  227.5850 C   0  0  0  0  0  0  0  0  0  0  0  0
  132.0910   74.5400  227.3610 C   0  0  0  0  0  0  0  0  0  0  0  0
  131.4530   75.6820  227.7950 C   0  0  0  0  0  0  0  0  0  0  0  0
  132.0490   76.9040  227.5910 C   0  0  0  0  0  0  0  0  0  0  0  0
  131.3880   78.0020  228.0330 F   0  0  0  0  0  0  0  0  0  0  0  0
  133.2630   76.9410  226.9600 C   0  0  0  0  0  0  0  0  0  0  0  0
  133.9030   75.7790  226.5230 C   0  0  0  0  0  0  0  0  0  0  0  0
  133.3090   74.5420  226.7240 C   0  0  0  0  0  0  0  0  0  0  0  0
  133.9260   73.4150  226.3010 N   0  0  0  0  0  0  0  0  0  0  0  0
  139.8025   67.4907  227.8849 H   0  0  0  0  0  0  0  0  0  0  0  0
  138.9112   67.6255  226.3312 H   0  0  0  0  0  0  0  0  0  0  0  0
  140.6580   67.2064  226.3312 H   0  0  0  0  0  0  0  0  0  0  0  0
  140.8178   69.1894  228.8297 H   0  0  0  0  0  0  0  0  0  0  0  0
  141.4554   71.5836  228.9204 H   0  0  0  0  0  0  0  0  0  0  0  0
  141.1984   72.9697  226.8486 H   0  0  0  0  0  0  0  0  0  0  0  0
  140.3362   71.9418  224.8011 H   0  0  0  0  0  0  0  0  0  0  0  0
  140.0876   68.4247  224.1498 H   0  0  0  0  0  0  0  0  0  0  0  0
  139.9424   71.3317  223.6406 H   0  0  0  0  0  0  0  0  0  0  0  0
  140.5968   70.0026  222.6247 H   0  0  0  0  0  0  0  0  0  0  0  0
  138.8341   70.3486  222.6247 H   0  0  0  0  0  0  0  0  0  0  0  0
  137.8030   68.0690  224.7550 H   0  0  0  0  0  0  0  0  0  0  0  0
  135.2444   69.3998  223.8496 H   0  0  0  0  0  0  0  0  0  0  0  0
  135.5749   68.9312  225.5292 H   0  0  0  0  0  0  0  0  0  0  0  0
  135.4570   71.9060  224.9440 H   0  0  0  0  0  0  0  0  0  0  0  0
  131.6027   71.2294  227.3228 H   0  0  0  0  0  0  0  0  0  0  0  0
  130.4823   73.2893  228.0908 H   0  0  0  0  0  0  0  0  0  0  0  0
  130.4775   75.6164  228.2991 H   0  0  0  0  0  0  0  0  0  0  0  0
  133.7485   77.9137  226.7923 H   0  0  0  0  0  0  0  0  0  0  0  0
  134.8786   75.8450  226.0192 H   0  0  0  0  0  0  0  0  0  0  0  0
  1  2  1  0
  2  3  2  0
  3  4  1  0
  4  5  2  0
  5  6  1  0
  6  7  2  0
  7  8  1  0
  8  9  1  0
  8 10  1  0
 10 11  1  0
 11 12  2  0
 11 13  1  0
 13 14  1  0
 14 15  1  0
 15 16  2  0
 15 17  1  0
 17 18  2  0
 18 19  1  0
 19 20  2  0
 20 21  1  0
 21 22  2  0
 22 23  1  0
 22 24  1  0
 24 25  2  0
 25 26  1  0
 26 27  2  0
  7  2  1  0
 27 17  1  0
 26 20  1  0
  1 28  1  0
  1 29  1  0
  1 30  1  0
  3 31  1  0
  4 32  1  0
  5 33  1  0
  6 34  1  0
  8 35  1  6
  9 36  1  0
  9 37  1  0
  9 38  1  0
 10 39  1  0
 13 40  1  0
 13 41  1  0
 14 42  1  0
 18 43  1  0
 19 44  1  0
 21 45  1  0
 24 46  1  0
 25 47  1  0
M  END
>  <smiles>  (19) 
Cc1ccccc1[C@H](C)NC(=O)CNC(=O)c1ccc2cc(F)ccc2n1

>  <score_type>  (19) 
oracle

>  <origin>  (19) 
autodockgpu

>  <m_score__min__energy>  (19) 
-8.6999999999999993

>  <m_primary>  (19) 
energy

>  <rmsd>  (19) 
10.567002440847984

>  <m_score__min__rmsd>  (19) 
10.567002440847984

>  <meeko>  (19) 
{"free_energy": -8.34, "intermolecular_energy": -9.83, "internal_energy": -1.69, "cluster_size": 13, "cluster_id": 2, "rank_in_cluster": 5}

>  <energy>  (19) 
-8.15

>  <cluster_rmsd>  (19) 
1.43

>  <cluster>  (19) 
1

$$$$

     RDKit          3D

 47 49  0  0  0  0  0  0  0  0999 V2000
  141.8180   78.8880  219.8340 C   0  0  0  0  0  0  0  0  0  0  0  0
  141.5200   79.0550  221.2700 C   0  0  0  0  0  0  0  0  0  0  0  0
  142.5600   79.5390  222.0680 C   0  0  0  0  0  0  0  0  0  0  0  0
  142.4090   79.7390  223.4230 C   0  0  0  0  0  0  0  0  0  0  0  0
  141.1810   79.4440  223.9880 C   0  0  0  0  0  0  0  0  0  0  0  0
  140.1700   78.9680  223.1910 C   0  0  0  0  0  0  0  0  0  0  0  0
  140.3000   78.7630  221.8410 C   0  0  0  0  0  0  0  0  0  0  0  0
  139.2070   78.2490  220.9740 C   0  0  2  0  0  0  0  0  0  0  0  0
  137.9240   78.2790  221.7710 C   0  0  0  0  0  0  0  0  0  0  0  0
  139.5460   76.9010  220.5580 N   0  0  0  0  0  0  0  0  0  0  0  0
  139.7490   75.8370  221.5050 C   0  0  0  0  0  0  0  0  0  0  0  0
  139.6140   76.1500  222.7230 O   0  0  0  0  0  0  0  0  0  0  0  0
  140.0950   74.4580  221.0840 C   0  0  0  0  0  0  0  0  0  0  0  0
  139.9720   73.6200  222.2710 N   0  0  0  0  0  0  0  0  0  0  0  0
  140.3830   72.2590  222.2750 C   0  0  0  0  0  0  0  0  0  0  0  0
  140.8780   71.7340  221.2190 O   0  0  0  0  0  0  0  0  0  0  0  0
  140.2350   71.4620  223.4960 C   0  0  0  0  0  0  0  0  0  0  0  0
  139.6090   70.2270  223.4160 C   0  0  0  0  0  0  0  0  0  0  0  0
  139.4280   69.4170  224.5050 C   0  0  0  0  0  0  0  0  0  0  0  0
  139.8980   69.8700  225.7190 C   0  0  0  0  0  0  0  0  0  0  0  0
  139.7150   69.0540  226.8150 C   0  0  0  0  0  0  0  0  0  0  0  0
  140.1680   69.4680  228.0440 C   0  0  0  0  0  0  0  0  0  0  0  0
  139.9680   68.6360  229.0960 F   0  0  0  0  0  0  0  0  0  0  0  0
  140.7880   70.6860  228.1370 C   0  0  0  0  0  0  0  0  0  0  0  0
  140.9690   71.5070  227.0220 C   0  0  0  0  0  0  0  0  0  0  0  0
  140.5150   71.0980  225.7760 C   0  0  0  0  0  0  0  0  0  0  0  0
  140.6890   71.8910  224.6950 N   0  0  0  0  0  0  0  0  0  0  0  0
  142.7722   78.3533  219.7173 H   0  0  0  0  0  0  0  0  0  0  0  0
  141.0129   78.3096  219.3573 H   0  0  0  0  0  0  0  0  0  0  0  0
  141.8910   79.8766  219.3573 H   0  0  0  0  0  0  0  0  0  0  0  0
  143.5290   79.7674  221.6001 H   0  0  0  0  0  0  0  0  0  0  0  0
  143.2385   80.1211  224.0361 H   0  0  0  0  0  0  0  0  0  0  0  0
  141.0165   79.5896  225.0658 H   0  0  0  0  0  0  0  0  0  0  0  0
  139.2022   78.7383  223.6607 H   0  0  0  0  0  0  0  0  0  0  0  0
  139.0762   78.8656  220.0725 H   0  0  0  0  0  0  0  0  0  0  0  0
  138.1596   78.2735  222.8455 H   0  0  0  0  0  0  0  0  0  0  0  0
  137.3601   79.1906  221.5239 H   0  0  0  0  0  0  0  0  0  0  0  0
  137.3181   77.3948  221.5239 H   0  0  0  0  0  0  0  0  0  0  0  0
  139.6620   76.6220  219.5550 H   0  0  0  0  0  0  0  0  0  0  0  0
  139.4017   74.1140  220.3024 H   0  0  0  0  0  0  0  0  0  0  0  0
  141.1124   74.4123  220.6683 H   0  0  0  0  0  0  0  0  0  0  0  0
  139.5650   74.0250  223.1620 H   0  0  0  0  0  0  0  0  0  0  0  0
  139.2427   69.8840  222.4371 H   0  0  0  0  0  0  0  0  0  0  0  0
  138.9267   68.4421  224.4145 H   0  0  0  0  0  0  0  0  0  0  0  0
  139.2117   68.0819  226.7066 H   0  0  0  0  0  0  0  0  0  0  0  0
  141.1534   71.0267  229.1170 H   0  0  0  0  0  0  0  0  0  0  0  0
  141.4720   72.4791  227.1315 H   0  0  0  0  0  0  0  0  0  0  0  0
  1  2  1  0
  2  3  2  0
  3  4  1  0
  4  5  2  0
  5  6  1  0
  6  7  2  0
  7  8  1  0
  8  9  1  0
  8 10  1  0
 10 11  1  0
 11 12  2  0
 11 13  1  0
 13 14  1  0
 14 15  1  0
 15 16  2  0
 15 17  1  0
 17 18  2  0
 18 19  1  0
 19 20  2  0
 20 21  1  0
 21 22  2  0
 22 23  1  0
 22 24  1  0
 24 25  2  0
 25 26  1  0
 26 27  2  0
  7  2  1  0
 27 17  1  0
 26 20  1  0
  1 28  1  0
  1 29  1  0
  1 30  1  0
  3 31  1  0
  4 32  1  0
  5 33  1  0
  6 34  1  0
  8 35  1  6
  9 36  1  0
  9 37  1  0
  9 38  1  0
 10 39  1  0
 13 40  1  0
 13 41  1  0
 14 42  1  0
 18 43  1  0
 19 44  1  0
 21 45  1  0
 24 46  1  0
 25 47  1  0
M  END
>  <smiles>  (20) 
Cc1ccccc1[C@H](C)NC(=O)CNC(=O)c1ccc2cc(F)ccc2n1

>  <score_type>  (20) 
oracle

>  <origin>  (20) 
autodockgpu

>  <m_score__min__energy>  (20) 
-8.6999999999999993

>  <m_primary>  (20) 
energy

>  <rmsd>  (20) 
4.367070731637788

>  <m_score__min__rmsd>  (20) 
4.367070731637788

>  <meeko>  (20) 
{"free_energy": -8.13, "intermolecular_energy": -9.62, "internal_energy": -1.66, "cluster_size": 30, "cluster_id": 1, "rank_in_cluster": 23}

>  <energy>  (20) 
-8.13

>  <cluster_rmsd>  (20) 
1.49

>  <cluster>  (20) 
1

$$$$

     RDKit          3D

 47 49  0  0  0  0  0  0  0  0999 V2000
  138.0870   77.9710  221.0710 C   0  0  0  0  0  0  0  0  0  0  0  0
  139.2190   78.2940  221.9630 C   0  0  0  0  0  0  0  0  0  0  0  0
  138.9500   79.1770  223.0120 C   0  0  0  0  0  0  0  0  0  0  0  0
  139.9210   79.5580  223.9130 C   0  0  0  0  0  0  0  0  0  0  0  0
  141.1930   79.0360  223.7540 C   0  0  0  0  0  0  0  0  0  0  0  0
  141.4410   78.1710  222.7180 C   0  0  0  0  0  0  0  0  0  0  0  0
  140.4890   77.7790  221.8110 C   0  0  0  0  0  0  0  0  0  0  0  0
  140.7520   76.8410  220.6880 C   0  0  2  0  0  0  0  0  0  0  0  0
  140.6750   77.6230  219.3980 C   0  0  0  0  0  0  0  0  0  0  0  0
  139.7620   75.7820  220.7310 N   0  0  0  0  0  0  0  0  0  0  0  0
  139.9370   74.6050  221.5390 C   0  0  0  0  0  0  0  0  0  0  0  0
  141.0070   74.5510  222.2100 O   0  0  0  0  0  0  0  0  0  0  0  0
  138.9270   73.5200  221.5860 C   0  0  0  0  0  0  0  0  0  0  0  0
  139.2720   72.6830  222.7290 N   0  0  0  0  0  0  0  0  0  0  0  0
  138.7720   71.3590  222.8690 C   0  0  0  0  0  0  0  0  0  0  0  0
  137.9970   70.8680  221.9770 O   0  0  0  0  0  0  0  0  0  0  0  0
  139.1500   70.5620  224.0390 C   0  0  0  0  0  0  0  0  0  0  0  0
  138.8510   69.2070  224.0480 C   0  0  0  0  0  0  0  0  0  0  0  0
  139.1670   68.3880  225.0980 C   0  0  0  0  0  0  0  0  0  0  0  0
  139.8090   68.9570  226.1780 C   0  0  0  0  0  0  0  0  0  0  0  0
  140.1260   68.1300  227.2350 C   0  0  0  0  0  0  0  0  0  0  0  0
  140.7650   68.6570  228.3310 C   0  0  0  0  0  0  0  0  0  0  0  0
  141.0590   67.8100  229.3480 F   0  0  0  0  0  0  0  0  0  0  0  0
  141.0650   69.9930  228.3340 C   0  0  0  0  0  0  0  0  0  0  0  0
  140.7400   70.8240  227.2590 C   0  0  0  0  0  0  0  0  0  0  0  0
  140.0950   70.3010  226.1480 C   0  0  0  0  0  0  0  0  0  0  0  0
  139.7780   71.1030  225.1060 N   0  0  0  0  0  0  0  0  0  0  0  0
  137.2037   77.7190  221.6761 H   0  0  0  0  0  0  0  0  0  0  0  0
  137.8607   78.8404  220.4363 H   0  0  0  0  0  0  0  0  0  0  0  0
  138.3536   77.1131  220.4363 H   0  0  0  0  0  0  0  0  0  0  0  0
  137.9325   79.5803  223.1221 H   0  0  0  0  0  0  0  0  0  0  0  0
  139.6922   80.2550  224.7327 H   0  0  0  0  0  0  0  0  0  0  0  0
  141.9975   79.3120  224.4515 H   0  0  0  0  0  0  0  0  0  0  0  0
  142.4593   77.7697  222.6086 H   0  0  0  0  0  0  0  0  0  0  0  0
  141.7491   76.3827  220.7636 H   0  0  0  0  0  0  0  0  0  0  0  0
  140.5695   78.6943  219.6244 H   0  0  0  0  0  0  0  0  0  0  0  0
  141.5935   77.4601  218.8151 H   0  0  0  0  0  0  0  0  0  0  0  0
  139.8059   77.2841  218.8151 H   0  0  0  0  0  0  0  0  0  0  0  0
  138.8700   75.8080  220.1830 H   0  0  0  0  0  0  0  0  0  0  0  0
  137.9200   73.9434  221.7152 H   0  0  0  0  0  0  0  0  0  0  0  0
  138.9247   72.9378  220.6527 H   0  0  0  0  0  0  0  0  0  0  0  0
  139.9110   73.0610  223.4850 H   0  0  0  0  0  0  0  0  0  0  0  0
  138.3393   68.7736  223.1760 H   0  0  0  0  0  0  0  0  0  0  0  0
  138.9184   67.3166  225.0812 H   0  0  0  0  0  0  0  0  0  0  0  0
  139.8702   67.0607  227.2010 H   0  0  0  0  0  0  0  0  0  0  0  0
  141.5763   70.4241  229.2074 H   0  0  0  0  0  0  0  0  0  0  0  0
  140.9957   71.8933  227.2937 H   0  0  0  0  0  0  0  0  0  0  0  0
  1  2  1  0
  2  3  2  0
  3  4  1  0
  4  5  2  0
  5  6  1  0
  6  7  2  0
  7  8  1  0
  8  9  1  0
  8 10  1  0
 10 11  1  0
 11 12  2  0
 11 13  1  0
 13 14  1  0
 14 15  1  0
 15 16  2  0
 15 17  1  0
 17 18  2  0
 18 19  1  0
 19 20  2  0
 20 21  1  0
 21 22  2  0
 22 23  1  0
 22 24  1  0
 24 25  2  0
 25 26  1  0
 26 27  2  0
  7  2  1  0
 27 17  1  0
 26 20  1  0
  1 28  1  0
  1 29  1  0
  1 30  1  0
  3 31  1  0
  4 32  1  0
  5 33  1  0
  6 34  1  0
  8 35  1  1
  9 36  1  0
  9 37  1  0
  9 38  1  0
 10 39  1  0
 13 40  1  0
 13 41  1  0
 14 42  1  0
 18 43  1  0
 19 44  1  0
 21 45  1  0
 24 46  1  0
 25 47  1  0
M  END
>  <smiles>  (21) 
Cc1ccccc1[C@H](C)NC(=O)CNC(=O)c1ccc2cc(F)ccc2n1

>  <score_type>  (21) 
oracle

>  <origin>  (21) 
autodockgpu

>  <m_score__min__energy>  (21) 
-8.6999999999999993

>  <m_primary>  (21) 
energy

>  <rmsd>  (21) 
4.4714292731072804

>  <m_score__min__rmsd>  (21) 
4.4714292731072804

>  <meeko>  (21) 
{"free_energy": -7.67, "intermolecular_energy": -9.16, "internal_energy": -1.58, "cluster_size": 30, "cluster_id": 1, "rank_in_cluster": 30}

>  <energy>  (21) 
-8.13

>  <cluster_rmsd>  (21) 
1.43

>  <cluster>  (21) 
1

$$$$

     RDKit          3D

 47 49  0  0  0  0  0  0  0  0999 V2000
  141.4580   79.9120  219.8560 C   0  0  0  0  0  0  0  0  0  0  0  0
  141.4930   79.5580  221.2900 C   0  0  0  0  0  0  0  0  0  0  0  0
  142.5720   80.0540  222.0250 C   0  0  0  0  0  0  0  0  0  0  0  0
  142.7190   79.7950  223.3710 C   0  0  0  0  0  0  0  0  0  0  0  0
  141.7550   79.0170  223.9900 C   0  0  0  0  0  0  0  0  0  0  0  0
  140.7010   78.5370  223.2530 C   0  0  0  0  0  0  0  0  0  0  0  0
  140.5370   78.7850  221.9130 C   0  0  0  0  0  0  0  0  0  0  0  0
  139.3970   78.2680  221.1110 C   0  0  2  0  0  0  0  0  0  0  0  0
  138.1630   78.2940  221.9820 C   0  0  0  0  0  0  0  0  0  0  0  0
  139.7140   76.9220  220.6740 N   0  0  0  0  0  0  0  0  0  0  0  0
  139.7330   75.8080  221.5850 C   0  0  0  0  0  0  0  0  0  0  0  0
  139.4550   76.0750  222.7890 O   0  0  0  0  0  0  0  0  0  0  0  0
  140.0570   74.4300  221.1430 C   0  0  0  0  0  0  0  0  0  0  0  0
  139.9350   73.5780  222.3200 N   0  0  0  0  0  0  0  0  0  0  0  0
  140.3520   72.2180  222.3100 C   0  0  0  0  0  0  0  0  0  0  0  0
  140.8520   71.7080  221.2490 O   0  0  0  0  0  0  0  0  0  0  0  0
  140.2060   71.4080  223.5220 C   0  0  0  0  0  0  0  0  0  0  0  0
  139.6070   70.1600  223.4220 C   0  0  0  0  0  0  0  0  0  0  0  0
  139.4300   69.3370  224.5010 C   0  0  0  0  0  0  0  0  0  0  0  0
  139.8740   69.7890  225.7260 C   0  0  0  0  0  0  0  0  0  0  0  0
  139.6950   68.9590  226.8120 C   0  0  0  0  0  0  0  0  0  0  0  0
  140.1220   69.3720  228.0510 C   0  0  0  0  0  0  0  0  0  0  0  0
  139.9270   68.5260  229.0920 F   0  0  0  0  0  0  0  0  0  0  0  0
  140.7140   70.6010  228.1620 C   0  0  0  0  0  0  0  0  0  0  0  0
  140.8920   71.4370  227.0570 C   0  0  0  0  0  0  0  0  0  0  0  0
  140.4640   71.0290  225.8020 C   0  0  0  0  0  0  0  0  0  0  0  0
  140.6340   71.8350  224.7310 N   0  0  0  0  0  0  0  0  0  0  0  0
  141.3503   81.0016  219.7498 H   0  0  0  0  0  0  0  0  0  0  0  0
  142.3926   79.5874  219.3753 H   0  0  0  0  0  0  0  0  0  0  0  0
  140.6050   79.4106  219.3753 H   0  0  0  0  0  0  0  0  0  0  0  0
  143.3272   80.6698  221.5146 H   0  0  0  0  0  0  0  0  0  0  0  0
  143.5748   80.1937  223.9354 H   0  0  0  0  0  0  0  0  0  0  0  0
  141.8332   78.7857  225.0626 H   0  0  0  0  0  0  0  0  0  0  0  0
  139.9470   77.9202  223.7640 H   0  0  0  0  0  0  0  0  0  0  0  0
  139.2125   78.8846  220.2189 H   0  0  0  0  0  0  0  0  0  0  0  0
  138.4613   78.2877  223.0408 H   0  0  0  0  0  0  0  0  0  0  0  0
  137.5835   79.2046  221.7697 H   0  0  0  0  0  0  0  0  0  0  0  0
  137.5456   77.4087  221.7697 H   0  0  0  0  0  0  0  0  0  0  0  0
  139.9470   76.6800  219.6820 H   0  0  0  0  0  0  0  0  0  0  0  0
  139.3516   74.1051  220.3640 H   0  0  0  0  0  0  0  0  0  0  0  0
  141.0697   74.3768  220.7168 H   0  0  0  0  0  0  0  0  0  0  0  0
  139.5240   73.9720  223.2140 H   0  0  0  0  0  0  0  0  0  0  0  0
  139.2605   69.8185  222.4354 H   0  0  0  0  0  0  0  0  0  0  0  0
  138.9516   68.3521  224.3952 H   0  0  0  0  0  0  0  0  0  0  0  0
  139.2156   67.9768  226.6880 H   0  0  0  0  0  0  0  0  0  0  0  0
  141.0596   70.9402  229.1497 H   0  0  0  0  0  0  0  0  0  0  0  0
  141.3716   72.4190  227.1820 H   0  0  0  0  0  0  0  0  0  0  0  0
  1  2  1  0
  2  3  2  0
  3  4  1  0
  4  5  2  0
  5  6  1  0
  6  7  2  0
  7  8  1  0
  8  9  1  0
  8 10  1  0
 10 11  1  0
 11 12  2  0
 11 13  1  0
 13 14  1  0
 14 15  1  0
 15 16  2  0
 15 17  1  0
 17 18  2  0
 18 19  1  0
 19 20  2  0
 20 21  1  0
 21 22  2  0
 22 23  1  0
 22 24  1  0
 24 25  2  0
 25 26  1  0
 26 27  2  0
  7  2  1  0
 27 17  1  0
 26 20  1  0
  1 28  1  0
  1 29  1  0
  1 30  1  0
  3 31  1  0
  4 32  1  0
  5 33  1  0
  6 34  1  0
  8 35  1  6
  9 36  1  0
  9 37  1  0
  9 38  1  0
 10 39  1  0
 13 40  1  0
 13 41  1  0
 14 42  1  0
 18 43  1  0
 19 44  1  0
 21 45  1  0
 24 46  1  0
 25 47  1  0
M  END
>  <smiles>  (22) 
Cc1ccccc1[C@H](C)NC(=O)CNC(=O)c1ccc2cc(F)ccc2n1

>  <score_type>  (22) 
oracle

>  <origin>  (22) 
autodockgpu

>  <m_score__min__energy>  (22) 
-8.6999999999999993

>  <m_primary>  (22) 
energy

>  <rmsd>  (22) 
4.252716660350984

>  <m_score__min__rmsd>  (22) 
4.252716660350984

>  <meeko>  (22) 
{"free_energy": -8.3, "intermolecular_energy": -9.79, "internal_energy": -1.51, "cluster_size": 30, "cluster_id": 1, "rank_in_cluster": 16}

>  <energy>  (22) 
-8.13

>  <cluster_rmsd>  (22) 
1.43

>  <cluster>  (22) 
1

$$$$

     RDKit          3D

 47 49  0  0  0  0  0  0  0  0999 V2000
  142.6630   79.5780  222.9750 C   0  0  0  0  0  0  0  0  0  0  0  0
  141.1940   79.4660  222.8720 C   0  0  0  0  0  0  0  0  0  0  0  0
  140.4510   80.1580  223.8310 C   0  0  0  0  0  0  0  0  0  0  0  0
  139.0720   80.1340  223.8440 C   0  0  0  0  0  0  0  0  0  0  0  0
  138.4290   79.3960  222.8660 C   0  0  0  0  0  0  0  0  0  0  0  0
  139.1740   78.7210  221.9310 C   0  0  0  0  0  0  0  0  0  0  0  0
  140.5460   78.7330  221.9010 C   0  0  0  0  0  0  0  0  0  0  0  0
  141.3570   78.0050  220.8900 C   0  0  2  0  0  0  0  0  0  0  0  0
  141.5350   78.9110  219.6940 C   0  0  0  0  0  0  0  0  0  0  0  0
  140.6610   76.7830  220.5350 N   0  0  0  0  0  0  0  0  0  0  0  0
  140.3580   75.7670  221.5070 C   0  0  0  0  0  0  0  0  0  0  0  0
  140.7340   76.0050  222.6900 O   0  0  0  0  0  0  0  0  0  0  0  0
  139.6470   74.5160  221.1490 C   0  0  0  0  0  0  0  0  0  0  0  0
  139.6780   73.6670  222.3340 N   0  0  0  0  0  0  0  0  0  0  0  0
  139.8420   72.2580  222.2450 C   0  0  0  0  0  0  0  0  0  0  0  0
  139.9690   71.6970  221.1020 O   0  0  0  0  0  0  0  0  0  0  0  0
  139.8660   71.4530  223.4690 C   0  0  0  0  0  0  0  0  0  0  0  0
  139.3040   70.1850  223.4450 C   0  0  0  0  0  0  0  0  0  0  0  0
  139.2820   69.3650  224.5410 C   0  0  0  0  0  0  0  0  0  0  0  0
  139.8490   69.8420  225.7030 C   0  0  0  0  0  0  0  0  0  0  0  0
  139.8260   69.0150  226.8060 C   0  0  0  0  0  0  0  0  0  0  0  0
  140.3800   69.4530  227.9850 C   0  0  0  0  0  0  0  0  0  0  0  0
  140.3360   68.6090  229.0460 F   0  0  0  0  0  0  0  0  0  0  0  0
  140.9380   70.7030  228.0210 C   0  0  0  0  0  0  0  0  0  0  0  0
  140.9570   71.5340  226.9000 C   0  0  0  0  0  0  0  0  0  0  0  0
  140.4000   71.1020  225.7050 C   0  0  0  0  0  0  0  0  0  0  0  0
  140.4170   71.9050  224.6170 N   0  0  0  0  0  0  0  0  0  0  0  0
  142.9556   79.6003  224.0351 H   0  0  0  0  0  0  0  0  0  0  0  0
  143.1321   78.7130  222.4833 H   0  0  0  0  0  0  0  0  0  0  0  0
  142.9955   80.5041  222.4833 H   0  0  0  0  0  0  0  0  0  0  0  0
  140.9816   80.7397  224.5991 H   0  0  0  0  0  0  0  0  0  0  0  0
  138.5018   80.6838  224.6072 H   0  0  0  0  0  0  0  0  0  0  0  0
  137.3303   79.3505  222.8379 H   0  0  0  0  0  0  0  0  0  0  0  0
  138.6422   78.1388  221.1641 H   0  0  0  0  0  0  0  0  0  0  0  0
  142.3496   77.7350  221.2796 H   0  0  0  0  0  0  0  0  0  0  0  0
  141.7365   79.9364  220.0375 H   0  0  0  0  0  0  0  0  0  0  0  0
  142.3804   78.5550  219.0869 H   0  0  0  0  0  0  0  0  0  0  0  0
  140.6178   78.9013  219.0869 H   0  0  0  0  0  0  0  0  0  0  0  0
  140.3410   76.5670  219.5610 H   0  0  0  0  0  0  0  0  0  0  0  0
  138.6069   74.7375  220.8676 H   0  0  0  0  0  0  0  0  0  0  0  0
  140.1246   74.0191  220.2917 H   0  0  0  0  0  0  0  0  0  0  0  0
  139.5760   74.1020  223.2950 H   0  0  0  0  0  0  0  0  0  0  0  0
  138.8577   69.8236  222.5068 H   0  0  0  0  0  0  0  0  0  0  0  0
  138.8290   68.3636  224.4959 H   0  0  0  0  0  0  0  0  0  0  0  0
  139.3695   68.0162  226.7430 H   0  0  0  0  0  0  0  0  0  0  0  0
  141.3839   71.0623  228.9602 H   0  0  0  0  0  0  0  0  0  0  0  0
  141.4141   72.5325  226.9639 H   0  0  0  0  0  0  0  0  0  0  0  0
  1  2  1  0
  2  3  2  0
  3  4  1  0
  4  5  2  0
  5  6  1  0
  6  7  2  0
  7  8  1  0
  8  9  1  0
  8 10  1  0
 10 11  1  0
 11 12  2  0
 11 13  1  0
 13 14  1  0
 14 15  1  0
 15 16  2  0
 15 17  1  0
 17 18  2  0
 18 19  1  0
 19 20  2  0
 20 21  1  0
 21 22  2  0
 22 23  1  0
 22 24  1  0
 24 25  2  0
 25 26  1  0
 26 27  2  0
  7  2  1  0
 27 17  1  0
 26 20  1  0
  1 28  1  0
  1 29  1  0
  1 30  1  0
  3 31  1  0
  4 32  1  0
  5 33  1  0
  6 34  1  0
  8 35  1  1
  9 36  1  0
  9 37  1  0
  9 38  1  0
 10 39  1  0
 13 40  1  0
 13 41  1  0
 14 42  1  0
 18 43  1  0
 19 44  1  0
 21 45  1  0
 24 46  1  0
 25 47  1  0
M  END
>  <smiles>  (23) 
Cc1ccccc1[C@H](C)NC(=O)CNC(=O)c1ccc2cc(F)ccc2n1

>  <score_type>  (23) 
oracle

>  <origin>  (23) 
autodockgpu

>  <m_score__min__energy>  (23) 
-8.6999999999999993

>  <m_primary>  (23) 
energy

>  <rmsd>  (23) 
3.9808506657625786

>  <m_score__min__rmsd>  (23) 
3.9808506657625786

>  <meeko>  (23) 
{"free_energy": -8.13, "intermolecular_energy": -9.62, "internal_energy": -1.62, "cluster_size": 30, "cluster_id": 1, "rank_in_cluster": 20}

>  <energy>  (23) 
-8.13

>  <cluster_rmsd>  (23) 
1.43

>  <cluster>  (23) 
1

$$$$

     RDKit          3D

 47 49  0  0  0  0  0  0  0  0999 V2000
  141.2480   79.7030  220.0900 C   0  0  0  0  0  0  0  0  0  0  0  0
  141.5250   79.6730  221.5400 C   0  0  0  0  0  0  0  0  0  0  0  0
  142.5630   80.4920  221.9910 C   0  0  0  0  0  0  0  0  0  0  0  0
  142.9200   80.5540  223.3210 C   0  0  0  0  0  0  0  0  0  0  0  0
  142.2130   79.7720  224.2180 C   0  0  0  0  0  0  0  0  0  0  0  0
  141.1960   78.9730  223.7590 C   0  0  0  0  0  0  0  0  0  0  0  0
  140.8250   78.8980  222.4400 C   0  0  0  0  0  0  0  0  0  0  0  0
  139.7240   78.0350  221.9390 C   0  0  2  0  0  0  0  0  0  0  0  0
  138.6710   77.9460  223.0190 C   0  0  0  0  0  0  0  0  0  0  0  0
  140.2710   76.7300  221.6190 N   0  0  0  0  0  0  0  0  0  0  0  0
  139.4350   75.5710  221.4520 C   0  0  0  0  0  0  0  0  0  0  0  0
  138.1930   75.7600  221.6020 O   0  0  0  0  0  0  0  0  0  0  0  0
  139.9890   74.2360  221.1240 C   0  0  0  0  0  0  0  0  0  0  0  0
  139.8390   73.4190  222.3220 N   0  0  0  0  0  0  0  0  0  0  0  0
  140.4800   72.1560  222.4570 C   0  0  0  0  0  0  0  0  0  0  0  0
  141.2160   71.7060  221.5120 O   0  0  0  0  0  0  0  0  0  0  0  0
  140.2940   71.3770  223.6830 C   0  0  0  0  0  0  0  0  0  0  0  0
  139.6310   70.1610  223.6070 C   0  0  0  0  0  0  0  0  0  0  0  0
  139.4120   69.3680  224.7010 C   0  0  0  0  0  0  0  0  0  0  0  0
  139.8820   69.8180  225.9170 C   0  0  0  0  0  0  0  0  0  0  0  0
  139.6610   69.0190  227.0180 C   0  0  0  0  0  0  0  0  0  0  0  0
  140.1120   69.4310  228.2480 C   0  0  0  0  0  0  0  0  0  0  0  0
  139.8740   68.6150  229.3050 F   0  0  0  0  0  0  0  0  0  0  0  0
  140.7680   70.6290  228.3370 C   0  0  0  0  0  0  0  0  0  0  0  0
  140.9880   71.4340  227.2160 C   0  0  0  0  0  0  0  0  0  0  0  0
  140.5360   71.0270  225.9690 C   0  0  0  0  0  0  0  0  0  0  0  0
  140.7470   71.8030  224.8830 N   0  0  0  0  0  0  0  0  0  0  0  0
  140.1667   79.8201  219.9256 H   0  0  0  0  0  0  0  0  0  0  0  0
  141.7822   80.5485  219.6321 H   0  0  0  0  0  0  0  0  0  0  0  0
  141.5888   78.7627  219.6321 H   0  0  0  0  0  0  0  0  0  0  0  0
  143.1123   81.1063  221.2624 H   0  0  0  0  0  0  0  0  0  0  0  0
  143.7405   81.2042  223.6587 H   0  0  0  0  0  0  0  0  0  0  0  0
  142.4640   79.7908  225.2888 H   0  0  0  0  0  0  0  0  0  0  0  0
  140.6480   78.3588  224.4887 H   0  0  0  0  0  0  0  0  0  0  0  0
  139.2633   78.4481  221.0295 H   0  0  0  0  0  0  0  0  0  0  0  0
  139.1541   77.9868  224.0064 H   0  0  0  0  0  0  0  0  0  0  0  0
  137.9705   78.7881  222.9184 H   0  0  0  0  0  0  0  0  0  0  0  0
  138.1218   76.9982  222.9184 H   0  0  0  0  0  0  0  0  0  0  0  0
  141.2950   76.5530  221.4900 H   0  0  0  0  0  0  0  0  0  0  0  0
  139.4324   73.7889  220.2872 H   0  0  0  0  0  0  0  0  0  0  0  0
  141.0440   74.3070  220.8209 H   0  0  0  0  0  0  0  0  0  0  0  0
  139.2360   73.7640  223.1230 H   0  0  0  0  0  0  0  0  0  0  0  0
  139.2661   69.8198  222.6270 H   0  0  0  0  0  0  0  0  0  0  0  0
  138.8814   68.4084  224.6136 H   0  0  0  0  0  0  0  0  0  0  0  0
  139.1292   68.0618  226.9127 H   0  0  0  0  0  0  0  0  0  0  0  0
  141.1322   70.9676  229.3182 H   0  0  0  0  0  0  0  0  0  0  0  0
  141.5199   72.3910  227.3224 H   0  0  0  0  0  0  0  0  0  0  0  0
  1  2  1  0
  2  3  2  0
  3  4  1  0
  4  5  2  0
  5  6  1  0
  6  7  2  0
  7  8  1  0
  8  9  1  0
  8 10  1  0
 10 11  1  0
 11 12  2  0
 11 13  1  0
 13 14  1  0
 14 15  1  0
 15 16  2  0
 15 17  1  0
 17 18  2  0
 18 19  1  0
 19 20  2  0
 20 21  1  0
 21 22  2  0
 22 23  1  0
 22 24  1  0
 24 25  2  0
 25 26  1  0
 26 27  2  0
  7  2  1  0
 27 17  1  0
 26 20  1  0
  1 28  1  0
  1 29  1  0
  1 30  1  0
  3 31  1  0
  4 32  1  0
  5 33  1  0
  6 34  1  0
  8 35  1  6
  9 36  1  0
  9 37  1  0
  9 38  1  0
 10 39  1  0
 13 40  1  0
 13 41  1  0
 14 42  1  0
 18 43  1  0
 19 44  1  0
 21 45  1  0
 24 46  1  0
 25 47  1  0
M  END
>  <smiles>  (24) 
Cc1ccccc1[C@H](C)NC(=O)CNC(=O)c1ccc2cc(F)ccc2n1

>  <score_type>  (24) 
oracle

>  <origin>  (24) 
autodockgpu

>  <m_score__min__energy>  (24) 
-8.6999999999999993

>  <m_primary>  (24) 
energy

>  <rmsd>  (24) 
4.166634573168258

>  <m_score__min__rmsd>  (24) 
4.166634573168258

>  <meeko>  (24) 
{"free_energy": -8.61, "intermolecular_energy": -10.1, "internal_energy": -0.91, "cluster_size": 30, "cluster_id": 1, "rank_in_cluster": 7}

>  <energy>  (24) 
-8.12

>  <cluster_rmsd>  (24) 
1.43

>  <cluster>  (24) 
1

$$$$

     RDKit          3D

 47 49  0  0  0  0  0  0  0  0999 V2000
  141.2450   79.7360  220.0700 C   0  0  0  0  0  0  0  0  0  0  0  0
  141.5340   79.7190  221.5180 C   0  0  0  0  0  0  0  0  0  0  0  0
  142.5690   80.5480  221.9540 C   0  0  0  0  0  0  0  0  0  0  0  0
  142.9370   80.6230  223.2810 C   0  0  0  0  0  0  0  0  0  0  0  0
  142.2430   79.8420  224.1890 C   0  0  0  0  0  0  0  0  0  0  0  0
  141.2280   79.0320  223.7440 C   0  0  0  0  0  0  0  0  0  0  0  0
  140.8470   78.9440  222.4290 C   0  0  0  0  0  0  0  0  0  0  0  0
  139.7490   78.0690  221.9430 C   0  0  2  0  0  0  0  0  0  0  0  0
  138.7090   77.9740  223.0340 C   0  0  0  0  0  0  0  0  0  0  0  0
  140.3050   76.7680  221.6210 N   0  0  0  0  0  0  0  0  0  0  0  0
  139.4760   75.6050  221.4460 C   0  0  0  0  0  0  0  0  0  0  0  0
  138.2330   75.7880  221.5880 O   0  0  0  0  0  0  0  0  0  0  0  0
  140.0390   74.2740  221.1170 C   0  0  0  0  0  0  0  0  0  0  0  0
  139.8990   73.4570  222.3160 N   0  0  0  0  0  0  0  0  0  0  0  0
  140.4830   72.1640  222.4170 C   0  0  0  0  0  0  0  0  0  0  0  0
  141.1560   71.6850  221.4400 O   0  0  0  0  0  0  0  0  0  0  0  0
  140.3090   71.3850  223.6460 C   0  0  0  0  0  0  0  0  0  0  0  0
  139.6870   70.1480  223.5700 C   0  0  0  0  0  0  0  0  0  0  0  0
  139.4830   69.3540  224.6670 C   0  0  0  0  0  0  0  0  0  0  0  0
  139.9250   69.8270  225.8850 C   0  0  0  0  0  0  0  0  0  0  0  0
  139.7190   69.0270  226.9880 C   0  0  0  0  0  0  0  0  0  0  0  0
  140.1430   69.4600  228.2210 C   0  0  0  0  0  0  0  0  0  0  0  0
  139.9210   68.6430  229.2800 F   0  0  0  0  0  0  0  0  0  0  0  0
  140.7580   70.6800  228.3090 C   0  0  0  0  0  0  0  0  0  0  0  0
  140.9630   71.4850  227.1860 C   0  0  0  0  0  0  0  0  0  0  0  0
  140.5380   71.0560  225.9370 C   0  0  0  0  0  0  0  0  0  0  0  0
  140.7350   71.8330  224.8480 N   0  0  0  0  0  0  0  0  0  0  0  0
  140.1580   79.7999  219.9138 H   0  0  0  0  0  0  0  0  0  0  0  0
  141.7336   80.6070  219.6088 H   0  0  0  0  0  0  0  0  0  0  0  0
  141.6281   78.8138  219.6088 H   0  0  0  0  0  0  0  0  0  0  0  0
  143.1079   81.1605  221.2161 H   0  0  0  0  0  0  0  0  0  0  0  0
  143.7552   81.2819  223.6072 H   0  0  0  0  0  0  0  0  0  0  0  0
  142.5025   79.8702  225.2576 H   0  0  0  0  0  0  0  0  0  0  0  0
  140.6903   78.4195  224.4828 H   0  0  0  0  0  0  0  0  0  0  0  0
  139.2745   78.4746  221.0373 H   0  0  0  0  0  0  0  0  0  0  0  0
  139.2026   78.0191  224.0160 H   0  0  0  0  0  0  0  0  0  0  0  0
  138.0018   78.8113  222.9403 H   0  0  0  0  0  0  0  0  0  0  0  0
  138.1652   77.0224  222.9403 H   0  0  0  0  0  0  0  0  0  0  0  0
  141.3310   76.5970  221.4990 H   0  0  0  0  0  0  0  0  0  0  0  0
  139.4831   73.8221  220.2823 H   0  0  0  0  0  0  0  0  0  0  0  0
  141.0924   74.3527  220.8103 H   0  0  0  0  0  0  0  0  0  0  0  0
  139.3470   73.8250  223.1420 H   0  0  0  0  0  0  0  0  0  0  0  0
  139.3433   69.7898  222.5884 H   0  0  0  0  0  0  0  0  0  0  0  0
  138.9858   68.3766  224.5802 H   0  0  0  0  0  0  0  0  0  0  0  0
  139.2204   68.0522  226.8824 H   0  0  0  0  0  0  0  0  0  0  0  0
  141.1003   71.0363  229.2918 H   0  0  0  0  0  0  0  0  0  0  0  0
  141.4617   72.4597  227.2920 H   0  0  0  0  0  0  0  0  0  0  0  0
  1  2  1  0
  2  3  2  0
  3  4  1  0
  4  5  2  0
  5  6  1  0
  6  7  2  0
  7  8  1  0
  8  9  1  0
  8 10  1  0
 10 11  1  0
 11 12  2  0
 11 13  1  0
 13 14  1  0
 14 15  1  0
 15 16  2  0
 15 17  1  0
 17 18  2  0
 18 19  1  0
 19 20  2  0
 20 21  1  0
 21 22  2  0
 22 23  1  0
 22 24  1  0
 24 25  2  0
 25 26  1  0
 26 27  2  0
  7  2  1  0
 27 17  1  0
 26 20  1  0
  1 28  1  0
  1 29  1  0
  1 30  1  0
  3 31  1  0
  4 32  1  0
  5 33  1  0
  6 34  1  0
  8 35  1  6
  9 36  1  0
  9 37  1  0
  9 38  1  0
 10 39  1  0
 13 40  1  0
 13 41  1  0
 14 42  1  0
 18 43  1  0
 19 44  1  0
 21 45  1  0
 24 46  1  0
 25 47  1  0
M  END
>  <smiles>  (25) 
Cc1ccccc1[C@H](C)NC(=O)CNC(=O)c1ccc2cc(F)ccc2n1

>  <score_type>  (25) 
oracle

>  <origin>  (25) 
autodockgpu

>  <m_score__min__energy>  (25) 
-8.6999999999999993

>  <m_primary>  (25) 
energy

>  <rmsd>  (25) 
4.141968753185027

>  <m_score__min__rmsd>  (25) 
4.141968753185027

>  <meeko>  (25) 
{"free_energy": -8.59, "intermolecular_energy": -10.08, "internal_energy": -0.92, "cluster_size": 30, "cluster_id": 1, "rank_in_cluster": 8}

>  <energy>  (25) 
-8.12

>  <cluster_rmsd>  (25) 
1.49

>  <cluster>  (25) 
1

$$$$

     RDKit          3D

 47 49  0  0  0  0  0  0  0  0999 V2000
  140.5040   80.9530  223.2630 C   0  0  0  0  0  0  0  0  0  0  0  0
  140.9900   80.4430  221.9660 C   0  0  0  0  0  0  0  0  0  0  0  0
  141.2820   81.4000  220.9920 C   0  0  0  0  0  0  0  0  0  0  0  0
  141.7440   81.0530  219.7400 C   0  0  0  0  0  0  0  0  0  0  0  0
  141.9140   79.7070  219.4640 C   0  0  0  0  0  0  0  0  0  0  0  0
  141.6220   78.7780  220.4320 C   0  0  0  0  0  0  0  0  0  0  0  0
  141.1620   79.1040  221.6830 C   0  0  0  0  0  0  0  0  0  0  0  0
  140.8450   78.1020  222.7340 C   0  0  2  0  0  0  0  0  0  0  0  0
  141.8490   78.2630  223.8520 C   0  0  0  0  0  0  0  0  0  0  0  0
  140.9120   76.7790  222.1440 N   0  0  0  0  0  0  0  0  0  0  0  0
  139.7290   76.0160  221.8450 C   0  0  0  0  0  0  0  0  0  0  0  0
  138.6290   76.5700  222.1290 O   0  0  0  0  0  0  0  0  0  0  0  0
  139.7920   74.6630  221.2420 C   0  0  0  0  0  0  0  0  0  0  0  0
  139.6570   73.7130  222.3390 N   0  0  0  0  0  0  0  0  0  0  0  0
  140.4920   72.5670  222.4480 C   0  0  0  0  0  0  0  0  0  0  0  0
  141.3950   72.3440  221.5700 O   0  0  0  0  0  0  0  0  0  0  0  0
  140.3120   71.6440  223.5720 C   0  0  0  0  0  0  0  0  0  0  0  0
  139.6340   70.4530  223.3550 C   0  0  0  0  0  0  0  0  0  0  0  0
  139.4200   69.5340  224.3470 C   0  0  0  0  0  0  0  0  0  0  0  0
  139.9090   69.8270  225.6020 C   0  0  0  0  0  0  0  0  0  0  0  0
  139.6920   68.9000  226.6000 C   0  0  0  0  0  0  0  0  0  0  0  0
  140.1620   69.1540  227.8660 C   0  0  0  0  0  0  0  0  0  0  0  0
  139.9280   68.2170  228.8170 F   0  0  0  0  0  0  0  0  0  0  0  0
  140.8320   70.3260  228.0920 C   0  0  0  0  0  0  0  0  0  0  0  0
  141.0480   71.2600  227.0760 C   0  0  0  0  0  0  0  0  0  0  0  0
  140.5770   71.0130  225.7950 C   0  0  0  0  0  0  0  0  0  0  0  0
  140.7830   71.9150  224.8090 N   0  0  0  0  0  0  0  0  0  0  0  0
  141.0120   80.4200  224.0802 H   0  0  0  0  0  0  0  0  0  0  0  0
  140.7191   82.0292  223.3377 H   0  0  0  0  0  0  0  0  0  0  0  0
  139.4187   80.7900  223.3377 H   0  0  0  0  0  0  0  0  0  0  0  0
  141.1390   82.4642  221.2310 H   0  0  0  0  0  0  0  0  0  0  0  0
  141.9701   81.8205  218.9852 H   0  0  0  0  0  0  0  0  0  0  0  0
  142.2798   79.3847  218.4779 H   0  0  0  0  0  0  0  0  0  0  0  0
  141.7646   77.7141  220.1915 H   0  0  0  0  0  0  0  0  0  0  0  0
  139.8342   78.2460  223.1434 H   0  0  0  0  0  0  0  0  0  0  0  0
  141.3350   78.1806  224.8211 H   0  0  0  0  0  0  0  0  0  0  0  0
  142.6136   77.4760  223.7744 H   0  0  0  0  0  0  0  0  0  0  0  0
  142.3292   79.2496  223.7744 H   0  0  0  0  0  0  0  0  0  0  0  0
  141.8130   76.3030  221.9010 H   0  0  0  0  0  0  0  0  0  0  0  0
  138.9718   74.5299  220.5212 H   0  0  0  0  0  0  0  0  0  0  0  0
  140.7378   74.5130  220.7007 H   0  0  0  0  0  0  0  0  0  0  0  0
  138.9180   73.8690  223.0820 H   0  0  0  0  0  0  0  0  0  0  0  0
  139.2532   70.2386  222.3455 H   0  0  0  0  0  0  0  0  0  0  0  0
  138.8783   68.5971  224.1499 H   0  0  0  0  0  0  0  0  0  0  0  0
  139.1489   67.9679  226.3849 H   0  0  0  0  0  0  0  0  0  0  0  0
  141.2112   70.5384  229.1025 H   0  0  0  0  0  0  0  0  0  0  0  0
  141.5917   72.1915  227.2919 H   0  0  0  0  0  0  0  0  0  0  0  0
  1  2  1  0
  2  3  2  0
  3  4  1  0
  4  5  2  0
  5  6  1  0
  6  7  2  0
  7  8  1  0
  8  9  1  0
  8 10  1  0
 10 11  1  0
 11 12  2  0
 11 13  1  0
 13 14  1  0
 14 15  1  0
 15 16  2  0
 15 17  1  0
 17 18  2  0
 18 19  1  0
 19 20  2  0
 20 21  1  0
 21 22  2  0
 22 23  1  0
 22 24  1  0
 24 25  2  0
 25 26  1  0
 26 27  2  0
  7  2  1  0
 27 17  1  0
 26 20  1  0
  1 28  1  0
  1 29  1  0
  1 30  1  0
  3 31  1  0
  4 32  1  0
  5 33  1  0
  6 34  1  0
  8 35  1  1
  9 36  1  0
  9 37  1  0
  9 38  1  0
 10 39  1  0
 13 40  1  0
 13 41  1  0
 14 42  1  0
 18 43  1  0
 19 44  1  0
 21 45  1  0
 24 46  1  0
 25 47  1  0
M  END
>  <smiles>  (26) 
Cc1ccccc1[C@H](C)NC(=O)CNC(=O)c1ccc2cc(F)ccc2n1

>  <score_type>  (26) 
oracle

>  <origin>  (26) 
autodockgpu

>  <m_score__min__energy>  (26) 
-8.6999999999999993

>  <m_primary>  (26) 
energy

>  <rmsd>  (26) 
3.3853604672968785

>  <m_score__min__rmsd>  (26) 
3.3853604672968785

>  <meeko>  (26) 
{"free_energy": -8.7, "intermolecular_energy": -10.19, "internal_energy": -0.98, "cluster_size": 30, "cluster_id": 1, "rank_in_cluster": 1}

>  <energy>  (26) 
-8.07

>  <cluster_rmsd>  (26) 
1.57

>  <cluster>  (26) 
1

$$$$

     RDKit          3D

 47 49  0  0  0  0  0  0  0  0999 V2000
  139.2080   69.5180  228.8010 C   0  0  0  0  0  0  0  0  0  0  0  0
  139.9750   70.2920  227.8040 C   0  0  0  0  0  0  0  0  0  0  0  0
  140.7100   71.3750  228.2910 C   0  0  0  0  0  0  0  0  0  0  0  0
  141.4680   72.1760  227.4630 C   0  0  0  0  0  0  0  0  0  0  0  0
  141.4840   71.8770  226.1120 C   0  0  0  0  0  0  0  0  0  0  0  0
  140.7560   70.8090  225.6490 C   0  0  0  0  0  0  0  0  0  0  0  0
  139.9970   70.0010  226.4570 C   0  0  0  0  0  0  0  0  0  0  0  0
  139.2070   68.8430  225.9600 C   0  0  2  0  0  0  0  0  0  0  0  0
  140.0120   67.5890  226.2070 C   0  0  0  0  0  0  0  0  0  0  0  0
  138.9430   69.0390  224.5470 N   0  0  0  0  0  0  0  0  0  0  0  0
  137.7560   69.7020  224.0770 C   0  0  0  0  0  0  0  0  0  0  0  0
  136.9570   70.1040  224.9720 O   0  0  0  0  0  0  0  0  0  0  0  0
  137.4810   69.9040  222.6340 C   0  0  0  0  0  0  0  0  0  0  0  0
  138.0970   71.1740  222.2690 N   0  0  0  0  0  0  0  0  0  0  0  0
  139.5070   71.3570  222.2790 C   0  0  0  0  0  0  0  0  0  0  0  0
  140.2770   70.3910  222.6140 O   0  0  0  0  0  0  0  0  0  0  0  0
  140.0720   72.6550  221.9030 C   0  0  0  0  0  0  0  0  0  0  0  0
  141.1740   72.6850  221.0610 C   0  0  0  0  0  0  0  0  0  0  0  0
  141.7660   73.8520  220.6600 C   0  0  0  0  0  0  0  0  0  0  0  0
  141.2250   75.0320  221.1240 C   0  0  0  0  0  0  0  0  0  0  0  0
  141.8220   76.2070  220.7190 C   0  0  0  0  0  0  0  0  0  0  0  0
  141.3150   77.4050  221.1600 C   0  0  0  0  0  0  0  0  0  0  0  0
  141.9320   78.5370  220.7380 F   0  0  0  0  0  0  0  0  0  0  0  0
  140.2280   77.3890  221.9920 C   0  0  0  0  0  0  0  0  0  0  0  0
  139.6290   76.1950  222.3980 C   0  0  0  0  0  0  0  0  0  0  0  0
  140.1330   74.9790  221.9580 C   0  0  0  0  0  0  0  0  0  0  0  0
  139.5560   73.8220  222.3500 N   0  0  0  0  0  0  0  0  0  0  0  0
  139.5104   69.8231  229.8137 H   0  0  0  0  0  0  0  0  0  0  0  0
  138.1332   69.7094  228.6659 H   0  0  0  0  0  0  0  0  0  0  0  0
  139.4091   68.4450  228.6659 H   0  0  0  0  0  0  0  0  0  0  0  0
  140.6835   71.5959  229.3683 H   0  0  0  0  0  0  0  0  0  0  0  0
  142.0413   73.0251  227.8635 H   0  0  0  0  0  0  0  0  0  0  0  0
  142.0748   72.4896  225.4151 H   0  0  0  0  0  0  0  0  0  0  0  0
  140.7828   70.5893  224.5715 H   0  0  0  0  0  0  0  0  0  0  0  0
  138.2424   68.7517  226.4808 H   0  0  0  0  0  0  0  0  0  0  0  0
  140.1158   67.4273  227.2901 H   0  0  0  0  0  0  0  0  0  0  0  0
  139.4974   66.7280  225.7554 H   0  0  0  0  0  0  0  0  0  0  0  0
  141.0090   67.6984  225.7554 H   0  0  0  0  0  0  0  0  0  0  0  0
  139.5910   68.7130  223.7920 H   0  0  0  0  0  0  0  0  0  0  0  0
  137.9205   69.0854  222.0452 H   0  0  0  0  0  0  0  0  0  0  0  0
  136.3996   69.9140  222.4327 H   0  0  0  0  0  0  0  0  0  0  0  0
  137.4860   71.9930  221.9880 H   0  0  0  0  0  0  0  0  0  0  0  0
  141.5889   71.7320  220.7009 H   0  0  0  0  0  0  0  0  0  0  0  0
  142.6405   73.8485  219.9927 H   0  0  0  0  0  0  0  0  0  0  0  0
  142.6949   76.1853  220.0499 H   0  0  0  0  0  0  0  0  0  0  0  0
  139.8150   78.3434  222.3506 H   0  0  0  0  0  0  0  0  0  0  0  0
  138.7565   76.2181  223.0675 H   0  0  0  0  0  0  0  0  0  0  0  0
  1  2  1  0
  2  3  2  0
  3  4  1  0
  4  5  2  0
  5  6  1  0
  6  7  2  0
  7  8  1  0
  8  9  1  0
  8 10  1  0
 10 11  1  0
 11 12  2  0
 11 13  1  0
 13 14  1  0
 14 15  1  0
 15 16  2  0
 15 17  1  0
 17 18  2  0
 18 19  1  0
 19 20  2  0
 20 21  1  0
 21 22  2  0
 22 23  1  0
 22 24  1  0
 24 25  2  0
 25 26  1  0
 26 27  2  0
  7  2  1  0
 27 17  1  0
 26 20  1  0
  1 28  1  0
  1 29  1  0
  1 30  1  0
  3 31  1  0
  4 32  1  0
  5 33  1  0
  6 34  1  0
  8 35  1  1
  9 36  1  0
  9 37  1  0
  9 38  1  0
 10 39  1  0
 13 40  1  0
 13 41  1  0
 14 42  1  0
 18 43  1  0
 19 44  1  0
 21 45  1  0
 24 46  1  0
 25 47  1  0
M  END
>  <smiles>  (27) 
Cc1ccccc1[C@H](C)NC(=O)CNC(=O)c1ccc2cc(F)ccc2n1

>  <score_type>  (27) 
oracle

>  <origin>  (27) 
autodockgpu

>  <m_score__min__energy>  (27) 
-8.6999999999999993

>  <m_primary>  (27) 
energy

>  <rmsd>  (27) 
9.85625962793616

>  <m_score__min__rmsd>  (27) 
9.85625962793616

>  <meeko>  (27) 
{"free_energy": -7.65, "intermolecular_energy": -9.14, "internal_energy": -2.26, "cluster_size": 4, "cluster_id": 4, "rank_in_cluster": 2}

>  <energy>  (27) 
-8.01

>  <cluster_rmsd>  (27) 
1.47

>  <cluster>  (27) 
1

$$$$

     RDKit          3D

 47 49  0  0  0  0  0  0  0  0999 V2000
  142.5840   79.3980  222.5660 C   0  0  0  0  0  0  0  0  0  0  0  0
  141.1160   79.2600  222.6540 C   0  0  0  0  0  0  0  0  0  0  0  0
  140.4930   79.9210  223.7150 C   0  0  0  0  0  0  0  0  0  0  0  0
  139.1290   79.8700  223.9080 C   0  0  0  0  0  0  0  0  0  0  0  0
  138.3760   79.1350  223.0090 C   0  0  0  0  0  0  0  0  0  0  0  0
  139.0030   78.4910  221.9720 C   0  0  0  0  0  0  0  0  0  0  0  0
  140.3590   78.5300  221.7630 C   0  0  0  0  0  0  0  0  0  0  0  0
  141.0420   77.8350  220.6410 C   0  0  2  0  0  0  0  0  0  0  0  0
  141.0550   78.7680  219.4520 C   0  0  0  0  0  0  0  0  0  0  0  0
  140.3220   76.6100  220.3510 N   0  0  0  0  0  0  0  0  0  0  0  0
  140.2590   75.5210  221.2880 C   0  0  0  0  0  0  0  0  0  0  0  0
  140.8700   75.6980  222.3810 O   0  0  0  0  0  0  0  0  0  0  0  0
  139.5240   74.2670  220.9960 C   0  0  0  0  0  0  0  0  0  0  0  0
  139.6010   73.4510  222.2020 N   0  0  0  0  0  0  0  0  0  0  0  0
  139.6860   72.0330  222.1460 C   0  0  0  0  0  0  0  0  0  0  0  0
  139.6980   71.4340  221.0150 O   0  0  0  0  0  0  0  0  0  0  0  0
  139.7600   71.2620  223.3900 C   0  0  0  0  0  0  0  0  0  0  0  0
  139.2920   69.9560  223.3950 C   0  0  0  0  0  0  0  0  0  0  0  0
  139.3220   69.1640  224.5110 C   0  0  0  0  0  0  0  0  0  0  0  0
  139.8450   69.7100  225.6640 C   0  0  0  0  0  0  0  0  0  0  0  0
  139.8750   68.9110  226.7880 C   0  0  0  0  0  0  0  0  0  0  0  0
  140.3880   69.4170  227.9580 C   0  0  0  0  0  0  0  0  0  0  0  0
  140.3990   68.5990  229.0390 F   0  0  0  0  0  0  0  0  0  0  0  0
  140.8530   70.7050  227.9650 C   0  0  0  0  0  0  0  0  0  0  0  0
  140.8190   71.5080  226.8230 C   0  0  0  0  0  0  0  0  0  0  0  0
  140.3030   71.0060  225.6370 C   0  0  0  0  0  0  0  0  0  0  0  0
  140.2690   71.7810  224.5300 N   0  0  0  0  0  0  0  0  0  0  0  0
  143.0099   79.4380  223.5794 H   0  0  0  0  0  0  0  0  0  0  0  0
  143.0017   78.5352  222.0265 H   0  0  0  0  0  0  0  0  0  0  0  0
  142.8336   80.3236  222.0265 H   0  0  0  0  0  0  0  0  0  0  0  0
  141.1097   80.5000  224.4182 H   0  0  0  0  0  0  0  0  0  0  0  0
  138.6545   80.3964  224.7493 H   0  0  0  0  0  0  0  0  0  0  0  0
  137.2842   79.0676  223.1247 H   0  0  0  0  0  0  0  0  0  0  0  0
  138.3851   77.9119  221.2699 H   0  0  0  0  0  0  0  0  0  0  0  0
  142.0795   77.5719  220.8947 H   0  0  0  0  0  0  0  0  0  0  0  0
  141.0695   79.8101  219.8038 H   0  0  0  0  0  0  0  0  0  0  0  0
  141.9505   78.5740  218.8434 H   0  0  0  0  0  0  0  0  0  0  0  0
  140.1544   78.5989  218.8434 H   0  0  0  0  0  0  0  0  0  0  0  0
  139.8100   76.4450  219.4520 H   0  0  0  0  0  0  0  0  0  0  0  0
  138.4742   74.4894  220.7542 H   0  0  0  0  0  0  0  0  0  0  0  0
  139.9596   73.7426  220.1327 H   0  0  0  0  0  0  0  0  0  0  0  0
  139.5920   73.9170  223.1540 H   0  0  0  0  0  0  0  0  0  0  0  0
  138.8799   69.5399  222.4639 H   0  0  0  0  0  0  0  0  0  0  0  0
  138.9434   68.1315  224.4888 H   0  0  0  0  0  0  0  0  0  0  0  0
  139.4926   67.8804  226.7482 H   0  0  0  0  0  0  0  0  0  0  0  0
  141.2652   71.1190  228.8970 H   0  0  0  0  0  0  0  0  0  0  0  0
  141.2014   72.5386  226.8638 H   0  0  0  0  0  0  0  0  0  0  0  0
  1  2  1  0
  2  3  2  0
  3  4  1  0
  4  5  2  0
  5  6  1  0
  6  7  2  0
  7  8  1  0
  8  9  1  0
  8 10  1  0
 10 11  1  0
 11 12  2  0
 11 13  1  0
 13 14  1  0
 14 15  1  0
 15 16  2  0
 15 17  1  0
 17 18  2  0
 18 19  1  0
 19 20  2  0
 20 21  1  0
 21 22  2  0
 22 23  1  0
 22 24  1  0
 24 25  2  0
 25 26  1  0
 26 27  2  0
  7  2  1  0
 27 17  1  0
 26 20  1  0
  1 28  1  0
  1 29  1  0
  1 30  1  0
  3 31  1  0
  4 32  1  0
  5 33  1  0
  6 34  1  0
  8 35  1  1
  9 36  1  0
  9 37  1  0
  9 38  1  0
 10 39  1  0
 13 40  1  0
 13 41  1  0
 14 42  1  0
 18 43  1  0
 19 44  1  0
 21 45  1  0
 24 46  1  0
 25 47  1  0
M  END
>  <smiles>  (28) 
Cc1ccccc1[C@H](C)NC(=O)CNC(=O)c1ccc2cc(F)ccc2n1

>  <score_type>  (28) 
oracle

>  <origin>  (28) 
autodockgpu

>  <m_score__min__energy>  (28) 
-8.6999999999999993

>  <m_primary>  (28) 
energy

>  <rmsd>  (28) 
4.123708787692866

>  <m_score__min__rmsd>  (28) 
4.123708787692866

>  <meeko>  (28) 
{"free_energy": -7.96, "intermolecular_energy": -9.45, "internal_energy": -1.69, "cluster_size": 30, "cluster_id": 1, "rank_in_cluster": 28}

>  <energy>  (28) 
-7.96

>  <cluster_rmsd>  (28) 
1.61

>  <cluster>  (28) 
1

$$$$

     RDKit          3D

 47 49  0  0  0  0  0  0  0  0999 V2000
  139.9170   67.7710  226.9290 C   0  0  0  0  0  0  0  0  0  0  0  0
  140.2180   69.2120  226.8200 C   0  0  0  0  0  0  0  0  0  0  0  0
  140.7400   69.8250  227.9620 C   0  0  0  0  0  0  0  0  0  0  0  0
  141.0630   71.1660  227.9890 C   0  0  0  0  0  0  0  0  0  0  0  0
  140.8550   71.9040  226.8370 C   0  0  0  0  0  0  0  0  0  0  0  0
  140.3410   71.2870  225.7240 C   0  0  0  0  0  0  0  0  0  0  0  0
  140.0140   69.9550  225.6770 C   0  0  0  0  0  0  0  0  0  0  0  0
  139.4590   69.2820  224.4730 C   0  0  2  0  0  0  0  0  0  0  0  0
  139.6240   70.2160  223.2970 C   0  0  0  0  0  0  0  0  0  0  0  0
  138.0620   68.9770  224.7200 N   0  0  0  0  0  0  0  0  0  0  0  0
  137.0350   69.9810  224.6400 C   0  0  0  0  0  0  0  0  0  0  0  0
  137.4250   71.1460  224.3390 O   0  0  0  0  0  0  0  0  0  0  0  0
  135.6060   69.6740  224.8910 C   0  0  0  0  0  0  0  0  0  0  0  0
  134.9910   70.9130  225.3510 N   0  0  0  0  0  0  0  0  0  0  0  0
  133.8100   70.9170  226.1430 C   0  0  0  0  0  0  0  0  0  0  0  0
  133.2550   69.8120  226.4740 O   0  0  0  0  0  0  0  0  0  0  0  0
  133.2330   72.1920  226.5770 C   0  0  0  0  0  0  0  0  0  0  0  0
  132.0190   72.1810  227.2480 C   0  0  0  0  0  0  0  0  0  0  0  0
  131.4080   73.3230  227.6890 C   0  0  0  0  0  0  0  0  0  0  0  0
  132.0460   74.5210  227.4450 C   0  0  0  0  0  0  0  0  0  0  0  0
  131.4300   75.6710  227.8900 C   0  0  0  0  0  0  0  0  0  0  0  0
  132.0320   76.8850  227.6670 C   0  0  0  0  0  0  0  0  0  0  0  0
  131.3930   77.9920  228.1210 F   0  0  0  0  0  0  0  0  0  0  0  0
  133.2310   76.9090  227.0060 C   0  0  0  0  0  0  0  0  0  0  0  0
  133.8490   75.7400  226.5580 C   0  0  0  0  0  0  0  0  0  0  0  0
  133.2490   74.5080  226.7790 C   0  0  0  0  0  0  0  0  0  0  0  0
  133.8440   73.3750  226.3460 N   0  0  0  0  0  0  0  0  0  0  0  0
  139.8579   67.4880  227.9903 H   0  0  0  0  0  0  0  0  0  0  0  0
  138.9552   67.5592  226.4389 H   0  0  0  0  0  0  0  0  0  0  0  0
  140.7136   67.1919  226.4389 H   0  0  0  0  0  0  0  0  0  0  0  0
  140.8982   69.2200  228.8670 H   0  0  0  0  0  0  0  0  0  0  0  0
  141.4725   71.6334  228.8967 H   0  0  0  0  0  0  0  0  0  0  0  0
  141.0996   72.9762  226.8135 H   0  0  0  0  0  0  0  0  0  0  0  0
  140.1825   71.8934  224.8200 H   0  0  0  0  0  0  0  0  0  0  0  0
  139.9841   68.3409  224.2526 H   0  0  0  0  0  0  0  0  0  0  0  0
  139.8045   71.2376  223.6627 H   0  0  0  0  0  0  0  0  0  0  0  0
  140.4783   69.8890  222.6861 H   0  0  0  0  0  0  0  0  0  0  0  0
  138.7094   70.2014  222.6861 H   0  0  0  0  0  0  0  0  0  0  0  0
  137.7190   68.0190  224.9700 H   0  0  0  0  0  0  0  0  0  0  0  0
  135.1226   69.3310  223.9644 H   0  0  0  0  0  0  0  0  0  0  0  0
  135.4963   68.8742  225.6382 H   0  0  0  0  0  0  0  0  0  0  0  0
  135.4260   71.8440  225.0930 H   0  0  0  0  0  0  0  0  0  0  0  0
  131.5274   71.2145  227.4331 H   0  0  0  0  0  0  0  0  0  0  0  0
  130.4443   73.2869  228.2182 H   0  0  0  0  0  0  0  0  0  0  0  0
  130.4665   75.6169  228.4181 H   0  0  0  0  0  0  0  0  0  0  0  0
  133.7211   77.8766  226.8228 H   0  0  0  0  0  0  0  0  0  0  0  0
  134.8121   75.7953  226.0295 H   0  0  0  0  0  0  0  0  0  0  0  0
  1  2  1  0
  2  3  2  0
  3  4  1  0
  4  5  2  0
  5  6  1  0
  6  7  2  0
  7  8  1  0
  8  9  1  0
  8 10  1  0
 10 11  1  0
 11 12  2  0
 11 13  1  0
 13 14  1  0
 14 15  1  0
 15 16  2  0
 15 17  1  0
 17 18  2  0
 18 19  1  0
 19 20  2  0
 20 21  1  0
 21 22  2  0
 22 23  1  0
 22 24  1  0
 24 25  2  0
 25 26  1  0
 26 27  2  0
  7  2  1  0
 27 17  1  0
 26 20  1  0
  1 28  1  0
  1 29  1  0
  1 30  1  0
  3 31  1  0
  4 32  1  0
  5 33  1  0
  6 34  1  0
  8 35  1  6
  9 36  1  0
  9 37  1  0
  9 38  1  0
 10 39  1  0
 13 40  1  0
 13 41  1  0
 14 42  1  0
 18 43  1  0
 19 44  1  0
 21 45  1  0
 24 46  1  0
 25 47  1  0
M  END
>  <smiles>  (29) 
Cc1ccccc1[C@H](C)NC(=O)CNC(=O)c1ccc2cc(F)ccc2n1

>  <score_type>  (29) 
oracle

>  <origin>  (29) 
autodockgpu

>  <m_score__min__energy>  (29) 
-8.6999999999999993

>  <m_primary>  (29) 
energy

>  <rmsd>  (29) 
10.639343941009372

>  <m_score__min__rmsd>  (29) 
10.639343941009372

>  <meeko>  (29) 
{"free_energy": -8.35, "intermolecular_energy": -9.84, "internal_energy": -1.64, "cluster_size": 13, "cluster_id": 2, "rank_in_cluster": 4}

>  <energy>  (29) 
-7.74

>  <cluster_rmsd>  (29) 
1.79

>  <cluster>  (29) 
1

$$$$

     RDKit          3D

 47 49  0  0  0  0  0  0  0  0999 V2000
  142.2250   79.3120  223.4360 C   0  0  0  0  0  0  0  0  0  0  0  0
  140.8180   79.2880  222.9890 C   0  0  0  0  0  0  0  0  0  0  0  0
  139.8940   79.9330  223.8150 C   0  0  0  0  0  0  0  0  0  0  0  0
  138.5500   79.9820  223.5100 C   0  0  0  0  0  0  0  0  0  0  0  0
  138.1290   79.3660  222.3440 C   0  0  0  0  0  0  0  0  0  0  0  0
  139.0490   78.7370  221.5440 C   0  0  0  0  0  0  0  0  0  0  0  0
  140.3900   78.6780  221.8300 C   0  0  0  0  0  0  0  0  0  0  0  0
  141.3900   77.9980  220.9660 C   0  0  2  0  0  0  0  0  0  0  0  0
  141.6650   78.8900  219.7780 C   0  0  0  0  0  0  0  0  0  0  0  0
  140.8490   76.7160  220.5560 N   0  0  0  0  0  0  0  0  0  0  0  0
  140.3380   75.7630  221.5060 C   0  0  0  0  0  0  0  0  0  0  0  0
  140.3890   76.1140  222.7200 O   0  0  0  0  0  0  0  0  0  0  0  0
  139.7840   74.4520  221.0920 C   0  0  0  0  0  0  0  0  0  0  0  0
  139.7690   73.6130  222.2840 N   0  0  0  0  0  0  0  0  0  0  0  0
  140.0210   72.2150  222.2230 C   0  0  0  0  0  0  0  0  0  0  0  0
  140.2720   71.6570  221.1000 O   0  0  0  0  0  0  0  0  0  0  0  0
  139.9930   71.4200  223.4540 C   0  0  0  0  0  0  0  0  0  0  0  0
  139.4700   70.1360  223.4070 C   0  0  0  0  0  0  0  0  0  0  0  0
  139.4030   69.3240  224.5070 C   0  0  0  0  0  0  0  0  0  0  0  0
  139.8850   69.8260  225.6970 C   0  0  0  0  0  0  0  0  0  0  0  0
  139.8180   69.0070  226.8040 C   0  0  0  0  0  0  0  0  0  0  0  0
  140.2860   69.4680  228.0110 C   0  0  0  0  0  0  0  0  0  0  0  0
  140.2010   68.6310  229.0740 F   0  0  0  0  0  0  0  0  0  0  0  0
  140.8050   70.7340  228.0700 C   0  0  0  0  0  0  0  0  0  0  0  0
  140.8690   71.5580  226.9440 C   0  0  0  0  0  0  0  0  0  0  0  0
  140.3990   71.1010  225.7210 C   0  0  0  0  0  0  0  0  0  0  0  0
  140.4600   71.8960  224.6300 N   0  0  0  0  0  0  0  0  0  0  0  0
  142.2605   79.3126  224.5354 H   0  0  0  0  0  0  0  0  0  0  0  0
  142.7467   78.4226  223.0528 H   0  0  0  0  0  0  0  0  0  0  0  0
  142.7161   80.2186  223.0528 H   0  0  0  0  0  0  0  0  0  0  0  0
  140.2495   80.4165  224.7369 H   0  0  0  0  0  0  0  0  0  0  0  0
  137.8358   80.4939  224.1717 H   0  0  0  0  0  0  0  0  0  0  0  0
  137.0660   79.3807  222.0614 H   0  0  0  0  0  0  0  0  0  0  0  0
  138.6923   78.2534  220.6227 H   0  0  0  0  0  0  0  0  0  0  0  0
  142.3350   77.8184  221.4995 H   0  0  0  0  0  0  0  0  0  0  0  0
  141.9720   79.8858  220.1304 H   0  0  0  0  0  0  0  0  0  0  0  0
  142.4699   78.4522  219.1693 H   0  0  0  0  0  0  0  0  0  0  0  0
  140.7533   78.9814  219.1693 H   0  0  0  0  0  0  0  0  0  0  0  0
  140.7980   76.4070  219.5560 H   0  0  0  0  0  0  0  0  0  0  0  0
  138.7629   74.5770  220.7026 H   0  0  0  0  0  0  0  0  0  0  0  0
  140.3904   73.9983  220.2943 H   0  0  0  0  0  0  0  0  0  0  0  0
  139.5640   74.0470  223.2300 H   0  0  0  0  0  0  0  0  0  0  0  0
  139.0937   69.7547  222.4463 H   0  0  0  0  0  0  0  0  0  0  0  0
  138.9809   68.3102  224.4438 H   0  0  0  0  0  0  0  0  0  0  0  0
  139.3944   67.9952  226.7219 H   0  0  0  0  0  0  0  0  0  0  0  0
  141.1821   71.1127  229.0314 H   0  0  0  0  0  0  0  0  0  0  0  0
  141.2923   72.5699  227.0268 H   0  0  0  0  0  0  0  0  0  0  0  0
  1  2  1  0
  2  3  2  0
  3  4  1  0
  4  5  2  0
  5  6  1  0
  6  7  2  0
  7  8  1  0
  8  9  1  0
  8 10  1  0
 10 11  1  0
 11 12  2  0
 11 13  1  0
 13 14  1  0
 14 15  1  0
 15 16  2  0
 15 17  1  0
 17 18  2  0
 18 19  1  0
 19 20  2  0
 20 21  1  0
 21 22  2  0
 22 23  1  0
 22 24  1  0
 24 25  2  0
 25 26  1  0
 26 27  2  0
  7  2  1  0
 27 17  1  0
 26 20  1  0
  1 28  1  0
  1 29  1  0
  1 30  1  0
  3 31  1  0
  4 32  1  0
  5 33  1  0
  6 34  1  0
  8 35  1  1
  9 36  1  0
  9 37  1  0
  9 38  1  0
 10 39  1  0
 13 40  1  0
 13 41  1  0
 14 42  1  0
 18 43  1  0
 19 44  1  0
 21 45  1  0
 24 46  1  0
 25 47  1  0
M  END
>  <smiles>  (30) 
Cc1ccccc1[C@H](C)NC(=O)CNC(=O)c1ccc2cc(F)ccc2n1

>  <score_type>  (30) 
oracle

>  <origin>  (30) 
autodockgpu

>  <m_score__min__energy>  (30) 
-8.6999999999999993

>  <m_primary>  (30) 
energy

>  <rmsd>  (30) 
3.9139728696210057

>  <m_score__min__rmsd>  (30) 
3.9139728696210057

>  <meeko>  (30) 
{"free_energy": -8.01, "intermolecular_energy": -9.5, "internal_energy": -1.6, "cluster_size": 30, "cluster_id": 1, "rank_in_cluster": 27}

>  <energy>  (30) 
-7.67

>  <cluster_rmsd>  (30) 
1.86

>  <cluster>  (30) 
1

$$$$

     RDKit          3D

 47 49  0  0  0  0  0  0  0  0999 V2000
  141.6620   79.9050  220.0310 C   0  0  0  0  0  0  0  0  0  0  0  0
  141.5680   79.5750  221.4670 C   0  0  0  0  0  0  0  0  0  0  0  0
  142.5880   80.0670  222.2850 C   0  0  0  0  0  0  0  0  0  0  0  0
  142.6150   79.8280  223.6430 C   0  0  0  0  0  0  0  0  0  0  0  0
  141.5890   79.0760  224.1880 C   0  0  0  0  0  0  0  0  0  0  0  0
  140.5950   78.5990  223.3710 C   0  0  0  0  0  0  0  0  0  0  0  0
  140.5500   78.8260  222.0180 C   0  0  0  0  0  0  0  0  0  0  0  0
  139.4750   78.3130  221.1290 C   0  0  2  0  0  0  0  0  0  0  0  0
  138.1790   78.3250  221.9070 C   0  0  0  0  0  0  0  0  0  0  0  0
  139.8290   76.9730  220.7040 N   0  0  0  0  0  0  0  0  0  0  0  0
  139.7160   75.8380  221.5810 C   0  0  0  0  0  0  0  0  0  0  0  0
  139.2870   76.0820  222.7460 O   0  0  0  0  0  0  0  0  0  0  0  0
  140.0770   74.4660  221.1510 C   0  0  0  0  0  0  0  0  0  0  0  0
  139.9580   73.6170  222.3300 N   0  0  0  0  0  0  0  0  0  0  0  0
  140.3830   72.2600  222.3260 C   0  0  0  0  0  0  0  0  0  0  0  0
  140.8880   71.7490  221.2670 O   0  0  0  0  0  0  0  0  0  0  0  0
  140.2400   71.4520  223.5400 C   0  0  0  0  0  0  0  0  0  0  0  0
  139.6100   70.2190  223.4510 C   0  0  0  0  0  0  0  0  0  0  0  0
  139.4320   69.4000  224.5330 C   0  0  0  0  0  0  0  0  0  0  0  0
  139.9090   69.8410  225.7490 C   0  0  0  0  0  0  0  0  0  0  0  0
  139.7290   69.0140  226.8380 C   0  0  0  0  0  0  0  0  0  0  0  0
  140.1880   69.4160  228.0690 C   0  0  0  0  0  0  0  0  0  0  0  0
  139.9920   68.5740  229.1130 F   0  0  0  0  0  0  0  0  0  0  0  0
  140.8110   70.6310  228.1700 C   0  0  0  0  0  0  0  0  0  0  0  0
  140.9890   71.4620  227.0620 C   0  0  0  0  0  0  0  0  0  0  0  0
  140.5290   71.0660  225.8150 C   0  0  0  0  0  0  0  0  0  0  0  0
  140.6990   71.8690  224.7410 N   0  0  0  0  0  0  0  0  0  0  0  0
  141.9617   80.9571  219.9154 H   0  0  0  0  0  0  0  0  0  0  0  0
  142.4110   79.2558  219.5539 H   0  0  0  0  0  0  0  0  0  0  0  0
  140.6834   79.7480  219.5539 H   0  0  0  0  0  0  0  0  0  0  0  0
  143.3940   80.6631  221.8322 H   0  0  0  0  0  0  0  0  0  0  0  0
  143.4261   80.2225  224.2728 H   0  0  0  0  0  0  0  0  0  0  0  0
  141.5704   78.8624  225.2669 H   0  0  0  0  0  0  0  0  0  0  0  0
  139.7903   78.0021  223.8251 H   0  0  0  0  0  0  0  0  0  0  0  0
  139.3545   78.9382  220.2320 H   0  0  0  0  0  0  0  0  0  0  0  0
  138.3984   78.3230  222.9849 H   0  0  0  0  0  0  0  0  0  0  0  0
  137.6061   79.2285  221.6511 H   0  0  0  0  0  0  0  0  0  0  0  0
  137.5895   77.4323  221.6511 H   0  0  0  0  0  0  0  0  0  0  0  0
  140.1860   76.7500  219.7450 H   0  0  0  0  0  0  0  0  0  0  0  0
  139.3901   74.1215  220.3639 H   0  0  0  0  0  0  0  0  0  0  0  0
  141.0966   74.4339  220.7394 H   0  0  0  0  0  0  0  0  0  0  0  0
  139.5430   74.0110  223.2230 H   0  0  0  0  0  0  0  0  0  0  0  0
  139.2384   69.8861  222.4707 H   0  0  0  0  0  0  0  0  0  0  0  0
  138.9277   68.4272  224.4361 H   0  0  0  0  0  0  0  0  0  0  0  0
  139.2238   68.0438  226.7223 H   0  0  0  0  0  0  0  0  0  0  0  0
  141.1817   70.9618  229.1514 H   0  0  0  0  0  0  0  0  0  0  0  0
  141.4947   72.4319  227.1784 H   0  0  0  0  0  0  0  0  0  0  0  0
  1  2  1  0
  2  3  2  0
  3  4  1  0
  4  5  2  0
  5  6  1  0
  6  7  2  0
  7  8  1  0
  8  9  1  0
  8 10  1  0
 10 11  1  0
 11 12  2  0
 11 13  1  0
 13 14  1  0
 14 15  1  0
 15 16  2  0
 15 17  1  0
 17 18  2  0
 18 19  1  0
 19 20  2  0
 20 21  1  0
 21 22  2  0
 22 23  1  0
 22 24  1  0
 24 25  2  0
 25 26  1  0
 26 27  2  0
  7  2  1  0
 27 17  1  0
 26 20  1  0
  1 28  1  0
  1 29  1  0
  1 30  1  0
  3 31  1  0
  4 32  1  0
  5 33  1  0
  6 34  1  0
  8 35  1  6
  9 36  1  0
  9 37  1  0
  9 38  1  0
 10 39  1  0
 13 40  1  0
 13 41  1  0
 14 42  1  0
 18 43  1  0
 19 44  1  0
 21 45  1  0
 24 46  1  0
 25 47  1  0
M  END
>  <smiles>  (31) 
Cc1ccccc1[C@H](C)NC(=O)CNC(=O)c1ccc2cc(F)ccc2n1

>  <score_type>  (31) 
oracle

>  <origin>  (31) 
autodockgpu

>  <m_score__min__energy>  (31) 
-8.6999999999999993

>  <m_primary>  (31) 
energy

>  <rmsd>  (31) 
4.2689868863525415

>  <m_score__min__rmsd>  (31) 
4.2689868863525415

>  <meeko>  (31) 
{"free_energy": -8.35, "intermolecular_energy": -9.85, "internal_energy": -1.51, "cluster_size": 30, "cluster_id": 1, "rank_in_cluster": 12}

>  <energy>  (31) 
-8.39

>  <cluster_rmsd>  (31) 
0.0

>  <cluster>  (31) 
2

$$$$

     RDKit          3D

 47 49  0  0  0  0  0  0  0  0999 V2000
  140.3720   81.0630  223.0830 C   0  0  0  0  0  0  0  0  0  0  0  0
  140.9480   80.5470  221.8250 C   0  0  0  0  0  0  0  0  0  0  0  0
  141.2520   81.4960  220.8460 C   0  0  0  0  0  0  0  0  0  0  0  0
  141.7940   81.1420  219.6290 C   0  0  0  0  0  0  0  0  0  0  0  0
  142.0350   79.8000  219.3930 C   0  0  0  0  0  0  0  0  0  0  0  0
  141.7300   78.8800  220.3650 C   0  0  0  0  0  0  0  0  0  0  0  0
  141.1910   79.2110  221.5820 C   0  0  0  0  0  0  0  0  0  0  0  0
  140.8600   78.2190  222.6380 C   0  0  2  0  0  0  0  0  0  0  0  0
  141.8190   78.4210  223.7870 C   0  0  0  0  0  0  0  0  0  0  0  0
  140.9780   76.8880  222.0720 N   0  0  0  0  0  0  0  0  0  0  0  0
  139.8290   76.0590  221.8240 C   0  0  0  0  0  0  0  0  0  0  0  0
  138.7090   76.5620  222.1300 O   0  0  0  0  0  0  0  0  0  0  0  0
  139.9440   74.6990  221.2460 C   0  0  0  0  0  0  0  0  0  0  0  0
  139.8120   73.7630  222.3560 N   0  0  0  0  0  0  0  0  0  0  0  0
  140.4210   72.4790  222.3340 C   0  0  0  0  0  0  0  0  0  0  0  0
  141.1120   72.1130  221.3210 O   0  0  0  0  0  0  0  0  0  0  0  0
  140.2550   71.5780  223.4780 C   0  0  0  0  0  0  0  0  0  0  0  0
  139.6010   70.3700  223.2860 C   0  0  0  0  0  0  0  0  0  0  0  0
  139.4000   69.4690  224.2970 C   0  0  0  0  0  0  0  0  0  0  0  0
  139.8790   69.8000  225.5470 C   0  0  0  0  0  0  0  0  0  0  0  0
  139.6770   68.8920  226.5640 C   0  0  0  0  0  0  0  0  0  0  0  0
  140.1370   69.1820  227.8260 C   0  0  0  0  0  0  0  0  0  0  0  0
  139.9180   68.2630  228.7970 F   0  0  0  0  0  0  0  0  0  0  0  0
  140.7850   70.3720  228.0280 C   0  0  0  0  0  0  0  0  0  0  0  0
  140.9860   71.2870  226.9920 C   0  0  0  0  0  0  0  0  0  0  0  0
  140.5240   71.0030  225.7150 C   0  0  0  0  0  0  0  0  0  0  0  0
  140.7170   71.8860  224.7100 N   0  0  0  0  0  0  0  0  0  0  0  0
  140.8870   80.6016  223.9385 H   0  0  0  0  0  0  0  0  0  0  0  0
  140.4992   82.1549  223.1238 H   0  0  0  0  0  0  0  0  0  0  0  0
  139.3006   80.8169  223.1238 H   0  0  0  0  0  0  0  0  0  0  0  0
  141.0528   82.5579  221.0525 H   0  0  0  0  0  0  0  0  0  0  0  0
  142.0276   81.9025  218.8693 H   0  0  0  0  0  0  0  0  0  0  0  0
  142.4669   79.4735  218.4355 H   0  0  0  0  0  0  0  0  0  0  0  0
  141.9289   77.8184  220.1563 H   0  0  0  0  0  0  0  0  0  0  0  0
  139.8325   78.3459  223.0097 H   0  0  0  0  0  0  0  0  0  0  0  0
  141.2797   78.3074  224.7390 H   0  0  0  0  0  0  0  0  0  0  0  0
  142.6230   77.6725  223.7295 H   0  0  0  0  0  0  0  0  0  0  0  0
  142.2528   79.4302  223.7295 H   0  0  0  0  0  0  0  0  0  0  0  0
  141.8950   76.4550  221.8120 H   0  0  0  0  0  0  0  0  0  0  0  0
  139.1441   74.5304  220.5100 H   0  0  0  0  0  0  0  0  0  0  0  0
  140.9055   74.5677  220.7281 H   0  0  0  0  0  0  0  0  0  0  0  0
  139.2460   74.0360  223.2100 H   0  0  0  0  0  0  0  0  0  0  0  0
  139.2286   70.1259  222.2802 H   0  0  0  0  0  0  0  0  0  0  0  0
  138.8767   68.5179  224.1191 H   0  0  0  0  0  0  0  0  0  0  0  0
  139.1530   67.9450  226.3675 H   0  0  0  0  0  0  0  0  0  0  0  0
  141.1575   70.6137  229.0344 H   0  0  0  0  0  0  0  0  0  0  0  0
  141.5109   72.2334  227.1887 H   0  0  0  0  0  0  0  0  0  0  0  0
  1  2  1  0
  2  3  2  0
  3  4  1  0
  4  5  2  0
  5  6  1  0
  6  7  2  0
  7  8  1  0
  8  9  1  0
  8 10  1  0
 10 11  1  0
 11 12  2  0
 11 13  1  0
 13 14  1  0
 14 15  1  0
 15 16  2  0
 15 17  1  0
 17 18  2  0
 18 19  1  0
 19 20  2  0
 20 21  1  0
 21 22  2  0
 22 23  1  0
 22 24  1  0
 24 25  2  0
 25 26  1  0
 26 27  2  0
  7  2  1  0
 27 17  1  0
 26 20  1  0
  1 28  1  0
  1 29  1  0
  1 30  1  0
  3 31  1  0
  4 32  1  0
  5 33  1  0
  6 34  1  0
  8 35  1  1
  9 36  1  0
  9 37  1  0
  9 38  1  0
 10 39  1  0
 13 40  1  0
 13 41  1  0
 14 42  1  0
 18 43  1  0
 19 44  1  0
 21 45  1  0
 24 46  1  0
 25 47  1  0
M  END
>  <smiles>  (32) 
Cc1ccccc1[C@H](C)NC(=O)CNC(=O)c1ccc2cc(F)ccc2n1

>  <score_type>  (32) 
oracle

>  <origin>  (32) 
autodockgpu

>  <m_score__min__energy>  (32) 
-8.6999999999999993

>  <m_primary>  (32) 
energy

>  <rmsd>  (32) 
3.3405706375495208

>  <m_score__min__rmsd>  (32) 
3.3405706375495208

>  <meeko>  (32) 
{"free_energy": -8.63, "intermolecular_energy": -10.12, "internal_energy": -1.01, "cluster_size": 30, "cluster_id": 1, "rank_in_cluster": 4}

>  <energy>  (32) 
-8.39

>  <cluster_rmsd>  (32) 
0.12

>  <cluster>  (32) 
2

$$$$

     RDKit          3D

 47 49  0  0  0  0  0  0  0  0999 V2000
  141.6830   79.9390  220.0600 C   0  0  0  0  0  0  0  0  0  0  0  0
  141.5760   79.5960  221.4930 C   0  0  0  0  0  0  0  0  0  0  0  0
  142.5900   80.0790  222.3230 C   0  0  0  0  0  0  0  0  0  0  0  0
  142.6050   79.8290  223.6790 C   0  0  0  0  0  0  0  0  0  0  0  0
  141.5740   79.0740  224.2100 C   0  0  0  0  0  0  0  0  0  0  0  0
  140.5850   78.6060  223.3800 C   0  0  0  0  0  0  0  0  0  0  0  0
  140.5520   78.8450  222.0290 C   0  0  0  0  0  0  0  0  0  0  0  0
  139.4830   78.3420  221.1270 C   0  0  2  0  0  0  0  0  0  0  0  0
  138.1810   78.3510  221.8930 C   0  0  0  0  0  0  0  0  0  0  0  0
  139.8380   77.0030  220.6950 N   0  0  0  0  0  0  0  0  0  0  0  0
  139.7000   75.8600  221.5570 C   0  0  0  0  0  0  0  0  0  0  0  0
  139.2490   76.0940  222.7150 O   0  0  0  0  0  0  0  0  0  0  0  0
  140.0620   74.4900  221.1200 C   0  0  0  0  0  0  0  0  0  0  0  0
  139.9550   73.6370  222.2970 N   0  0  0  0  0  0  0  0  0  0  0  0
  140.3590   72.2740  222.2780 C   0  0  0  0  0  0  0  0  0  0  0  0
  140.8340   71.7610  221.2070 O   0  0  0  0  0  0  0  0  0  0  0  0
  140.2290   71.4630  223.4910 C   0  0  0  0  0  0  0  0  0  0  0  0
  139.6030   70.2280  223.4040 C   0  0  0  0  0  0  0  0  0  0  0  0
  139.4370   69.4050  224.4850 C   0  0  0  0  0  0  0  0  0  0  0  0
  139.9230   69.8440  225.6980 C   0  0  0  0  0  0  0  0  0  0  0  0
  139.7550   69.0140  226.7870 C   0  0  0  0  0  0  0  0  0  0  0  0
  140.2240   69.4140  228.0150 C   0  0  0  0  0  0  0  0  0  0  0  0
  140.0390   68.5690  229.0580 F   0  0  0  0  0  0  0  0  0  0  0  0
  140.8430   70.6310  228.1140 C   0  0  0  0  0  0  0  0  0  0  0  0
  141.0090   71.4660  227.0070 C   0  0  0  0  0  0  0  0  0  0  0  0
  140.5390   71.0720  225.7620 C   0  0  0  0  0  0  0  0  0  0  0  0
  140.6970   71.8780  224.6890 N   0  0  0  0  0  0  0  0  0  0  0  0
  142.0091   80.9844  219.9566 H   0  0  0  0  0  0  0  0  0  0  0  0
  142.4172   79.2765  219.5782 H   0  0  0  0  0  0  0  0  0  0  0  0
  140.7024   79.8114  219.5782 H   0  0  0  0  0  0  0  0  0  0  0  0
  143.4011   80.6769  221.8818 H   0  0  0  0  0  0  0  0  0  0  0  0
  143.4112   80.2175  224.3186 H   0  0  0  0  0  0  0  0  0  0  0  0
  141.5469   78.8508  225.2868 H   0  0  0  0  0  0  0  0  0  0  0  0
  139.7752   78.0070  223.8221 H   0  0  0  0  0  0  0  0  0  0  0  0
  139.3715   78.9747  220.2341 H   0  0  0  0  0  0  0  0  0  0  0  0
  138.3908   78.3495  222.9728 H   0  0  0  0  0  0  0  0  0  0  0  0
  137.6082   79.2531  221.6320 H   0  0  0  0  0  0  0  0  0  0  0  0
  137.5958   77.4569  221.6320 H   0  0  0  0  0  0  0  0  0  0  0  0
  140.2130   76.7890  219.7400 H   0  0  0  0  0  0  0  0  0  0  0  0
  139.3700   74.1457  220.3373 H   0  0  0  0  0  0  0  0  0  0  0  0
  141.0785   74.4624  220.7005 H   0  0  0  0  0  0  0  0  0  0  0  0
  139.5640   74.0330  223.2000 H   0  0  0  0  0  0  0  0  0  0  0  0
  139.2244   69.8965  222.4259 H   0  0  0  0  0  0  0  0  0  0  0  0
  138.9351   68.4308  224.3895 H   0  0  0  0  0  0  0  0  0  0  0  0
  139.2512   68.0428  226.6735 H   0  0  0  0  0  0  0  0  0  0  0  0
  141.2203   70.9605  229.0933 H   0  0  0  0  0  0  0  0  0  0  0  0
  141.5128   72.4371  227.1219 H   0  0  0  0  0  0  0  0  0  0  0  0
  1  2  1  0
  2  3  2  0
  3  4  1  0
  4  5  2  0
  5  6  1  0
  6  7  2  0
  7  8  1  0
  8  9  1  0
  8 10  1  0
 10 11  1  0
 11 12  2  0
 11 13  1  0
 13 14  1  0
 14 15  1  0
 15 16  2  0
 15 17  1  0
 17 18  2  0
 18 19  1  0
 19 20  2  0
 20 21  1  0
 21 22  2  0
 22 23  1  0
 22 24  1  0
 24 25  2  0
 25 26  1  0
 26 27  2  0
  7  2  1  0
 27 17  1  0
 26 20  1  0
  1 28  1  0
  1 29  1  0
  1 30  1  0
  3 31  1  0
  4 32  1  0
  5 33  1  0
  6 34  1  0
  8 35  1  6
  9 36  1  0
  9 37  1  0
  9 38  1  0
 10 39  1  0
 13 40  1  0
 13 41  1  0
 14 42  1  0
 18 43  1  0
 19 44  1  0
 21 45  1  0
 24 46  1  0
 25 47  1  0
M  END
>  <smiles>  (33) 
Cc1ccccc1[C@H](C)NC(=O)CNC(=O)c1ccc2cc(F)ccc2n1

>  <score_type>  (33) 
oracle

>  <origin>  (33) 
autodockgpu

>  <m_score__min__energy>  (33) 
-8.6999999999999993

>  <m_primary>  (33) 
energy

>  <rmsd>  (33) 
4.260627268273

>  <m_score__min__rmsd>  (33) 
4.260627268273

>  <meeko>  (33) 
{"free_energy": -8.35, "intermolecular_energy": -9.85, "internal_energy": -1.5, "cluster_size": 30, "cluster_id": 1, "rank_in_cluster": 13}

>  <energy>  (33) 
-8.36

>  <cluster_rmsd>  (33) 
0.25

>  <cluster>  (33) 
2

$$$$

     RDKit          3D

 47 49  0  0  0  0  0  0  0  0999 V2000
  142.7840   79.7570  222.8770 C   0  0  0  0  0  0  0  0  0  0  0  0
  141.3170   79.5900  222.8410 C   0  0  0  0  0  0  0  0  0  0  0  0
  140.5870   80.3040  223.7940 C   0  0  0  0  0  0  0  0  0  0  0  0
  139.2120   80.2330  223.8650 C   0  0  0  0  0  0  0  0  0  0  0  0
  138.5580   79.4230  222.9520 C   0  0  0  0  0  0  0  0  0  0  0  0
  139.2900   78.7280  222.0230 C   0  0  0  0  0  0  0  0  0  0  0  0
  140.6580   78.7850  221.9360 C   0  0  0  0  0  0  0  0  0  0  0  0
  141.4550   78.0350  220.9300 C   0  0  2  0  0  0  0  0  0  0  0  0
  141.6660   78.9350  219.7350 C   0  0  0  0  0  0  0  0  0  0  0  0
  140.7280   76.8320  220.5710 N   0  0  0  0  0  0  0  0  0  0  0  0
  140.4180   75.8100  221.5350 C   0  0  0  0  0  0  0  0  0  0  0  0
  140.8180   76.0260  222.7160 O   0  0  0  0  0  0  0  0  0  0  0  0
  139.6750   74.5800  221.1730 C   0  0  0  0  0  0  0  0  0  0  0  0
  139.7000   73.7190  222.3500 N   0  0  0  0  0  0  0  0  0  0  0  0
  139.8870   72.3130  222.2490 C   0  0  0  0  0  0  0  0  0  0  0  0
  140.0410   71.7660  221.1020 O   0  0  0  0  0  0  0  0  0  0  0  0
  139.9040   71.4950  223.4650 C   0  0  0  0  0  0  0  0  0  0  0  0
  139.3210   70.2370  223.4310 C   0  0  0  0  0  0  0  0  0  0  0  0
  139.2910   69.4070  224.5190 C   0  0  0  0  0  0  0  0  0  0  0  0
  139.8710   69.8630  225.6830 C   0  0  0  0  0  0  0  0  0  0  0  0
  139.8400   69.0260  226.7780 C   0  0  0  0  0  0  0  0  0  0  0  0
  140.4060   69.4420  227.9580 C   0  0  0  0  0  0  0  0  0  0  0  0
  140.3540   68.5890  229.0110 F   0  0  0  0  0  0  0  0  0  0  0  0
  140.9850   70.6820  228.0040 C   0  0  0  0  0  0  0  0  0  0  0  0
  141.0120   71.5250  226.8910 C   0  0  0  0  0  0  0  0  0  0  0  0
  140.4430   71.1140  225.6940 C   0  0  0  0  0  0  0  0  0  0  0  0
  140.4670   71.9270  224.6150 N   0  0  0  0  0  0  0  0  0  0  0  0
  143.1231   79.7956  223.9227 H   0  0  0  0  0  0  0  0  0  0  0  0
  143.2624   78.9075  222.3675 H   0  0  0  0  0  0  0  0  0  0  0  0
  143.0592   80.6923  222.3675 H   0  0  0  0  0  0  0  0  0  0  0  0
  141.1256   80.9424  224.5097 H   0  0  0  0  0  0  0  0  0  0  0  0
  138.6525   80.8015  224.6225 H   0  0  0  0  0  0  0  0  0  0  0  0
  137.4615   79.3376  222.9715 H   0  0  0  0  0  0  0  0  0  0  0  0
  138.7502   78.0896  221.3082 H   0  0  0  0  0  0  0  0  0  0  0  0
  142.4375   77.7384  221.3259 H   0  0  0  0  0  0  0  0  0  0  0  0
  141.9044   79.9521  220.0795 H   0  0  0  0  0  0  0  0  0  0  0  0
  142.4980   78.5491  219.1277 H   0  0  0  0  0  0  0  0  0  0  0  0
  140.7492   78.9591  219.1277 H   0  0  0  0  0  0  0  0  0  0  0  0
  140.3880   76.6350  219.6000 H   0  0  0  0  0  0  0  0  0  0  0  0
  138.6372   74.8279  220.9056 H   0  0  0  0  0  0  0  0  0  0  0  0
  140.1312   74.0808  220.3054 H   0  0  0  0  0  0  0  0  0  0  0  0
  139.5750   74.1410  223.3140 H   0  0  0  0  0  0  0  0  0  0  0  0
  138.8642   69.8923  222.4916 H   0  0  0  0  0  0  0  0  0  0  0  0
  138.8217   68.4135  224.4663 H   0  0  0  0  0  0  0  0  0  0  0  0
  139.3669   68.0355  226.7073 H   0  0  0  0  0  0  0  0  0  0  0  0
  141.4419   71.0238  228.9444 H   0  0  0  0  0  0  0  0  0  0  0  0
  141.4847   72.5156  226.9633 H   0  0  0  0  0  0  0  0  0  0  0  0
  1  2  1  0
  2  3  2  0
  3  4  1  0
  4  5  2  0
  5  6  1  0
  6  7  2  0
  7  8  1  0
  8  9  1  0
  8 10  1  0
 10 11  1  0
 11 12  2  0
 11 13  1  0
 13 14  1  0
 14 15  1  0
 15 16  2  0
 15 17  1  0
 17 18  2  0
 18 19  1  0
 19 20  2  0
 20 21  1  0
 21 22  2  0
 22 23  1  0
 22 24  1  0
 24 25  2  0
 25 26  1  0
 26 27  2  0
  7  2  1  0
 27 17  1  0
 26 20  1  0
  1 28  1  0
  1 29  1  0
  1 30  1  0
  3 31  1  0
  4 32  1  0
  5 33  1  0
  6 34  1  0
  8 35  1  1
  9 36  1  0
  9 37  1  0
  9 38  1  0
 10 39  1  0
 13 40  1  0
 13 41  1  0
 14 42  1  0
 18 43  1  0
 19 44  1  0
 21 45  1  0
 24 46  1  0
 25 47  1  0
M  END
>  <smiles>  (34) 
Cc1ccccc1[C@H](C)NC(=O)CNC(=O)c1ccc2cc(F)ccc2n1

>  <score_type>  (34) 
oracle

>  <origin>  (34) 
autodockgpu

>  <m_score__min__energy>  (34) 
-8.6999999999999993

>  <m_primary>  (34) 
energy

>  <rmsd>  (34) 
3.9623460437074205

>  <m_score__min__rmsd>  (34) 
3.9623460437074205

>  <meeko>  (34) 
{"free_energy": -8.19, "intermolecular_energy": -9.68, "internal_energy": -1.55, "cluster_size": 30, "cluster_id": 1, "rank_in_cluster": 17}

>  <energy>  (34) 
-8.35

>  <cluster_rmsd>  (34) 
0.25

>  <cluster>  (34) 
2

$$$$

     RDKit          3D

 47 49  0  0  0  0  0  0  0  0999 V2000
  142.1590   77.6120  220.1390 C   0  0  0  0  0  0  0  0  0  0  0  0
  142.7480   76.8380  219.0280 C   0  0  0  0  0  0  0  0  0  0  0  0
  142.8950   77.5110  217.8130 C   0  0  0  0  0  0  0  0  0  0  0  0
  143.4310   76.9000  216.6990 C   0  0  0  0  0  0  0  0  0  0  0  0
  143.8290   75.5790  216.8140 C   0  0  0  0  0  0  0  0  0  0  0  0
  143.6770   74.9320  218.0150 C   0  0  0  0  0  0  0  0  0  0  0  0
  143.1460   75.5220  219.1340 C   0  0  0  0  0  0  0  0  0  0  0  0
  142.9810   74.8260  220.4370 C   0  0  2  0  0  0  0  0  0  0  0  0
  144.1230   73.8480  220.5930 C   0  0  0  0  0  0  0  0  0  0  0  0
  141.6970   74.1510  220.4380 N   0  0  0  0  0  0  0  0  0  0  0  0
  140.5700   74.6560  221.1770 C   0  0  0  0  0  0  0  0  0  0  0  0
  140.7680   75.7240  221.8240 O   0  0  0  0  0  0  0  0  0  0  0  0
  139.2550   73.9700  221.1810 C   0  0  0  0  0  0  0  0  0  0  0  0
  139.2480   73.0950  222.3470 N   0  0  0  0  0  0  0  0  0  0  0  0
  140.2230   72.0760  222.5290 C   0  0  0  0  0  0  0  0  0  0  0  0
  141.1430   71.9040  221.6560 O   0  0  0  0  0  0  0  0  0  0  0  0
  140.1670   71.2250  223.7200 C   0  0  0  0  0  0  0  0  0  0  0  0
  139.5860   69.9690  223.6170 C   0  0  0  0  0  0  0  0  0  0  0  0
  139.4910   69.1090  224.6780 C   0  0  0  0  0  0  0  0  0  0  0  0
  140.0020   69.5320  225.8870 C   0  0  0  0  0  0  0  0  0  0  0  0
  139.9060   68.6650  226.9540 C   0  0  0  0  0  0  0  0  0  0  0  0
  140.4020   69.0470  228.1770 C   0  0  0  0  0  0  0  0  0  0  0  0
  140.2880   68.1650  229.2000 F   0  0  0  0  0  0  0  0  0  0  0  0
  140.9780   70.2840  228.2920 C   0  0  0  0  0  0  0  0  0  0  0  0
  141.0720   71.1570  227.2050 C   0  0  0  0  0  0  0  0  0  0  0  0
  140.5730   70.7800  225.9670 C   0  0  0  0  0  0  0  0  0  0  0  0
  140.6620   71.6230  224.9130 N   0  0  0  0  0  0  0  0  0  0  0  0
  142.4853   77.1832  221.0980 H   0  0  0  0  0  0  0  0  0  0  0  0
  142.4912   78.6586  220.0733 H   0  0  0  0  0  0  0  0  0  0  0  0
  141.0617   77.5708  220.0733 H   0  0  0  0  0  0  0  0  0  0  0  0
  142.5734   78.5606  217.7426 H   0  0  0  0  0  0  0  0  0  0  0  0
  143.5389   77.4447  215.7495 H   0  0  0  0  0  0  0  0  0  0  0  0
  144.2630   75.0528  215.9510 H   0  0  0  0  0  0  0  0  0  0  0  0
  143.9987   73.8824  218.0841 H   0  0  0  0  0  0  0  0  0  0  0  0
  143.0014   75.5302  221.2818 H   0  0  0  0  0  0  0  0  0  0  0  0
  144.3187   73.6804  221.6624 H   0  0  0  0  0  0  0  0  0  0  0  0
  143.8565   72.8938  220.1151 H   0  0  0  0  0  0  0  0  0  0  0  0
  145.0249   74.2581  220.1151 H   0  0  0  0  0  0  0  0  0  0  0  0
  141.5130   73.2660  219.9090 H   0  0  0  0  0  0  0  0  0  0  0  0
  138.4420   74.7073  221.2543 H   0  0  0  0  0  0  0  0  0  0  0  0
  139.1018   73.3983  220.2538 H   0  0  0  0  0  0  0  0  0  0  0  0
  138.4980   73.2120  223.0880 H   0  0  0  0  0  0  0  0  0  0  0  0
  139.1854   69.6514  222.6430 H   0  0  0  0  0  0  0  0  0  0  0  0
  139.0249   68.1185  224.5702 H   0  0  0  0  0  0  0  0  0  0  0  0
  139.4374   67.6779  226.8278 H   0  0  0  0  0  0  0  0  0  0  0  0
  141.3778   70.5992  229.2671 H   0  0  0  0  0  0  0  0  0  0  0  0
  141.5419   72.1435  227.3312 H   0  0  0  0  0  0  0  0  0  0  0  0
  1  2  1  0
  2  3  2  0
  3  4  1  0
  4  5  2  0
  5  6  1  0
  6  7  2  0
  7  8  1  0
  8  9  1  0
  8 10  1  0
 10 11  1  0
 11 12  2  0
 11 13  1  0
 13 14  1  0
 14 15  1  0
 15 16  2  0
 15 17  1  0
 17 18  2  0
 18 19  1  0
 19 20  2  0
 20 21  1  0
 21 22  2  0
 22 23  1  0
 22 24  1  0
 24 25  2  0
 25 26  1  0
 26 27  2  0
  7  2  1  0
 27 17  1  0
 26 20  1  0
  1 28  1  0
  1 29  1  0
  1 30  1  0
  3 31  1  0
  4 32  1  0
  5 33  1  0
  6 34  1  0
  8 35  1  1
  9 36  1  0
  9 37  1  0
  9 38  1  0
 10 39  1  0
 13 40  1  0
 13 41  1  0
 14 42  1  0
 18 43  1  0
 19 44  1  0
 21 45  1  0
 24 46  1  0
 25 47  1  0
M  END
>  <smiles>  (35) 
Cc1ccccc1[C@H](C)NC(=O)CNC(=O)c1ccc2cc(F)ccc2n1

>  <score_type>  (35) 
oracle

>  <origin>  (35) 
autodockgpu

>  <m_score__min__energy>  (35) 
-8.6999999999999993

>  <m_primary>  (35) 
energy

>  <rmsd>  (35) 
5.5526928181588975

>  <m_score__min__rmsd>  (35) 
5.5526928181588975

>  <meeko>  (35) 
{"free_energy": -7.62, "intermolecular_energy": -9.11, "internal_energy": -1.64, "cluster_size": 1, "cluster_id": 5, "rank_in_cluster": 1}

>  <energy>  (35) 
-8.34

>  <cluster_rmsd>  (35) 
0.25

>  <cluster>  (35) 
2

$$$$

     RDKit          3D

 47 49  0  0  0  0  0  0  0  0999 V2000
  141.5840   79.9750  219.9240 C   0  0  0  0  0  0  0  0  0  0  0  0
  141.5390   79.6420  221.3620 C   0  0  0  0  0  0  0  0  0  0  0  0
  142.5800   80.1430  222.1480 C   0  0  0  0  0  0  0  0  0  0  0  0
  142.6540   79.9030  223.5030 C   0  0  0  0  0  0  0  0  0  0  0  0
  141.6540   79.1390  224.0800 C   0  0  0  0  0  0  0  0  0  0  0  0
  140.6380   78.6540  223.2950 C   0  0  0  0  0  0  0  0  0  0  0  0
  140.5470   78.8820  221.9450 C   0  0  0  0  0  0  0  0  0  0  0  0
  139.4490   78.3590  221.0900 C   0  0  2  0  0  0  0  0  0  0  0  0
  138.1770   78.3690  221.9050 C   0  0  0  0  0  0  0  0  0  0  0  0
  139.7980   77.0180  220.6610 N   0  0  0  0  0  0  0  0  0  0  0  0
  139.7320   75.8900  221.5520 C   0  0  0  0  0  0  0  0  0  0  0  0
  139.3490   76.1400  222.7310 O   0  0  0  0  0  0  0  0  0  0  0  0
  140.0870   74.5180  221.1180 C   0  0  0  0  0  0  0  0  0  0  0  0
  139.9600   73.6650  222.2940 N   0  0  0  0  0  0  0  0  0  0  0  0
  140.3880   72.3090  222.2890 C   0  0  0  0  0  0  0  0  0  0  0  0
  140.9040   71.8020  221.2340 O   0  0  0  0  0  0  0  0  0  0  0  0
  140.2360   71.4980  223.5000 C   0  0  0  0  0  0  0  0  0  0  0  0
  139.6050   70.2660  223.4030 C   0  0  0  0  0  0  0  0  0  0  0  0
  139.4190   69.4440  224.4810 C   0  0  0  0  0  0  0  0  0  0  0  0
  139.8890   69.8800  225.7020 C   0  0  0  0  0  0  0  0  0  0  0  0
  139.7020   69.0500  226.7870 C   0  0  0  0  0  0  0  0  0  0  0  0
  140.1540   69.4470  228.0220 C   0  0  0  0  0  0  0  0  0  0  0  0
  139.9500   68.6020  229.0620 F   0  0  0  0  0  0  0  0  0  0  0  0
  140.7790   70.6610  228.1300 C   0  0  0  0  0  0  0  0  0  0  0  0
  140.9650   71.4960  227.0260 C   0  0  0  0  0  0  0  0  0  0  0  0
  140.5110   71.1040  225.7750 C   0  0  0  0  0  0  0  0  0  0  0  0
  140.6890   71.9100  224.7050 N   0  0  0  0  0  0  0  0  0  0  0  0
  141.7304   81.0585  219.8029 H   0  0  0  0  0  0  0  0  0  0  0  0
  142.4176   79.4370  219.4490 H   0  0  0  0  0  0  0  0  0  0  0  0
  140.6375   79.6776  219.4490 H   0  0  0  0  0  0  0  0  0  0  0  0
  143.3649   80.7478  221.6703 H   0  0  0  0  0  0  0  0  0  0  0  0
  143.4809   80.3054  224.1066 H   0  0  0  0  0  0  0  0  0  0  0  0
  141.6736   78.9225  225.1583 H   0  0  0  0  0  0  0  0  0  0  0  0
  139.8539   78.0495  223.7743 H   0  0  0  0  0  0  0  0  0  0  0  0
  139.2988   78.9786  220.1936 H   0  0  0  0  0  0  0  0  0  0  0  0
  138.4277   78.3670  222.9760 H   0  0  0  0  0  0  0  0  0  0  0  0
  137.5956   79.2717  221.6662 H   0  0  0  0  0  0  0  0  0  0  0  0
  137.5815   77.4755  221.6662 H   0  0  0  0  0  0  0  0  0  0  0  0
  140.1160   76.7910  219.6900 H   0  0  0  0  0  0  0  0  0  0  0  0
  139.4006   74.1800  220.3277 H   0  0  0  0  0  0  0  0  0  0  0  0
  141.1076   74.4820  220.7092 H   0  0  0  0  0  0  0  0  0  0  0  0
  139.5360   74.0560  223.1830 H   0  0  0  0  0  0  0  0  0  0  0  0
  139.2393   69.9366  222.4192 H   0  0  0  0  0  0  0  0  0  0  0  0
  138.9138   68.4724  224.3776 H   0  0  0  0  0  0  0  0  0  0  0  0
  139.1965   68.0807  226.6651 H   0  0  0  0  0  0  0  0  0  0  0  0
  141.1450   70.9877  229.1146 H   0  0  0  0  0  0  0  0  0  0  0  0
  141.4716   72.4647  227.1484 H   0  0  0  0  0  0  0  0  0  0  0  0
  1  2  1  0
  2  3  2  0
  3  4  1  0
  4  5  2  0
  5  6  1  0
  6  7  2  0
  7  8  1  0
  8  9  1  0
  8 10  1  0
 10 11  1  0
 11 12  2  0
 11 13  1  0
 13 14  1  0
 14 15  1  0
 15 16  2  0
 15 17  1  0
 17 18  2  0
 18 19  1  0
 19 20  2  0
 20 21  1  0
 21 22  2  0
 22 23  1  0
 22 24  1  0
 24 25  2  0
 25 26  1  0
 26 27  2  0
  7  2  1  0
 27 17  1  0
 26 20  1  0
  1 28  1  0
  1 29  1  0
  1 30  1  0
  3 31  1  0
  4 32  1  0
  5 33  1  0
  6 34  1  0
  8 35  1  6
  9 36  1  0
  9 37  1  0
  9 38  1  0
 10 39  1  0
 13 40  1  0
 13 41  1  0
 14 42  1  0
 18 43  1  0
 19 44  1  0
 21 45  1  0
 24 46  1  0
 25 47  1  0
M  END
>  <smiles>  (36) 
Cc1ccccc1[C@H](C)NC(=O)CNC(=O)c1ccc2cc(F)ccc2n1

>  <score_type>  (36) 
oracle

>  <origin>  (36) 
autodockgpu

>  <m_score__min__energy>  (36) 
-8.6999999999999993

>  <m_primary>  (36) 
energy

>  <rmsd>  (36) 
4.231457295540668

>  <m_score__min__rmsd>  (36) 
4.231457295540668

>  <meeko>  (36) 
{"free_energy": -8.37, "intermolecular_energy": -9.86, "internal_energy": -1.51, "cluster_size": 30, "cluster_id": 1, "rank_in_cluster": 10}

>  <energy>  (36) 
-8.32

>  <cluster_rmsd>  (36) 
0.27

>  <cluster>  (36) 
2

$$$$

     RDKit          3D

 47 49  0  0  0  0  0  0  0  0999 V2000
  139.7880   67.8110  226.6200 C   0  0  0  0  0  0  0  0  0  0  0  0
  140.1390   69.2460  226.6220 C   0  0  0  0  0  0  0  0  0  0  0  0
  140.5870   69.7730  227.8360 C   0  0  0  0  0  0  0  0  0  0  0  0
  140.9460   71.0980  227.9690 C   0  0  0  0  0  0  0  0  0  0  0  0
  140.8520   71.9090  226.8510 C   0  0  0  0  0  0  0  0  0  0  0  0
  140.4100   71.3750  225.6660 C   0  0  0  0  0  0  0  0  0  0  0  0
  140.0480   70.0600  225.5140 C   0  0  0  0  0  0  0  0  0  0  0  0
  139.5700   69.4780  224.2330 C   0  0  2  0  0  0  0  0  0  0  0  0
  139.7870   70.5020  223.1440 C   0  0  0  0  0  0  0  0  0  0  0  0
  138.1660   69.1400  224.3760 N   0  0  0  0  0  0  0  0  0  0  0  0
  137.1500   70.1470  224.5330 C   0  0  0  0  0  0  0  0  0  0  0  0
  137.5570   71.3450  224.5360 O   0  0  0  0  0  0  0  0  0  0  0  0
  135.7150   69.8070  224.6790 C   0  0  0  0  0  0  0  0  0  0  0  0
  135.0510   71.0110  225.1620 N   0  0  0  0  0  0  0  0  0  0  0  0
  133.9520   70.9550  226.0630 C   0  0  0  0  0  0  0  0  0  0  0  0
  133.5190   69.8240  226.4760 O   0  0  0  0  0  0  0  0  0  0  0  0
  133.3220   72.1980  226.5160 C   0  0  0  0  0  0  0  0  0  0  0  0
  132.0910   72.1280  227.1530 C   0  0  0  0  0  0  0  0  0  0  0  0
  131.4310   73.2370  227.6080 C   0  0  0  0  0  0  0  0  0  0  0  0
  132.0350   74.4620  227.4130 C   0  0  0  0  0  0  0  0  0  0  0  0
  131.3680   75.5780  227.8720 C   0  0  0  0  0  0  0  0  0  0  0  0
  131.9350   76.8170  227.6970 C   0  0  0  0  0  0  0  0  0  0  0  0
  131.2470   77.8890  228.1630 F   0  0  0  0  0  0  0  0  0  0  0  0
  133.1490   76.8990  227.0700 C   0  0  0  0  0  0  0  0  0  0  0  0
  133.8180   75.7630  226.6080 C   0  0  0  0  0  0  0  0  0  0  0  0
  133.2540   74.5070  226.7790 C   0  0  0  0  0  0  0  0  0  0  0  0
  133.8990   73.4060  226.3330 N   0  0  0  0  0  0  0  0  0  0  0  0
  139.7005   67.4535  227.6566 H   0  0  0  0  0  0  0  0  0  0  0  0
  138.8286   67.6689  226.1010 H   0  0  0  0  0  0  0  0  0  0  0  0
  140.5735   67.2421  226.1010 H   0  0  0  0  0  0  0  0  0  0  0  0
  140.6554   69.1112  228.7120 H   0  0  0  0  0  0  0  0  0  0  0  0
  141.2957   71.4975  228.9324 H   0  0  0  0  0  0  0  0  0  0  0  0
  141.1290   72.9718  226.9116 H   0  0  0  0  0  0  0  0  0  0  0  0
  140.3423   72.0374  224.7904 H   0  0  0  0  0  0  0  0  0  0  0  0
  140.1198   68.5621  223.9707 H   0  0  0  0  0  0  0  0  0  0  0  0
  139.9947   71.4820  223.5983 H   0  0  0  0  0  0  0  0  0  0  0  0
  140.6408   70.1987  222.5203 H   0  0  0  0  0  0  0  0  0  0  0  0
  138.8835   70.5710  222.5203 H   0  0  0  0  0  0  0  0  0  0  0  0
  137.8100   68.1550  224.3760 H   0  0  0  0  0  0  0  0  0  0  0  0
  135.2954   69.5053  223.7080 H   0  0  0  0  0  0  0  0  0  0  0  0
  135.5741   68.9683  225.3766 H   0  0  0  0  0  0  0  0  0  0  0  0
  135.3860   71.9630  224.8380 H   0  0  0  0  0  0  0  0  0  0  0  0
  131.6271   71.1412  227.2980 H   0  0  0  0  0  0  0  0  0  0  0  0
  130.4558   73.1549  228.1102 H   0  0  0  0  0  0  0  0  0  0  0  0
  130.3935   75.4775  228.3723 H   0  0  0  0  0  0  0  0  0  0  0  0
  133.6107   77.8870  226.9259 H   0  0  0  0  0  0  0  0  0  0  0  0
  134.7927   75.8644  226.1083 H   0  0  0  0  0  0  0  0  0  0  0  0
  1  2  1  0
  2  3  2  0
  3  4  1  0
  4  5  2  0
  5  6  1  0
  6  7  2  0
  7  8  1  0
  8  9  1  0
  8 10  1  0
 10 11  1  0
 11 12  2  0
 11 13  1  0
 13 14  1  0
 14 15  1  0
 15 16  2  0
 15 17  1  0
 17 18  2  0
 18 19  1  0
 19 20  2  0
 20 21  1  0
 21 22  2  0
 22 23  1  0
 22 24  1  0
 24 25  2  0
 25 26  1  0
 26 27  2  0
  7  2  1  0
 27 17  1  0
 26 20  1  0
  1 28  1  0
  1 29  1  0
  1 30  1  0
  3 31  1  0
  4 32  1  0
  5 33  1  0
  6 34  1  0
  8 35  1  6
  9 36  1  0
  9 37  1  0
  9 38  1  0
 10 39  1  0
 13 40  1  0
 13 41  1  0
 14 42  1  0
 18 43  1  0
 19 44  1  0
 21 45  1  0
 24 46  1  0
 25 47  1  0
M  END
>  <smiles>  (37) 
Cc1ccccc1[C@H](C)NC(=O)CNC(=O)c1ccc2cc(F)ccc2n1

>  <score_type>  (37) 
oracle

>  <origin>  (37) 
autodockgpu

>  <m_score__min__energy>  (37) 
-8.6999999999999993

>  <m_primary>  (37) 
energy

>  <rmsd>  (37) 
10.512696057968137

>  <m_score__min__rmsd>  (37) 
10.512696057968137

>  <meeko>  (37) 
{"free_energy": -8.22, "intermolecular_energy": -9.71, "internal_energy": -1.74, "cluster_size": 13, "cluster_id": 2, "rank_in_cluster": 11}

>  <energy>  (37) 
-8.31

>  <cluster_rmsd>  (37) 
0.25

>  <cluster>  (37) 
2

$$$$

     RDKit          3D

 47 49  0  0  0  0  0  0  0  0999 V2000
  139.1990   69.6310  228.7790 C   0  0  0  0  0  0  0  0  0  0  0  0
  140.0110   70.4050  227.8180 C   0  0  0  0  0  0  0  0  0  0  0  0
  140.6760   71.5230  228.3270 C   0  0  0  0  0  0  0  0  0  0  0  0
  141.4660   72.3280  227.5330 C   0  0  0  0  0  0  0  0  0  0  0  0
  141.5870   71.9970  226.1950 C   0  0  0  0  0  0  0  0  0  0  0  0
  140.9260   70.8960  225.7100 C   0  0  0  0  0  0  0  0  0  0  0  0
  140.1370   70.0830  226.4830 C   0  0  0  0  0  0  0  0  0  0  0  0
  139.4200   68.8890  225.9630 C   0  0  2  0  0  0  0  0  0  0  0  0
  140.3160   67.6870  226.1520 C   0  0  0  0  0  0  0  0  0  0  0  0
  139.1130   69.1100  224.5630 N   0  0  0  0  0  0  0  0  0  0  0  0
  137.8980   69.7540  224.1400 C   0  0  0  0  0  0  0  0  0  0  0  0
  137.1150   70.1160  225.0650 O   0  0  0  0  0  0  0  0  0  0  0  0
  137.5800   69.9830  222.7100 C   0  0  0  0  0  0  0  0  0  0  0  0
  138.1750   71.2650  222.3530 N   0  0  0  0  0  0  0  0  0  0  0  0
  139.5840   71.4490  222.2920 C   0  0  0  0  0  0  0  0  0  0  0  0
  140.3700   70.4740  222.5520 O   0  0  0  0  0  0  0  0  0  0  0  0
  140.1280   72.7600  221.9270 C   0  0  0  0  0  0  0  0  0  0  0  0
  141.2720   72.8130  221.1440 C   0  0  0  0  0  0  0  0  0  0  0  0
  141.8490   73.9930  220.7570 C   0  0  0  0  0  0  0  0  0  0  0  0
  141.2480   75.1610  221.1760 C   0  0  0  0  0  0  0  0  0  0  0  0
  141.8300   76.3490  220.7860 C   0  0  0  0  0  0  0  0  0  0  0  0
  141.2640   77.5360  221.1820 C   0  0  0  0  0  0  0  0  0  0  0  0
  141.8670   78.6810  220.7760 F   0  0  0  0  0  0  0  0  0  0  0  0
  140.1350   77.4960  221.9550 C   0  0  0  0  0  0  0  0  0  0  0  0
  139.5520   76.2900  222.3470 C   0  0  0  0  0  0  0  0  0  0  0  0
  140.1160   75.0850  221.9520 C   0  0  0  0  0  0  0  0  0  0  0  0
  139.5540   73.9150  222.3290 N   0  0  0  0  0  0  0  0  0  0  0  0
  139.4858   69.9044  229.8052 H   0  0  0  0  0  0  0  0  0  0  0  0
  138.1336   69.8562  228.6238 H   0  0  0  0  0  0  0  0  0  0  0  0
  139.3729   68.5560  228.6238 H   0  0  0  0  0  0  0  0  0  0  0  0
  140.5663   71.7689  229.3935 H   0  0  0  0  0  0  0  0  0  0  0  0
  141.9831   73.2048  227.9500 H   0  0  0  0  0  0  0  0  0  0  0  0
  142.2076   72.6109  225.5257 H   0  0  0  0  0  0  0  0  0  0  0  0
  141.0351   70.6524  224.6429 H   0  0  0  0  0  0  0  0  0  0  0  0
  138.4757   68.7140  226.4994 H   0  0  0  0  0  0  0  0  0  0  0  0
  140.4559   67.4993  227.2268 H   0  0  0  0  0  0  0  0  0  0  0  0
  139.8521   66.8066  225.6834 H   0  0  0  0  0  0  0  0  0  0  0  0
  141.2923   67.8801  225.6834 H   0  0  0  0  0  0  0  0  0  0  0  0
  139.7480   68.8190  223.7830 H   0  0  0  0  0  0  0  0  0  0  0  0
  138.0086   69.1801  222.0922 H   0  0  0  0  0  0  0  0  0  0  0  0
  136.4932   69.9883  222.5404 H   0  0  0  0  0  0  0  0  0  0  0  0
  137.5500   72.0930  222.1320 H   0  0  0  0  0  0  0  0  0  0  0  0
  141.7344   71.8687  220.8209 H   0  0  0  0  0  0  0  0  0  0  0  0
  142.7568   74.0084  220.1359 H   0  0  0  0  0  0  0  0  0  0  0  0
  142.7376   76.3458  220.1645 H   0  0  0  0  0  0  0  0  0  0  0  0
  139.6739   78.4416  222.2765 H   0  0  0  0  0  0  0  0  0  0  0  0
  138.6450   76.2946  222.9694 H   0  0  0  0  0  0  0  0  0  0  0  0
  1  2  1  0
  2  3  2  0
  3  4  1  0
  4  5  2  0
  5  6  1  0
  6  7  2  0
  7  8  1  0
  8  9  1  0
  8 10  1  0
 10 11  1  0
 11 12  2  0
 11 13  1  0
 13 14  1  0
 14 15  1  0
 15 16  2  0
 15 17  1  0
 17 18  2  0
 18 19  1  0
 19 20  2  0
 20 21  1  0
 21 22  2  0
 22 23  1  0
 22 24  1  0
 24 25  2  0
 25 26  1  0
 26 27  2  0
  7  2  1  0
 27 17  1  0
 26 20  1  0
  1 28  1  0
  1 29  1  0
  1 30  1  0
  3 31  1  0
  4 32  1  0
  5 33  1  0
  6 34  1  0
  8 35  1  1
  9 36  1  0
  9 37  1  0
  9 38  1  0
 10 39  1  0
 13 40  1  0
 13 41  1  0
 14 42  1  0
 18 43  1  0
 19 44  1  0
 21 45  1  0
 24 46  1  0
 25 47  1  0
M  END
>  <smiles>  (38) 
Cc1ccccc1[C@H](C)NC(=O)CNC(=O)c1ccc2cc(F)ccc2n1

>  <score_type>  (38) 
oracle

>  <origin>  (38) 
autodockgpu

>  <m_score__min__energy>  (38) 
-8.6999999999999993

>  <m_primary>  (38) 
energy

>  <rmsd>  (38) 
9.799563560901483

>  <m_score__min__rmsd>  (38) 
9.799563560901483

>  <meeko>  (38) 
{"free_energy": -7.6, "intermolecular_energy": -9.09, "internal_energy": -2.33, "cluster_size": 4, "cluster_id": 4, "rank_in_cluster": 3}

>  <energy>  (38) 
-8.27

>  <cluster_rmsd>  (38) 
0.14

>  <cluster>  (38) 
2

$$$$

     RDKit          3D

 47 49  0  0  0  0  0  0  0  0999 V2000
  141.3670   79.6660  220.0970 C   0  0  0  0  0  0  0  0  0  0  0  0
  141.6330   79.6890  221.5490 C   0  0  0  0  0  0  0  0  0  0  0  0
  142.6310   80.5650  221.9840 C   0  0  0  0  0  0  0  0  0  0  0  0
  142.9740   80.6800  223.3140 C   0  0  0  0  0  0  0  0  0  0  0  0
  142.2940   79.8930  224.2280 C   0  0  0  0  0  0  0  0  0  0  0  0
  141.3170   79.0370  223.7840 C   0  0  0  0  0  0  0  0  0  0  0  0
  140.9610   78.9090  222.4650 C   0  0  0  0  0  0  0  0  0  0  0  0
  139.9030   77.9840  221.9810 C   0  0  2  0  0  0  0  0  0  0  0  0
  138.8150   77.9290  223.0280 C   0  0  0  0  0  0  0  0  0  0  0  0
  140.4970   76.6800  221.7600 N   0  0  0  0  0  0  0  0  0  0  0  0
  139.7300   75.5620  221.2780 C   0  0  0  0  0  0  0  0  0  0  0  0
  138.5050   75.7880  221.0590 O   0  0  0  0  0  0  0  0  0  0  0  0
  140.3330   74.2270  221.0500 C   0  0  0  0  0  0  0  0  0  0  0  0
  140.1210   73.4620  222.2730 N   0  0  0  0  0  0  0  0  0  0  0  0
  140.5560   72.1150  222.4020 C   0  0  0  0  0  0  0  0  0  0  0  0
  141.1550   71.5380  221.4300 O   0  0  0  0  0  0  0  0  0  0  0  0
  140.3160   71.3930  223.6540 C   0  0  0  0  0  0  0  0  0  0  0  0
  139.6640   70.1690  223.6040 C   0  0  0  0  0  0  0  0  0  0  0  0
  139.3980   69.4280  224.7240 C   0  0  0  0  0  0  0  0  0  0  0  0
  139.8060   69.9390  225.9370 C   0  0  0  0  0  0  0  0  0  0  0  0
  139.5370   69.1910  227.0640 C   0  0  0  0  0  0  0  0  0  0  0  0
  139.9260   69.6650  228.2930 C   0  0  0  0  0  0  0  0  0  0  0  0
  139.6420   68.8980  229.3750 F   0  0  0  0  0  0  0  0  0  0  0  0
  140.5700   70.8710  228.3550 C   0  0  0  0  0  0  0  0  0  0  0  0
  140.8380   71.6230  227.2100 C   0  0  0  0  0  0  0  0  0  0  0  0
  140.4500   71.1540  225.9640 C   0  0  0  0  0  0  0  0  0  0  0  0
  140.7080   71.8790  224.8530 N   0  0  0  0  0  0  0  0  0  0  0  0
  140.2847   79.5724  219.9239 H   0  0  0  0  0  0  0  0  0  0  0  0
  141.7317   80.5990  219.6426 H   0  0  0  0  0  0  0  0  0  0  0  0
  141.8864   78.8094  219.6426 H   0  0  0  0  0  0  0  0  0  0  0  0
  143.1592   81.1819  221.2421 H   0  0  0  0  0  0  0  0  0  0  0  0
  143.7626   81.3747  223.6389 H   0  0  0  0  0  0  0  0  0  0  0  0
  142.5344   79.9531  225.2997 H   0  0  0  0  0  0  0  0  0  0  0  0
  140.7904   78.4196  224.5266 H   0  0  0  0  0  0  0  0  0  0  0  0
  139.4635   78.3272  221.0328 H   0  0  0  0  0  0  0  0  0  0  0  0
  139.2687   77.9519  224.0298 H   0  0  0  0  0  0  0  0  0  0  0  0
  138.1468   78.7945  222.9082 H   0  0  0  0  0  0  0  0  0  0  0  0
  138.2375   77.0005  222.9082 H   0  0  0  0  0  0  0  0  0  0  0  0
  141.5090   76.4730  221.9350 H   0  0  0  0  0  0  0  0  0  0  0  0
  139.8429   73.7288  220.2005 H   0  0  0  0  0  0  0  0  0  0  0  0
  141.4041   74.3097  220.8135 H   0  0  0  0  0  0  0  0  0  0  0  0
  139.6270   73.9120  223.0960 H   0  0  0  0  0  0  0  0  0  0  0  0
  139.3483   69.7785  222.6253 H   0  0  0  0  0  0  0  0  0  0  0  0
  138.8780   68.4609  224.6581 H   0  0  0  0  0  0  0  0  0  0  0  0
  139.0167   68.2255  226.9795 H   0  0  0  0  0  0  0  0  0  0  0  0
  140.8854   71.2587  229.3349 H   0  0  0  0  0  0  0  0  0  0  0  0
  141.3575   72.5887  227.2961 H   0  0  0  0  0  0  0  0  0  0  0  0
  1  2  1  0
  2  3  2  0
  3  4  1  0
  4  5  2  0
  5  6  1  0
  6  7  2  0
  7  8  1  0
  8  9  1  0
  8 10  1  0
 10 11  1  0
 11 12  2  0
 11 13  1  0
 13 14  1  0
 14 15  1  0
 15 16  2  0
 15 17  1  0
 17 18  2  0
 18 19  1  0
 19 20  2  0
 20 21  1  0
 21 22  2  0
 22 23  1  0
 22 24  1  0
 24 25  2  0
 25 26  1  0
 26 27  2  0
  7  2  1  0
 27 17  1  0
 26 20  1  0
  1 28  1  0
  1 29  1  0
  1 30  1  0
  3 31  1  0
  4 32  1  0
  5 33  1  0
  6 34  1  0
  8 35  1  6
  9 36  1  0
  9 37  1  0
  9 38  1  0
 10 39  1  0
 13 40  1  0
 13 41  1  0
 14 42  1  0
 18 43  1  0
 19 44  1  0
 21 45  1  0
 24 46  1  0
 25 47  1  0
M  END
>  <smiles>  (39) 
Cc1ccccc1[C@H](C)NC(=O)CNC(=O)c1ccc2cc(F)ccc2n1

>  <score_type>  (39) 
oracle

>  <origin>  (39) 
autodockgpu

>  <m_score__min__energy>  (39) 
-8.6999999999999993

>  <m_primary>  (39) 
energy

>  <rmsd>  (39) 
4.144650477308782

>  <m_score__min__rmsd>  (39) 
4.144650477308782

>  <meeko>  (39) 
{"free_energy": -8.65, "intermolecular_energy": -10.14, "internal_energy": -1.03, "cluster_size": 30, "cluster_id": 1, "rank_in_cluster": 3}

>  <energy>  (39) 
-8.24

>  <cluster_rmsd>  (39) 
0.29

>  <cluster>  (39) 
2

$$$$

     RDKit          3D

 47 49  0  0  0  0  0  0  0  0999 V2000
  139.8120   68.0820  227.0920 C   0  0  0  0  0  0  0  0  0  0  0  0
  140.1980   69.4980  226.9230 C   0  0  0  0  0  0  0  0  0  0  0  0
  140.6580   70.1560  228.0660 C   0  0  0  0  0  0  0  0  0  0  0  0
  141.0490   71.4780  228.0390 C   0  0  0  0  0  0  0  0  0  0  0  0
  140.9740   72.1510  226.8320 C   0  0  0  0  0  0  0  0  0  0  0  0
  140.5200   71.4900  225.7190 C   0  0  0  0  0  0  0  0  0  0  0  0
  140.1270   70.1750  225.7240 C   0  0  0  0  0  0  0  0  0  0  0  0
  139.6350   69.4540  224.5210 C   0  0  2  0  0  0  0  0  0  0  0  0
  139.8080   70.3650  223.3270 C   0  0  0  0  0  0  0  0  0  0  0  0
  138.2420   69.1080  224.7290 N   0  0  0  0  0  0  0  0  0  0  0  0
  137.1860   70.0760  224.6000 C   0  0  0  0  0  0  0  0  0  0  0  0
  137.5470   71.2480  224.2920 O   0  0  0  0  0  0  0  0  0  0  0  0
  135.7610   69.7260  224.8120 C   0  0  0  0  0  0  0  0  0  0  0  0
  135.0960   70.9450  225.2570 N   0  0  0  0  0  0  0  0  0  0  0  0
  133.9850   70.9150  226.1430 C   0  0  0  0  0  0  0  0  0  0  0  0
  133.5390   69.7960  226.5760 O   0  0  0  0  0  0  0  0  0  0  0  0
  133.3550   72.1710  226.5580 C   0  0  0  0  0  0  0  0  0  0  0  0
  132.1250   72.1210  227.1970 C   0  0  0  0  0  0  0  0  0  0  0  0
  131.4640   73.2440  227.6180 C   0  0  0  0  0  0  0  0  0  0  0  0
  132.0680   74.4620  227.3850 C   0  0  0  0  0  0  0  0  0  0  0  0
  131.4020   75.5920  227.8100 C   0  0  0  0  0  0  0  0  0  0  0  0
  131.9690   76.8250  227.5970 C   0  0  0  0  0  0  0  0  0  0  0  0
  131.2810   77.9110  228.0290 F   0  0  0  0  0  0  0  0  0  0  0  0
  133.1830   76.8870  226.9660 C   0  0  0  0  0  0  0  0  0  0  0  0
  133.8510   75.7380  226.5390 C   0  0  0  0  0  0  0  0  0  0  0  0
  133.2870   74.4880  226.7500 C   0  0  0  0  0  0  0  0  0  0  0  0
  133.9320   73.3730  226.3370 N   0  0  0  0  0  0  0  0  0  0  0  0
  139.7474   67.8450  228.1642 H   0  0  0  0  0  0  0  0  0  0  0  0
  138.8341   67.9096  226.6188 H   0  0  0  0  0  0  0  0  0  0  0  0
  140.5671   67.4371  226.6188 H   0  0  0  0  0  0  0  0  0  0  0  0
  140.7099   69.6033  229.0156 H   0  0  0  0  0  0  0  0  0  0  0  0
  141.4091   71.9818  228.9481 H   0  0  0  0  0  0  0  0  0  0  0  0
  141.2758   73.2067  226.7657 H   0  0  0  0  0  0  0  0  0  0  0  0
  140.4681   72.0444  224.7703 H   0  0  0  0  0  0  0  0  0  0  0  0
  140.1979   68.5259  224.3428 H   0  0  0  0  0  0  0  0  0  0  0  0
  140.0028   71.3907  223.6735 H   0  0  0  0  0  0  0  0  0  0  0  0
  140.6559   70.0160  222.7193 H   0  0  0  0  0  0  0  0  0  0  0  0
  138.8912   70.3512  222.7193 H   0  0  0  0  0  0  0  0  0  0  0  0
  137.9230   68.1430  224.9840 H   0  0  0  0  0  0  0  0  0  0  0  0
  135.3133   69.3705  223.8722 H   0  0  0  0  0  0  0  0  0  0  0  0
  135.6556   68.9219  225.5552 H   0  0  0  0  0  0  0  0  0  0  0  0
  135.4420   71.8870  224.9150 H   0  0  0  0  0  0  0  0  0  0  0  0
  131.6615   71.1391  227.3728 H   0  0  0  0  0  0  0  0  0  0  0  0
  130.4888   73.1773  228.1226 H   0  0  0  0  0  0  0  0  0  0  0  0
  130.4278   75.5072  228.3138 H   0  0  0  0  0  0  0  0  0  0  0  0
  133.6447   77.8699  226.7907 H   0  0  0  0  0  0  0  0  0  0  0  0
  134.8250   75.8237  226.0350 H   0  0  0  0  0  0  0  0  0  0  0  0
  1  2  1  0
  2  3  2  0
  3  4  1  0
  4  5  2  0
  5  6  1  0
  6  7  2  0
  7  8  1  0
  8  9  1  0
  8 10  1  0
 10 11  1  0
 11 12  2  0
 11 13  1  0
 13 14  1  0
 14 15  1  0
 15 16  2  0
 15 17  1  0
 17 18  2  0
 18 19  1  0
 19 20  2  0
 20 21  1  0
 21 22  2  0
 22 23  1  0
 22 24  1  0
 24 25  2  0
 25 26  1  0
 26 27  2  0
  7  2  1  0
 27 17  1  0
 26 20  1  0
  1 28  1  0
  1 29  1  0
  1 30  1  0
  3 31  1  0
  4 32  1  0
  5 33  1  0
  6 34  1  0
  8 35  1  6
  9 36  1  0
  9 37  1  0
  9 38  1  0
 10 39  1  0
 13 40  1  0
 13 41  1  0
 14 42  1  0
 18 43  1  0
 19 44  1  0
 21 45  1  0
 24 46  1  0
 25 47  1  0
M  END
>  <smiles>  (40) 
Cc1ccccc1[C@H](C)NC(=O)CNC(=O)c1ccc2cc(F)ccc2n1

>  <score_type>  (40) 
oracle

>  <origin>  (40) 
autodockgpu

>  <m_score__min__energy>  (40) 
-8.6999999999999993

>  <m_primary>  (40) 
energy

>  <rmsd>  (40) 
10.49312857051043

>  <m_score__min__rmsd>  (40) 
10.49312857051043

>  <meeko>  (40) 
{"free_energy": -8.39, "intermolecular_energy": -9.88, "internal_energy": -1.58, "cluster_size": 13, "cluster_id": 2, "rank_in_cluster": 2}

>  <energy>  (40) 
-8.22

>  <cluster_rmsd>  (40) 
0.34

>  <cluster>  (40) 
2

$$$$

     RDKit          3D

 47 49  0  0  0  0  0  0  0  0999 V2000
  139.8670   67.7820  226.7630 C   0  0  0  0  0  0  0  0  0  0  0  0
  140.2100   69.2170  226.7040 C   0  0  0  0  0  0  0  0  0  0  0  0
  140.6990   69.7870  227.8820 C   0  0  0  0  0  0  0  0  0  0  0  0
  141.0550   71.1170  227.9570 C   0  0  0  0  0  0  0  0  0  0  0  0
  140.9140   71.8900  226.8180 C   0  0  0  0  0  0  0  0  0  0  0  0
  140.4320   71.3150  225.6690 C   0  0  0  0  0  0  0  0  0  0  0  0
  140.0730   69.9940  225.5730 C   0  0  0  0  0  0  0  0  0  0  0  0
  139.5500   69.3660  224.3310 C   0  0  2  0  0  0  0  0  0  0  0  0
  139.7250   70.3530  223.2000 C   0  0  0  0  0  0  0  0  0  0  0  0
  138.1530   69.0320  224.5370 N   0  0  0  0  0  0  0  0  0  0  0  0
  137.1350   70.0420  224.6480 C   0  0  0  0  0  0  0  0  0  0  0  0
  137.5320   71.2390  224.5550 O   0  0  0  0  0  0  0  0  0  0  0  0
  135.7060   69.7050  224.8580 C   0  0  0  0  0  0  0  0  0  0  0  0
  135.0540   70.9280  225.3110 N   0  0  0  0  0  0  0  0  0  0  0  0
  133.8860   70.9010  226.1220 C   0  0  0  0  0  0  0  0  0  0  0  0
  133.3760   69.7820  226.4770 O   0  0  0  0  0  0  0  0  0  0  0  0
  133.2720   72.1610  226.5490 C   0  0  0  0  0  0  0  0  0  0  0  0
  132.0380   72.1200  227.1820 C   0  0  0  0  0  0  0  0  0  0  0  0
  131.3920   73.2470  227.6140 C   0  0  0  0  0  0  0  0  0  0  0  0
  132.0140   74.4590  227.3990 C   0  0  0  0  0  0  0  0  0  0  0  0
  131.3620   75.5930  227.8350 C   0  0  0  0  0  0  0  0  0  0  0  0
  131.9470   76.8210  227.6400 C   0  0  0  0  0  0  0  0  0  0  0  0
  131.2720   77.9100  228.0820 F   0  0  0  0  0  0  0  0  0  0  0  0
  133.1640   76.8730  227.0150 C   0  0  0  0  0  0  0  0  0  0  0  0
  133.8190   75.7200  226.5770 C   0  0  0  0  0  0  0  0  0  0  0  0
  133.2360   74.4750  226.7690 C   0  0  0  0  0  0  0  0  0  0  0  0
  133.8670   73.3570  226.3460 N   0  0  0  0  0  0  0  0  0  0  0  0
  139.7915   67.4660  227.8139 H   0  0  0  0  0  0  0  0  0  0  0  0
  138.9035   67.6143  226.2595 H   0  0  0  0  0  0  0  0  0  0  0  0
  140.6506   67.1967  226.2595 H   0  0  0  0  0  0  0  0  0  0  0  0
  140.8032   69.1557  228.7768 H   0  0  0  0  0  0  0  0  0  0  0  0
  141.4389   71.5498  228.8926 H   0  0  0  0  0  0  0  0  0  0  0  0
  141.1858   72.9558  226.8334 H   0  0  0  0  0  0  0  0  0  0  0  0
  140.3276   71.9480  224.7755 H   0  0  0  0  0  0  0  0  0  0  0  0
  140.0914   68.4418  224.0806 H   0  0  0  0  0  0  0  0  0  0  0  0
  139.9030   71.3567  223.6135 H   0  0  0  0  0  0  0  0  0  0  0  0
  140.5841   70.0536  222.5817 H   0  0  0  0  0  0  0  0  0  0  0  0
  138.8154   70.3672  222.5817 H   0  0  0  0  0  0  0  0  0  0  0  0
  137.8050   68.0480  224.6160 H   0  0  0  0  0  0  0  0  0  0  0  0
  135.2545   69.3603  223.9160 H   0  0  0  0  0  0  0  0  0  0  0  0
  135.5923   68.8971  225.5958 H   0  0  0  0  0  0  0  0  0  0  0  0
  135.4520   71.8700  225.0340 H   0  0  0  0  0  0  0  0  0  0  0  0
  131.5596   71.1427  227.3432 H   0  0  0  0  0  0  0  0  0  0  0  0
  130.4138   73.1881  228.1137 H   0  0  0  0  0  0  0  0  0  0  0  0
  130.3844   75.5155  228.3334 H   0  0  0  0  0  0  0  0  0  0  0  0
  133.6398   77.8515  226.8531 H   0  0  0  0  0  0  0  0  0  0  0  0
  134.7971   75.7984  226.0798 H   0  0  0  0  0  0  0  0  0  0  0  0
  1  2  1  0
  2  3  2  0
  3  4  1  0
  4  5  2  0
  5  6  1  0
  6  7  2  0
  7  8  1  0
  8  9  1  0
  8 10  1  0
 10 11  1  0
 11 12  2  0
 11 13  1  0
 13 14  1  0
 14 15  1  0
 15 16  2  0
 15 17  1  0
 17 18  2  0
 18 19  1  0
 19 20  2  0
 20 21  1  0
 21 22  2  0
 22 23  1  0
 22 24  1  0
 24 25  2  0
 25 26  1  0
 26 27  2  0
  7  2  1  0
 27 17  1  0
 26 20  1  0
  1 28  1  0
  1 29  1  0
  1 30  1  0
  3 31  1  0
  4 32  1  0
  5 33  1  0
  6 34  1  0
  8 35  1  6
  9 36  1  0
  9 37  1  0
  9 38  1  0
 10 39  1  0
 13 40  1  0
 13 41  1  0
 14 42  1  0
 18 43  1  0
 19 44  1  0
 21 45  1  0
 24 46  1  0
 25 47  1  0
M  END
>  <smiles>  (41) 
Cc1ccccc1[C@H](C)NC(=O)CNC(=O)c1ccc2cc(F)ccc2n1

>  <score_type>  (41) 
oracle

>  <origin>  (41) 
autodockgpu

>  <m_score__min__energy>  (41) 
-8.6999999999999993

>  <m_primary>  (41) 
energy

>  <rmsd>  (41) 
10.582545369077415

>  <m_score__min__rmsd>  (41) 
10.582545369077415

>  <meeko>  (41) 
{"free_energy": -8.24, "intermolecular_energy": -9.73, "internal_energy": -1.79, "cluster_size": 13, "cluster_id": 2, "rank_in_cluster": 9}

>  <energy>  (41) 
-8.22

>  <cluster_rmsd>  (41) 
0.35

>  <cluster>  (41) 
2

$$$$

     RDKit          3D

 47 49  0  0  0  0  0  0  0  0999 V2000
  140.5280   71.6130  227.0100 C   0  0  0  0  0  0  0  0  0  0  0  0
  140.3850   70.1490  226.8800 C   0  0  0  0  0  0  0  0  0  0  0  0
  141.0950   69.3720  227.7990 C   0  0  0  0  0  0  0  0  0  0  0  0
  141.0450   67.9940  227.7830 C   0  0  0  0  0  0  0  0  0  0  0  0
  140.2610   67.3860  226.8190 C   0  0  0  0  0  0  0  0  0  0  0  0
  139.5710   68.1630  225.9230 C   0  0  0  0  0  0  0  0  0  0  0  0
  139.6060   69.5350  225.9220 C   0  0  0  0  0  0  0  0  0  0  0  0
  138.8590   70.3810  224.9550 C   0  0  2  0  0  0  0  0  0  0  0  0
  137.6980   69.5720  224.4260 C   0  0  0  0  0  0  0  0  0  0  0  0
  139.7650   70.7720  223.8910 N   0  0  0  0  0  0  0  0  0  0  0  0
  139.4020   71.7510  222.9010 C   0  0  0  0  0  0  0  0  0  0  0  0
  138.2450   72.2490  223.0160 O   0  0  0  0  0  0  0  0  0  0  0  0
  140.3240   72.1550  221.8120 C   0  0  0  0  0  0  0  0  0  0  0  0
  140.4430   73.6060  221.8870 N   0  0  0  0  0  0  0  0  0  0  0  0
  141.3580   74.3280  221.0720 C   0  0  0  0  0  0  0  0  0  0  0  0
  142.1060   73.7070  220.2410 O   0  0  0  0  0  0  0  0  0  0  0  0
  141.4360   75.7860  221.1880 C   0  0  0  0  0  0  0  0  0  0  0  0
  141.9800   76.5120  220.1380 C   0  0  0  0  0  0  0  0  0  0  0  0
  142.0930   77.8760  220.1620 C   0  0  0  0  0  0  0  0  0  0  0  0
  141.6400   78.5320  221.2870 C   0  0  0  0  0  0  0  0  0  0  0  0
  141.7540   79.9050  221.3100 C   0  0  0  0  0  0  0  0  0  0  0  0
  141.3150   80.5980  222.4120 C   0  0  0  0  0  0  0  0  0  0  0  0
  141.4460   81.9470  222.3940 F   0  0  0  0  0  0  0  0  0  0  0  0
  140.7770   79.8930  223.4560 C   0  0  0  0  0  0  0  0  0  0  0  0
  140.6650   78.5010  223.4250 C   0  0  0  0  0  0  0  0  0  0  0  0
  141.1050   77.7930  222.3160 C   0  0  0  0  0  0  0  0  0  0  0  0
  140.9980   76.4460  222.2840 N   0  0  0  0  0  0  0  0  0  0  0  0
  140.5546   71.8856  228.0753 H   0  0  0  0  0  0  0  0  0  0  0  0
  141.4618   71.9346  226.5257 H   0  0  0  0  0  0  0  0  0  0  0  0
  139.6741   72.1093  226.5257 H   0  0  0  0  0  0  0  0  0  0  0  0
  141.7124   69.8746  228.5581 H   0  0  0  0  0  0  0  0  0  0  0  0
  141.6106   67.3972  228.5137 H   0  0  0  0  0  0  0  0  0  0  0  0
  140.1914   66.2892  226.7712 H   0  0  0  0  0  0  0  0  0  0  0  0
  138.9558   67.6584  225.1635 H   0  0  0  0  0  0  0  0  0  0  0  0
  138.4673   71.2937  225.4278 H   0  0  0  0  0  0  0  0  0  0  0  0
  137.1183   69.1680  225.2690 H   0  0  0  0  0  0  0  0  0  0  0  0
  137.0517   70.2163  223.8119 H   0  0  0  0  0  0  0  0  0  0  0  0
  138.0787   68.7426  223.8119 H   0  0  0  0  0  0  0  0  0  0  0  0
  140.7260   70.3720  223.7790 H   0  0  0  0  0  0  0  0  0  0  0  0
  141.3085   71.6852  221.9538 H   0  0  0  0  0  0  0  0  0  0  0  0
  139.9431   71.8375  220.8301 H   0  0  0  0  0  0  0  0  0  0  0  0
  139.8370   74.1500  222.5660 H   0  0  0  0  0  0  0  0  0  0  0  0
  142.3351   75.9690  219.2497 H   0  0  0  0  0  0  0  0  0  0  0  0
  142.5286   78.4278  219.3160 H   0  0  0  0  0  0  0  0  0  0  0  0
  142.1920   80.4406  220.4549 H   0  0  0  0  0  0  0  0  0  0  0  0
  140.4233   80.4382  224.3435 H   0  0  0  0  0  0  0  0  0  0  0  0
  140.2276   77.9657  224.2806 H   0  0  0  0  0  0  0  0  0  0  0  0
  1  2  1  0
  2  3  2  0
  3  4  1  0
  4  5  2  0
  5  6  1  0
  6  7  2  0
  7  8  1  0
  8  9  1  0
  8 10  1  0
 10 11  1  0
 11 12  2  0
 11 13  1  0
 13 14  1  0
 14 15  1  0
 15 16  2  0
 15 17  1  0
 17 18  2  0
 18 19  1  0
 19 20  2  0
 20 21  1  0
 21 22  2  0
 22 23  1  0
 22 24  1  0
 24 25  2  0
 25 26  1  0
 26 27  2  0
  7  2  1  0
 27 17  1  0
 26 20  1  0
  1 28  1  0
  1 29  1  0
  1 30  1  0
  3 31  1  0
  4 32  1  0
  5 33  1  0
  6 34  1  0
  8 35  1  1
  9 36  1  0
  9 37  1  0
  9 38  1  0
 10 39  1  0
 13 40  1  0
 13 41  1  0
 14 42  1  0
 18 43  1  0
 19 44  1  0
 21 45  1  0
 24 46  1  0
 25 47  1  0
M  END
>  <smiles>  (42) 
Cc1ccccc1[C@H](C)NC(=O)CNC(=O)c1ccc2cc(F)ccc2n1

>  <score_type>  (42) 
oracle

>  <origin>  (42) 
autodockgpu

>  <m_score__min__energy>  (42) 
-8.6999999999999993

>  <m_primary>  (42) 
energy

>  <rmsd>  (42) 
10.464232226810832

>  <m_score__min__rmsd>  (42) 
10.464232226810832

>  <meeko>  (42) 
{"free_energy": -7.86, "intermolecular_energy": -9.35, "internal_energy": -1.41, "cluster_size": 1, "cluster_id": 3, "rank_in_cluster": 1}

>  <energy>  (42) 
-8.2

>  <cluster_rmsd>  (42) 
0.36

>  <cluster>  (42) 
2

$$$$

     RDKit          3D

 47 49  0  0  0  0  0  0  0  0999 V2000
  142.6040   79.7060  223.2140 C   0  0  0  0  0  0  0  0  0  0  0  0
  141.1290   79.6790  223.2620 C   0  0  0  0  0  0  0  0  0  0  0  0
  140.5060   80.7880  223.8390 C   0  0  0  0  0  0  0  0  0  0  0  0
  139.1340   80.8840  223.9440 C   0  0  0  0  0  0  0  0  0  0  0  0
  138.3730   79.8360  223.4550 C   0  0  0  0  0  0  0  0  0  0  0  0
  139.0010   78.7530  222.8920 C   0  0  0  0  0  0  0  0  0  0  0  0
  140.3630   78.6390  222.7770 C   0  0  0  0  0  0  0  0  0  0  0  0
  141.0470   77.4690  222.1670 C   0  0  2  0  0  0  0  0  0  0  0  0
  141.7150   77.9300  220.8930 C   0  0  0  0  0  0  0  0  0  0  0  0
  140.0570   76.4400  221.9090 N   0  0  0  0  0  0  0  0  0  0  0  0
  140.4140   75.1520  221.3770 C   0  0  0  0  0  0  0  0  0  0  0  0
  141.6450   74.9720  221.1490 O   0  0  0  0  0  0  0  0  0  0  0  0
  139.4060   74.0980  221.1120 C   0  0  0  0  0  0  0  0  0  0  0  0
  139.3640   73.2560  222.3010 N   0  0  0  0  0  0  0  0  0  0  0  0
  140.3200   72.2270  222.5280 C   0  0  0  0  0  0  0  0  0  0  0  0
  141.2520   72.0180  221.6770 O   0  0  0  0  0  0  0  0  0  0  0  0
  140.2300   71.4100  223.7410 C   0  0  0  0  0  0  0  0  0  0  0  0
  139.6300   70.1620  223.6620 C   0  0  0  0  0  0  0  0  0  0  0  0
  139.5030   69.3330  224.7440 C   0  0  0  0  0  0  0  0  0  0  0  0
  140.0000   69.7800  225.9490 C   0  0  0  0  0  0  0  0  0  0  0  0
  139.8720   68.9440  227.0380 C   0  0  0  0  0  0  0  0  0  0  0  0
  140.3540   69.3520  228.2590 C   0  0  0  0  0  0  0  0  0  0  0  0
  140.2070   68.5000  229.3030 F   0  0  0  0  0  0  0  0  0  0  0  0
  140.9470   70.5820  228.3490 C   0  0  0  0  0  0  0  0  0  0  0  0
  141.0740   71.4230  227.2420 C   0  0  0  0  0  0  0  0  0  0  0  0
  140.5910   71.0210  226.0050 C   0  0  0  0  0  0  0  0  0  0  0  0
  140.7110   71.8330  224.9310 N   0  0  0  0  0  0  0  0  0  0  0  0
  143.0041   79.7133  224.2386 H   0  0  0  0  0  0  0  0  0  0  0  0
  142.9700   78.8144  222.6838 H   0  0  0  0  0  0  0  0  0  0  0  0
  142.9371   80.6104  222.6838 H   0  0  0  0  0  0  0  0  0  0  0  0
  141.1287   81.6102  224.2215 H   0  0  0  0  0  0  0  0  0  0  0  0
  138.6598   81.7648  224.4015 H   0  0  0  0  0  0  0  0  0  0  0  0
  137.2753   79.8708  223.5170 H   0  0  0  0  0  0  0  0  0  0  0  0
  138.3771   77.9307  222.5118 H   0  0  0  0  0  0  0  0  0  0  0  0
  141.8134   77.0496  222.8354 H   0  0  0  0  0  0  0  0  0  0  0  0
  142.5970   78.5387  221.1410 H   0  0  0  0  0  0  0  0  0  0  0  0
  142.0273   77.0543  220.3051 H   0  0  0  0  0  0  0  0  0  0  0  0
  141.0071   78.5327  220.3051 H   0  0  0  0  0  0  0  0  0  0  0  0
  139.0340   76.5700  222.0920 H   0  0  0  0  0  0  0  0  0  0  0  0
  138.4201   74.5517  220.9328 H   0  0  0  0  0  0  0  0  0  0  0  0
  139.6691   73.5119  220.2191 H   0  0  0  0  0  0  0  0  0  0  0  0
  138.6040   73.4040  223.0250 H   0  0  0  0  0  0  0  0  0  0  0  0
  139.2403   69.8246  222.6903 H   0  0  0  0  0  0  0  0  0  0  0  0
  139.0225   68.3475  224.6549 H   0  0  0  0  0  0  0  0  0  0  0  0
  139.3894   67.9613  226.9309 H   0  0  0  0  0  0  0  0  0  0  0  0
  141.3349   70.9178  229.3220 H   0  0  0  0  0  0  0  0  0  0  0  0
  141.5574   72.4051  227.3505 H   0  0  0  0  0  0  0  0  0  0  0  0
  1  2  1  0
  2  3  2  0
  3  4  1  0
  4  5  2  0
  5  6  1  0
  6  7  2  0
  7  8  1  0
  8  9  1  0
  8 10  1  0
 10 11  1  0
 11 12  2  0
 11 13  1  0
 13 14  1  0
 14 15  1  0
 15 16  2  0
 15 17  1  0
 17 18  2  0
 18 19  1  0
 19 20  2  0
 20 21  1  0
 21 22  2  0
 22 23  1  0
 22 24  1  0
 24 25  2  0
 25 26  1  0
 26 27  2  0
  7  2  1  0
 27 17  1  0
 26 20  1  0
  1 28  1  0
  1 29  1  0
  1 30  1  0
  3 31  1  0
  4 32  1  0
  5 33  1  0
  6 34  1  0
  8 35  1  1
  9 36  1  0
  9 37  1  0
  9 38  1  0
 10 39  1  0
 13 40  1  0
 13 41  1  0
 14 42  1  0
 18 43  1  0
 19 44  1  0
 21 45  1  0
 24 46  1  0
 25 47  1  0
M  END
>  <smiles>  (43) 
Cc1ccccc1[C@H](C)NC(=O)CNC(=O)c1ccc2cc(F)ccc2n1

>  <score_type>  (43) 
oracle

>  <origin>  (43) 
autodockgpu

>  <m_score__min__energy>  (43) 
-8.6999999999999993

>  <m_primary>  (43) 
energy

>  <rmsd>  (43) 
4.070780353245175

>  <m_score__min__rmsd>  (43) 
4.070780353245175

>  <meeko>  (43) 
{"free_energy": -8.66, "intermolecular_energy": -10.15, "internal_energy": -0.81, "cluster_size": 30, "cluster_id": 1, "rank_in_cluster": 2}

>  <energy>  (43) 
-7.93

>  <cluster_rmsd>  (43) 
1.44

>  <cluster>  (43) 
2

$$$$

     RDKit          3D

 47 49  0  0  0  0  0  0  0  0999 V2000
  139.9130   67.8040  226.8070 C   0  0  0  0  0  0  0  0  0  0  0  0
  140.2420   69.2420  226.7360 C   0  0  0  0  0  0  0  0  0  0  0  0
  140.7310   69.8260  227.9070 C   0  0  0  0  0  0  0  0  0  0  0  0
  141.0750   71.1590  227.9710 C   0  0  0  0  0  0  0  0  0  0  0  0
  140.9210   71.9220  226.8260 C   0  0  0  0  0  0  0  0  0  0  0  0
  140.4380   71.3340  225.6840 C   0  0  0  0  0  0  0  0  0  0  0  0
  140.0910   70.0090  225.6000 C   0  0  0  0  0  0  0  0  0  0  0  0
  139.5690   69.3680  224.3650 C   0  0  2  0  0  0  0  0  0  0  0  0
  139.7460   70.3400  223.2230 C   0  0  0  0  0  0  0  0  0  0  0  0
  138.1720   69.0380  224.5740 N   0  0  0  0  0  0  0  0  0  0  0  0
  137.1450   70.0450  224.6000 C   0  0  0  0  0  0  0  0  0  0  0  0
  137.5350   71.2360  224.4290 O   0  0  0  0  0  0  0  0  0  0  0  0
  135.7150   69.7130  224.8120 C   0  0  0  0  0  0  0  0  0  0  0  0
  135.0690   70.9370  225.2700 N   0  0  0  0  0  0  0  0  0  0  0  0
  133.9090   70.9120  226.0930 C   0  0  0  0  0  0  0  0  0  0  0  0
  133.4030   69.7950  226.4550 O   0  0  0  0  0  0  0  0  0  0  0  0
  133.3000   72.1730  226.5230 C   0  0  0  0  0  0  0  0  0  0  0  0
  132.0690   72.1360  227.1610 C   0  0  0  0  0  0  0  0  0  0  0  0
  131.4270   73.2640  227.5960 C   0  0  0  0  0  0  0  0  0  0  0  0
  132.0510   74.4740  227.3800 C   0  0  0  0  0  0  0  0  0  0  0  0
  131.4040   75.6090  227.8190 C   0  0  0  0  0  0  0  0  0  0  0  0
  131.9910   76.8360  227.6230 C   0  0  0  0  0  0  0  0  0  0  0  0
  131.3210   77.9270  228.0690 F   0  0  0  0  0  0  0  0  0  0  0  0
  133.2060   76.8860  226.9940 C   0  0  0  0  0  0  0  0  0  0  0  0
  133.8560   75.7310  226.5520 C   0  0  0  0  0  0  0  0  0  0  0  0
  133.2710   74.4880  226.7460 C   0  0  0  0  0  0  0  0  0  0  0  0
  133.8970   73.3680  226.3190 N   0  0  0  0  0  0  0  0  0  0  0  0
  139.8424   67.4956  227.8605 H   0  0  0  0  0  0  0  0  0  0  0  0
  138.9502   67.6230  226.3067 H   0  0  0  0  0  0  0  0  0  0  0  0
  140.7013   67.2224  226.3067 H   0  0  0  0  0  0  0  0  0  0  0  0
  140.8450   69.2025  228.8060 H   0  0  0  0  0  0  0  0  0  0  0  0
  141.4594   71.6023  228.9014 H   0  0  0  0  0  0  0  0  0  0  0  0
  141.1835   72.9902  226.8317 H   0  0  0  0  0  0  0  0  0  0  0  0
  140.3226   71.9593  224.7864 H   0  0  0  0  0  0  0  0  0  0  0  0
  140.1101   68.4407  224.1256 H   0  0  0  0  0  0  0  0  0  0  0  0
  139.9295   71.3476  223.6243 H   0  0  0  0  0  0  0  0  0  0  0  0
  140.6023   70.0293  222.6064 H   0  0  0  0  0  0  0  0  0  0  0  0
  138.8351   70.3511  222.6064 H   0  0  0  0  0  0  0  0  0  0  0  0
  137.8280   68.0590  224.7160 H   0  0  0  0  0  0  0  0  0  0  0  0
  135.2602   69.3730  223.8699 H   0  0  0  0  0  0  0  0  0  0  0  0
  135.5996   68.9033  225.5475 H   0  0  0  0  0  0  0  0  0  0  0  0
  135.4640   71.8790  224.9860 H   0  0  0  0  0  0  0  0  0  0  0  0
  131.5888   71.1599  227.3242 H   0  0  0  0  0  0  0  0  0  0  0  0
  130.4503   73.2070  228.0988 H   0  0  0  0  0  0  0  0  0  0  0  0
  130.4281   75.5335  228.3209 H   0  0  0  0  0  0  0  0  0  0  0  0
  133.6840   77.8634  226.8320 H   0  0  0  0  0  0  0  0  0  0  0  0
  134.8318   75.8071  226.0501 H   0  0  0  0  0  0  0  0  0  0  0  0
  1  2  1  0
  2  3  2  0
  3  4  1  0
  4  5  2  0
  5  6  1  0
  6  7  2  0
  7  8  1  0
  8  9  1  0
  8 10  1  0
 10 11  1  0
 11 12  2  0
 11 13  1  0
 13 14  1  0
 14 15  1  0
 15 16  2  0
 15 17  1  0
 17 18  2  0
 18 19  1  0
 19 20  2  0
 20 21  1  0
 21 22  2  0
 22 23  1  0
 22 24  1  0
 24 25  2  0
 25 26  1  0
 26 27  2  0
  7  2  1  0
 27 17  1  0
 26 20  1  0
  1 28  1  0
  1 29  1  0
  1 30  1  0
  3 31  1  0
  4 32  1  0
  5 33  1  0
  6 34  1  0
  8 35  1  6
  9 36  1  0
  9 37  1  0
  9 38  1  0
 10 39  1  0
 13 40  1  0
 13 41  1  0
 14 42  1  0
 18 43  1  0
 19 44  1  0
 21 45  1  0
 24 46  1  0
 25 47  1  0
M  END
>  <smiles>  (44) 
Cc1ccccc1[C@H](C)NC(=O)CNC(=O)c1ccc2cc(F)ccc2n1

>  <score_type>  (44) 
oracle

>  <origin>  (44) 
autodockgpu

>  <m_score__min__energy>  (44) 
-8.6999999999999993

>  <m_primary>  (44) 
energy

>  <rmsd>  (44) 
10.565641098194547

>  <m_score__min__rmsd>  (44) 
10.565641098194547

>  <meeko>  (44) 
{"free_energy": -8.31, "intermolecular_energy": -9.8, "internal_energy": -1.73, "cluster_size": 13, "cluster_id": 2, "rank_in_cluster": 7}

>  <energy>  (44) 
-7.86

>  <cluster_rmsd>  (44) 
0.0

>  <cluster>  (44) 
3

$$$$

     RDKit          3D

 47 49  0  0  0  0  0  0  0  0999 V2000
  144.9750   70.4160  219.2960 C   0  0  0  0  0  0  0  0  0  0  0  0
  144.8140   71.8170  219.7340 C   0  0  0  0  0  0  0  0  0  0  0  0
  145.9520   72.4400  220.2530 C   0  0  0  0  0  0  0  0  0  0  0  0
  145.9330   73.7450  220.6960 C   0  0  0  0  0  0  0  0  0  0  0  0
  144.7380   74.4390  220.6130 C   0  0  0  0  0  0  0  0  0  0  0  0
  143.6290   73.8130  220.1010 C   0  0  0  0  0  0  0  0  0  0  0  0
  143.6280   72.5150  219.6550 C   0  0  0  0  0  0  0  0  0  0  0  0
  142.4300   71.8330  219.0990 C   0  0  2  0  0  0  0  0  0  0  0  0
  142.2090   72.3470  217.6960 C   0  0  0  0  0  0  0  0  0  0  0  0
  141.2970   72.1200  219.9580 N   0  0  0  0  0  0  0  0  0  0  0  0
  140.0260   71.4670  219.7890 C   0  0  0  0  0  0  0  0  0  0  0  0
  139.9580   70.6270  218.8470 O   0  0  0  0  0  0  0  0  0  0  0  0
  138.8650   71.7570  220.6650 C   0  0  0  0  0  0  0  0  0  0  0  0
  139.1580   71.1500  221.9570 N   0  0  0  0  0  0  0  0  0  0  0  0
  139.9510   71.8100  222.9360 C   0  0  0  0  0  0  0  0  0  0  0  0
  140.4300   72.9720  222.6970 O   0  0  0  0  0  0  0  0  0  0  0  0
  140.2140   71.1520  224.2180 C   0  0  0  0  0  0  0  0  0  0  0  0
  140.8000   71.8880  225.2380 C   0  0  0  0  0  0  0  0  0  0  0  0
  141.0820   71.3540  226.4670 C   0  0  0  0  0  0  0  0  0  0  0  0
  140.7600   70.0300  226.6740 C   0  0  0  0  0  0  0  0  0  0  0  0
  141.0450   69.4940  227.9120 C   0  0  0  0  0  0  0  0  0  0  0  0
  140.7400   68.1770  228.1600 C   0  0  0  0  0  0  0  0  0  0  0  0
  141.0370   67.6900  229.3900 F   0  0  0  0  0  0  0  0  0  0  0  0
  140.1620   67.4400  227.1610 C   0  0  0  0  0  0  0  0  0  0  0  0
  139.8770   67.9910  225.9100 C   0  0  0  0  0  0  0  0  0  0  0  0
  140.1810   69.3190  225.6490 C   0  0  0  0  0  0  0  0  0  0  0  0
  139.9070   69.8540  224.4390 N   0  0  0  0  0  0  0  0  0  0  0  0
  145.0501   69.7625  220.1777 H   0  0  0  0  0  0  0  0  0  0  0  0
  144.1052   70.1184  218.6920 H   0  0  0  0  0  0  0  0  0  0  0  0
  145.8897   70.3235  218.6920 H   0  0  0  0  0  0  0  0  0  0  0  0
  146.8919   71.8714  220.3098 H   0  0  0  0  0  0  0  0  0  0  0  0
  146.8382   74.2198  221.1024 H   0  0  0  0  0  0  0  0  0  0  0  0
  144.6778   75.4830  220.9544 H   0  0  0  0  0  0  0  0  0  0  0  0
  142.6897   74.3827  220.0451 H   0  0  0  0  0  0  0  0  0  0  0  0
  142.5629   70.7418  219.0581 H   0  0  0  0  0  0  0  0  0  0  0  0
  141.7749   73.3568  217.7396 H   0  0  0  0  0  0  0  0  0  0  0  0
  143.1707   72.3840  217.1633 H   0  0  0  0  0  0  0  0  0  0  0  0
  141.5205   71.6745  217.1633 H   0  0  0  0  0  0  0  0  0  0  0  0
  141.3330   72.8120  220.7430 H   0  0  0  0  0  0  0  0  0  0  0  0
  138.7355   72.8436  220.7765 H   0  0  0  0  0  0  0  0  0  0  0  0
  137.9349   71.3535  220.2383 H   0  0  0  0  0  0  0  0  0  0  0  0
  138.7760   70.1870  222.1850 H   0  0  0  0  0  0  0  0  0  0  0  0
  141.0481   72.9433  225.0518 H   0  0  0  0  0  0  0  0  0  0  0  0
  141.5478   71.9588  227.2590 H   0  0  0  0  0  0  0  0  0  0  0  0
  141.5112   70.1134  228.6924 H   0  0  0  0  0  0  0  0  0  0  0  0
  139.9154   66.3847  227.3492 H   0  0  0  0  0  0  0  0  0  0  0  0
  139.4107   67.3709  225.1302 H   0  0  0  0  0  0  0  0  0  0  0  0
  1  2  1  0
  2  3  2  0
  3  4  1  0
  4  5  2  0
  5  6  1  0
  6  7  2  0
  7  8  1  0
  8  9  1  0
  8 10  1  0
 10 11  1  0
 11 12  2  0
 11 13  1  0
 13 14  1  0
 14 15  1  0
 15 16  2  0
 15 17  1  0
 17 18  2  0
 18 19  1  0
 19 20  2  0
 20 21  1  0
 21 22  2  0
 22 23  1  0
 22 24  1  0
 24 25  2  0
 25 26  1  0
 26 27  2  0
  7  2  1  0
 27 17  1  0
 26 20  1  0
  1 28  1  0
  1 29  1  0
  1 30  1  0
  3 31  1  0
  4 32  1  0
  5 33  1  0
  6 34  1  0
  8 35  1  6
  9 36  1  0
  9 37  1  0
  9 38  1  0
 10 39  1  0
 13 40  1  0
 13 41  1  0
 14 42  1  0
 18 43  1  0
 19 44  1  0
 21 45  1  0
 24 46  1  0
 25 47  1  0
M  END
>  <smiles>  (45) 
Cc1ccccc1[C@H](C)NC(=O)CNC(=O)c1ccc2cc(F)ccc2n1

>  <score_type>  (45) 
oracle

>  <origin>  (45) 
autodockgpu

>  <m_score__min__energy>  (45) 
-8.6999999999999993

>  <m_primary>  (45) 
energy

>  <rmsd>  (45) 
7.2719972243734965

>  <m_score__min__rmsd>  (45) 
7.2719972243734965

>  <meeko>  (45) 
{"free_energy": -7.1, "intermolecular_energy": -8.6, "internal_energy": -2.09, "cluster_size": 1, "cluster_id": 6, "rank_in_cluster": 1}

>  <energy>  (45) 
-7.66

>  <cluster_rmsd>  (45) 
0.0

>  <cluster>  (45) 
4

$$$$

     RDKit          3D

 47 49  0  0  0  0  0  0  0  0999 V2000
  139.8510   67.7880  226.7800 C   0  0  0  0  0  0  0  0  0  0  0  0
  140.1960   69.2230  226.7280 C   0  0  0  0  0  0  0  0  0  0  0  0
  140.6770   69.7880  227.9120 C   0  0  0  0  0  0  0  0  0  0  0  0
  141.0340   71.1170  227.9940 C   0  0  0  0  0  0  0  0  0  0  0  0
  140.9030   71.8940  226.8570 C   0  0  0  0  0  0  0  0  0  0  0  0
  140.4290   71.3240  225.7020 C   0  0  0  0  0  0  0  0  0  0  0  0
  140.0690   70.0040  225.5990 C   0  0  0  0  0  0  0  0  0  0  0  0
  139.5550   69.3820  224.3510 C   0  0  2  0  0  0  0  0  0  0  0  0
  139.7500   70.3680  223.2230 C   0  0  0  0  0  0  0  0  0  0  0  0
  138.1540   69.0580  224.5410 N   0  0  0  0  0  0  0  0  0  0  0  0
  137.1330   70.0710  224.5750 C   0  0  0  0  0  0  0  0  0  0  0  0
  137.5330   71.2620  224.4280 O   0  0  0  0  0  0  0  0  0  0  0  0
  135.7000   69.7450  224.7680 C   0  0  0  0  0  0  0  0  0  0  0  0
  135.0560   70.9670  225.2320 N   0  0  0  0  0  0  0  0  0  0  0  0
  133.9200   70.9400  226.0880 C   0  0  0  0  0  0  0  0  0  0  0  0
  133.4350   69.8220  226.4750 O   0  0  0  0  0  0  0  0  0  0  0  0
  133.3120   72.2000  226.5240 C   0  0  0  0  0  0  0  0  0  0  0  0
  132.0790   72.1610  227.1590 C   0  0  0  0  0  0  0  0  0  0  0  0
  131.4380   73.2880  227.5980 C   0  0  0  0  0  0  0  0  0  0  0  0
  132.0650   74.4980  227.3900 C   0  0  0  0  0  0  0  0  0  0  0  0
  131.4180   75.6320  227.8340 C   0  0  0  0  0  0  0  0  0  0  0  0
  132.0080   76.8590  227.6450 C   0  0  0  0  0  0  0  0  0  0  0  0
  131.3390   77.9480  228.0960 F   0  0  0  0  0  0  0  0  0  0  0  0
  133.2250   76.9100  227.0200 C   0  0  0  0  0  0  0  0  0  0  0  0
  133.8740   75.7570  226.5730 C   0  0  0  0  0  0  0  0  0  0  0  0
  133.2860   74.5130  226.7590 C   0  0  0  0  0  0  0  0  0  0  0  0
  133.9110   73.3950  226.3270 N   0  0  0  0  0  0  0  0  0  0  0  0
  139.7739   67.4672  227.8294 H   0  0  0  0  0  0  0  0  0  0  0  0
  138.8878   67.6239  226.2747 H   0  0  0  0  0  0  0  0  0  0  0  0
  140.6343   67.2040  226.2747 H   0  0  0  0  0  0  0  0  0  0  0  0
  140.7737   69.1534  228.8053 H   0  0  0  0  0  0  0  0  0  0  0  0
  141.4112   71.5461  228.9340 H   0  0  0  0  0  0  0  0  0  0  0  0
  141.1763   72.9593  226.8784 H   0  0  0  0  0  0  0  0  0  0  0  0
  140.3324   71.9603  224.8099 H   0  0  0  0  0  0  0  0  0  0  0  0
  140.0924   68.4541  224.1057 H   0  0  0  0  0  0  0  0  0  0  0  0
  139.9476   71.3669  223.6392 H   0  0  0  0  0  0  0  0  0  0  0  0
  140.6033   70.0532  222.6043 H   0  0  0  0  0  0  0  0  0  0  0  0
  138.8411   70.4018  222.6043 H   0  0  0  0  0  0  0  0  0  0  0  0
  137.8030   68.0780  224.6630 H   0  0  0  0  0  0  0  0  0  0  0  0
  135.2535   69.4176  223.8175 H   0  0  0  0  0  0  0  0  0  0  0  0
  135.5723   68.9282  225.4936 H   0  0  0  0  0  0  0  0  0  0  0  0
  135.4340   71.9100  224.9290 H   0  0  0  0  0  0  0  0  0  0  0  0
  131.5970   71.1848  227.3160 H   0  0  0  0  0  0  0  0  0  0  0  0
  130.4598   73.2304  228.0978 H   0  0  0  0  0  0  0  0  0  0  0  0
  130.4410   75.5555  228.3336 H   0  0  0  0  0  0  0  0  0  0  0  0
  133.7055   77.8874  226.8655 H   0  0  0  0  0  0  0  0  0  0  0  0
  134.8510   75.8344  226.0735 H   0  0  0  0  0  0  0  0  0  0  0  0
  1  2  1  0
  2  3  2  0
  3  4  1  0
  4  5  2  0
  5  6  1  0
  6  7  2  0
  7  8  1  0
  8  9  1  0
  8 10  1  0
 10 11  1  0
 11 12  2  0
 11 13  1  0
 13 14  1  0
 14 15  1  0
 15 16  2  0
 15 17  1  0
 17 18  2  0
 18 19  1  0
 19 20  2  0
 20 21  1  0
 21 22  2  0
 22 23  1  0
 22 24  1  0
 24 25  2  0
 25 26  1  0
 26 27  2  0
  7  2  1  0
 27 17  1  0
 26 20  1  0
  1 28  1  0
  1 29  1  0
  1 30  1  0
  3 31  1  0
  4 32  1  0
  5 33  1  0
  6 34  1  0
  8 35  1  6
  9 36  1  0
  9 37  1  0
  9 38  1  0
 10 39  1  0
 13 40  1  0
 13 41  1  0
 14 42  1  0
 18 43  1  0
 19 44  1  0
 21 45  1  0
 24 46  1  0
 25 47  1  0
M  END
>  <smiles>  (46) 
Cc1ccccc1[C@H](C)NC(=O)CNC(=O)c1ccc2cc(F)ccc2n1

>  <score_type>  (46) 
oracle

>  <origin>  (46) 
autodockgpu

>  <m_score__min__energy>  (46) 
-8.6999999999999993

>  <m_primary>  (46) 
energy

>  <rmsd>  (46) 
10.562503881165773

>  <m_score__min__rmsd>  (46) 
10.562503881165773

>  <meeko>  (46) 
{"free_energy": -8.32, "intermolecular_energy": -9.81, "internal_energy": -1.72, "cluster_size": 13, "cluster_id": 2, "rank_in_cluster": 6}

>  <energy>  (46) 
-7.65

>  <cluster_rmsd>  (46) 
0.12

>  <cluster>  (46) 
4

$$$$

     RDKit          3D

 47 49  0  0  0  0  0  0  0  0999 V2000
  141.2620   79.6110  220.0960 C   0  0  0  0  0  0  0  0  0  0  0  0
  141.5430   79.6370  221.5460 C   0  0  0  0  0  0  0  0  0  0  0  0
  142.5480   80.5100  221.9680 C   0  0  0  0  0  0  0  0  0  0  0  0
  142.9050   80.6280  223.2940 C   0  0  0  0  0  0  0  0  0  0  0  0
  142.2320   79.8460  224.2170 C   0  0  0  0  0  0  0  0  0  0  0  0
  141.2470   78.9920  223.7860 C   0  0  0  0  0  0  0  0  0  0  0  0
  140.8770   78.8620  222.4710 C   0  0  0  0  0  0  0  0  0  0  0  0
  139.8110   77.9400  222.0000 C   0  0  2  0  0  0  0  0  0  0  0  0
  138.7270   77.9030  223.0520 C   0  0  0  0  0  0  0  0  0  0  0  0
  140.3950   76.6290  221.7900 N   0  0  0  0  0  0  0  0  0  0  0  0
  139.6830   75.5720  221.1230 C   0  0  0  0  0  0  0  0  0  0  0  0
  138.5150   75.8580  220.7300 O   0  0  0  0  0  0  0  0  0  0  0  0
  140.2760   74.2310  220.9050 C   0  0  0  0  0  0  0  0  0  0  0  0
  140.0590   73.4780  222.1340 N   0  0  0  0  0  0  0  0  0  0  0  0
  140.5030   72.1350  222.2810 C   0  0  0  0  0  0  0  0  0  0  0  0
  141.1130   71.5520  221.3200 O   0  0  0  0  0  0  0  0  0  0  0  0
  140.2570   71.4240  223.5390 C   0  0  0  0  0  0  0  0  0  0  0  0
  139.5390   70.2380  223.5060 C   0  0  0  0  0  0  0  0  0  0  0  0
  139.2630   69.5090  224.6310 C   0  0  0  0  0  0  0  0  0  0  0  0
  139.7290   69.9960  225.8340 C   0  0  0  0  0  0  0  0  0  0  0  0
  139.4510   69.2610  226.9670 C   0  0  0  0  0  0  0  0  0  0  0  0
  139.8970   69.7110  228.1860 C   0  0  0  0  0  0  0  0  0  0  0  0
  139.6010   68.9590  229.2750 F   0  0  0  0  0  0  0  0  0  0  0  0
  140.6060   70.8810  228.2320 C   0  0  0  0  0  0  0  0  0  0  0  0
  140.8840   71.6200  227.0800 C   0  0  0  0  0  0  0  0  0  0  0  0
  140.4380   71.1740  225.8440 C   0  0  0  0  0  0  0  0  0  0  0  0
  140.7060   71.8870  224.7270 N   0  0  0  0  0  0  0  0  0  0  0  0
  140.1786   79.5108  219.9342 H   0  0  0  0  0  0  0  0  0  0  0  0
  141.6163   80.5458  219.6370 H   0  0  0  0  0  0  0  0  0  0  0  0
  141.7818   78.7571  219.6370 H   0  0  0  0  0  0  0  0  0  0  0  0
  143.0710   81.1225  221.2188 H   0  0  0  0  0  0  0  0  0  0  0  0
  143.6990   81.3212  223.6087 H   0  0  0  0  0  0  0  0  0  0  0  0
  142.4840   79.9082  225.2859 H   0  0  0  0  0  0  0  0  0  0  0  0
  140.7260   78.3785  224.5358 H   0  0  0  0  0  0  0  0  0  0  0  0
  139.3706   78.2768  221.0500 H   0  0  0  0  0  0  0  0  0  0  0  0
  139.1856   77.9187  224.0517 H   0  0  0  0  0  0  0  0  0  0  0  0
  138.0725   78.7793  222.9351 H   0  0  0  0  0  0  0  0  0  0  0  0
  138.1338   76.9841  222.9351 H   0  0  0  0  0  0  0  0  0  0  0  0
  141.3610   76.3730  222.1070 H   0  0  0  0  0  0  0  0  0  0  0  0
  139.7817   73.7297  220.0598 H   0  0  0  0  0  0  0  0  0  0  0  0
  141.3474   74.3037  220.6668 H   0  0  0  0  0  0  0  0  0  0  0  0
  139.5550   73.9330  222.9490 H   0  0  0  0  0  0  0  0  0  0  0  0
  139.1764   69.8679  222.5357 H   0  0  0  0  0  0  0  0  0  0  0  0
  138.6914   68.5707  224.5776 H   0  0  0  0  0  0  0  0  0  0  0  0
  138.8784   68.3245  226.8956 H   0  0  0  0  0  0  0  0  0  0  0  0
  140.9669   71.2495  229.2036 H   0  0  0  0  0  0  0  0  0  0  0  0
  141.4569   72.5562  227.1525 H   0  0  0  0  0  0  0  0  0  0  0  0
  1  2  1  0
  2  3  2  0
  3  4  1  0
  4  5  2  0
  5  6  1  0
  6  7  2  0
  7  8  1  0
  8  9  1  0
  8 10  1  0
 10 11  1  0
 11 12  2  0
 11 13  1  0
 13 14  1  0
 14 15  1  0
 15 16  2  0
 15 17  1  0
 17 18  2  0
 18 19  1  0
 19 20  2  0
 20 21  1  0
 21 22  2  0
 22 23  1  0
 22 24  1  0
 24 25  2  0
 25 26  1  0
 26 27  2  0
  7  2  1  0
 27 17  1  0
 26 20  1  0
  1 28  1  0
  1 29  1  0
  1 30  1  0
  3 31  1  0
  4 32  1  0
  5 33  1  0
  6 34  1  0
  8 35  1  6
  9 36  1  0
  9 37  1  0
  9 38  1  0
 10 39  1  0
 13 40  1  0
 13 41  1  0
 14 42  1  0
 18 43  1  0
 19 44  1  0
 21 45  1  0
 24 46  1  0
 25 47  1  0
M  END
>  <smiles>  (47) 
Cc1ccccc1[C@H](C)NC(=O)CNC(=O)c1ccc2cc(F)ccc2n1

>  <score_type>  (47) 
oracle

>  <origin>  (47) 
autodockgpu

>  <m_score__min__energy>  (47) 
-8.6999999999999993

>  <m_primary>  (47) 
energy

>  <rmsd>  (47) 
4.141432177016412

>  <m_score__min__rmsd>  (47) 
4.141432177016412

>  <meeko>  (47) 
{"free_energy": -8.54, "intermolecular_energy": -10.03, "internal_energy": -1.04, "cluster_size": 30, "cluster_id": 1, "rank_in_cluster": 9}

>  <energy>  (47) 
-7.6

>  <cluster_rmsd>  (47) 
0.11

>  <cluster>  (47) 
4

$$$$

     RDKit          3D

 47 49  0  0  0  0  0  0  0  0999 V2000
  139.9050   68.1150  227.2770 C   0  0  0  0  0  0  0  0  0  0  0  0
  140.2440   69.5350  227.0540 C   0  0  0  0  0  0  0  0  0  0  0  0
  140.7030   70.2450  228.1670 C   0  0  0  0  0  0  0  0  0  0  0  0
  141.0520   71.5770  228.0900 C   0  0  0  0  0  0  0  0  0  0  0  0
  140.9360   72.2070  226.8630 C   0  0  0  0  0  0  0  0  0  0  0  0
  140.4840   71.4950  225.7800 C   0  0  0  0  0  0  0  0  0  0  0  0
  140.1320   70.1700  225.8360 C   0  0  0  0  0  0  0  0  0  0  0  0
  139.6420   69.3950  224.6660 C   0  0  2  0  0  0  0  0  0  0  0  0
  139.8280   70.2450  223.4310 C   0  0  0  0  0  0  0  0  0  0  0  0
  138.2460   69.0670  224.8820 N   0  0  0  0  0  0  0  0  0  0  0  0
  137.1900   70.0080  224.6170 C   0  0  0  0  0  0  0  0  0  0  0  0
  137.5550   71.1380  224.1820 O   0  0  0  0  0  0  0  0  0  0  0  0
  135.7620   69.6770  224.8360 C   0  0  0  0  0  0  0  0  0  0  0  0
  135.1140   70.9080  225.2750 N   0  0  0  0  0  0  0  0  0  0  0  0
  133.9430   70.8950  226.0810 C   0  0  0  0  0  0  0  0  0  0  0  0
  133.4260   69.7830  226.4450 O   0  0  0  0  0  0  0  0  0  0  0  0
  133.3330   72.1630  226.4930 C   0  0  0  0  0  0  0  0  0  0  0  0
  132.1110   72.1330  227.1470 C   0  0  0  0  0  0  0  0  0  0  0  0
  131.4690   73.2680  227.5660 C   0  0  0  0  0  0  0  0  0  0  0  0
  132.0850   74.4760  227.3160 C   0  0  0  0  0  0  0  0  0  0  0  0
  131.4380   75.6170  227.7390 C   0  0  0  0  0  0  0  0  0  0  0  0
  132.0170   76.8420  227.5090 C   0  0  0  0  0  0  0  0  0  0  0  0
  131.3470   77.9390  227.9410 F   0  0  0  0  0  0  0  0  0  0  0  0
  133.2230   76.8840  226.8630 C   0  0  0  0  0  0  0  0  0  0  0  0
  133.8730   75.7230  226.4380 C   0  0  0  0  0  0  0  0  0  0  0  0
  133.2960   74.4810  226.6660 C   0  0  0  0  0  0  0  0  0  0  0  0
  133.9220   73.3560  226.2550 N   0  0  0  0  0  0  0  0  0  0  0  0
  139.8572   67.9148  228.3576 H   0  0  0  0  0  0  0  0  0  0  0  0
  138.9291   67.8948  226.8198 H   0  0  0  0  0  0  0  0  0  0  0  0
  140.6762   67.4777  226.8198 H   0  0  0  0  0  0  0  0  0  0  0  0
  140.7884   69.7259  229.1331 H   0  0  0  0  0  0  0  0  0  0  0  0
  141.4112   72.1215  228.9757 H   0  0  0  0  0  0  0  0  0  0  0  0
  141.2036   73.2686  226.7568 H   0  0  0  0  0  0  0  0  0  0  0  0
  140.3993   72.0151  224.8144 H   0  0  0  0  0  0  0  0  0  0  0  0
  140.2001   68.4560  224.5362 H   0  0  0  0  0  0  0  0  0  0  0  0
  140.0544   71.2795  223.7286 H   0  0  0  0  0  0  0  0  0  0  0  0
  140.6599   69.8452  222.8326 H   0  0  0  0  0  0  0  0  0  0  0  0
  138.9051   70.2292  222.8326 H   0  0  0  0  0  0  0  0  0  0  0  0
  137.9240   68.1380  225.2410 H   0  0  0  0  0  0  0  0  0  0  0  0
  135.3067   69.3207  223.9002 H   0  0  0  0  0  0  0  0  0  0  0  0
  135.6489   68.8791  225.5847 H   0  0  0  0  0  0  0  0  0  0  0  0
  135.5180   71.8460  224.9890 H   0  0  0  0  0  0  0  0  0  0  0  0
  131.6379   71.1583  227.3371 H   0  0  0  0  0  0  0  0  0  0  0  0
  130.4990   73.2178  228.0822 H   0  0  0  0  0  0  0  0  0  0  0  0
  130.4690   75.5480  228.2550 H   0  0  0  0  0  0  0  0  0  0  0  0
  133.6937   77.8599  226.6731 H   0  0  0  0  0  0  0  0  0  0  0  0
  134.8422   75.7928  225.9226 H   0  0  0  0  0  0  0  0  0  0  0  0
  1  2  1  0
  2  3  2  0
  3  4  1  0
  4  5  2  0
  5  6  1  0
  6  7  2  0
  7  8  1  0
  8  9  1  0
  8 10  1  0
 10 11  1  0
 11 12  2  0
 11 13  1  0
 13 14  1  0
 14 15  1  0
 15 16  2  0
 15 17  1  0
 17 18  2  0
 18 19  1  0
 19 20  2  0
 20 21  1  0
 21 22  2  0
 22 23  1  0
 22 24  1  0
 24 25  2  0
 25 26  1  0
 26 27  2  0
  7  2  1  0
 27 17  1  0
 26 20  1  0
  1 28  1  0
  1 29  1  0
  1 30  1  0
  3 31  1  0
  4 32  1  0
  5 33  1  0
  6 34  1  0
  8 35  1  6
  9 36  1  0
  9 37  1  0
  9 38  1  0
 10 39  1  0
 13 40  1  0
 13 41  1  0
 14 42  1  0
 18 43  1  0
 19 44  1  0
 21 45  1  0
 24 46  1  0
 25 47  1  0
M  END
>  <smiles>  (48) 
Cc1ccccc1[C@H](C)NC(=O)CNC(=O)c1ccc2cc(F)ccc2n1

>  <score_type>  (48) 
oracle

>  <origin>  (48) 
autodockgpu

>  <m_score__min__energy>  (48) 
-8.6999999999999993

>  <m_primary>  (48) 
energy

>  <rmsd>  (48) 
10.513775945002271

>  <m_score__min__rmsd>  (48) 
10.513775945002271

>  <meeko>  (48) 
{"free_energy": -8.39, "intermolecular_energy": -9.88, "internal_energy": -1.49, "cluster_size": 13, "cluster_id": 2, "rank_in_cluster": 1}

>  <energy>  (48) 
-7.28

>  <cluster_rmsd>  (48) 
0.58

>  <cluster>  (48) 
4

$$$$

     RDKit          3D

 47 49  0  0  0  0  0  0  0  0999 V2000
  141.6880   79.6740  219.9400 C   0  0  0  0  0  0  0  0  0  0  0  0
  141.5450   79.4650  221.3940 C   0  0  0  0  0  0  0  0  0  0  0  0
  142.5800   79.9520  222.1960 C   0  0  0  0  0  0  0  0  0  0  0  0
  142.5660   79.8200  223.5680 C   0  0  0  0  0  0  0  0  0  0  0  0
  141.4820   79.1820  224.1460 C   0  0  0  0  0  0  0  0  0  0  0  0
  140.4730   78.7080  223.3440 C   0  0  0  0  0  0  0  0  0  0  0  0
  140.4690   78.8300  221.9770 C   0  0  0  0  0  0  0  0  0  0  0  0
  139.3790   78.3200  221.1050 C   0  0  2  0  0  0  0  0  0  0  0  0
  138.0970   78.3310  221.9050 C   0  0  0  0  0  0  0  0  0  0  0  0
  139.7250   76.9800  220.6710 N   0  0  0  0  0  0  0  0  0  0  0  0
  139.6580   75.8480  221.5570 C   0  0  0  0  0  0  0  0  0  0  0  0
  139.2770   76.0940  222.7380 O   0  0  0  0  0  0  0  0  0  0  0  0
  140.0110   74.4770  221.1180 C   0  0  0  0  0  0  0  0  0  0  0  0
  139.8800   73.6200  222.2900 N   0  0  0  0  0  0  0  0  0  0  0  0
  140.4220   72.3060  222.3240 C   0  0  0  0  0  0  0  0  0  0  0  0
  141.0470   71.8420  221.3090 O   0  0  0  0  0  0  0  0  0  0  0  0
  140.2610   71.4870  223.5290 C   0  0  0  0  0  0  0  0  0  0  0  0
  139.6240   70.2590  223.4210 C   0  0  0  0  0  0  0  0  0  0  0  0
  139.4300   69.4310  224.4930 C   0  0  0  0  0  0  0  0  0  0  0  0
  139.8960   69.8570  225.7190 C   0  0  0  0  0  0  0  0  0  0  0  0
  139.7000   69.0210  226.7980 C   0  0  0  0  0  0  0  0  0  0  0  0
  140.1490   69.4080  228.0370 C   0  0  0  0  0  0  0  0  0  0  0  0
  139.9360   68.5580  229.0710 F   0  0  0  0  0  0  0  0  0  0  0  0
  140.7780   70.6180  228.1570 C   0  0  0  0  0  0  0  0  0  0  0  0
  140.9730   71.4590  227.0590 C   0  0  0  0  0  0  0  0  0  0  0  0
  140.5240   71.0780  225.8030 C   0  0  0  0  0  0  0  0  0  0  0  0
  140.7100   71.8900  224.7390 N   0  0  0  0  0  0  0  0  0  0  0  0
  142.3005   80.5692  219.7567 H   0  0  0  0  0  0  0  0  0  0  0  0
  142.1763   78.7971  219.4898 H   0  0  0  0  0  0  0  0  0  0  0  0
  140.6938   79.8115  219.4898 H   0  0  0  0  0  0  0  0  0  0  0  0
  143.4326   80.4564  221.7178 H   0  0  0  0  0  0  0  0  0  0  0  0
  143.3900   80.2093  224.1840 H   0  0  0  0  0  0  0  0  0  0  0  0
  141.4293   79.0559  225.2375 H   0  0  0  0  0  0  0  0  0  0  0  0
  139.6215   78.2029  223.8234 H   0  0  0  0  0  0  0  0  0  0  0  0
  139.2437   78.9472  220.2115 H   0  0  0  0  0  0  0  0  0  0  0  0
  138.3350   78.3290  222.9790 H   0  0  0  0  0  0  0  0  0  0  0  0
  137.5191   79.2341  221.6592 H   0  0  0  0  0  0  0  0  0  0  0  0
  137.5037   77.4379  221.6592 H   0  0  0  0  0  0  0  0  0  0  0  0
  140.0430   76.7560  219.6980 H   0  0  0  0  0  0  0  0  0  0  0  0
  139.3254   74.1436  220.3250 H   0  0  0  0  0  0  0  0  0  0  0  0
  141.0322   74.4405  220.7109 H   0  0  0  0  0  0  0  0  0  0  0  0
  139.3670   73.9750  223.1470 H   0  0  0  0  0  0  0  0  0  0  0  0
  139.2603   69.9382  222.4337 H   0  0  0  0  0  0  0  0  0  0  0  0
  138.9215   68.4620  224.3810 H   0  0  0  0  0  0  0  0  0  0  0  0
  139.1898   68.0552  226.6679 H   0  0  0  0  0  0  0  0  0  0  0  0
  141.1399   70.9368  229.1456 H   0  0  0  0  0  0  0  0  0  0  0  0
  141.4832   72.4246  227.1904 H   0  0  0  0  0  0  0  0  0  0  0  0
  1  2  1  0
  2  3  2  0
  3  4  1  0
  4  5  2  0
  5  6  1  0
  6  7  2  0
  7  8  1  0
  8  9  1  0
  8 10  1  0
 10 11  1  0
 11 12  2  0
 11 13  1  0
 13 14  1  0
 14 15  1  0
 15 16  2  0
 15 17  1  0
 17 18  2  0
 18 19  1  0
 19 20  2  0
 20 21  1  0
 21 22  2  0
 22 23  1  0
 22 24  1  0
 24 25  2  0
 25 26  1  0
 26 27  2  0
  7  2  1  0
 27 17  1  0
 26 20  1  0
  1 28  1  0
  1 29  1  0
  1 30  1  0
  3 31  1  0
  4 32  1  0
  5 33  1  0
  6 34  1  0
  8 35  1  6
  9 36  1  0
  9 37  1  0
  9 38  1  0
 10 39  1  0
 13 40  1  0
 13 41  1  0
 14 42  1  0
 18 43  1  0
 19 44  1  0
 21 45  1  0
 24 46  1  0
 25 47  1  0
M  END
>  <smiles>  (49) 
Cc1ccccc1[C@H](C)NC(=O)CNC(=O)c1ccc2cc(F)ccc2n1

>  <score_type>  (49) 
oracle

>  <origin>  (49) 
autodockgpu

>  <m_score__min__energy>  (49) 
-8.6999999999999993

>  <m_primary>  (49) 
energy

>  <rmsd>  (49) 
4.285385217627114

>  <m_score__min__rmsd>  (49) 
4.285385217627114

>  <meeko>  (49) 
{"free_energy": -8.33, "intermolecular_energy": -9.83, "internal_energy": -1.52, "cluster_size": 30, "cluster_id": 1, "rank_in_cluster": 14}

>  <energy>  (49) 
-7.62

>  <cluster_rmsd>  (49) 
0.0

>  <cluster>  (49) 
5

$$$$

     RDKit          3D

 47 49  0  0  0  0  0  0  0  0999 V2000
  141.8230   78.9070  219.8620 C   0  0  0  0  0  0  0  0  0  0  0  0
  141.5290   79.0520  221.3020 C   0  0  0  0  0  0  0  0  0  0  0  0
  142.5700   79.5280  222.1030 C   0  0  0  0  0  0  0  0  0  0  0  0
  142.4220   79.7080  223.4620 C   0  0  0  0  0  0  0  0  0  0  0  0
  141.1960   79.4000  224.0260 C   0  0  0  0  0  0  0  0  0  0  0  0
  140.1840   78.9330  223.2260 C   0  0  0  0  0  0  0  0  0  0  0  0
  140.3110   78.7480  221.8720 C   0  0  0  0  0  0  0  0  0  0  0  0
  139.2180   78.2430  221.0010 C   0  0  2  0  0  0  0  0  0  0  0  0
  137.9330   78.2760  221.7960 C   0  0  0  0  0  0  0  0  0  0  0  0
  139.5500   76.8950  220.5790 N   0  0  0  0  0  0  0  0  0  0  0  0
  139.7310   75.8230  221.5210 C   0  0  0  0  0  0  0  0  0  0  0  0
  139.5820   76.1280  222.7390 O   0  0  0  0  0  0  0  0  0  0  0  0
  140.0710   74.4440  221.0950 C   0  0  0  0  0  0  0  0  0  0  0  0
  139.9580   73.6040  222.2810 N   0  0  0  0  0  0  0  0  0  0  0  0
  140.3650   72.2420  222.2790 C   0  0  0  0  0  0  0  0  0  0  0  0
  140.8500   71.7180  221.2170 O   0  0  0  0  0  0  0  0  0  0  0  0
  140.2290   71.4430  223.5000 C   0  0  0  0  0  0  0  0  0  0  0  0
  139.6140   70.2020  223.4200 C   0  0  0  0  0  0  0  0  0  0  0  0
  139.4430   69.3910  224.5090 C   0  0  0  0  0  0  0  0  0  0  0  0
  139.9110   69.8480  225.7230 C   0  0  0  0  0  0  0  0  0  0  0  0
  139.7390   69.0290  226.8180 C   0  0  0  0  0  0  0  0  0  0  0  0
  140.1900   69.4470  228.0470 C   0  0  0  0  0  0  0  0  0  0  0  0
  140.0010   68.6120  229.0980 F   0  0  0  0  0  0  0  0  0  0  0  0
  140.7980   70.6700  228.1390 C   0  0  0  0  0  0  0  0  0  0  0  0
  140.9690   71.4940  227.0240 C   0  0  0  0  0  0  0  0  0  0  0  0
  140.5170   71.0810  225.7790 C   0  0  0  0  0  0  0  0  0  0  0  0
  140.6800   71.8760  224.6980 N   0  0  0  0  0  0  0  0  0  0  0  0
  142.8029   78.4237  219.7347 H   0  0  0  0  0  0  0  0  0  0  0  0
  141.0452   78.2892  219.3894 H   0  0  0  0  0  0  0  0  0  0  0  0
  141.8398   79.9001  219.3894 H   0  0  0  0  0  0  0  0  0  0  0  0
  143.5368   79.7663  221.6354 H   0  0  0  0  0  0  0  0  0  0  0  0
  143.2517   80.0844  224.0783 H   0  0  0  0  0  0  0  0  0  0  0  0
  141.0345   79.5286  225.1065 H   0  0  0  0  0  0  0  0  0  0  0  0
  139.2183   78.6938  223.6953 H   0  0  0  0  0  0  0  0  0  0  0  0
  139.0931   78.8642  220.1018 H   0  0  0  0  0  0  0  0  0  0  0  0
  138.1666   78.2700  222.8709 H   0  0  0  0  0  0  0  0  0  0  0  0
  137.3717   79.1889  221.5479 H   0  0  0  0  0  0  0  0  0  0  0  0
  137.3255   77.3932  221.5479 H   0  0  0  0  0  0  0  0  0  0  0  0
  139.6770   76.6230  219.5760 H   0  0  0  0  0  0  0  0  0  0  0  0
  139.3699   74.1023  220.3193 H   0  0  0  0  0  0  0  0  0  0  0  0
  141.0846   74.3977  220.6702 H   0  0  0  0  0  0  0  0  0  0  0  0
  139.5600   74.0090  223.1770 H   0  0  0  0  0  0  0  0  0  0  0  0
  139.2491   69.8559  222.4417 H   0  0  0  0  0  0  0  0  0  0  0  0
  138.9507   68.4114  224.4193 H   0  0  0  0  0  0  0  0  0  0  0  0
  139.2462   68.0516  226.7094 H   0  0  0  0  0  0  0  0  0  0  0  0
  141.1622   71.0136  229.1185 H   0  0  0  0  0  0  0  0  0  0  0  0
  141.4624   72.4711  227.1332 H   0  0  0  0  0  0  0  0  0  0  0  0
  1  2  1  0
  2  3  2  0
  3  4  1  0
  4  5  2  0
  5  6  1  0
  6  7  2  0
  7  8  1  0
  8  9  1  0
  8 10  1  0
 10 11  1  0
 11 12  2  0
 11 13  1  0
 13 14  1  0
 14 15  1  0
 15 16  2  0
 15 17  1  0
 17 18  2  0
 18 19  1  0
 19 20  2  0
 20 21  1  0
 21 22  2  0
 22 23  1  0
 22 24  1  0
 24 25  2  0
 25 26  1  0
 26 27  2  0
  7  2  1  0
 27 17  1  0
 26 20  1  0
  1 28  1  0
  1 29  1  0
  1 30  1  0
  3 31  1  0
  4 32  1  0
  5 33  1  0
  6 34  1  0
  8 35  1  6
  9 36  1  0
  9 37  1  0
  9 38  1  0
 10 39  1  0
 13 40  1  0
 13 41  1  0
 14 42  1  0
 18 43  1  0
 19 44  1  0
 21 45  1  0
 24 46  1  0
 25 47  1  0
M  END
>  <smiles>  (50) 
Cc1ccccc1[C@H](C)NC(=O)CNC(=O)c1ccc2cc(F)ccc2n1

>  <score_type>  (50) 
oracle

>  <origin>  (50) 
autodockgpu

>  <m_score__min__energy>  (50) 
-8.6999999999999993

>  <m_primary>  (50) 
energy

>  <rmsd>  (50) 
4.3739340897993175

>  <m_score__min__rmsd>  (50) 
4.3739340897993175

>  <meeko>  (50) 
{"free_energy": -8.13, "intermolecular_energy": -9.62, "internal_energy": -1.67, "cluster_size": 30, "cluster_id": 1, "rank_in_cluster": 21}

>  <energy>  (50) 
-7.1

>  <cluster_rmsd>  (50) 
0.0

>  <cluster>  (50) 
6

$$$$
