
     RDKit          3D

 44 46  0  0  0  0  0  0  0  0999 V2000
  136.5940   75.8690  223.4700 C   0  0  0  0  0  0  0  0  0  0  0  0
  137.5480   75.9610  222.3060 C   0  0  2  0  0  0  0  0  0  0  0  0
  138.0970   74.6720  221.9480 N   0  0  0  0  0  0  0  0  0  0  0  0
  137.3320   73.6380  221.3550 C   0  0  0  0  0  0  0  0  0  0  0  0
  136.0960   73.7890  221.1000 O   0  0  0  0  0  0  0  0  0  0  0  0
  138.0480   72.3640  221.0440 C   0  0  0  0  0  0  0  0  0  0  0  0
  138.4570   71.6770  222.2540 N   0  0  0  0  0  0  0  0  0  0  0  0
  139.5970   72.0950  222.9940 C   0  0  0  0  0  0  0  0  0  0  0  0
  140.3190   73.0740  222.6560 O   0  0  0  0  0  0  0  0  0  0  0  0
  139.9470   71.3570  224.2020 C   0  0  0  0  0  0  0  0  0  0  0  0
  140.7780   71.8910  225.1650 C   0  0  0  0  0  0  0  0  0  0  0  0
  141.1100   71.1810  226.3180 C   0  0  0  0  0  0  0  0  0  0  0  0
  140.5980   69.9080  226.5090 C   0  0  0  0  0  0  0  0  0  0  0  0
  140.9040   69.1710  227.6400 C   0  0  0  0  0  0  0  0  0  0  0  0
  140.3670   67.8890  227.7980 C   0  0  0  0  0  0  0  0  0  0  0  0
  139.5370   67.3640  226.8290 C   0  0  0  0  0  0  0  0  0  0  0  0
  139.2400   68.1190  225.6980 C   0  0  0  0  0  0  0  0  0  0  0  0
  139.7710   69.3970  225.5330 C   0  0  0  0  0  0  0  0  0  0  0  0
  139.4630   70.1000  224.4290 N   0  0  0  0  0  0  0  0  0  0  0  0
  138.6800   76.8780  222.5850 C   0  0  0  0  0  0  0  0  0  0  0  0
  139.9600   76.4160  222.3560 C   0  0  0  0  0  0  0  0  0  0  0  0
  141.0110   77.2680  222.6160 C   0  0  0  0  0  0  0  0  0  0  0  0
  140.8000   78.5640  223.0960 C   0  0  0  0  0  0  0  0  0  0  0  0
  142.1390   79.6460  223.4250 Cl  0  0  0  0  0  0  0  0  0  0  0  0
  139.5130   79.0150  223.3210 C   0  0  0  0  0  0  0  0  0  0  0  0
  138.4440   78.1680  223.0650 C   0  0  0  0  0  0  0  0  0  0  0  0
  137.1589   75.9235  224.4123 H   0  0  0  0  0  0  0  0  0  0  0  0
  135.8773   76.7022  223.4235 H   0  0  0  0  0  0  0  0  0  0  0  0
  136.0497   74.9142  223.4235 H   0  0  0  0  0  0  0  0  0  0  0  0
  136.9497   76.3530  221.4703 H   0  0  0  0  0  0  0  0  0  0  0  0
  139.1210   74.5240  222.1510 H   0  0  0  0  0  0  0  0  0  0  0  0
  137.3776   71.7080  220.4693 H   0  0  0  0  0  0  0  0  0  0  0  0
  138.9497   72.6070  220.4627 H   0  0  0  0  0  0  0  0  0  0  0  0
  137.9030   70.8500  222.6010 H   0  0  0  0  0  0  0  0  0  0  0  0
  141.1885   72.9011  225.0197 H   0  0  0  0  0  0  0  0  0  0  0  0
  141.7745   71.6289  227.0715 H   0  0  0  0  0  0  0  0  0  0  0  0
  141.5664   69.5915  228.4110 H   0  0  0  0  0  0  0  0  0  0  0  0
  140.6066   67.2993  228.6951 H   0  0  0  0  0  0  0  0  0  0  0  0
  139.1131   66.3561  226.9493 H   0  0  0  0  0  0  0  0  0  0  0  0
  138.5780   67.7018  224.9248 H   0  0  0  0  0  0  0  0  0  0  0  0
  140.1359   75.3983  221.9773 H   0  0  0  0  0  0  0  0  0  0  0  0
  142.0400   76.9205  222.4419 H   0  0  0  0  0  0  0  0  0  0  0  0
  139.3382   80.0333  223.6985 H   0  0  0  0  0  0  0  0  0  0  0  0
  137.4138   78.5117  223.2397 H   0  0  0  0  0  0  0  0  0  0  0  0
  1  2  1  0
  2  3  1  0
  3  4  1  0
  4  5  2  0
  4  6  1  0
  6  7  1  0
  7  8  1  0
  8  9  2  0
  8 10  1  0
 10 11  2  0
 11 12  1  0
 12 13  2  0
 13 14  1  0
 14 15  2  0
 15 16  1  0
 16 17  2  0
 17 18  1  0
 18 19  2  0
  2 20  1  0
 20 21  2  0
 21 22  1  0
 22 23  2  0
 23 24  1  0
 23 25  1  0
 25 26  2  0
 19 10  1  0
 26 20  1  0
 18 13  1  0
  1 27  1  0
  1 28  1  0
  1 29  1  0
  2 30  1  6
  3 31  1  0
  6 32  1  0
  6 33  1  0
  7 34  1  0
 11 35  1  0
 12 36  1  0
 14 37  1  0
 15 38  1  0
 16 39  1  0
 17 40  1  0
 21 41  1  0
 22 42  1  0
 25 43  1  0
 26 44  1  0
M  END
>  <smiles>  (1) 
C[C@H](NC(=O)CNC(=O)c1ccc2ccccc2n1)c1ccc(Cl)cc1

>  <score_type>  (1) 
oracle

>  <origin>  (1) 
autodockgpu

>  <m_score__min__energy>  (1) 
-8.7799999999999994

>  <m_primary>  (1) 
energy

>  <rmsd>  (1) 
4.931901901199249

>  <m_score__min__rmsd>  (1) 
4.931901901199249

>  <meeko>  (1) 
{"free_energy": -7.82, "intermolecular_energy": -9.31, "internal_energy": -2.0, "cluster_size": 28, "cluster_id": 2, "rank_in_cluster": 24}

>  <energy>  (1) 
-8.78

>  <cluster_rmsd>  (1) 
0.0

>  <cluster>  (1) 
1

$$$$

     RDKit          3D

 44 46  0  0  0  0  0  0  0  0999 V2000
  136.6770   75.9520  223.4940 C   0  0  0  0  0  0  0  0  0  0  0  0
  137.6090   76.0990  222.3180 C   0  0  2  0  0  0  0  0  0  0  0  0
  138.1840   74.8330  221.9180 N   0  0  0  0  0  0  0  0  0  0  0  0
  137.8870   74.1990  220.6880 C   0  0  0  0  0  0  0  0  0  0  0  0
  137.0810   74.7150  219.8510 O   0  0  0  0  0  0  0  0  0  0  0  0
  138.5650   72.8940  220.4210 C   0  0  0  0  0  0  0  0  0  0  0  0
  138.6690   72.0950  221.6270 N   0  0  0  0  0  0  0  0  0  0  0  0
  139.7240   72.2950  222.5590 C   0  0  0  0  0  0  0  0  0  0  0  0
  140.6260   73.1650  222.4050 O   0  0  0  0  0  0  0  0  0  0  0  0
  139.7640   71.4550  223.7510 C   0  0  0  0  0  0  0  0  0  0  0  0
  139.2260   70.1840  223.7610 C   0  0  0  0  0  0  0  0  0  0  0  0
  139.2660   69.3860  224.9040 C   0  0  0  0  0  0  0  0  0  0  0  0
  139.8570   69.8710  226.0590 C   0  0  0  0  0  0  0  0  0  0  0  0
  139.9150   69.1090  227.2130 C   0  0  0  0  0  0  0  0  0  0  0  0
  140.5210   69.6340  228.3600 C   0  0  0  0  0  0  0  0  0  0  0  0
  141.0540   70.9060  228.3380 C   0  0  0  0  0  0  0  0  0  0  0  0
  140.9860   71.6580  227.1690 C   0  0  0  0  0  0  0  0  0  0  0  0
  140.3850   71.1430  226.0220 C   0  0  0  0  0  0  0  0  0  0  0  0
  140.3370   71.8960  224.9090 N   0  0  0  0  0  0  0  0  0  0  0  0
  138.7230   77.0370  222.6030 C   0  0  0  0  0  0  0  0  0  0  0  0
  140.0140   76.5890  222.4080 C   0  0  0  0  0  0  0  0  0  0  0  0
  141.0470   77.4600  222.6740 C   0  0  0  0  0  0  0  0  0  0  0  0
  140.8090   78.7610  223.1260 C   0  0  0  0  0  0  0  0  0  0  0  0
  142.1250   79.8680  223.4630 Cl  0  0  0  0  0  0  0  0  0  0  0  0
  139.5110   79.1970  223.3170 C   0  0  0  0  0  0  0  0  0  0  0  0
  138.4590   78.3310  223.0550 C   0  0  0  0  0  0  0  0  0  0  0  0
  137.2494   76.0423  224.4290 H   0  0  0  0  0  0  0  0  0  0  0  0
  135.9109   76.7404  223.4555 H   0  0  0  0  0  0  0  0  0  0  0  0
  136.1908   74.9661  223.4555 H   0  0  0  0  0  0  0  0  0  0  0  0
  136.9877   76.4980  221.5026 H   0  0  0  0  0  0  0  0  0  0  0  0
  138.8550   74.3860  222.5970 H   0  0  0  0  0  0  0  0  0  0  0  0
  137.9849   72.3362  219.6711 H   0  0  0  0  0  0  0  0  0  0  0  0
  139.5812   73.1006  220.0540 H   0  0  0  0  0  0  0  0  0  0  0  0
  137.9510   71.3480  221.8270 H   0  0  0  0  0  0  0  0  0  0  0  0
  138.7553   69.7919  222.8474 H   0  0  0  0  0  0  0  0  0  0  0  0
  138.8303   68.3761  224.8884 H   0  0  0  0  0  0  0  0  0  0  0  0
  139.4869   68.0958  227.2285 H   0  0  0  0  0  0  0  0  0  0  0  0
  140.5723   69.0321  229.2793 H   0  0  0  0  0  0  0  0  0  0  0  0
  141.5294   71.3230  229.2380 H   0  0  0  0  0  0  0  0  0  0  0  0
  141.4121   72.6719  227.1501 H   0  0  0  0  0  0  0  0  0  0  0  0
  140.2116   75.5675  222.0511 H   0  0  0  0  0  0  0  0  0  0  0  0
  142.0840   77.1238  222.5272 H   0  0  0  0  0  0  0  0  0  0  0  0
  139.3144   80.2192  223.6728 H   0  0  0  0  0  0  0  0  0  0  0  0
  137.4208   78.6630  223.2029 H   0  0  0  0  0  0  0  0  0  0  0  0
  1  2  1  0
  2  3  1  0
  3  4  1  0
  4  5  2  0
  4  6  1  0
  6  7  1  0
  7  8  1  0
  8  9  2  0
  8 10  1  0
 10 11  2  0
 11 12  1  0
 12 13  2  0
 13 14  1  0
 14 15  2  0
 15 16  1  0
 16 17  2  0
 17 18  1  0
 18 19  2  0
  2 20  1  0
 20 21  2  0
 21 22  1  0
 22 23  2  0
 23 24  1  0
 23 25  1  0
 25 26  2  0
 19 10  1  0
 26 20  1  0
 18 13  1  0
  1 27  1  0
  1 28  1  0
  1 29  1  0
  2 30  1  6
  3 31  1  0
  6 32  1  0
  6 33  1  0
  7 34  1  0
 11 35  1  0
 12 36  1  0
 14 37  1  0
 15 38  1  0
 16 39  1  0
 17 40  1  0
 21 41  1  0
 22 42  1  0
 25 43  1  0
 26 44  1  0
M  END
>  <smiles>  (2) 
C[C@H](NC(=O)CNC(=O)c1ccc2ccccc2n1)c1ccc(Cl)cc1

>  <score_type>  (2) 
oracle

>  <origin>  (2) 
autodockgpu

>  <m_score__min__energy>  (2) 
-8.7799999999999994

>  <m_primary>  (2) 
energy

>  <rmsd>  (2) 
5.095866940015421

>  <m_score__min__rmsd>  (2) 
5.095866940015421

>  <meeko>  (2) 
{"free_energy": -8.37, "intermolecular_energy": -9.86, "internal_energy": -1.81, "cluster_size": 28, "cluster_id": 2, "rank_in_cluster": 4}

>  <energy>  (2) 
-8.75

>  <cluster_rmsd>  (2) 
1.9

>  <cluster>  (2) 
1

$$$$

     RDKit          3D

 44 46  0  0  0  0  0  0  0  0999 V2000
  136.5970   75.6540  223.4530 C   0  0  0  0  0  0  0  0  0  0  0  0
  137.5450   75.7670  222.2870 C   0  0  2  0  0  0  0  0  0  0  0  0
  138.1530   74.4980  221.9530 N   0  0  0  0  0  0  0  0  0  0  0  0
  137.7740   73.7250  220.8280 C   0  0  0  0  0  0  0  0  0  0  0  0
  136.8590   74.1120  220.0350 O   0  0  0  0  0  0  0  0  0  0  0  0
  138.4990   72.4360  220.6200 C   0  0  0  0  0  0  0  0  0  0  0  0
  138.7370   71.7530  221.8780 N   0  0  0  0  0  0  0  0  0  0  0  0
  139.8540   72.0780  222.6970 C   0  0  0  0  0  0  0  0  0  0  0  0
  140.6980   72.9650  222.3930 O   0  0  0  0  0  0  0  0  0  0  0  0
  140.0280   71.3500  223.9490 C   0  0  0  0  0  0  0  0  0  0  0  0
  140.7260   71.8880  225.0100 C   0  0  0  0  0  0  0  0  0  0  0  0
  140.8910   71.1880  226.2050 C   0  0  0  0  0  0  0  0  0  0  0  0
  140.3430   69.9220  226.3380 C   0  0  0  0  0  0  0  0  0  0  0  0
  140.4850   69.1950  227.5080 C   0  0  0  0  0  0  0  0  0  0  0  0
  139.9170   67.9210  227.6040 C   0  0  0  0  0  0  0  0  0  0  0  0
  139.2210   67.3920  226.5370 C   0  0  0  0  0  0  0  0  0  0  0  0
  139.0890   68.1370  225.3680 C   0  0  0  0  0  0  0  0  0  0  0  0
  139.6510   69.4080  225.2630 C   0  0  0  0  0  0  0  0  0  0  0  0
  139.5040   70.1010  224.1210 N   0  0  0  0  0  0  0  0  0  0  0  0
  138.6340   76.7410  222.5450 C   0  0  0  0  0  0  0  0  0  0  0  0
  138.2870   78.0000  222.9900 C   0  0  0  0  0  0  0  0  0  0  0  0
  139.3000   78.9030  223.2300 C   0  0  0  0  0  0  0  0  0  0  0  0
  140.6420   78.5660  223.0330 C   0  0  0  0  0  0  0  0  0  0  0  0
  141.9280   79.7160  223.3390 Cl  0  0  0  0  0  0  0  0  0  0  0  0
  140.9760   77.3000  222.5880 C   0  0  0  0  0  0  0  0  0  0  0  0
  139.9680   76.3800  222.3410 C   0  0  0  0  0  0  0  0  0  0  0  0
  137.1631   75.7215  224.3937 H   0  0  0  0  0  0  0  0  0  0  0  0
  135.8616   76.4708  223.4082 H   0  0  0  0  0  0  0  0  0  0  0  0
  136.0743   74.6872  223.4082 H   0  0  0  0  0  0  0  0  0  0  0  0
  136.9280   76.1146  221.4453 H   0  0  0  0  0  0  0  0  0  0  0  0
  138.9140   74.1570  222.5980 H   0  0  0  0  0  0  0  0  0  0  0  0
  137.8950   71.7868  219.9690 H   0  0  0  0  0  0  0  0  0  0  0  0
  139.4719   72.6570  220.1568 H   0  0  0  0  0  0  0  0  0  0  0  0
  138.0740   71.0000  222.2010 H   0  0  0  0  0  0  0  0  0  0  0  0
  141.1628   72.8927  224.9114 H   0  0  0  0  0  0  0  0  0  0  0  0
  141.4527   71.6380  227.0369 H   0  0  0  0  0  0  0  0  0  0  0  0
  141.0417   69.6176  228.3574 H   0  0  0  0  0  0  0  0  0  0  0  0
  140.0253   67.3398  228.5316 H   0  0  0  0  0  0  0  0  0  0  0  0
  138.7738   66.3896  226.6090 H   0  0  0  0  0  0  0  0  0  0  0  0
  138.5339   67.7169  224.5163 H   0  0  0  0  0  0  0  0  0  0  0  0
  137.2337   78.2747  223.1484 H   0  0  0  0  0  0  0  0  0  0  0  0
  139.0464   79.9128  223.5850 H   0  0  0  0  0  0  0  0  0  0  0  0
  142.0297   77.0256  222.4316 H   0  0  0  0  0  0  0  0  0  0  0  0
  140.2181   75.3695  221.9857 H   0  0  0  0  0  0  0  0  0  0  0  0
  1  2  1  0
  2  3  1  0
  3  4  1  0
  4  5  2  0
  4  6  1  0
  6  7  1  0
  7  8  1  0
  8  9  2  0
  8 10  1  0
 10 11  2  0
 11 12  1  0
 12 13  2  0
 13 14  1  0
 14 15  2  0
 15 16  1  0
 16 17  2  0
 17 18  1  0
 18 19  2  0
  2 20  1  0
 20 21  2  0
 21 22  1  0
 22 23  2  0
 23 24  1  0
 23 25  1  0
 25 26  2  0
 19 10  1  0
 26 20  1  0
 18 13  1  0
  1 27  1  0
  1 28  1  0
  1 29  1  0
  2 30  1  6
  3 31  1  0
  6 32  1  0
  6 33  1  0
  7 34  1  0
 11 35  1  0
 12 36  1  0
 14 37  1  0
 15 38  1  0
 16 39  1  0
 17 40  1  0
 21 41  1  0
 22 42  1  0
 25 43  1  0
 26 44  1  0
M  END
>  <smiles>  (3) 
C[C@H](NC(=O)CNC(=O)c1ccc2ccccc2n1)c1ccc(Cl)cc1

>  <score_type>  (3) 
oracle

>  <origin>  (3) 
autodockgpu

>  <m_score__min__energy>  (3) 
-8.7799999999999994

>  <m_primary>  (3) 
energy

>  <rmsd>  (3) 
4.769165851837405

>  <m_score__min__rmsd>  (3) 
4.769165851837405

>  <meeko>  (3) 
{"free_energy": -7.94, "intermolecular_energy": -9.43, "internal_energy": -2.07, "cluster_size": 28, "cluster_id": 2, "rank_in_cluster": 17}

>  <energy>  (3) 
-8.74

>  <cluster_rmsd>  (3) 
0.47

>  <cluster>  (3) 
1

$$$$

     RDKit          3D

 44 46  0  0  0  0  0  0  0  0999 V2000
  136.9750   76.2560  223.1510 C   0  0  0  0  0  0  0  0  0  0  0  0
  137.9740   76.4340  222.0370 C   0  0  2  0  0  0  0  0  0  0  0  0
  138.5770   75.1810  221.6400 N   0  0  0  0  0  0  0  0  0  0  0  0
  137.9640   74.2720  220.7450 C   0  0  0  0  0  0  0  0  0  0  0  0
  136.8260   74.5110  220.2300 O   0  0  0  0  0  0  0  0  0  0  0  0
  138.7170   73.0190  220.4340 C   0  0  0  0  0  0  0  0  0  0  0  0
  138.8200   72.1600  221.5980 N   0  0  0  0  0  0  0  0  0  0  0  0
  139.7760   72.4090  222.6210 C   0  0  0  0  0  0  0  0  0  0  0  0
  140.5860   73.3760  222.5880 O   0  0  0  0  0  0  0  0  0  0  0  0
  139.8200   71.5030  223.7630 C   0  0  0  0  0  0  0  0  0  0  0  0
  139.3120   70.2220  223.6930 C   0  0  0  0  0  0  0  0  0  0  0  0
  139.3550   69.3600  224.7890 C   0  0  0  0  0  0  0  0  0  0  0  0
  139.9190   69.7920  225.9780 C   0  0  0  0  0  0  0  0  0  0  0  0
  139.9810   68.9660  227.0870 C   0  0  0  0  0  0  0  0  0  0  0  0
  140.5590   69.4380  228.2710 C   0  0  0  0  0  0  0  0  0  0  0  0
  141.0640   70.7200  228.3290 C   0  0  0  0  0  0  0  0  0  0  0  0
  140.9930   71.5370  227.2040 C   0  0  0  0  0  0  0  0  0  0  0  0
  140.4190   71.0750  226.0210 C   0  0  0  0  0  0  0  0  0  0  0  0
  140.3670   71.8890  224.9520 N   0  0  0  0  0  0  0  0  0  0  0  0
  139.0650   77.3680  222.4110 C   0  0  0  0  0  0  0  0  0  0  0  0
  140.3560   77.0310  222.0560 C   0  0  0  0  0  0  0  0  0  0  0  0
  141.3680   77.8990  222.4040 C   0  0  0  0  0  0  0  0  0  0  0  0
  141.1090   79.0870  223.0940 C   0  0  0  0  0  0  0  0  0  0  0  0
  142.3990   80.1880  223.5350 Cl  0  0  0  0  0  0  0  0  0  0  0  0
  139.8110   79.4120  223.4430 C   0  0  0  0  0  0  0  0  0  0  0  0
  138.7810   78.5480  223.1000 C   0  0  0  0  0  0  0  0  0  0  0  0
  137.4867   76.3472  224.1204 H   0  0  0  0  0  0  0  0  0  0  0  0
  136.1970   77.0297  223.0729 H   0  0  0  0  0  0  0  0  0  0  0  0
  136.5121   75.2612  223.0729 H   0  0  0  0  0  0  0  0  0  0  0  0
  137.4002   76.8508  221.1962 H   0  0  0  0  0  0  0  0  0  0  0  0
  139.5210   74.9610  222.0550 H   0  0  0  0  0  0  0  0  0  0  0  0
  138.1928   72.4759  219.6338 H   0  0  0  0  0  0  0  0  0  0  0  0
  139.7334   73.2958  220.1174 H   0  0  0  0  0  0  0  0  0  0  0  0
  138.1750   71.3310  221.6980 H   0  0  0  0  0  0  0  0  0  0  0  0
  138.8629   69.8726  222.7516 H   0  0  0  0  0  0  0  0  0  0  0  0
  138.9433   68.3430  224.7094 H   0  0  0  0  0  0  0  0  0  0  0  0
  139.5780   67.9437  227.0380 H   0  0  0  0  0  0  0  0  0  0  0  0
  140.6105   68.7862  229.1556 H   0  0  0  0  0  0  0  0  0  0  0  0
  141.5197   71.0944  229.2576 H   0  0  0  0  0  0  0  0  0  0  0  0
  141.3949   72.5599  227.2494 H   0  0  0  0  0  0  0  0  0  0  0  0
  140.5699   76.0989  221.5125 H   0  0  0  0  0  0  0  0  0  0  0  0
  142.4047   77.6512  222.1324 H   0  0  0  0  0  0  0  0  0  0  0  0
  139.5976   80.3445  223.9861 H   0  0  0  0  0  0  0  0  0  0  0  0
  137.7432   78.7924  223.3705 H   0  0  0  0  0  0  0  0  0  0  0  0
  1  2  1  0
  2  3  1  0
  3  4  1  0
  4  5  2  0
  4  6  1  0
  6  7  1  0
  7  8  1  0
  8  9  2  0
  8 10  1  0
 10 11  2  0
 11 12  1  0
 12 13  2  0
 13 14  1  0
 14 15  2  0
 15 16  1  0
 16 17  2  0
 17 18  1  0
 18 19  2  0
  2 20  1  0
 20 21  2  0
 21 22  1  0
 22 23  2  0
 23 24  1  0
 23 25  1  0
 25 26  2  0
 19 10  1  0
 26 20  1  0
 18 13  1  0
  1 27  1  0
  1 28  1  0
  1 29  1  0
  2 30  1  6
  3 31  1  0
  6 32  1  0
  6 33  1  0
  7 34  1  0
 11 35  1  0
 12 36  1  0
 14 37  1  0
 15 38  1  0
 16 39  1  0
 17 40  1  0
 21 41  1  0
 22 42  1  0
 25 43  1  0
 26 44  1  0
M  END
>  <smiles>  (4) 
C[C@H](NC(=O)CNC(=O)c1ccc2ccccc2n1)c1ccc(Cl)cc1

>  <score_type>  (4) 
oracle

>  <origin>  (4) 
autodockgpu

>  <m_score__min__energy>  (4) 
-8.7799999999999994

>  <m_primary>  (4) 
energy

>  <rmsd>  (4) 
4.9055917796889315

>  <m_score__min__rmsd>  (4) 
4.9055917796889315

>  <meeko>  (4) 
{"free_energy": -8.05, "intermolecular_energy": -9.54, "internal_energy": -1.73, "cluster_size": 28, "cluster_id": 2, "rank_in_cluster": 16}

>  <energy>  (4) 
-8.74

>  <cluster_rmsd>  (4) 
0.25

>  <cluster>  (4) 
1

$$$$

     RDKit          3D

 44 46  0  0  0  0  0  0  0  0999 V2000
  137.2670   78.0000  221.3450 C   0  0  0  0  0  0  0  0  0  0  0  0
  138.6200   77.8440  220.7000 C   0  0  2  0  0  0  0  0  0  0  0  0
  138.9870   76.4540  220.5320 N   0  0  0  0  0  0  0  0  0  0  0  0
  139.2400   75.5800  221.6170 C   0  0  0  0  0  0  0  0  0  0  0  0
  139.1580   75.9760  222.8220 O   0  0  0  0  0  0  0  0  0  0  0  0
  139.6080   74.1720  221.2760 C   0  0  0  0  0  0  0  0  0  0  0  0
  139.6780   73.3420  222.4630 N   0  0  0  0  0  0  0  0  0  0  0  0
  139.8740   71.9360  222.3730 C   0  0  0  0  0  0  0  0  0  0  0  0
  139.9990   71.3250  221.2750 O   0  0  0  0  0  0  0  0  0  0  0  0
  139.9360   71.1650  223.6100 C   0  0  0  0  0  0  0  0  0  0  0  0
  139.5420   69.8440  223.6630 C   0  0  0  0  0  0  0  0  0  0  0  0
  139.6030   69.1120  224.8480 C   0  0  0  0  0  0  0  0  0  0  0  0
  140.0680   69.7180  226.0040 C   0  0  0  0  0  0  0  0  0  0  0  0
  140.1430   69.0240  227.2000 C   0  0  0  0  0  0  0  0  0  0  0  0
  140.6190   69.6700  228.3460 C   0  0  0  0  0  0  0  0  0  0  0  0
  141.0100   70.9910  228.2820 C   0  0  0  0  0  0  0  0  0  0  0  0
  140.9280   71.6730  227.0710 C   0  0  0  0  0  0  0  0  0  0  0  0
  140.4550   71.0370  225.9240 C   0  0  0  0  0  0  0  0  0  0  0  0
  140.3890   71.7240  224.7710 N   0  0  0  0  0  0  0  0  0  0  0  0
  139.6920   78.5070  221.4830 C   0  0  0  0  0  0  0  0  0  0  0  0
  140.9630   78.5370  220.9480 C   0  0  0  0  0  0  0  0  0  0  0  0
  141.9570   79.1530  221.6770 C   0  0  0  0  0  0  0  0  0  0  0  0
  141.6980   79.7340  222.9220 C   0  0  0  0  0  0  0  0  0  0  0  0
  142.9640   80.5170  223.8460 Cl  0  0  0  0  0  0  0  0  0  0  0  0
  140.4190   79.6980  223.4460 C   0  0  0  0  0  0  0  0  0  0  0  0
  139.4080   79.0800  222.7240 C   0  0  0  0  0  0  0  0  0  0  0  0
  137.3788   77.9871  222.4392 H   0  0  0  0  0  0  0  0  0  0  0  0
  136.8202   78.9556  221.0333 H   0  0  0  0  0  0  0  0  0  0  0  0
  136.6144   77.1711  221.0333 H   0  0  0  0  0  0  0  0  0  0  0  0
  138.5283   78.3250  219.7150 H   0  0  0  0  0  0  0  0  0  0  0  0
  139.0620   76.1040  219.5400 H   0  0  0  0  0  0  0  0  0  0  0  0
  138.8499   73.7588  220.5944 H   0  0  0  0  0  0  0  0  0  0  0  0
  140.5991   74.1787  220.7989 H   0  0  0  0  0  0  0  0  0  0  0  0
  139.5850   73.7800  223.4180 H   0  0  0  0  0  0  0  0  0  0  0  0
  139.1711   69.3569  222.7491 H   0  0  0  0  0  0  0  0  0  0  0  0
  139.2838   68.0595  224.8651 H   0  0  0  0  0  0  0  0  0  0  0  0
  139.8300   67.9706  227.2487 H   0  0  0  0  0  0  0  0  0  0  0  0
  140.6815   69.1239  229.2988 H   0  0  0  0  0  0  0  0  0  0  0  0
  141.3840   71.5022  229.1814 H   0  0  0  0  0  0  0  0  0  0  0  0
  141.2402   72.7265  227.0185 H   0  0  0  0  0  0  0  0  0  0  0  0
  141.1767   78.0830  219.9691 H   0  0  0  0  0  0  0  0  0  0  0  0
  142.9782   79.1884  221.2698 H   0  0  0  0  0  0  0  0  0  0  0  0
  140.2054   80.1540  224.4240 H   0  0  0  0  0  0  0  0  0  0  0  0
  138.3857   79.0417  223.1283 H   0  0  0  0  0  0  0  0  0  0  0  0
  1  2  1  0
  2  3  1  0
  3  4  1  0
  4  5  2  0
  4  6  1  0
  6  7  1  0
  7  8  1  0
  8  9  2  0
  8 10  1  0
 10 11  2  0
 11 12  1  0
 12 13  2  0
 13 14  1  0
 14 15  2  0
 15 16  1  0
 16 17  2  0
 17 18  1  0
 18 19  2  0
  2 20  1  0
 20 21  2  0
 21 22  1  0
 22 23  2  0
 23 24  1  0
 23 25  1  0
 25 26  2  0
 19 10  1  0
 26 20  1  0
 18 13  1  0
  1 27  1  0
  1 28  1  0
  1 29  1  0
  2 30  1  6
  3 31  1  0
  6 32  1  0
  6 33  1  0
  7 34  1  0
 11 35  1  0
 12 36  1  0
 14 37  1  0
 15 38  1  0
 16 39  1  0
 17 40  1  0
 21 41  1  0
 22 42  1  0
 25 43  1  0
 26 44  1  0
M  END
>  <smiles>  (5) 
C[C@H](NC(=O)CNC(=O)c1ccc2ccccc2n1)c1ccc(Cl)cc1

>  <score_type>  (5) 
oracle

>  <origin>  (5) 
autodockgpu

>  <m_score__min__energy>  (5) 
-8.7799999999999994

>  <m_primary>  (5) 
energy

>  <rmsd>  (5) 
4.53891336889157

>  <m_score__min__rmsd>  (5) 
4.53891336889157

>  <meeko>  (5) 
{"free_energy": -8.08, "intermolecular_energy": -9.57, "internal_energy": -1.65, "cluster_size": 21, "cluster_id": 1, "rank_in_cluster": 18}

>  <energy>  (5) 
-8.71

>  <cluster_rmsd>  (5) 
0.24

>  <cluster>  (5) 
1

$$$$

     RDKit          3D

 44 46  0  0  0  0  0  0  0  0999 V2000
  141.8100   78.5360  223.4910 C   0  0  0  0  0  0  0  0  0  0  0  0
  140.9900   78.2450  222.2600 C   0  0  2  0  0  0  0  0  0  0  0  0
  141.0720   76.8550  221.8670 N   0  0  0  0  0  0  0  0  0  0  0  0
  139.9350   76.0450  221.6330 C   0  0  0  0  0  0  0  0  0  0  0  0
  138.7550   76.5020  221.7590 O   0  0  0  0  0  0  0  0  0  0  0  0
  140.1880   74.6280  221.2310 C   0  0  0  0  0  0  0  0  0  0  0  0
  139.9750   73.7170  222.3390 N   0  0  0  0  0  0  0  0  0  0  0  0
  140.5050   72.3970  222.3260 C   0  0  0  0  0  0  0  0  0  0  0  0
  141.1850   71.9360  221.3680 O   0  0  0  0  0  0  0  0  0  0  0  0
  140.2520   71.5380  223.4770 C   0  0  0  0  0  0  0  0  0  0  0  0
  139.6020   70.3270  223.3510 C   0  0  0  0  0  0  0  0  0  0  0  0
  139.3620   69.5100  224.4550 C   0  0  0  0  0  0  0  0  0  0  0  0
  139.7810   69.9160  225.7110 C   0  0  0  0  0  0  0  0  0  0  0  0
  139.5600   69.1320  226.8310 C   0  0  0  0  0  0  0  0  0  0  0  0
  140.0000   69.5760  228.0830 C   0  0  0  0  0  0  0  0  0  0  0  0
  140.6480   70.7880  228.1990 C   0  0  0  0  0  0  0  0  0  0  0  0
  140.8610   71.5620  227.0620 C   0  0  0  0  0  0  0  0  0  0  0  0
  140.4270   71.1290  225.8110 C   0  0  0  0  0  0  0  0  0  0  0  0
  140.6490   71.9000  224.7320 N   0  0  0  0  0  0  0  0  0  0  0  0
  141.4080   79.0730  221.1020 C   0  0  0  0  0  0  0  0  0  0  0  0
  141.8140   78.4240  219.9540 C   0  0  0  0  0  0  0  0  0  0  0  0
  142.2020   79.1930  218.8790 C   0  0  0  0  0  0  0  0  0  0  0  0
  142.1900   80.5900  218.9370 C   0  0  0  0  0  0  0  0  0  0  0  0
  142.6850   81.5660  217.5690 Cl  0  0  0  0  0  0  0  0  0  0  0  0
  141.7810   81.2280  220.0940 C   0  0  0  0  0  0  0  0  0  0  0  0
  141.3870   80.4660  221.1850 C   0  0  0  0  0  0  0  0  0  0  0  0
  141.2113   78.3235  224.3890 H   0  0  0  0  0  0  0  0  0  0  0  0
  142.7089   77.9020  223.4911 H   0  0  0  0  0  0  0  0  0  0  0  0
  142.1081   79.5948  223.4911 H   0  0  0  0  0  0  0  0  0  0  0  0
  139.9541   78.4911  222.5365 H   0  0  0  0  0  0  0  0  0  0  0  0
  142.0410   76.4540  221.7560 H   0  0  0  0  0  0  0  0  0  0  0  0
  139.5042   74.3610  220.4118 H   0  0  0  0  0  0  0  0  0  0  0  0
  141.2362   74.5417  220.9088 H   0  0  0  0  0  0  0  0  0  0  0  0
  139.4180   74.0310  223.1780 H   0  0  0  0  0  0  0  0  0  0  0  0
  139.2655   69.9988  222.3565 H   0  0  0  0  0  0  0  0  0  0  0  0
  138.8428   68.5484  224.3291 H   0  0  0  0  0  0  0  0  0  0  0  0
  139.0418   68.1663  226.7370 H   0  0  0  0  0  0  0  0  0  0  0  0
  139.8288   68.9573  228.9762 H   0  0  0  0  0  0  0  0  0  0  0  0
  140.9937   71.1401  229.1821 H   0  0  0  0  0  0  0  0  0  0  0  0
  141.3788   72.5283  227.1524 H   0  0  0  0  0  0  0  0  0  0  0  0
  141.8274   77.3255  219.8989 H   0  0  0  0  0  0  0  0  0  0  0  0
  142.5289   78.6965  217.9534 H   0  0  0  0  0  0  0  0  0  0  0  0
  141.7682   82.3266  220.1488 H   0  0  0  0  0  0  0  0  0  0  0  0
  141.0591   80.9585  222.1123 H   0  0  0  0  0  0  0  0  0  0  0  0
  1  2  1  0
  2  3  1  0
  3  4  1  0
  4  5  2  0
  4  6  1  0
  6  7  1  0
  7  8  1  0
  8  9  2  0
  8 10  1  0
 10 11  2  0
 11 12  1  0
 12 13  2  0
 13 14  1  0
 14 15  2  0
 15 16  1  0
 16 17  2  0
 17 18  1  0
 18 19  2  0
  2 20  1  0
 20 21  2  0
 21 22  1  0
 22 23  2  0
 23 24  1  0
 23 25  1  0
 25 26  2  0
 19 10  1  0
 26 20  1  0
 18 13  1  0
  1 27  1  0
  1 28  1  0
  1 29  1  0
  2 30  1  1
  3 31  1  0
  6 32  1  0
  6 33  1  0
  7 34  1  0
 11 35  1  0
 12 36  1  0
 14 37  1  0
 15 38  1  0
 16 39  1  0
 17 40  1  0
 21 41  1  0
 22 42  1  0
 25 43  1  0
 26 44  1  0
M  END
>  <smiles>  (6) 
C[C@H](NC(=O)CNC(=O)c1ccc2ccccc2n1)c1ccc(Cl)cc1

>  <score_type>  (6) 
oracle

>  <origin>  (6) 
autodockgpu

>  <m_score__min__energy>  (6) 
-8.7799999999999994

>  <m_primary>  (6) 
energy

>  <rmsd>  (6) 
3.618152720290279

>  <m_score__min__rmsd>  (6) 
3.618152720290279

>  <meeko>  (6) 
{"free_energy": -8.71, "intermolecular_energy": -10.2, "internal_energy": -1.01, "cluster_size": 21, "cluster_id": 1, "rank_in_cluster": 5}

>  <energy>  (6) 
-8.69

>  <cluster_rmsd>  (6) 
1.94

>  <cluster>  (6) 
1

$$$$

     RDKit          3D

 44 46  0  0  0  0  0  0  0  0999 V2000
  137.3320   77.9930  221.2560 C   0  0  0  0  0  0  0  0  0  0  0  0
  138.6950   77.8380  220.6310 C   0  0  2  0  0  0  0  0  0  0  0  0
  139.0690   76.4490  220.4750 N   0  0  0  0  0  0  0  0  0  0  0  0
  139.3730   75.5990  221.5660 C   0  0  0  0  0  0  0  0  0  0  0  0
  139.3340   76.0170  222.7660 O   0  0  0  0  0  0  0  0  0  0  0  0
  139.7410   74.1880  221.2390 C   0  0  0  0  0  0  0  0  0  0  0  0
  139.7590   73.3560  222.4270 N   0  0  0  0  0  0  0  0  0  0  0  0
  140.0280   71.9620  222.3510 C   0  0  0  0  0  0  0  0  0  0  0  0
  140.2660   71.3630  221.2660 O   0  0  0  0  0  0  0  0  0  0  0  0
  140.0320   71.1890  223.5890 C   0  0  0  0  0  0  0  0  0  0  0  0
  139.5630   69.8930  223.6370 C   0  0  0  0  0  0  0  0  0  0  0  0
  139.5680   69.1590  224.8230 C   0  0  0  0  0  0  0  0  0  0  0  0
  140.0530   69.7380  225.9840 C   0  0  0  0  0  0  0  0  0  0  0  0
  140.0740   69.0420  227.1800 C   0  0  0  0  0  0  0  0  0  0  0  0
  140.5730   69.6600  228.3320 C   0  0  0  0  0  0  0  0  0  0  0  0
  141.0400   70.9570  228.2730 C   0  0  0  0  0  0  0  0  0  0  0  0
  141.0110   71.6410  227.0610 C   0  0  0  0  0  0  0  0  0  0  0  0
  140.5160   71.0340  225.9090 C   0  0  0  0  0  0  0  0  0  0  0  0
  140.5020   71.7220  224.7540 N   0  0  0  0  0  0  0  0  0  0  0  0
  139.7530   78.5090  221.4260 C   0  0  0  0  0  0  0  0  0  0  0  0
  139.3950   79.0820  222.6300 C   0  0  0  0  0  0  0  0  0  0  0  0
  140.3790   79.7040  223.3670 C   0  0  0  0  0  0  0  0  0  0  0  0
  141.7020   79.7600  222.9210 C   0  0  0  0  0  0  0  0  0  0  0  0
  142.9510   80.5530  223.8610 Cl  0  0  0  0  0  0  0  0  0  0  0  0
  142.0480   79.1820  221.7140 C   0  0  0  0  0  0  0  0  0  0  0  0
  141.0680   78.5510  220.9590 C   0  0  0  0  0  0  0  0  0  0  0  0
  137.4277   77.9821  222.3518 H   0  0  0  0  0  0  0  0  0  0  0  0
  136.8883   78.9474  220.9361 H   0  0  0  0  0  0  0  0  0  0  0  0
  136.6854   77.1626  220.9361 H   0  0  0  0  0  0  0  0  0  0  0  0
  138.6160   78.3132  219.6421 H   0  0  0  0  0  0  0  0  0  0  0  0
  139.1080   76.0800  219.4890 H   0  0  0  0  0  0  0  0  0  0  0  0
  139.0056   73.7819  220.5289 H   0  0  0  0  0  0  0  0  0  0  0  0
  140.7498   74.1865  220.8004 H   0  0  0  0  0  0  0  0  0  0  0  0
  139.5720   73.7850  223.3720 H   0  0  0  0  0  0  0  0  0  0  0  0
  139.1760   69.4273  222.7186 H   0  0  0  0  0  0  0  0  0  0  0  0
  139.1890   68.1264  224.8362 H   0  0  0  0  0  0  0  0  0  0  0  0
  139.7004   68.0084  227.2248 H   0  0  0  0  0  0  0  0  0  0  0  0
  140.5930   69.1115  229.2853 H   0  0  0  0  0  0  0  0  0  0  0  0
  141.4321   71.4466  229.1766 H   0  0  0  0  0  0  0  0  0  0  0  0
  141.3840   72.6747  227.0123 H   0  0  0  0  0  0  0  0  0  0  0  0
  138.3562   79.0431  222.9898 H   0  0  0  0  0  0  0  0  0  0  0  0
  140.1168   80.1676  224.3295 H   0  0  0  0  0  0  0  0  0  0  0  0
  143.0873   79.2214  221.3558 H   0  0  0  0  0  0  0  0  0  0  0  0
  141.3269   78.0859  219.9964 H   0  0  0  0  0  0  0  0  0  0  0  0
  1  2  1  0
  2  3  1  0
  3  4  1  0
  4  5  2  0
  4  6  1  0
  6  7  1  0
  7  8  1  0
  8  9  2  0
  8 10  1  0
 10 11  2  0
 11 12  1  0
 12 13  2  0
 13 14  1  0
 14 15  2  0
 15 16  1  0
 16 17  2  0
 17 18  1  0
 18 19  2  0
  2 20  1  0
 20 21  2  0
 21 22  1  0
 22 23  2  0
 23 24  1  0
 23 25  1  0
 25 26  2  0
 19 10  1  0
 26 20  1  0
 18 13  1  0
  1 27  1  0
  1 28  1  0
  1 29  1  0
  2 30  1  6
  3 31  1  0
  6 32  1  0
  6 33  1  0
  7 34  1  0
 11 35  1  0
 12 36  1  0
 14 37  1  0
 15 38  1  0
 16 39  1  0
 17 40  1  0
 21 41  1  0
 22 42  1  0
 25 43  1  0
 26 44  1  0
M  END
>  <smiles>  (7) 
C[C@H](NC(=O)CNC(=O)c1ccc2ccccc2n1)c1ccc(Cl)cc1

>  <score_type>  (7) 
oracle

>  <origin>  (7) 
autodockgpu

>  <m_score__min__energy>  (7) 
-8.7799999999999994

>  <m_primary>  (7) 
energy

>  <rmsd>  (7) 
4.298819611763164

>  <m_score__min__rmsd>  (7) 
4.298819611763164

>  <meeko>  (7) 
{"free_energy": -8.14, "intermolecular_energy": -9.63, "internal_energy": -1.58, "cluster_size": 21, "cluster_id": 1, "rank_in_cluster": 13}

>  <energy>  (7) 
-8.67

>  <cluster_rmsd>  (7) 
0.3

>  <cluster>  (7) 
1

$$$$

     RDKit          3D

 44 46  0  0  0  0  0  0  0  0999 V2000
  136.6300   76.0030  223.3360 C   0  0  0  0  0  0  0  0  0  0  0  0
  137.6050   76.1150  222.1910 C   0  0  2  0  0  0  0  0  0  0  0  0
  138.1560   74.8310  221.8170 N   0  0  0  0  0  0  0  0  0  0  0  0
  137.3730   73.7660  221.3100 C   0  0  0  0  0  0  0  0  0  0  0  0
  136.1170   73.8810  221.1540 O   0  0  0  0  0  0  0  0  0  0  0  0
  138.0940   72.5030  220.9690 C   0  0  0  0  0  0  0  0  0  0  0  0
  138.4900   71.7790  222.1620 N   0  0  0  0  0  0  0  0  0  0  0  0
  139.6210   72.1760  222.9270 C   0  0  0  0  0  0  0  0  0  0  0  0
  140.3450   73.1660  222.6280 O   0  0  0  0  0  0  0  0  0  0  0  0
  139.9580   71.4020  224.1170 C   0  0  0  0  0  0  0  0  0  0  0  0
  140.8050   71.8940  225.0880 C   0  0  0  0  0  0  0  0  0  0  0  0
  141.1240   71.1490  226.2230 C   0  0  0  0  0  0  0  0  0  0  0  0
  140.5830   69.8840  226.3860 C   0  0  0  0  0  0  0  0  0  0  0  0
  140.8770   69.1140  227.4980 C   0  0  0  0  0  0  0  0  0  0  0  0
  140.3100   67.8410  227.6280 C   0  0  0  0  0  0  0  0  0  0  0  0
  139.4650   67.3590  226.6510 C   0  0  0  0  0  0  0  0  0  0  0  0
  139.1810   68.1470  225.5390 C   0  0  0  0  0  0  0  0  0  0  0  0
  139.7410   69.4160  225.4010 C   0  0  0  0  0  0  0  0  0  0  0  0
  139.4460   70.1520  224.3160 N   0  0  0  0  0  0  0  0  0  0  0  0
  138.7350   77.0230  222.5080 C   0  0  0  0  0  0  0  0  0  0  0  0
  140.0160   76.5750  222.2570 C   0  0  0  0  0  0  0  0  0  0  0  0
  141.0650   77.4180  222.5520 C   0  0  0  0  0  0  0  0  0  0  0  0
  140.8510   78.6920  223.0890 C   0  0  0  0  0  0  0  0  0  0  0  0
  142.1870   79.7620  223.4630 Cl  0  0  0  0  0  0  0  0  0  0  0  0
  139.5620   79.1280  223.3350 C   0  0  0  0  0  0  0  0  0  0  0  0
  138.4950   78.2900  223.0440 C   0  0  0  0  0  0  0  0  0  0  0  0
  137.1752   76.0656  224.2893 H   0  0  0  0  0  0  0  0  0  0  0  0
  135.8993   76.8231  223.2769 H   0  0  0  0  0  0  0  0  0  0  0  0
  136.1043   75.0386  223.2769 H   0  0  0  0  0  0  0  0  0  0  0  0
  137.0230   76.5258  221.3528 H   0  0  0  0  0  0  0  0  0  0  0  0
  139.1970   74.7140  221.9380 H   0  0  0  0  0  0  0  0  0  0  0  0
  137.4312   71.8644  220.3667 H   0  0  0  0  0  0  0  0  0  0  0  0
  139.0022   72.7648  220.4064 H   0  0  0  0  0  0  0  0  0  0  0  0
  137.9330   70.9410  222.4780 H   0  0  0  0  0  0  0  0  0  0  0  0
  141.2389   72.8972  224.9643 H   0  0  0  0  0  0  0  0  0  0  0  0
  141.8012   71.5634  226.9844 H   0  0  0  0  0  0  0  0  0  0  0  0
  141.5526   69.5005  228.2753 H   0  0  0  0  0  0  0  0  0  0  0  0
  140.5386   67.2248  228.5101 H   0  0  0  0  0  0  0  0  0  0  0  0
  139.0183   66.3586  226.7495 H   0  0  0  0  0  0  0  0  0  0  0  0
  138.5063   67.7634  224.7595 H   0  0  0  0  0  0  0  0  0  0  0  0
  140.1941   75.5752  221.8343 H   0  0  0  0  0  0  0  0  0  0  0  0
  142.0947   77.0816  222.3609 H   0  0  0  0  0  0  0  0  0  0  0  0
  139.3844   80.1283  223.7568 H   0  0  0  0  0  0  0  0  0  0  0  0
  137.4639   78.6224  223.2348 H   0  0  0  0  0  0  0  0  0  0  0  0
  1  2  1  0
  2  3  1  0
  3  4  1  0
  4  5  2  0
  4  6  1  0
  6  7  1  0
  7  8  1  0
  8  9  2  0
  8 10  1  0
 10 11  2  0
 11 12  1  0
 12 13  2  0
 13 14  1  0
 14 15  2  0
 15 16  1  0
 16 17  2  0
 17 18  1  0
 18 19  2  0
  2 20  1  0
 20 21  2  0
 21 22  1  0
 22 23  2  0
 23 24  1  0
 23 25  1  0
 25 26  2  0
 19 10  1  0
 26 20  1  0
 18 13  1  0
  1 27  1  0
  1 28  1  0
  1 29  1  0
  2 30  1  6
  3 31  1  0
  6 32  1  0
  6 33  1  0
  7 34  1  0
 11 35  1  0
 12 36  1  0
 14 37  1  0
 15 38  1  0
 16 39  1  0
 17 40  1  0
 21 41  1  0
 22 42  1  0
 25 43  1  0
 26 44  1  0
M  END
>  <smiles>  (8) 
C[C@H](NC(=O)CNC(=O)c1ccc2ccccc2n1)c1ccc(Cl)cc1

>  <score_type>  (8) 
oracle

>  <origin>  (8) 
autodockgpu

>  <m_score__min__energy>  (8) 
-8.7799999999999994

>  <m_primary>  (8) 
energy

>  <rmsd>  (8) 
4.824830171159131

>  <m_score__min__rmsd>  (8) 
4.824830171159131

>  <meeko>  (8) 
{"free_energy": -7.79, "intermolecular_energy": -9.28, "internal_energy": -1.97, "cluster_size": 28, "cluster_id": 2, "rank_in_cluster": 25}

>  <energy>  (8) 
-8.27

>  <cluster_rmsd>  (8) 
1.96

>  <cluster>  (8) 
1

$$$$

     RDKit          3D

 44 46  0  0  0  0  0  0  0  0999 V2000
  136.5940   75.6450  223.4740 C   0  0  0  0  0  0  0  0  0  0  0  0
  137.5370   75.7490  222.3030 C   0  0  2  0  0  0  0  0  0  0  0  0
  138.1320   74.4740  221.9660 N   0  0  0  0  0  0  0  0  0  0  0  0
  137.7640   73.7210  220.8260 C   0  0  0  0  0  0  0  0  0  0  0  0
  136.8720   74.1300  220.0180 O   0  0  0  0  0  0  0  0  0  0  0  0
  138.4740   72.4220  220.6180 C   0  0  0  0  0  0  0  0  0  0  0  0
  138.7180   71.7440  221.8760 N   0  0  0  0  0  0  0  0  0  0  0  0
  139.8220   72.0910  222.7040 C   0  0  0  0  0  0  0  0  0  0  0  0
  140.6490   72.9970  222.4060 O   0  0  0  0  0  0  0  0  0  0  0  0
  140.0020   71.3670  223.9560 C   0  0  0  0  0  0  0  0  0  0  0  0
  140.7050   71.9080  225.0130 C   0  0  0  0  0  0  0  0  0  0  0  0
  140.8760   71.2100  226.2080 C   0  0  0  0  0  0  0  0  0  0  0  0
  140.3300   69.9440  226.3460 C   0  0  0  0  0  0  0  0  0  0  0  0
  140.4780   69.2200  227.5170 C   0  0  0  0  0  0  0  0  0  0  0  0
  139.9120   67.9450  227.6190 C   0  0  0  0  0  0  0  0  0  0  0  0
  139.2110   67.4140  226.5560 C   0  0  0  0  0  0  0  0  0  0  0  0
  139.0730   68.1560  225.3870 C   0  0  0  0  0  0  0  0  0  0  0  0
  139.6330   69.4270  225.2770 C   0  0  0  0  0  0  0  0  0  0  0  0
  139.4810   70.1180  224.1330 N   0  0  0  0  0  0  0  0  0  0  0  0
  138.6360   76.7130  222.5560 C   0  0  0  0  0  0  0  0  0  0  0  0
  138.2990   77.9870  222.9690 C   0  0  0  0  0  0  0  0  0  0  0  0
  139.3210   78.8810  223.2040 C   0  0  0  0  0  0  0  0  0  0  0  0
  140.6610   78.5210  223.0340 C   0  0  0  0  0  0  0  0  0  0  0  0
  141.9580   79.6610  223.3330 Cl  0  0  0  0  0  0  0  0  0  0  0  0
  140.9840   77.2420  222.6200 C   0  0  0  0  0  0  0  0  0  0  0  0
  139.9660   76.3300  222.3790 C   0  0  0  0  0  0  0  0  0  0  0  0
  137.1655   75.7080  224.4118 H   0  0  0  0  0  0  0  0  0  0  0  0
  135.8656   76.4683  223.4325 H   0  0  0  0  0  0  0  0  0  0  0  0
  136.0625   74.6828  223.4325 H   0  0  0  0  0  0  0  0  0  0  0  0
  136.9191   76.1018  221.4641 H   0  0  0  0  0  0  0  0  0  0  0  0
  138.8750   74.1150  222.6230 H   0  0  0  0  0  0  0  0  0  0  0  0
  137.8565   71.7755  219.9771 H   0  0  0  0  0  0  0  0  0  0  0  0
  139.4444   72.6304  220.1437 H   0  0  0  0  0  0  0  0  0  0  0  0
  138.0680   70.9770  222.1940 H   0  0  0  0  0  0  0  0  0  0  0  0
  141.1405   72.9129  224.9106 H   0  0  0  0  0  0  0  0  0  0  0  0
  141.4412   71.6619  227.0365 H   0  0  0  0  0  0  0  0  0  0  0  0
  141.0379   69.6455  228.3629 H   0  0  0  0  0  0  0  0  0  0  0  0
  140.0258   67.3655  228.5470 H   0  0  0  0  0  0  0  0  0  0  0  0
  138.7645   66.4116  226.6320 H   0  0  0  0  0  0  0  0  0  0  0  0
  138.5145   67.7336  224.5387 H   0  0  0  0  0  0  0  0  0  0  0  0
  137.2474   78.2791  223.1061 H   0  0  0  0  0  0  0  0  0  0  0  0
  139.0766   79.9018  223.5331 H   0  0  0  0  0  0  0  0  0  0  0  0
  142.0358   76.9506  222.4832 H   0  0  0  0  0  0  0  0  0  0  0  0
  140.2069   75.3085  222.0495 H   0  0  0  0  0  0  0  0  0  0  0  0
  1  2  1  0
  2  3  1  0
  3  4  1  0
  4  5  2  0
  4  6  1  0
  6  7  1  0
  7  8  1  0
  8  9  2  0
  8 10  1  0
 10 11  2  0
 11 12  1  0
 12 13  2  0
 13 14  1  0
 14 15  2  0
 15 16  1  0
 16 17  2  0
 17 18  1  0
 18 19  2  0
  2 20  1  0
 20 21  2  0
 21 22  1  0
 22 23  2  0
 23 24  1  0
 23 25  1  0
 25 26  2  0
 19 10  1  0
 26 20  1  0
 18 13  1  0
  1 27  1  0
  1 28  1  0
  1 29  1  0
  2 30  1  6
  3 31  1  0
  6 32  1  0
  6 33  1  0
  7 34  1  0
 11 35  1  0
 12 36  1  0
 14 37  1  0
 15 38  1  0
 16 39  1  0
 17 40  1  0
 21 41  1  0
 22 42  1  0
 25 43  1  0
 26 44  1  0
M  END
>  <smiles>  (9) 
C[C@H](NC(=O)CNC(=O)c1ccc2ccccc2n1)c1ccc(Cl)cc1

>  <score_type>  (9) 
oracle

>  <origin>  (9) 
autodockgpu

>  <m_score__min__energy>  (9) 
-8.7799999999999994

>  <m_primary>  (9) 
energy

>  <rmsd>  (9) 
4.7879193881336075

>  <m_score__min__rmsd>  (9) 
4.7879193881336075

>  <meeko>  (9) 
{"free_energy": -7.93, "intermolecular_energy": -9.42, "internal_energy": -2.08, "cluster_size": 28, "cluster_id": 2, "rank_in_cluster": 18}

>  <energy>  (9) 
-8.26

>  <cluster_rmsd>  (9) 
1.81

>  <cluster>  (9) 
1

$$$$

     RDKit          3D

 44 46  0  0  0  0  0  0  0  0999 V2000
  136.6700   75.7620  223.4380 C   0  0  0  0  0  0  0  0  0  0  0  0
  137.6060   75.9010  222.2650 C   0  0  2  0  0  0  0  0  0  0  0  0
  138.1950   74.6350  221.8850 N   0  0  0  0  0  0  0  0  0  0  0  0
  138.3680   74.2320  220.5390 C   0  0  0  0  0  0  0  0  0  0  0  0
  138.0090   74.9730  219.5710 O   0  0  0  0  0  0  0  0  0  0  0  0
  138.9940   72.8940  220.3110 C   0  0  0  0  0  0  0  0  0  0  0  0
  138.9890   72.0940  221.5220 N   0  0  0  0  0  0  0  0  0  0  0  0
  139.8380   72.4070  222.6190 C   0  0  0  0  0  0  0  0  0  0  0  0
  140.6390   73.3830  222.6160 O   0  0  0  0  0  0  0  0  0  0  0  0
  139.7780   71.5590  223.8040 C   0  0  0  0  0  0  0  0  0  0  0  0
  139.0390   70.3940  223.8270 C   0  0  0  0  0  0  0  0  0  0  0  0
  138.9840   69.5870  224.9630 C   0  0  0  0  0  0  0  0  0  0  0  0
  139.6850   69.9570  226.0990 C   0  0  0  0  0  0  0  0  0  0  0  0
  139.6550   69.1830  227.2470 C   0  0  0  0  0  0  0  0  0  0  0  0
  140.3760   69.5890  228.3750 C   0  0  0  0  0  0  0  0  0  0  0  0
  141.1110   70.7550  228.3420 C   0  0  0  0  0  0  0  0  0  0  0  0
  141.1300   71.5210  227.1790 C   0  0  0  0  0  0  0  0  0  0  0  0
  140.4140   71.1250  226.0510 C   0  0  0  0  0  0  0  0  0  0  0  0
  140.4540   71.8870  224.9440 N   0  0  0  0  0  0  0  0  0  0  0  0
  138.7100   76.8520  222.5430 C   0  0  0  0  0  0  0  0  0  0  0  0
  138.3800   78.1280  222.9510 C   0  0  0  0  0  0  0  0  0  0  0  0
  139.4060   79.0110  223.2080 C   0  0  0  0  0  0  0  0  0  0  0  0
  140.7450   78.6370  223.0650 C   0  0  0  0  0  0  0  0  0  0  0  0
  142.0490   79.7610  223.3930 Cl  0  0  0  0  0  0  0  0  0  0  0  0
  141.0630   77.3550  222.6560 C   0  0  0  0  0  0  0  0  0  0  0  0
  140.0400   76.4550  222.3920 C   0  0  0  0  0  0  0  0  0  0  0  0
  137.2407   75.8468  224.3745 H   0  0  0  0  0  0  0  0  0  0  0  0
  135.9111   76.5573  223.3978 H   0  0  0  0  0  0  0  0  0  0  0  0
  136.1750   74.7805  223.3978 H   0  0  0  0  0  0  0  0  0  0  0  0
  136.9849   76.2829  221.4413 H   0  0  0  0  0  0  0  0  0  0  0  0
  138.5000   74.0030  222.6710 H   0  0  0  0  0  0  0  0  0  0  0  0
  138.4304   72.3636  219.5293 H   0  0  0  0  0  0  0  0  0  0  0  0
  140.0384   73.0484  220.0023 H   0  0  0  0  0  0  0  0  0  0  0  0
  138.3460   71.2620  221.6000 H   0  0  0  0  0  0  0  0  0  0  0  0
  138.4801   70.0947  222.9281 H   0  0  0  0  0  0  0  0  0  0  0  0
  138.3878   68.6626  224.9570 H   0  0  0  0  0  0  0  0  0  0  0  0
  139.0672   68.2536  227.2718 H   0  0  0  0  0  0  0  0  0  0  0  0
  140.3565   68.9774  229.2891 H   0  0  0  0  0  0  0  0  0  0  0  0
  141.6781   71.0778  229.2275 H   0  0  0  0  0  0  0  0  0  0  0  0
  141.7177   72.4504  227.1505 H   0  0  0  0  0  0  0  0  0  0  0  0
  137.3291   78.4313  223.0677 H   0  0  0  0  0  0  0  0  0  0  0  0
  139.1657   80.0340  223.5332 H   0  0  0  0  0  0  0  0  0  0  0  0
  142.1142   77.0521  222.5413 H   0  0  0  0  0  0  0  0  0  0  0  0
  140.2764   75.4318  222.0647 H   0  0  0  0  0  0  0  0  0  0  0  0
  1  2  1  0
  2  3  1  0
  3  4  1  0
  4  5  2  0
  4  6  1  0
  6  7  1  0
  7  8  1  0
  8  9  2  0
  8 10  1  0
 10 11  2  0
 11 12  1  0
 12 13  2  0
 13 14  1  0
 14 15  2  0
 15 16  1  0
 16 17  2  0
 17 18  1  0
 18 19  2  0
  2 20  1  0
 20 21  2  0
 21 22  1  0
 22 23  2  0
 23 24  1  0
 23 25  1  0
 25 26  2  0
 19 10  1  0
 26 20  1  0
 18 13  1  0
  1 27  1  0
  1 28  1  0
  1 29  1  0
  2 30  1  6
  3 31  1  0
  6 32  1  0
  6 33  1  0
  7 34  1  0
 11 35  1  0
 12 36  1  0
 14 37  1  0
 15 38  1  0
 16 39  1  0
 17 40  1  0
 21 41  1  0
 22 42  1  0
 25 43  1  0
 26 44  1  0
M  END
>  <smiles>  (10) 
C[C@H](NC(=O)CNC(=O)c1ccc2ccccc2n1)c1ccc(Cl)cc1

>  <score_type>  (10) 
oracle

>  <origin>  (10) 
autodockgpu

>  <m_score__min__energy>  (10) 
-8.7799999999999994

>  <m_primary>  (10) 
energy

>  <rmsd>  (10) 
5.028490462212605

>  <m_score__min__rmsd>  (10) 
5.028490462212605

>  <meeko>  (10) 
{"free_energy": -8.26, "intermolecular_energy": -9.75, "internal_energy": -1.69, "cluster_size": 28, "cluster_id": 2, "rank_in_cluster": 13}

>  <energy>  (10) 
-8.18

>  <cluster_rmsd>  (10) 
1.82

>  <cluster>  (10) 
1

$$$$

     RDKit          3D

 44 46  0  0  0  0  0  0  0  0999 V2000
  137.3910   77.9250  221.2180 C   0  0  0  0  0  0  0  0  0  0  0  0
  138.7570   77.7750  220.5970 C   0  0  2  0  0  0  0  0  0  0  0  0
  139.1380   76.3880  220.4460 N   0  0  0  0  0  0  0  0  0  0  0  0
  139.3890   75.5270  221.5410 C   0  0  0  0  0  0  0  0  0  0  0  0
  139.2930   75.9330  222.7420 O   0  0  0  0  0  0  0  0  0  0  0  0
  139.7730   74.1190  221.2180 C   0  0  0  0  0  0  0  0  0  0  0  0
  139.7770   73.2850  222.4050 N   0  0  0  0  0  0  0  0  0  0  0  0
  140.0490   71.8910  222.3300 C   0  0  0  0  0  0  0  0  0  0  0  0
  140.3020   71.2940  221.2470 O   0  0  0  0  0  0  0  0  0  0  0  0
  140.0370   71.1170  223.5660 C   0  0  0  0  0  0  0  0  0  0  0  0
  139.5650   69.8210  223.6060 C   0  0  0  0  0  0  0  0  0  0  0  0
  139.5550   69.0850  224.7910 C   0  0  0  0  0  0  0  0  0  0  0  0
  140.0290   69.6610  225.9590 C   0  0  0  0  0  0  0  0  0  0  0  0
  140.0350   68.9630  227.1540 C   0  0  0  0  0  0  0  0  0  0  0  0
  140.5220   69.5780  228.3120 C   0  0  0  0  0  0  0  0  0  0  0  0
  140.9920   70.8740  228.2610 C   0  0  0  0  0  0  0  0  0  0  0  0
  140.9770   71.5610  227.0500 C   0  0  0  0  0  0  0  0  0  0  0  0
  140.4940   70.9560  225.8910 C   0  0  0  0  0  0  0  0  0  0  0  0
  140.4950   71.6470  224.7380 N   0  0  0  0  0  0  0  0  0  0  0  0
  139.8090   78.4530  221.3930 C   0  0  0  0  0  0  0  0  0  0  0  0
  139.4410   79.0430  222.5850 C   0  0  0  0  0  0  0  0  0  0  0  0
  140.4190   79.6730  223.3230 C   0  0  0  0  0  0  0  0  0  0  0  0
  141.7480   79.7190  222.8900 C   0  0  0  0  0  0  0  0  0  0  0  0
  142.9900   80.5200  223.8310 Cl  0  0  0  0  0  0  0  0  0  0  0  0
  142.1030   79.1230  221.6930 C   0  0  0  0  0  0  0  0  0  0  0  0
  141.1280   78.4860  220.9380 C   0  0  0  0  0  0  0  0  0  0  0  0
  137.4834   77.9149  222.3141 H   0  0  0  0  0  0  0  0  0  0  0  0
  136.9446   78.8776  220.8965 H   0  0  0  0  0  0  0  0  0  0  0  0
  136.7486   77.0920  220.8965 H   0  0  0  0  0  0  0  0  0  0  0  0
  138.6786   78.2472  219.6066 H   0  0  0  0  0  0  0  0  0  0  0  0
  139.2250   76.0290  219.4580 H   0  0  0  0  0  0  0  0  0  0  0  0
  139.0527   73.7087  220.4949 H   0  0  0  0  0  0  0  0  0  0  0  0
  140.7891   74.1256  220.7966 H   0  0  0  0  0  0  0  0  0  0  0  0
  139.5760   73.7120  223.3480 H   0  0  0  0  0  0  0  0  0  0  0  0
  139.1880   69.3576  222.6824 H   0  0  0  0  0  0  0  0  0  0  0  0
  139.1731   68.0534  224.7983 H   0  0  0  0  0  0  0  0  0  0  0  0
  139.6588   67.9301  227.1929 H   0  0  0  0  0  0  0  0  0  0  0  0
  140.5302   69.0277  229.2644 H   0  0  0  0  0  0  0  0  0  0  0  0
  141.3756   71.3608  229.1698 H   0  0  0  0  0  0  0  0  0  0  0  0
  141.3512   72.5945  227.0075 H   0  0  0  0  0  0  0  0  0  0  0  0
  138.3987   79.0112  222.9352 H   0  0  0  0  0  0  0  0  0  0  0  0
  140.1480   80.1513  224.2758 H   0  0  0  0  0  0  0  0  0  0  0  0
  143.1456   79.1536  221.3438 H   0  0  0  0  0  0  0  0  0  0  0  0
  141.3942   78.0084  219.9835 H   0  0  0  0  0  0  0  0  0  0  0  0
  1  2  1  0
  2  3  1  0
  3  4  1  0
  4  5  2  0
  4  6  1  0
  6  7  1  0
  7  8  1  0
  8  9  2  0
  8 10  1  0
 10 11  2  0
 11 12  1  0
 12 13  2  0
 13 14  1  0
 14 15  2  0
 15 16  1  0
 16 17  2  0
 17 18  1  0
 18 19  2  0
  2 20  1  0
 20 21  2  0
 21 22  1  0
 22 23  2  0
 23 24  1  0
 23 25  1  0
 25 26  2  0
 19 10  1  0
 26 20  1  0
 18 13  1  0
  1 27  1  0
  1 28  1  0
  1 29  1  0
  2 30  1  6
  3 31  1  0
  6 32  1  0
  6 33  1  0
  7 34  1  0
 11 35  1  0
 12 36  1  0
 14 37  1  0
 15 38  1  0
 16 39  1  0
 17 40  1  0
 21 41  1  0
 22 42  1  0
 25 43  1  0
 26 44  1  0
M  END
>  <smiles>  (11) 
C[C@H](NC(=O)CNC(=O)c1ccc2ccccc2n1)c1ccc(Cl)cc1

>  <score_type>  (11) 
oracle

>  <origin>  (11) 
autodockgpu

>  <m_score__min__energy>  (11) 
-8.7799999999999994

>  <m_primary>  (11) 
energy

>  <rmsd>  (11) 
4.306860105218494

>  <m_score__min__rmsd>  (11) 
4.306860105218494

>  <meeko>  (11) 
{"free_energy": -8.13, "intermolecular_energy": -9.62, "internal_energy": -1.59, "cluster_size": 21, "cluster_id": 1, "rank_in_cluster": 15}

>  <energy>  (11) 
-8.16

>  <cluster_rmsd>  (11) 
1.86

>  <cluster>  (11) 
1

$$$$

     RDKit          3D

 44 46  0  0  0  0  0  0  0  0999 V2000
  136.6570   75.9960  223.4780 C   0  0  0  0  0  0  0  0  0  0  0  0
  137.6000   76.1560  222.3120 C   0  0  2  0  0  0  0  0  0  0  0  0
  138.1980   74.8990  221.9170 N   0  0  0  0  0  0  0  0  0  0  0  0
  137.9540   74.2810  220.6670 C   0  0  0  0  0  0  0  0  0  0  0  0
  137.1810   74.8070  219.8050 O   0  0  0  0  0  0  0  0  0  0  0  0
  138.6480   72.9830  220.4100 C   0  0  0  0  0  0  0  0  0  0  0  0
  138.7120   72.1700  221.6080 N   0  0  0  0  0  0  0  0  0  0  0  0
  139.7310   72.3620  222.5820 C   0  0  0  0  0  0  0  0  0  0  0  0
  140.6340   73.2380  222.4720 O   0  0  0  0  0  0  0  0  0  0  0  0
  139.7300   71.5070  223.7630 C   0  0  0  0  0  0  0  0  0  0  0  0
  139.0900   70.2850  223.7750 C   0  0  0  0  0  0  0  0  0  0  0  0
  139.0910   69.4720  224.9080 C   0  0  0  0  0  0  0  0  0  0  0  0
  139.7490   69.8930  226.0520 C   0  0  0  0  0  0  0  0  0  0  0  0
  139.7720   69.1140  227.1960 C   0  0  0  0  0  0  0  0  0  0  0  0
  140.4470   69.5730  228.3320 C   0  0  0  0  0  0  0  0  0  0  0  0
  141.0840   70.7970  228.3100 C   0  0  0  0  0  0  0  0  0  0  0  0
  141.0500   71.5670  227.1510 C   0  0  0  0  0  0  0  0  0  0  0  0
  140.3800   71.1170  226.0140 C   0  0  0  0  0  0  0  0  0  0  0  0
  140.3660   71.8850  224.9110 N   0  0  0  0  0  0  0  0  0  0  0  0
  138.6980   77.1090  222.6100 C   0  0  0  0  0  0  0  0  0  0  0  0
  139.9950   76.6920  222.3940 C   0  0  0  0  0  0  0  0  0  0  0  0
  141.0140   77.5780  222.6710 C   0  0  0  0  0  0  0  0  0  0  0  0
  140.7530   78.8630  223.1570 C   0  0  0  0  0  0  0  0  0  0  0  0
  142.0510   79.9870  223.5090 Cl  0  0  0  0  0  0  0  0  0  0  0  0
  139.4490   79.2680  223.3690 C   0  0  0  0  0  0  0  0  0  0  0  0
  138.4120   78.3870  223.0950 C   0  0  0  0  0  0  0  0  0  0  0  0
  137.2183   76.0912  224.4192 H   0  0  0  0  0  0  0  0  0  0  0  0
  135.8822   76.7755  223.4326 H   0  0  0  0  0  0  0  0  0  0  0  0
  136.1827   75.0045  223.4326 H   0  0  0  0  0  0  0  0  0  0  0  0
  136.9813   76.5460  221.4903 H   0  0  0  0  0  0  0  0  0  0  0  0
  138.8420   74.4450  222.6170 H   0  0  0  0  0  0  0  0  0  0  0  0
  138.0989   72.4316  219.6325 H   0  0  0  0  0  0  0  0  0  0  0  0
  139.6760   73.1993  220.0837 H   0  0  0  0  0  0  0  0  0  0  0  0
  137.9910   71.4180  221.7720 H   0  0  0  0  0  0  0  0  0  0  0  0
  138.5666   69.9439  222.8696 H   0  0  0  0  0  0  0  0  0  0  0  0
  138.5723   68.5021  224.8934 H   0  0  0  0  0  0  0  0  0  0  0  0
  139.2623   68.1393  227.2117 H   0  0  0  0  0  0  0  0  0  0  0  0
  140.4701   68.9578  229.2436 H   0  0  0  0  0  0  0  0  0  0  0  0
  141.6147   71.1615  229.2019 H   0  0  0  0  0  0  0  0  0  0  0  0
  141.5579   72.5425  227.1318 H   0  0  0  0  0  0  0  0  0  0  0  0
  140.2096   75.6829  222.0122 H   0  0  0  0  0  0  0  0  0  0  0  0
  142.0562   77.2672  222.5060 H   0  0  0  0  0  0  0  0  0  0  0  0
  139.2352   80.2773  223.7506 H   0  0  0  0  0  0  0  0  0  0  0  0
  137.3687   78.6943  223.2593 H   0  0  0  0  0  0  0  0  0  0  0  0
  1  2  1  0
  2  3  1  0
  3  4  1  0
  4  5  2  0
  4  6  1  0
  6  7  1  0
  7  8  1  0
  8  9  2  0
  8 10  1  0
 10 11  2  0
 11 12  1  0
 12 13  2  0
 13 14  1  0
 14 15  2  0
 15 16  1  0
 16 17  2  0
 17 18  1  0
 18 19  2  0
  2 20  1  0
 20 21  2  0
 21 22  1  0
 22 23  2  0
 23 24  1  0
 23 25  1  0
 25 26  2  0
 19 10  1  0
 26 20  1  0
 18 13  1  0
  1 27  1  0
  1 28  1  0
  1 29  1  0
  2 30  1  6
  3 31  1  0
  6 32  1  0
  6 33  1  0
  7 34  1  0
 11 35  1  0
 12 36  1  0
 14 37  1  0
 15 38  1  0
 16 39  1  0
 17 40  1  0
 21 41  1  0
 22 42  1  0
 25 43  1  0
 26 44  1  0
M  END
>  <smiles>  (12) 
C[C@H](NC(=O)CNC(=O)c1ccc2ccccc2n1)c1ccc(Cl)cc1

>  <score_type>  (12) 
oracle

>  <origin>  (12) 
autodockgpu

>  <m_score__min__energy>  (12) 
-8.7799999999999994

>  <m_primary>  (12) 
energy

>  <rmsd>  (12) 
5.061931753003793

>  <m_score__min__rmsd>  (12) 
5.061931753003793

>  <meeko>  (12) 
{"free_energy": -8.39, "intermolecular_energy": -9.88, "internal_energy": -1.8, "cluster_size": 28, "cluster_id": 2, "rank_in_cluster": 2}

>  <energy>  (12) 
-8.16

>  <cluster_rmsd>  (12) 
1.84

>  <cluster>  (12) 
1

$$$$

     RDKit          3D

 44 46  0  0  0  0  0  0  0  0999 V2000
  136.6810   75.9080  223.5120 C   0  0  0  0  0  0  0  0  0  0  0  0
  137.6080   76.0500  222.3320 C   0  0  2  0  0  0  0  0  0  0  0  0
  138.1760   74.7820  221.9280 N   0  0  0  0  0  0  0  0  0  0  0  0
  137.9010   74.1680  220.6830 C   0  0  0  0  0  0  0  0  0  0  0  0
  137.1240   74.7070  219.8330 O   0  0  0  0  0  0  0  0  0  0  0  0
  138.5670   72.8570  220.4150 C   0  0  0  0  0  0  0  0  0  0  0  0
  138.6880   72.0670  221.6260 N   0  0  0  0  0  0  0  0  0  0  0  0
  139.7480   72.2830  222.5490 C   0  0  0  0  0  0  0  0  0  0  0  0
  140.6410   73.1600  222.3820 O   0  0  0  0  0  0  0  0  0  0  0  0
  139.8040   71.4510  223.7460 C   0  0  0  0  0  0  0  0  0  0  0  0
  139.2880   70.1720  223.7660 C   0  0  0  0  0  0  0  0  0  0  0  0
  139.3430   69.3820  224.9130 C   0  0  0  0  0  0  0  0  0  0  0  0
  139.9280   69.8850  226.0640 C   0  0  0  0  0  0  0  0  0  0  0  0
  140.0010   69.1310  227.2230 C   0  0  0  0  0  0  0  0  0  0  0  0
  140.6000   69.6730  228.3650 C   0  0  0  0  0  0  0  0  0  0  0  0
  141.1130   70.9540  228.3340 C   0  0  0  0  0  0  0  0  0  0  0  0
  141.0300   71.6970  227.1600 C   0  0  0  0  0  0  0  0  0  0  0  0
  140.4350   71.1650  226.0180 C   0  0  0  0  0  0  0  0  0  0  0  0
  140.3720   71.9090  224.9000 N   0  0  0  0  0  0  0  0  0  0  0  0
  138.7280   76.9820  222.6120 C   0  0  0  0  0  0  0  0  0  0  0  0
  140.0150   76.5340  222.3960 C   0  0  0  0  0  0  0  0  0  0  0  0
  141.0540   77.4000  222.6570 C   0  0  0  0  0  0  0  0  0  0  0  0
  140.8240   78.6970  223.1260 C   0  0  0  0  0  0  0  0  0  0  0  0
  142.1480   79.7970  223.4570 Cl  0  0  0  0  0  0  0  0  0  0  0  0
  139.5300   79.1340  223.3380 C   0  0  0  0  0  0  0  0  0  0  0  0
  138.4730   78.2730  223.0800 C   0  0  0  0  0  0  0  0  0  0  0  0
  137.2580   75.9964  224.4443 H   0  0  0  0  0  0  0  0  0  0  0  0
  135.9182   76.6998  223.4764 H   0  0  0  0  0  0  0  0  0  0  0  0
  136.1902   74.9242  223.4764 H   0  0  0  0  0  0  0  0  0  0  0  0
  136.9837   76.4515  221.5201 H   0  0  0  0  0  0  0  0  0  0  0  0
  138.8230   74.3160  222.6180 H   0  0  0  0  0  0  0  0  0  0  0  0
  137.9707   72.2963  219.6801 H   0  0  0  0  0  0  0  0  0  0  0  0
  139.5777   73.0549  220.0285 H   0  0  0  0  0  0  0  0  0  0  0  0
  137.9780   71.3160  221.8370 H   0  0  0  0  0  0  0  0  0  0  0  0
  138.8224   69.7661  222.8558 H   0  0  0  0  0  0  0  0  0  0  0  0
  138.9243   68.3648  224.9045 H   0  0  0  0  0  0  0  0  0  0  0  0
  139.5900   68.1109  227.2456 H   0  0  0  0  0  0  0  0  0  0  0  0
  140.6622   69.0781  229.2881 H   0  0  0  0  0  0  0  0  0  0  0  0
  141.5838   71.3844  229.2302 H   0  0  0  0  0  0  0  0  0  0  0  0
  141.4395   72.7176  227.1334 H   0  0  0  0  0  0  0  0  0  0  0  0
  140.2057   75.5157  222.0264 H   0  0  0  0  0  0  0  0  0  0  0  0
  142.0883   77.0635  222.4927 H   0  0  0  0  0  0  0  0  0  0  0  0
  139.3403   80.1527  223.7070 H   0  0  0  0  0  0  0  0  0  0  0  0
  137.4375   78.6061  223.2435 H   0  0  0  0  0  0  0  0  0  0  0  0
  1  2  1  0
  2  3  1  0
  3  4  1  0
  4  5  2  0
  4  6  1  0
  6  7  1  0
  7  8  1  0
  8  9  2  0
  8 10  1  0
 10 11  2  0
 11 12  1  0
 12 13  2  0
 13 14  1  0
 14 15  2  0
 15 16  1  0
 16 17  2  0
 17 18  1  0
 18 19  2  0
  2 20  1  0
 20 21  2  0
 21 22  1  0
 22 23  2  0
 23 24  1  0
 23 25  1  0
 25 26  2  0
 19 10  1  0
 26 20  1  0
 18 13  1  0
  1 27  1  0
  1 28  1  0
  1 29  1  0
  2 30  1  6
  3 31  1  0
  6 32  1  0
  6 33  1  0
  7 34  1  0
 11 35  1  0
 12 36  1  0
 14 37  1  0
 15 38  1  0
 16 39  1  0
 17 40  1  0
 21 41  1  0
 22 42  1  0
 25 43  1  0
 26 44  1  0
M  END
>  <smiles>  (13) 
C[C@H](NC(=O)CNC(=O)c1ccc2ccccc2n1)c1ccc(Cl)cc1

>  <score_type>  (13) 
oracle

>  <origin>  (13) 
autodockgpu

>  <m_score__min__energy>  (13) 
-8.7799999999999994

>  <m_primary>  (13) 
energy

>  <rmsd>  (13) 
5.12095578859967

>  <m_score__min__rmsd>  (13) 
5.12095578859967

>  <meeko>  (13) 
{"free_energy": -8.36, "intermolecular_energy": -9.85, "internal_energy": -1.81, "cluster_size": 28, "cluster_id": 2, "rank_in_cluster": 9}

>  <energy>  (13) 
-8.14

>  <cluster_rmsd>  (13) 
1.88

>  <cluster>  (13) 
1

$$$$

     RDKit          3D

 44 46  0  0  0  0  0  0  0  0999 V2000
  136.6660   75.8820  223.4510 C   0  0  0  0  0  0  0  0  0  0  0  0
  137.6040   76.0270  222.2810 C   0  0  2  0  0  0  0  0  0  0  0  0
  138.1840   74.7610  221.8860 N   0  0  0  0  0  0  0  0  0  0  0  0
  138.0960   74.2420  220.5720 C   0  0  0  0  0  0  0  0  0  0  0  0
  137.4910   74.8710  219.6480 O   0  0  0  0  0  0  0  0  0  0  0  0
  138.7480   72.9200  220.3250 C   0  0  0  0  0  0  0  0  0  0  0  0
  138.7820   72.1120  221.5290 N   0  0  0  0  0  0  0  0  0  0  0  0
  139.7470   72.3420  222.5480 C   0  0  0  0  0  0  0  0  0  0  0  0
  140.6250   73.2470  222.4770 O   0  0  0  0  0  0  0  0  0  0  0  0
  139.7190   71.4910  223.7330 C   0  0  0  0  0  0  0  0  0  0  0  0
  139.0520   70.2830  223.7430 C   0  0  0  0  0  0  0  0  0  0  0  0
  139.0270   69.4740  224.8780 C   0  0  0  0  0  0  0  0  0  0  0  0
  139.6850   69.8840  226.0260 C   0  0  0  0  0  0  0  0  0  0  0  0
  139.6840   69.1080  227.1730 C   0  0  0  0  0  0  0  0  0  0  0  0
  140.3610   69.5560  228.3130 C   0  0  0  0  0  0  0  0  0  0  0  0
  141.0250   70.7650  228.2910 C   0  0  0  0  0  0  0  0  0  0  0  0
  141.0150   71.5320  227.1290 C   0  0  0  0  0  0  0  0  0  0  0  0
  140.3440   71.0940  225.9890 C   0  0  0  0  0  0  0  0  0  0  0  0
  140.3550   71.8580  224.8840 N   0  0  0  0  0  0  0  0  0  0  0  0
  138.7150   76.9670  222.5700 C   0  0  0  0  0  0  0  0  0  0  0  0
  140.0080   76.5240  222.3720 C   0  0  0  0  0  0  0  0  0  0  0  0
  141.0380   77.3980  222.6400 C   0  0  0  0  0  0  0  0  0  0  0  0
  140.7960   78.6960  223.0990 C   0  0  0  0  0  0  0  0  0  0  0  0
  142.1090   79.8050  223.4400 Cl  0  0  0  0  0  0  0  0  0  0  0  0
  139.4970   79.1270  223.2930 C   0  0  0  0  0  0  0  0  0  0  0  0
  138.4470   78.2580  223.0270 C   0  0  0  0  0  0  0  0  0  0  0  0
  137.2337   75.9698  224.3891 H   0  0  0  0  0  0  0  0  0  0  0  0
  135.9025   76.6728  223.4091 H   0  0  0  0  0  0  0  0  0  0  0  0
  136.1769   74.8976  223.4091 H   0  0  0  0  0  0  0  0  0  0  0  0
  136.9859   76.4227  221.4616 H   0  0  0  0  0  0  0  0  0  0  0  0
  138.6900   74.2220  222.6370 H   0  0  0  0  0  0  0  0  0  0  0  0
  138.1834   72.3822  219.5492 H   0  0  0  0  0  0  0  0  0  0  0  0
  139.7835   73.1006  220.0006 H   0  0  0  0  0  0  0  0  0  0  0  0
  138.0790   71.3370  221.6620 H   0  0  0  0  0  0  0  0  0  0  0  0
  138.5281   69.9508  222.8346 H   0  0  0  0  0  0  0  0  0  0  0  0
  138.4877   68.5154  224.8621 H   0  0  0  0  0  0  0  0  0  0  0  0
  139.1538   68.1443  227.1880 H   0  0  0  0  0  0  0  0  0  0  0  0
  140.3636   68.9439  229.2269 H   0  0  0  0  0  0  0  0  0  0  0  0
  141.5584   71.1205  229.1849 H   0  0  0  0  0  0  0  0  0  0  0  0
  141.5438   72.4964  227.1107 H   0  0  0  0  0  0  0  0  0  0  0  0
  140.2090   75.5044  222.0113 H   0  0  0  0  0  0  0  0  0  0  0  0
  142.0760   77.0667  222.4893 H   0  0  0  0  0  0  0  0  0  0  0  0
  139.2973   80.1467  223.6540 H   0  0  0  0  0  0  0  0  0  0  0  0
  137.4077   78.5861  223.1760 H   0  0  0  0  0  0  0  0  0  0  0  0
  1  2  1  0
  2  3  1  0
  3  4  1  0
  4  5  2  0
  4  6  1  0
  6  7  1  0
  7  8  1  0
  8  9  2  0
  8 10  1  0
 10 11  2  0
 11 12  1  0
 12 13  2  0
 13 14  1  0
 14 15  2  0
 15 16  1  0
 16 17  2  0
 17 18  1  0
 18 19  2  0
  2 20  1  0
 20 21  2  0
 21 22  1  0
 22 23  2  0
 23 24  1  0
 23 25  1  0
 25 26  2  0
 19 10  1  0
 26 20  1  0
 18 13  1  0
  1 27  1  0
  1 28  1  0
  1 29  1  0
  2 30  1  6
  3 31  1  0
  6 32  1  0
  6 33  1  0
  7 34  1  0
 11 35  1  0
 12 36  1  0
 14 37  1  0
 15 38  1  0
 16 39  1  0
 17 40  1  0
 21 41  1  0
 22 42  1  0
 25 43  1  0
 26 44  1  0
M  END
>  <smiles>  (14) 
C[C@H](NC(=O)CNC(=O)c1ccc2ccccc2n1)c1ccc(Cl)cc1

>  <score_type>  (14) 
oracle

>  <origin>  (14) 
autodockgpu

>  <m_score__min__energy>  (14) 
-8.7799999999999994

>  <m_primary>  (14) 
energy

>  <rmsd>  (14) 
5.0945982530330145

>  <m_score__min__rmsd>  (14) 
5.0945982530330145

>  <meeko>  (14) 
{"free_energy": -8.36, "intermolecular_energy": -9.86, "internal_energy": -1.8, "cluster_size": 28, "cluster_id": 2, "rank_in_cluster": 7}

>  <energy>  (14) 
-8.14

>  <cluster_rmsd>  (14) 
1.86

>  <cluster>  (14) 
1

$$$$

     RDKit          3D

 44 46  0  0  0  0  0  0  0  0999 V2000
  135.8340   75.1210  224.0410 C   0  0  0  0  0  0  0  0  0  0  0  0
  136.4920   75.3790  222.7090 C   0  0  2  0  0  0  0  0  0  0  0  0
  137.2980   74.2590  222.2740 N   0  0  0  0  0  0  0  0  0  0  0  0
  136.8570   73.3040  221.3260 C   0  0  0  0  0  0  0  0  0  0  0  0
  135.7040   73.3800  220.7950 O   0  0  0  0  0  0  0  0  0  0  0  0
  137.8100   72.2060  220.9810 C   0  0  0  0  0  0  0  0  0  0  0  0
  138.2970   71.5350  222.1710 N   0  0  0  0  0  0  0  0  0  0  0  0
  139.3730   72.0680  222.9340 C   0  0  0  0  0  0  0  0  0  0  0  0
  139.9660   73.1410  222.6350 O   0  0  0  0  0  0  0  0  0  0  0  0
  139.8090   71.3380  224.1200 C   0  0  0  0  0  0  0  0  0  0  0  0
  140.7170   71.8750  225.0090 C   0  0  0  0  0  0  0  0  0  0  0  0
  141.1300   71.1730  226.1410 C   0  0  0  0  0  0  0  0  0  0  0  0
  140.6230   69.9070  226.3850 C   0  0  0  0  0  0  0  0  0  0  0  0
  141.0090   69.1790  227.4970 C   0  0  0  0  0  0  0  0  0  0  0  0
  140.4740   67.9040  227.7100 C   0  0  0  0  0  0  0  0  0  0  0  0
  139.5660   67.3770  226.8150 C   0  0  0  0  0  0  0  0  0  0  0  0
  139.1900   68.1240  225.7020 C   0  0  0  0  0  0  0  0  0  0  0  0
  139.7180   69.3950  225.4820 C   0  0  0  0  0  0  0  0  0  0  0  0
  139.3320   70.0890  224.3970 N   0  0  0  0  0  0  0  0  0  0  0  0
  137.3610   76.5810  222.7400 C   0  0  0  0  0  0  0  0  0  0  0  0
  138.7260   76.3970  222.6630 C   0  0  0  0  0  0  0  0  0  0  0  0
  139.5310   77.5150  222.6910 C   0  0  0  0  0  0  0  0  0  0  0  0
  138.9940   78.8010  222.7940 C   0  0  0  0  0  0  0  0  0  0  0  0
  140.0210   80.2210  222.8300 Cl  0  0  0  0  0  0  0  0  0  0  0  0
  137.6240   78.9710  222.8700 C   0  0  0  0  0  0  0  0  0  0  0  0
  136.8000   77.8550  222.8430 C   0  0  0  0  0  0  0  0  0  0  0  0
  136.5269   75.3927  224.8510 H   0  0  0  0  0  0  0  0  0  0  0  0
  134.9197   75.7272  224.1218 H   0  0  0  0  0  0  0  0  0  0  0  0
  135.5754   74.0549  224.1218 H   0  0  0  0  0  0  0  0  0  0  0  0
  135.6644   75.5371  222.0019 H   0  0  0  0  0  0  0  0  0  0  0  0
  138.2580   74.1760  222.7030 H   0  0  0  0  0  0  0  0  0  0  0  0
  137.2956   71.4731  220.3420 H   0  0  0  0  0  0  0  0  0  0  0  0
  138.6700   72.6464  220.4552 H   0  0  0  0  0  0  0  0  0  0  0  0
  137.8510   70.6330  222.4870 H   0  0  0  0  0  0  0  0  0  0  0  0
  141.1243   72.8793  224.8208 H   0  0  0  0  0  0  0  0  0  0  0  0
  141.8544   71.6220  226.8364 H   0  0  0  0  0  0  0  0  0  0  0  0
  141.7329   69.6008  228.2098 H   0  0  0  0  0  0  0  0  0  0  0  0
  140.7777   67.3211  228.5921 H   0  0  0  0  0  0  0  0  0  0  0  0
  139.1427   66.3751  226.9794 H   0  0  0  0  0  0  0  0  0  0  0  0
  138.4666   67.7056  224.9867 H   0  0  0  0  0  0  0  0  0  0  0  0
  139.1585   75.3889  222.5817 H   0  0  0  0  0  0  0  0  0  0  0  0
  140.6225   77.3922  222.6308 H   0  0  0  0  0  0  0  0  0  0  0  0
  137.1922   79.9795  222.9509 H   0  0  0  0  0  0  0  0  0  0  0  0
  135.7081   77.9739  222.9026 H   0  0  0  0  0  0  0  0  0  0  0  0
  1  2  1  0
  2  3  1  0
  3  4  1  0
  4  5  2  0
  4  6  1  0
  6  7  1  0
  7  8  1  0
  8  9  2  0
  8 10  1  0
 10 11  2  0
 11 12  1  0
 12 13  2  0
 13 14  1  0
 14 15  2  0
 15 16  1  0
 16 17  2  0
 17 18  1  0
 18 19  2  0
  2 20  1  0
 20 21  2  0
 21 22  1  0
 22 23  2  0
 23 24  1  0
 23 25  1  0
 25 26  2  0
 19 10  1  0
 26 20  1  0
 18 13  1  0
  1 27  1  0
  1 28  1  0
  1 29  1  0
  2 30  1  6
  3 31  1  0
  6 32  1  0
  6 33  1  0
  7 34  1  0
 11 35  1  0
 12 36  1  0
 14 37  1  0
 15 38  1  0
 16 39  1  0
 17 40  1  0
 21 41  1  0
 22 42  1  0
 25 43  1  0
 26 44  1  0
M  END
>  <smiles>  (15) 
C[C@H](NC(=O)CNC(=O)c1ccc2ccccc2n1)c1ccc(Cl)cc1

>  <score_type>  (15) 
oracle

>  <origin>  (15) 
autodockgpu

>  <m_score__min__energy>  (15) 
-8.7799999999999994

>  <m_primary>  (15) 
energy

>  <rmsd>  (15) 
5.324194228225103

>  <m_score__min__rmsd>  (15) 
5.324194228225103

>  <meeko>  (15) 
{"free_energy": -7.31, "intermolecular_energy": -8.8, "internal_energy": -2.11, "cluster_size": 28, "cluster_id": 2, "rank_in_cluster": 28}

>  <energy>  (15) 
-8.13

>  <cluster_rmsd>  (15) 
1.87

>  <cluster>  (15) 
1

$$$$

     RDKit          3D

 44 46  0  0  0  0  0  0  0  0999 V2000
  136.5410   75.6210  223.4430 C   0  0  0  0  0  0  0  0  0  0  0  0
  137.4850   75.6570  222.2690 C   0  0  2  0  0  0  0  0  0  0  0  0
  138.0480   74.3560  221.9820 N   0  0  0  0  0  0  0  0  0  0  0  0
  137.7340   73.6120  220.8190 C   0  0  0  0  0  0  0  0  0  0  0  0
  136.9240   74.0550  219.9450 O   0  0  0  0  0  0  0  0  0  0  0  0
  138.4010   72.2830  220.6680 C   0  0  0  0  0  0  0  0  0  0  0  0
  138.6690   71.6760  221.9570 N   0  0  0  0  0  0  0  0  0  0  0  0
  139.7870   72.0700  222.7440 C   0  0  0  0  0  0  0  0  0  0  0  0
  140.6070   72.9590  222.3810 O   0  0  0  0  0  0  0  0  0  0  0  0
  139.9920   71.4160  224.0310 C   0  0  0  0  0  0  0  0  0  0  0  0
  140.7000   72.0220  225.0480 C   0  0  0  0  0  0  0  0  0  0  0  0
  140.8950   71.3920  226.2770 C   0  0  0  0  0  0  0  0  0  0  0  0
  140.3680   70.1280  226.4900 C   0  0  0  0  0  0  0  0  0  0  0  0
  140.5400   69.4700  227.6960 C   0  0  0  0  0  0  0  0  0  0  0  0
  139.9930   68.1950  227.8720 C   0  0  0  0  0  0  0  0  0  0  0  0
  139.2870   67.5980  226.8480 C   0  0  0  0  0  0  0  0  0  0  0  0
  139.1240   68.2740  225.6430 C   0  0  0  0  0  0  0  0  0  0  0  0
  139.6660   69.5450  225.4580 C   0  0  0  0  0  0  0  0  0  0  0  0
  139.4900   70.1710  224.2810 N   0  0  0  0  0  0  0  0  0  0  0  0
  138.6090   76.6020  222.4850 C   0  0  0  0  0  0  0  0  0  0  0  0
  138.3050   77.8990  222.8460 C   0  0  0  0  0  0  0  0  0  0  0  0
  139.3490   78.7760  223.0450 C   0  0  0  0  0  0  0  0  0  0  0  0
  140.6790   78.3760  222.8920 C   0  0  0  0  0  0  0  0  0  0  0  0
  142.0050   79.4930  223.1470 Cl  0  0  0  0  0  0  0  0  0  0  0  0
  140.9700   77.0730  222.5310 C   0  0  0  0  0  0  0  0  0  0  0  0
  139.9290   76.1780  222.3250 C   0  0  0  0  0  0  0  0  0  0  0  0
  137.1187   75.6430  224.3788 H   0  0  0  0  0  0  0  0  0  0  0  0
  135.8734   76.4943  223.4036 H   0  0  0  0  0  0  0  0  0  0  0  0
  135.9418   74.6994  223.4036 H   0  0  0  0  0  0  0  0  0  0  0  0
  136.8752   75.9932  221.4175 H   0  0  0  0  0  0  0  0  0  0  0  0
  138.7230   73.9680  222.6930 H   0  0  0  0  0  0  0  0  0  0  0  0
  137.7448   71.6171  220.0883 H   0  0  0  0  0  0  0  0  0  0  0  0
  139.3598   72.4338  220.1503 H   0  0  0  0  0  0  0  0  0  0  0  0
  138.0270   70.9260  222.3290 H   0  0  0  0  0  0  0  0  0  0  0  0
  141.1206   73.0254  224.8860 H   0  0  0  0  0  0  0  0  0  0  0  0
  141.4638   71.8955  227.0726 H   0  0  0  0  0  0  0  0  0  0  0  0
  141.1037   69.9474  228.5111 H   0  0  0  0  0  0  0  0  0  0  0  0
  140.1258   67.6675  228.8281 H   0  0  0  0  0  0  0  0  0  0  0  0
  138.8562   66.5950  226.9833 H   0  0  0  0  0  0  0  0  0  0  0  0
  138.5604   67.7997  224.8261 H   0  0  0  0  0  0  0  0  0  0  0  0
  137.2612   78.2227  222.9710 H   0  0  0  0  0  0  0  0  0  0  0  0
  139.1302   79.8154  223.3310 H   0  0  0  0  0  0  0  0  0  0  0  0
  142.0142   76.7496  222.4085 H   0  0  0  0  0  0  0  0  0  0  0  0
  140.1437   75.1384  222.0367 H   0  0  0  0  0  0  0  0  0  0  0  0
  1  2  1  0
  2  3  1  0
  3  4  1  0
  4  5  2  0
  4  6  1  0
  6  7  1  0
  7  8  1  0
  8  9  2  0
  8 10  1  0
 10 11  2  0
 11 12  1  0
 12 13  2  0
 13 14  1  0
 14 15  2  0
 15 16  1  0
 16 17  2  0
 17 18  1  0
 18 19  2  0
  2 20  1  0
 20 21  2  0
 21 22  1  0
 22 23  2  0
 23 24  1  0
 23 25  1  0
 25 26  2  0
 19 10  1  0
 26 20  1  0
 18 13  1  0
  1 27  1  0
  1 28  1  0
  1 29  1  0
  2 30  1  6
  3 31  1  0
  6 32  1  0
  6 33  1  0
  7 34  1  0
 11 35  1  0
 12 36  1  0
 14 37  1  0
 15 38  1  0
 16 39  1  0
 17 40  1  0
 21 41  1  0
 22 42  1  0
 25 43  1  0
 26 44  1  0
M  END
>  <smiles>  (16) 
C[C@H](NC(=O)CNC(=O)c1ccc2ccccc2n1)c1ccc(Cl)cc1

>  <score_type>  (16) 
oracle

>  <origin>  (16) 
autodockgpu

>  <m_score__min__energy>  (16) 
-8.7799999999999994

>  <m_primary>  (16) 
energy

>  <rmsd>  (16) 
4.887232893663297

>  <m_score__min__rmsd>  (16) 
4.887232893663297

>  <meeko>  (16) 
{"free_energy": -7.88, "intermolecular_energy": -9.37, "internal_energy": -2.08, "cluster_size": 28, "cluster_id": 2, "rank_in_cluster": 21}

>  <energy>  (16) 
-8.11

>  <cluster_rmsd>  (16) 
1.88

>  <cluster>  (16) 
1

$$$$

     RDKit          3D

 44 46  0  0  0  0  0  0  0  0999 V2000
  137.4890   77.9140  221.1960 C   0  0  0  0  0  0  0  0  0  0  0  0
  138.8670   77.7950  220.5960 C   0  0  2  0  0  0  0  0  0  0  0  0
  139.2840   76.4160  220.4600 N   0  0  0  0  0  0  0  0  0  0  0  0
  139.3610   75.5160  221.5500 C   0  0  0  0  0  0  0  0  0  0  0  0
  139.0620   75.8760  222.7320 O   0  0  0  0  0  0  0  0  0  0  0  0
  139.8100   74.1230  221.2450 C   0  0  0  0  0  0  0  0  0  0  0  0
  139.8000   73.2910  222.4320 N   0  0  0  0  0  0  0  0  0  0  0  0
  140.1010   71.9020  222.3660 C   0  0  0  0  0  0  0  0  0  0  0  0
  140.3920   71.3090  221.2900 O   0  0  0  0  0  0  0  0  0  0  0  0
  140.0730   71.1290  223.6020 C   0  0  0  0  0  0  0  0  0  0  0  0
  139.5770   69.8420  223.6420 C   0  0  0  0  0  0  0  0  0  0  0  0
  139.5520   69.1070  224.8270 C   0  0  0  0  0  0  0  0  0  0  0  0
  140.0340   69.6740  225.9950 C   0  0  0  0  0  0  0  0  0  0  0  0
  140.0260   68.9770  227.1910 C   0  0  0  0  0  0  0  0  0  0  0  0
  140.5230   69.5830  228.3500 C   0  0  0  0  0  0  0  0  0  0  0  0
  141.0160   70.8710  228.2980 C   0  0  0  0  0  0  0  0  0  0  0  0
  141.0170   71.5570  227.0880 C   0  0  0  0  0  0  0  0  0  0  0  0
  140.5240   70.9600  225.9280 C   0  0  0  0  0  0  0  0  0  0  0  0
  140.5390   71.6500  224.7750 N   0  0  0  0  0  0  0  0  0  0  0  0
  139.8900   78.5040  221.4040 C   0  0  0  0  0  0  0  0  0  0  0  0
  139.5620   78.8630  222.6950 C   0  0  0  0  0  0  0  0  0  0  0  0
  140.5120   79.5220  223.4440 C   0  0  0  0  0  0  0  0  0  0  0  0
  141.7750   79.8220  222.9230 C   0  0  0  0  0  0  0  0  0  0  0  0
  142.9820   80.6600  223.8780 Cl  0  0  0  0  0  0  0  0  0  0  0  0
  142.0910   79.4550  221.6280 C   0  0  0  0  0  0  0  0  0  0  0  0
  141.1430   78.7920  220.8610 C   0  0  0  0  0  0  0  0  0  0  0  0
  137.5651   77.9074  222.2933 H   0  0  0  0  0  0  0  0  0  0  0  0
  137.0255   78.8555  220.8662 H   0  0  0  0  0  0  0  0  0  0  0  0
  136.8710   77.0659  220.8662 H   0  0  0  0  0  0  0  0  0  0  0  0
  138.7925   78.2594  219.6016 H   0  0  0  0  0  0  0  0  0  0  0  0
  139.5380   76.0950  219.4890 H   0  0  0  0  0  0  0  0  0  0  0  0
  139.1340   73.6853  220.4957 H   0  0  0  0  0  0  0  0  0  0  0  0
  140.8406   74.1678  220.8630 H   0  0  0  0  0  0  0  0  0  0  0  0
  139.5680   73.7150  223.3690 H   0  0  0  0  0  0  0  0  0  0  0  0
  139.1925   69.3853  222.7181 H   0  0  0  0  0  0  0  0  0  0  0  0
  139.1516   68.0825  224.8339 H   0  0  0  0  0  0  0  0  0  0  0  0
  139.6307   67.9512  227.2300 H   0  0  0  0  0  0  0  0  0  0  0  0
  140.5208   69.0329  229.3026 H   0  0  0  0  0  0  0  0  0  0  0  0
  141.4056   71.3519  229.2074 H   0  0  0  0  0  0  0  0  0  0  0  0
  141.4115   72.5830  227.0455 H   0  0  0  0  0  0  0  0  0  0  0  0
  138.5718   78.6301  223.1137 H   0  0  0  0  0  0  0  0  0  0  0  0
  140.2718   79.8191  224.4755 H   0  0  0  0  0  0  0  0  0  0  0  0
  143.0822   79.6858  221.2104 H   0  0  0  0  0  0  0  0  0  0  0  0
  141.3785   78.4945  219.8285 H   0  0  0  0  0  0  0  0  0  0  0  0
  1  2  1  0
  2  3  1  0
  3  4  1  0
  4  5  2  0
  4  6  1  0
  6  7  1  0
  7  8  1  0
  8  9  2  0
  8 10  1  0
 10 11  2  0
 11 12  1  0
 12 13  2  0
 13 14  1  0
 14 15  2  0
 15 16  1  0
 16 17  2  0
 17 18  1  0
 18 19  2  0
  2 20  1  0
 20 21  2  0
 21 22  1  0
 22 23  2  0
 23 24  1  0
 23 25  1  0
 25 26  2  0
 19 10  1  0
 26 20  1  0
 18 13  1  0
  1 27  1  0
  1 28  1  0
  1 29  1  0
  2 30  1  6
  3 31  1  0
  6 32  1  0
  6 33  1  0
  7 34  1  0
 11 35  1  0
 12 36  1  0
 14 37  1  0
 15 38  1  0
 16 39  1  0
 17 40  1  0
 21 41  1  0
 22 42  1  0
 25 43  1  0
 26 44  1  0
M  END
>  <smiles>  (17) 
C[C@H](NC(=O)CNC(=O)c1ccc2ccccc2n1)c1ccc(Cl)cc1

>  <score_type>  (17) 
oracle

>  <origin>  (17) 
autodockgpu

>  <m_score__min__energy>  (17) 
-8.7799999999999994

>  <m_primary>  (17) 
energy

>  <rmsd>  (17) 
4.271776773573724

>  <m_score__min__rmsd>  (17) 
4.271776773573724

>  <meeko>  (17) 
{"free_energy": -8.16, "intermolecular_energy": -9.65, "internal_energy": -1.57, "cluster_size": 21, "cluster_id": 1, "rank_in_cluster": 12}

>  <energy>  (17) 
-8.1

>  <cluster_rmsd>  (17) 
1.89

>  <cluster>  (17) 
1

$$$$

     RDKit          3D

 44 46  0  0  0  0  0  0  0  0999 V2000
  136.7300   75.9790  223.4700 C   0  0  0  0  0  0  0  0  0  0  0  0
  137.6630   76.1260  222.2950 C   0  0  2  0  0  0  0  0  0  0  0  0
  138.2510   74.8630  221.9050 N   0  0  0  0  0  0  0  0  0  0  0  0
  138.0640   74.2780  220.6300 C   0  0  0  0  0  0  0  0  0  0  0  0
  137.3540   74.8420  219.7380 O   0  0  0  0  0  0  0  0  0  0  0  0
  138.7410   72.9690  220.3820 C   0  0  0  0  0  0  0  0  0  0  0  0
  138.7880   72.1610  221.5850 N   0  0  0  0  0  0  0  0  0  0  0  0
  139.7920   72.3620  222.5730 C   0  0  0  0  0  0  0  0  0  0  0  0
  140.6930   73.2400  222.4740 O   0  0  0  0  0  0  0  0  0  0  0  0
  139.7750   71.5120  223.7580 C   0  0  0  0  0  0  0  0  0  0  0  0
  139.1100   70.3030  223.7760 C   0  0  0  0  0  0  0  0  0  0  0  0
  139.0970   69.4950  224.9120 C   0  0  0  0  0  0  0  0  0  0  0  0
  139.7640   69.9070  226.0540 C   0  0  0  0  0  0  0  0  0  0  0  0
  139.7730   69.1330  227.2020 C   0  0  0  0  0  0  0  0  0  0  0  0
  140.4600   69.5830  228.3350 C   0  0  0  0  0  0  0  0  0  0  0  0
  141.1210   70.7930  228.3060 C   0  0  0  0  0  0  0  0  0  0  0  0
  141.1010   71.5580  227.1440 C   0  0  0  0  0  0  0  0  0  0  0  0
  140.4200   71.1180  226.0100 C   0  0  0  0  0  0  0  0  0  0  0  0
  140.4200   71.8810  224.9030 N   0  0  0  0  0  0  0  0  0  0  0  0
  138.7670   77.0760  222.5760 C   0  0  0  0  0  0  0  0  0  0  0  0
  140.0600   76.6550  222.3440 C   0  0  0  0  0  0  0  0  0  0  0  0
  141.0840   77.5390  222.6040 C   0  0  0  0  0  0  0  0  0  0  0  0
  140.8340   78.8260  223.0880 C   0  0  0  0  0  0  0  0  0  0  0  0
  142.1390   79.9480  223.4190 Cl  0  0  0  0  0  0  0  0  0  0  0  0
  139.5330   79.2360  223.3160 C   0  0  0  0  0  0  0  0  0  0  0  0
  138.4910   78.3570  223.0590 C   0  0  0  0  0  0  0  0  0  0  0  0
  137.3015   76.0690  224.4055 H   0  0  0  0  0  0  0  0  0  0  0  0
  135.9641   76.7675  223.4309 H   0  0  0  0  0  0  0  0  0  0  0  0
  136.2436   74.9931  223.4309 H   0  0  0  0  0  0  0  0  0  0  0  0
  137.0396   76.5129  221.4754 H   0  0  0  0  0  0  0  0  0  0  0  0
  138.8440   74.3770  222.6290 H   0  0  0  0  0  0  0  0  0  0  0  0
  138.1877   72.4216  219.6047 H   0  0  0  0  0  0  0  0  0  0  0  0
  139.7733   73.1691  220.0590 H   0  0  0  0  0  0  0  0  0  0  0  0
  138.0670   71.4070  221.7410 H   0  0  0  0  0  0  0  0  0  0  0  0
  138.5778   69.9691  222.8731 H   0  0  0  0  0  0  0  0  0  0  0  0
  138.5598   68.5352  224.9015 H   0  0  0  0  0  0  0  0  0  0  0  0
  139.2429   68.1694  227.2233 H   0  0  0  0  0  0  0  0  0  0  0  0
  140.4728   68.9713  229.2492 H   0  0  0  0  0  0  0  0  0  0  0  0
  141.6603   71.1509  229.1954 H   0  0  0  0  0  0  0  0  0  0  0  0
  141.6294   72.5225  227.1198 H   0  0  0  0  0  0  0  0  0  0  0  0
  140.2671   75.6441  221.9629 H   0  0  0  0  0  0  0  0  0  0  0  0
  142.1230   77.2245  222.4265 H   0  0  0  0  0  0  0  0  0  0  0  0
  139.3269   80.2472  223.6967 H   0  0  0  0  0  0  0  0  0  0  0  0
  137.4507   78.6680  223.2351 H   0  0  0  0  0  0  0  0  0  0  0  0
  1  2  1  0
  2  3  1  0
  3  4  1  0
  4  5  2  0
  4  6  1  0
  6  7  1  0
  7  8  1  0
  8  9  2  0
  8 10  1  0
 10 11  2  0
 11 12  1  0
 12 13  2  0
 13 14  1  0
 14 15  2  0
 15 16  1  0
 16 17  2  0
 17 18  1  0
 18 19  2  0
  2 20  1  0
 20 21  2  0
 21 22  1  0
 22 23  2  0
 23 24  1  0
 23 25  1  0
 25 26  2  0
 19 10  1  0
 26 20  1  0
 18 13  1  0
  1 27  1  0
  1 28  1  0
  1 29  1  0
  2 30  1  6
  3 31  1  0
  6 32  1  0
  6 33  1  0
  7 34  1  0
 11 35  1  0
 12 36  1  0
 14 37  1  0
 15 38  1  0
 16 39  1  0
 17 40  1  0
 21 41  1  0
 22 42  1  0
 25 43  1  0
 26 44  1  0
M  END
>  <smiles>  (18) 
C[C@H](NC(=O)CNC(=O)c1ccc2ccccc2n1)c1ccc(Cl)cc1

>  <score_type>  (18) 
oracle

>  <origin>  (18) 
autodockgpu

>  <m_score__min__energy>  (18) 
-8.7799999999999994

>  <m_primary>  (18) 
energy

>  <rmsd>  (18) 
5.04895594704796

>  <m_score__min__rmsd>  (18) 
5.04895594704796

>  <meeko>  (18) 
{"free_energy": -8.41, "intermolecular_energy": -9.9, "internal_energy": -1.8, "cluster_size": 28, "cluster_id": 2, "rank_in_cluster": 1}

>  <energy>  (18) 
-8.08

>  <cluster_rmsd>  (18) 
1.91

>  <cluster>  (18) 
1

$$$$

     RDKit          3D

 44 46  0  0  0  0  0  0  0  0999 V2000
  137.5180   77.9120  221.1130 C   0  0  0  0  0  0  0  0  0  0  0  0
  138.9080   77.7910  220.5420 C   0  0  2  0  0  0  0  0  0  0  0  0
  139.3280   76.4130  220.4180 N   0  0  0  0  0  0  0  0  0  0  0  0
  139.4760   75.5420  221.5250 C   0  0  0  0  0  0  0  0  0  0  0  0
  139.2430   75.9320  222.7130 O   0  0  0  0  0  0  0  0  0  0  0  0
  139.9180   74.1450  221.2300 C   0  0  0  0  0  0  0  0  0  0  0  0
  139.8580   73.3100  222.4140 N   0  0  0  0  0  0  0  0  0  0  0  0
  140.2150   71.9340  222.3690 C   0  0  0  0  0  0  0  0  0  0  0  0
  140.6000   71.3550  221.3150 O   0  0  0  0  0  0  0  0  0  0  0  0
  140.1320   71.1560  223.6000 C   0  0  0  0  0  0  0  0  0  0  0  0
  139.5840   69.8910  223.6240 C   0  0  0  0  0  0  0  0  0  0  0  0
  139.5060   69.1520  224.8040 C   0  0  0  0  0  0  0  0  0  0  0  0
  139.9890   69.6940  225.9840 C   0  0  0  0  0  0  0  0  0  0  0  0
  139.9290   68.9920  227.1760 C   0  0  0  0  0  0  0  0  0  0  0  0
  140.4280   69.5730  228.3470 C   0  0  0  0  0  0  0  0  0  0  0  0
  140.9740   70.8390  228.3120 C   0  0  0  0  0  0  0  0  0  0  0  0
  141.0250   71.5300  227.1050 C   0  0  0  0  0  0  0  0  0  0  0  0
  140.5310   70.9590  225.9330 C   0  0  0  0  0  0  0  0  0  0  0  0
  140.5960   71.6530  224.7840 N   0  0  0  0  0  0  0  0  0  0  0  0
  139.9140   78.5030  221.3690 C   0  0  0  0  0  0  0  0  0  0  0  0
  139.5120   79.0050  222.5900 C   0  0  0  0  0  0  0  0  0  0  0  0
  140.4470   79.6660  223.3560 C   0  0  0  0  0  0  0  0  0  0  0  0
  141.7660   79.8270  222.9220 C   0  0  0  0  0  0  0  0  0  0  0  0
  142.9530   80.6680  223.8990 Cl  0  0  0  0  0  0  0  0  0  0  0  0
  142.1560   79.3180  221.6970 C   0  0  0  0  0  0  0  0  0  0  0  0
  141.2250   78.6510  220.9130 C   0  0  0  0  0  0  0  0  0  0  0  0
  137.5713   77.9074  222.2117 H   0  0  0  0  0  0  0  0  0  0  0  0
  137.0622   78.8532  220.7720 H   0  0  0  0  0  0  0  0  0  0  0  0
  136.9064   77.0637  220.7720 H   0  0  0  0  0  0  0  0  0  0  0  0
  138.8537   78.2520  219.5448 H   0  0  0  0  0  0  0  0  0  0  0  0
  139.5270   76.0680  219.4420 H   0  0  0  0  0  0  0  0  0  0  0  0
  139.2621   73.7178  220.4571 H   0  0  0  0  0  0  0  0  0  0  0  0
  140.9610   74.1780  220.8821 H   0  0  0  0  0  0  0  0  0  0  0  0
  139.5470   73.7220  223.3340 H   0  0  0  0  0  0  0  0  0  0  0  0
  139.1993   69.4545  222.6905 H   0  0  0  0  0  0  0  0  0  0  0  0
  139.0637   68.1449  224.7980 H   0  0  0  0  0  0  0  0  0  0  0  0
  139.4915   67.9831  227.2022 H   0  0  0  0  0  0  0  0  0  0  0  0
  140.3847   69.0194  229.2966 H   0  0  0  0  0  0  0  0  0  0  0  0
  141.3662   71.2990  229.2310 H   0  0  0  0  0  0  0  0  0  0  0  0
  141.4606   72.5396  227.0754 H   0  0  0  0  0  0  0  0  0  0  0  0
  138.4768   78.8812  222.9408 H   0  0  0  0  0  0  0  0  0  0  0  0
  140.1487   80.0767  224.3319 H   0  0  0  0  0  0  0  0  0  0  0  0
  143.1920   79.4403  221.3479 H   0  0  0  0  0  0  0  0  0  0  0  0
  141.5192   78.2405  219.9358 H   0  0  0  0  0  0  0  0  0  0  0  0
  1  2  1  0
  2  3  1  0
  3  4  1  0
  4  5  2  0
  4  6  1  0
  6  7  1  0
  7  8  1  0
  8  9  2  0
  8 10  1  0
 10 11  2  0
 11 12  1  0
 12 13  2  0
 13 14  1  0
 14 15  2  0
 15 16  1  0
 16 17  2  0
 17 18  1  0
 18 19  2  0
  2 20  1  0
 20 21  2  0
 21 22  1  0
 22 23  2  0
 23 24  1  0
 23 25  1  0
 25 26  2  0
 19 10  1  0
 26 20  1  0
 18 13  1  0
  1 27  1  0
  1 28  1  0
  1 29  1  0
  2 30  1  6
  3 31  1  0
  6 32  1  0
  6 33  1  0
  7 34  1  0
 11 35  1  0
 12 36  1  0
 14 37  1  0
 15 38  1  0
 16 39  1  0
 17 40  1  0
 21 41  1  0
 22 42  1  0
 25 43  1  0
 26 44  1  0
M  END
>  <smiles>  (19) 
C[C@H](NC(=O)CNC(=O)c1ccc2ccccc2n1)c1ccc(Cl)cc1

>  <score_type>  (19) 
oracle

>  <origin>  (19) 
autodockgpu

>  <m_score__min__energy>  (19) 
-8.7799999999999994

>  <m_primary>  (19) 
energy

>  <rmsd>  (19) 
4.2672177708697845

>  <m_score__min__rmsd>  (19) 
4.2672177708697845

>  <meeko>  (19) 
{"free_energy": -8.18, "intermolecular_energy": -9.67, "internal_energy": -1.56, "cluster_size": 21, "cluster_id": 1, "rank_in_cluster": 10}

>  <energy>  (19) 
-8.08

>  <cluster_rmsd>  (19) 
1.91

>  <cluster>  (19) 
1

$$$$

     RDKit          3D

 44 46  0  0  0  0  0  0  0  0999 V2000
  141.8320   78.5500  223.7800 C   0  0  0  0  0  0  0  0  0  0  0  0
  140.9050   78.3670  222.6050 C   0  0  2  0  0  0  0  0  0  0  0  0
  140.9500   77.0200  222.0800 N   0  0  0  0  0  0  0  0  0  0  0  0
  139.7980   76.2170  221.8960 C   0  0  0  0  0  0  0  0  0  0  0  0
  138.6370   76.6440  222.1890 O   0  0  0  0  0  0  0  0  0  0  0  0
  140.0130   74.8460  221.3420 C   0  0  0  0  0  0  0  0  0  0  0  0
  139.7860   73.8270  222.3490 N   0  0  0  0  0  0  0  0  0  0  0  0
  140.5800   72.6480  222.4010 C   0  0  0  0  0  0  0  0  0  0  0  0
  141.5190   72.4120  221.5910 O   0  0  0  0  0  0  0  0  0  0  0  0
  140.2950   71.6670  223.4420 C   0  0  0  0  0  0  0  0  0  0  0  0
  139.6140   70.4990  223.1720 C   0  0  0  0  0  0  0  0  0  0  0  0
  139.3430   69.5650  224.1720 C   0  0  0  0  0  0  0  0  0  0  0  0
  139.7650   69.8080  225.4690 C   0  0  0  0  0  0  0  0  0  0  0  0
  139.5150   68.9060  226.4890 C   0  0  0  0  0  0  0  0  0  0  0  0
  139.9580   69.1870  227.7860 C   0  0  0  0  0  0  0  0  0  0  0  0
  140.6390   70.3580  228.0440 C   0  0  0  0  0  0  0  0  0  0  0  0
  140.8810   71.2540  227.0070 C   0  0  0  0  0  0  0  0  0  0  0  0
  140.4440   70.9820  225.7120 C   0  0  0  0  0  0  0  0  0  0  0  0
  140.6940   71.8690  224.7320 N   0  0  0  0  0  0  0  0  0  0  0  0
  141.2200   79.3000  221.4950 C   0  0  0  0  0  0  0  0  0  0  0  0
  141.1620   80.6550  221.7510 C   0  0  0  0  0  0  0  0  0  0  0  0
  141.4540   81.5200  220.7200 C   0  0  0  0  0  0  0  0  0  0  0  0
  141.8010   81.0530  219.4490 C   0  0  0  0  0  0  0  0  0  0  0  0
  142.1730   82.1560  218.1390 Cl  0  0  0  0  0  0  0  0  0  0  0  0
  141.8560   79.6930  219.2060 C   0  0  0  0  0  0  0  0  0  0  0  0
  141.5630   78.8080  220.2350 C   0  0  0  0  0  0  0  0  0  0  0  0
  141.2645   78.4380  224.7156 H   0  0  0  0  0  0  0  0  0  0  0  0
  142.6278   77.7916  223.7408 H   0  0  0  0  0  0  0  0  0  0  0  0
  142.2799   79.5539  223.7408 H   0  0  0  0  0  0  0  0  0  0  0  0
  139.8983   78.5795  222.9941 H   0  0  0  0  0  0  0  0  0  0  0  0
  141.9030   76.6440  221.8300 H   0  0  0  0  0  0  0  0  0  0  0  0
  139.3166   74.6845  220.5060 H   0  0  0  0  0  0  0  0  0  0  0  0
  141.0561   74.7698  221.0012 H   0  0  0  0  0  0  0  0  0  0  0  0
  139.0200   73.9530  223.0620 H   0  0  0  0  0  0  0  0  0  0  0  0
  139.2766   70.2990  222.1443 H   0  0  0  0  0  0  0  0  0  0  0  0
  138.7972   68.6406  223.9321 H   0  0  0  0  0  0  0  0  0  0  0  0
  138.9708   67.9730  226.2808 H   0  0  0  0  0  0  0  0  0  0  0  0
  139.7630   68.4736  228.6002 H   0  0  0  0  0  0  0  0  0  0  0  0
  140.9886   70.5824  229.0626 H   0  0  0  0  0  0  0  0  0  0  0  0
  141.4239   72.1884  227.2121 H   0  0  0  0  0  0  0  0  0  0  0  0
  140.8909   81.0324  222.7480 H   0  0  0  0  0  0  0  0  0  0  0  0
  141.4132   82.6042  220.9010 H   0  0  0  0  0  0  0  0  0  0  0  0
  142.1287   79.3165  218.2091 H   0  0  0  0  0  0  0  0  0  0  0  0
  141.6011   77.7231  220.0576 H   0  0  0  0  0  0  0  0  0  0  0  0
  1  2  1  0
  2  3  1  0
  3  4  1  0
  4  5  2  0
  4  6  1  0
  6  7  1  0
  7  8  1  0
  8  9  2  0
  8 10  1  0
 10 11  2  0
 11 12  1  0
 12 13  2  0
 13 14  1  0
 14 15  2  0
 15 16  1  0
 16 17  2  0
 17 18  1  0
 18 19  2  0
  2 20  1  0
 20 21  2  0
 21 22  1  0
 22 23  2  0
 23 24  1  0
 23 25  1  0
 25 26  2  0
 19 10  1  0
 26 20  1  0
 18 13  1  0
  1 27  1  0
  1 28  1  0
  1 29  1  0
  2 30  1  1
  3 31  1  0
  6 32  1  0
  6 33  1  0
  7 34  1  0
 11 35  1  0
 12 36  1  0
 14 37  1  0
 15 38  1  0
 16 39  1  0
 17 40  1  0
 21 41  1  0
 22 42  1  0
 25 43  1  0
 26 44  1  0
M  END
>  <smiles>  (20) 
C[C@H](NC(=O)CNC(=O)c1ccc2ccccc2n1)c1ccc(Cl)cc1

>  <score_type>  (20) 
oracle

>  <origin>  (20) 
autodockgpu

>  <m_score__min__energy>  (20) 
-8.7799999999999994

>  <m_primary>  (20) 
energy

>  <rmsd>  (20) 
3.361882524180903

>  <m_score__min__rmsd>  (20) 
3.361882524180903

>  <meeko>  (20) 
{"free_energy": -8.74, "intermolecular_energy": -10.23, "internal_energy": -0.99, "cluster_size": 21, "cluster_id": 1, "rank_in_cluster": 3}

>  <energy>  (20) 
-8.08

>  <cluster_rmsd>  (20) 
1.87

>  <cluster>  (20) 
1

$$$$

     RDKit          3D

 44 46  0  0  0  0  0  0  0  0999 V2000
  137.3570   77.9630  221.2390 C   0  0  0  0  0  0  0  0  0  0  0  0
  138.7220   77.8160  220.6170 C   0  0  2  0  0  0  0  0  0  0  0  0
  139.1040   76.4290  220.4620 N   0  0  0  0  0  0  0  0  0  0  0  0
  139.3410   75.5610  221.5550 C   0  0  0  0  0  0  0  0  0  0  0  0
  139.2310   75.9610  222.7570 O   0  0  0  0  0  0  0  0  0  0  0  0
  139.7280   74.1550  221.2280 C   0  0  0  0  0  0  0  0  0  0  0  0
  139.7470   73.3220  222.4150 N   0  0  0  0  0  0  0  0  0  0  0  0
  139.9880   71.9220  222.3340 C   0  0  0  0  0  0  0  0  0  0  0  0
  140.1980   71.3200  221.2440 O   0  0  0  0  0  0  0  0  0  0  0  0
  139.9940   71.1480  223.5700 C   0  0  0  0  0  0  0  0  0  0  0  0
  139.5470   69.8430  223.6110 C   0  0  0  0  0  0  0  0  0  0  0  0
  139.5540   69.1080  224.7960 C   0  0  0  0  0  0  0  0  0  0  0  0
  140.0180   69.6930  225.9630 C   0  0  0  0  0  0  0  0  0  0  0  0
  140.0400   68.9960  227.1580 C   0  0  0  0  0  0  0  0  0  0  0  0
  140.5160   69.6210  228.3160 C   0  0  0  0  0  0  0  0  0  0  0  0
  140.9600   70.9260  228.2630 C   0  0  0  0  0  0  0  0  0  0  0  0
  140.9300   71.6120  227.0520 C   0  0  0  0  0  0  0  0  0  0  0  0
  140.4570   70.9970  225.8940 C   0  0  0  0  0  0  0  0  0  0  0  0
  140.4420   71.6870  224.7410 N   0  0  0  0  0  0  0  0  0  0  0  0
  139.7740   78.4930  221.4140 C   0  0  0  0  0  0  0  0  0  0  0  0
  139.4110   79.0630  222.6170 C   0  0  0  0  0  0  0  0  0  0  0  0
  140.3890   79.6920  223.3560 C   0  0  0  0  0  0  0  0  0  0  0  0
  141.7130   79.7560  222.9120 C   0  0  0  0  0  0  0  0  0  0  0  0
  142.9550   80.5560  223.8550 Cl  0  0  0  0  0  0  0  0  0  0  0  0
  142.0640   79.1800  221.7050 C   0  0  0  0  0  0  0  0  0  0  0  0
  141.0900   78.5440  220.9490 C   0  0  0  0  0  0  0  0  0  0  0  0
  137.4505   77.9529  222.3350 H   0  0  0  0  0  0  0  0  0  0  0  0
  136.9083   78.9147  220.9180 H   0  0  0  0  0  0  0  0  0  0  0  0
  136.7160   77.1287  220.9180 H   0  0  0  0  0  0  0  0  0  0  0  0
  138.6427   78.2908  219.6279 H   0  0  0  0  0  0  0  0  0  0  0  0
  139.2030   76.0760  219.4740 H   0  0  0  0  0  0  0  0  0  0  0  0
  139.0026   73.7414  220.5120 H   0  0  0  0  0  0  0  0  0  0  0  0
  140.7397   74.1658  220.7962 H   0  0  0  0  0  0  0  0  0  0  0  0
  139.5810   73.7530  223.3630 H   0  0  0  0  0  0  0  0  0  0  0  0
  139.1769   69.3721  222.6883 H   0  0  0  0  0  0  0  0  0  0  0  0
  139.1929   68.0690  224.8042 H   0  0  0  0  0  0  0  0  0  0  0  0
  139.6850   67.9556  227.1976 H   0  0  0  0  0  0  0  0  0  0  0  0
  140.5362   69.0716  229.2687 H   0  0  0  0  0  0  0  0  0  0  0  0
  141.3350   71.4209  229.1710 H   0  0  0  0  0  0  0  0  0  0  0  0
  141.2840   72.6526  227.0084 H   0  0  0  0  0  0  0  0  0  0  0  0
  138.3720   79.0166  222.9753 H   0  0  0  0  0  0  0  0  0  0  0  0
  140.1218   80.1545  224.3176 H   0  0  0  0  0  0  0  0  0  0  0  0
  143.1036   79.2255  221.3483 H   0  0  0  0  0  0  0  0  0  0  0  0
  141.3534   78.0814  219.9864 H   0  0  0  0  0  0  0  0  0  0  0  0
  1  2  1  0
  2  3  1  0
  3  4  1  0
  4  5  2  0
  4  6  1  0
  6  7  1  0
  7  8  1  0
  8  9  2  0
  8 10  1  0
 10 11  2  0
 11 12  1  0
 12 13  2  0
 13 14  1  0
 14 15  2  0
 15 16  1  0
 16 17  2  0
 17 18  1  0
 18 19  2  0
  2 20  1  0
 20 21  2  0
 21 22  1  0
 22 23  2  0
 23 24  1  0
 23 25  1  0
 25 26  2  0
 19 10  1  0
 26 20  1  0
 18 13  1  0
  1 27  1  0
  1 28  1  0
  1 29  1  0
  2 30  1  6
  3 31  1  0
  6 32  1  0
  6 33  1  0
  7 34  1  0
 11 35  1  0
 12 36  1  0
 14 37  1  0
 15 38  1  0
 16 39  1  0
 17 40  1  0
 21 41  1  0
 22 42  1  0
 25 43  1  0
 26 44  1  0
M  END
>  <smiles>  (21) 
C[C@H](NC(=O)CNC(=O)c1ccc2ccccc2n1)c1ccc(Cl)cc1

>  <score_type>  (21) 
oracle

>  <origin>  (21) 
autodockgpu

>  <m_score__min__energy>  (21) 
-8.7799999999999994

>  <m_primary>  (21) 
energy

>  <rmsd>  (21) 
4.296667740609965

>  <m_score__min__rmsd>  (21) 
4.296667740609965

>  <meeko>  (21) 
{"free_energy": -8.11, "intermolecular_energy": -9.6, "internal_energy": -1.61, "cluster_size": 21, "cluster_id": 1, "rank_in_cluster": 16}

>  <energy>  (21) 
-8.06

>  <cluster_rmsd>  (21) 
1.88

>  <cluster>  (21) 
1

$$$$

     RDKit          3D

 44 46  0  0  0  0  0  0  0  0999 V2000
  136.6350   75.8320  223.4770 C   0  0  0  0  0  0  0  0  0  0  0  0
  137.5750   75.9820  222.3080 C   0  0  2  0  0  0  0  0  0  0  0  0
  138.1620   74.7190  221.9150 N   0  0  0  0  0  0  0  0  0  0  0  0
  138.2540   74.2900  220.5690 C   0  0  0  0  0  0  0  0  0  0  0  0
  137.8170   75.0040  219.6120 O   0  0  0  0  0  0  0  0  0  0  0  0
  138.8900   72.9590  220.3280 C   0  0  0  0  0  0  0  0  0  0  0  0
  138.8920   72.1470  221.5300 N   0  0  0  0  0  0  0  0  0  0  0  0
  139.7760   72.4240  222.6090 C   0  0  0  0  0  0  0  0  0  0  0  0
  140.6040   73.3760  222.5970 O   0  0  0  0  0  0  0  0  0  0  0  0
  139.7200   71.5650  223.7870 C   0  0  0  0  0  0  0  0  0  0  0  0
  138.9870   70.3960  223.8000 C   0  0  0  0  0  0  0  0  0  0  0  0
  138.9360   69.5800  224.9290 C   0  0  0  0  0  0  0  0  0  0  0  0
  139.6340   69.9440  226.0690 C   0  0  0  0  0  0  0  0  0  0  0  0
  139.6080   69.1590  227.2100 C   0  0  0  0  0  0  0  0  0  0  0  0
  140.3270   69.5600  228.3410 C   0  0  0  0  0  0  0  0  0  0  0  0
  141.0560   70.7310  228.3180 C   0  0  0  0  0  0  0  0  0  0  0  0
  141.0710   71.5060  227.1630 C   0  0  0  0  0  0  0  0  0  0  0  0
  140.3580   71.1150  226.0310 C   0  0  0  0  0  0  0  0  0  0  0  0
  140.3930   71.8870  224.9310 N   0  0  0  0  0  0  0  0  0  0  0  0
  138.6800   76.9270  222.6000 C   0  0  0  0  0  0  0  0  0  0  0  0
  139.9750   76.4960  222.3930 C   0  0  0  0  0  0  0  0  0  0  0  0
  141.0000   77.3750  222.6640 C   0  0  0  0  0  0  0  0  0  0  0  0
  140.7500   78.6680  223.1330 C   0  0  0  0  0  0  0  0  0  0  0  0
  142.0570   79.7840  223.4770 Cl  0  0  0  0  0  0  0  0  0  0  0  0
  139.4490   79.0880  223.3350 C   0  0  0  0  0  0  0  0  0  0  0  0
  138.4050   78.2140  223.0670 C   0  0  0  0  0  0  0  0  0  0  0  0
  137.2005   75.9222  224.4162 H   0  0  0  0  0  0  0  0  0  0  0  0
  135.8678   76.6191  223.4339 H   0  0  0  0  0  0  0  0  0  0  0  0
  136.1508   74.8452  223.4339 H   0  0  0  0  0  0  0  0  0  0  0  0
  136.9572   76.3746  221.4869 H   0  0  0  0  0  0  0  0  0  0  0  0
  138.5310   74.1100  222.6930 H   0  0  0  0  0  0  0  0  0  0  0  0
  138.3300   72.4321  219.5413 H   0  0  0  0  0  0  0  0  0  0  0  0
  139.9332   73.1247  220.0209 H   0  0  0  0  0  0  0  0  0  0  0  0
  138.2260   71.3330  221.6160 H   0  0  0  0  0  0  0  0  0  0  0  0
  138.4299   70.1012  222.8985 H   0  0  0  0  0  0  0  0  0  0  0  0
  138.3450   68.6524  224.9148 H   0  0  0  0  0  0  0  0  0  0  0  0
  139.0255   68.2260  227.2266 H   0  0  0  0  0  0  0  0  0  0  0  0
  140.3111   68.9407  229.2500 H   0  0  0  0  0  0  0  0  0  0  0  0
  141.6212   71.0494  229.2064 H   0  0  0  0  0  0  0  0  0  0  0  0
  141.6529   72.4392  227.1427 H   0  0  0  0  0  0  0  0  0  0  0  0
  140.1820   75.4811  222.0228 H   0  0  0  0  0  0  0  0  0  0  0  0
  142.0399   77.0521  222.5077 H   0  0  0  0  0  0  0  0  0  0  0  0
  139.2433   80.1036  223.7041 H   0  0  0  0  0  0  0  0  0  0  0  0
  137.3640   78.5340  223.2219 H   0  0  0  0  0  0  0  0  0  0  0  0
  1  2  1  0
  2  3  1  0
  3  4  1  0
  4  5  2  0
  4  6  1  0
  6  7  1  0
  7  8  1  0
  8  9  2  0
  8 10  1  0
 10 11  2  0
 11 12  1  0
 12 13  2  0
 13 14  1  0
 14 15  2  0
 15 16  1  0
 16 17  2  0
 17 18  1  0
 18 19  2  0
  2 20  1  0
 20 21  2  0
 21 22  1  0
 22 23  2  0
 23 24  1  0
 23 25  1  0
 25 26  2  0
 19 10  1  0
 26 20  1  0
 18 13  1  0
  1 27  1  0
  1 28  1  0
  1 29  1  0
  2 30  1  6
  3 31  1  0
  6 32  1  0
  6 33  1  0
  7 34  1  0
 11 35  1  0
 12 36  1  0
 14 37  1  0
 15 38  1  0
 16 39  1  0
 17 40  1  0
 21 41  1  0
 22 42  1  0
 25 43  1  0
 26 44  1  0
M  END
>  <smiles>  (22) 
C[C@H](NC(=O)CNC(=O)c1ccc2ccccc2n1)c1ccc(Cl)cc1

>  <score_type>  (22) 
oracle

>  <origin>  (22) 
autodockgpu

>  <m_score__min__energy>  (22) 
-8.7799999999999994

>  <m_primary>  (22) 
energy

>  <rmsd>  (22) 
5.109188451619987

>  <m_score__min__rmsd>  (22) 
5.109188451619987

>  <meeko>  (22) 
{"free_energy": -8.33, "intermolecular_energy": -9.82, "internal_energy": -1.73, "cluster_size": 28, "cluster_id": 2, "rank_in_cluster": 10}

>  <energy>  (22) 
-8.41

>  <cluster_rmsd>  (22) 
0.0

>  <cluster>  (22) 
2

$$$$

     RDKit          3D

 44 46  0  0  0  0  0  0  0  0999 V2000
  141.7560   78.6180  223.4440 C   0  0  0  0  0  0  0  0  0  0  0  0
  140.9630   78.3200  222.1970 C   0  0  2  0  0  0  0  0  0  0  0  0
  141.0680   76.9320  221.8030 N   0  0  0  0  0  0  0  0  0  0  0  0
  139.9570   76.0580  221.7320 C   0  0  0  0  0  0  0  0  0  0  0  0
  138.7820   76.4510  222.0170 O   0  0  0  0  0  0  0  0  0  0  0  0
  140.2310   74.6520  221.3060 C   0  0  0  0  0  0  0  0  0  0  0  0
  139.9460   73.7100  222.3720 N   0  0  0  0  0  0  0  0  0  0  0  0
  140.6470   72.4770  222.4790 C   0  0  0  0  0  0  0  0  0  0  0  0
  141.5490   72.1240  221.6690 O   0  0  0  0  0  0  0  0  0  0  0  0
  140.3080   71.5810  223.5790 C   0  0  0  0  0  0  0  0  0  0  0  0
  139.6200   70.4040  223.3700 C   0  0  0  0  0  0  0  0  0  0  0  0
  139.2970   69.5510  224.4250 C   0  0  0  0  0  0  0  0  0  0  0  0
  139.6720   69.8870  225.7160 C   0  0  0  0  0  0  0  0  0  0  0  0
  139.3700   69.0660  226.7890 C   0  0  0  0  0  0  0  0  0  0  0  0
  139.7670   69.4390  228.0780 C   0  0  0  0  0  0  0  0  0  0  0  0
  140.4540   70.6180  228.2760 C   0  0  0  0  0  0  0  0  0  0  0  0
  140.7490   71.4310  227.1850 C   0  0  0  0  0  0  0  0  0  0  0  0
  140.3580   71.0680  225.8970 C   0  0  0  0  0  0  0  0  0  0  0  0
  140.6590   71.8750  224.8650 N   0  0  0  0  0  0  0  0  0  0  0  0
  141.3940   79.1540  221.0490 C   0  0  0  0  0  0  0  0  0  0  0  0
  141.7960   78.5120  219.8950 C   0  0  0  0  0  0  0  0  0  0  0  0
  142.1970   79.2880  218.8300 C   0  0  0  0  0  0  0  0  0  0  0  0
  142.2000   80.6840  218.9020 C   0  0  0  0  0  0  0  0  0  0  0  0
  142.7110   81.6680  217.5450 Cl  0  0  0  0  0  0  0  0  0  0  0  0
  141.7950   81.3150  220.0630 C   0  0  0  0  0  0  0  0  0  0  0  0
  141.3890   80.5470  221.1460 C   0  0  0  0  0  0  0  0  0  0  0  0
  141.1458   78.3887  224.3301 H   0  0  0  0  0  0  0  0  0  0  0  0
  142.6663   78.0006  223.4559 H   0  0  0  0  0  0  0  0  0  0  0  0
  142.0345   79.6821  223.4559 H   0  0  0  0  0  0  0  0  0  0  0  0
  139.9194   78.5540  222.4544 H   0  0  0  0  0  0  0  0  0  0  0  0
  142.0330   76.5830  221.5630 H   0  0  0  0  0  0  0  0  0  0  0  0
  139.5996   74.4117  220.4379 H   0  0  0  0  0  0  0  0  0  0  0  0
  141.2972   74.5703  221.0482 H   0  0  0  0  0  0  0  0  0  0  0  0
  139.2070   73.9360  223.0890 H   0  0  0  0  0  0  0  0  0  0  0  0
  139.3191   70.1318  222.3476 H   0  0  0  0  0  0  0  0  0  0  0  0
  138.7479   68.6173  224.2335 H   0  0  0  0  0  0  0  0  0  0  0  0
  138.8213   68.1261  226.6293 H   0  0  0  0  0  0  0  0  0  0  0  0
  139.5306   68.7906  228.9346 H   0  0  0  0  0  0  0  0  0  0  0  0
  140.7666   70.9140  229.2883 H   0  0  0  0  0  0  0  0  0  0  0  0
  141.2975   72.3716  227.3412 H   0  0  0  0  0  0  0  0  0  0  0  0
  141.7961   77.4140  219.8280 H   0  0  0  0  0  0  0  0  0  0  0  0
  142.5226   78.7976  217.9008 H   0  0  0  0  0  0  0  0  0  0  0  0
  141.7943   82.4131  220.1282 H   0  0  0  0  0  0  0  0  0  0  0  0
  141.0645   81.0342  222.0773 H   0  0  0  0  0  0  0  0  0  0  0  0
  1  2  1  0
  2  3  1  0
  3  4  1  0
  4  5  2  0
  4  6  1  0
  6  7  1  0
  7  8  1  0
  8  9  2  0
  8 10  1  0
 10 11  2  0
 11 12  1  0
 12 13  2  0
 13 14  1  0
 14 15  2  0
 15 16  1  0
 16 17  2  0
 17 18  1  0
 18 19  2  0
  2 20  1  0
 20 21  2  0
 21 22  1  0
 22 23  2  0
 23 24  1  0
 23 25  1  0
 25 26  2  0
 19 10  1  0
 26 20  1  0
 18 13  1  0
  1 27  1  0
  1 28  1  0
  1 29  1  0
  2 30  1  1
  3 31  1  0
  6 32  1  0
  6 33  1  0
  7 34  1  0
 11 35  1  0
 12 36  1  0
 14 37  1  0
 15 38  1  0
 16 39  1  0
 17 40  1  0
 21 41  1  0
 22 42  1  0
 25 43  1  0
 26 44  1  0
M  END
>  <smiles>  (23) 
C[C@H](NC(=O)CNC(=O)c1ccc2ccccc2n1)c1ccc(Cl)cc1

>  <score_type>  (23) 
oracle

>  <origin>  (23) 
autodockgpu

>  <m_score__min__energy>  (23) 
-8.7799999999999994

>  <m_primary>  (23) 
energy

>  <rmsd>  (23) 
3.6020929140723195

>  <m_score__min__rmsd>  (23) 
3.6020929140723195

>  <meeko>  (23) 
{"free_energy": -8.67, "intermolecular_energy": -10.16, "internal_energy": -1.0, "cluster_size": 21, "cluster_id": 1, "rank_in_cluster": 7}

>  <energy>  (23) 
-8.39

>  <cluster_rmsd>  (23) 
0.08

>  <cluster>  (23) 
2

$$$$

     RDKit          3D

 44 46  0  0  0  0  0  0  0  0999 V2000
  137.4220   77.8570  221.1970 C   0  0  0  0  0  0  0  0  0  0  0  0
  138.7990   77.7270  220.5970 C   0  0  2  0  0  0  0  0  0  0  0  0
  139.2050   76.3450  220.4590 N   0  0  0  0  0  0  0  0  0  0  0  0
  139.3680   75.4680  221.5580 C   0  0  0  0  0  0  0  0  0  0  0  0
  139.1620   75.8540  222.7520 O   0  0  0  0  0  0  0  0  0  0  0  0
  139.7910   74.0690  221.2480 C   0  0  0  0  0  0  0  0  0  0  0  0
  139.7890   73.2390  222.4380 N   0  0  0  0  0  0  0  0  0  0  0  0
  140.0530   71.8430  222.3670 C   0  0  0  0  0  0  0  0  0  0  0  0
  140.3020   71.2410  221.2860 O   0  0  0  0  0  0  0  0  0  0  0  0
  140.0350   71.0730  223.6060 C   0  0  0  0  0  0  0  0  0  0  0  0
  139.5530   69.7810  223.6500 C   0  0  0  0  0  0  0  0  0  0  0  0
  139.5380   69.0490  224.8370 C   0  0  0  0  0  0  0  0  0  0  0  0
  140.0160   69.6240  226.0030 C   0  0  0  0  0  0  0  0  0  0  0  0
  140.0170   68.9300  227.2000 C   0  0  0  0  0  0  0  0  0  0  0  0
  140.5100   69.5450  228.3560 C   0  0  0  0  0  0  0  0  0  0  0  0
  140.9890   70.8370  228.3010 C   0  0  0  0  0  0  0  0  0  0  0  0
  140.9800   71.5200  227.0880 C   0  0  0  0  0  0  0  0  0  0  0  0
  140.4920   70.9150  225.9310 C   0  0  0  0  0  0  0  0  0  0  0  0
  140.4980   71.6020  224.7760 N   0  0  0  0  0  0  0  0  0  0  0  0
  139.8280   78.4260  221.4060 C   0  0  0  0  0  0  0  0  0  0  0  0
  141.0830   78.5910  220.8560 C   0  0  0  0  0  0  0  0  0  0  0  0
  142.0380   79.2400  221.6080 C   0  0  0  0  0  0  0  0  0  0  0  0
  141.7560   79.7220  222.8900 C   0  0  0  0  0  0  0  0  0  0  0  0
  142.9730   80.5470  223.8440 Cl  0  0  0  0  0  0  0  0  0  0  0  0
  140.4940   79.5500  223.4290 C   0  0  0  0  0  0  0  0  0  0  0  0
  139.5220   78.8980  222.6840 C   0  0  0  0  0  0  0  0  0  0  0  0
  137.4980   77.8498  222.2944 H   0  0  0  0  0  0  0  0  0  0  0  0
  136.9661   78.8022  220.8672 H   0  0  0  0  0  0  0  0  0  0  0  0
  136.7972   77.0138  220.8672 H   0  0  0  0  0  0  0  0  0  0  0  0
  138.7278   78.1933  219.6033 H   0  0  0  0  0  0  0  0  0  0  0  0
  139.3820   76.0030  219.4770 H   0  0  0  0  0  0  0  0  0  0  0  0
  139.0959   73.6399  220.5113 H   0  0  0  0  0  0  0  0  0  0  0  0
  140.8153   74.0978  220.8479 H   0  0  0  0  0  0  0  0  0  0  0  0
  139.5910   73.6700  223.3790 H   0  0  0  0  0  0  0  0  0  0  0  0
  139.1719   69.3178  222.7279 H   0  0  0  0  0  0  0  0  0  0  0  0
  139.1486   68.0203  224.8472 H   0  0  0  0  0  0  0  0  0  0  0  0
  139.6323   67.9003  227.2425 H   0  0  0  0  0  0  0  0  0  0  0  0
  140.5155   68.9972  229.3099 H   0  0  0  0  0  0  0  0  0  0  0  0
  141.3752   71.3241  229.2085 H   0  0  0  0  0  0  0  0  0  0  0  0
  141.3628   72.5502  227.0420 H   0  0  0  0  0  0  0  0  0  0  0  0
  141.3139   78.2159  219.8480 H   0  0  0  0  0  0  0  0  0  0  0  0
  143.0456   79.3822  221.1902 H   0  0  0  0  0  0  0  0  0  0  0  0
  140.2636   79.9258  224.4368 H   0  0  0  0  0  0  0  0  0  0  0  0
  138.5135   78.7534  223.0988 H   0  0  0  0  0  0  0  0  0  0  0  0
  1  2  1  0
  2  3  1  0
  3  4  1  0
  4  5  2  0
  4  6  1  0
  6  7  1  0
  7  8  1  0
  8  9  2  0
  8 10  1  0
 10 11  2  0
 11 12  1  0
 12 13  2  0
 13 14  1  0
 14 15  2  0
 15 16  1  0
 16 17  2  0
 17 18  1  0
 18 19  2  0
  2 20  1  0
 20 21  2  0
 21 22  1  0
 22 23  2  0
 23 24  1  0
 23 25  1  0
 25 26  2  0
 19 10  1  0
 26 20  1  0
 18 13  1  0
  1 27  1  0
  1 28  1  0
  1 29  1  0
  2 30  1  6
  3 31  1  0
  6 32  1  0
  6 33  1  0
  7 34  1  0
 11 35  1  0
 12 36  1  0
 14 37  1  0
 15 38  1  0
 16 39  1  0
 17 40  1  0
 21 41  1  0
 22 42  1  0
 25 43  1  0
 26 44  1  0
M  END
>  <smiles>  (24) 
C[C@H](NC(=O)CNC(=O)c1ccc2ccccc2n1)c1ccc(Cl)cc1

>  <score_type>  (24) 
oracle

>  <origin>  (24) 
autodockgpu

>  <m_score__min__energy>  (24) 
-8.7799999999999994

>  <m_primary>  (24) 
energy

>  <rmsd>  (24) 
4.54158645097417

>  <m_score__min__rmsd>  (24) 
4.54158645097417

>  <meeko>  (24) 
{"free_energy": -8.14, "intermolecular_energy": -9.63, "internal_energy": -1.6, "cluster_size": 21, "cluster_id": 1, "rank_in_cluster": 14}

>  <energy>  (24) 
-8.37

>  <cluster_rmsd>  (24) 
0.03

>  <cluster>  (24) 
2

$$$$

     RDKit          3D

 44 46  0  0  0  0  0  0  0  0999 V2000
  136.5730   76.0180  223.4020 C   0  0  0  0  0  0  0  0  0  0  0  0
  137.5250   76.1060  222.2370 C   0  0  2  0  0  0  0  0  0  0  0  0
  138.0440   74.8100  221.8570 N   0  0  0  0  0  0  0  0  0  0  0  0
  137.2190   73.7200  221.4870 C   0  0  0  0  0  0  0  0  0  0  0  0
  135.9520   73.8220  221.4690 O   0  0  0  0  0  0  0  0  0  0  0  0
  137.9090   72.4460  221.1200 C   0  0  0  0  0  0  0  0  0  0  0  0
  138.3720   71.7370  222.2970 N   0  0  0  0  0  0  0  0  0  0  0  0
  139.5200   72.1670  223.0170 C   0  0  0  0  0  0  0  0  0  0  0  0
  140.2030   73.1770  222.6890 O   0  0  0  0  0  0  0  0  0  0  0  0
  139.9260   71.4040  224.1930 C   0  0  0  0  0  0  0  0  0  0  0  0
  140.8380   71.9010  225.1010 C   0  0  0  0  0  0  0  0  0  0  0  0
  141.2240   71.1670  226.2220 C   0  0  0  0  0  0  0  0  0  0  0  0
  140.6830   69.9100  226.4370 C   0  0  0  0  0  0  0  0  0  0  0  0
  141.0400   69.1510  227.5390 C   0  0  0  0  0  0  0  0  0  0  0  0
  140.4720   67.8860  227.7220 C   0  0  0  0  0  0  0  0  0  0  0  0
  139.5610   67.3990  226.8070 C   0  0  0  0  0  0  0  0  0  0  0  0
  139.2130   68.1760  225.7060 C   0  0  0  0  0  0  0  0  0  0  0  0
  139.7740   69.4370  225.5150 C   0  0  0  0  0  0  0  0  0  0  0  0
  139.4170   70.1620  224.4410 N   0  0  0  0  0  0  0  0  0  0  0  0
  138.6800   76.9920  222.5260 C   0  0  0  0  0  0  0  0  0  0  0  0
  138.4200   78.2670  222.9850 C   0  0  0  0  0  0  0  0  0  0  0  0
  139.4930   79.0890  223.2520 C   0  0  0  0  0  0  0  0  0  0  0  0
  140.8100   78.6560  223.0700 C   0  0  0  0  0  0  0  0  0  0  0  0
  142.1720   79.7030  223.4120 Cl  0  0  0  0  0  0  0  0  0  0  0  0
  141.0560   77.3750  222.6110 C   0  0  0  0  0  0  0  0  0  0  0  0
  139.9860   76.5360  222.3360 C   0  0  0  0  0  0  0  0  0  0  0  0
  137.1397   76.0704  224.3433 H   0  0  0  0  0  0  0  0  0  0  0  0
  135.8596   76.8540  223.3565 H   0  0  0  0  0  0  0  0  0  0  0  0
  136.0249   75.0654  223.3565 H   0  0  0  0  0  0  0  0  0  0  0  0
  136.9325   76.5248  221.4102 H   0  0  0  0  0  0  0  0  0  0  0  0
  139.0920   74.7020  221.8650 H   0  0  0  0  0  0  0  0  0  0  0  0
  137.2059   71.8041  220.5690 H   0  0  0  0  0  0  0  0  0  0  0  0
  138.7824   72.6920  220.4982 H   0  0  0  0  0  0  0  0  0  0  0  0
  137.8530   70.8830  222.6350 H   0  0  0  0  0  0  0  0  0  0  0  0
  141.2705   72.8990  224.9369 H   0  0  0  0  0  0  0  0  0  0  0  0
  141.9540   71.5838  226.9316 H   0  0  0  0  0  0  0  0  0  0  0  0
  141.7667   69.5411  228.2668 H   0  0  0  0  0  0  0  0  0  0  0  0
  140.7516   67.2790  228.5957 H   0  0  0  0  0  0  0  0  0  0  0  0
  139.1132   66.4041  226.9468 H   0  0  0  0  0  0  0  0  0  0  0  0
  138.4855   67.7895  224.9770 H   0  0  0  0  0  0  0  0  0  0  0  0
  137.3876   78.6165  223.1332 H   0  0  0  0  0  0  0  0  0  0  0  0
  139.3092   80.1103  223.6170 H   0  0  0  0  0  0  0  0  0  0  0  0
  142.0887   77.0251  222.4655 H   0  0  0  0  0  0  0  0  0  0  0  0
  140.1659   75.5146  221.9694 H   0  0  0  0  0  0  0  0  0  0  0  0
  1  2  1  0
  2  3  1  0
  3  4  1  0
  4  5  2  0
  4  6  1  0
  6  7  1  0
  7  8  1  0
  8  9  2  0
  8 10  1  0
 10 11  2  0
 11 12  1  0
 12 13  2  0
 13 14  1  0
 14 15  2  0
 15 16  1  0
 16 17  2  0
 17 18  1  0
 18 19  2  0
  2 20  1  0
 20 21  2  0
 21 22  1  0
 22 23  2  0
 23 24  1  0
 23 25  1  0
 25 26  2  0
 19 10  1  0
 26 20  1  0
 18 13  1  0
  1 27  1  0
  1 28  1  0
  1 29  1  0
  2 30  1  6
  3 31  1  0
  6 32  1  0
  6 33  1  0
  7 34  1  0
 11 35  1  0
 12 36  1  0
 14 37  1  0
 15 38  1  0
 16 39  1  0
 17 40  1  0
 21 41  1  0
 22 42  1  0
 25 43  1  0
 26 44  1  0
M  END
>  <smiles>  (25) 
C[C@H](NC(=O)CNC(=O)c1ccc2ccccc2n1)c1ccc(Cl)cc1

>  <score_type>  (25) 
oracle

>  <origin>  (25) 
autodockgpu

>  <m_score__min__energy>  (25) 
-8.7799999999999994

>  <m_primary>  (25) 
energy

>  <rmsd>  (25) 
4.7920420887919715

>  <m_score__min__rmsd>  (25) 
4.7920420887919715

>  <meeko>  (25) 
{"free_energy": -7.76, "intermolecular_energy": -9.25, "internal_energy": -1.99, "cluster_size": 28, "cluster_id": 2, "rank_in_cluster": 27}

>  <energy>  (25) 
-8.37

>  <cluster_rmsd>  (25) 
0.13

>  <cluster>  (25) 
2

$$$$

     RDKit          3D

 44 46  0  0  0  0  0  0  0  0999 V2000
  137.1980   76.1320  223.1970 C   0  0  0  0  0  0  0  0  0  0  0  0
  138.2900   76.3520  222.1820 C   0  0  2  0  0  0  0  0  0  0  0  0
  139.0670   75.1540  221.9490 N   0  0  0  0  0  0  0  0  0  0  0  0
  139.7970   74.9190  220.7580 C   0  0  0  0  0  0  0  0  0  0  0  0
  139.8100   75.7650  219.8090 O   0  0  0  0  0  0  0  0  0  0  0  0
  140.5500   73.6310  220.6720 C   0  0  0  0  0  0  0  0  0  0  0  0
  140.5720   72.9440  221.9490 N   0  0  0  0  0  0  0  0  0  0  0  0
  139.6170   71.9380  222.2650 C   0  0  0  0  0  0  0  0  0  0  0  0
  138.7020   71.5810  221.4720 O   0  0  0  0  0  0  0  0  0  0  0  0
  139.7030   71.2880  223.5680 C   0  0  0  0  0  0  0  0  0  0  0  0
  139.1720   70.0340  223.7900 C   0  0  0  0  0  0  0  0  0  0  0  0
  139.2560   69.4180  225.0390 C   0  0  0  0  0  0  0  0  0  0  0  0
  139.8840   70.0730  226.0850 C   0  0  0  0  0  0  0  0  0  0  0  0
  139.9870   69.4950  227.3390 C   0  0  0  0  0  0  0  0  0  0  0  0
  140.6300   70.1870  228.3700 C   0  0  0  0  0  0  0  0  0  0  0  0
  141.1570   71.4410  228.1370 C   0  0  0  0  0  0  0  0  0  0  0  0
  141.0440   72.0070  226.8700 C   0  0  0  0  0  0  0  0  0  0  0  0
  140.4050   71.3240  225.8370 C   0  0  0  0  0  0  0  0  0  0  0  0
  140.3140   71.8990  224.6250 N   0  0  0  0  0  0  0  0  0  0  0  0
  139.2250   77.4280  222.5930 C   0  0  0  0  0  0  0  0  0  0  0  0
  138.7010   78.6780  222.8540 C   0  0  0  0  0  0  0  0  0  0  0  0
  139.5700   79.6770  223.2350 C   0  0  0  0  0  0  0  0  0  0  0  0
  140.9430   79.4440  223.3590 C   0  0  0  0  0  0  0  0  0  0  0  0
  142.0460   80.7160  223.8450 Cl  0  0  0  0  0  0  0  0  0  0  0  0
  141.4550   78.1870  223.0960 C   0  0  0  0  0  0  0  0  0  0  0  0
  140.5920   77.1700  222.7100 C   0  0  0  0  0  0  0  0  0  0  0  0
  137.6171   76.2164  224.2105 H   0  0  0  0  0  0  0  0  0  0  0  0
  136.4126   76.8900  223.0607 H   0  0  0  0  0  0  0  0  0  0  0  0
  136.7673   75.1290  223.0607 H   0  0  0  0  0  0  0  0  0  0  0  0
  137.7712   76.6435  221.2568 H   0  0  0  0  0  0  0  0  0  0  0  0
  139.0700   74.4380  222.7220 H   0  0  0  0  0  0  0  0  0  0  0  0
  140.0670   72.9833  219.9256 H   0  0  0  0  0  0  0  0  0  0  0  0
  141.5871   73.8553  220.3819 H   0  0  0  0  0  0  0  0  0  0  0  0
  141.3080   73.1860  222.6640 H   0  0  0  0  0  0  0  0  0  0  0  0
  138.6712   69.5082  222.9637 H   0  0  0  0  0  0  0  0  0  0  0  0
  138.8256   68.4173  225.1920 H   0  0  0  0  0  0  0  0  0  0  0  0
  139.5649   68.4961  227.5233 H   0  0  0  0  0  0  0  0  0  0  0  0
  140.7159   69.7315  229.3676 H   0  0  0  0  0  0  0  0  0  0  0  0
  141.6623   71.9890  228.9459 H   0  0  0  0  0  0  0  0  0  0  0  0
  141.4645   73.0059  226.6820 H   0  0  0  0  0  0  0  0  0  0  0  0
  137.6221   78.8708  222.7606 H   0  0  0  0  0  0  0  0  0  0  0  0
  139.1743   80.6813  223.4466 H   0  0  0  0  0  0  0  0  0  0  0  0
  142.5339   77.9947  223.1914 H   0  0  0  0  0  0  0  0  0  0  0  0
  140.9841   76.1645  222.4972 H   0  0  0  0  0  0  0  0  0  0  0  0
  1  2  1  0
  2  3  1  0
  3  4  1  0
  4  5  2  0
  4  6  1  0
  6  7  1  0
  7  8  1  0
  8  9  2  0
  8 10  1  0
 10 11  2  0
 11 12  1  0
 12 13  2  0
 13 14  1  0
 14 15  2  0
 15 16  1  0
 16 17  2  0
 17 18  1  0
 18 19  2  0
  2 20  1  0
 20 21  2  0
 21 22  1  0
 22 23  2  0
 23 24  1  0
 23 25  1  0
 25 26  2  0
 19 10  1  0
 26 20  1  0
 18 13  1  0
  1 27  1  0
  1 28  1  0
  1 29  1  0
  2 30  1  6
  3 31  1  0
  6 32  1  0
  6 33  1  0
  7 34  1  0
 11 35  1  0
 12 36  1  0
 14 37  1  0
 15 38  1  0
 16 39  1  0
 17 40  1  0
 21 41  1  0
 22 42  1  0
 25 43  1  0
 26 44  1  0
M  END
>  <smiles>  (26) 
C[C@H](NC(=O)CNC(=O)c1ccc2ccccc2n1)c1ccc(Cl)cc1

>  <score_type>  (26) 
oracle

>  <origin>  (26) 
autodockgpu

>  <m_score__min__energy>  (26) 
-8.7799999999999994

>  <m_primary>  (26) 
energy

>  <rmsd>  (26) 
4.675887873864195

>  <m_score__min__rmsd>  (26) 
4.675887873864195

>  <meeko>  (26) 
{"free_energy": -8.18, "intermolecular_energy": -9.68, "internal_energy": -1.43, "cluster_size": 28, "cluster_id": 2, "rank_in_cluster": 14}

>  <energy>  (26) 
-8.37

>  <cluster_rmsd>  (26) 
0.11

>  <cluster>  (26) 
2

$$$$

     RDKit          3D

 44 46  0  0  0  0  0  0  0  0999 V2000
  136.6020   75.6920  223.4700 C   0  0  0  0  0  0  0  0  0  0  0  0
  137.5340   75.7860  222.2900 C   0  0  2  0  0  0  0  0  0  0  0  0
  138.1370   74.5110  221.9680 N   0  0  0  0  0  0  0  0  0  0  0  0
  137.8000   73.7590  220.8170 C   0  0  0  0  0  0  0  0  0  0  0  0
  136.9310   74.1710  219.9850 O   0  0  0  0  0  0  0  0  0  0  0  0
  138.5140   72.4600  220.6270 C   0  0  0  0  0  0  0  0  0  0  0  0
  138.7510   71.7950  221.8940 N   0  0  0  0  0  0  0  0  0  0  0  0
  139.8590   72.1410  222.7160 C   0  0  0  0  0  0  0  0  0  0  0  0
  140.6970   73.0330  222.4060 O   0  0  0  0  0  0  0  0  0  0  0  0
  140.0330   71.4300  223.9780 C   0  0  0  0  0  0  0  0  0  0  0  0
  140.6990   71.9970  225.0450 C   0  0  0  0  0  0  0  0  0  0  0  0
  140.8630   71.3130  226.2490 C   0  0  0  0  0  0  0  0  0  0  0  0
  140.3480   70.0350  226.3850 C   0  0  0  0  0  0  0  0  0  0  0  0
  140.4900   69.3230  227.5650 C   0  0  0  0  0  0  0  0  0  0  0  0
  139.9550   68.0350  227.6650 C   0  0  0  0  0  0  0  0  0  0  0  0
  139.2910   67.4770  226.5920 C   0  0  0  0  0  0  0  0  0  0  0  0
  139.1570   68.2070  225.4140 C   0  0  0  0  0  0  0  0  0  0  0  0
  139.6870   69.4910  225.3050 C   0  0  0  0  0  0  0  0  0  0  0  0
  139.5400   70.1690  224.1540 N   0  0  0  0  0  0  0  0  0  0  0  0
  138.6270   76.7630  222.5190 C   0  0  0  0  0  0  0  0  0  0  0  0
  139.9280   76.3300  222.3590 C   0  0  0  0  0  0  0  0  0  0  0  0
  140.9420   77.2380  222.5720 C   0  0  0  0  0  0  0  0  0  0  0  0
  140.6750   78.5600  222.9380 C   0  0  0  0  0  0  0  0  0  0  0  0
  141.9660   79.7130  223.2090 Cl  0  0  0  0  0  0  0  0  0  0  0  0
  139.3670   78.9810  223.0940 C   0  0  0  0  0  0  0  0  0  0  0  0
  138.3340   78.0780  222.8830 C   0  0  0  0  0  0  0  0  0  0  0  0
  137.1834   75.7506  224.4020 H   0  0  0  0  0  0  0  0  0  0  0  0
  135.8810   76.5220  223.4348 H   0  0  0  0  0  0  0  0  0  0  0  0
  136.0612   74.7348  223.4348 H   0  0  0  0  0  0  0  0  0  0  0  0
  136.9064   76.1208  221.4509 H   0  0  0  0  0  0  0  0  0  0  0  0
  138.8600   74.1490  222.6450 H   0  0  0  0  0  0  0  0  0  0  0  0
  137.9023   71.8057  219.9885 H   0  0  0  0  0  0  0  0  0  0  0  0
  139.4871   72.6658  220.1572 H   0  0  0  0  0  0  0  0  0  0  0  0
  138.0930   71.0400  222.2220 H   0  0  0  0  0  0  0  0  0  0  0  0
  141.1102   73.0122  224.9435 H   0  0  0  0  0  0  0  0  0  0  0  0
  141.3983   71.7859  227.0856 H   0  0  0  0  0  0  0  0  0  0  0  0
  141.0210   69.7688  228.4190 H   0  0  0  0  0  0  0  0  0  0  0  0
  140.0636   67.4660  228.6001 H   0  0  0  0  0  0  0  0  0  0  0  0
  138.8707   66.4632  226.6666 H   0  0  0  0  0  0  0  0  0  0  0  0
  138.6259   67.7644  224.5584 H   0  0  0  0  0  0  0  0  0  0  0  0
  140.1483   75.2917  222.0702 H   0  0  0  0  0  0  0  0  0  0  0  0
  141.9865   76.9147  222.4511 H   0  0  0  0  0  0  0  0  0  0  0  0
  139.1476   80.0197  223.3820 H   0  0  0  0  0  0  0  0  0  0  0  0
  137.2883   78.3978  223.0023 H   0  0  0  0  0  0  0  0  0  0  0  0
  1  2  1  0
  2  3  1  0
  3  4  1  0
  4  5  2  0
  4  6  1  0
  6  7  1  0
  7  8  1  0
  8  9  2  0
  8 10  1  0
 10 11  2  0
 11 12  1  0
 12 13  2  0
 13 14  1  0
 14 15  2  0
 15 16  1  0
 16 17  2  0
 17 18  1  0
 18 19  2  0
  2 20  1  0
 20 21  2  0
 21 22  1  0
 22 23  2  0
 23 24  1  0
 23 25  1  0
 25 26  2  0
 19 10  1  0
 26 20  1  0
 18 13  1  0
  1 27  1  0
  1 28  1  0
  1 29  1  0
  2 30  1  6
  3 31  1  0
  6 32  1  0
  6 33  1  0
  7 34  1  0
 11 35  1  0
 12 36  1  0
 14 37  1  0
 15 38  1  0
 16 39  1  0
 17 40  1  0
 21 41  1  0
 22 42  1  0
 25 43  1  0
 26 44  1  0
M  END
>  <smiles>  (27) 
C[C@H](NC(=O)CNC(=O)c1ccc2ccccc2n1)c1ccc(Cl)cc1

>  <score_type>  (27) 
oracle

>  <origin>  (27) 
autodockgpu

>  <m_score__min__energy>  (27) 
-8.7799999999999994

>  <m_primary>  (27) 
energy

>  <rmsd>  (27) 
4.855413306369495

>  <m_score__min__rmsd>  (27) 
4.855413306369495

>  <meeko>  (27) 
{"free_energy": -7.91, "intermolecular_energy": -9.41, "internal_energy": -2.07, "cluster_size": 28, "cluster_id": 2, "rank_in_cluster": 20}

>  <energy>  (27) 
-8.37

>  <cluster_rmsd>  (27) 
0.11

>  <cluster>  (27) 
2

$$$$

     RDKit          3D

 44 46  0  0  0  0  0  0  0  0999 V2000
  137.4050   77.9790  221.2050 C   0  0  0  0  0  0  0  0  0  0  0  0
  138.7750   77.8260  220.5940 C   0  0  2  0  0  0  0  0  0  0  0  0
  139.1550   76.4380  220.4490 N   0  0  0  0  0  0  0  0  0  0  0  0
  139.2010   75.5270  221.5320 C   0  0  0  0  0  0  0  0  0  0  0  0
  138.9040   75.8860  222.7160 O   0  0  0  0  0  0  0  0  0  0  0  0
  139.6130   74.1260  221.2180 C   0  0  0  0  0  0  0  0  0  0  0  0
  139.6840   73.3130  222.4170 N   0  0  0  0  0  0  0  0  0  0  0  0
  139.9070   71.9100  222.3490 C   0  0  0  0  0  0  0  0  0  0  0  0
  140.0560   71.2860  221.2610 O   0  0  0  0  0  0  0  0  0  0  0  0
  139.9680   71.1570  223.5970 C   0  0  0  0  0  0  0  0  0  0  0  0
  139.5620   69.8400  223.6710 C   0  0  0  0  0  0  0  0  0  0  0  0
  139.6220   69.1260  224.8670 C   0  0  0  0  0  0  0  0  0  0  0  0
  140.0980   69.7440  226.0120 C   0  0  0  0  0  0  0  0  0  0  0  0
  140.1720   69.0680  227.2180 C   0  0  0  0  0  0  0  0  0  0  0  0
  140.6590   69.7270  228.3520 C   0  0  0  0  0  0  0  0  0  0  0  0
  141.0610   71.0440  228.2660 C   0  0  0  0  0  0  0  0  0  0  0  0
  140.9800   71.7080  227.0450 C   0  0  0  0  0  0  0  0  0  0  0  0
  140.4960   71.0590  225.9100 C   0  0  0  0  0  0  0  0  0  0  0  0
  140.4300   71.7290  224.7470 N   0  0  0  0  0  0  0  0  0  0  0  0
  139.8220   78.5050  221.3960 C   0  0  0  0  0  0  0  0  0  0  0  0
  139.4570   79.0540  222.6090 C   0  0  0  0  0  0  0  0  0  0  0  0
  140.4300   79.6840  223.3530 C   0  0  0  0  0  0  0  0  0  0  0  0
  141.7520   79.7710  222.9040 C   0  0  0  0  0  0  0  0  0  0  0  0
  142.9880   80.5730  223.8530 Cl  0  0  0  0  0  0  0  0  0  0  0  0
  142.1040   79.2160  221.6880 C   0  0  0  0  0  0  0  0  0  0  0  0
  141.1350   78.5790  220.9270 C   0  0  0  0  0  0  0  0  0  0  0  0
  137.4895   77.9696  222.3017 H   0  0  0  0  0  0  0  0  0  0  0  0
  136.9627   78.9321  220.8795 H   0  0  0  0  0  0  0  0  0  0  0  0
  136.7633   77.1469  220.8795 H   0  0  0  0  0  0  0  0  0  0  0  0
  138.7046   78.2958  219.6019 H   0  0  0  0  0  0  0  0  0  0  0  0
  139.4060   76.1180  219.4770 H   0  0  0  0  0  0  0  0  0  0  0  0
  138.8791   73.6833  220.5286 H   0  0  0  0  0  0  0  0  0  0  0  0
  140.6125   74.1540  220.7595 H   0  0  0  0  0  0  0  0  0  0  0  0
  139.5710   73.7620  223.3640 H   0  0  0  0  0  0  0  0  0  0  0  0
  139.1826   69.3426  222.7662 H   0  0  0  0  0  0  0  0  0  0  0  0
  139.2929   68.0769  224.9014 H   0  0  0  0  0  0  0  0  0  0  0  0
  139.8496   68.0184  227.2842 H   0  0  0  0  0  0  0  0  0  0  0  0
  140.7214   69.1948  229.3127 H   0  0  0  0  0  0  0  0  0  0  0  0
  141.4429   71.5658  229.1559 H   0  0  0  0  0  0  0  0  0  0  0  0
  141.3018   72.7575  226.9749 H   0  0  0  0  0  0  0  0  0  0  0  0
  138.4201   78.9902  222.9705 H   0  0  0  0  0  0  0  0  0  0  0  0
  140.1613   80.1289  224.3225 H   0  0  0  0  0  0  0  0  0  0  0  0
  143.1414   79.2788  221.3277 H   0  0  0  0  0  0  0  0  0  0  0  0
  141.4002   78.1335  219.9569 H   0  0  0  0  0  0  0  0  0  0  0  0
  1  2  1  0
  2  3  1  0
  3  4  1  0
  4  5  2  0
  4  6  1  0
  6  7  1  0
  7  8  1  0
  8  9  2  0
  8 10  1  0
 10 11  2  0
 11 12  1  0
 12 13  2  0
 13 14  1  0
 14 15  2  0
 15 16  1  0
 16 17  2  0
 17 18  1  0
 18 19  2  0
  2 20  1  0
 20 21  2  0
 21 22  1  0
 22 23  2  0
 23 24  1  0
 23 25  1  0
 25 26  2  0
 19 10  1  0
 26 20  1  0
 18 13  1  0
  1 27  1  0
  1 28  1  0
  1 29  1  0
  2 30  1  6
  3 31  1  0
  6 32  1  0
  6 33  1  0
  7 34  1  0
 11 35  1  0
 12 36  1  0
 14 37  1  0
 15 38  1  0
 16 39  1  0
 17 40  1  0
 21 41  1  0
 22 42  1  0
 25 43  1  0
 26 44  1  0
M  END
>  <smiles>  (28) 
C[C@H](NC(=O)CNC(=O)c1ccc2ccccc2n1)c1ccc(Cl)cc1

>  <score_type>  (28) 
oracle

>  <origin>  (28) 
autodockgpu

>  <m_score__min__energy>  (28) 
-8.7799999999999994

>  <m_primary>  (28) 
energy

>  <rmsd>  (28) 
4.299598752668709

>  <m_score__min__rmsd>  (28) 
4.299598752668709

>  <meeko>  (28) 
{"free_energy": -8.08, "intermolecular_energy": -9.57, "internal_energy": -1.63, "cluster_size": 21, "cluster_id": 1, "rank_in_cluster": 20}

>  <energy>  (28) 
-8.36

>  <cluster_rmsd>  (28) 
0.11

>  <cluster>  (28) 
2

$$$$

     RDKit          3D

 44 46  0  0  0  0  0  0  0  0999 V2000
  137.3070   78.0180  221.2080 C   0  0  0  0  0  0  0  0  0  0  0  0
  138.6740   77.8490  220.5940 C   0  0  2  0  0  0  0  0  0  0  0  0
  139.0340   76.4560  220.4400 N   0  0  0  0  0  0  0  0  0  0  0  0
  139.2550   75.5850  221.5340 C   0  0  0  0  0  0  0  0  0  0  0  0
  139.1480   75.9870  222.7360 O   0  0  0  0  0  0  0  0  0  0  0  0
  139.6210   74.1730  221.2090 C   0  0  0  0  0  0  0  0  0  0  0  0
  139.6820   73.3530  222.4040 N   0  0  0  0  0  0  0  0  0  0  0  0
  139.9180   71.9530  222.3300 C   0  0  0  0  0  0  0  0  0  0  0  0
  140.0870   71.3370  221.2400 O   0  0  0  0  0  0  0  0  0  0  0  0
  139.9690   71.1930  223.5740 C   0  0  0  0  0  0  0  0  0  0  0  0
  139.5520   69.8790  223.6400 C   0  0  0  0  0  0  0  0  0  0  0  0
  139.6020   69.1570  224.8320 C   0  0  0  0  0  0  0  0  0  0  0  0
  140.0790   69.7660  225.9810 C   0  0  0  0  0  0  0  0  0  0  0  0
  140.1430   69.0830  227.1840 C   0  0  0  0  0  0  0  0  0  0  0  0
  140.6320   69.7310  228.3230 C   0  0  0  0  0  0  0  0  0  0  0  0
  141.0460   71.0450  228.2460 C   0  0  0  0  0  0  0  0  0  0  0  0
  140.9740   71.7160  227.0290 C   0  0  0  0  0  0  0  0  0  0  0  0
  140.4880   71.0780  225.8890 C   0  0  0  0  0  0  0  0  0  0  0  0
  140.4320   71.7550  224.7280 N   0  0  0  0  0  0  0  0  0  0  0  0
  139.7320   78.5080  221.3970 C   0  0  0  0  0  0  0  0  0  0  0  0
  141.0150   78.5300  220.8880 C   0  0  0  0  0  0  0  0  0  0  0  0
  141.9960   79.1420  221.6360 C   0  0  0  0  0  0  0  0  0  0  0  0
  141.7150   79.7280  222.8730 C   0  0  0  0  0  0  0  0  0  0  0  0
  142.9660   80.5070  223.8220 Cl  0  0  0  0  0  0  0  0  0  0  0  0
  140.4260   79.7000  223.3720 C   0  0  0  0  0  0  0  0  0  0  0  0
  139.4260   79.0860  222.6310 C   0  0  0  0  0  0  0  0  0  0  0  0
  137.3937   78.0073  222.3045 H   0  0  0  0  0  0  0  0  0  0  0  0
  136.8753   78.9764  220.8837 H   0  0  0  0  0  0  0  0  0  0  0  0
  136.6549   77.1936  220.8837 H   0  0  0  0  0  0  0  0  0  0  0  0
  138.6084   78.3259  219.6049 H   0  0  0  0  0  0  0  0  0  0  0  0
  139.1300   76.1010  219.4520 H   0  0  0  0  0  0  0  0  0  0  0  0
  138.8658   73.7556  220.5268 H   0  0  0  0  0  0  0  0  0  0  0  0
  140.6152   74.1729  220.7383 H   0  0  0  0  0  0  0  0  0  0  0  0
  139.5530   73.7960  223.3520 H   0  0  0  0  0  0  0  0  0  0  0  0
  139.1714   69.3899  222.7312 H   0  0  0  0  0  0  0  0  0  0  0  0
  139.2647   68.1103  224.8596 H   0  0  0  0  0  0  0  0  0  0  0  0
  139.8109   68.0360  227.2435 H   0  0  0  0  0  0  0  0  0  0  0  0
  140.6866   69.1928  229.2808 H   0  0  0  0  0  0  0  0  0  0  0  0
  141.4301   71.5583  229.1399 H   0  0  0  0  0  0  0  0  0  0  0  0
  141.3048   72.7632  226.9659 H   0  0  0  0  0  0  0  0  0  0  0  0
  141.2466   78.0727  219.9148 H   0  0  0  0  0  0  0  0  0  0  0  0
  143.0258   79.1702  221.2503 H   0  0  0  0  0  0  0  0  0  0  0  0
  140.1957   80.1589  224.3448 H   0  0  0  0  0  0  0  0  0  0  0  0
  138.3955   79.0547  223.0145 H   0  0  0  0  0  0  0  0  0  0  0  0
  1  2  1  0
  2  3  1  0
  3  4  1  0
  4  5  2  0
  4  6  1  0
  6  7  1  0
  7  8  1  0
  8  9  2  0
  8 10  1  0
 10 11  2  0
 11 12  1  0
 12 13  2  0
 13 14  1  0
 14 15  2  0
 15 16  1  0
 16 17  2  0
 17 18  1  0
 18 19  2  0
  2 20  1  0
 20 21  2  0
 21 22  1  0
 22 23  2  0
 23 24  1  0
 23 25  1  0
 25 26  2  0
 19 10  1  0
 26 20  1  0
 18 13  1  0
  1 27  1  0
  1 28  1  0
  1 29  1  0
  2 30  1  6
  3 31  1  0
  6 32  1  0
  6 33  1  0
  7 34  1  0
 11 35  1  0
 12 36  1  0
 14 37  1  0
 15 38  1  0
 16 39  1  0
 17 40  1  0
 21 41  1  0
 22 42  1  0
 25 43  1  0
 26 44  1  0
M  END
>  <smiles>  (29) 
C[C@H](NC(=O)CNC(=O)c1ccc2ccccc2n1)c1ccc(Cl)cc1

>  <score_type>  (29) 
oracle

>  <origin>  (29) 
autodockgpu

>  <m_score__min__energy>  (29) 
-8.7799999999999994

>  <m_primary>  (29) 
energy

>  <rmsd>  (29) 
4.528186188971026

>  <m_score__min__rmsd>  (29) 
4.528186188971026

>  <meeko>  (29) 
{"free_energy": -8.1, "intermolecular_energy": -9.59, "internal_energy": -1.64, "cluster_size": 21, "cluster_id": 1, "rank_in_cluster": 17}

>  <energy>  (29) 
-8.36

>  <cluster_rmsd>  (29) 
0.15

>  <cluster>  (29) 
2

$$$$

     RDKit          3D

 44 46  0  0  0  0  0  0  0  0999 V2000
  136.4960   75.3310  223.4410 C   0  0  0  0  0  0  0  0  0  0  0  0
  137.4180   75.3780  222.2490 C   0  0  2  0  0  0  0  0  0  0  0  0
  138.0100   74.0880  221.9670 N   0  0  0  0  0  0  0  0  0  0  0  0
  137.9640   73.4730  220.6930 C   0  0  0  0  0  0  0  0  0  0  0  0
  137.3870   74.0300  219.7060 O   0  0  0  0  0  0  0  0  0  0  0  0
  138.6250   72.1390  220.5640 C   0  0  0  0  0  0  0  0  0  0  0  0
  138.8550   71.5340  221.8620 N   0  0  0  0  0  0  0  0  0  0  0  0
  139.8540   72.0300  222.7440 C   0  0  0  0  0  0  0  0  0  0  0  0
  140.5960   73.0120  222.4640 O   0  0  0  0  0  0  0  0  0  0  0  0
  140.0270   71.3720  224.0340 C   0  0  0  0  0  0  0  0  0  0  0  0
  140.6980   71.9800  225.0750 C   0  0  0  0  0  0  0  0  0  0  0  0
  140.8610   71.3450  226.3060 C   0  0  0  0  0  0  0  0  0  0  0  0
  140.3420   70.0750  226.4960 C   0  0  0  0  0  0  0  0  0  0  0  0
  140.4840   69.4130  227.7040 C   0  0  0  0  0  0  0  0  0  0  0  0
  139.9440   68.1320  227.8580 C   0  0  0  0  0  0  0  0  0  0  0  0
  139.2760   67.5330  226.8100 C   0  0  0  0  0  0  0  0  0  0  0  0
  139.1430   68.2130  225.6040 C   0  0  0  0  0  0  0  0  0  0  0  0
  139.6770   69.4910  225.4410 C   0  0  0  0  0  0  0  0  0  0  0  0
  139.5300   70.1210  224.2630 N   0  0  0  0  0  0  0  0  0  0  0  0
  138.5190   76.3550  222.4340 C   0  0  0  0  0  0  0  0  0  0  0  0
  139.8140   75.9140  222.2520 C   0  0  0  0  0  0  0  0  0  0  0  0
  140.8360   76.8230  222.4240 C   0  0  0  0  0  0  0  0  0  0  0  0
  140.5810   78.1530  222.7700 C   0  0  0  0  0  0  0  0  0  0  0  0
  141.8820   79.3060  222.9880 Cl  0  0  0  0  0  0  0  0  0  0  0  0
  139.2790   78.5810  222.9490 C   0  0  0  0  0  0  0  0  0  0  0  0
  138.2390   77.6780  222.7800 C   0  0  0  0  0  0  0  0  0  0  0  0
  137.0906   75.3613  224.3659 H   0  0  0  0  0  0  0  0  0  0  0  0
  135.8166   76.1957  223.4134 H   0  0  0  0  0  0  0  0  0  0  0  0
  135.9081   74.4017  223.4134 H   0  0  0  0  0  0  0  0  0  0  0  0
  136.7852   75.6876  221.4042 H   0  0  0  0  0  0  0  0  0  0  0  0
  138.4940   73.6070  222.7710 H   0  0  0  0  0  0  0  0  0  0  0  0
  137.9794   71.4758  219.9695 H   0  0  0  0  0  0  0  0  0  0  0  0
  139.5982   72.2813  220.0713 H   0  0  0  0  0  0  0  0  0  0  0  0
  138.2730   70.7090  222.1680 H   0  0  0  0  0  0  0  0  0  0  0  0
  141.1137   72.9882  224.9308 H   0  0  0  0  0  0  0  0  0  0  0  0
  141.3989   71.8502  227.1217 H   0  0  0  0  0  0  0  0  0  0  0  0
  141.0184   69.8919  228.5377 H   0  0  0  0  0  0  0  0  0  0  0  0
  140.0520   67.6016  228.8156 H   0  0  0  0  0  0  0  0  0  0  0  0
  138.8517   66.5249  226.9273 H   0  0  0  0  0  0  0  0  0  0  0  0
  138.6098   67.7367  224.7681 H   0  0  0  0  0  0  0  0  0  0  0  0
  140.0242   74.8696  221.9782 H   0  0  0  0  0  0  0  0  0  0  0  0
  141.8765   76.4940  222.2857 H   0  0  0  0  0  0  0  0  0  0  0  0
  139.0696   79.6257  223.2224 H   0  0  0  0  0  0  0  0  0  0  0  0
  137.1974   78.0037  222.9182 H   0  0  0  0  0  0  0  0  0  0  0  0
  1  2  1  0
  2  3  1  0
  3  4  1  0
  4  5  2  0
  4  6  1  0
  6  7  1  0
  7  8  1  0
  8  9  2  0
  8 10  1  0
 10 11  2  0
 11 12  1  0
 12 13  2  0
 13 14  1  0
 14 15  2  0
 15 16  1  0
 16 17  2  0
 17 18  1  0
 18 19  2  0
  2 20  1  0
 20 21  2  0
 21 22  1  0
 22 23  2  0
 23 24  1  0
 23 25  1  0
 25 26  2  0
 19 10  1  0
 26 20  1  0
 18 13  1  0
  1 27  1  0
  1 28  1  0
  1 29  1  0
  2 30  1  6
  3 31  1  0
  6 32  1  0
  6 33  1  0
  7 34  1  0
 11 35  1  0
 12 36  1  0
 14 37  1  0
 15 38  1  0
 16 39  1  0
 17 40  1  0
 21 41  1  0
 22 42  1  0
 25 43  1  0
 26 44  1  0
M  END
>  <smiles>  (30) 
C[C@H](NC(=O)CNC(=O)c1ccc2ccccc2n1)c1ccc(Cl)cc1

>  <score_type>  (30) 
oracle

>  <origin>  (30) 
autodockgpu

>  <m_score__min__energy>  (30) 
-8.7799999999999994

>  <m_primary>  (30) 
energy

>  <rmsd>  (30) 
5.0725280494570635

>  <m_score__min__rmsd>  (30) 
5.0725280494570635

>  <meeko>  (30) 
{"free_energy": -7.76, "intermolecular_energy": -9.25, "internal_energy": -2.04, "cluster_size": 28, "cluster_id": 2, "rank_in_cluster": 26}

>  <energy>  (30) 
-8.36

>  <cluster_rmsd>  (30) 
0.16

>  <cluster>  (30) 
2

$$$$

     RDKit          3D

 44 46  0  0  0  0  0  0  0  0999 V2000
  136.9140   76.8110  223.1100 C   0  0  0  0  0  0  0  0  0  0  0  0
  138.0520   76.8690  222.1230 C   0  0  2  0  0  0  0  0  0  0  0  0
  138.6620   75.5730  221.9170 N   0  0  0  0  0  0  0  0  0  0  0  0
  139.1390   75.1290  220.6610 C   0  0  0  0  0  0  0  0  0  0  0  0
  139.0570   75.8580  219.6230 O   0  0  0  0  0  0  0  0  0  0  0  0
  139.7450   73.7630  220.6140 C   0  0  0  0  0  0  0  0  0  0  0  0
  139.6040   73.0770  221.8840 N   0  0  0  0  0  0  0  0  0  0  0  0
  140.4030   71.9470  222.2080 C   0  0  0  0  0  0  0  0  0  0  0  0
  141.2740   71.4710  221.4280 O   0  0  0  0  0  0  0  0  0  0  0  0
  140.2070   71.3090  223.5050 C   0  0  0  0  0  0  0  0  0  0  0  0
  139.4990   70.1320  223.6360 C   0  0  0  0  0  0  0  0  0  0  0  0
  139.3140   69.5270  224.8780 C   0  0  0  0  0  0  0  0  0  0  0  0
  139.8490   70.1150  226.0130 C   0  0  0  0  0  0  0  0  0  0  0  0
  139.6860   69.5450  227.2640 C   0  0  0  0  0  0  0  0  0  0  0  0
  140.2420   70.1680  228.3860 C   0  0  0  0  0  0  0  0  0  0  0  0
  140.9480   71.3450  228.2440 C   0  0  0  0  0  0  0  0  0  0  0  0
  141.1020   71.9040  226.9780 C   0  0  0  0  0  0  0  0  0  0  0  0
  140.5510   71.2900  225.8550 C   0  0  0  0  0  0  0  0  0  0  0  0
  140.7180   71.8550  224.6470 N   0  0  0  0  0  0  0  0  0  0  0  0
  139.1150   77.8100  222.5530 C   0  0  0  0  0  0  0  0  0  0  0  0
  140.4290   77.4090  222.4200 C   0  0  0  0  0  0  0  0  0  0  0  0
  141.4150   78.2840  222.8200 C   0  0  0  0  0  0  0  0  0  0  0  0
  141.1080   79.5430  223.3440 C   0  0  0  0  0  0  0  0  0  0  0  0
  142.3650   80.6540  223.8510 Cl  0  0  0  0  0  0  0  0  0  0  0  0
  139.7880   79.9330  223.4700 C   0  0  0  0  0  0  0  0  0  0  0  0
  138.7830   79.0620  223.0730 C   0  0  0  0  0  0  0  0  0  0  0  0
  137.3153   76.8315  224.1340 H   0  0  0  0  0  0  0  0  0  0  0  0
  136.2524   77.6766  222.9581 H   0  0  0  0  0  0  0  0  0  0  0  0
  136.3439   75.8826  222.9581 H   0  0  0  0  0  0  0  0  0  0  0  0
  137.6027   77.2204  221.1824 H   0  0  0  0  0  0  0  0  0  0  0  0
  138.7410   74.9510  222.7650 H   0  0  0  0  0  0  0  0  0  0  0  0
  139.2420   73.1752  219.8320 H   0  0  0  0  0  0  0  0  0  0  0  0
  140.8178   73.8678  220.3946 H   0  0  0  0  0  0  0  0  0  0  0  0
  138.8980   73.4180  222.5890 H   0  0  0  0  0  0  0  0  0  0  0  0
  139.0706   69.6602  222.7394 H   0  0  0  0  0  0  0  0  0  0  0  0
  138.7465   68.5880  224.9568 H   0  0  0  0  0  0  0  0  0  0  0  0
  139.1222   68.6070  227.3750 H   0  0  0  0  0  0  0  0  0  0  0  0
  140.1164   69.7193  229.3824 H   0  0  0  0  0  0  0  0  0  0  0  0
  141.3859   71.8381  229.1244 H   0  0  0  0  0  0  0  0  0  0  0  0
  141.6655   72.8417  226.8630 H   0  0  0  0  0  0  0  0  0  0  0  0
  140.6812   76.4210  222.0073 H   0  0  0  0  0  0  0  0  0  0  0  0
  142.4692   77.9847  222.7248 H   0  0  0  0  0  0  0  0  0  0  0  0
  139.5369   80.9223  223.8802 H   0  0  0  0  0  0  0  0  0  0  0  0
  137.7277   79.3576  223.1679 H   0  0  0  0  0  0  0  0  0  0  0  0
  1  2  1  0
  2  3  1  0
  3  4  1  0
  4  5  2  0
  4  6  1  0
  6  7  1  0
  7  8  1  0
  8  9  2  0
  8 10  1  0
 10 11  2  0
 11 12  1  0
 12 13  2  0
 13 14  1  0
 14 15  2  0
 15 16  1  0
 16 17  2  0
 17 18  1  0
 18 19  2  0
  2 20  1  0
 20 21  2  0
 21 22  1  0
 22 23  2  0
 23 24  1  0
 23 25  1  0
 25 26  2  0
 19 10  1  0
 26 20  1  0
 18 13  1  0
  1 27  1  0
  1 28  1  0
  1 29  1  0
  2 30  1  6
  3 31  1  0
  6 32  1  0
  6 33  1  0
  7 34  1  0
 11 35  1  0
 12 36  1  0
 14 37  1  0
 15 38  1  0
 16 39  1  0
 17 40  1  0
 21 41  1  0
 22 42  1  0
 25 43  1  0
 26 44  1  0
M  END
>  <smiles>  (31) 
C[C@H](NC(=O)CNC(=O)c1ccc2ccccc2n1)c1ccc(Cl)cc1

>  <score_type>  (31) 
oracle

>  <origin>  (31) 
autodockgpu

>  <m_score__min__energy>  (31) 
-8.7799999999999994

>  <m_primary>  (31) 
energy

>  <rmsd>  (31) 
4.727663420672842

>  <m_score__min__rmsd>  (31) 
4.727663420672842

>  <meeko>  (31) 
{"free_energy": -8.69, "intermolecular_energy": -10.18, "internal_energy": -0.97, "cluster_size": 21, "cluster_id": 1, "rank_in_cluster": 6}

>  <energy>  (31) 
-8.33

>  <cluster_rmsd>  (31) 
0.2

>  <cluster>  (31) 
2

$$$$

     RDKit          3D

 44 46  0  0  0  0  0  0  0  0999 V2000
  141.8020   78.3320  223.6660 C   0  0  0  0  0  0  0  0  0  0  0  0
  140.9390   78.0680  222.4580 C   0  0  2  0  0  0  0  0  0  0  0  0
  140.9860   76.6810  222.0480 N   0  0  0  0  0  0  0  0  0  0  0  0
  139.8440   75.9540  221.6320 C   0  0  0  0  0  0  0  0  0  0  0  0
  138.6920   76.4900  221.5960 O   0  0  0  0  0  0  0  0  0  0  0  0
  140.0590   74.5290  221.2370 C   0  0  0  0  0  0  0  0  0  0  0  0
  139.8360   73.6310  222.3540 N   0  0  0  0  0  0  0  0  0  0  0  0
  140.5660   72.4170  222.4850 C   0  0  0  0  0  0  0  0  0  0  0  0
  141.4410   72.0450  221.6550 O   0  0  0  0  0  0  0  0  0  0  0  0
  140.2900   71.5650  223.6360 C   0  0  0  0  0  0  0  0  0  0  0  0
  139.5700   70.3940  223.5160 C   0  0  0  0  0  0  0  0  0  0  0  0
  139.3080   69.5830  224.6200 C   0  0  0  0  0  0  0  0  0  0  0  0
  139.7770   69.9540  225.8690 C   0  0  0  0  0  0  0  0  0  0  0  0
  139.5370   69.1760  226.9890 C   0  0  0  0  0  0  0  0  0  0  0  0
  140.0280   69.5840  228.2340 C   0  0  0  0  0  0  0  0  0  0  0  0
  140.7460   70.7570  228.3430 C   0  0  0  0  0  0  0  0  0  0  0  0
  140.9780   71.5270  227.2060 C   0  0  0  0  0  0  0  0  0  0  0  0
  140.4930   71.1280  225.9620 C   0  0  0  0  0  0  0  0  0  0  0  0
  140.7340   71.8940  224.8840 N   0  0  0  0  0  0  0  0  0  0  0  0
  141.3350   78.9010  221.2970 C   0  0  0  0  0  0  0  0  0  0  0  0
  141.2810   80.2730  221.4340 C   0  0  0  0  0  0  0  0  0  0  0  0
  141.6490   81.0460  220.3550 C   0  0  0  0  0  0  0  0  0  0  0  0
  142.0670   80.4700  219.1510 C   0  0  0  0  0  0  0  0  0  0  0  0
  142.5340   81.4550  217.7800 Cl  0  0  0  0  0  0  0  0  0  0  0  0
  142.1170   79.0940  219.0270 C   0  0  0  0  0  0  0  0  0  0  0  0
  141.7490   78.3020  220.1050 C   0  0  0  0  0  0  0  0  0  0  0  0
  141.2174   78.1532  224.5804 H   0  0  0  0  0  0  0  0  0  0  0  0
  142.6718   77.6589  223.6494 H   0  0  0  0  0  0  0  0  0  0  0  0
  142.1464   79.3766  223.6494 H   0  0  0  0  0  0  0  0  0  0  0  0
  139.9164   78.3279  222.7690 H   0  0  0  0  0  0  0  0  0  0  0  0
  141.9310   76.2160  222.0690 H   0  0  0  0  0  0  0  0  0  0  0  0
  139.3604   74.2728  220.4268 H   0  0  0  0  0  0  0  0  0  0  0  0
  141.1012   74.4154  220.9041 H   0  0  0  0  0  0  0  0  0  0  0  0
  139.1220   73.8750  223.0900 H   0  0  0  0  0  0  0  0  0  0  0  0
  139.1941   70.0932  222.5270 H   0  0  0  0  0  0  0  0  0  0  0  0
  138.7319   68.6537  224.4992 H   0  0  0  0  0  0  0  0  0  0  0  0
  138.9631   68.2418  226.9004 H   0  0  0  0  0  0  0  0  0  0  0  0
  139.8414   68.9690  229.1267 H   0  0  0  0  0  0  0  0  0  0  0  0
  141.1323   71.0816  229.3205 H   0  0  0  0  0  0  0  0  0  0  0  0
  141.5513   72.4619  227.2909 H   0  0  0  0  0  0  0  0  0  0  0  0
  140.9538   80.7356  222.3768 H   0  0  0  0  0  0  0  0  0  0  0  0
  141.6133   82.1419  220.4423 H   0  0  0  0  0  0  0  0  0  0  0  0
  142.4450   78.6322  218.0840 H   0  0  0  0  0  0  0  0  0  0  0  0
  141.7831   77.2057  220.0213 H   0  0  0  0  0  0  0  0  0  0  0  0
  1  2  1  0
  2  3  1  0
  3  4  1  0
  4  5  2  0
  4  6  1  0
  6  7  1  0
  7  8  1  0
  8  9  2  0
  8 10  1  0
 10 11  2  0
 11 12  1  0
 12 13  2  0
 13 14  1  0
 14 15  2  0
 15 16  1  0
 16 17  2  0
 17 18  1  0
 18 19  2  0
  2 20  1  0
 20 21  2  0
 21 22  1  0
 22 23  2  0
 23 24  1  0
 23 25  1  0
 25 26  2  0
 19 10  1  0
 26 20  1  0
 18 13  1  0
  1 27  1  0
  1 28  1  0
  1 29  1  0
  2 30  1  1
  3 31  1  0
  6 32  1  0
  6 33  1  0
  7 34  1  0
 11 35  1  0
 12 36  1  0
 14 37  1  0
 15 38  1  0
 16 39  1  0
 17 40  1  0
 21 41  1  0
 22 42  1  0
 25 43  1  0
 26 44  1  0
M  END
>  <smiles>  (32) 
C[C@H](NC(=O)CNC(=O)c1ccc2ccccc2n1)c1ccc(Cl)cc1

>  <score_type>  (32) 
oracle

>  <origin>  (32) 
autodockgpu

>  <m_score__min__energy>  (32) 
-8.7799999999999994

>  <m_primary>  (32) 
energy

>  <rmsd>  (32) 
3.5895086995555223

>  <m_score__min__rmsd>  (32) 
3.5895086995555223

>  <meeko>  (32) 
{"free_energy": -8.78, "intermolecular_energy": -10.28, "internal_energy": -0.97, "cluster_size": 21, "cluster_id": 1, "rank_in_cluster": 1}

>  <energy>  (32) 
-8.33

>  <cluster_rmsd>  (32) 
0.21

>  <cluster>  (32) 
2

$$$$

     RDKit          3D

 44 46  0  0  0  0  0  0  0  0999 V2000
  136.9800   76.3660  223.0980 C   0  0  0  0  0  0  0  0  0  0  0  0
  137.9900   76.5490  221.9930 C   0  0  2  0  0  0  0  0  0  0  0  0
  138.5770   75.2940  221.5770 N   0  0  0  0  0  0  0  0  0  0  0  0
  137.8600   74.2940  220.8780 C   0  0  0  0  0  0  0  0  0  0  0  0
  136.6350   74.4450  220.5720 O   0  0  0  0  0  0  0  0  0  0  0  0
  138.6100   73.0520  220.5190 C   0  0  0  0  0  0  0  0  0  0  0  0
  138.7640   72.1760  221.6640 N   0  0  0  0  0  0  0  0  0  0  0  0
  139.7620   72.4120  222.6490 C   0  0  0  0  0  0  0  0  0  0  0  0
  140.5670   73.3830  222.5970 O   0  0  0  0  0  0  0  0  0  0  0  0
  139.8560   71.4890  223.7740 C   0  0  0  0  0  0  0  0  0  0  0  0
  139.4420   70.1770  223.6730 C   0  0  0  0  0  0  0  0  0  0  0  0
  139.5340   69.2990  224.7530 C   0  0  0  0  0  0  0  0  0  0  0  0
  140.0510   69.7460  225.9580 C   0  0  0  0  0  0  0  0  0  0  0  0
  140.1580   68.9040  227.0520 C   0  0  0  0  0  0  0  0  0  0  0  0
  140.6860   69.3920  228.2520 C   0  0  0  0  0  0  0  0  0  0  0  0
  141.0970   70.7060  228.3420 C   0  0  0  0  0  0  0  0  0  0  0  0
  140.9820   71.5380  227.2320 C   0  0  0  0  0  0  0  0  0  0  0  0
  140.4570   71.0600  226.0320 C   0  0  0  0  0  0  0  0  0  0  0  0
  140.3600   71.8900  224.9790 N   0  0  0  0  0  0  0  0  0  0  0  0
  139.0930   77.4590  222.3910 C   0  0  0  0  0  0  0  0  0  0  0  0
  140.3810   77.1060  222.0460 C   0  0  0  0  0  0  0  0  0  0  0  0
  141.4040   77.9510  222.4160 C   0  0  0  0  0  0  0  0  0  0  0  0
  141.1570   79.1340  223.1200 C   0  0  0  0  0  0  0  0  0  0  0  0
  142.4600   80.2070  223.5900 Cl  0  0  0  0  0  0  0  0  0  0  0  0
  139.8610   79.4760  223.4590 C   0  0  0  0  0  0  0  0  0  0  0  0
  138.8200   78.6340  223.0940 C   0  0  0  0  0  0  0  0  0  0  0  0
  137.4821   76.4570  224.0725 H   0  0  0  0  0  0  0  0  0  0  0  0
  136.2005   77.1375  223.0137 H   0  0  0  0  0  0  0  0  0  0  0  0
  136.5207   75.3700  223.0137 H   0  0  0  0  0  0  0  0  0  0  0  0
  137.4280   76.9898  221.1564 H   0  0  0  0  0  0  0  0  0  0  0  0
  139.5920   75.1460  221.8210 H   0  0  0  0  0  0  0  0  0  0  0  0
  138.0597   72.5171  219.7309 H   0  0  0  0  0  0  0  0  0  0  0  0
  139.6115   73.3421  220.1685 H   0  0  0  0  0  0  0  0  0  0  0  0
  138.1270   71.3430  221.7780 H   0  0  0  0  0  0  0  0  0  0  0  0
  139.0301   69.8151  222.7194 H   0  0  0  0  0  0  0  0  0  0  0  0
  139.1977   68.2569  224.6484 H   0  0  0  0  0  0  0  0  0  0  0  0
  139.8295   67.8568  226.9779 H   0  0  0  0  0  0  0  0  0  0  0  0
  140.7736   68.7277  229.1244 H   0  0  0  0  0  0  0  0  0  0  0  0
  141.5125   71.0933  229.2840 H   0  0  0  0  0  0  0  0  0  0  0  0
  141.3094   72.5858  227.3024 H   0  0  0  0  0  0  0  0  0  0  0  0
  140.5851   76.1778  221.4922 H   0  0  0  0  0  0  0  0  0  0  0  0
  142.4392   77.6893  222.1517 H   0  0  0  0  0  0  0  0  0  0  0  0
  139.6573   80.4050  224.0118 H   0  0  0  0  0  0  0  0  0  0  0  0
  137.7835   78.8914  223.3576 H   0  0  0  0  0  0  0  0  0  0  0  0
  1  2  1  0
  2  3  1  0
  3  4  1  0
  4  5  2  0
  4  6  1  0
  6  7  1  0
  7  8  1  0
  8  9  2  0
  8 10  1  0
 10 11  2  0
 11 12  1  0
 12 13  2  0
 13 14  1  0
 14 15  2  0
 15 16  1  0
 16 17  2  0
 17 18  1  0
 18 19  2  0
  2 20  1  0
 20 21  2  0
 21 22  1  0
 22 23  2  0
 23 24  1  0
 23 25  1  0
 25 26  2  0
 19 10  1  0
 26 20  1  0
 18 13  1  0
  1 27  1  0
  1 28  1  0
  1 29  1  0
  2 30  1  6
  3 31  1  0
  6 32  1  0
  6 33  1  0
  7 34  1  0
 11 35  1  0
 12 36  1  0
 14 37  1  0
 15 38  1  0
 16 39  1  0
 17 40  1  0
 21 41  1  0
 22 42  1  0
 25 43  1  0
 26 44  1  0
M  END
>  <smiles>  (33) 
C[C@H](NC(=O)CNC(=O)c1ccc2ccccc2n1)c1ccc(Cl)cc1

>  <score_type>  (33) 
oracle

>  <origin>  (33) 
autodockgpu

>  <m_score__min__energy>  (33) 
-8.7799999999999994

>  <m_primary>  (33) 
energy

>  <rmsd>  (33) 
4.885954815364152

>  <m_score__min__rmsd>  (33) 
4.885954815364152

>  <meeko>  (33) 
{"free_energy": -8.07, "intermolecular_energy": -9.56, "internal_energy": -1.66, "cluster_size": 28, "cluster_id": 2, "rank_in_cluster": 15}

>  <energy>  (33) 
-8.28

>  <cluster_rmsd>  (33) 
1.04

>  <cluster>  (33) 
2

$$$$

     RDKit          3D

 44 46  0  0  0  0  0  0  0  0999 V2000
  136.6560   76.0300  223.4570 C   0  0  0  0  0  0  0  0  0  0  0  0
  137.5980   76.1850  222.2900 C   0  0  2  0  0  0  0  0  0  0  0  0
  138.1970   74.9260  221.9020 N   0  0  0  0  0  0  0  0  0  0  0  0
  137.9500   74.2980  220.6580 C   0  0  0  0  0  0  0  0  0  0  0  0
  137.1730   74.8150  219.7950 O   0  0  0  0  0  0  0  0  0  0  0  0
  138.6470   73.0000  220.4070 C   0  0  0  0  0  0  0  0  0  0  0  0
  138.7020   72.1880  221.6080 N   0  0  0  0  0  0  0  0  0  0  0  0
  139.7150   72.3830  222.5870 C   0  0  0  0  0  0  0  0  0  0  0  0
  140.6180   73.2580  222.4830 O   0  0  0  0  0  0  0  0  0  0  0  0
  139.7060   71.5290  223.7700 C   0  0  0  0  0  0  0  0  0  0  0  0
  139.0330   70.3250  223.7920 C   0  0  0  0  0  0  0  0  0  0  0  0
  139.0270   69.5130  224.9260 C   0  0  0  0  0  0  0  0  0  0  0  0
  139.7100   69.9180  226.0610 C   0  0  0  0  0  0  0  0  0  0  0  0
  139.7270   69.1400  227.2060 C   0  0  0  0  0  0  0  0  0  0  0  0
  140.4280   69.5830  228.3330 C   0  0  0  0  0  0  0  0  0  0  0  0
  141.0970   70.7890  228.3010 C   0  0  0  0  0  0  0  0  0  0  0  0
  141.0690   71.5580  227.1410 C   0  0  0  0  0  0  0  0  0  0  0  0
  140.3730   71.1250  226.0140 C   0  0  0  0  0  0  0  0  0  0  0  0
  140.3660   71.8910  224.9090 N   0  0  0  0  0  0  0  0  0  0  0  0
  138.6940   77.1410  222.5820 C   0  0  0  0  0  0  0  0  0  0  0  0
  138.3560   78.3870  223.0700 C   0  0  0  0  0  0  0  0  0  0  0  0
  139.3750   79.2740  223.3390 C   0  0  0  0  0  0  0  0  0  0  0  0
  140.7150   78.9340  223.1310 C   0  0  0  0  0  0  0  0  0  0  0  0
  142.0090   80.0650  223.4750 Cl  0  0  0  0  0  0  0  0  0  0  0  0
  141.0400   77.6820  222.6420 C   0  0  0  0  0  0  0  0  0  0  0  0
  140.0250   76.7780  222.3650 C   0  0  0  0  0  0  0  0  0  0  0  0
  137.2190   76.1226  224.3975 H   0  0  0  0  0  0  0  0  0  0  0  0
  135.8851   76.8134  223.4125 H   0  0  0  0  0  0  0  0  0  0  0  0
  136.1767   75.0409  223.4125 H   0  0  0  0  0  0  0  0  0  0  0  0
  136.9790   76.5698  221.4661 H   0  0  0  0  0  0  0  0  0  0  0  0
  138.8460   74.4790  222.6030 H   0  0  0  0  0  0  0  0  0  0  0  0
  138.1042   72.4475  219.6259 H   0  0  0  0  0  0  0  0  0  0  0  0
  139.6772   73.2162  220.0877 H   0  0  0  0  0  0  0  0  0  0  0  0
  137.9800   71.4370  221.7680 H   0  0  0  0  0  0  0  0  0  0  0  0
  138.4883   69.9977  222.8941 H   0  0  0  0  0  0  0  0  0  0  0  0
  138.4832   68.5568  224.9191 H   0  0  0  0  0  0  0  0  0  0  0  0
  139.1924   68.1789  227.2296 H   0  0  0  0  0  0  0  0  0  0  0  0
  140.4456   68.9690  229.2455 H   0  0  0  0  0  0  0  0  0  0  0  0
  141.6485   71.1404  229.1855 H   0  0  0  0  0  0  0  0  0  0  0  0
  141.6029   72.5194  227.1136 H   0  0  0  0  0  0  0  0  0  0  0  0
  137.3048   78.6634  223.2390 H   0  0  0  0  0  0  0  0  0  0  0  0
  139.1285   80.2735  223.7267 H   0  0  0  0  0  0  0  0  0  0  0  0
  142.0916   77.4061  222.4746 H   0  0  0  0  0  0  0  0  0  0  0  0
  140.2677   75.7783  221.9756 H   0  0  0  0  0  0  0  0  0  0  0  0
  1  2  1  0
  2  3  1  0
  3  4  1  0
  4  5  2  0
  4  6  1  0
  6  7  1  0
  7  8  1  0
  8  9  2  0
  8 10  1  0
 10 11  2  0
 11 12  1  0
 12 13  2  0
 13 14  1  0
 14 15  2  0
 15 16  1  0
 16 17  2  0
 17 18  1  0
 18 19  2  0
  2 20  1  0
 20 21  2  0
 21 22  1  0
 22 23  2  0
 23 24  1  0
 23 25  1  0
 25 26  2  0
 19 10  1  0
 26 20  1  0
 18 13  1  0
  1 27  1  0
  1 28  1  0
  1 29  1  0
  2 30  1  6
  3 31  1  0
  6 32  1  0
  6 33  1  0
  7 34  1  0
 11 35  1  0
 12 36  1  0
 14 37  1  0
 15 38  1  0
 16 39  1  0
 17 40  1  0
 21 41  1  0
 22 42  1  0
 25 43  1  0
 26 44  1  0
M  END
>  <smiles>  (34) 
C[C@H](NC(=O)CNC(=O)c1ccc2ccccc2n1)c1ccc(Cl)cc1

>  <score_type>  (34) 
oracle

>  <origin>  (34) 
autodockgpu

>  <m_score__min__energy>  (34) 
-8.7799999999999994

>  <m_primary>  (34) 
energy

>  <rmsd>  (34) 
4.932321523492231

>  <m_score__min__rmsd>  (34) 
4.932321523492231

>  <meeko>  (34) 
{"free_energy": -8.37, "intermolecular_energy": -9.86, "internal_energy": -1.8, "cluster_size": 28, "cluster_id": 2, "rank_in_cluster": 5}

>  <energy>  (34) 
-8.26

>  <cluster_rmsd>  (34) 
0.25

>  <cluster>  (34) 
2

$$$$

     RDKit          3D

 44 46  0  0  0  0  0  0  0  0999 V2000
  137.2940   77.9890  221.3380 C   0  0  0  0  0  0  0  0  0  0  0  0
  138.6470   77.8360  220.6900 C   0  0  2  0  0  0  0  0  0  0  0  0
  139.0180   76.4480  220.5220 N   0  0  0  0  0  0  0  0  0  0  0  0
  139.2570   75.5700  221.6060 C   0  0  0  0  0  0  0  0  0  0  0  0
  139.1590   75.9600  222.8120 O   0  0  0  0  0  0  0  0  0  0  0  0
  139.6300   74.1630  221.2650 C   0  0  0  0  0  0  0  0  0  0  0  0
  139.6910   73.3290  222.4500 N   0  0  0  0  0  0  0  0  0  0  0  0
  139.8940   71.9250  222.3580 C   0  0  0  0  0  0  0  0  0  0  0  0
  140.0320   71.3180  221.2600 O   0  0  0  0  0  0  0  0  0  0  0  0
  139.9460   71.1500  223.5930 C   0  0  0  0  0  0  0  0  0  0  0  0
  139.5420   69.8320  223.6410 C   0  0  0  0  0  0  0  0  0  0  0  0
  139.5930   69.0970  224.8250 C   0  0  0  0  0  0  0  0  0  0  0  0
  140.0580   69.6960  225.9840 C   0  0  0  0  0  0  0  0  0  0  0  0
  140.1230   68.9990  227.1780 C   0  0  0  0  0  0  0  0  0  0  0  0
  140.6010   69.6380  228.3270 C   0  0  0  0  0  0  0  0  0  0  0  0
  141.0020   70.9570  228.2680 C   0  0  0  0  0  0  0  0  0  0  0  0
  140.9290   71.6420  227.0590 C   0  0  0  0  0  0  0  0  0  0  0  0
  140.4550   71.0130  225.9090 C   0  0  0  0  0  0  0  0  0  0  0  0
  140.3980   71.7030  224.7560 N   0  0  0  0  0  0  0  0  0  0  0  0
  139.7180   78.5020  221.4720 C   0  0  0  0  0  0  0  0  0  0  0  0
  139.3820   79.0570  222.6910 C   0  0  0  0  0  0  0  0  0  0  0  0
  140.3770   79.6750  223.4150 C   0  0  0  0  0  0  0  0  0  0  0  0
  141.6910   79.7440  222.9430 C   0  0  0  0  0  0  0  0  0  0  0  0
  142.9550   80.5320  223.8670 Cl  0  0  0  0  0  0  0  0  0  0  0  0
  142.0140   79.1840  221.7210 C   0  0  0  0  0  0  0  0  0  0  0  0
  141.0230   78.5580  220.9790 C   0  0  0  0  0  0  0  0  0  0  0  0
  137.4079   77.9761  222.4320 H   0  0  0  0  0  0  0  0  0  0  0  0
  136.8445   78.9437  221.0273 H   0  0  0  0  0  0  0  0  0  0  0  0
  136.6427   77.1588  221.0273 H   0  0  0  0  0  0  0  0  0  0  0  0
  138.5521   78.3158  219.7047 H   0  0  0  0  0  0  0  0  0  0  0  0
  139.1060   76.1020  219.5300 H   0  0  0  0  0  0  0  0  0  0  0  0
  138.8785   73.7507  220.5756 H   0  0  0  0  0  0  0  0  0  0  0  0
  140.6256   74.1728  220.7973 H   0  0  0  0  0  0  0  0  0  0  0  0
  139.5860   73.7640  223.4050 H   0  0  0  0  0  0  0  0  0  0  0  0
  139.1712   69.3498  222.7245 H   0  0  0  0  0  0  0  0  0  0  0  0
  139.2656   68.0469  224.8384 H   0  0  0  0  0  0  0  0  0  0  0  0
  139.8006   67.9483  227.2232 H   0  0  0  0  0  0  0  0  0  0  0  0
  140.6572   69.0885  229.2783 H   0  0  0  0  0  0  0  0  0  0  0  0
  141.3766   71.4632  229.1699 H   0  0  0  0  0  0  0  0  0  0  0  0
  141.2494   72.6932  227.0102 H   0  0  0  0  0  0  0  0  0  0  0  0
  138.3513   79.0070  223.0719 H   0  0  0  0  0  0  0  0  0  0  0  0
  140.1320   80.1253  224.3882 H   0  0  0  0  0  0  0  0  0  0  0  0
  143.0452   79.2342  221.3413 H   0  0  0  0  0  0  0  0  0  0  0  0
  141.2647   78.1071  220.0052 H   0  0  0  0  0  0  0  0  0  0  0  0
  1  2  1  0
  2  3  1  0
  3  4  1  0
  4  5  2  0
  4  6  1  0
  6  7  1  0
  7  8  1  0
  8  9  2  0
  8 10  1  0
 10 11  2  0
 11 12  1  0
 12 13  2  0
 13 14  1  0
 14 15  2  0
 15 16  1  0
 16 17  2  0
 17 18  1  0
 18 19  2  0
  2 20  1  0
 20 21  2  0
 21 22  1  0
 22 23  2  0
 23 24  1  0
 23 25  1  0
 25 26  2  0
 19 10  1  0
 26 20  1  0
 18 13  1  0
  1 27  1  0
  1 28  1  0
  1 29  1  0
  2 30  1  6
  3 31  1  0
  6 32  1  0
  6 33  1  0
  7 34  1  0
 11 35  1  0
 12 36  1  0
 14 37  1  0
 15 38  1  0
 16 39  1  0
 17 40  1  0
 21 41  1  0
 22 42  1  0
 25 43  1  0
 26 44  1  0
M  END
>  <smiles>  (35) 
C[C@H](NC(=O)CNC(=O)c1ccc2ccccc2n1)c1ccc(Cl)cc1

>  <score_type>  (35) 
oracle

>  <origin>  (35) 
autodockgpu

>  <m_score__min__energy>  (35) 
-8.7799999999999994

>  <m_primary>  (35) 
energy

>  <rmsd>  (35) 
4.309986702426505

>  <m_score__min__rmsd>  (35) 
4.309986702426505

>  <meeko>  (35) 
{"free_energy": -8.08, "intermolecular_energy": -9.57, "internal_energy": -1.64, "cluster_size": 21, "cluster_id": 1, "rank_in_cluster": 19}

>  <energy>  (35) 
-8.18

>  <cluster_rmsd>  (35) 
1.2

>  <cluster>  (35) 
2

$$$$

     RDKit          3D

 44 46  0  0  0  0  0  0  0  0999 V2000
  136.6370   75.9370  223.4480 C   0  0  0  0  0  0  0  0  0  0  0  0
  137.5840   76.0810  222.2850 C   0  0  2  0  0  0  0  0  0  0  0  0
  138.1800   74.8180  221.9070 N   0  0  0  0  0  0  0  0  0  0  0  0
  138.0710   74.2640  220.6090 C   0  0  0  0  0  0  0  0  0  0  0  0
  137.4290   74.8560  219.6850 O   0  0  0  0  0  0  0  0  0  0  0  0
  138.7450   72.9500  220.3780 C   0  0  0  0  0  0  0  0  0  0  0  0
  138.7650   72.1460  221.5840 N   0  0  0  0  0  0  0  0  0  0  0  0
  139.7270   72.3690  222.6080 C   0  0  0  0  0  0  0  0  0  0  0  0
  140.6130   73.2660  222.5380 O   0  0  0  0  0  0  0  0  0  0  0  0
  139.6860   71.5210  223.7940 C   0  0  0  0  0  0  0  0  0  0  0  0
  138.9560   70.3510  223.8250 C   0  0  0  0  0  0  0  0  0  0  0  0
  138.9190   69.5450  224.9620 C   0  0  0  0  0  0  0  0  0  0  0  0
  139.6270   69.9210  226.0910 C   0  0  0  0  0  0  0  0  0  0  0  0
  139.6150   69.1470  227.2390 C   0  0  0  0  0  0  0  0  0  0  0  0
  140.3440   69.5600  228.3600 C   0  0  0  0  0  0  0  0  0  0  0  0
  141.0700   70.7320  228.3190 C   0  0  0  0  0  0  0  0  0  0  0  0
  141.0700   71.4970  227.1560 C   0  0  0  0  0  0  0  0  0  0  0  0
  140.3470   71.0940  226.0350 C   0  0  0  0  0  0  0  0  0  0  0  0
  140.3700   71.8560  224.9270 N   0  0  0  0  0  0  0  0  0  0  0  0
  138.6820   77.0360  222.5740 C   0  0  0  0  0  0  0  0  0  0  0  0
  138.3470   78.2820  223.0620 C   0  0  0  0  0  0  0  0  0  0  0  0
  139.3680   79.1670  223.3300 C   0  0  0  0  0  0  0  0  0  0  0  0
  140.7070   78.8250  223.1210 C   0  0  0  0  0  0  0  0  0  0  0  0
  142.0040   79.9530  223.4630 Cl  0  0  0  0  0  0  0  0  0  0  0  0
  141.0290   77.5720  222.6320 C   0  0  0  0  0  0  0  0  0  0  0  0
  140.0120   76.6700  222.3560 C   0  0  0  0  0  0  0  0  0  0  0  0
  137.1980   76.0223  224.3904 H   0  0  0  0  0  0  0  0  0  0  0  0
  135.8758   76.7297  223.4014 H   0  0  0  0  0  0  0  0  0  0  0  0
  136.1458   74.9538  223.4014 H   0  0  0  0  0  0  0  0  0  0  0  0
  136.9692   76.4625  221.4565 H   0  0  0  0  0  0  0  0  0  0  0  0
  138.7170   74.3090  222.6580 H   0  0  0  0  0  0  0  0  0  0  0  0
  138.2030   72.4031  219.5924 H   0  0  0  0  0  0  0  0  0  0  0  0
  139.7843   73.1430  220.0737 H   0  0  0  0  0  0  0  0  0  0  0  0
  138.0550   71.3780  221.7160 H   0  0  0  0  0  0  0  0  0  0  0  0
  138.3900   70.0469  222.9321 H   0  0  0  0  0  0  0  0  0  0  0  0
  138.3307   68.6156  224.9622 H   0  0  0  0  0  0  0  0  0  0  0  0
  139.0356   68.2125  227.2698 H   0  0  0  0  0  0  0  0  0  0  0  0
  140.3379   68.9492  229.2748 H   0  0  0  0  0  0  0  0  0  0  0  0
  141.6443   71.0595  229.1981 H   0  0  0  0  0  0  0  0  0  0  0  0
  141.6484   72.4320  227.1214 H   0  0  0  0  0  0  0  0  0  0  0  0
  137.2965   78.5604  223.2319 H   0  0  0  0  0  0  0  0  0  0  0  0
  139.1236   80.1669  223.7178 H   0  0  0  0  0  0  0  0  0  0  0  0
  142.0799   77.2938  222.4638 H   0  0  0  0  0  0  0  0  0  0  0  0
  140.2523   75.6697  221.9667 H   0  0  0  0  0  0  0  0  0  0  0  0
  1  2  1  0
  2  3  1  0
  3  4  1  0
  4  5  2  0
  4  6  1  0
  6  7  1  0
  7  8  1  0
  8  9  2  0
  8 10  1  0
 10 11  2  0
 11 12  1  0
 12 13  2  0
 13 14  1  0
 14 15  2  0
 15 16  1  0
 16 17  2  0
 17 18  1  0
 18 19  2  0
  2 20  1  0
 20 21  2  0
 21 22  1  0
 22 23  2  0
 23 24  1  0
 23 25  1  0
 25 26  2  0
 19 10  1  0
 26 20  1  0
 18 13  1  0
  1 27  1  0
  1 28  1  0
  1 29  1  0
  2 30  1  6
  3 31  1  0
  6 32  1  0
  6 33  1  0
  7 34  1  0
 11 35  1  0
 12 36  1  0
 14 37  1  0
 15 38  1  0
 16 39  1  0
 17 40  1  0
 21 41  1  0
 22 42  1  0
 25 43  1  0
 26 44  1  0
M  END
>  <smiles>  (36) 
C[C@H](NC(=O)CNC(=O)c1ccc2ccccc2n1)c1ccc(Cl)cc1

>  <score_type>  (36) 
oracle

>  <origin>  (36) 
autodockgpu

>  <m_score__min__energy>  (36) 
-8.7799999999999994

>  <m_primary>  (36) 
energy

>  <rmsd>  (36) 
4.972032873096836

>  <m_score__min__rmsd>  (36) 
4.972032873096836

>  <meeko>  (36) 
{"free_energy": -8.37, "intermolecular_energy": -9.86, "internal_energy": -1.79, "cluster_size": 28, "cluster_id": 2, "rank_in_cluster": 6}

>  <energy>  (36) 
-8.07

>  <cluster_rmsd>  (36) 
0.51

>  <cluster>  (36) 
2

$$$$

     RDKit          3D

 44 46  0  0  0  0  0  0  0  0999 V2000
  136.7530   76.0000  223.4840 C   0  0  0  0  0  0  0  0  0  0  0  0
  137.6810   76.1370  222.3040 C   0  0  2  0  0  0  0  0  0  0  0  0
  138.2540   74.8690  221.9100 N   0  0  0  0  0  0  0  0  0  0  0  0
  138.0540   74.2870  220.6350 C   0  0  0  0  0  0  0  0  0  0  0  0
  137.3450   74.8580  219.7470 O   0  0  0  0  0  0  0  0  0  0  0  0
  138.7160   72.9710  220.3820 C   0  0  0  0  0  0  0  0  0  0  0  0
  138.7720   72.1670  221.5880 N   0  0  0  0  0  0  0  0  0  0  0  0
  139.7860   72.3640  222.5640 C   0  0  0  0  0  0  0  0  0  0  0  0
  140.6920   73.2360  222.4530 O   0  0  0  0  0  0  0  0  0  0  0  0
  139.7780   71.5180  223.7520 C   0  0  0  0  0  0  0  0  0  0  0  0
  139.1220   70.3040  223.7750 C   0  0  0  0  0  0  0  0  0  0  0  0
  139.1160   69.4990  224.9140 C   0  0  0  0  0  0  0  0  0  0  0  0
  139.7810   69.9210  226.0530 C   0  0  0  0  0  0  0  0  0  0  0  0
  139.7970   69.1510  227.2040 C   0  0  0  0  0  0  0  0  0  0  0  0
  140.4810   69.6100  228.3350 C   0  0  0  0  0  0  0  0  0  0  0  0
  141.1330   70.8250  228.3020 C   0  0  0  0  0  0  0  0  0  0  0  0
  141.1050   71.5860  227.1370 C   0  0  0  0  0  0  0  0  0  0  0  0
  140.4270   71.1370  226.0050 C   0  0  0  0  0  0  0  0  0  0  0  0
  140.4210   71.8960  224.8960 N   0  0  0  0  0  0  0  0  0  0  0  0
  138.7960   77.0770  222.5770 C   0  0  0  0  0  0  0  0  0  0  0  0
  138.4840   78.3310  223.0620 C   0  0  0  0  0  0  0  0  0  0  0  0
  139.5210   79.2020  223.3150 C   0  0  0  0  0  0  0  0  0  0  0  0
  140.8520   78.8390  223.0940 C   0  0  0  0  0  0  0  0  0  0  0  0
  142.1690   79.9490  223.4170 Cl  0  0  0  0  0  0  0  0  0  0  0  0
  141.1510   77.5790  222.6080 C   0  0  0  0  0  0  0  0  0  0  0  0
  140.1180   76.6900  222.3470 C   0  0  0  0  0  0  0  0  0  0  0  0
  137.3304   76.0852  224.4164 H   0  0  0  0  0  0  0  0  0  0  0  0
  135.9945   76.7959  223.4483 H   0  0  0  0  0  0  0  0  0  0  0  0
  136.2569   75.0189  223.4483 H   0  0  0  0  0  0  0  0  0  0  0  0
  137.0559   76.5295  221.4884 H   0  0  0  0  0  0  0  0  0  0  0  0
  138.8460   74.3770  222.6300 H   0  0  0  0  0  0  0  0  0  0  0  0
  138.1472   72.4258  219.6143 H   0  0  0  0  0  0  0  0  0  0  0  0
  139.7454   73.1603  220.0437 H   0  0  0  0  0  0  0  0  0  0  0  0
  138.0480   71.4180  221.7540 H   0  0  0  0  0  0  0  0  0  0  0  0
  138.5913   69.9632  222.8737 H   0  0  0  0  0  0  0  0  0  0  0  0
  138.5863   68.5349  224.9076 H   0  0  0  0  0  0  0  0  0  0  0  0
  139.2745   68.1833  227.2289 H   0  0  0  0  0  0  0  0  0  0  0  0
  140.4988   69.0014  229.2512 H   0  0  0  0  0  0  0  0  0  0  0  0
  141.6709   71.1897  229.1895 H   0  0  0  0  0  0  0  0  0  0  0  0
  141.6250   72.5549  227.1092 H   0  0  0  0  0  0  0  0  0  0  0  0
  137.4395   78.6259  223.2410 H   0  0  0  0  0  0  0  0  0  0  0  0
  139.2957   80.2074  223.7003 H   0  0  0  0  0  0  0  0  0  0  0  0
  142.1960   77.2850  222.4304 H   0  0  0  0  0  0  0  0  0  0  0  0
  140.3396   75.6843  221.9604 H   0  0  0  0  0  0  0  0  0  0  0  0
  1  2  1  0
  2  3  1  0
  3  4  1  0
  4  5  2  0
  4  6  1  0
  6  7  1  0
  7  8  1  0
  8  9  2  0
  8 10  1  0
 10 11  2  0
 11 12  1  0
 12 13  2  0
 13 14  1  0
 14 15  2  0
 15 16  1  0
 16 17  2  0
 17 18  1  0
 18 19  2  0
  2 20  1  0
 20 21  2  0
 21 22  1  0
 22 23  2  0
 23 24  1  0
 23 25  1  0
 25 26  2  0
 19 10  1  0
 26 20  1  0
 18 13  1  0
  1 27  1  0
  1 28  1  0
  1 29  1  0
  2 30  1  6
  3 31  1  0
  6 32  1  0
  6 33  1  0
  7 34  1  0
 11 35  1  0
 12 36  1  0
 14 37  1  0
 15 38  1  0
 16 39  1  0
 17 40  1  0
 21 41  1  0
 22 42  1  0
 25 43  1  0
 26 44  1  0
M  END
>  <smiles>  (37) 
C[C@H](NC(=O)CNC(=O)c1ccc2ccccc2n1)c1ccc(Cl)cc1

>  <score_type>  (37) 
oracle

>  <origin>  (37) 
autodockgpu

>  <m_score__min__energy>  (37) 
-8.7799999999999994

>  <m_primary>  (37) 
energy

>  <rmsd>  (37) 
4.93745706916202

>  <m_score__min__rmsd>  (37) 
4.93745706916202

>  <meeko>  (37) 
{"free_energy": -8.37, "intermolecular_energy": -9.86, "internal_energy": -1.79, "cluster_size": 28, "cluster_id": 2, "rank_in_cluster": 3}

>  <energy>  (37) 
-8.05

>  <cluster_rmsd>  (37) 
0.39

>  <cluster>  (37) 
2

$$$$

     RDKit          3D

 44 46  0  0  0  0  0  0  0  0999 V2000
  136.5400   75.6740  223.5120 C   0  0  0  0  0  0  0  0  0  0  0  0
  137.4750   75.7920  222.3350 C   0  0  2  0  0  0  0  0  0  0  0  0
  138.0670   74.5210  221.9780 N   0  0  0  0  0  0  0  0  0  0  0  0
  137.5270   73.6620  220.9910 C   0  0  0  0  0  0  0  0  0  0  0  0
  136.4720   73.9650  220.3510 O   0  0  0  0  0  0  0  0  0  0  0  0
  138.2580   72.3830  220.7380 C   0  0  0  0  0  0  0  0  0  0  0  0
  138.5730   71.6990  221.9780 N   0  0  0  0  0  0  0  0  0  0  0  0
  139.6570   72.1140  222.7980 C   0  0  0  0  0  0  0  0  0  0  0  0
  140.4070   73.0890  222.5110 O   0  0  0  0  0  0  0  0  0  0  0  0
  139.9130   71.3790  224.0320 C   0  0  0  0  0  0  0  0  0  0  0  0
  140.6960   71.9030  225.0400 C   0  0  0  0  0  0  0  0  0  0  0  0
  140.9380   71.1960  226.2170 C   0  0  0  0  0  0  0  0  0  0  0  0
  140.3840   69.9380  226.3860 C   0  0  0  0  0  0  0  0  0  0  0  0
  140.6010   69.2040  227.5410 C   0  0  0  0  0  0  0  0  0  0  0  0
  140.0230   67.9370  227.6750 C   0  0  0  0  0  0  0  0  0  0  0  0
  139.2420   67.4230  226.6610 C   0  0  0  0  0  0  0  0  0  0  0  0
  139.0350   68.1740  225.5080 C   0  0  0  0  0  0  0  0  0  0  0  0
  139.6060   69.4380  225.3650 C   0  0  0  0  0  0  0  0  0  0  0  0
  139.3850   70.1370  224.2390 N   0  0  0  0  0  0  0  0  0  0  0  0
  138.5770   76.7520  222.5930 C   0  0  0  0  0  0  0  0  0  0  0  0
  139.8720   76.3260  222.3760 C   0  0  0  0  0  0  0  0  0  0  0  0
  140.8940   77.2180  222.6160 C   0  0  0  0  0  0  0  0  0  0  0  0
  140.6400   78.5180  223.0640 C   0  0  0  0  0  0  0  0  0  0  0  0
  141.9420   79.6500  223.3690 Cl  0  0  0  0  0  0  0  0  0  0  0  0
  139.3380   78.9320  223.2770 C   0  0  0  0  0  0  0  0  0  0  0  0
  138.2980   78.0440  223.0410 C   0  0  0  0  0  0  0  0  0  0  0  0
  137.1158   75.7467  224.4464 H   0  0  0  0  0  0  0  0  0  0  0  0
  135.7986   76.4857  223.4741 H   0  0  0  0  0  0  0  0  0  0  0  0
  136.0235   74.7036  223.4741 H   0  0  0  0  0  0  0  0  0  0  0  0
  136.8515   76.1555  221.5049 H   0  0  0  0  0  0  0  0  0  0  0  0
  138.9430   74.2480  222.4970 H   0  0  0  0  0  0  0  0  0  0  0  0
  137.6287   71.7278  220.1178 H   0  0  0  0  0  0  0  0  0  0  0  0
  139.2012   72.6193  220.2238 H   0  0  0  0  0  0  0  0  0  0  0  0
  137.9900   70.8760  222.2870 H   0  0  0  0  0  0  0  0  0  0  0  0
  141.1395   72.9015  224.9120 H   0  0  0  0  0  0  0  0  0  0  0  0
  141.5653   71.6348  227.0068 H   0  0  0  0  0  0  0  0  0  0  0  0
  141.2245   69.6154  228.3485 H   0  0  0  0  0  0  0  0  0  0  0  0
  140.1916   67.3502  228.5900 H   0  0  0  0  0  0  0  0  0  0  0  0
  138.7863   66.4270  226.7630 H   0  0  0  0  0  0  0  0  0  0  0  0
  138.4126   67.7650  224.6985 H   0  0  0  0  0  0  0  0  0  0  0  0
  140.0814   75.3057  222.0223 H   0  0  0  0  0  0  0  0  0  0  0  0
  141.9341   76.9002  222.4514 H   0  0  0  0  0  0  0  0  0  0  0  0
  139.1291   79.9529  223.6293 H   0  0  0  0  0  0  0  0  0  0  0  0
  137.2567   78.3575  223.2066 H   0  0  0  0  0  0  0  0  0  0  0  0
  1  2  1  0
  2  3  1  0
  3  4  1  0
  4  5  2  0
  4  6  1  0
  6  7  1  0
  7  8  1  0
  8  9  2  0
  8 10  1  0
 10 11  2  0
 11 12  1  0
 12 13  2  0
 13 14  1  0
 14 15  2  0
 15 16  1  0
 16 17  2  0
 17 18  1  0
 18 19  2  0
  2 20  1  0
 20 21  2  0
 21 22  1  0
 22 23  2  0
 23 24  1  0
 23 25  1  0
 25 26  2  0
 19 10  1  0
 26 20  1  0
 18 13  1  0
  1 27  1  0
  1 28  1  0
  1 29  1  0
  2 30  1  6
  3 31  1  0
  6 32  1  0
  6 33  1  0
  7 34  1  0
 11 35  1  0
 12 36  1  0
 14 37  1  0
 15 38  1  0
 16 39  1  0
 17 40  1  0
 21 41  1  0
 22 42  1  0
 25 43  1  0
 26 44  1  0
M  END
>  <smiles>  (38) 
C[C@H](NC(=O)CNC(=O)c1ccc2ccccc2n1)c1ccc(Cl)cc1

>  <score_type>  (38) 
oracle

>  <origin>  (38) 
autodockgpu

>  <m_score__min__energy>  (38) 
-8.7799999999999994

>  <m_primary>  (38) 
energy

>  <rmsd>  (38) 
4.92758695882022

>  <m_score__min__rmsd>  (38) 
4.92758695882022

>  <meeko>  (38) 
{"free_energy": -7.83, "intermolecular_energy": -9.32, "internal_energy": -2.09, "cluster_size": 28, "cluster_id": 2, "rank_in_cluster": 22}

>  <energy>  (38) 
-7.94

>  <cluster_rmsd>  (38) 
0.83

>  <cluster>  (38) 
2

$$$$

     RDKit          3D

 44 46  0  0  0  0  0  0  0  0999 V2000
  136.5930   75.6530  223.4770 C   0  0  0  0  0  0  0  0  0  0  0  0
  137.5360   75.7520  222.3050 C   0  0  2  0  0  0  0  0  0  0  0  0
  138.1310   74.4750  221.9740 N   0  0  0  0  0  0  0  0  0  0  0  0
  137.7420   73.7030  220.8530 C   0  0  0  0  0  0  0  0  0  0  0  0
  136.8300   74.0960  220.0590 O   0  0  0  0  0  0  0  0  0  0  0  0
  138.4540   72.4050  220.6480 C   0  0  0  0  0  0  0  0  0  0  0  0
  138.7060   71.7340  221.9090 N   0  0  0  0  0  0  0  0  0  0  0  0
  139.8210   72.0770  222.7220 C   0  0  0  0  0  0  0  0  0  0  0  0
  140.6550   72.9720  222.4080 O   0  0  0  0  0  0  0  0  0  0  0  0
  140.0090   71.3600  223.9780 C   0  0  0  0  0  0  0  0  0  0  0  0
  140.7300   71.9020  225.0220 C   0  0  0  0  0  0  0  0  0  0  0  0
  140.9070   71.2120  226.2210 C   0  0  0  0  0  0  0  0  0  0  0  0
  140.3500   69.9530  226.3750 C   0  0  0  0  0  0  0  0  0  0  0  0
  140.5040   69.2360  227.5500 C   0  0  0  0  0  0  0  0  0  0  0  0
  139.9260   67.9680  227.6680 C   0  0  0  0  0  0  0  0  0  0  0  0
  139.2080   67.4350  226.6170 C   0  0  0  0  0  0  0  0  0  0  0  0
  139.0640   68.1700  225.4430 C   0  0  0  0  0  0  0  0  0  0  0  0
  139.6360   69.4340  225.3170 C   0  0  0  0  0  0  0  0  0  0  0  0
  139.4770   70.1180  224.1700 N   0  0  0  0  0  0  0  0  0  0  0  0
  138.6350   76.7170  222.5530 C   0  0  0  0  0  0  0  0  0  0  0  0
  139.9310   76.2900  222.3470 C   0  0  0  0  0  0  0  0  0  0  0  0
  140.9510   77.1870  222.5780 C   0  0  0  0  0  0  0  0  0  0  0  0
  140.6940   78.4920  223.0090 C   0  0  0  0  0  0  0  0  0  0  0  0
  141.9930   79.6310  223.3020 Cl  0  0  0  0  0  0  0  0  0  0  0  0
  139.3910   78.9070  223.2110 C   0  0  0  0  0  0  0  0  0  0  0  0
  138.3520   78.0150  222.9830 C   0  0  0  0  0  0  0  0  0  0  0  0
  137.1655   75.7131  224.4144 H   0  0  0  0  0  0  0  0  0  0  0  0
  135.8689   76.4801  223.4359 H   0  0  0  0  0  0  0  0  0  0  0  0
  136.0565   74.6936  223.4359 H   0  0  0  0  0  0  0  0  0  0  0  0
  136.9180   76.1013  221.4647 H   0  0  0  0  0  0  0  0  0  0  0  0
  138.8890   74.1290  222.6190 H   0  0  0  0  0  0  0  0  0  0  0  0
  137.8349   71.7536  220.0136 H   0  0  0  0  0  0  0  0  0  0  0  0
  139.4214   72.6132  220.1676 H   0  0  0  0  0  0  0  0  0  0  0  0
  138.0520   70.9760  222.2400 H   0  0  0  0  0  0  0  0  0  0  0  0
  141.1754   72.9011  224.9060 H   0  0  0  0  0  0  0  0  0  0  0  0
  141.4855   71.6649  227.0397 H   0  0  0  0  0  0  0  0  0  0  0  0
  141.0780   69.6618  228.3862 H   0  0  0  0  0  0  0  0  0  0  0  0
  140.0438   67.3950  228.5995 H   0  0  0  0  0  0  0  0  0  0  0  0
  138.7530   66.4375  226.7059 H   0  0  0  0  0  0  0  0  0  0  0  0
  138.4913   67.7471  224.6044 H   0  0  0  0  0  0  0  0  0  0  0  0
  140.1432   75.2650  222.0088 H   0  0  0  0  0  0  0  0  0  0  0  0
  141.9920   76.8689  222.4196 H   0  0  0  0  0  0  0  0  0  0  0  0
  139.1798   79.9324  223.5486 H   0  0  0  0  0  0  0  0  0  0  0  0
  137.3098   78.3295  223.1405 H   0  0  0  0  0  0  0  0  0  0  0  0
  1  2  1  0
  2  3  1  0
  3  4  1  0
  4  5  2  0
  4  6  1  0
  6  7  1  0
  7  8  1  0
  8  9  2  0
  8 10  1  0
 10 11  2  0
 11 12  1  0
 12 13  2  0
 13 14  1  0
 14 15  2  0
 15 16  1  0
 16 17  2  0
 17 18  1  0
 18 19  2  0
  2 20  1  0
 20 21  2  0
 21 22  1  0
 22 23  2  0
 23 24  1  0
 23 25  1  0
 25 26  2  0
 19 10  1  0
 26 20  1  0
 18 13  1  0
  1 27  1  0
  1 28  1  0
  1 29  1  0
  2 30  1  6
  3 31  1  0
  6 32  1  0
  6 33  1  0
  7 34  1  0
 11 35  1  0
 12 36  1  0
 14 37  1  0
 15 38  1  0
 16 39  1  0
 17 40  1  0
 21 41  1  0
 22 42  1  0
 25 43  1  0
 26 44  1  0
M  END
>  <smiles>  (39) 
C[C@H](NC(=O)CNC(=O)c1ccc2ccccc2n1)c1ccc(Cl)cc1

>  <score_type>  (39) 
oracle

>  <origin>  (39) 
autodockgpu

>  <m_score__min__energy>  (39) 
-8.7799999999999994

>  <m_primary>  (39) 
energy

>  <rmsd>  (39) 
4.898782404255408

>  <m_score__min__rmsd>  (39) 
4.898782404255408

>  <meeko>  (39) 
{"free_energy": -7.93, "intermolecular_energy": -9.42, "internal_energy": -2.08, "cluster_size": 28, "cluster_id": 2, "rank_in_cluster": 19}

>  <energy>  (39) 
-7.93

>  <cluster_rmsd>  (39) 
0.83

>  <cluster>  (39) 
2

$$$$

     RDKit          3D

 44 46  0  0  0  0  0  0  0  0999 V2000
  136.6590   75.8040  223.4520 C   0  0  0  0  0  0  0  0  0  0  0  0
  137.5970   75.9480  222.2800 C   0  0  2  0  0  0  0  0  0  0  0  0
  138.1720   74.6800  221.8840 N   0  0  0  0  0  0  0  0  0  0  0  0
  138.2810   74.2640  220.5350 C   0  0  0  0  0  0  0  0  0  0  0  0
  137.8710   74.9940  219.5780 O   0  0  0  0  0  0  0  0  0  0  0  0
  138.9010   72.9260  220.2910 C   0  0  0  0  0  0  0  0  0  0  0  0
  138.9080   72.1170  221.4950 N   0  0  0  0  0  0  0  0  0  0  0  0
  139.7980   72.3950  222.5690 C   0  0  0  0  0  0  0  0  0  0  0  0
  140.6270   73.3460  222.5500 O   0  0  0  0  0  0  0  0  0  0  0  0
  139.7460   71.5400  223.7490 C   0  0  0  0  0  0  0  0  0  0  0  0
  139.0280   70.3610  223.7610 C   0  0  0  0  0  0  0  0  0  0  0  0
  138.9810   69.5480  224.8930 C   0  0  0  0  0  0  0  0  0  0  0  0
  139.6680   69.9240  226.0350 C   0  0  0  0  0  0  0  0  0  0  0  0
  139.6460   69.1430  227.1780 C   0  0  0  0  0  0  0  0  0  0  0  0
  140.3530   69.5560  228.3130 C   0  0  0  0  0  0  0  0  0  0  0  0
  141.0670   70.7360  228.2900 C   0  0  0  0  0  0  0  0  0  0  0  0
  141.0790   71.5080  227.1320 C   0  0  0  0  0  0  0  0  0  0  0  0
  140.3770   71.1050  225.9970 C   0  0  0  0  0  0  0  0  0  0  0  0
  140.4090   71.8730  224.8950 N   0  0  0  0  0  0  0  0  0  0  0  0
  138.7110   76.8840  222.5680 C   0  0  0  0  0  0  0  0  0  0  0  0
  140.0020   76.4380  222.3680 C   0  0  0  0  0  0  0  0  0  0  0  0
  141.0350   77.3090  222.6370 C   0  0  0  0  0  0  0  0  0  0  0  0
  140.7970   78.6070  223.0970 C   0  0  0  0  0  0  0  0  0  0  0  0
  142.1130   79.7120  223.4370 Cl  0  0  0  0  0  0  0  0  0  0  0  0
  139.4990   79.0410  223.2920 C   0  0  0  0  0  0  0  0  0  0  0  0
  138.4470   78.1760  223.0270 C   0  0  0  0  0  0  0  0  0  0  0  0
  137.2276   75.8913  224.3896 H   0  0  0  0  0  0  0  0  0  0  0  0
  135.8963   76.5956  223.4106 H   0  0  0  0  0  0  0  0  0  0  0  0
  136.1689   74.8201  223.4106 H   0  0  0  0  0  0  0  0  0  0  0  0
  136.9798   76.3472  221.4617 H   0  0  0  0  0  0  0  0  0  0  0  0
  138.5190   74.0580  222.6610 H   0  0  0  0  0  0  0  0  0  0  0  0
  138.3273   72.4027  219.5118 H   0  0  0  0  0  0  0  0  0  0  0  0
  139.9424   73.0806  219.9724 H   0  0  0  0  0  0  0  0  0  0  0  0
  138.2410   71.3050  221.5860 H   0  0  0  0  0  0  0  0  0  0  0  0
  138.4805   70.0559  222.8570 H   0  0  0  0  0  0  0  0  0  0  0  0
  138.4014   68.6132  224.8789 H   0  0  0  0  0  0  0  0  0  0  0  0
  139.0757   68.2025  227.1939 H   0  0  0  0  0  0  0  0  0  0  0  0
  140.3393   68.9394  229.2238 H   0  0  0  0  0  0  0  0  0  0  0  0
  141.6229   71.0645  229.1805 H   0  0  0  0  0  0  0  0  0  0  0  0
  141.6497   72.4482  227.1121 H   0  0  0  0  0  0  0  0  0  0  0  0
  140.1999   75.4186  222.0051 H   0  0  0  0  0  0  0  0  0  0  0  0
  142.0721   76.9747  222.4861 H   0  0  0  0  0  0  0  0  0  0  0  0
  139.3023   80.0612  223.6534 H   0  0  0  0  0  0  0  0  0  0  0  0
  137.4089   78.5068  223.1779 H   0  0  0  0  0  0  0  0  0  0  0  0
  1  2  1  0
  2  3  1  0
  3  4  1  0
  4  5  2  0
  4  6  1  0
  6  7  1  0
  7  8  1  0
  8  9  2  0
  8 10  1  0
 10 11  2  0
 11 12  1  0
 12 13  2  0
 13 14  1  0
 14 15  2  0
 15 16  1  0
 16 17  2  0
 17 18  1  0
 18 19  2  0
  2 20  1  0
 20 21  2  0
 21 22  1  0
 22 23  2  0
 23 24  1  0
 23 25  1  0
 25 26  2  0
 19 10  1  0
 26 20  1  0
 18 13  1  0
  1 27  1  0
  1 28  1  0
  1 29  1  0
  2 30  1  6
  3 31  1  0
  6 32  1  0
  6 33  1  0
  7 34  1  0
 11 35  1  0
 12 36  1  0
 14 37  1  0
 15 38  1  0
 16 39  1  0
 17 40  1  0
 21 41  1  0
 22 42  1  0
 25 43  1  0
 26 44  1  0
M  END
>  <smiles>  (40) 
C[C@H](NC(=O)CNC(=O)c1ccc2ccccc2n1)c1ccc(Cl)cc1

>  <score_type>  (40) 
oracle

>  <origin>  (40) 
autodockgpu

>  <m_score__min__energy>  (40) 
-8.7799999999999994

>  <m_primary>  (40) 
energy

>  <rmsd>  (40) 
5.114351680050207

>  <m_score__min__rmsd>  (40) 
5.114351680050207

>  <meeko>  (40) 
{"free_energy": -8.33, "intermolecular_energy": -9.82, "internal_energy": -1.71, "cluster_size": 28, "cluster_id": 2, "rank_in_cluster": 11}

>  <energy>  (40) 
-7.93

>  <cluster_rmsd>  (40) 
0.84

>  <cluster>  (40) 
2

$$$$

     RDKit          3D

 44 46  0  0  0  0  0  0  0  0999 V2000
  136.6640   75.8140  223.4810 C   0  0  0  0  0  0  0  0  0  0  0  0
  137.5960   75.9550  222.3050 C   0  0  2  0  0  0  0  0  0  0  0  0
  138.1670   74.6870  221.9070 N   0  0  0  0  0  0  0  0  0  0  0  0
  138.0970   74.1820  220.5860 C   0  0  0  0  0  0  0  0  0  0  0  0
  137.5150   74.8290  219.6580 O   0  0  0  0  0  0  0  0  0  0  0  0
  138.7380   72.8560  220.3350 C   0  0  0  0  0  0  0  0  0  0  0  0
  138.7960   72.0590  221.5460 N   0  0  0  0  0  0  0  0  0  0  0  0
  139.7690   72.3100  222.5520 C   0  0  0  0  0  0  0  0  0  0  0  0
  140.6320   73.2270  222.4650 O   0  0  0  0  0  0  0  0  0  0  0  0
  139.7650   71.4690  223.7440 C   0  0  0  0  0  0  0  0  0  0  0  0
  139.1480   70.2350  223.7590 C   0  0  0  0  0  0  0  0  0  0  0  0
  139.1470   69.4350  224.9010 C   0  0  0  0  0  0  0  0  0  0  0  0
  139.7780   69.8810  226.0510 C   0  0  0  0  0  0  0  0  0  0  0  0
  139.7990   69.1150  227.2040 C   0  0  0  0  0  0  0  0  0  0  0  0
  140.4470   69.6000  228.3450 C   0  0  0  0  0  0  0  0  0  0  0  0
  141.0610   70.8350  228.3190 C   0  0  0  0  0  0  0  0  0  0  0  0
  141.0300   71.5910  227.1500 C   0  0  0  0  0  0  0  0  0  0  0  0
  140.3870   71.1160  226.0090 C   0  0  0  0  0  0  0  0  0  0  0  0
  140.3760   71.8710  224.8970 N   0  0  0  0  0  0  0  0  0  0  0  0
  138.7130   76.8900  222.5880 C   0  0  0  0  0  0  0  0  0  0  0  0
  138.4020   78.1520  223.0500 C   0  0  0  0  0  0  0  0  0  0  0  0
  139.4400   79.0190  223.3110 C   0  0  0  0  0  0  0  0  0  0  0  0
  140.7730   78.6430  223.1210 C   0  0  0  0  0  0  0  0  0  0  0  0
  142.0910   79.7480  223.4550 Cl  0  0  0  0  0  0  0  0  0  0  0  0
  141.0710   77.3750  222.6580 C   0  0  0  0  0  0  0  0  0  0  0  0
  140.0360   76.4900  222.3890 C   0  0  0  0  0  0  0  0  0  0  0  0
  137.2374   75.9007  224.4157 H   0  0  0  0  0  0  0  0  0  0  0  0
  135.9028   76.6072  223.4428 H   0  0  0  0  0  0  0  0  0  0  0  0
  136.1715   74.8311  223.4428 H   0  0  0  0  0  0  0  0  0  0  0  0
  136.9755   76.3538  221.4890 H   0  0  0  0  0  0  0  0  0  0  0  0
  138.6540   74.1330  222.6610 H   0  0  0  0  0  0  0  0  0  0  0  0
  138.1537   72.3136  219.5771 H   0  0  0  0  0  0  0  0  0  0  0  0
  139.7662   73.0290  219.9846 H   0  0  0  0  0  0  0  0  0  0  0  0
  138.1060   71.2750  221.6920 H   0  0  0  0  0  0  0  0  0  0  0  0
  138.6455   69.8742  222.8494 H   0  0  0  0  0  0  0  0  0  0  0  0
  138.6478   68.4549  224.8890 H   0  0  0  0  0  0  0  0  0  0  0  0
  139.3088   68.1304  227.2228 H   0  0  0  0  0  0  0  0  0  0  0  0
  140.4670   68.9958  229.2640 H   0  0  0  0  0  0  0  0  0  0  0  0
  141.5710   71.2195  229.2145 H   0  0  0  0  0  0  0  0  0  0  0  0
  141.5195   72.5758  227.1271 H   0  0  0  0  0  0  0  0  0  0  0  0
  137.3565   78.4568  223.2053 H   0  0  0  0  0  0  0  0  0  0  0  0
  139.2147   80.0313  223.6777 H   0  0  0  0  0  0  0  0  0  0  0  0
  142.1169   77.0707  222.5044 H   0  0  0  0  0  0  0  0  0  0  0  0
  140.2571   75.4774  222.0205 H   0  0  0  0  0  0  0  0  0  0  0  0
  1  2  1  0
  2  3  1  0
  3  4  1  0
  4  5  2  0
  4  6  1  0
  6  7  1  0
  7  8  1  0
  8  9  2  0
  8 10  1  0
 10 11  2  0
 11 12  1  0
 12 13  2  0
 13 14  1  0
 14 15  2  0
 15 16  1  0
 16 17  2  0
 17 18  1  0
 18 19  2  0
  2 20  1  0
 20 21  2  0
 21 22  1  0
 22 23  2  0
 23 24  1  0
 23 25  1  0
 25 26  2  0
 19 10  1  0
 26 20  1  0
 18 13  1  0
  1 27  1  0
  1 28  1  0
  1 29  1  0
  2 30  1  6
  3 31  1  0
  6 32  1  0
  6 33  1  0
  7 34  1  0
 11 35  1  0
 12 36  1  0
 14 37  1  0
 15 38  1  0
 16 39  1  0
 17 40  1  0
 21 41  1  0
 22 42  1  0
 25 43  1  0
 26 44  1  0
M  END
>  <smiles>  (41) 
C[C@H](NC(=O)CNC(=O)c1ccc2ccccc2n1)c1ccc(Cl)cc1

>  <score_type>  (41) 
oracle

>  <origin>  (41) 
autodockgpu

>  <m_score__min__energy>  (41) 
-8.7799999999999994

>  <m_primary>  (41) 
energy

>  <rmsd>  (41) 
5.036000489444971

>  <m_score__min__rmsd>  (41) 
5.036000489444971

>  <meeko>  (41) 
{"free_energy": -8.36, "intermolecular_energy": -9.85, "internal_energy": -1.78, "cluster_size": 28, "cluster_id": 2, "rank_in_cluster": 8}

>  <energy>  (41) 
-7.91

>  <cluster_rmsd>  (41) 
0.81

>  <cluster>  (41) 
2

$$$$

     RDKit          3D

 44 46  0  0  0  0  0  0  0  0999 V2000
  138.4050   67.9210  222.5890 C   0  0  0  0  0  0  0  0  0  0  0  0
  138.4930   69.2230  223.3430 C   0  0  2  0  0  0  0  0  0  0  0  0
  139.2390   70.2260  222.6140 N   0  0  0  0  0  0  0  0  0  0  0  0
  138.8490   71.5850  222.5390 C   0  0  0  0  0  0  0  0  0  0  0  0
  137.7990   72.0080  223.1190 O   0  0  0  0  0  0  0  0  0  0  0  0
  139.7290   72.4970  221.7470 C   0  0  0  0  0  0  0  0  0  0  0  0
  139.5730   73.8770  222.1640 N   0  0  0  0  0  0  0  0  0  0  0  0
  140.4330   74.9000  221.6770 C   0  0  0  0  0  0  0  0  0  0  0  0
  141.3740   74.6810  220.8650 O   0  0  0  0  0  0  0  0  0  0  0  0
  140.2150   76.2660  222.1390 C   0  0  0  0  0  0  0  0  0  0  0  0
  138.9470   76.7810  222.3090 C   0  0  0  0  0  0  0  0  0  0  0  0
  138.7440   78.0880  222.7500 C   0  0  0  0  0  0  0  0  0  0  0  0
  139.8350   78.8950  223.0270 C   0  0  0  0  0  0  0  0  0  0  0  0
  139.6750   80.1980  223.4660 C   0  0  0  0  0  0  0  0  0  0  0  0
  140.8020   80.9810  223.7360 C   0  0  0  0  0  0  0  0  0  0  0  0
  142.0660   80.4560  223.5630 C   0  0  0  0  0  0  0  0  0  0  0  0
  142.2080   79.1440  223.1200 C   0  0  0  0  0  0  0  0  0  0  0  0
  141.0910   78.3560  222.8490 C   0  0  0  0  0  0  0  0  0  0  0  0
  141.2630   77.0930  222.4230 N   0  0  0  0  0  0  0  0  0  0  0  0
  139.1300   69.0560  224.6720 C   0  0  0  0  0  0  0  0  0  0  0  0
  139.2080   67.7830  225.1990 C   0  0  0  0  0  0  0  0  0  0  0  0
  139.8000   67.6290  226.4330 C   0  0  0  0  0  0  0  0  0  0  0  0
  140.3110   68.7210  227.1400 C   0  0  0  0  0  0  0  0  0  0  0  0
  141.0630   68.5230  228.7100 Cl  0  0  0  0  0  0  0  0  0  0  0  0
  140.2270   69.9920  226.6010 C   0  0  0  0  0  0  0  0  0  0  0  0
  139.6330   70.1630  225.3590 C   0  0  0  0  0  0  0  0  0  0  0  0
  138.3486   67.0866  223.3035 H   0  0  0  0  0  0  0  0  0  0  0  0
  137.5050   67.9236  221.9566 H   0  0  0  0  0  0  0  0  0  0  0  0
  139.2972   67.8025  221.9566 H   0  0  0  0  0  0  0  0  0  0  0  0
  137.4522   69.5556  223.4698 H   0  0  0  0  0  0  0  0  0  0  0  0
  140.1140   69.8980  222.1250 H   0  0  0  0  0  0  0  0  0  0  0  0
  140.7773   72.1962  221.8902 H   0  0  0  0  0  0  0  0  0  0  0  0
  139.4422   72.4210  220.6878 H   0  0  0  0  0  0  0  0  0  0  0  0
  138.8070   74.1390  222.8400 H   0  0  0  0  0  0  0  0  0  0  0  0
  138.0756   76.1459  222.0916 H   0  0  0  0  0  0  0  0  0  0  0  0
  137.7227   78.4762  222.8773 H   0  0  0  0  0  0  0  0  0  0  0  0
  138.6664   80.6156  223.6019 H   0  0  0  0  0  0  0  0  0  0  0  0
  140.6804   82.0165  224.0866 H   0  0  0  0  0  0  0  0  0  0  0  0
  142.9546   81.0693  223.7735 H   0  0  0  0  0  0  0  0  0  0  0  0
  143.2151   78.7237  222.9820 H   0  0  0  0  0  0  0  0  0  0  0  0
  138.8093   66.9172  224.6500 H   0  0  0  0  0  0  0  0  0  0  0  0
  139.8723   66.6231  226.8723 H   0  0  0  0  0  0  0  0  0  0  0  0
  140.6265   70.8571  227.1506 H   0  0  0  0  0  0  0  0  0  0  0  0
  139.5584   71.1674  224.9167 H   0  0  0  0  0  0  0  0  0  0  0  0
  1  2  1  0
  2  3  1  0
  3  4  1  0
  4  5  2  0
  4  6  1  0
  6  7  1  0
  7  8  1  0
  8  9  2  0
  8 10  1  0
 10 11  2  0
 11 12  1  0
 12 13  2  0
 13 14  1  0
 14 15  2  0
 15 16  1  0
 16 17  2  0
 17 18  1  0
 18 19  2  0
  2 20  1  0
 20 21  2  0
 21 22  1  0
 22 23  2  0
 23 24  1  0
 23 25  1  0
 25 26  2  0
 19 10  1  0
 26 20  1  0
 18 13  1  0
  1 27  1  0
  1 28  1  0
  1 29  1  0
  2 30  1  1
  3 31  1  0
  6 32  1  0
  6 33  1  0
  7 34  1  0
 11 35  1  0
 12 36  1  0
 14 37  1  0
 15 38  1  0
 16 39  1  0
 17 40  1  0
 21 41  1  0
 22 42  1  0
 25 43  1  0
 26 44  1  0
M  END
>  <smiles>  (42) 
C[C@H](NC(=O)CNC(=O)c1ccc2ccccc2n1)c1ccc(Cl)cc1

>  <score_type>  (42) 
oracle

>  <origin>  (42) 
autodockgpu

>  <m_score__min__energy>  (42) 
-8.7799999999999994

>  <m_primary>  (42) 
energy

>  <rmsd>  (42) 
10.616710036388392

>  <m_score__min__rmsd>  (42) 
10.616710036388392

>  <meeko>  (42) 
{"free_energy": -8.15, "intermolecular_energy": -9.65, "internal_energy": -1.25, "cluster_size": 1, "cluster_id": 3, "rank_in_cluster": 1}

>  <energy>  (42) 
-7.88

>  <cluster_rmsd>  (42) 
0.85

>  <cluster>  (42) 
2

$$$$

     RDKit          3D

 44 46  0  0  0  0  0  0  0  0999 V2000
  136.5290   75.6470  223.5290 C   0  0  0  0  0  0  0  0  0  0  0  0
  137.4400   75.6930  222.3290 C   0  0  2  0  0  0  0  0  0  0  0  0
  137.9760   74.3890  222.0010 N   0  0  0  0  0  0  0  0  0  0  0  0
  137.3350   73.4840  221.1210 C   0  0  0  0  0  0  0  0  0  0  0  0
  136.2310   73.7720  220.5600 O   0  0  0  0  0  0  0  0  0  0  0  0
  138.0180   72.1760  220.8840 C   0  0  0  0  0  0  0  0  0  0  0  0
  138.4130   71.5510  222.1320 N   0  0  0  0  0  0  0  0  0  0  0  0
  139.5600   71.9900  222.8490 C   0  0  0  0  0  0  0  0  0  0  0  0
  140.2990   72.9350  222.4580 O   0  0  0  0  0  0  0  0  0  0  0  0
  139.8950   71.3150  224.0980 C   0  0  0  0  0  0  0  0  0  0  0  0
  140.6830   71.9140  225.0590 C   0  0  0  0  0  0  0  0  0  0  0  0
  141.0010   71.2630  226.2500 C   0  0  0  0  0  0  0  0  0  0  0  0
  140.5190   69.9860  226.4830 C   0  0  0  0  0  0  0  0  0  0  0  0
  140.8130   69.3080  227.6540 C   0  0  0  0  0  0  0  0  0  0  0  0
  140.3070   68.0190  227.8530 C   0  0  0  0  0  0  0  0  0  0  0  0
  139.5200   67.4290  226.8860 C   0  0  0  0  0  0  0  0  0  0  0  0
  139.2340   68.1260  225.7150 C   0  0  0  0  0  0  0  0  0  0  0  0
  139.7340   69.4100  225.5080 C   0  0  0  0  0  0  0  0  0  0  0  0
  139.4400   70.0560  224.3660 N   0  0  0  0  0  0  0  0  0  0  0  0
  138.5830   76.6170  222.5330 C   0  0  0  0  0  0  0  0  0  0  0  0
  138.3080   77.9100  222.9320 C   0  0  0  0  0  0  0  0  0  0  0  0
  139.3700   78.7670  223.1200 C   0  0  0  0  0  0  0  0  0  0  0  0
  140.6900   78.3530  222.9170 C   0  0  0  0  0  0  0  0  0  0  0  0
  142.0380   79.4460  223.1570 Cl  0  0  0  0  0  0  0  0  0  0  0  0
  140.9510   77.0550  222.5170 C   0  0  0  0  0  0  0  0  0  0  0  0
  139.8920   76.1800  222.3230 C   0  0  0  0  0  0  0  0  0  0  0  0
  137.1320   75.6774  224.4485 H   0  0  0  0  0  0  0  0  0  0  0  0
  135.8498   76.5120  223.5071 H   0  0  0  0  0  0  0  0  0  0  0  0
  135.9404   74.7180  223.5071 H   0  0  0  0  0  0  0  0  0  0  0  0
  136.8122   76.0544  221.5012 H   0  0  0  0  0  0  0  0  0  0  0  0
  138.8910   74.1290  222.4550 H   0  0  0  0  0  0  0  0  0  0  0  0
  137.3297   71.5046  220.3497 H   0  0  0  0  0  0  0  0  0  0  0  0
  138.9238   72.3616  220.2881 H   0  0  0  0  0  0  0  0  0  0  0  0
  137.8430   70.7550  222.5250 H   0  0  0  0  0  0  0  0  0  0  0  0
  141.0692   72.9285  224.8814 H   0  0  0  0  0  0  0  0  0  0  0  0
  141.6317   71.7613  227.0009 H   0  0  0  0  0  0  0  0  0  0  0  0
  141.4411   69.7804  228.4237 H   0  0  0  0  0  0  0  0  0  0  0  0
  140.5370   67.4756  228.7813 H   0  0  0  0  0  0  0  0  0  0  0  0
  139.1212   66.4153  227.0388 H   0  0  0  0  0  0  0  0  0  0  0  0
  138.6054   67.6571  224.9436 H   0  0  0  0  0  0  0  0  0  0  0  0
  137.2731   78.2453  223.0947 H   0  0  0  0  0  0  0  0  0  0  0  0
  139.1749   79.8020  223.4374 H   0  0  0  0  0  0  0  0  0  0  0  0
  141.9862   76.7203  222.3546 H   0  0  0  0  0  0  0  0  0  0  0  0
  140.0833   75.1446  222.0045 H   0  0  0  0  0  0  0  0  0  0  0  0
  1  2  1  0
  2  3  1  0
  3  4  1  0
  4  5  2  0
  4  6  1  0
  6  7  1  0
  7  8  1  0
  8  9  2  0
  8 10  1  0
 10 11  2  0
 11 12  1  0
 12 13  2  0
 13 14  1  0
 14 15  2  0
 15 16  1  0
 16 17  2  0
 17 18  1  0
 18 19  2  0
  2 20  1  0
 20 21  2  0
 21 22  1  0
 22 23  2  0
 23 24  1  0
 23 25  1  0
 25 26  2  0
 19 10  1  0
 26 20  1  0
 18 13  1  0
  1 27  1  0
  1 28  1  0
  1 29  1  0
  2 30  1  6
  3 31  1  0
  6 32  1  0
  6 33  1  0
  7 34  1  0
 11 35  1  0
 12 36  1  0
 14 37  1  0
 15 38  1  0
 16 39  1  0
 17 40  1  0
 21 41  1  0
 22 42  1  0
 25 43  1  0
 26 44  1  0
M  END
>  <smiles>  (43) 
C[C@H](NC(=O)CNC(=O)c1ccc2ccccc2n1)c1ccc(Cl)cc1

>  <score_type>  (43) 
oracle

>  <origin>  (43) 
autodockgpu

>  <m_score__min__energy>  (43) 
-8.7799999999999994

>  <m_primary>  (43) 
energy

>  <rmsd>  (43) 
4.955202394101111

>  <m_score__min__rmsd>  (43) 
4.955202394101111

>  <meeko>  (43) 
{"free_energy": -7.82, "intermolecular_energy": -9.31, "internal_energy": -2.07, "cluster_size": 28, "cluster_id": 2, "rank_in_cluster": 23}

>  <energy>  (43) 
-7.83

>  <cluster_rmsd>  (43) 
0.88

>  <cluster>  (43) 
2

$$$$

     RDKit          3D

 44 46  0  0  0  0  0  0  0  0999 V2000
  137.2430   76.2740  223.0480 C   0  0  0  0  0  0  0  0  0  0  0  0
  138.3880   76.4500  222.0820 C   0  0  2  0  0  0  0  0  0  0  0  0
  139.1540   75.2340  221.9180 N   0  0  0  0  0  0  0  0  0  0  0  0
  139.8670   74.9170  220.7360 C   0  0  0  0  0  0  0  0  0  0  0  0
  139.8720   75.6990  219.7340 O   0  0  0  0  0  0  0  0  0  0  0  0
  140.6110   73.6220  220.7240 C   0  0  0  0  0  0  0  0  0  0  0  0
  140.5290   72.9520  222.0080 N   0  0  0  0  0  0  0  0  0  0  0  0
  139.8970   71.6850  222.1440 C   0  0  0  0  0  0  0  0  0  0  0  0
  139.3740   71.0670  221.1750 O   0  0  0  0  0  0  0  0  0  0  0  0
  139.8550   71.0710  223.4660 C   0  0  0  0  0  0  0  0  0  0  0  0
  139.2520   69.8480  223.6800 C   0  0  0  0  0  0  0  0  0  0  0  0
  139.2130   69.2660  224.9470 C   0  0  0  0  0  0  0  0  0  0  0  0
  139.7910   69.9240  226.0210 C   0  0  0  0  0  0  0  0  0  0  0  0
  139.7720   69.3790  227.2930 C   0  0  0  0  0  0  0  0  0  0  0  0
  140.3670   70.0730  228.3520 C   0  0  0  0  0  0  0  0  0  0  0  0
  140.9660   71.2950  228.1270 C   0  0  0  0  0  0  0  0  0  0  0  0
  140.9750   71.8280  226.8420 C   0  0  0  0  0  0  0  0  0  0  0  0
  140.3860   71.1430  225.7800 C   0  0  0  0  0  0  0  0  0  0  0  0
  140.4120   71.6860  224.5510 N   0  0  0  0  0  0  0  0  0  0  0  0
  139.3200   77.5220  222.5110 C   0  0  0  0  0  0  0  0  0  0  0  0
  138.7960   78.7730  222.7660 C   0  0  0  0  0  0  0  0  0  0  0  0
  139.6620   79.7670  223.1640 C   0  0  0  0  0  0  0  0  0  0  0  0
  141.0320   79.5290  223.3100 C   0  0  0  0  0  0  0  0  0  0  0  0
  142.1310   80.7960  223.8160 Cl  0  0  0  0  0  0  0  0  0  0  0  0
  141.5440   78.2710  223.0520 C   0  0  0  0  0  0  0  0  0  0  0  0
  140.6830   77.2590  222.6500 C   0  0  0  0  0  0  0  0  0  0  0  0
  137.6211   76.3321  224.0793 H   0  0  0  0  0  0  0  0  0  0  0  0
  136.5000   77.0685  222.8846 H   0  0  0  0  0  0  0  0  0  0  0  0
  136.7729   75.2930  222.8846 H   0  0  0  0  0  0  0  0  0  0  0  0
  137.9207   76.7254  221.1250 H   0  0  0  0  0  0  0  0  0  0  0  0
  139.1640   74.5700  222.7370 H   0  0  0  0  0  0  0  0  0  0  0  0
  140.1796   72.9687  219.9513 H   0  0  0  0  0  0  0  0  0  0  0  0
  141.6693   73.8330  220.5108 H   0  0  0  0  0  0  0  0  0  0  0  0
  140.9450   73.4050  222.8650 H   0  0  0  0  0  0  0  0  0  0  0  0
  138.7916   69.3202  222.8318 H   0  0  0  0  0  0  0  0  0  0  0  0
  138.7263   68.2904  225.0929 H   0  0  0  0  0  0  0  0  0  0  0  0
  139.2917   68.4054  227.4704 H   0  0  0  0  0  0  0  0  0  0  0  0
  140.3572   69.6439  229.3648 H   0  0  0  0  0  0  0  0  0  0  0  0
  141.4333   71.8442  228.9577 H   0  0  0  0  0  0  0  0  0  0  0  0
  141.4529   72.8022  226.6615 H   0  0  0  0  0  0  0  0  0  0  0  0
  137.7195   78.9701  222.6548 H   0  0  0  0  0  0  0  0  0  0  0  0
  139.2665   80.7721  223.3720 H   0  0  0  0  0  0  0  0  0  0  0  0
  142.6205   78.0744  223.1639 H   0  0  0  0  0  0  0  0  0  0  0  0
  141.0744   76.2523  222.4416 H   0  0  0  0  0  0  0  0  0  0  0  0
  1  2  1  0
  2  3  1  0
  3  4  1  0
  4  5  2  0
  4  6  1  0
  6  7  1  0
  7  8  1  0
  8  9  2  0
  8 10  1  0
 10 11  2  0
 11 12  1  0
 12 13  2  0
 13 14  1  0
 14 15  2  0
 15 16  1  0
 16 17  2  0
 17 18  1  0
 18 19  2  0
  2 20  1  0
 20 21  2  0
 21 22  1  0
 22 23  2  0
 23 24  1  0
 23 25  1  0
 25 26  2  0
 19 10  1  0
 26 20  1  0
 18 13  1  0
  1 27  1  0
  1 28  1  0
  1 29  1  0
  2 30  1  6
  3 31  1  0
  6 32  1  0
  6 33  1  0
  7 34  1  0
 11 35  1  0
 12 36  1  0
 14 37  1  0
 15 38  1  0
 16 39  1  0
 17 40  1  0
 21 41  1  0
 22 42  1  0
 25 43  1  0
 26 44  1  0
M  END
>  <smiles>  (44) 
C[C@H](NC(=O)CNC(=O)c1ccc2ccccc2n1)c1ccc(Cl)cc1

>  <score_type>  (44) 
oracle

>  <origin>  (44) 
autodockgpu

>  <m_score__min__energy>  (44) 
-8.7799999999999994

>  <m_primary>  (44) 
energy

>  <rmsd>  (44) 
4.634024994394988

>  <m_score__min__rmsd>  (44) 
4.634024994394988

>  <meeko>  (44) 
{"free_energy": -8.27, "intermolecular_energy": -9.76, "internal_energy": -1.39, "cluster_size": 21, "cluster_id": 1, "rank_in_cluster": 8}

>  <energy>  (44) 
-7.82

>  <cluster_rmsd>  (44) 
0.99

>  <cluster>  (44) 
2

$$$$

     RDKit          3D

 44 46  0  0  0  0  0  0  0  0999 V2000
  137.0100   76.4250  223.2100 C   0  0  0  0  0  0  0  0  0  0  0  0
  138.1210   76.5340  222.1980 C   0  0  2  0  0  0  0  0  0  0  0  0
  138.7860   75.2680  221.9790 N   0  0  0  0  0  0  0  0  0  0  0  0
  139.2870   74.8600  220.7190 C   0  0  0  0  0  0  0  0  0  0  0  0
  139.1770   75.5970  219.6890 O   0  0  0  0  0  0  0  0  0  0  0  0
  139.9490   73.5220  220.6580 C   0  0  0  0  0  0  0  0  0  0  0  0
  140.0000   72.8960  221.9660 N   0  0  0  0  0  0  0  0  0  0  0  0
  139.7960   71.4970  222.1260 C   0  0  0  0  0  0  0  0  0  0  0  0
  139.5600   70.7190  221.1610 O   0  0  0  0  0  0  0  0  0  0  0  0
  139.8630   70.9380  223.4720 C   0  0  0  0  0  0  0  0  0  0  0  0
  139.4150   69.6630  223.7510 C   0  0  0  0  0  0  0  0  0  0  0  0
  139.4820   69.1340  225.0400 C   0  0  0  0  0  0  0  0  0  0  0  0
  140.0080   69.8990  226.0680 C   0  0  0  0  0  0  0  0  0  0  0  0
  140.0900   69.4080  227.3600 C   0  0  0  0  0  0  0  0  0  0  0  0
  140.6280   70.2100  228.3720 C   0  0  0  0  0  0  0  0  0  0  0  0
  141.0730   71.4830  228.0810 C   0  0  0  0  0  0  0  0  0  0  0  0
  140.9820   71.9600  226.7770 C   0  0  0  0  0  0  0  0  0  0  0  0
  140.4480   71.1680  225.7620 C   0  0  0  0  0  0  0  0  0  0  0  0
  140.3750   71.6580  224.5130 N   0  0  0  0  0  0  0  0  0  0  0  0
  139.1490   77.5250  222.6030 C   0  0  0  0  0  0  0  0  0  0  0  0
  138.7380   78.8160  222.8660 C   0  0  0  0  0  0  0  0  0  0  0  0
  139.6930   79.7340  223.2420 C   0  0  0  0  0  0  0  0  0  0  0  0
  141.0410   79.3820  223.3590 C   0  0  0  0  0  0  0  0  0  0  0  0
  142.2540   80.5530  223.8370 Cl  0  0  0  0  0  0  0  0  0  0  0  0
  141.4400   78.0850  223.0930 C   0  0  0  0  0  0  0  0  0  0  0  0
  140.4890   77.1480  222.7120 C   0  0  0  0  0  0  0  0  0  0  0  0
  137.4329   76.4665  224.2246 H   0  0  0  0  0  0  0  0  0  0  0  0
  136.3053   77.2583  223.0721 H   0  0  0  0  0  0  0  0  0  0  0  0
  136.4807   75.4706  223.0721 H   0  0  0  0  0  0  0  0  0  0  0  0
  137.6343   76.8621  221.2677 H   0  0  0  0  0  0  0  0  0  0  0  0
  138.8880   74.6390  222.8190 H   0  0  0  0  0  0  0  0  0  0  0  0
  139.3831   72.8737  219.9729 H   0  0  0  0  0  0  0  0  0  0  0  0
  140.9800   73.6620  220.3010 H   0  0  0  0  0  0  0  0  0  0  0  0
  140.1940   73.4810  222.8210 H   0  0  0  0  0  0  0  0  0  0  0  0
  138.9959   69.0504  222.9392 H   0  0  0  0  0  0  0  0  0  0  0  0
  139.1191   68.1148  225.2390 H   0  0  0  0  0  0  0  0  0  0  0  0
  139.7340   68.3928  227.5894 H   0  0  0  0  0  0  0  0  0  0  0  0
  140.6963   69.8254  229.4003 H   0  0  0  0  0  0  0  0  0  0  0  0
  141.4967   72.1165  228.8742 H   0  0  0  0  0  0  0  0  0  0  0  0
  141.3360   72.9751  226.5442 H   0  0  0  0  0  0  0  0  0  0  0  0
  137.6797   79.1029  222.7779 H   0  0  0  0  0  0  0  0  0  0  0  0
  139.3880   80.7691  223.4554 H   0  0  0  0  0  0  0  0  0  0  0  0
  142.4984   77.7990  223.1822 H   0  0  0  0  0  0  0  0  0  0  0  0
  140.7901   76.1122  222.4968 H   0  0  0  0  0  0  0  0  0  0  0  0
  1  2  1  0
  2  3  1  0
  3  4  1  0
  4  5  2  0
  4  6  1  0
  6  7  1  0
  7  8  1  0
  8  9  2  0
  8 10  1  0
 10 11  2  0
 11 12  1  0
 12 13  2  0
 13 14  1  0
 14 15  2  0
 15 16  1  0
 16 17  2  0
 17 18  1  0
 18 19  2  0
  2 20  1  0
 20 21  2  0
 21 22  1  0
 22 23  2  0
 23 24  1  0
 23 25  1  0
 25 26  2  0
 19 10  1  0
 26 20  1  0
 18 13  1  0
  1 27  1  0
  1 28  1  0
  1 29  1  0
  2 30  1  6
  3 31  1  0
  6 32  1  0
  6 33  1  0
  7 34  1  0
 11 35  1  0
 12 36  1  0
 14 37  1  0
 15 38  1  0
 16 39  1  0
 17 40  1  0
 21 41  1  0
 22 42  1  0
 25 43  1  0
 26 44  1  0
M  END
>  <smiles>  (45) 
C[C@H](NC(=O)CNC(=O)c1ccc2ccccc2n1)c1ccc(Cl)cc1

>  <score_type>  (45) 
oracle

>  <origin>  (45) 
autodockgpu

>  <m_score__min__energy>  (45) 
-8.7799999999999994

>  <m_primary>  (45) 
energy

>  <rmsd>  (45) 
4.730545906290615

>  <m_score__min__rmsd>  (45) 
4.730545906290615

>  <meeko>  (45) 
{"free_energy": -8.28, "intermolecular_energy": -9.77, "internal_energy": -1.34, "cluster_size": 28, "cluster_id": 2, "rank_in_cluster": 12}

>  <energy>  (45) 
-7.82

>  <cluster_rmsd>  (45) 
0.99

>  <cluster>  (45) 
2

$$$$

     RDKit          3D

 44 46  0  0  0  0  0  0  0  0999 V2000
  141.7930   78.5300  223.4710 C   0  0  0  0  0  0  0  0  0  0  0  0
  140.9810   78.2450  222.2340 C   0  0  2  0  0  0  0  0  0  0  0  0
  141.0700   76.8580  221.8310 N   0  0  0  0  0  0  0  0  0  0  0  0
  139.9440   76.0080  221.7160 C   0  0  0  0  0  0  0  0  0  0  0  0
  138.7690   76.4230  221.9660 O   0  0  0  0  0  0  0  0  0  0  0  0
  140.2040   74.6000  221.2870 C   0  0  0  0  0  0  0  0  0  0  0  0
  139.9400   73.6620  222.3610 N   0  0  0  0  0  0  0  0  0  0  0  0
  140.6510   72.4340  222.4640 C   0  0  0  0  0  0  0  0  0  0  0  0
  141.5450   72.0830  221.6450 O   0  0  0  0  0  0  0  0  0  0  0  0
  140.3320   71.5410  223.5720 C   0  0  0  0  0  0  0  0  0  0  0  0
  139.6470   70.3590  223.3780 C   0  0  0  0  0  0  0  0  0  0  0  0
  139.3440   69.5090  224.4420 C   0  0  0  0  0  0  0  0  0  0  0  0
  139.7370   69.8520  225.7250 C   0  0  0  0  0  0  0  0  0  0  0  0
  139.4550   69.0340  226.8060 C   0  0  0  0  0  0  0  0  0  0  0  0
  139.8690   69.4140  228.0880 C   0  0  0  0  0  0  0  0  0  0  0  0
  140.5530   70.5980  228.2700 C   0  0  0  0  0  0  0  0  0  0  0  0
  140.8280   71.4070  227.1720 C   0  0  0  0  0  0  0  0  0  0  0  0
  140.4200   71.0370  225.8920 C   0  0  0  0  0  0  0  0  0  0  0  0
  140.7010   71.8410  224.8520 N   0  0  0  0  0  0  0  0  0  0  0  0
  141.4040   79.0820  221.0840 C   0  0  0  0  0  0  0  0  0  0  0  0
  141.3900   80.4530  221.2400 C   0  0  0  0  0  0  0  0  0  0  0  0
  141.7830   81.2290  220.1720 C   0  0  0  0  0  0  0  0  0  0  0  0
  142.1860   80.6580  218.9620 C   0  0  0  0  0  0  0  0  0  0  0  0
  142.6850   81.6480  217.6050 Cl  0  0  0  0  0  0  0  0  0  0  0  0
  142.1950   79.2830  218.8180 C   0  0  0  0  0  0  0  0  0  0  0  0
  141.8020   78.4870  219.8850 C   0  0  0  0  0  0  0  0  0  0  0  0
  141.1873   78.3174  224.3642 H   0  0  0  0  0  0  0  0  0  0  0  0
  142.6897   77.8929  223.4759 H   0  0  0  0  0  0  0  0  0  0  0  0
  142.0948   79.5878  223.4759 H   0  0  0  0  0  0  0  0  0  0  0  0
  139.9429   78.4857  222.5067 H   0  0  0  0  0  0  0  0  0  0  0  0
  142.0360   76.4920  221.6180 H   0  0  0  0  0  0  0  0  0  0  0  0
  139.5525   74.3598  220.4339 H   0  0  0  0  0  0  0  0  0  0  0  0
  141.2638   74.5142  221.0053 H   0  0  0  0  0  0  0  0  0  0  0  0
  139.2080   73.8850  223.0860 H   0  0  0  0  0  0  0  0  0  0  0  0
  139.3327   70.0806  222.3613 H   0  0  0  0  0  0  0  0  0  0  0  0
  138.7962   68.5720  224.2630 H   0  0  0  0  0  0  0  0  0  0  0  0
  138.9087   68.0908  226.6581 H   0  0  0  0  0  0  0  0  0  0  0  0
  139.6488   68.7681  228.9508 H   0  0  0  0  0  0  0  0  0  0  0  0
  140.8787   70.9004  229.2762 H   0  0  0  0  0  0  0  0  0  0  0  0
  141.3745   72.3507  227.3161 H   0  0  0  0  0  0  0  0  0  0  0  0
  141.0746   80.9122  222.1885 H   0  0  0  0  0  0  0  0  0  0  0  0
  141.7795   82.3242  220.2740 H   0  0  0  0  0  0  0  0  0  0  0  0
  142.5100   78.8251  217.8687 H   0  0  0  0  0  0  0  0  0  0  0  0
  141.8040   77.3914  219.7865 H   0  0  0  0  0  0  0  0  0  0  0  0
  1  2  1  0
  2  3  1  0
  3  4  1  0
  4  5  2  0
  4  6  1  0
  6  7  1  0
  7  8  1  0
  8  9  2  0
  8 10  1  0
 10 11  2  0
 11 12  1  0
 12 13  2  0
 13 14  1  0
 14 15  2  0
 15 16  1  0
 16 17  2  0
 17 18  1  0
 18 19  2  0
  2 20  1  0
 20 21  2  0
 21 22  1  0
 22 23  2  0
 23 24  1  0
 23 25  1  0
 25 26  2  0
 19 10  1  0
 26 20  1  0
 18 13  1  0
  1 27  1  0
  1 28  1  0
  1 29  1  0
  2 30  1  1
  3 31  1  0
  6 32  1  0
  6 33  1  0
  7 34  1  0
 11 35  1  0
 12 36  1  0
 14 37  1  0
 15 38  1  0
 16 39  1  0
 17 40  1  0
 21 41  1  0
 22 42  1  0
 25 43  1  0
 26 44  1  0
M  END
>  <smiles>  (46) 
C[C@H](NC(=O)CNC(=O)c1ccc2ccccc2n1)c1ccc(Cl)cc1

>  <score_type>  (46) 
oracle

>  <origin>  (46) 
autodockgpu

>  <m_score__min__energy>  (46) 
-8.7799999999999994

>  <m_primary>  (46) 
energy

>  <rmsd>  (46) 
3.5392579292228077

>  <m_score__min__rmsd>  (46) 
3.5392579292228077

>  <meeko>  (46) 
{"free_energy": -8.74, "intermolecular_energy": -10.23, "internal_energy": -0.99, "cluster_size": 21, "cluster_id": 1, "rank_in_cluster": 4}

>  <energy>  (46) 
-7.79

>  <cluster_rmsd>  (46) 
0.97

>  <cluster>  (46) 
2

$$$$

     RDKit          3D

 44 46  0  0  0  0  0  0  0  0999 V2000
  137.4260   77.8680  221.2040 C   0  0  0  0  0  0  0  0  0  0  0  0
  138.7980   77.7330  220.5950 C   0  0  2  0  0  0  0  0  0  0  0  0
  139.1970   76.3490  220.4520 N   0  0  0  0  0  0  0  0  0  0  0  0
  139.3700   75.4730  221.5500 C   0  0  0  0  0  0  0  0  0  0  0  0
  139.1820   75.8600  222.7460 O   0  0  0  0  0  0  0  0  0  0  0  0
  139.7850   74.0720  221.2350 C   0  0  0  0  0  0  0  0  0  0  0  0
  139.7850   73.2400  222.4240 N   0  0  0  0  0  0  0  0  0  0  0  0
  140.0700   71.8480  222.3540 C   0  0  0  0  0  0  0  0  0  0  0  0
  140.3380   71.2520  221.2740 O   0  0  0  0  0  0  0  0  0  0  0  0
  140.0530   71.0750  223.5910 C   0  0  0  0  0  0  0  0  0  0  0  0
  139.5870   69.7780  223.6300 C   0  0  0  0  0  0  0  0  0  0  0  0
  139.5720   69.0440  224.8150 C   0  0  0  0  0  0  0  0  0  0  0  0
  140.0350   69.6230  225.9850 C   0  0  0  0  0  0  0  0  0  0  0  0
  140.0360   68.9270  227.1820 C   0  0  0  0  0  0  0  0  0  0  0  0
  140.5120   69.5460  228.3420 C   0  0  0  0  0  0  0  0  0  0  0  0
  140.9760   70.8440  228.2920 C   0  0  0  0  0  0  0  0  0  0  0  0
  140.9670   71.5290  227.0800 C   0  0  0  0  0  0  0  0  0  0  0  0
  140.4950   70.9200  225.9190 C   0  0  0  0  0  0  0  0  0  0  0  0
  140.5010   71.6090  224.7650 N   0  0  0  0  0  0  0  0  0  0  0  0
  139.8360   78.4260  221.3970 C   0  0  0  0  0  0  0  0  0  0  0  0
  139.5090   78.8190  222.6800 C   0  0  0  0  0  0  0  0  0  0  0  0
  140.4740   79.4630  223.4230 C   0  0  0  0  0  0  0  0  0  0  0  0
  141.7480   79.7160  222.9070 C   0  0  0  0  0  0  0  0  0  0  0  0
  142.9720   80.5350  223.8560 Cl  0  0  0  0  0  0  0  0  0  0  0  0
  142.0620   79.3170  221.6210 C   0  0  0  0  0  0  0  0  0  0  0  0
  141.1010   78.6670  220.8590 C   0  0  0  0  0  0  0  0  0  0  0  0
  137.5093   77.8598  222.3008 H   0  0  0  0  0  0  0  0  0  0  0  0
  136.9716   78.8152  220.8778 H   0  0  0  0  0  0  0  0  0  0  0  0
  136.7957   77.0275  220.8778 H   0  0  0  0  0  0  0  0  0  0  0  0
  138.7218   78.2016  219.6027 H   0  0  0  0  0  0  0  0  0  0  0  0
  139.3590   76.0060  219.4690 H   0  0  0  0  0  0  0  0  0  0  0  0
  139.0841   73.6475  220.5011 H   0  0  0  0  0  0  0  0  0  0  0  0
  140.8072   74.0965  220.8295 H   0  0  0  0  0  0  0  0  0  0  0  0
  139.5720   73.6670  223.3640 H   0  0  0  0  0  0  0  0  0  0  0  0
  139.2185   69.3115  222.7045 H   0  0  0  0  0  0  0  0  0  0  0  0
  139.1946   68.0108  224.8209 H   0  0  0  0  0  0  0  0  0  0  0  0
  139.6642   67.8924  227.2202 H   0  0  0  0  0  0  0  0  0  0  0  0
  140.5164   68.9973  229.2953 H   0  0  0  0  0  0  0  0  0  0  0  0
  141.3503   71.3342  229.2028 H   0  0  0  0  0  0  0  0  0  0  0  0
  141.3372   72.5640  227.0384 H   0  0  0  0  0  0  0  0  0  0  0  0
  138.5094   78.6239  223.0956 H   0  0  0  0  0  0  0  0  0  0  0  0
  140.2360   79.7859  224.4473 H   0  0  0  0  0  0  0  0  0  0  0  0
  143.0620   79.5124  221.2065 H   0  0  0  0  0  0  0  0  0  0  0  0
  141.3357   78.3429  219.8344 H   0  0  0  0  0  0  0  0  0  0  0  0
  1  2  1  0
  2  3  1  0
  3  4  1  0
  4  5  2  0
  4  6  1  0
  6  7  1  0
  7  8  1  0
  8  9  2  0
  8 10  1  0
 10 11  2  0
 11 12  1  0
 12 13  2  0
 13 14  1  0
 14 15  2  0
 15 16  1  0
 16 17  2  0
 17 18  1  0
 18 19  2  0
  2 20  1  0
 20 21  2  0
 21 22  1  0
 22 23  2  0
 23 24  1  0
 23 25  1  0
 25 26  2  0
 19 10  1  0
 26 20  1  0
 18 13  1  0
  1 27  1  0
  1 28  1  0
  1 29  1  0
  2 30  1  6
  3 31  1  0
  6 32  1  0
  6 33  1  0
  7 34  1  0
 11 35  1  0
 12 36  1  0
 14 37  1  0
 15 38  1  0
 16 39  1  0
 17 40  1  0
 21 41  1  0
 22 42  1  0
 25 43  1  0
 26 44  1  0
M  END
>  <smiles>  (47) 
C[C@H](NC(=O)CNC(=O)c1ccc2ccccc2n1)c1ccc(Cl)cc1

>  <score_type>  (47) 
oracle

>  <origin>  (47) 
autodockgpu

>  <m_score__min__energy>  (47) 
-8.7799999999999994

>  <m_primary>  (47) 
energy

>  <rmsd>  (47) 
4.30839369922172

>  <m_score__min__rmsd>  (47) 
4.30839369922172

>  <meeko>  (47) 
{"free_energy": -8.16, "intermolecular_energy": -9.65, "internal_energy": -1.59, "cluster_size": 21, "cluster_id": 1, "rank_in_cluster": 11}

>  <energy>  (47) 
-7.76

>  <cluster_rmsd>  (47) 
0.94

>  <cluster>  (47) 
2

$$$$

     RDKit          3D

 44 46  0  0  0  0  0  0  0  0999 V2000
  137.0200   76.8460  223.1320 C   0  0  0  0  0  0  0  0  0  0  0  0
  138.1570   76.8960  222.1440 C   0  0  2  0  0  0  0  0  0  0  0  0
  138.7670   75.5990  221.9480 N   0  0  0  0  0  0  0  0  0  0  0  0
  139.5180   75.2590  220.7970 C   0  0  0  0  0  0  0  0  0  0  0  0
  139.7030   76.0910  219.8540 O   0  0  0  0  0  0  0  0  0  0  0  0
  140.0840   73.8770  220.7460 C   0  0  0  0  0  0  0  0  0  0  0  0
  139.8990   73.1810  222.0050 N   0  0  0  0  0  0  0  0  0  0  0  0
  140.4310   71.8790  222.2170 C   0  0  0  0  0  0  0  0  0  0  0  0
  141.0880   71.2510  221.3420 O   0  0  0  0  0  0  0  0  0  0  0  0
  140.2060   71.2430  223.5100 C   0  0  0  0  0  0  0  0  0  0  0  0
  139.4940   70.0670  223.6270 C   0  0  0  0  0  0  0  0  0  0  0  0
  139.2810   69.4630  224.8650 C   0  0  0  0  0  0  0  0  0  0  0  0
  139.7940   70.0500  226.0100 C   0  0  0  0  0  0  0  0  0  0  0  0
  139.6040   69.4810  227.2580 C   0  0  0  0  0  0  0  0  0  0  0  0
  140.1380   70.1030  228.3910 C   0  0  0  0  0  0  0  0  0  0  0  0
  140.8490   71.2790  228.2640 C   0  0  0  0  0  0  0  0  0  0  0  0
  141.0300   71.8370  227.0020 C   0  0  0  0  0  0  0  0  0  0  0  0
  140.5020   71.2230  225.8670 C   0  0  0  0  0  0  0  0  0  0  0  0
  140.6950   71.7880  224.6620 N   0  0  0  0  0  0  0  0  0  0  0  0
  139.2200   77.8410  222.5650 C   0  0  0  0  0  0  0  0  0  0  0  0
  140.5060   77.3560  222.6930 C   0  0  0  0  0  0  0  0  0  0  0  0
  141.4930   78.2340  223.0840 C   0  0  0  0  0  0  0  0  0  0  0  0
  141.2130   79.5780  223.3470 C   0  0  0  0  0  0  0  0  0  0  0  0
  142.4700   80.6930  223.8450 Cl  0  0  0  0  0  0  0  0  0  0  0  0
  139.9210   80.0520  223.2150 C   0  0  0  0  0  0  0  0  0  0  0  0
  138.9160   79.1790  222.8220 C   0  0  0  0  0  0  0  0  0  0  0  0
  137.4226   76.8637  224.1555 H   0  0  0  0  0  0  0  0  0  0  0  0
  136.3643   77.7162  222.9808 H   0  0  0  0  0  0  0  0  0  0  0  0
  136.4432   75.9216  222.9808 H   0  0  0  0  0  0  0  0  0  0  0  0
  137.7067   77.2393  221.2010 H   0  0  0  0  0  0  0  0  0  0  0  0
  138.6260   74.8920  222.7170 H   0  0  0  0  0  0  0  0  0  0  0  0
  139.5790   73.3130  219.9480 H   0  0  0  0  0  0  0  0  0  0  0  0
  141.1635   73.9528  220.5484 H   0  0  0  0  0  0  0  0  0  0  0  0
  139.3620   73.6430  222.7860 H   0  0  0  0  0  0  0  0  0  0  0  0
  139.0847   69.5948  222.7217 H   0  0  0  0  0  0  0  0  0  0  0  0
  138.7090   68.5258  224.9323 H   0  0  0  0  0  0  0  0  0  0  0  0
  139.0359   68.5444  227.3577 H   0  0  0  0  0  0  0  0  0  0  0  0
  139.9912   69.6544  229.3846 H   0  0  0  0  0  0  0  0  0  0  0  0
  141.2693   71.7714  229.1533 H   0  0  0  0  0  0  0  0  0  0  0  0
  141.5967   72.7741  226.8987 H   0  0  0  0  0  0  0  0  0  0  0  0
  140.7359   76.2998  222.4889 H   0  0  0  0  0  0  0  0  0  0  0  0
  142.5251   77.8690  223.1917 H   0  0  0  0  0  0  0  0  0  0  0  0
  139.6922   81.1084  223.4190 H   0  0  0  0  0  0  0  0  0  0  0  0
  137.8828   79.5405  222.7134 H   0  0  0  0  0  0  0  0  0  0  0  0
  1  2  1  0
  2  3  1  0
  3  4  1  0
  4  5  2  0
  4  6  1  0
  6  7  1  0
  7  8  1  0
  8  9  2  0
  8 10  1  0
 10 11  2  0
 11 12  1  0
 12 13  2  0
 13 14  1  0
 14 15  2  0
 15 16  1  0
 16 17  2  0
 17 18  1  0
 18 19  2  0
  2 20  1  0
 20 21  2  0
 21 22  1  0
 22 23  2  0
 23 24  1  0
 23 25  1  0
 25 26  2  0
 19 10  1  0
 26 20  1  0
 18 13  1  0
  1 27  1  0
  1 28  1  0
  1 29  1  0
  2 30  1  6
  3 31  1  0
  6 32  1  0
  6 33  1  0
  7 34  1  0
 11 35  1  0
 12 36  1  0
 14 37  1  0
 15 38  1  0
 16 39  1  0
 17 40  1  0
 21 41  1  0
 22 42  1  0
 25 43  1  0
 26 44  1  0
M  END
>  <smiles>  (48) 
C[C@H](NC(=O)CNC(=O)c1ccc2ccccc2n1)c1ccc(Cl)cc1

>  <score_type>  (48) 
oracle

>  <origin>  (48) 
autodockgpu

>  <m_score__min__energy>  (48) 
-8.7799999999999994

>  <m_primary>  (48) 
energy

>  <rmsd>  (48) 
4.666709928528431

>  <m_score__min__rmsd>  (48) 
4.666709928528431

>  <meeko>  (48) 
{"free_energy": -8.75, "intermolecular_energy": -10.24, "internal_energy": -0.92, "cluster_size": 21, "cluster_id": 1, "rank_in_cluster": 2}

>  <energy>  (48) 
-7.76

>  <cluster_rmsd>  (48) 
1.04

>  <cluster>  (48) 
2

$$$$

     RDKit          3D

 44 46  0  0  0  0  0  0  0  0999 V2000
  137.7040   78.1580  221.0050 C   0  0  0  0  0  0  0  0  0  0  0  0
  139.1310   78.0550  220.5310 C   0  0  2  0  0  0  0  0  0  0  0  0
  139.5660   76.6810  220.4070 N   0  0  0  0  0  0  0  0  0  0  0  0
  139.5130   75.7490  221.4720 C   0  0  0  0  0  0  0  0  0  0  0  0
  139.0720   76.0740  222.6190 O   0  0  0  0  0  0  0  0  0  0  0  0
  140.0000   74.3660  221.1820 C   0  0  0  0  0  0  0  0  0  0  0  0
  139.8330   73.4950  222.3290 N   0  0  0  0  0  0  0  0  0  0  0  0
  140.5040   72.2430  222.4130 C   0  0  0  0  0  0  0  0  0  0  0  0
  141.2770   71.8120  221.5130 O   0  0  0  0  0  0  0  0  0  0  0  0
  140.2880   71.4210  223.5980 C   0  0  0  0  0  0  0  0  0  0  0  0
  139.6340   70.2080  223.5310 C   0  0  0  0  0  0  0  0  0  0  0  0
  139.4300   69.4260  224.6680 C   0  0  0  0  0  0  0  0  0  0  0  0
  139.8920   69.8700  225.8960 C   0  0  0  0  0  0  0  0  0  0  0  0
  139.7080   69.1220  227.0470 C   0  0  0  0  0  0  0  0  0  0  0  0
  140.1890   69.6030  228.2690 C   0  0  0  0  0  0  0  0  0  0  0  0
  140.8420   70.8170  228.3250 C   0  0  0  0  0  0  0  0  0  0  0  0
  141.0170   71.5550  227.1580 C   0  0  0  0  0  0  0  0  0  0  0  0
  140.5410   71.0840  225.9360 C   0  0  0  0  0  0  0  0  0  0  0  0
  140.7280   71.8210  224.8280 N   0  0  0  0  0  0  0  0  0  0  0  0
  140.0730   78.7510  221.4430 C   0  0  0  0  0  0  0  0  0  0  0  0
  141.3250   79.0730  220.9600 C   0  0  0  0  0  0  0  0  0  0  0  0
  142.1980   79.7190  221.8070 C   0  0  0  0  0  0  0  0  0  0  0  0
  141.8390   80.0450  223.1180 C   0  0  0  0  0  0  0  0  0  0  0  0
  142.9520   80.8670  224.1930 Cl  0  0  0  0  0  0  0  0  0  0  0  0
  140.5810   79.7180  223.5890 C   0  0  0  0  0  0  0  0  0  0  0  0
  139.6900   79.0660  222.7480 C   0  0  0  0  0  0  0  0  0  0  0  0
  137.6822   78.1596  222.1048 H   0  0  0  0  0  0  0  0  0  0  0  0
  137.2588   79.0906  220.6281 H   0  0  0  0  0  0  0  0  0  0  0  0
  137.1295   77.2990  220.6281 H   0  0  0  0  0  0  0  0  0  0  0  0
  139.1445   78.5385  219.5431 H   0  0  0  0  0  0  0  0  0  0  0  0
  139.9370   76.3890  219.4650 H   0  0  0  0  0  0  0  0  0  0  0  0
  139.4299   73.9560  220.3353 H   0  0  0  0  0  0  0  0  0  0  0  0
  141.0720   74.4198  220.9413 H   0  0  0  0  0  0  0  0  0  0  0  0
  139.2040   73.7860  223.1240 H   0  0  0  0  0  0  0  0  0  0  0  0
  139.2650   69.8494  222.5588 H   0  0  0  0  0  0  0  0  0  0  0  0
  138.9053   68.4624  224.5898 H   0  0  0  0  0  0  0  0  0  0  0  0
  139.1863   68.1547  227.0003 H   0  0  0  0  0  0  0  0  0  0  0  0
  140.0465   69.0128  229.1863 H   0  0  0  0  0  0  0  0  0  0  0  0
  141.2213   71.1987  229.2844 H   0  0  0  0  0  0  0  0  0  0  0  0
  141.5379   72.5229  227.2009 H   0  0  0  0  0  0  0  0  0  0  0  0
  141.6169   78.8213  219.9297 H   0  0  0  0  0  0  0  0  0  0  0  0
  143.2015   79.9847  221.4432 H   0  0  0  0  0  0  0  0  0  0  0  0
  140.2895   79.9718  224.6189 H   0  0  0  0  0  0  0  0  0  0  0  0
  138.6857   78.7984  223.1084 H   0  0  0  0  0  0  0  0  0  0  0  0
  1  2  1  0
  2  3  1  0
  3  4  1  0
  4  5  2  0
  4  6  1  0
  6  7  1  0
  7  8  1  0
  8  9  2  0
  8 10  1  0
 10 11  2  0
 11 12  1  0
 12 13  2  0
 13 14  1  0
 14 15  2  0
 15 16  1  0
 16 17  2  0
 17 18  1  0
 18 19  2  0
  2 20  1  0
 20 21  2  0
 21 22  1  0
 22 23  2  0
 23 24  1  0
 23 25  1  0
 25 26  2  0
 19 10  1  0
 26 20  1  0
 18 13  1  0
  1 27  1  0
  1 28  1  0
  1 29  1  0
  2 30  1  6
  3 31  1  0
  6 32  1  0
  6 33  1  0
  7 34  1  0
 11 35  1  0
 12 36  1  0
 14 37  1  0
 15 38  1  0
 16 39  1  0
 17 40  1  0
 21 41  1  0
 22 42  1  0
 25 43  1  0
 26 44  1  0
M  END
>  <smiles>  (49) 
C[C@H](NC(=O)CNC(=O)c1ccc2ccccc2n1)c1ccc(Cl)cc1

>  <score_type>  (49) 
oracle

>  <origin>  (49) 
autodockgpu

>  <m_score__min__energy>  (49) 
-8.7799999999999994

>  <m_primary>  (49) 
energy

>  <rmsd>  (49) 
4.386292143605408

>  <m_score__min__rmsd>  (49) 
4.386292143605408

>  <meeko>  (49) 
{"free_energy": -8.26, "intermolecular_energy": -9.75, "internal_energy": -1.41, "cluster_size": 21, "cluster_id": 1, "rank_in_cluster": 9}

>  <energy>  (49) 
-7.31

>  <cluster_rmsd>  (49) 
1.33

>  <cluster>  (49) 
2

$$$$

     RDKit          3D

 44 46  0  0  0  0  0  0  0  0999 V2000
  137.4040   78.0360  221.2520 C   0  0  0  0  0  0  0  0  0  0  0  0
  138.7700   77.8860  220.6310 C   0  0  2  0  0  0  0  0  0  0  0  0
  139.1490   76.4990  220.4770 N   0  0  0  0  0  0  0  0  0  0  0  0
  139.1460   75.5690  221.5450 C   0  0  0  0  0  0  0  0  0  0  0  0
  138.8020   75.9080  222.7210 O   0  0  0  0  0  0  0  0  0  0  0  0
  139.5640   74.1710  221.2220 C   0  0  0  0  0  0  0  0  0  0  0  0
  139.6590   73.3570  222.4190 N   0  0  0  0  0  0  0  0  0  0  0  0
  139.8750   71.9530  222.3450 C   0  0  0  0  0  0  0  0  0  0  0  0
  139.9980   71.3300  221.2540 O   0  0  0  0  0  0  0  0  0  0  0  0
  139.9610   71.2000  223.5910 C   0  0  0  0  0  0  0  0  0  0  0  0
  139.5860   69.8740  223.6650 C   0  0  0  0  0  0  0  0  0  0  0  0
  139.6700   69.1590  224.8590 C   0  0  0  0  0  0  0  0  0  0  0  0
  140.1390   69.7860  226.0020 C   0  0  0  0  0  0  0  0  0  0  0  0
  140.2360   69.1090  227.2060 C   0  0  0  0  0  0  0  0  0  0  0  0
  140.7150   69.7770  228.3380 C   0  0  0  0  0  0  0  0  0  0  0  0
  141.0870   71.1020  228.2530 C   0  0  0  0  0  0  0  0  0  0  0  0
  140.9820   71.7670  227.0350 C   0  0  0  0  0  0  0  0  0  0  0  0
  140.5060   71.1100  225.9010 C   0  0  0  0  0  0  0  0  0  0  0  0
  140.4180   71.7800  224.7390 N   0  0  0  0  0  0  0  0  0  0  0  0
  139.8220   78.5620  221.4300 C   0  0  0  0  0  0  0  0  0  0  0  0
  139.4740   79.0690  222.6650 C   0  0  0  0  0  0  0  0  0  0  0  0
  140.4520   79.6950  223.4060 C   0  0  0  0  0  0  0  0  0  0  0  0
  141.7620   79.8190  222.9320 C   0  0  0  0  0  0  0  0  0  0  0  0
  143.0040   80.6170  223.8760 Cl  0  0  0  0  0  0  0  0  0  0  0  0
  142.0970   79.3070  221.6920 C   0  0  0  0  0  0  0  0  0  0  0  0
  141.1230   78.6730  220.9340 C   0  0  0  0  0  0  0  0  0  0  0  0
  137.4964   78.0259  222.3481 H   0  0  0  0  0  0  0  0  0  0  0  0
  136.9576   78.9886  220.9305 H   0  0  0  0  0  0  0  0  0  0  0  0
  136.7616   77.2030  220.9305 H   0  0  0  0  0  0  0  0  0  0  0  0
  138.6935   78.3600  219.6413 H   0  0  0  0  0  0  0  0  0  0  0  0
  139.4380   76.1950  219.5100 H   0  0  0  0  0  0  0  0  0  0  0  0
  138.8231   73.7238  220.5430 H   0  0  0  0  0  0  0  0  0  0  0  0
  140.5561   74.2070  220.7482 H   0  0  0  0  0  0  0  0  0  0  0  0
  139.5680   73.8060  223.3690 H   0  0  0  0  0  0  0  0  0  0  0  0
  139.2124   69.3698  222.7616 H   0  0  0  0  0  0  0  0  0  0  0  0
  139.3655   68.1025  224.8933 H   0  0  0  0  0  0  0  0  0  0  0  0
  139.9381   68.0521  227.2720 H   0  0  0  0  0  0  0  0  0  0  0  0
  140.7950   69.2445  229.2972 H   0  0  0  0  0  0  0  0  0  0  0  0
  141.4641   71.6296  229.1415 H   0  0  0  0  0  0  0  0  0  0  0  0
  141.2782   72.8241  226.9660 H   0  0  0  0  0  0  0  0  0  0  0  0
  138.4464   78.9761  223.0465 H   0  0  0  0  0  0  0  0  0  0  0  0
  140.1968   80.1070  224.3935 H   0  0  0  0  0  0  0  0  0  0  0  0
  143.1245   79.4013  221.3106 H   0  0  0  0  0  0  0  0  0  0  0  0
  141.3745   78.2594  219.9462 H   0  0  0  0  0  0  0  0  0  0  0  0
  1  2  1  0
  2  3  1  0
  3  4  1  0
  4  5  2  0
  4  6  1  0
  6  7  1  0
  7  8  1  0
  8  9  2  0
  8 10  1  0
 10 11  2  0
 11 12  1  0
 12 13  2  0
 13 14  1  0
 14 15  2  0
 15 16  1  0
 16 17  2  0
 17 18  1  0
 18 19  2  0
  2 20  1  0
 20 21  2  0
 21 22  1  0
 22 23  2  0
 23 24  1  0
 23 25  1  0
 25 26  2  0
 19 10  1  0
 26 20  1  0
 18 13  1  0
  1 27  1  0
  1 28  1  0
  1 29  1  0
  2 30  1  6
  3 31  1  0
  6 32  1  0
  6 33  1  0
  7 34  1  0
 11 35  1  0
 12 36  1  0
 14 37  1  0
 15 38  1  0
 16 39  1  0
 17 40  1  0
 21 41  1  0
 22 42  1  0
 25 43  1  0
 26 44  1  0
M  END
>  <smiles>  (50) 
C[C@H](NC(=O)CNC(=O)c1ccc2ccccc2n1)c1ccc(Cl)cc1

>  <score_type>  (50) 
oracle

>  <origin>  (50) 
autodockgpu

>  <m_score__min__energy>  (50) 
-8.7799999999999994

>  <m_primary>  (50) 
energy

>  <rmsd>  (50) 
4.280282450134802

>  <m_score__min__rmsd>  (50) 
4.280282450134802

>  <meeko>  (50) 
{"free_energy": -8.06, "intermolecular_energy": -9.55, "internal_energy": -1.61, "cluster_size": 21, "cluster_id": 1, "rank_in_cluster": 21}

>  <energy>  (50) 
-8.15

>  <cluster_rmsd>  (50) 
0.0

>  <cluster>  (50) 
3

$$$$
