
     RDKit          3D

 43 45  0  0  0  0  0  0  0  0999 V2000
  138.7870   71.9760  221.6070 O   0  0  0  0  0  0  0  0  0  0  0  0
  139.6900   72.1670  222.4760 C   0  0  0  0  0  0  0  0  0  0  0  0
  140.6350   73.2410  222.3370 N   0  0  0  0  0  0  0  0  0  0  0  0
  140.5650   74.1410  221.1740 C   0  0  0  0  0  0  0  0  0  0  0  0
  141.3040   73.5650  220.0460 C   0  0  0  0  0  0  0  0  0  0  0  0
  140.6320   73.3160  218.9860 O   0  0  0  0  0  0  0  0  0  0  0  0
  142.6810   73.2500  219.9890 N   0  0  0  0  0  0  0  0  0  0  0  0
  143.1380   71.9660  220.5990 C   0  0  0  0  0  0  0  0  0  0  0  0
  144.6190   71.9390  220.3490 C   0  0  0  0  0  0  0  0  0  0  0  0
  144.7610   72.7880  219.0950 C   0  0  2  0  0  0  0  0  0  0  0  0
  146.0650   73.2450  218.9370 O   0  0  0  0  0  0  0  0  0  0  0  0
  143.8180   73.9440  219.4520 C   0  0  1  0  0  0  0  0  0  0  0  0
  143.5730   74.8210  218.2770 C   0  0  0  0  0  0  0  0  0  0  0  0
  144.4510   74.6260  217.2320 O   0  0  0  0  0  0  0  0  0  0  0  0
  139.7830   71.2930  223.6370 C   0  0  0  0  0  0  0  0  0  0  0  0
  139.2750   70.0170  223.5760 C   0  0  0  0  0  0  0  0  0  0  0  0
  139.3170   69.1220  224.6180 C   0  0  0  0  0  0  0  0  0  0  0  0
  139.9060   69.5370  225.7880 C   0  0  0  0  0  0  0  0  0  0  0  0
  139.9500   68.6470  226.8320 C   0  0  0  0  0  0  0  0  0  0  0  0
  140.5350   69.0350  228.0190 C   0  0  0  0  0  0  0  0  0  0  0  0
  140.5810   68.1560  229.0570 F   0  0  0  0  0  0  0  0  0  0  0  0
  141.0530   70.3150  228.1030 C   0  0  0  0  0  0  0  0  0  0  0  0
  141.0000   71.1970  227.0450 C   0  0  0  0  0  0  0  0  0  0  0  0
  140.4140   70.8170  225.8450 C   0  0  0  0  0  0  0  0  0  0  0  0
  140.3540   71.6670  224.8000 N   0  0  0  0  0  0  0  0  0  0  0  0
  141.3550   73.3510  223.0810 H   0  0  0  0  0  0  0  0  0  0  0  0
  139.5128   74.2818  220.8857 H   0  0  0  0  0  0  0  0  0  0  0  0
  141.0128   75.1096  221.4408 H   0  0  0  0  0  0  0  0  0  0  0  0
  142.9252   71.9504  221.6781 H   0  0  0  0  0  0  0  0  0  0  0  0
  142.6248   71.0925  220.1705 H   0  0  0  0  0  0  0  0  0  0  0  0
  145.1718   72.3801  221.1915 H   0  0  0  0  0  0  0  0  0  0  0  0
  145.0246   70.9227  220.2368 H   0  0  0  0  0  0  0  0  0  0  0  0
  144.5322   72.2656  218.1544 H   0  0  0  0  0  0  0  0  0  0  0  0
  146.1250   74.1460  218.5340 H   0  0  0  0  0  0  0  0  0  0  0  0
  144.2023   74.6715  220.1822 H   0  0  0  0  0  0  0  0  0  0  0  0
  142.5535   74.6300  217.9109 H   0  0  0  0  0  0  0  0  0  0  0  0
  143.7162   75.8561  218.6205 H   0  0  0  0  0  0  0  0  0  0  0  0
  145.3840   74.7440  217.5110 H   0  0  0  0  0  0  0  0  0  0  0  0
  138.8061   69.6925  222.6354 H   0  0  0  0  0  0  0  0  0  0  0  0
  138.8948   68.1111  224.5191 H   0  0  0  0  0  0  0  0  0  0  0  0
  139.5246   67.6384  226.7234 H   0  0  0  0  0  0  0  0  0  0  0  0
  141.5219   70.6392  229.0437 H   0  0  0  0  0  0  0  0  0  0  0  0
  141.4239   72.2064  227.1519 H   0  0  0  0  0  0  0  0  0  0  0  0
  1  2  2  0
  2  3  1  0
  3  4  1  0
  4  5  1  0
  5  6  2  0
  5  7  1  0
  7  8  1  0
  8  9  1  0
  9 10  1  0
 10 11  1  0
 10 12  1  0
 12 13  1  0
 13 14  1  0
  2 15  1  0
 15 16  2  0
 16 17  1  0
 17 18  2  0
 18 19  1  0
 19 20  2  0
 20 21  1  0
 20 22  1  0
 22 23  2  0
 23 24  1  0
 24 25  2  0
 12  7  1  0
 25 15  1  0
 24 18  1  0
  3 26  1  0
  4 27  1  0
  4 28  1  0
  8 29  1  0
  8 30  1  0
  9 31  1  0
  9 32  1  0
 10 33  1  6
 11 34  1  0
 12 35  1  1
 13 36  1  0
 13 37  1  0
 14 38  1  0
 16 39  1  0
 17 40  1  0
 19 41  1  0
 22 42  1  0
 23 43  1  0
M  END
>  <smiles>  (1) 
O=C(NCC(=O)N1CC[C@H](O)[C@H]1CO)c1ccc2cc(F)ccc2n1

>  <score_type>  (1) 
oracle

>  <origin>  (1) 
autodockgpu

>  <m_score__min__energy>  (1) 
-7.4800000000000004

>  <m_primary>  (1) 
energy

>  <rmsd>  (1) 
3.2688196145477373

>  <m_score__min__rmsd>  (1) 
3.2688196145477373

>  <meeko>  (1) 
{"free_energy": -6.44, "intermolecular_energy": -8.53, "internal_energy": -2.21, "cluster_size": 18, "cluster_id": 1, "rank_in_cluster": 15}

>  <energy>  (1) 
-7.48

>  <cluster_rmsd>  (1) 
0.0

>  <cluster>  (1) 
1

$$$$

     RDKit          3D

 43 45  0  0  0  0  0  0  0  0999 V2000
  140.7290   73.4070  222.3130 O   0  0  0  0  0  0  0  0  0  0  0  0
  140.0300   72.3500  222.3220 C   0  0  0  0  0  0  0  0  0  0  0  0
  139.3000   71.9360  221.1550 N   0  0  0  0  0  0  0  0  0  0  0  0
  139.3550   72.7400  219.9240 C   0  0  0  0  0  0  0  0  0  0  0  0
  138.6340   74.0040  220.1160 C   0  0  0  0  0  0  0  0  0  0  0  0
  137.5300   74.1360  219.4830 O   0  0  0  0  0  0  0  0  0  0  0  0
  139.0170   75.1010  220.9200 N   0  0  0  0  0  0  0  0  0  0  0  0
  138.1570   75.4560  222.0870 C   0  0  0  0  0  0  0  0  0  0  0  0
  138.8500   76.6290  222.7200 C   0  0  0  0  0  0  0  0  0  0  0  0
  140.3020   76.4130  222.3220 C   0  0  2  0  0  0  0  0  0  0  0  0
  141.0380   77.5870  222.4340 O   0  0  0  0  0  0  0  0  0  0  0  0
  140.1170   76.0230  220.8500 C   0  0  1  0  0  0  0  0  0  0  0  0
  141.3830   75.5110  220.2660 C   0  0  0  0  0  0  0  0  0  0  0  0
  142.4240   76.4150  220.2890 O   0  0  0  0  0  0  0  0  0  0  0  0
  139.9560   71.5330  223.5260 C   0  0  0  0  0  0  0  0  0  0  0  0
  139.2530   70.3530  223.5100 C   0  0  0  0  0  0  0  0  0  0  0  0
  139.1290   69.5160  224.5940 C   0  0  0  0  0  0  0  0  0  0  0  0
  139.7490   69.8940  225.7600 C   0  0  0  0  0  0  0  0  0  0  0  0
  139.6270   69.0630  226.8460 C   0  0  0  0  0  0  0  0  0  0  0  0
  140.2380   69.4150  228.0310 C   0  0  0  0  0  0  0  0  0  0  0  0
  140.1210   68.5940  229.1100 F   0  0  0  0  0  0  0  0  0  0  0  0
  140.9510   70.6000  228.0700 C   0  0  0  0  0  0  0  0  0  0  0  0
  141.0640   71.4240  226.9700 C   0  0  0  0  0  0  0  0  0  0  0  0
  140.4520   71.0790  225.7730 C   0  0  0  0  0  0  0  0  0  0  0  0
  140.5520   71.8720  224.6870 N   0  0  0  0  0  0  0  0  0  0  0  0
  138.7430   71.0580  221.2200 H   0  0  0  0  0  0  0  0  0  0  0  0
  140.4050   72.9539  219.6755 H   0  0  0  0  0  0  0  0  0  0  0  0
  138.8842   72.1772  219.1044 H   0  0  0  0  0  0  0  0  0  0  0  0
  137.1459   75.7343  221.7549 H   0  0  0  0  0  0  0  0  0  0  0  0
  138.0321   74.6160  222.7862 H   0  0  0  0  0  0  0  0  0  0  0  0
  138.4663   77.5794  222.3207 H   0  0  0  0  0  0  0  0  0  0  0  0
  138.6997   76.6902  223.8080 H   0  0  0  0  0  0  0  0  0  0  0  0
  140.8466   75.6823  222.9380 H   0  0  0  0  0  0  0  0  0  0  0  0
  141.9700   77.5060  222.1120 H   0  0  0  0  0  0  0  0  0  0  0  0
  139.8837   76.8460  220.1585 H   0  0  0  0  0  0  0  0  0  0  0  0
  141.6883   74.6193  220.8331 H   0  0  0  0  0  0  0  0  0  0  0  0
  141.1770   75.2941  219.2075 H   0  0  0  0  0  0  0  0  0  0  0  0
  142.6060   76.7410  221.1970 H   0  0  0  0  0  0  0  0  0  0  0  0
  138.7587   70.0595  222.5722 H   0  0  0  0  0  0  0  0  0  0  0  0
  138.5553   68.5797  224.5298 H   0  0  0  0  0  0  0  0  0  0  0  0
  139.0499   68.1295  226.7719 H   0  0  0  0  0  0  0  0  0  0  0  0
  141.4435   70.8943  229.0085 H   0  0  0  0  0  0  0  0  0  0  0  0
  141.6410   72.3578  227.0415 H   0  0  0  0  0  0  0  0  0  0  0  0
  1  2  2  0
  2  3  1  0
  3  4  1  0
  4  5  1  0
  5  6  2  0
  5  7  1  0
  7  8  1  0
  8  9  1  0
  9 10  1  0
 10 11  1  0
 10 12  1  0
 12 13  1  0
 13 14  1  0
  2 15  1  0
 15 16  2  0
 16 17  1  0
 17 18  2  0
 18 19  1  0
 19 20  2  0
 20 21  1  0
 20 22  1  0
 22 23  2  0
 23 24  1  0
 24 25  2  0
 12  7  1  0
 25 15  1  0
 24 18  1  0
  3 26  1  0
  4 27  1  0
  4 28  1  0
  8 29  1  0
  8 30  1  0
  9 31  1  0
  9 32  1  0
 10 33  1  1
 11 34  1  0
 12 35  1  6
 13 36  1  0
 13 37  1  0
 14 38  1  0
 16 39  1  0
 17 40  1  0
 19 41  1  0
 22 42  1  0
 23 43  1  0
M  END
>  <smiles>  (2) 
O=C(NCC(=O)N1CC[C@H](O)[C@H]1CO)c1ccc2cc(F)ccc2n1

>  <score_type>  (2) 
oracle

>  <origin>  (2) 
autodockgpu

>  <m_score__min__energy>  (2) 
-7.4800000000000004

>  <m_primary>  (2) 
energy

>  <rmsd>  (2) 
3.0189931059998125

>  <m_score__min__rmsd>  (2) 
3.0189931059998125

>  <meeko>  (2) 
{"free_energy": -6.16, "intermolecular_energy": -8.24, "internal_energy": -2.18, "cluster_size": 12, "cluster_id": 4, "rank_in_cluster": 12}

>  <energy>  (2) 
-7.4

>  <cluster_rmsd>  (2) 
0.24

>  <cluster>  (2) 
1

$$$$

     RDKit          3D

 43 45  0  0  0  0  0  0  0  0999 V2000
  140.0360   70.9620  221.3880 O   0  0  0  0  0  0  0  0  0  0  0  0
  139.9720   71.5510  222.5080 C   0  0  0  0  0  0  0  0  0  0  0  0
  139.9120   72.9860  222.5870 N   0  0  0  0  0  0  0  0  0  0  0  0
  139.9240   73.7940  221.3570 C   0  0  0  0  0  0  0  0  0  0  0  0
  141.2060   74.4960  221.2290 C   0  0  0  0  0  0  0  0  0  0  0  0
  141.2390   75.7090  221.6380 O   0  0  0  0  0  0  0  0  0  0  0  0
  142.4170   73.9910  220.7050 N   0  0  0  0  0  0  0  0  0  0  0  0
  142.6950   72.5310  220.8480 C   0  0  0  0  0  0  0  0  0  0  0  0
  144.0250   72.3360  220.1780 C   0  0  0  0  0  0  0  0  0  0  0  0
  144.0580   73.4690  219.1630 C   0  0  2  0  0  0  0  0  0  0  0  0
  145.3550   73.7330  218.7400 O   0  0  0  0  0  0  0  0  0  0  0  0
  143.5220   74.6150  220.0310 C   0  0  1  0  0  0  0  0  0  0  0  0
  143.2150   75.8140  219.2090 C   0  0  0  0  0  0  0  0  0  0  0  0
  143.7890   75.8030  217.9550 O   0  0  0  0  0  0  0  0  0  0  0  0
  139.9570   70.7770  223.7410 C   0  0  0  0  0  0  0  0  0  0  0  0
  139.3510   69.5440  223.7680 C   0  0  0  0  0  0  0  0  0  0  0  0
  139.2880   68.7420  224.8830 C   0  0  0  0  0  0  0  0  0  0  0  0
  139.8670   69.2120  226.0360 C   0  0  0  0  0  0  0  0  0  0  0  0
  139.8060   68.4150  227.1520 C   0  0  0  0  0  0  0  0  0  0  0  0
  140.3790   68.8600  228.3250 C   0  0  0  0  0  0  0  0  0  0  0  0
  140.3210   68.0740  229.4340 F   0  0  0  0  0  0  0  0  0  0  0  0
  140.9930   70.0990  228.3210 C   0  0  0  0  0  0  0  0  0  0  0  0
  141.0460   70.8880  227.1910 C   0  0  0  0  0  0  0  0  0  0  0  0
  140.4730   70.4500  226.0060 C   0  0  0  0  0  0  0  0  0  0  0  0
  140.5150   71.2070  224.8910 N   0  0  0  0  0  0  0  0  0  0  0  0
  139.8580   73.4160  223.5330 H   0  0  0  0  0  0  0  0  0  0  0  0
  139.7810   73.1356  220.4875 H   0  0  0  0  0  0  0  0  0  0  0  0
  139.1110   74.5335  221.4033 H   0  0  0  0  0  0  0  0  0  0  0  0
  142.7487   72.2472  221.9094 H   0  0  0  0  0  0  0  0  0  0  0  0
  141.9056   71.9084  220.4016 H   0  0  0  0  0  0  0  0  0  0  0  0
  144.8499   72.4263  220.9001 H   0  0  0  0  0  0  0  0  0  0  0  0
  144.1435   71.3407  219.7249 H   0  0  0  0  0  0  0  0  0  0  0  0
  143.4968   73.2772  218.2366 H   0  0  0  0  0  0  0  0  0  0  0  0
  145.4110   74.4240  218.0350 H   0  0  0  0  0  0  0  0  0  0  0  0
  144.2271   75.0363  220.7627 H   0  0  0  0  0  0  0  0  0  0  0  0
  142.1236   75.8788  219.0880 H   0  0  0  0  0  0  0  0  0  0  0  0
  143.6374   76.6786  219.7419 H   0  0  0  0  0  0  0  0  0  0  0  0
  144.7610   75.6770  217.9990 H   0  0  0  0  0  0  0  0  0  0  0  0
  138.8878   69.1760  222.8406 H   0  0  0  0  0  0  0  0  0  0  0  0
  138.7923   67.7605  224.8525 H   0  0  0  0  0  0  0  0  0  0  0  0
  139.3072   67.4354  227.1113 H   0  0  0  0  0  0  0  0  0  0  0  0
  141.4542   70.4673  229.2493 H   0  0  0  0  0  0  0  0  0  0  0  0
  141.5443   71.8679  227.2295 H   0  0  0  0  0  0  0  0  0  0  0  0
  1  2  2  0
  2  3  1  0
  3  4  1  0
  4  5  1  0
  5  6  2  0
  5  7  1  0
  7  8  1  0
  8  9  1  0
  9 10  1  0
 10 11  1  0
 10 12  1  0
 12 13  1  0
 13 14  1  0
  2 15  1  0
 15 16  2  0
 16 17  1  0
 17 18  2  0
 18 19  1  0
 19 20  2  0
 20 21  1  0
 20 22  1  0
 22 23  2  0
 23 24  1  0
 24 25  2  0
 12  7  1  0
 25 15  1  0
 24 18  1  0
  3 26  1  0
  4 27  1  0
  4 28  1  0
  8 29  1  0
  8 30  1  0
  9 31  1  0
  9 32  1  0
 10 33  1  6
 11 34  1  0
 12 35  1  1
 13 36  1  0
 13 37  1  0
 14 38  1  0
 16 39  1  0
 17 40  1  0
 19 41  1  0
 22 42  1  0
 23 43  1  0
M  END
>  <smiles>  (3) 
O=C(NCC(=O)N1CC[C@H](O)[C@H]1CO)c1ccc2cc(F)ccc2n1

>  <score_type>  (3) 
oracle

>  <origin>  (3) 
autodockgpu

>  <m_score__min__energy>  (3) 
-7.4800000000000004

>  <m_primary>  (3) 
energy

>  <rmsd>  (3) 
2.798738868766669

>  <m_score__min__rmsd>  (3) 
2.798738868766669

>  <meeko>  (3) 
{"free_energy": -6.82, "intermolecular_energy": -8.91, "internal_energy": -2.22, "cluster_size": 18, "cluster_id": 1, "rank_in_cluster": 6}

>  <energy>  (3) 
-7.38

>  <cluster_rmsd>  (3) 
0.3

>  <cluster>  (3) 
1

$$$$

     RDKit          3D

 43 45  0  0  0  0  0  0  0  0999 V2000
  139.9520   73.7180  222.6900 O   0  0  0  0  0  0  0  0  0  0  0  0
  140.2000   72.4840  222.5420 C   0  0  0  0  0  0  0  0  0  0  0  0
  140.5120   71.9420  221.2470 N   0  0  0  0  0  0  0  0  0  0  0  0
  140.5480   72.8220  220.0680 C   0  0  0  0  0  0  0  0  0  0  0  0
  141.6870   73.7430  220.1610 C   0  0  0  0  0  0  0  0  0  0  0  0
  141.4130   74.9710  220.3930 O   0  0  0  0  0  0  0  0  0  0  0  0
  143.0590   73.4330  220.0240 N   0  0  0  0  0  0  0  0  0  0  0  0
  143.6230   72.3340  220.8620 C   0  0  0  0  0  0  0  0  0  0  0  0
  145.0680   72.2590  220.4590 C   0  0  0  0  0  0  0  0  0  0  0  0
  145.0440   72.7890  219.0330 C   0  0  2  0  0  0  0  0  0  0  0  0
  146.3070   73.2050  218.6260 O   0  0  0  0  0  0  0  0  0  0  0  0
  144.1060   73.9900  219.2140 C   0  0  1  0  0  0  0  0  0  0  0  0
  143.7060   74.5610  217.9020 C   0  0  0  0  0  0  0  0  0  0  0  0
  144.7260   74.6250  216.9760 O   0  0  0  0  0  0  0  0  0  0  0  0
  140.1720   71.5890  223.6910 C   0  0  0  0  0  0  0  0  0  0  0  0
  139.6400   70.3290  223.5650 C   0  0  0  0  0  0  0  0  0  0  0  0
  139.5710   69.4160  224.5900 C   0  0  0  0  0  0  0  0  0  0  0  0
  140.0660   69.7980  225.8130 C   0  0  0  0  0  0  0  0  0  0  0  0
  139.9990   68.8910  226.8410 C   0  0  0  0  0  0  0  0  0  0  0  0
  140.4880   69.2450  228.0810 C   0  0  0  0  0  0  0  0  0  0  0  0
  140.4240   68.3490  229.1030 F   0  0  0  0  0  0  0  0  0  0  0  0
  141.0280   70.5090  228.2310 C   0  0  0  0  0  0  0  0  0  0  0  0
  141.0880   71.4100  227.1880 C   0  0  0  0  0  0  0  0  0  0  0  0
  140.5980   71.0630  225.9370 C   0  0  0  0  0  0  0  0  0  0  0  0
  140.6490   71.9300  224.9050 N   0  0  0  0  0  0  0  0  0  0  0  0
  140.7080   70.9220  221.1850 H   0  0  0  0  0  0  0  0  0  0  0  0
  140.6485   72.2096  219.1598 H   0  0  0  0  0  0  0  0  0  0  0  0
  139.6161   73.4049  220.0250 H   0  0  0  0  0  0  0  0  0  0  0  0
  143.5294   72.5732  221.9316 H   0  0  0  0  0  0  0  0  0  0  0  0
  143.0962   71.3801  220.7114 H   0  0  0  0  0  0  0  0  0  0  0  0
  145.6939   72.8905  221.1066 H   0  0  0  0  0  0  0  0  0  0  0  0
  145.4931   71.2479  220.5424 H   0  0  0  0  0  0  0  0  0  0  0  0
  144.7322   72.0577  218.2727 H   0  0  0  0  0  0  0  0  0  0  0  0
  146.3410   74.1500  218.3380 H   0  0  0  0  0  0  0  0  0  0  0  0
  144.5408   74.8731  219.7049 H   0  0  0  0  0  0  0  0  0  0  0  0
  142.9014   73.9370  217.4857 H   0  0  0  0  0  0  0  0  0  0  0  0
  143.3885   75.5967  218.0929 H   0  0  0  0  0  0  0  0  0  0  0  0
  145.5860   74.8440  217.3940 H   0  0  0  0  0  0  0  0  0  0  0  0
  139.2445   70.0321  222.5824 H   0  0  0  0  0  0  0  0  0  0  0  0
  139.1359   68.4174  224.4368 H   0  0  0  0  0  0  0  0  0  0  0  0
  139.5611   67.8951  226.6780 H   0  0  0  0  0  0  0  0  0  0  0  0
  141.4226   70.8058  229.2139 H   0  0  0  0  0  0  0  0  0  0  0  0
  141.5255   72.4064  227.3485 H   0  0  0  0  0  0  0  0  0  0  0  0
  1  2  2  0
  2  3  1  0
  3  4  1  0
  4  5  1  0
  5  6  2  0
  5  7  1  0
  7  8  1  0
  8  9  1  0
  9 10  1  0
 10 11  1  0
 10 12  1  0
 12 13  1  0
 13 14  1  0
  2 15  1  0
 15 16  2  0
 16 17  1  0
 17 18  2  0
 18 19  1  0
 19 20  2  0
 20 21  1  0
 20 22  1  0
 22 23  2  0
 23 24  1  0
 24 25  2  0
 12  7  1  0
 25 15  1  0
 24 18  1  0
  3 26  1  0
  4 27  1  0
  4 28  1  0
  8 29  1  0
  8 30  1  0
  9 31  1  0
  9 32  1  0
 10 33  1  6
 11 34  1  0
 12 35  1  1
 13 36  1  0
 13 37  1  0
 14 38  1  0
 16 39  1  0
 17 40  1  0
 19 41  1  0
 22 42  1  0
 23 43  1  0
M  END
>  <smiles>  (4) 
O=C(NCC(=O)N1CC[C@H](O)[C@H]1CO)c1ccc2cc(F)ccc2n1

>  <score_type>  (4) 
oracle

>  <origin>  (4) 
autodockgpu

>  <m_score__min__energy>  (4) 
-7.4800000000000004

>  <m_primary>  (4) 
energy

>  <rmsd>  (4) 
3.4493201281421357

>  <m_score__min__rmsd>  (4) 
3.4493201281421357

>  <meeko>  (4) 
{"free_energy": -7.38, "intermolecular_energy": -9.47, "internal_energy": -1.96, "cluster_size": 18, "cluster_id": 1, "rank_in_cluster": 3}

>  <energy>  (4) 
-6.98

>  <cluster_rmsd>  (4) 
1.62

>  <cluster>  (4) 
1

$$$$

     RDKit          3D

 43 45  0  0  0  0  0  0  0  0999 V2000
  139.9250   73.6470  222.6840 O   0  0  0  0  0  0  0  0  0  0  0  0
  140.2740   72.4340  222.5780 C   0  0  0  0  0  0  0  0  0  0  0  0
  140.7520   71.9080  221.3280 N   0  0  0  0  0  0  0  0  0  0  0  0
  140.8430   72.7800  220.1470 C   0  0  0  0  0  0  0  0  0  0  0  0
  141.9530   73.7260  220.3030 C   0  0  0  0  0  0  0  0  0  0  0  0
  141.6610   74.8830  220.7660 O   0  0  0  0  0  0  0  0  0  0  0  0
  143.3170   73.5120  220.0010 N   0  0  0  0  0  0  0  0  0  0  0  0
  144.0880   72.5570  220.8500 C   0  0  0  0  0  0  0  0  0  0  0  0
  145.4660   72.5520  220.2530 C   0  0  0  0  0  0  0  0  0  0  0  0
  145.2020   72.9220  218.8010 C   0  0  2  0  0  0  0  0  0  0  0  0
  146.3540   73.3880  218.1790 O   0  0  0  0  0  0  0  0  0  0  0  0
  144.1900   74.0580  218.9990 C   0  0  1  0  0  0  0  0  0  0  0  0
  143.5650   74.4520  217.7090 C   0  0  0  0  0  0  0  0  0  0  0  0
  144.4590   74.9010  216.7610 O   0  0  0  0  0  0  0  0  0  0  0  0
  140.1960   71.5470  223.7310 C   0  0  0  0  0  0  0  0  0  0  0  0
  139.6150   70.3080  223.6030 C   0  0  0  0  0  0  0  0  0  0  0  0
  139.4970   69.4040  224.6320 C   0  0  0  0  0  0  0  0  0  0  0  0
  139.9910   69.7720  225.8600 C   0  0  0  0  0  0  0  0  0  0  0  0
  139.8750   68.8730  226.8910 C   0  0  0  0  0  0  0  0  0  0  0  0
  140.3610   69.2150  228.1350 C   0  0  0  0  0  0  0  0  0  0  0  0
  140.2480   68.3270  229.1600 F   0  0  0  0  0  0  0  0  0  0  0  0
  140.9490   70.4570  228.2870 C   0  0  0  0  0  0  0  0  0  0  0  0
  141.0580   71.3490  227.2410 C   0  0  0  0  0  0  0  0  0  0  0  0
  140.5710   71.0160  225.9850 C   0  0  0  0  0  0  0  0  0  0  0  0
  140.6700   71.8750  224.9500 N   0  0  0  0  0  0  0  0  0  0  0  0
  141.0260   70.9040  221.2990 H   0  0  0  0  0  0  0  0  0  0  0  0
  141.0134   72.1636  219.2520 H   0  0  0  0  0  0  0  0  0  0  0  0
  139.9033   73.3420  220.0413 H   0  0  0  0  0  0  0  0  0  0  0  0
  144.1178   72.9016  221.8942 H   0  0  0  0  0  0  0  0  0  0  0  0
  143.6361   71.5543  220.8681 H   0  0  0  0  0  0  0  0  0  0  0  0
  146.1125   73.2963  220.7409 H   0  0  0  0  0  0  0  0  0  0  0  0
  145.9896   71.5918  220.3708 H   0  0  0  0  0  0  0  0  0  0  0  0
  144.8598   72.0911  218.1665 H   0  0  0  0  0  0  0  0  0  0  0  0
  146.2680   74.3040  217.8160 H   0  0  0  0  0  0  0  0  0  0  0  0
  144.6043   75.0198  219.3356 H   0  0  0  0  0  0  0  0  0  0  0  0
  143.0386   73.5772  217.2995 H   0  0  0  0  0  0  0  0  0  0  0  0
  142.8897   75.2920  217.9289 H   0  0  0  0  0  0  0  0  0  0  0  0
  145.3580   75.0270  217.1340 H   0  0  0  0  0  0  0  0  0  0  0  0
  139.2203   70.0222  222.6168 H   0  0  0  0  0  0  0  0  0  0  0  0
  139.0246   68.4226  224.4779 H   0  0  0  0  0  0  0  0  0  0  0  0
  139.4011   67.8939  226.7269 H   0  0  0  0  0  0  0  0  0  0  0  0
  141.3424   70.7427  229.2737 H   0  0  0  0  0  0  0  0  0  0  0  0
  141.5327   72.3280  227.4028 H   0  0  0  0  0  0  0  0  0  0  0  0
  1  2  2  0
  2  3  1  0
  3  4  1  0
  4  5  1  0
  5  6  2  0
  5  7  1  0
  7  8  1  0
  8  9  1  0
  9 10  1  0
 10 11  1  0
 10 12  1  0
 12 13  1  0
 13 14  1  0
  2 15  1  0
 15 16  2  0
 16 17  1  0
 17 18  2  0
 18 19  1  0
 19 20  2  0
 20 21  1  0
 20 22  1  0
 22 23  2  0
 23 24  1  0
 24 25  2  0
 12  7  1  0
 25 15  1  0
 24 18  1  0
  3 26  1  0
  4 27  1  0
  4 28  1  0
  8 29  1  0
  8 30  1  0
  9 31  1  0
  9 32  1  0
 10 33  1  6
 11 34  1  0
 12 35  1  1
 13 36  1  0
 13 37  1  0
 14 38  1  0
 16 39  1  0
 17 40  1  0
 19 41  1  0
 22 42  1  0
 23 43  1  0
M  END
>  <smiles>  (5) 
O=C(NCC(=O)N1CC[C@H](O)[C@H]1CO)c1ccc2cc(F)ccc2n1

>  <score_type>  (5) 
oracle

>  <origin>  (5) 
autodockgpu

>  <m_score__min__energy>  (5) 
-7.4800000000000004

>  <m_primary>  (5) 
energy

>  <rmsd>  (5) 
3.517136059918718

>  <m_score__min__rmsd>  (5) 
3.517136059918718

>  <meeko>  (5) 
{"free_energy": -7.48, "intermolecular_energy": -9.57, "internal_energy": -1.9, "cluster_size": 18, "cluster_id": 1, "rank_in_cluster": 1}

>  <energy>  (5) 
-6.83

>  <cluster_rmsd>  (5) 
1.84

>  <cluster>  (5) 
1

$$$$

     RDKit          3D

 43 45  0  0  0  0  0  0  0  0999 V2000
  141.7900   71.9200  221.1490 O   0  0  0  0  0  0  0  0  0  0  0  0
  141.0860   72.7900  221.7450 C   0  0  0  0  0  0  0  0  0  0  0  0
  140.1260   72.4060  222.7440 N   0  0  0  0  0  0  0  0  0  0  0  0
  139.9470   70.9870  223.0910 C   0  0  0  0  0  0  0  0  0  0  0  0
  139.3820   70.8660  224.4390 C   0  0  0  0  0  0  0  0  0  0  0  0
  138.1790   71.2720  224.5960 O   0  0  0  0  0  0  0  0  0  0  0  0
  140.0130   70.3500  225.5940 N   0  0  0  0  0  0  0  0  0  0  0  0
  140.4360   71.3090  226.6570 C   0  0  0  0  0  0  0  0  0  0  0  0
  141.0390   70.4420  227.7250 C   0  0  0  0  0  0  0  0  0  0  0  0
  140.3220   69.1160  227.5230 C   0  0  2  0  0  0  0  0  0  0  0  0
  141.0220   68.0670  228.1100 O   0  0  0  0  0  0  0  0  0  0  0  0
  140.3750   69.0180  225.9930 C   0  0  1  0  0  0  0  0  0  0  0  0
  139.5170   67.9130  225.4950 C   0  0  0  0  0  0  0  0  0  0  0  0
  139.1150   67.0240  226.4690 O   0  0  0  0  0  0  0  0  0  0  0  0
  141.2420   74.2010  221.4240 C   0  0  0  0  0  0  0  0  0  0  0  0
  142.0690   74.5820  220.3940 C   0  0  0  0  0  0  0  0  0  0  0  0
  142.2780   75.8870  220.0170 C   0  0  0  0  0  0  0  0  0  0  0  0
  141.6150   76.8640  220.7200 C   0  0  0  0  0  0  0  0  0  0  0  0
  141.8210   78.1690  220.3480 C   0  0  0  0  0  0  0  0  0  0  0  0
  141.1700   79.1720  221.0350 C   0  0  0  0  0  0  0  0  0  0  0  0
  141.3710   80.4680  220.6700 F   0  0  0  0  0  0  0  0  0  0  0  0
  140.3330   78.8130  222.0750 C   0  0  0  0  0  0  0  0  0  0  0  0
  140.1370   77.4960  222.4370 C   0  0  0  0  0  0  0  0  0  0  0  0
  140.7880   76.4790  221.7520 C   0  0  0  0  0  0  0  0  0  0  0  0
  140.6080   75.1860  222.0910 N   0  0  0  0  0  0  0  0  0  0  0  0
  139.5760   73.1630  223.2020 H   0  0  0  0  0  0  0  0  0  0  0  0
  139.2643   70.5185  222.3668 H   0  0  0  0  0  0  0  0  0  0  0  0
  140.9245   70.4832  223.0634 H   0  0  0  0  0  0  0  0  0  0  0  0
  141.1796   72.0194  226.2666 H   0  0  0  0  0  0  0  0  0  0  0  0
  139.5980   71.9145  227.0325 H   0  0  0  0  0  0  0  0  0  0  0  0
  142.1240   70.3322  227.5812 H   0  0  0  0  0  0  0  0  0  0  0  0
  140.9209   70.8522  228.7388 H   0  0  0  0  0  0  0  0  0  0  0  0
  139.3158   69.0623  227.9642 H   0  0  0  0  0  0  0  0  0  0  0  0
  140.5410   67.2030  228.0830 H   0  0  0  0  0  0  0  0  0  0  0  0
  141.3475   68.7403  225.5605 H   0  0  0  0  0  0  0  0  0  0  0  0
  138.6184   68.3535  225.0385 H   0  0  0  0  0  0  0  0  0  0  0  0
  140.1242   67.3413  224.7778 H   0  0  0  0  0  0  0  0  0  0  0  0
  139.8790   66.6440  226.9550 H   0  0  0  0  0  0  0  0  0  0  0  0
  142.5962   73.7934  219.8370 H   0  0  0  0  0  0  0  0  0  0  0  0
  142.9505   76.1398  219.1841 H   0  0  0  0  0  0  0  0  0  0  0  0
  142.4958   78.4114  219.5138 H   0  0  0  0  0  0  0  0  0  0  0  0
  139.8065   79.6023  222.6316 H   0  0  0  0  0  0  0  0  0  0  0  0
  139.4628   77.2511  223.2710 H   0  0  0  0  0  0  0  0  0  0  0  0
  1  2  2  0
  2  3  1  0
  3  4  1  0
  4  5  1  0
  5  6  2  0
  5  7  1  0
  7  8  1  0
  8  9  1  0
  9 10  1  0
 10 11  1  0
 10 12  1  0
 12 13  1  0
 13 14  1  0
  2 15  1  0
 15 16  2  0
 16 17  1  0
 17 18  2  0
 18 19  1  0
 19 20  2  0
 20 21  1  0
 20 22  1  0
 22 23  2  0
 23 24  1  0
 24 25  2  0
 12  7  1  0
 25 15  1  0
 24 18  1  0
  3 26  1  0
  4 27  1  0
  4 28  1  0
  8 29  1  0
  8 30  1  0
  9 31  1  0
  9 32  1  0
 10 33  1  1
 11 34  1  0
 12 35  1  1
 13 36  1  0
 13 37  1  0
 14 38  1  0
 16 39  1  0
 17 40  1  0
 19 41  1  0
 22 42  1  0
 23 43  1  0
M  END
>  <smiles>  (6) 
O=C(NCC(=O)N1CC[C@H](O)[C@H]1CO)c1ccc2cc(F)ccc2n1

>  <score_type>  (6) 
oracle

>  <origin>  (6) 
autodockgpu

>  <m_score__min__energy>  (6) 
-7.4800000000000004

>  <m_primary>  (6) 
energy

>  <rmsd>  (6) 
9.26104836564424

>  <m_score__min__rmsd>  (6) 
9.26104836564424

>  <meeko>  (6) 
{"free_energy": -7.19, "intermolecular_energy": -9.27, "internal_energy": -2.25, "cluster_size": 16, "cluster_id": 2, "rank_in_cluster": 7}

>  <energy>  (6) 
-6.82

>  <cluster_rmsd>  (6) 
1.38

>  <cluster>  (6) 
1

$$$$

     RDKit          3D

 43 45  0  0  0  0  0  0  0  0999 V2000
  140.0420   71.2320  221.1270 O   0  0  0  0  0  0  0  0  0  0  0  0
  139.8860   71.8310  222.2330 C   0  0  0  0  0  0  0  0  0  0  0  0
  139.7090   73.2570  222.2830 N   0  0  0  0  0  0  0  0  0  0  0  0
  139.7070   74.0450  221.0400 C   0  0  0  0  0  0  0  0  0  0  0  0
  140.6090   75.1950  221.1710 C   0  0  0  0  0  0  0  0  0  0  0  0
  140.7020   75.7210  222.3330 O   0  0  0  0  0  0  0  0  0  0  0  0
  141.3930   75.7940  220.1590 N   0  0  0  0  0  0  0  0  0  0  0  0
  141.2260   77.2560  219.9090 C   0  0  0  0  0  0  0  0  0  0  0  0
  142.2020   77.5610  218.8080 C   0  0  0  0  0  0  0  0  0  0  0  0
  143.2660   76.4910  218.9990 C   0  0  2  0  0  0  0  0  0  0  0  0
  144.0280   76.3220  217.8490 O   0  0  0  0  0  0  0  0  0  0  0  0
  142.3700   75.2700  219.2460 C   0  0  1  0  0  0  0  0  0  0  0  0
  143.1660   74.1050  219.7120 C   0  0  0  0  0  0  0  0  0  0  0  0
  144.5310   74.2860  219.6410 O   0  0  0  0  0  0  0  0  0  0  0  0
  139.8820   71.0780  223.4790 C   0  0  0  0  0  0  0  0  0  0  0  0
  139.3800   69.7990  223.5050 C   0  0  0  0  0  0  0  0  0  0  0  0
  139.3350   69.0110  224.6300 C   0  0  0  0  0  0  0  0  0  0  0  0
  139.8260   69.5460  225.7970 C   0  0  0  0  0  0  0  0  0  0  0  0
  139.7830   68.7640  226.9250 C   0  0  0  0  0  0  0  0  0  0  0  0
  140.2680   69.2720  228.1120 C   0  0  0  0  0  0  0  0  0  0  0  0
  140.2290   68.5010  229.2320 F   0  0  0  0  0  0  0  0  0  0  0  0
  140.7790   70.5570  228.1090 C   0  0  0  0  0  0  0  0  0  0  0  0
  140.8140   71.3300  226.9680 C   0  0  0  0  0  0  0  0  0  0  0  0
  140.3280   70.8280  225.7680 C   0  0  0  0  0  0  0  0  0  0  0  0
  140.3550   71.5690  224.6420 N   0  0  0  0  0  0  0  0  0  0  0  0
  139.5830   73.6960  223.2190 H   0  0  0  0  0  0  0  0  0  0  0  0
  140.0443   73.4111  220.2067 H   0  0  0  0  0  0  0  0  0  0  0  0
  138.6870   74.4076  220.8450 H   0  0  0  0  0  0  0  0  0  0  0  0
  140.1974   77.4814  219.5908 H   0  0  0  0  0  0  0  0  0  0  0  0
  141.4092   77.8590  220.8105 H   0  0  0  0  0  0  0  0  0  0  0  0
  141.7255   77.4748  217.8203 H   0  0  0  0  0  0  0  0  0  0  0  0
  142.6006   78.5854  218.8492 H   0  0  0  0  0  0  0  0  0  0  0  0
  144.0001   76.7045  219.7899 H   0  0  0  0  0  0  0  0  0  0  0  0
  144.7270   75.6280  217.9320 H   0  0  0  0  0  0  0  0  0  0  0  0
  141.8758   74.8464  218.3592 H   0  0  0  0  0  0  0  0  0  0  0  0
  142.8993   73.9024  220.7598 H   0  0  0  0  0  0  0  0  0  0  0  0
  142.9236   73.2686  219.0400 H   0  0  0  0  0  0  0  0  0  0  0  0
  144.8240   74.5090  218.7310 H   0  0  0  0  0  0  0  0  0  0  0  0
  138.9896   69.3795  222.5661 H   0  0  0  0  0  0  0  0  0  0  0  0
  138.9222   67.9919  224.5978 H   0  0  0  0  0  0  0  0  0  0  0  0
  139.3675   67.7464  226.8825 H   0  0  0  0  0  0  0  0  0  0  0  0
  141.1704   70.9761  229.0477 H   0  0  0  0  0  0  0  0  0  0  0  0
  141.2284   72.3482  227.0084 H   0  0  0  0  0  0  0  0  0  0  0  0
  1  2  2  0
  2  3  1  0
  3  4  1  0
  4  5  1  0
  5  6  2  0
  5  7  1  0
  7  8  1  0
  8  9  1  0
  9 10  1  0
 10 11  1  0
 10 12  1  0
 12 13  1  0
 13 14  1  0
  2 15  1  0
 15 16  2  0
 16 17  1  0
 17 18  2  0
 18 19  1  0
 19 20  2  0
 20 21  1  0
 20 22  1  0
 22 23  2  0
 23 24  1  0
 24 25  2  0
 12  7  1  0
 25 15  1  0
 24 18  1  0
  3 26  1  0
  4 27  1  0
  4 28  1  0
  8 29  1  0
  8 30  1  0
  9 31  1  0
  9 32  1  0
 10 33  1  1
 11 34  1  0
 12 35  1  6
 13 36  1  0
 13 37  1  0
 14 38  1  0
 16 39  1  0
 17 40  1  0
 19 41  1  0
 22 42  1  0
 23 43  1  0
M  END
>  <smiles>  (7) 
O=C(NCC(=O)N1CC[C@H](O)[C@H]1CO)c1ccc2cc(F)ccc2n1

>  <score_type>  (7) 
oracle

>  <origin>  (7) 
autodockgpu

>  <m_score__min__energy>  (7) 
-7.4800000000000004

>  <m_primary>  (7) 
energy

>  <rmsd>  (7) 
2.236159743344927

>  <m_score__min__rmsd>  (7) 
2.236159743344927

>  <meeko>  (7) 
{"free_energy": -6.66, "intermolecular_energy": -8.75, "internal_energy": -2.34, "cluster_size": 18, "cluster_id": 1, "rank_in_cluster": 8}

>  <energy>  (7) 
-6.69

>  <cluster_rmsd>  (7) 
1.55

>  <cluster>  (7) 
1

$$$$

     RDKit          3D

 43 45  0  0  0  0  0  0  0  0999 V2000
  141.6370   71.9230  221.0090 O   0  0  0  0  0  0  0  0  0  0  0  0
  141.0500   72.7820  221.7330 C   0  0  0  0  0  0  0  0  0  0  0  0
  140.2250   72.3780  222.8390 N   0  0  0  0  0  0  0  0  0  0  0  0
  140.0510   70.9490  223.1470 C   0  0  0  0  0  0  0  0  0  0  0  0
  139.4230   70.7910  224.4630 C   0  0  0  0  0  0  0  0  0  0  0  0
  138.1980   71.1500  224.5620 O   0  0  0  0  0  0  0  0  0  0  0  0
  140.0120   70.2870  225.6440 N   0  0  0  0  0  0  0  0  0  0  0  0
  140.3660   71.2530  226.7260 C   0  0  0  0  0  0  0  0  0  0  0  0
  140.9410   70.3970  227.8190 C   0  0  0  0  0  0  0  0  0  0  0  0
  140.2630   69.0560  227.5840 C   0  0  2  0  0  0  0  0  0  0  0  0
  140.9590   68.0220  228.2000 O   0  0  0  0  0  0  0  0  0  0  0  0
  140.3860   68.9630  226.0570 C   0  0  1  0  0  0  0  0  0  0  0  0
  139.5750   67.8400  225.5200 C   0  0  0  0  0  0  0  0  0  0  0  0
  139.0410   67.0130  226.4860 O   0  0  0  0  0  0  0  0  0  0  0  0
  141.2050   74.2020  221.4520 C   0  0  0  0  0  0  0  0  0  0  0  0
  142.0460   74.6140  220.4460 C   0  0  0  0  0  0  0  0  0  0  0  0
  142.2560   75.9300  220.1080 C   0  0  0  0  0  0  0  0  0  0  0  0
  141.5790   76.8850  220.8270 C   0  0  0  0  0  0  0  0  0  0  0  0
  141.7850   78.2000  220.4940 C   0  0  0  0  0  0  0  0  0  0  0  0
  141.1190   79.1820  221.1990 C   0  0  0  0  0  0  0  0  0  0  0  0
  141.3200   80.4870  220.8720 F   0  0  0  0  0  0  0  0  0  0  0  0
  140.2680   78.7910  222.2160 C   0  0  0  0  0  0  0  0  0  0  0  0
  140.0720   77.4640  222.5380 C   0  0  0  0  0  0  0  0  0  0  0  0
  140.7370   76.4690  221.8360 C   0  0  0  0  0  0  0  0  0  0  0  0
  140.5570   75.1660  222.1370 N   0  0  0  0  0  0  0  0  0  0  0  0
  139.7680   73.1260  223.4000 H   0  0  0  0  0  0  0  0  0  0  0  0
  139.4115   70.4867  222.3806 H   0  0  0  0  0  0  0  0  0  0  0  0
  141.0361   70.4597  223.1566 H   0  0  0  0  0  0  0  0  0  0  0  0
  141.1099   71.9808  226.3697 H   0  0  0  0  0  0  0  0  0  0  0  0
  139.4988   71.8387  227.0649 H   0  0  0  0  0  0  0  0  0  0  0  0
  142.0334   70.3115  227.7229 H   0  0  0  0  0  0  0  0  0  0  0  0
  140.7697   70.8024  228.8271 H   0  0  0  0  0  0  0  0  0  0  0  0
  139.2397   68.9788  227.9801 H   0  0  0  0  0  0  0  0  0  0  0  0
  140.6160   67.1220  227.9750 H   0  0  0  0  0  0  0  0  0  0  0  0
  141.3829   68.7084  225.6679 H   0  0  0  0  0  0  0  0  0  0  0  0
  138.7468   68.2632  224.9326 H   0  0  0  0  0  0  0  0  0  0  0  0
  140.2548   67.2210  224.9161 H   0  0  0  0  0  0  0  0  0  0  0  0
  139.7360   66.6290  227.0640 H   0  0  0  0  0  0  0  0  0  0  0  0
  142.5846   73.8428  219.8758 H   0  0  0  0  0  0  0  0  0  0  0  0
  142.9402   76.2077  219.2927 H   0  0  0  0  0  0  0  0  0  0  0  0
  142.4711   78.4677  219.6769 H   0  0  0  0  0  0  0  0  0  0  0  0
  139.7301   79.5625  222.7865 H   0  0  0  0  0  0  0  0  0  0  0  0
  139.3860   77.1937  223.3543 H   0  0  0  0  0  0  0  0  0  0  0  0
  1  2  2  0
  2  3  1  0
  3  4  1  0
  4  5  1  0
  5  6  2  0
  5  7  1  0
  7  8  1  0
  8  9  1  0
  9 10  1  0
 10 11  1  0
 10 12  1  0
 12 13  1  0
 13 14  1  0
  2 15  1  0
 15 16  2  0
 16 17  1  0
 17 18  2  0
 18 19  1  0
 19 20  2  0
 20 21  1  0
 20 22  1  0
 22 23  2  0
 23 24  1  0
 24 25  2  0
 12  7  1  0
 25 15  1  0
 24 18  1  0
  3 26  1  0
  4 27  1  0
  4 28  1  0
  8 29  1  0
  8 30  1  0
  9 31  1  0
  9 32  1  0
 10 33  1  6
 11 34  1  0
 12 35  1  1
 13 36  1  0
 13 37  1  0
 14 38  1  0
 16 39  1  0
 17 40  1  0
 19 41  1  0
 22 42  1  0
 23 43  1  0
M  END
>  <smiles>  (8) 
O=C(NCC(=O)N1CC[C@H](O)[C@H]1CO)c1ccc2cc(F)ccc2n1

>  <score_type>  (8) 
oracle

>  <origin>  (8) 
autodockgpu

>  <m_score__min__energy>  (8) 
-7.4800000000000004

>  <m_primary>  (8) 
energy

>  <rmsd>  (8) 
9.275187819428387

>  <m_score__min__rmsd>  (8) 
9.275187819428387

>  <meeko>  (8) 
{"free_energy": -7.21, "intermolecular_energy": -9.29, "internal_energy": -2.19, "cluster_size": 16, "cluster_id": 2, "rank_in_cluster": 3}

>  <energy>  (8) 
-6.66

>  <cluster_rmsd>  (8) 
1.89

>  <cluster>  (8) 
1

$$$$

     RDKit          3D

 43 45  0  0  0  0  0  0  0  0999 V2000
  141.6580   72.1320  221.0300 O   0  0  0  0  0  0  0  0  0  0  0  0
  140.9990   72.9740  221.7100 C   0  0  0  0  0  0  0  0  0  0  0  0
  140.1010   72.5460  222.7480 N   0  0  0  0  0  0  0  0  0  0  0  0
  139.9340   71.1120  223.0360 C   0  0  0  0  0  0  0  0  0  0  0  0
  139.3290   70.9310  224.3600 C   0  0  0  0  0  0  0  0  0  0  0  0
  138.0990   71.2600  224.4790 O   0  0  0  0  0  0  0  0  0  0  0  0
  139.9480   70.4340  225.5300 N   0  0  0  0  0  0  0  0  0  0  0  0
  140.4900   71.4160  226.5150 C   0  0  0  0  0  0  0  0  0  0  0  0
  141.0480   70.5670  227.6210 C   0  0  0  0  0  0  0  0  0  0  0  0
  140.2080   69.3020  227.5270 C   0  0  2  0  0  0  0  0  0  0  0  0
  140.8290   68.2330  228.1630 O   0  0  0  0  0  0  0  0  0  0  0  0
  140.2020   69.1020  226.0060 C   0  0  1  0  0  0  0  0  0  0  0  0
  139.2310   68.0510  225.6050 C   0  0  0  0  0  0  0  0  0  0  0  0
  139.1370   67.0000  226.4920 O   0  0  0  0  0  0  0  0  0  0  0  0
  141.1440   74.3990  221.4490 C   0  0  0  0  0  0  0  0  0  0  0  0
  141.9220   74.8270  220.4000 C   0  0  0  0  0  0  0  0  0  0  0  0
  142.1170   76.1480  220.0750 C   0  0  0  0  0  0  0  0  0  0  0  0
  141.4920   77.0920  220.8540 C   0  0  0  0  0  0  0  0  0  0  0  0
  141.6840   78.4130  220.5350 C   0  0  0  0  0  0  0  0  0  0  0  0
  141.0700   79.3830  221.2990 C   0  0  0  0  0  0  0  0  0  0  0  0
  141.2570   80.6940  220.9850 F   0  0  0  0  0  0  0  0  0  0  0  0
  140.2820   78.9750  222.3590 C   0  0  0  0  0  0  0  0  0  0  0  0
  140.0990   77.6430  222.6670 C   0  0  0  0  0  0  0  0  0  0  0  0
  140.7130   76.6590  221.9060 C   0  0  0  0  0  0  0  0  0  0  0  0
  140.5450   75.3520  222.1920 N   0  0  0  0  0  0  0  0  0  0  0  0
  139.5860   73.2810  223.2760 H   0  0  0  0  0  0  0  0  0  0  0  0
  139.2820   70.6612  222.2733 H   0  0  0  0  0  0  0  0  0  0  0  0
  140.9200   70.6245  223.0209 H   0  0  0  0  0  0  0  0  0  0  0  0
  141.2808   72.0292  226.0583 H   0  0  0  0  0  0  0  0  0  0  0  0
  139.7225   72.1184  226.8723 H   0  0  0  0  0  0  0  0  0  0  0  0
  142.1133   70.3491  227.4550 H   0  0  0  0  0  0  0  0  0  0  0  0
  141.0014   71.0499  228.6083 H   0  0  0  0  0  0  0  0  0  0  0  0
  139.2161   69.3696  227.9978 H   0  0  0  0  0  0  0  0  0  0  0  0
  140.3080   67.3930  228.1310 H   0  0  0  0  0  0  0  0  0  0  0  0
  141.1308   68.7086  225.5672 H   0  0  0  0  0  0  0  0  0  0  0  0
  138.2380   68.5154  225.5141 H   0  0  0  0  0  0  0  0  0  0  0  0
  139.5940   67.6313  224.6552 H   0  0  0  0  0  0  0  0  0  0  0  0
  140.0150   66.7350  226.8410 H   0  0  0  0  0  0  0  0  0  0  0  0
  142.4195   74.0649  219.7822 H   0  0  0  0  0  0  0  0  0  0  0  0
  142.7496   76.4388  219.2234 H   0  0  0  0  0  0  0  0  0  0  0  0
  142.3188   78.6941  219.6818 H   0  0  0  0  0  0  0  0  0  0  0  0
  139.7848   79.7373  222.9768 H   0  0  0  0  0  0  0  0  0  0  0  0
  139.4638   77.3600  223.5193 H   0  0  0  0  0  0  0  0  0  0  0  0
  1  2  2  0
  2  3  1  0
  3  4  1  0
  4  5  1  0
  5  6  2  0
  5  7  1  0
  7  8  1  0
  8  9  1  0
  9 10  1  0
 10 11  1  0
 10 12  1  0
 12 13  1  0
 13 14  1  0
  2 15  1  0
 15 16  2  0
 16 17  1  0
 17 18  2  0
 18 19  1  0
 19 20  2  0
 20 21  1  0
 20 22  1  0
 22 23  2  0
 23 24  1  0
 24 25  2  0
 12  7  1  0
 25 15  1  0
 24 18  1  0
  3 26  1  0
  4 27  1  0
  4 28  1  0
  8 29  1  0
  8 30  1  0
  9 31  1  0
  9 32  1  0
 10 33  1  1
 11 34  1  0
 12 35  1  6
 13 36  1  0
 13 37  1  0
 14 38  1  0
 16 39  1  0
 17 40  1  0
 19 41  1  0
 22 42  1  0
 23 43  1  0
M  END
>  <smiles>  (9) 
O=C(NCC(=O)N1CC[C@H](O)[C@H]1CO)c1ccc2cc(F)ccc2n1

>  <score_type>  (9) 
oracle

>  <origin>  (9) 
autodockgpu

>  <m_score__min__energy>  (9) 
-7.4800000000000004

>  <m_primary>  (9) 
energy

>  <rmsd>  (9) 
9.24765115792588

>  <m_score__min__rmsd>  (9) 
9.24765115792588

>  <meeko>  (9) 
{"free_energy": -7.11, "intermolecular_energy": -9.2, "internal_energy": -2.26, "cluster_size": 16, "cluster_id": 2, "rank_in_cluster": 11}

>  <energy>  (9) 
-6.66

>  <cluster_rmsd>  (9) 
1.87

>  <cluster>  (9) 
1

$$$$

     RDKit          3D

 43 45  0  0  0  0  0  0  0  0999 V2000
  141.7000   71.9760  220.9500 O   0  0  0  0  0  0  0  0  0  0  0  0
  141.1410   72.8580  221.6680 C   0  0  0  0  0  0  0  0  0  0  0  0
  140.3590   72.4900  222.8170 N   0  0  0  0  0  0  0  0  0  0  0  0
  140.1970   71.0730  223.1770 C   0  0  0  0  0  0  0  0  0  0  0  0
  139.5620   70.9570  224.4940 C   0  0  0  0  0  0  0  0  0  0  0  0
  138.3690   71.4070  224.5970 O   0  0  0  0  0  0  0  0  0  0  0  0
  140.1150   70.4050  225.6720 N   0  0  0  0  0  0  0  0  0  0  0  0
  140.5140   71.3350  226.7690 C   0  0  0  0  0  0  0  0  0  0  0  0
  141.0330   70.4340  227.8540 C   0  0  0  0  0  0  0  0  0  0  0  0
  140.2840   69.1350  227.5950 C   0  0  2  0  0  0  0  0  0  0  0  0
  140.9180   68.0560  228.2010 O   0  0  0  0  0  0  0  0  0  0  0  0
  140.4130   69.0560  226.0680 C   0  0  1  0  0  0  0  0  0  0  0  0
  139.5450   67.9870  225.5100 C   0  0  0  0  0  0  0  0  0  0  0  0
  139.1840   67.0170  226.4210 O   0  0  0  0  0  0  0  0  0  0  0  0
  141.2850   74.2690  221.3370 C   0  0  0  0  0  0  0  0  0  0  0  0
  142.0340   74.6440  220.2480 C   0  0  0  0  0  0  0  0  0  0  0  0
  142.2260   75.9480  219.8570 C   0  0  0  0  0  0  0  0  0  0  0  0
  141.6270   76.9300  220.6090 C   0  0  0  0  0  0  0  0  0  0  0  0
  141.8160   78.2330  220.2240 C   0  0  0  0  0  0  0  0  0  0  0  0
  141.2280   79.2410  220.9590 C   0  0  0  0  0  0  0  0  0  0  0  0
  141.4110   80.5350  220.5810 F   0  0  0  0  0  0  0  0  0  0  0  0
  140.4690   78.8870  222.0590 C   0  0  0  0  0  0  0  0  0  0  0  0
  140.2890   77.5720  222.4340 C   0  0  0  0  0  0  0  0  0  0  0  0
  140.8770   76.5500  221.7010 C   0  0  0  0  0  0  0  0  0  0  0  0
  140.7120   75.2590  222.0520 N   0  0  0  0  0  0  0  0  0  0  0  0
  139.9240   73.2570  223.3710 H   0  0  0  0  0  0  0  0  0  0  0  0
  139.5672   70.5761  222.4244 H   0  0  0  0  0  0  0  0  0  0  0  0
  141.1870   70.5948  223.2113 H   0  0  0  0  0  0  0  0  0  0  0  0
  141.2995   72.0252  226.4275 H   0  0  0  0  0  0  0  0  0  0  0  0
  139.6780   71.9632  227.1104 H   0  0  0  0  0  0  0  0  0  0  0  0
  142.1199   70.2901  227.7643 H   0  0  0  0  0  0  0  0  0  0  0  0
  140.8765   70.8343  228.8666 H   0  0  0  0  0  0  0  0  0  0  0  0
  139.2550   69.1089  227.9829 H   0  0  0  0  0  0  0  0  0  0  0  0
  140.3800   67.2260  228.1990 H   0  0  0  0  0  0  0  0  0  0  0  0
  141.3969   68.7519  225.6814 H   0  0  0  0  0  0  0  0  0  0  0  0
  138.6277   68.4548  225.1230 H   0  0  0  0  0  0  0  0  0  0  0  0
  140.1301   67.4823  224.7271 H   0  0  0  0  0  0  0  0  0  0  0  0
  139.9640   66.6400  226.8820 H   0  0  0  0  0  0  0  0  0  0  0  0
  142.5097   73.8515  219.6517 H   0  0  0  0  0  0  0  0  0  0  0  0
  142.8359   76.1959  218.9757 H   0  0  0  0  0  0  0  0  0  0  0  0
  142.4280   78.4706  219.3414 H   0  0  0  0  0  0  0  0  0  0  0  0
  139.9931   79.6800  222.6546 H   0  0  0  0  0  0  0  0  0  0  0  0
  139.6777   77.3322  223.3165 H   0  0  0  0  0  0  0  0  0  0  0  0
  1  2  2  0
  2  3  1  0
  3  4  1  0
  4  5  1  0
  5  6  2  0
  5  7  1  0
  7  8  1  0
  8  9  1  0
  9 10  1  0
 10 11  1  0
 10 12  1  0
 12 13  1  0
 13 14  1  0
  2 15  1  0
 15 16  2  0
 16 17  1  0
 17 18  2  0
 18 19  1  0
 19 20  2  0
 20 21  1  0
 20 22  1  0
 22 23  2  0
 23 24  1  0
 24 25  2  0
 12  7  1  0
 25 15  1  0
 24 18  1  0
  3 26  1  0
  4 27  1  0
  4 28  1  0
  8 29  1  0
  8 30  1  0
  9 31  1  0
  9 32  1  0
 10 33  1  6
 11 34  1  0
 12 35  1  1
 13 36  1  0
 13 37  1  0
 14 38  1  0
 16 39  1  0
 17 40  1  0
 19 41  1  0
 22 42  1  0
 23 43  1  0
M  END
>  <smiles>  (10) 
O=C(NCC(=O)N1CC[C@H](O)[C@H]1CO)c1ccc2cc(F)ccc2n1

>  <score_type>  (10) 
oracle

>  <origin>  (10) 
autodockgpu

>  <m_score__min__energy>  (10) 
-7.4800000000000004

>  <m_primary>  (10) 
energy

>  <rmsd>  (10) 
9.323632773702029

>  <m_score__min__rmsd>  (10) 
9.323632773702029

>  <meeko>  (10) 
{"free_energy": -7.12, "intermolecular_energy": -9.21, "internal_energy": -2.28, "cluster_size": 16, "cluster_id": 2, "rank_in_cluster": 10}

>  <energy>  (10) 
-6.6

>  <cluster_rmsd>  (10) 
1.97

>  <cluster>  (10) 
1

$$$$

     RDKit          3D

 43 45  0  0  0  0  0  0  0  0999 V2000
  141.0040   72.9940  222.3180 O   0  0  0  0  0  0  0  0  0  0  0  0
  139.9400   72.5560  222.8480 C   0  0  0  0  0  0  0  0  0  0  0  0
  138.6510   73.0100  222.4030 N   0  0  0  0  0  0  0  0  0  0  0  0
  138.5500   73.9980  221.3160 C   0  0  0  0  0  0  0  0  0  0  0  0
  138.3200   75.3360  221.8720 C   0  0  0  0  0  0  0  0  0  0  0  0
  137.2040   75.5260  222.4680 O   0  0  0  0  0  0  0  0  0  0  0  0
  139.1900   76.4490  221.8280 N   0  0  0  0  0  0  0  0  0  0  0  0
  138.8840   77.6220  222.6990 C   0  0  0  0  0  0  0  0  0  0  0  0
  139.9960   78.5940  222.4230 C   0  0  0  0  0  0  0  0  0  0  0  0
  141.1370   77.6830  221.9960 C   0  0  2  0  0  0  0  0  0  0  0  0
  142.1100   78.3850  221.2940 O   0  0  0  0  0  0  0  0  0  0  0  0
  140.3770   76.7270  221.0670 C   0  0  1  0  0  0  0  0  0  0  0  0
  141.2190   75.5620  220.6900 C   0  0  0  0  0  0  0  0  0  0  0  0
  142.5430   75.8700  220.4630 O   0  0  0  0  0  0  0  0  0  0  0  0
  140.0090   71.5770  223.9240 C   0  0  0  0  0  0  0  0  0  0  0  0
  139.5650   70.2940  223.7110 C   0  0  0  0  0  0  0  0  0  0  0  0
  139.5910   69.3030  224.6640 C   0  0  0  0  0  0  0  0  0  0  0  0
  140.0920   69.6270  225.9020 C   0  0  0  0  0  0  0  0  0  0  0  0
  140.1190   68.6410  226.8570 C   0  0  0  0  0  0  0  0  0  0  0  0
  140.6160   68.9350  228.1090 C   0  0  0  0  0  0  0  0  0  0  0  0
  140.6460   67.9620  229.0590 F   0  0  0  0  0  0  0  0  0  0  0  0
  141.0680   70.2210  228.3450 C   0  0  0  0  0  0  0  0  0  0  0  0
  141.0340   71.2000  227.3750 C   0  0  0  0  0  0  0  0  0  0  0  0
  140.5350   70.9140  226.1110 C   0  0  0  0  0  0  0  0  0  0  0  0
  140.4940   71.8590  225.1500 N   0  0  0  0  0  0  0  0  0  0  0  0
  137.8100   72.6150  222.8730 H   0  0  0  0  0  0  0  0  0  0  0  0
  139.4858   74.0000  220.7378 H   0  0  0  0  0  0  0  0  0  0  0  0
  137.7072   73.7296  220.6621 H   0  0  0  0  0  0  0  0  0  0  0  0
  137.9101   78.0596  222.4343 H   0  0  0  0  0  0  0  0  0  0  0  0
  138.8209   77.3487  223.7627 H   0  0  0  0  0  0  0  0  0  0  0  0
  139.7225   79.2916  221.6176 H   0  0  0  0  0  0  0  0  0  0  0  0
  140.2442   79.2302  223.2854 H   0  0  0  0  0  0  0  0  0  0  0  0
  141.6808   77.2036  222.8233 H   0  0  0  0  0  0  0  0  0  0  0  0
  142.9530   77.8820  221.1710 H   0  0  0  0  0  0  0  0  0  0  0  0
  140.1118   77.1253  220.0765 H   0  0  0  0  0  0  0  0  0  0  0  0
  141.1715   74.8244  221.5047 H   0  0  0  0  0  0  0  0  0  0  0  0
  140.8176   75.1766  219.7411 H   0  0  0  0  0  0  0  0  0  0  0  0
  142.9220   76.4140  221.1870 H   0  0  0  0  0  0  0  0  0  0  0  0
  139.1643   70.0445  222.7174 H   0  0  0  0  0  0  0  0  0  0  0  0
  139.2247   68.2894  224.4438 H   0  0  0  0  0  0  0  0  0  0  0  0
  139.7494   67.6309  226.6266 H   0  0  0  0  0  0  0  0  0  0  0  0
  141.4675   70.4705  229.3390 H   0  0  0  0  0  0  0  0  0  0  0  0
  141.4033   72.2108  227.6029 H   0  0  0  0  0  0  0  0  0  0  0  0
  1  2  2  0
  2  3  1  0
  3  4  1  0
  4  5  1  0
  5  6  2  0
  5  7  1  0
  7  8  1  0
  8  9  1  0
  9 10  1  0
 10 11  1  0
 10 12  1  0
 12 13  1  0
 13 14  1  0
  2 15  1  0
 15 16  2  0
 16 17  1  0
 17 18  2  0
 18 19  1  0
 19 20  2  0
 20 21  1  0
 20 22  1  0
 22 23  2  0
 23 24  1  0
 24 25  2  0
 12  7  1  0
 25 15  1  0
 24 18  1  0
  3 26  1  0
  4 27  1  0
  4 28  1  0
  8 29  1  0
  8 30  1  0
  9 31  1  0
  9 32  1  0
 10 33  1  1
 11 34  1  0
 12 35  1  6
 13 36  1  0
 13 37  1  0
 14 38  1  0
 16 39  1  0
 17 40  1  0
 19 41  1  0
 22 42  1  0
 23 43  1  0
M  END
>  <smiles>  (11) 
O=C(NCC(=O)N1CC[C@H](O)[C@H]1CO)c1ccc2cc(F)ccc2n1

>  <score_type>  (11) 
oracle

>  <origin>  (11) 
autodockgpu

>  <m_score__min__energy>  (11) 
-7.4800000000000004

>  <m_primary>  (11) 
energy

>  <rmsd>  (11) 
3.0436864563536288

>  <m_score__min__rmsd>  (11) 
3.0436864563536288

>  <meeko>  (11) 
{"free_energy": -6.81, "intermolecular_energy": -8.9, "internal_energy": -2.0, "cluster_size": 12, "cluster_id": 4, "rank_in_cluster": 1}

>  <energy>  (11) 
-6.55

>  <cluster_rmsd>  (11) 
1.12

>  <cluster>  (11) 
1

$$$$

     RDKit          3D

 43 45  0  0  0  0  0  0  0  0999 V2000
  139.5710   70.8840  221.2230 O   0  0  0  0  0  0  0  0  0  0  0  0
  139.7130   71.5180  222.3110 C   0  0  0  0  0  0  0  0  0  0  0  0
  139.8330   72.9510  222.3210 N   0  0  0  0  0  0  0  0  0  0  0  0
  139.7910   73.7050  221.0580 C   0  0  0  0  0  0  0  0  0  0  0  0
  140.5910   74.9290  221.1750 C   0  0  0  0  0  0  0  0  0  0  0  0
  140.6940   75.4370  222.3450 O   0  0  0  0  0  0  0  0  0  0  0  0
  141.2670   75.6190  220.1430 N   0  0  0  0  0  0  0  0  0  0  0  0
  140.9020   77.0440  219.8890 C   0  0  0  0  0  0  0  0  0  0  0  0
  141.8040   77.4670  218.7650 C   0  0  0  0  0  0  0  0  0  0  0  0
  143.0050   76.5490  218.9380 C   0  0  2  0  0  0  0  0  0  0  0  0
  143.7570   76.4730  217.7710 O   0  0  0  0  0  0  0  0  0  0  0  0
  142.2850   75.2220  219.2100 C   0  0  1  0  0  0  0  0  0  0  0  0
  143.2380   74.1760  219.6650 C   0  0  0  0  0  0  0  0  0  0  0  0
  144.3370   74.0180  218.8470 O   0  0  0  0  0  0  0  0  0  0  0  0
  139.7570   70.7990  223.5760 C   0  0  0  0  0  0  0  0  0  0  0  0
  139.2620   69.5190  223.6540 C   0  0  0  0  0  0  0  0  0  0  0  0
  139.2610   68.7630  224.8020 C   0  0  0  0  0  0  0  0  0  0  0  0
  139.7890   69.3310  225.9360 C   0  0  0  0  0  0  0  0  0  0  0  0
  139.7900   68.5800  227.0850 C   0  0  0  0  0  0  0  0  0  0  0  0
  140.3140   69.1230  228.2390 C   0  0  0  0  0  0  0  0  0  0  0  0
  140.3170   68.3820  229.3810 F   0  0  0  0  0  0  0  0  0  0  0  0
  140.8180   70.4090  228.1840 C   0  0  0  0  0  0  0  0  0  0  0  0
  140.8100   71.1510  227.0210 C   0  0  0  0  0  0  0  0  0  0  0  0
  140.2840   70.6140  225.8540 C   0  0  0  0  0  0  0  0  0  0  0  0
  140.2680   71.3240  224.7080 N   0  0  0  0  0  0  0  0  0  0  0  0
  139.9470   73.4200  223.2440 H   0  0  0  0  0  0  0  0  0  0  0  0
  140.1969   73.0811  220.2481 H   0  0  0  0  0  0  0  0  0  0  0  0
  138.7485   73.9761  220.8349 H   0  0  0  0  0  0  0  0  0  0  0  0
  139.8459   77.1283  219.5932 H   0  0  0  0  0  0  0  0  0  0  0  0
  141.0234   77.6733  220.7830 H   0  0  0  0  0  0  0  0  0  0  0  0
  141.3219   77.3101  217.7888 H   0  0  0  0  0  0  0  0  0  0  0  0
  142.0634   78.5356  218.7914 H   0  0  0  0  0  0  0  0  0  0  0  0
  143.7207   76.8644  219.7115 H   0  0  0  0  0  0  0  0  0  0  0  0
  144.5760   75.9260  217.8600 H   0  0  0  0  0  0  0  0  0  0  0  0
  141.8334   74.7303  218.3358 H   0  0  0  0  0  0  0  0  0  0  0  0
  143.5925   74.4463  220.6706 H   0  0  0  0  0  0  0  0  0  0  0  0
  142.6915   73.2215  219.6479 H   0  0  0  0  0  0  0  0  0  0  0  0
  144.8340   74.8570  218.7340 H   0  0  0  0  0  0  0  0  0  0  0  0
  138.8407   69.0721  222.7414 H   0  0  0  0  0  0  0  0  0  0  0  0
  138.8528   67.7416  224.8123 H   0  0  0  0  0  0  0  0  0  0  0  0
  139.3787   67.5598  227.0851 H   0  0  0  0  0  0  0  0  0  0  0  0
  141.2390   70.8551  229.0971 H   0  0  0  0  0  0  0  0  0  0  0  0
  141.2216   72.1711  227.0184 H   0  0  0  0  0  0  0  0  0  0  0  0
  1  2  2  0
  2  3  1  0
  3  4  1  0
  4  5  1  0
  5  6  2  0
  5  7  1  0
  7  8  1  0
  8  9  1  0
  9 10  1  0
 10 11  1  0
 10 12  1  0
 12 13  1  0
 13 14  1  0
  2 15  1  0
 15 16  2  0
 16 17  1  0
 17 18  2  0
 18 19  1  0
 19 20  2  0
 20 21  1  0
 20 22  1  0
 22 23  2  0
 23 24  1  0
 24 25  2  0
 12  7  1  0
 25 15  1  0
 24 18  1  0
  3 26  1  0
  4 27  1  0
  4 28  1  0
  8 29  1  0
  8 30  1  0
  9 31  1  0
  9 32  1  0
 10 33  1  1
 11 34  1  0
 12 35  1  6
 13 36  1  0
 13 37  1  0
 14 38  1  0
 16 39  1  0
 17 40  1  0
 19 41  1  0
 22 42  1  0
 23 43  1  0
M  END
>  <smiles>  (12) 
O=C(NCC(=O)N1CC[C@H](O)[C@H]1CO)c1ccc2cc(F)ccc2n1

>  <score_type>  (12) 
oracle

>  <origin>  (12) 
autodockgpu

>  <m_score__min__energy>  (12) 
-7.4800000000000004

>  <m_primary>  (12) 
energy

>  <rmsd>  (12) 
2.1460442340405113

>  <m_score__min__rmsd>  (12) 
2.1460442340405113

>  <meeko>  (12) 
{"free_energy": -6.39, "intermolecular_energy": -8.48, "internal_energy": -2.52, "cluster_size": 18, "cluster_id": 1, "rank_in_cluster": 16}

>  <energy>  (12) 
-6.53

>  <cluster_rmsd>  (12) 
1.06

>  <cluster>  (12) 
1

$$$$

     RDKit          3D

 43 45  0  0  0  0  0  0  0  0999 V2000
  141.2720   72.0610  221.5670 O   0  0  0  0  0  0  0  0  0  0  0  0
  140.3600   72.3290  222.4050 C   0  0  0  0  0  0  0  0  0  0  0  0
  139.4570   73.4270  222.1900 N   0  0  0  0  0  0  0  0  0  0  0  0
  139.5820   74.2600  220.9820 C   0  0  0  0  0  0  0  0  0  0  0  0
  140.7130   75.1830  221.1220 C   0  0  0  0  0  0  0  0  0  0  0  0
  141.0670   75.4800  222.3150 O   0  0  0  0  0  0  0  0  0  0  0  0
  141.4630   75.7890  220.0890 N   0  0  0  0  0  0  0  0  0  0  0  0
  141.3240   77.2610  219.8840 C   0  0  0  0  0  0  0  0  0  0  0  0
  142.2540   77.5700  218.7450 C   0  0  0  0  0  0  0  0  0  0  0  0
  143.2970   76.4680  218.8570 C   0  0  2  0  0  0  0  0  0  0  0  0
  143.9970   76.3100  217.6670 O   0  0  0  0  0  0  0  0  0  0  0  0
  142.3810   75.2650  219.1160 C   0  0  1  0  0  0  0  0  0  0  0  0
  143.1660   74.0670  219.5130 C   0  0  0  0  0  0  0  0  0  0  0  0
  144.3700   73.9350  218.8540 O   0  0  0  0  0  0  0  0  0  0  0  0
  140.2120   71.5220  223.6080 C   0  0  0  0  0  0  0  0  0  0  0  0
  139.5730   70.3070  223.5440 C   0  0  0  0  0  0  0  0  0  0  0  0
  139.3870   69.4770  224.6230 C   0  0  0  0  0  0  0  0  0  0  0  0
  139.8730   69.8980  225.8380 C   0  0  0  0  0  0  0  0  0  0  0  0
  139.6890   69.0730  226.9190 C   0  0  0  0  0  0  0  0  0  0  0  0
  140.1660   69.4680  228.1520 C   0  0  0  0  0  0  0  0  0  0  0  0
  139.9870   68.6530  229.2270 F   0  0  0  0  0  0  0  0  0  0  0  0
  140.8130   70.6870  228.2400 C   0  0  0  0  0  0  0  0  0  0  0  0
  140.9890   71.5040  227.1440 C   0  0  0  0  0  0  0  0  0  0  0  0
  140.5130   71.1170  225.8990 C   0  0  0  0  0  0  0  0  0  0  0  0
  140.6760   71.9030  224.8160 N   0  0  0  0  0  0  0  0  0  0  0  0
  138.7260   73.6010  222.9110 H   0  0  0  0  0  0  0  0  0  0  0  0
  139.7470   73.6120  220.1085 H   0  0  0  0  0  0  0  0  0  0  0  0
  138.6575   74.8407  220.8475 H   0  0  0  0  0  0  0  0  0  0  0  0
  140.2879   77.5212  219.6219 H   0  0  0  0  0  0  0  0  0  0  0  0
  141.5666   77.8350  220.7905 H   0  0  0  0  0  0  0  0  0  0  0  0
  141.7286   77.5224  217.7797 H   0  0  0  0  0  0  0  0  0  0  0  0
  142.6815   78.5824  218.7927 H   0  0  0  0  0  0  0  0  0  0  0  0
  144.0739   76.6412  219.6162 H   0  0  0  0  0  0  0  0  0  0  0  0
  144.7790   75.7090  217.7410 H   0  0  0  0  0  0  0  0  0  0  0  0
  141.8338   74.8791  218.2433 H   0  0  0  0  0  0  0  0  0  0  0  0
  143.3688   74.1299  220.5923 H   0  0  0  0  0  0  0  0  0  0  0  0
  142.5605   73.1892  219.2429 H   0  0  0  0  0  0  0  0  0  0  0  0
  144.8920   74.7650  218.8760 H   0  0  0  0  0  0  0  0  0  0  0  0
  139.1863   69.9785  222.5680 H   0  0  0  0  0  0  0  0  0  0  0  0
  138.8689   68.5123  224.5186 H   0  0  0  0  0  0  0  0  0  0  0  0
  139.1687   68.1106  226.8042 H   0  0  0  0  0  0  0  0  0  0  0  0
  141.1996   71.0152  229.2161 H   0  0  0  0  0  0  0  0  0  0  0  0
  141.5089   72.4668  227.2565 H   0  0  0  0  0  0  0  0  0  0  0  0
  1  2  2  0
  2  3  1  0
  3  4  1  0
  4  5  1  0
  5  6  2  0
  5  7  1  0
  7  8  1  0
  8  9  1  0
  9 10  1  0
 10 11  1  0
 10 12  1  0
 12 13  1  0
 13 14  1  0
  2 15  1  0
 15 16  2  0
 16 17  1  0
 17 18  2  0
 18 19  1  0
 19 20  2  0
 20 21  1  0
 20 22  1  0
 22 23  2  0
 23 24  1  0
 24 25  2  0
 12  7  1  0
 25 15  1  0
 24 18  1  0
  3 26  1  0
  4 27  1  0
  4 28  1  0
  8 29  1  0
  8 30  1  0
  9 31  1  0
  9 32  1  0
 10 33  1  1
 11 34  1  0
 12 35  1  6
 13 36  1  0
 13 37  1  0
 14 38  1  0
 16 39  1  0
 17 40  1  0
 19 41  1  0
 22 42  1  0
 23 43  1  0
M  END
>  <smiles>  (13) 
O=C(NCC(=O)N1CC[C@H](O)[C@H]1CO)c1ccc2cc(F)ccc2n1

>  <score_type>  (13) 
oracle

>  <origin>  (13) 
autodockgpu

>  <m_score__min__energy>  (13) 
-7.4800000000000004

>  <m_primary>  (13) 
energy

>  <rmsd>  (13) 
2.3281685093958564

>  <m_score__min__rmsd>  (13) 
2.3281685093958564

>  <meeko>  (13) 
{"free_energy": -6.83, "intermolecular_energy": -8.92, "internal_energy": -2.07, "cluster_size": 18, "cluster_id": 1, "rank_in_cluster": 5}

>  <energy>  (13) 
-6.53

>  <cluster_rmsd>  (13) 
1.88

>  <cluster>  (13) 
1

$$$$

     RDKit          3D

 43 45  0  0  0  0  0  0  0  0999 V2000
  139.4850   70.6590  221.4790 O   0  0  0  0  0  0  0  0  0  0  0  0
  139.9090   71.2010  222.5430 C   0  0  0  0  0  0  0  0  0  0  0  0
  140.3930   72.5550  222.5420 N   0  0  0  0  0  0  0  0  0  0  0  0
  140.4020   73.3350  221.2940 C   0  0  0  0  0  0  0  0  0  0  0  0
  141.6710   74.0590  221.1620 C   0  0  0  0  0  0  0  0  0  0  0  0
  141.6790   75.2790  221.5480 O   0  0  0  0  0  0  0  0  0  0  0  0
  142.8950   73.5670  220.6550 N   0  0  0  0  0  0  0  0  0  0  0  0
  143.1740   72.1050  220.7750 C   0  0  0  0  0  0  0  0  0  0  0  0
  144.5190   71.9260  220.1320 C   0  0  0  0  0  0  0  0  0  0  0  0
  144.5720   73.0790  219.1410 C   0  0  2  0  0  0  0  0  0  0  0  0
  145.8780   73.3560  218.7540 O   0  0  0  0  0  0  0  0  0  0  0  0
  144.0140   74.2070  220.0200 C   0  0  1  0  0  0  0  0  0  0  0  0
  143.7220   75.4210  219.2150 C   0  0  0  0  0  0  0  0  0  0  0  0
  143.4250   76.5400  219.9640 O   0  0  0  0  0  0  0  0  0  0  0  0
  139.9110   70.4540  223.7930 C   0  0  0  0  0  0  0  0  0  0  0  0
  139.2880   69.2310  223.8610 C   0  0  0  0  0  0  0  0  0  0  0  0
  139.2380   68.4540  224.9940 C   0  0  0  0  0  0  0  0  0  0  0  0
  139.8510   68.9400  226.1230 C   0  0  0  0  0  0  0  0  0  0  0  0
  139.8040   68.1690  227.2580 C   0  0  0  0  0  0  0  0  0  0  0  0
  140.4110   68.6300  228.4070 C   0  0  0  0  0  0  0  0  0  0  0  0
  140.3670   67.8680  229.5340 F   0  0  0  0  0  0  0  0  0  0  0  0
  141.0440   69.8590  228.3620 C   0  0  0  0  0  0  0  0  0  0  0  0
  141.0820   70.6220  227.2140 C   0  0  0  0  0  0  0  0  0  0  0  0
  140.4740   70.1670  226.0520 C   0  0  0  0  0  0  0  0  0  0  0  0
  140.5020   70.9000  224.9200 N   0  0  0  0  0  0  0  0  0  0  0  0
  140.7270   72.9500  223.4450 H   0  0  0  0  0  0  0  0  0  0  0  0
  140.2806   72.6543  220.4385 H   0  0  0  0  0  0  0  0  0  0  0  0
  139.5744   74.0594  221.3158 H   0  0  0  0  0  0  0  0  0  0  0  0
  143.2042   71.8002  221.8315 H   0  0  0  0  0  0  0  0  0  0  0  0
  142.3967   71.4899  220.2981 H   0  0  0  0  0  0  0  0  0  0  0  0
  145.3270   72.0035  220.8744 H   0  0  0  0  0  0  0  0  0  0  0  0
  144.6505   70.9401  219.6621 H   0  0  0  0  0  0  0  0  0  0  0  0
  144.0326   72.9034  218.1986 H   0  0  0  0  0  0  0  0  0  0  0  0
  145.9760   74.2090  218.2630 H   0  0  0  0  0  0  0  0  0  0  0  0
  144.7014   74.6149  220.7757 H   0  0  0  0  0  0  0  0  0  0  0  0
  144.6036   75.6445  218.5963 H   0  0  0  0  0  0  0  0  0  0  0  0
  142.8267   75.1950  218.6172 H   0  0  0  0  0  0  0  0  0  0  0  0
  143.0030   76.3070  220.8190 H   0  0  0  0  0  0  0  0  0  0  0  0
  138.7989   68.8501  222.9523 H   0  0  0  0  0  0  0  0  0  0  0  0
  138.7266   67.4801  224.9963 H   0  0  0  0  0  0  0  0  0  0  0  0
  139.2892   67.1969  227.2508 H   0  0  0  0  0  0  0  0  0  0  0  0
  141.5327   70.2399  229.2709 H   0  0  0  0  0  0  0  0  0  0  0  0
  141.5959   71.5946  227.2191 H   0  0  0  0  0  0  0  0  0  0  0  0
  1  2  2  0
  2  3  1  0
  3  4  1  0
  4  5  1  0
  5  6  2  0
  5  7  1  0
  7  8  1  0
  8  9  1  0
  9 10  1  0
 10 11  1  0
 10 12  1  0
 12 13  1  0
 13 14  1  0
  2 15  1  0
 15 16  2  0
 16 17  1  0
 17 18  2  0
 18 19  1  0
 19 20  2  0
 20 21  1  0
 20 22  1  0
 22 23  2  0
 23 24  1  0
 24 25  2  0
 12  7  1  0
 25 15  1  0
 24 18  1  0
  3 26  1  0
  4 27  1  0
  4 28  1  0
  8 29  1  0
  8 30  1  0
  9 31  1  0
  9 32  1  0
 10 33  1  6
 11 34  1  0
 12 35  1  1
 13 36  1  0
 13 37  1  0
 14 38  1  0
 16 39  1  0
 17 40  1  0
 19 41  1  0
 22 42  1  0
 23 43  1  0
M  END
>  <smiles>  (14) 
O=C(NCC(=O)N1CC[C@H](O)[C@H]1CO)c1ccc2cc(F)ccc2n1

>  <score_type>  (14) 
oracle

>  <origin>  (14) 
autodockgpu

>  <m_score__min__energy>  (14) 
-7.4800000000000004

>  <m_primary>  (14) 
energy

>  <rmsd>  (14) 
3.198769464826587

>  <m_score__min__rmsd>  (14) 
3.198769464826587

>  <meeko>  (14) 
{"free_energy": -6.69, "intermolecular_energy": -8.78, "internal_energy": -1.85, "cluster_size": 18, "cluster_id": 1, "rank_in_cluster": 7}

>  <energy>  (14) 
-6.47

>  <cluster_rmsd>  (14) 
1.94

>  <cluster>  (14) 
1

$$$$

     RDKit          3D

 43 45  0  0  0  0  0  0  0  0999 V2000
  141.6510   72.0010  221.0090 O   0  0  0  0  0  0  0  0  0  0  0  0
  141.1000   72.8890  221.7250 C   0  0  0  0  0  0  0  0  0  0  0  0
  140.3320   72.5310  222.8860 N   0  0  0  0  0  0  0  0  0  0  0  0
  140.1760   71.1170  223.2620 C   0  0  0  0  0  0  0  0  0  0  0  0
  139.4980   71.0120  224.5590 C   0  0  0  0  0  0  0  0  0  0  0  0
  138.2950   71.4450  224.6140 O   0  0  0  0  0  0  0  0  0  0  0  0
  140.0180   70.4860  225.7630 N   0  0  0  0  0  0  0  0  0  0  0  0
  140.5770   71.4380  226.7670 C   0  0  0  0  0  0  0  0  0  0  0  0
  141.0150   70.5650  227.9080 C   0  0  0  0  0  0  0  0  0  0  0  0
  140.0930   69.3620  227.7800 C   0  0  2  0  0  0  0  0  0  0  0  0
  140.6030   68.2590  228.4570 O   0  0  0  0  0  0  0  0  0  0  0  0
  140.1520   69.1460  226.2620 C   0  0  1  0  0  0  0  0  0  0  0  0
  139.1310   68.1610  225.8200 C   0  0  0  0  0  0  0  0  0  0  0  0
  139.1890   66.9500  226.4770 O   0  0  0  0  0  0  0  0  0  0  0  0
  141.2380   74.2970  221.3790 C   0  0  0  0  0  0  0  0  0  0  0  0
  142.0110   74.6650  220.3030 C   0  0  0  0  0  0  0  0  0  0  0  0
  142.1990   75.9660  219.9000 C   0  0  0  0  0  0  0  0  0  0  0  0
  141.5730   76.9510  220.6250 C   0  0  0  0  0  0  0  0  0  0  0  0
  141.7580   78.2510  220.2270 C   0  0  0  0  0  0  0  0  0  0  0  0
  141.1430   79.2630  220.9340 C   0  0  0  0  0  0  0  0  0  0  0  0
  141.3230   80.5540  220.5430 F   0  0  0  0  0  0  0  0  0  0  0  0
  140.3600   78.9160  222.0200 C   0  0  0  0  0  0  0  0  0  0  0  0
  140.1840   77.6040  222.4070 C   0  0  0  0  0  0  0  0  0  0  0  0
  140.8000   76.5780  221.7030 C   0  0  0  0  0  0  0  0  0  0  0  0
  140.6380   75.2900  222.0660 N   0  0  0  0  0  0  0  0  0  0  0  0
  139.9020   73.3030  223.4380 H   0  0  0  0  0  0  0  0  0  0  0  0
  139.5784   70.6007  222.4962 H   0  0  0  0  0  0  0  0  0  0  0  0
  141.1703   70.6525  223.3369 H   0  0  0  0  0  0  0  0  0  0  0  0
  141.4322   71.9881  226.3475 H   0  0  0  0  0  0  0  0  0  0  0  0
  139.8440   72.1970  227.0778 H   0  0  0  0  0  0  0  0  0  0  0  0
  142.0693   70.2703  227.8002 H   0  0  0  0  0  0  0  0  0  0  0  0
  140.9519   71.0617  228.8875 H   0  0  0  0  0  0  0  0  0  0  0  0
  139.0851   69.5043  228.1971 H   0  0  0  0  0  0  0  0  0  0  0  0
  140.5020   67.4080  227.9640 H   0  0  0  0  0  0  0  0  0  0  0  0
  141.0723   68.6842  225.8749 H   0  0  0  0  0  0  0  0  0  0  0  0
  138.1355   68.5973  225.9891 H   0  0  0  0  0  0  0  0  0  0  0  0
  139.3322   67.9535  224.7587 H   0  0  0  0  0  0  0  0  0  0  0  0
  139.1970   67.0630  227.4520 H   0  0  0  0  0  0  0  0  0  0  0  0
  142.5096   73.8697  219.7294 H   0  0  0  0  0  0  0  0  0  0  0  0
  142.8268   76.2091  219.0301 H   0  0  0  0  0  0  0  0  0  0  0  0
  142.3883   78.4829  219.3558 H   0  0  0  0  0  0  0  0  0  0  0  0
  139.8618   79.7117  222.5933 H   0  0  0  0  0  0  0  0  0  0  0  0
  139.5530   77.3695  223.2770 H   0  0  0  0  0  0  0  0  0  0  0  0
  1  2  2  0
  2  3  1  0
  3  4  1  0
  4  5  1  0
  5  6  2  0
  5  7  1  0
  7  8  1  0
  8  9  1  0
  9 10  1  0
 10 11  1  0
 10 12  1  0
 12 13  1  0
 13 14  1  0
  2 15  1  0
 15 16  2  0
 16 17  1  0
 17 18  2  0
 18 19  1  0
 19 20  2  0
 20 21  1  0
 20 22  1  0
 22 23  2  0
 23 24  1  0
 24 25  2  0
 12  7  1  0
 25 15  1  0
 24 18  1  0
  3 26  1  0
  4 27  1  0
  4 28  1  0
  8 29  1  0
  8 30  1  0
  9 31  1  0
  9 32  1  0
 10 33  1  1
 11 34  1  0
 12 35  1  1
 13 36  1  0
 13 37  1  0
 14 38  1  0
 16 39  1  0
 17 40  1  0
 19 41  1  0
 22 42  1  0
 23 43  1  0
M  END
>  <smiles>  (15) 
O=C(NCC(=O)N1CC[C@H](O)[C@H]1CO)c1ccc2cc(F)ccc2n1

>  <score_type>  (15) 
oracle

>  <origin>  (15) 
autodockgpu

>  <m_score__min__energy>  (15) 
-7.4800000000000004

>  <m_primary>  (15) 
energy

>  <rmsd>  (15) 
9.3414996450483

>  <m_score__min__rmsd>  (15) 
9.3414996450483

>  <meeko>  (15) 
{"free_energy": -6.96, "intermolecular_energy": -9.05, "internal_energy": -2.28, "cluster_size": 16, "cluster_id": 2, "rank_in_cluster": 14}

>  <energy>  (15) 
-6.44

>  <cluster_rmsd>  (15) 
1.11

>  <cluster>  (15) 
1

$$$$

     RDKit          3D

 43 45  0  0  0  0  0  0  0  0999 V2000
  139.6930   71.3300  221.1070 O   0  0  0  0  0  0  0  0  0  0  0  0
  139.6760   71.9080  222.2340 C   0  0  0  0  0  0  0  0  0  0  0  0
  139.6040   73.3410  222.3300 N   0  0  0  0  0  0  0  0  0  0  0  0
  139.5480   74.1610  221.1100 C   0  0  0  0  0  0  0  0  0  0  0  0
  140.5440   75.2360  221.1790 C   0  0  0  0  0  0  0  0  0  0  0  0
  140.8500   75.6600  222.3460 O   0  0  0  0  0  0  0  0  0  0  0  0
  141.2110   75.8630  220.1020 N   0  0  0  0  0  0  0  0  0  0  0  0
  140.7920   77.2440  219.7190 C   0  0  0  0  0  0  0  0  0  0  0  0
  141.6990   77.6070  218.5780 C   0  0  0  0  0  0  0  0  0  0  0  0
  142.9330   76.7600  218.8500 C   0  0  2  0  0  0  0  0  0  0  0  0
  143.7110   76.6160  217.7070 O   0  0  0  0  0  0  0  0  0  0  0  0
  142.2630   75.4320  219.2250 C   0  0  1  0  0  0  0  0  0  0  0  0
  143.2500   74.4710  219.7840 C   0  0  0  0  0  0  0  0  0  0  0  0
  144.2840   74.1580  218.9270 O   0  0  0  0  0  0  0  0  0  0  0  0
  139.7300   71.1220  223.4590 C   0  0  0  0  0  0  0  0  0  0  0  0
  139.2350   69.8400  223.4730 C   0  0  0  0  0  0  0  0  0  0  0  0
  139.2420   69.0240  224.5780 C   0  0  0  0  0  0  0  0  0  0  0  0
  139.7800   69.5300  225.7370 C   0  0  0  0  0  0  0  0  0  0  0  0
  139.7900   68.7190  226.8440 C   0  0  0  0  0  0  0  0  0  0  0  0
  140.3230   69.1990  228.0220 C   0  0  0  0  0  0  0  0  0  0  0  0
  140.3350   68.3990  229.1220 F   0  0  0  0  0  0  0  0  0  0  0  0
  140.8280   70.4870  228.0310 C   0  0  0  0  0  0  0  0  0  0  0  0
  140.8100   71.2890  226.9100 C   0  0  0  0  0  0  0  0  0  0  0  0
  140.2750   70.8160  225.7200 C   0  0  0  0  0  0  0  0  0  0  0  0
  140.2500   71.5860  224.6130 N   0  0  0  0  0  0  0  0  0  0  0  0
  139.5920   73.7610  223.2830 H   0  0  0  0  0  0  0  0  0  0  0  0
  139.7569   73.5271  220.2356 H   0  0  0  0  0  0  0  0  0  0  0  0
  138.5454   74.6044  221.0199 H   0  0  0  0  0  0  0  0  0  0  0  0
  139.7397   77.2567  219.3989 H   0  0  0  0  0  0  0  0  0  0  0  0
  140.8682   77.9527  220.5568 H   0  0  0  0  0  0  0  0  0  0  0  0
  141.2440   77.3462  217.6111 H   0  0  0  0  0  0  0  0  0  0  0  0
  141.9135   78.6841  218.5163 H   0  0  0  0  0  0  0  0  0  0  0  0
  143.6195   77.1715  219.6046 H   0  0  0  0  0  0  0  0  0  0  0  0
  144.4820   76.0080  217.8230 H   0  0  0  0  0  0  0  0  0  0  0  0
  141.8491   74.8477  218.3900 H   0  0  0  0  0  0  0  0  0  0  0  0
  143.6796   74.9098  220.6966 H   0  0  0  0  0  0  0  0  0  0  0  0
  142.7050   73.5350  219.9759 H   0  0  0  0  0  0  0  0  0  0  0  0
  144.7710   74.9570  218.6340 H   0  0  0  0  0  0  0  0  0  0  0  0
  138.8064   69.4425  222.5412 H   0  0  0  0  0  0  0  0  0  0  0  0
  138.8324   68.0039  224.5368 H   0  0  0  0  0  0  0  0  0  0  0  0
  139.3786   67.7001  226.7925 H   0  0  0  0  0  0  0  0  0  0  0  0
  141.2577   70.8838  228.9626 H   0  0  0  0  0  0  0  0  0  0  0  0
  141.2213   72.3080  226.9589 H   0  0  0  0  0  0  0  0  0  0  0  0
  1  2  2  0
  2  3  1  0
  3  4  1  0
  4  5  1  0
  5  6  2  0
  5  7  1  0
  7  8  1  0
  8  9  1  0
  9 10  1  0
 10 11  1  0
 10 12  1  0
 12 13  1  0
 13 14  1  0
  2 15  1  0
 15 16  2  0
 16 17  1  0
 17 18  2  0
 18 19  1  0
 19 20  2  0
 20 21  1  0
 20 22  1  0
 22 23  2  0
 23 24  1  0
 24 25  2  0
 12  7  1  0
 25 15  1  0
 24 18  1  0
  3 26  1  0
  4 27  1  0
  4 28  1  0
  8 29  1  0
  8 30  1  0
  9 31  1  0
  9 32  1  0
 10 33  1  1
 11 34  1  0
 12 35  1  6
 13 36  1  0
 13 37  1  0
 14 38  1  0
 16 39  1  0
 17 40  1  0
 19 41  1  0
 22 42  1  0
 23 43  1  0
M  END
>  <smiles>  (16) 
O=C(NCC(=O)N1CC[C@H](O)[C@H]1CO)c1ccc2cc(F)ccc2n1

>  <score_type>  (16) 
oracle

>  <origin>  (16) 
autodockgpu

>  <m_score__min__energy>  (16) 
-7.4800000000000004

>  <m_primary>  (16) 
energy

>  <rmsd>  (16) 
2.091350567272761

>  <m_score__min__rmsd>  (16) 
2.091350567272761

>  <meeko>  (16) 
{"free_energy": -6.6, "intermolecular_energy": -8.68, "internal_energy": -2.36, "cluster_size": 18, "cluster_id": 1, "rank_in_cluster": 10}

>  <energy>  (16) 
-6.39

>  <cluster_rmsd>  (16) 
1.87

>  <cluster>  (16) 
1

$$$$

     RDKit          3D

 43 45  0  0  0  0  0  0  0  0999 V2000
  141.0460   71.5580  221.9390 O   0  0  0  0  0  0  0  0  0  0  0  0
  140.2050   71.8300  222.8470 C   0  0  0  0  0  0  0  0  0  0  0  0
  139.1290   72.7520  222.6060 N   0  0  0  0  0  0  0  0  0  0  0  0
  138.9880   73.3960  221.2900 C   0  0  0  0  0  0  0  0  0  0  0  0
  139.6870   74.6860  221.2830 C   0  0  0  0  0  0  0  0  0  0  0  0
  139.0260   75.6990  221.7000 O   0  0  0  0  0  0  0  0  0  0  0  0
  141.0130   74.9450  220.8670 N   0  0  0  0  0  0  0  0  0  0  0  0
  141.8240   73.8090  220.3410 C   0  0  0  0  0  0  0  0  0  0  0  0
  143.1450   74.4260  219.9800 C   0  0  0  0  0  0  0  0  0  0  0  0
  142.7680   75.8700  219.6820 C   0  0  2  0  0  0  0  0  0  0  0  0
  143.8770   76.7070  219.7470 O   0  0  0  0  0  0  0  0  0  0  0  0
  141.8120   76.1390  220.8520 C   0  0  1  0  0  0  0  0  0  0  0  0
  141.0910   77.4260  220.6720 C   0  0  0  0  0  0  0  0  0  0  0  0
  141.9150   78.5250  220.5530 O   0  0  0  0  0  0  0  0  0  0  0  0
  140.3180   71.2080  224.1590 C   0  0  0  0  0  0  0  0  0  0  0  0
  140.8790   71.9060  225.2020 C   0  0  0  0  0  0  0  0  0  0  0  0
  141.0270   71.4030  226.4720 C   0  0  0  0  0  0  0  0  0  0  0  0
  140.5860   70.1230  226.7030 C   0  0  0  0  0  0  0  0  0  0  0  0
  140.7320   69.6160  227.9710 C   0  0  0  0  0  0  0  0  0  0  0  0
  140.2980   68.3330  228.2330 C   0  0  0  0  0  0  0  0  0  0  0  0
  140.4410   67.8260  229.4880 F   0  0  0  0  0  0  0  0  0  0  0  0
  139.7310   67.6120  227.1980 C   0  0  0  0  0  0  0  0  0  0  0  0
  139.5910   68.1360  225.9310 C   0  0  0  0  0  0  0  0  0  0  0  0
  140.0250   69.4260  225.6550 C   0  0  0  0  0  0  0  0  0  0  0  0
  139.8960   69.9550  224.4210 N   0  0  0  0  0  0  0  0  0  0  0  0
  138.4670   72.9380  223.3880 H   0  0  0  0  0  0  0  0  0  0  0  0
  139.4206   72.7435  220.5173 H   0  0  0  0  0  0  0  0  0  0  0  0
  137.9206   73.5635  221.0834 H   0  0  0  0  0  0  0  0  0  0  0  0
  141.9541   73.0346  221.1113 H   0  0  0  0  0  0  0  0  0  0  0  0
  141.3447   73.3146  219.4832 H   0  0  0  0  0  0  0  0  0  0  0  0
  143.8537   74.3659  220.8192 H   0  0  0  0  0  0  0  0  0  0  0  0
  143.6473   73.9233  219.1403 H   0  0  0  0  0  0  0  0  0  0  0  0
  142.3472   76.0413  218.6802 H   0  0  0  0  0  0  0  0  0  0  0  0
  143.6600   77.6640  219.6280 H   0  0  0  0  0  0  0  0  0  0  0  0
  142.2824   76.2968  221.8338 H   0  0  0  0  0  0  0  0  0  0  0  0
  140.4790   77.3537  219.7608 H   0  0  0  0  0  0  0  0  0  0  0  0
  140.4889   77.5799  221.5796 H   0  0  0  0  0  0  0  0  0  0  0  0
  142.8470   78.3100  220.7760 H   0  0  0  0  0  0  0  0  0  0  0  0
  141.2310   72.9299  225.0079 H   0  0  0  0  0  0  0  0  0  0  0  0
  141.4818   72.0031  227.2739 H   0  0  0  0  0  0  0  0  0  0  0  0
  141.1883   70.2240  228.7660 H   0  0  0  0  0  0  0  0  0  0  0  0
  139.3806   66.5876  227.3922 H   0  0  0  0  0  0  0  0  0  0  0  0
  139.1336   67.5299  225.1351 H   0  0  0  0  0  0  0  0  0  0  0  0
  1  2  2  0
  2  3  1  0
  3  4  1  0
  4  5  1  0
  5  6  2  0
  5  7  1  0
  7  8  1  0
  8  9  1  0
  9 10  1  0
 10 11  1  0
 10 12  1  0
 12 13  1  0
 13 14  1  0
  2 15  1  0
 15 16  2  0
 16 17  1  0
 17 18  2  0
 18 19  1  0
 19 20  2  0
 20 21  1  0
 20 22  1  0
 22 23  2  0
 23 24  1  0
 24 25  2  0
 12  7  1  0
 25 15  1  0
 24 18  1  0
  3 26  1  0
  4 27  1  0
  4 28  1  0
  8 29  1  0
  8 30  1  0
  9 31  1  0
  9 32  1  0
 10 33  1  6
 11 34  1  0
 12 35  1  1
 13 36  1  0
 13 37  1  0
 14 38  1  0
 16 39  1  0
 17 40  1  0
 19 41  1  0
 22 42  1  0
 23 43  1  0
M  END
>  <smiles>  (17) 
O=C(NCC(=O)N1CC[C@H](O)[C@H]1CO)c1ccc2cc(F)ccc2n1

>  <score_type>  (17) 
oracle

>  <origin>  (17) 
autodockgpu

>  <m_score__min__energy>  (17) 
-7.4800000000000004

>  <m_primary>  (17) 
energy

>  <rmsd>  (17) 
3.154183071069449

>  <m_score__min__rmsd>  (17) 
3.154183071069449

>  <meeko>  (17) 
{"free_energy": -6.54, "intermolecular_energy": -8.63, "internal_energy": -2.05, "cluster_size": 12, "cluster_id": 4, "rank_in_cluster": 7}

>  <energy>  (17) 
-6.35

>  <cluster_rmsd>  (17) 
1.49

>  <cluster>  (17) 
1

$$$$

     RDKit          3D

 43 45  0  0  0  0  0  0  0  0999 V2000
  138.7420   70.4170  221.6550 O   0  0  0  0  0  0  0  0  0  0  0  0
  139.1070   71.0220  222.7070 C   0  0  0  0  0  0  0  0  0  0  0  0
  139.2420   72.4530  222.7280 N   0  0  0  0  0  0  0  0  0  0  0  0
  138.9550   73.2410  221.5190 C   0  0  0  0  0  0  0  0  0  0  0  0
  139.7050   74.5010  221.5480 C   0  0  0  0  0  0  0  0  0  0  0  0
  139.1830   75.4640  222.2080 O   0  0  0  0  0  0  0  0  0  0  0  0
  140.9450   74.7800  220.9290 N   0  0  0  0  0  0  0  0  0  0  0  0
  141.5410   73.7410  220.0390 C   0  0  0  0  0  0  0  0  0  0  0  0
  142.8170   74.3590  219.5430 C   0  0  0  0  0  0  0  0  0  0  0  0
  142.5150   75.8490  219.6130 C   0  0  2  0  0  0  0  0  0  0  0  0
  143.6830   76.6030  219.6100 O   0  0  0  0  0  0  0  0  0  0  0  0
  141.8260   75.9140  220.9820 C   0  0  1  0  0  0  0  0  0  0  0  0
  141.1960   77.2420  221.2040 C   0  0  0  0  0  0  0  0  0  0  0  0
  142.0810   78.2990  221.1820 O   0  0  0  0  0  0  0  0  0  0  0  0
  139.3980   70.2690  223.9190 C   0  0  0  0  0  0  0  0  0  0  0  0
  139.0800   68.9340  223.9890 C   0  0  0  0  0  0  0  0  0  0  0  0
  139.3160   68.1430  225.0880 C   0  0  0  0  0  0  0  0  0  0  0  0
  139.9060   68.7330  226.1790 C   0  0  0  0  0  0  0  0  0  0  0  0
  140.1440   67.9480  227.2790 C   0  0  0  0  0  0  0  0  0  0  0  0
  140.7360   68.5120  228.3900 C   0  0  0  0  0  0  0  0  0  0  0  0
  140.9740   67.7370  229.4830 F   0  0  0  0  0  0  0  0  0  0  0  0
  141.0650   69.8540  228.3420 C   0  0  0  0  0  0  0  0  0  0  0  0
  140.8190   70.6300  227.2290 C   0  0  0  0  0  0  0  0  0  0  0  0
  140.2240   70.0720  226.1060 C   0  0  0  0  0  0  0  0  0  0  0  0
  139.9770   70.8150  225.0080 N   0  0  0  0  0  0  0  0  0  0  0  0
  139.5450   72.8970  223.6200 H   0  0  0  0  0  0  0  0  0  0  0  0
  139.2487   72.6633  220.6301 H   0  0  0  0  0  0  0  0  0  0  0  0
  137.8785   73.4639  221.4821 H   0  0  0  0  0  0  0  0  0  0  0  0
  141.7485   72.8191  220.6020 H   0  0  0  0  0  0  0  0  0  0  0  0
  140.8668   73.4564  219.2178 H   0  0  0  0  0  0  0  0  0  0  0  0
  143.6646   74.0949  220.1926 H   0  0  0  0  0  0  0  0  0  0  0  0
  143.1055   74.0184  218.5376 H   0  0  0  0  0  0  0  0  0  0  0  0
  141.9270   76.2424  218.7707 H   0  0  0  0  0  0  0  0  0  0  0  0
  143.5340   77.5680  219.7700 H   0  0  0  0  0  0  0  0  0  0  0  0
  142.4867   75.8445  221.8588 H   0  0  0  0  0  0  0  0  0  0  0  0
  140.4459   77.4039  220.4159 H   0  0  0  0  0  0  0  0  0  0  0  0
  140.7571   77.2186  222.2124 H   0  0  0  0  0  0  0  0  0  0  0  0
  143.0140   77.9950  221.1530 H   0  0  0  0  0  0  0  0  0  0  0  0
  138.6073   68.4696  223.1110 H   0  0  0  0  0  0  0  0  0  0  0  0
  139.0426   67.0775  225.0936 H   0  0  0  0  0  0  0  0  0  0  0  0
  139.8665   66.8836  227.2749 H   0  0  0  0  0  0  0  0  0  0  0  0
  141.5383   70.3177  229.2200 H   0  0  0  0  0  0  0  0  0  0  0  0
  141.0952   71.6948  227.2311 H   0  0  0  0  0  0  0  0  0  0  0  0
  1  2  2  0
  2  3  1  0
  3  4  1  0
  4  5  1  0
  5  6  2  0
  5  7  1  0
  7  8  1  0
  8  9  1  0
  9 10  1  0
 10 11  1  0
 10 12  1  0
 12 13  1  0
 13 14  1  0
  2 15  1  0
 15 16  2  0
 16 17  1  0
 17 18  2  0
 18 19  1  0
 19 20  2  0
 20 21  1  0
 20 22  1  0
 22 23  2  0
 23 24  1  0
 24 25  2  0
 12  7  1  0
 25 15  1  0
 24 18  1  0
  3 26  1  0
  4 27  1  0
  4 28  1  0
  8 29  1  0
  8 30  1  0
  9 31  1  0
  9 32  1  0
 10 33  1  6
 11 34  1  0
 12 35  1  1
 13 36  1  0
 13 37  1  0
 14 38  1  0
 16 39  1  0
 17 40  1  0
 19 41  1  0
 22 42  1  0
 23 43  1  0
M  END
>  <smiles>  (18) 
O=C(NCC(=O)N1CC[C@H](O)[C@H]1CO)c1ccc2cc(F)ccc2n1

>  <score_type>  (18) 
oracle

>  <origin>  (18) 
autodockgpu

>  <m_score__min__energy>  (18) 
-7.4800000000000004

>  <m_primary>  (18) 
energy

>  <rmsd>  (18) 
2.190463141781103

>  <m_score__min__rmsd>  (18) 
2.190463141781103

>  <meeko>  (18) 
{"free_energy": -6.49, "intermolecular_energy": -8.58, "internal_energy": -2.21, "cluster_size": 12, "cluster_id": 4, "rank_in_cluster": 9}

>  <energy>  (18) 
-6.34

>  <cluster_rmsd>  (18) 
1.13

>  <cluster>  (18) 
1

$$$$

     RDKit          3D

 43 45  0  0  0  0  0  0  0  0999 V2000
  135.8410   69.3760  224.3220 O   0  0  0  0  0  0  0  0  0  0  0  0
  136.0750   70.5950  224.5750 C   0  0  0  0  0  0  0  0  0  0  0  0
  137.3230   71.2020  224.1990 N   0  0  0  0  0  0  0  0  0  0  0  0
  138.3530   70.4090  223.5100 C   0  0  0  0  0  0  0  0  0  0  0  0
  139.6630   70.6350  224.1310 C   0  0  0  0  0  0  0  0  0  0  0  0
  140.5320   71.2560  223.4260 O   0  0  0  0  0  0  0  0  0  0  0  0
  140.0820   70.2470  225.4240 N   0  0  0  0  0  0  0  0  0  0  0  0
  140.3260   71.3150  226.4380 C   0  0  0  0  0  0  0  0  0  0  0  0
  140.7310   70.5680  227.6770 C   0  0  0  0  0  0  0  0  0  0  0  0
  140.0480   69.2210  227.4940 C   0  0  2  0  0  0  0  0  0  0  0  0
  140.6270   68.2450  228.2970 O   0  0  0  0  0  0  0  0  0  0  0  0
  140.3600   68.9670  226.0140 C   0  0  1  0  0  0  0  0  0  0  0  0
  139.5900   67.8080  225.4930 C   0  0  0  0  0  0  0  0  0  0  0  0
  139.0270   67.0160  226.4710 O   0  0  0  0  0  0  0  0  0  0  0  0
  135.0740   71.4050  225.2550 C   0  0  0  0  0  0  0  0  0  0  0  0
  134.0750   70.7970  225.9760 C   0  0  0  0  0  0  0  0  0  0  0  0
  133.0900   71.4770  226.6510 C   0  0  0  0  0  0  0  0  0  0  0  0
  133.1120   72.8490  226.5930 C   0  0  0  0  0  0  0  0  0  0  0  0
  132.1300   73.5330  227.2650 C   0  0  0  0  0  0  0  0  0  0  0  0
  132.1260   74.9120  227.2250 C   0  0  0  0  0  0  0  0  0  0  0  0
  131.1550   75.5940  227.8900 F   0  0  0  0  0  0  0  0  0  0  0  0
  133.1220   75.5460  226.5050 C   0  0  0  0  0  0  0  0  0  0  0  0
  134.1030   74.8440  225.8360 C   0  0  0  0  0  0  0  0  0  0  0  0
  134.1150   73.4560  225.8680 C   0  0  0  0  0  0  0  0  0  0  0  0
  135.0660   72.7530  225.2200 N   0  0  0  0  0  0  0  0  0  0  0  0
  137.4600   72.2080  224.4320 H   0  0  0  0  0  0  0  0  0  0  0  0
  138.0969   69.3414  223.5792 H   0  0  0  0  0  0  0  0  0  0  0  0
  138.3973   70.7158  222.4546 H   0  0  0  0  0  0  0  0  0  0  0  0
  141.1313   71.9880  226.1085 H   0  0  0  0  0  0  0  0  0  0  0  0
  139.4418   71.9488  226.6006 H   0  0  0  0  0  0  0  0  0  0  0  0
  141.8237   70.4544  227.7322 H   0  0  0  0  0  0  0  0  0  0  0  0
  140.4450   71.0794  228.6080 H   0  0  0  0  0  0  0  0  0  0  0  0
  138.9810   69.2033  227.7606 H   0  0  0  0  0  0  0  0  0  0  0  0
  140.1620   67.3730  228.2620 H   0  0  0  0  0  0  0  0  0  0  0  0
  141.3899   68.6558  225.7849 H   0  0  0  0  0  0  0  0  0  0  0  0
  138.7821   68.1910  224.8522 H   0  0  0  0  0  0  0  0  0  0  0  0
  140.3045   67.1746  224.9468 H   0  0  0  0  0  0  0  0  0  0  0  0
  139.6990   66.6820  227.1030 H   0  0  0  0  0  0  0  0  0  0  0  0
  134.0629   69.6978  226.0154 H   0  0  0  0  0  0  0  0  0  0  0  0
  132.3128   70.9423  227.2168 H   0  0  0  0  0  0  0  0  0  0  0  0
  131.3569   72.9892  227.8277 H   0  0  0  0  0  0  0  0  0  0  0  0
  133.1323   76.6452  226.4645 H   0  0  0  0  0  0  0  0  0  0  0  0
  134.8787   75.3859  225.2750 H   0  0  0  0  0  0  0  0  0  0  0  0
  1  2  2  0
  2  3  1  0
  3  4  1  0
  4  5  1  0
  5  6  2  0
  5  7  1  0
  7  8  1  0
  8  9  1  0
  9 10  1  0
 10 11  1  0
 10 12  1  0
 12 13  1  0
 13 14  1  0
  2 15  1  0
 15 16  2  0
 16 17  1  0
 17 18  2  0
 18 19  1  0
 19 20  2  0
 20 21  1  0
 20 22  1  0
 22 23  2  0
 23 24  1  0
 24 25  2  0
 12  7  1  0
 25 15  1  0
 24 18  1  0
  3 26  1  0
  4 27  1  0
  4 28  1  0
  8 29  1  0
  8 30  1  0
  9 31  1  0
  9 32  1  0
 10 33  1  6
 11 34  1  0
 12 35  1  1
 13 36  1  0
 13 37  1  0
 14 38  1  0
 16 39  1  0
 17 40  1  0
 19 41  1  0
 22 42  1  0
 23 43  1  0
M  END
>  <smiles>  (19) 
O=C(NCC(=O)N1CC[C@H](O)[C@H]1CO)c1ccc2cc(F)ccc2n1

>  <score_type>  (19) 
oracle

>  <origin>  (19) 
autodockgpu

>  <m_score__min__energy>  (19) 
-7.4800000000000004

>  <m_primary>  (19) 
energy

>  <rmsd>  (19) 
8.739012104927646

>  <m_score__min__rmsd>  (19) 
8.739012104927646

>  <meeko>  (19) 
{"free_energy": -6.83, "intermolecular_energy": -8.91, "internal_energy": -2.27, "cluster_size": 4, "cluster_id": 3, "rank_in_cluster": 1}

>  <energy>  (19) 
-7.23

>  <cluster_rmsd>  (19) 
0.0

>  <cluster>  (19) 
2

$$$$

     RDKit          3D

 43 45  0  0  0  0  0  0  0  0999 V2000
  139.5740   73.4850  222.7140 O   0  0  0  0  0  0  0  0  0  0  0  0
  140.2030   72.3850  222.6810 C   0  0  0  0  0  0  0  0  0  0  0  0
  140.9840   72.0150  221.5320 N   0  0  0  0  0  0  0  0  0  0  0  0
  141.0650   72.9160  220.3720 C   0  0  0  0  0  0  0  0  0  0  0  0
  142.2210   73.8100  220.5080 C   0  0  0  0  0  0  0  0  0  0  0  0
  142.0070   74.9430  221.0640 O   0  0  0  0  0  0  0  0  0  0  0  0
  143.5500   73.5690  220.0940 N   0  0  0  0  0  0  0  0  0  0  0  0
  144.3650   72.5890  220.8700 C   0  0  0  0  0  0  0  0  0  0  0  0
  145.6900   72.5600  220.1630 C   0  0  0  0  0  0  0  0  0  0  0  0
  145.3180   72.9500  218.7400 C   0  0  2  0  0  0  0  0  0  0  0  0
  146.4260   73.3970  218.0310 O   0  0  0  0  0  0  0  0  0  0  0  0
  144.3510   74.1060  219.0290 C   0  0  1  0  0  0  0  0  0  0  0  0
  143.6330   74.5260  217.7980 C   0  0  0  0  0  0  0  0  0  0  0  0
  144.4590   74.9320  216.7710 O   0  0  0  0  0  0  0  0  0  0  0  0
  140.1420   71.4740  223.8150 C   0  0  0  0  0  0  0  0  0  0  0  0
  139.5470   70.2430  223.6730 C   0  0  0  0  0  0  0  0  0  0  0  0
  139.4430   69.3170  224.6840 C   0  0  0  0  0  0  0  0  0  0  0  0
  139.9690   69.6530  225.9080 C   0  0  0  0  0  0  0  0  0  0  0  0
  139.8680   68.7320  226.9200 C   0  0  0  0  0  0  0  0  0  0  0  0
  140.3860   69.0410  228.1610 C   0  0  0  0  0  0  0  0  0  0  0  0
  140.2880   68.1310  229.1680 F   0  0  0  0  0  0  0  0  0  0  0  0
  140.9900   70.2740  228.3270 C   0  0  0  0  0  0  0  0  0  0  0  0
  141.0830   71.1880  227.2980 C   0  0  0  0  0  0  0  0  0  0  0  0
  140.5640   70.8880  226.0460 C   0  0  0  0  0  0  0  0  0  0  0  0
  140.6480   71.7700  225.0290 N   0  0  0  0  0  0  0  0  0  0  0  0
  141.4810   71.1000  221.5600 H   0  0  0  0  0  0  0  0  0  0  0  0
  141.1726   72.3190  219.4544 H   0  0  0  0  0  0  0  0  0  0  0  0
  140.1469   73.5197  220.3200 H   0  0  0  0  0  0  0  0  0  0  0  0
  144.4869   72.9224  221.9111 H   0  0  0  0  0  0  0  0  0  0  0  0
  143.8935   71.5963  220.9166 H   0  0  0  0  0  0  0  0  0  0  0  0
  146.3904   73.2852  220.6029 H   0  0  0  0  0  0  0  0  0  0  0  0
  146.1996   71.5875  220.2302 H   0  0  0  0  0  0  0  0  0  0  0  0
  144.9071   72.1333  218.1283 H   0  0  0  0  0  0  0  0  0  0  0  0
  146.3370   74.3230  217.6940 H   0  0  0  0  0  0  0  0  0  0  0  0
  144.8126   75.0552  219.3388 H   0  0  0  0  0  0  0  0  0  0  0  0
  143.0328   73.6757  217.4420 H   0  0  0  0  0  0  0  0  0  0  0  0
  143.0193   75.3967  218.0723 H   0  0  0  0  0  0  0  0  0  0  0  0
  145.3820   75.0670  217.0750 H   0  0  0  0  0  0  0  0  0  0  0  0
  139.1282   69.9827  222.6897 H   0  0  0  0  0  0  0  0  0  0  0  0
  138.9571   68.3440  224.5192 H   0  0  0  0  0  0  0  0  0  0  0  0
  139.3811   67.7614  226.7445 H   0  0  0  0  0  0  0  0  0  0  0  0
  141.4093   70.5339  229.3102 H   0  0  0  0  0  0  0  0  0  0  0  0
  141.5706   72.1589  227.4704 H   0  0  0  0  0  0  0  0  0  0  0  0
  1  2  2  0
  2  3  1  0
  3  4  1  0
  4  5  1  0
  5  6  2  0
  5  7  1  0
  7  8  1  0
  8  9  1  0
  9 10  1  0
 10 11  1  0
 10 12  1  0
 12 13  1  0
 13 14  1  0
  2 15  1  0
 15 16  2  0
 16 17  1  0
 17 18  2  0
 18 19  1  0
 19 20  2  0
 20 21  1  0
 20 22  1  0
 22 23  2  0
 23 24  1  0
 24 25  2  0
 12  7  1  0
 25 15  1  0
 24 18  1  0
  3 26  1  0
  4 27  1  0
  4 28  1  0
  8 29  1  0
  8 30  1  0
  9 31  1  0
  9 32  1  0
 10 33  1  6
 11 34  1  0
 12 35  1  1
 13 36  1  0
 13 37  1  0
 14 38  1  0
 16 39  1  0
 17 40  1  0
 19 41  1  0
 22 42  1  0
 23 43  1  0
M  END
>  <smiles>  (20) 
O=C(NCC(=O)N1CC[C@H](O)[C@H]1CO)c1ccc2cc(F)ccc2n1

>  <score_type>  (20) 
oracle

>  <origin>  (20) 
autodockgpu

>  <m_score__min__energy>  (20) 
-7.4800000000000004

>  <m_primary>  (20) 
energy

>  <rmsd>  (20) 
3.5821744440771615

>  <m_score__min__rmsd>  (20) 
3.5821744440771615

>  <meeko>  (20) 
{"free_energy": -7.4, "intermolecular_energy": -9.49, "internal_energy": -1.87, "cluster_size": 18, "cluster_id": 1, "rank_in_cluster": 2}

>  <energy>  (20) 
-7.22

>  <cluster_rmsd>  (20) 
0.15

>  <cluster>  (20) 
2

$$$$

     RDKit          3D

 43 45  0  0  0  0  0  0  0  0999 V2000
  139.9600   73.6730  222.6580 O   0  0  0  0  0  0  0  0  0  0  0  0
  140.2970   72.4570  222.5350 C   0  0  0  0  0  0  0  0  0  0  0  0
  140.7490   71.9380  221.2730 N   0  0  0  0  0  0  0  0  0  0  0  0
  140.8280   72.8200  220.0970 C   0  0  0  0  0  0  0  0  0  0  0  0
  142.2160   73.2410  219.8760 C   0  0  0  0  0  0  0  0  0  0  0  0
  142.4450   74.5000  219.9040 O   0  0  0  0  0  0  0  0  0  0  0  0
  143.3380   72.4170  219.6310 N   0  0  0  0  0  0  0  0  0  0  0  0
  143.3140   71.5260  218.4340 C   0  0  0  0  0  0  0  0  0  0  0  0
  144.6400   70.8210  218.4650 C   0  0  0  0  0  0  0  0  0  0  0  0
  145.5270   71.8100  219.2060 C   0  0  2  0  0  0  0  0  0  0  0  0
  146.6610   71.1900  219.7170 O   0  0  0  0  0  0  0  0  0  0  0  0
  144.5740   72.2220  220.3370 C   0  0  1  0  0  0  0  0  0  0  0  0
  145.1060   73.3870  221.0900 C   0  0  0  0  0  0  0  0  0  0  0  0
  146.3820   73.2090  221.5820 O   0  0  0  0  0  0  0  0  0  0  0  0
  140.2300   71.5610  223.6820 C   0  0  0  0  0  0  0  0  0  0  0  0
  139.6560   70.3200  223.5480 C   0  0  0  0  0  0  0  0  0  0  0  0
  139.5480   69.4080  224.5710 C   0  0  0  0  0  0  0  0  0  0  0  0
  140.0490   69.7690  225.7980 C   0  0  0  0  0  0  0  0  0  0  0  0
  139.9440   68.8620  226.8230 C   0  0  0  0  0  0  0  0  0  0  0  0
  140.4370   69.1960  228.0670 C   0  0  0  0  0  0  0  0  0  0  0  0
  140.3350   68.3000  229.0850 F   0  0  0  0  0  0  0  0  0  0  0  0
  141.0190   70.4400  228.2240 C   0  0  0  0  0  0  0  0  0  0  0  0
  141.1170   71.3400  227.1840 C   0  0  0  0  0  0  0  0  0  0  0  0
  140.6240   71.0140  225.9290 C   0  0  0  0  0  0  0  0  0  0  0  0
  140.7110   71.8820  224.9000 N   0  0  0  0  0  0  0  0  0  0  0  0
  141.0140   70.9320  221.2310 H   0  0  0  0  0  0  0  0  0  0  0  0
  140.4665   72.2781  219.2106 H   0  0  0  0  0  0  0  0  0  0  0  0
  140.2049   73.7096  220.2712 H   0  0  0  0  0  0  0  0  0  0  0  0
  142.4875   70.8034  218.5034 H   0  0  0  0  0  0  0  0  0  0  0  0
  143.1583   72.0845  217.4992 H   0  0  0  0  0  0  0  0  0  0  0  0
  144.5695   69.8671  219.0082 H   0  0  0  0  0  0  0  0  0  0  0  0
  145.0184   70.5585  217.4660 H   0  0  0  0  0  0  0  0  0  0  0  0
  145.9138   72.6356  218.5905 H   0  0  0  0  0  0  0  0  0  0  0  0
  146.7460   71.2610  220.7000 H   0  0  0  0  0  0  0  0  0  0  0  0
  144.4409   71.4901  221.1473 H   0  0  0  0  0  0  0  0  0  0  0  0
  145.1142   74.2575  220.4175 H   0  0  0  0  0  0  0  0  0  0  0  0
  144.4487   73.5264  221.9609 H   0  0  0  0  0  0  0  0  0  0  0  0
  146.6300   72.2600  221.6220 H   0  0  0  0  0  0  0  0  0  0  0  0
  139.2585   70.0389  222.5616 H   0  0  0  0  0  0  0  0  0  0  0  0
  139.0781   68.4261  224.4129 H   0  0  0  0  0  0  0  0  0  0  0  0
  139.4731   67.8823  226.6545 H   0  0  0  0  0  0  0  0  0  0  0  0
  141.4167   70.7210  229.2103 H   0  0  0  0  0  0  0  0  0  0  0  0
  141.5879   72.3201  227.3501 H   0  0  0  0  0  0  0  0  0  0  0  0
  1  2  2  0
  2  3  1  0
  3  4  1  0
  4  5  1  0
  5  6  2  0
  5  7  1  0
  7  8  1  0
  8  9  1  0
  9 10  1  0
 10 11  1  0
 10 12  1  0
 12 13  1  0
 13 14  1  0
  2 15  1  0
 15 16  2  0
 16 17  1  0
 17 18  2  0
 18 19  1  0
 19 20  2  0
 20 21  1  0
 20 22  1  0
 22 23  2  0
 23 24  1  0
 24 25  2  0
 12  7  1  0
 25 15  1  0
 24 18  1  0
  3 26  1  0
  4 27  1  0
  4 28  1  0
  8 29  1  0
  8 30  1  0
  9 31  1  0
  9 32  1  0
 10 33  1  6
 11 34  1  0
 12 35  1  1
 13 36  1  0
 13 37  1  0
 14 38  1  0
 16 39  1  0
 17 40  1  0
 19 41  1  0
 22 42  1  0
 23 43  1  0
M  END
>  <smiles>  (21) 
O=C(NCC(=O)N1CC[C@H](O)[C@H]1CO)c1ccc2cc(F)ccc2n1

>  <score_type>  (21) 
oracle

>  <origin>  (21) 
autodockgpu

>  <m_score__min__energy>  (21) 
-7.4800000000000004

>  <m_primary>  (21) 
energy

>  <rmsd>  (21) 
4.084475612733952

>  <m_score__min__rmsd>  (21) 
4.084475612733952

>  <meeko>  (21) 
{"free_energy": -6.98, "intermolecular_energy": -9.07, "internal_energy": -1.91, "cluster_size": 18, "cluster_id": 1, "rank_in_cluster": 4}

>  <energy>  (21) 
-7.21

>  <cluster_rmsd>  (21) 
0.09

>  <cluster>  (21) 
2

$$$$

     RDKit          3D

 43 45  0  0  0  0  0  0  0  0999 V2000
  140.2050   71.3810  221.1300 O   0  0  0  0  0  0  0  0  0  0  0  0
  139.9860   71.9270  222.2530 C   0  0  0  0  0  0  0  0  0  0  0  0
  139.7290   73.3390  222.3500 N   0  0  0  0  0  0  0  0  0  0  0  0
  139.7170   74.1730  221.1380 C   0  0  0  0  0  0  0  0  0  0  0  0
  140.0150   75.5680  221.4840 C   0  0  0  0  0  0  0  0  0  0  0  0
  139.8080   75.9140  222.6980 O   0  0  0  0  0  0  0  0  0  0  0  0
  140.5050   76.5810  220.6300 N   0  0  0  0  0  0  0  0  0  0  0  0
  139.7830   77.8870  220.5950 C   0  0  0  0  0  0  0  0  0  0  0  0
  140.5650   78.7220  219.6210 C   0  0  0  0  0  0  0  0  0  0  0  0
  141.9620   78.1260  219.7170 C   0  0  2  0  0  0  0  0  0  0  0  0
  142.7310   78.4560  218.6070 O   0  0  0  0  0  0  0  0  0  0  0  0
  141.6110   76.6320  219.7140 C   0  0  1  0  0  0  0  0  0  0  0  0
  142.7970   75.8010  220.0490 C   0  0  0  0  0  0  0  0  0  0  0  0
  144.0040   76.3780  219.7200 O   0  0  0  0  0  0  0  0  0  0  0  0
  139.9900   71.1270  223.4690 C   0  0  0  0  0  0  0  0  0  0  0  0
  139.4990   69.8430  223.4450 C   0  0  0  0  0  0  0  0  0  0  0  0
  139.4630   69.0130  224.5400 C   0  0  0  0  0  0  0  0  0  0  0  0
  139.9490   69.5070  225.7270 C   0  0  0  0  0  0  0  0  0  0  0  0
  139.9140   68.6820  226.8230 C   0  0  0  0  0  0  0  0  0  0  0  0
  140.3950   69.1490  228.0290 C   0  0  0  0  0  0  0  0  0  0  0  0
  140.3630   68.3350  229.1190 F   0  0  0  0  0  0  0  0  0  0  0  0
  140.8930   70.4380  228.0760 C   0  0  0  0  0  0  0  0  0  0  0  0
  140.9210   71.2550  226.9650 C   0  0  0  0  0  0  0  0  0  0  0  0
  140.4390   70.7940  225.7470 C   0  0  0  0  0  0  0  0  0  0  0  0
  140.4590   71.5780  224.6500 N   0  0  0  0  0  0  0  0  0  0  0  0
  139.5540   73.7340  223.2980 H   0  0  0  0  0  0  0  0  0  0  0  0
  140.4763   73.8025  220.4336 H   0  0  0  0  0  0  0  0  0  0  0  0
  138.7206   74.1214  220.6747 H   0  0  0  0  0  0  0  0  0  0  0  0
  138.7484   77.7503  220.2472 H   0  0  0  0  0  0  0  0  0  0  0  0
  139.7158   78.3550  221.5882 H   0  0  0  0  0  0  0  0  0  0  0  0
  140.1616   78.6255  218.6022 H   0  0  0  0  0  0  0  0  0  0  0  0
  140.5331   79.7986  219.8444 H   0  0  0  0  0  0  0  0  0  0  0  0
  142.5539   78.4695  220.5782 H   0  0  0  0  0  0  0  0  0  0  0  0
  143.6960   78.2730  218.7230 H   0  0  0  0  0  0  0  0  0  0  0  0
  141.3221   76.2060  218.7418 H   0  0  0  0  0  0  0  0  0  0  0  0
  142.7898   75.6110  221.1324 H   0  0  0  0  0  0  0  0  0  0  0  0
  142.7150   74.8799  219.4533 H   0  0  0  0  0  0  0  0  0  0  0  0
  144.0260   77.3340  219.9430 H   0  0  0  0  0  0  0  0  0  0  0  0
  139.1112   69.4563  222.4910 H   0  0  0  0  0  0  0  0  0  0  0  0
  139.0604   67.9918  224.4690 H   0  0  0  0  0  0  0  0  0  0  0  0
  139.5082   67.6628  226.7413 H   0  0  0  0  0  0  0  0  0  0  0  0
  141.2795   70.8246  229.0306 H   0  0  0  0  0  0  0  0  0  0  0  0
  141.3263   72.2746  227.0440 H   0  0  0  0  0  0  0  0  0  0  0  0
  1  2  2  0
  2  3  1  0
  3  4  1  0
  4  5  1  0
  5  6  2  0
  5  7  1  0
  7  8  1  0
  8  9  1  0
  9 10  1  0
 10 11  1  0
 10 12  1  0
 12 13  1  0
 13 14  1  0
  2 15  1  0
 15 16  2  0
 16 17  1  0
 17 18  2  0
 18 19  1  0
 19 20  2  0
 20 21  1  0
 20 22  1  0
 22 23  2  0
 23 24  1  0
 24 25  2  0
 12  7  1  0
 25 15  1  0
 24 18  1  0
  3 26  1  0
  4 27  1  0
  4 28  1  0
  8 29  1  0
  8 30  1  0
  9 31  1  0
  9 32  1  0
 10 33  1  1
 11 34  1  0
 12 35  1  6
 13 36  1  0
 13 37  1  0
 14 38  1  0
 16 39  1  0
 17 40  1  0
 19 41  1  0
 22 42  1  0
 23 43  1  0
M  END
>  <smiles>  (22) 
O=C(NCC(=O)N1CC[C@H](O)[C@H]1CO)c1ccc2cc(F)ccc2n1

>  <score_type>  (22) 
oracle

>  <origin>  (22) 
autodockgpu

>  <m_score__min__energy>  (22) 
-7.4800000000000004

>  <m_primary>  (22) 
energy

>  <rmsd>  (22) 
2.2642869994646704

>  <m_score__min__rmsd>  (22) 
2.2642869994646704

>  <meeko>  (22) 
{"free_energy": -6.61, "intermolecular_energy": -8.7, "internal_energy": -2.5, "cluster_size": 12, "cluster_id": 4, "rank_in_cluster": 3}

>  <energy>  (22) 
-7.21

>  <cluster_rmsd>  (22) 
0.06

>  <cluster>  (22) 
2

$$$$

     RDKit          3D

 43 45  0  0  0  0  0  0  0  0999 V2000
  141.5640   72.0330  221.0040 O   0  0  0  0  0  0  0  0  0  0  0  0
  140.9980   72.8750  221.7630 C   0  0  0  0  0  0  0  0  0  0  0  0
  140.2060   72.4460  222.8840 N   0  0  0  0  0  0  0  0  0  0  0  0
  140.0420   71.0110  223.1670 C   0  0  0  0  0  0  0  0  0  0  0  0
  139.4140   70.8250  224.4790 C   0  0  0  0  0  0  0  0  0  0  0  0
  138.1850   71.1680  224.5810 O   0  0  0  0  0  0  0  0  0  0  0  0
  140.0080   70.3100  225.6540 N   0  0  0  0  0  0  0  0  0  0  0  0
  140.3700   71.2660  226.7410 C   0  0  0  0  0  0  0  0  0  0  0  0
  140.9470   70.4000  227.8240 C   0  0  0  0  0  0  0  0  0  0  0  0
  140.2640   69.0620  227.5820 C   0  0  2  0  0  0  0  0  0  0  0  0
  140.9590   68.0210  228.1860 O   0  0  0  0  0  0  0  0  0  0  0  0
  140.3800   68.9810  226.0540 C   0  0  1  0  0  0  0  0  0  0  0  0
  139.5620   67.8650  225.5110 C   0  0  0  0  0  0  0  0  0  0  0  0
  139.0590   67.0130  226.4710 O   0  0  0  0  0  0  0  0  0  0  0  0
  141.1440   74.3020  221.5090 C   0  0  0  0  0  0  0  0  0  0  0  0
  141.9420   74.7350  220.4780 C   0  0  0  0  0  0  0  0  0  0  0  0
  142.1400   76.0580  220.1620 C   0  0  0  0  0  0  0  0  0  0  0  0
  141.4950   76.9970  220.9300 C   0  0  0  0  0  0  0  0  0  0  0  0
  141.6890   78.3200  220.6190 C   0  0  0  0  0  0  0  0  0  0  0  0
  141.0560   79.2860  221.3730 C   0  0  0  0  0  0  0  0  0  0  0  0
  141.2450   80.5980  221.0670 F   0  0  0  0  0  0  0  0  0  0  0  0
  140.2470   78.8720  222.4150 C   0  0  0  0  0  0  0  0  0  0  0  0
  140.0620   77.5390  222.7150 C   0  0  0  0  0  0  0  0  0  0  0  0
  140.6960   76.5590  221.9640 C   0  0  0  0  0  0  0  0  0  0  0  0
  140.5260   75.2500  222.2420 N   0  0  0  0  0  0  0  0  0  0  0  0
  139.7650   73.1820  223.4750 H   0  0  0  0  0  0  0  0  0  0  0  0
  139.4067   70.5575  222.3919 H   0  0  0  0  0  0  0  0  0  0  0  0
  141.0308   70.5291  223.1694 H   0  0  0  0  0  0  0  0  0  0  0  0
  141.1146   71.9941  226.3868 H   0  0  0  0  0  0  0  0  0  0  0  0
  139.5064   71.8520  227.0885 H   0  0  0  0  0  0  0  0  0  0  0  0
  142.0388   70.3122  227.7222 H   0  0  0  0  0  0  0  0  0  0  0  0
  140.7811   70.7980  228.8360 H   0  0  0  0  0  0  0  0  0  0  0  0
  139.2426   68.9847  227.9829 H   0  0  0  0  0  0  0  0  0  0  0  0
  140.5760   67.1280  228.0050 H   0  0  0  0  0  0  0  0  0  0  0  0
  141.3742   68.7260  225.6584 H   0  0  0  0  0  0  0  0  0  0  0  0
  138.7162   68.2961  224.9553 H   0  0  0  0  0  0  0  0  0  0  0  0
  140.2292   67.2650  224.8747 H   0  0  0  0  0  0  0  0  0  0  0  0
  139.7700   66.6200  227.0220 H   0  0  0  0  0  0  0  0  0  0  0  0
  142.4540   73.9763  219.8678 H   0  0  0  0  0  0  0  0  0  0  0  0
  142.7904   76.3538  219.3257 H   0  0  0  0  0  0  0  0  0  0  0  0
  142.3404   78.6058  219.7799 H   0  0  0  0  0  0  0  0  0  0  0  0
  139.7343   79.6307  223.0245 H   0  0  0  0  0  0  0  0  0  0  0  0
  139.4096   77.2512  223.5526 H   0  0  0  0  0  0  0  0  0  0  0  0
  1  2  2  0
  2  3  1  0
  3  4  1  0
  4  5  1  0
  5  6  2  0
  5  7  1  0
  7  8  1  0
  8  9  1  0
  9 10  1  0
 10 11  1  0
 10 12  1  0
 12 13  1  0
 13 14  1  0
  2 15  1  0
 15 16  2  0
 16 17  1  0
 17 18  2  0
 18 19  1  0
 19 20  2  0
 20 21  1  0
 20 22  1  0
 22 23  2  0
 23 24  1  0
 24 25  2  0
 12  7  1  0
 25 15  1  0
 24 18  1  0
  3 26  1  0
  4 27  1  0
  4 28  1  0
  8 29  1  0
  8 30  1  0
  9 31  1  0
  9 32  1  0
 10 33  1  6
 11 34  1  0
 12 35  1  1
 13 36  1  0
 13 37  1  0
 14 38  1  0
 16 39  1  0
 17 40  1  0
 19 41  1  0
 22 42  1  0
 23 43  1  0
M  END
>  <smiles>  (23) 
O=C(NCC(=O)N1CC[C@H](O)[C@H]1CO)c1ccc2cc(F)ccc2n1

>  <score_type>  (23) 
oracle

>  <origin>  (23) 
autodockgpu

>  <m_score__min__energy>  (23) 
-7.4800000000000004

>  <m_primary>  (23) 
energy

>  <rmsd>  (23) 
9.27216855601172

>  <m_score__min__rmsd>  (23) 
9.27216855601172

>  <meeko>  (23) 
{"free_energy": -7.22, "intermolecular_energy": -9.31, "internal_energy": -2.19, "cluster_size": 16, "cluster_id": 2, "rank_in_cluster": 2}

>  <energy>  (23) 
-7.2

>  <cluster_rmsd>  (23) 
0.13

>  <cluster>  (23) 
2

$$$$

     RDKit          3D

 43 45  0  0  0  0  0  0  0  0999 V2000
  140.1210   71.3860  221.1150 O   0  0  0  0  0  0  0  0  0  0  0  0
  139.9290   71.9360  222.2410 C   0  0  0  0  0  0  0  0  0  0  0  0
  139.7020   73.3520  222.3430 N   0  0  0  0  0  0  0  0  0  0  0  0
  139.6900   74.1880  221.1320 C   0  0  0  0  0  0  0  0  0  0  0  0
  140.0300   75.5730  221.4730 C   0  0  0  0  0  0  0  0  0  0  0  0
  139.8670   75.9200  222.6930 O   0  0  0  0  0  0  0  0  0  0  0  0
  140.5190   76.5780  220.6080 N   0  0  0  0  0  0  0  0  0  0  0  0
  139.7870   77.8780  220.5480 C   0  0  0  0  0  0  0  0  0  0  0  0
  140.5700   78.7040  219.5680 C   0  0  0  0  0  0  0  0  0  0  0  0
  141.9710   78.1210  219.6830 C   0  0  2  0  0  0  0  0  0  0  0  0
  142.7460   78.4410  218.5750 O   0  0  0  0  0  0  0  0  0  0  0  0
  141.6320   76.6250  219.7000 C   0  0  1  0  0  0  0  0  0  0  0  0
  142.8210   75.8080  220.0560 C   0  0  0  0  0  0  0  0  0  0  0  0
  144.0270   76.3900  219.7280 O   0  0  0  0  0  0  0  0  0  0  0  0
  139.9340   71.1340  223.4560 C   0  0  0  0  0  0  0  0  0  0  0  0
  139.4240   69.8580  223.4370 C   0  0  0  0  0  0  0  0  0  0  0  0
  139.3870   69.0280  224.5320 C   0  0  0  0  0  0  0  0  0  0  0  0
  139.8930   69.5130  225.7130 C   0  0  0  0  0  0  0  0  0  0  0  0
  139.8580   68.6880  226.8100 C   0  0  0  0  0  0  0  0  0  0  0  0
  140.3590   69.1470  228.0100 C   0  0  0  0  0  0  0  0  0  0  0  0
  140.3270   68.3320  229.1000 F   0  0  0  0  0  0  0  0  0  0  0  0
  140.8770   70.4280  228.0530 C   0  0  0  0  0  0  0  0  0  0  0  0
  140.9050   71.2450  226.9420 C   0  0  0  0  0  0  0  0  0  0  0  0
  140.4030   70.7930  225.7290 C   0  0  0  0  0  0  0  0  0  0  0  0
  140.4230   71.5770  224.6320 N   0  0  0  0  0  0  0  0  0  0  0  0
  139.5490   73.7490  223.2930 H   0  0  0  0  0  0  0  0  0  0  0  0
  140.4266   73.7987  220.4138 H   0  0  0  0  0  0  0  0  0  0  0  0
  138.6843   74.1631  220.6870 H   0  0  0  0  0  0  0  0  0  0  0  0
  138.7562   77.7281  220.1944 H   0  0  0  0  0  0  0  0  0  0  0  0
  139.7084   78.3603  221.5335 H   0  0  0  0  0  0  0  0  0  0  0  0
  140.1751   78.5891  218.5478 H   0  0  0  0  0  0  0  0  0  0  0  0
  140.5281   79.7834  219.7755 H   0  0  0  0  0  0  0  0  0  0  0  0
  142.5537   78.4821  220.5433 H   0  0  0  0  0  0  0  0  0  0  0  0
  143.7120   78.2770  218.7040 H   0  0  0  0  0  0  0  0  0  0  0  0
  141.3543   76.1830  218.7317 H   0  0  0  0  0  0  0  0  0  0  0  0
  142.8066   75.6333  221.1419 H   0  0  0  0  0  0  0  0  0  0  0  0
  142.7507   74.8779  219.4730 H   0  0  0  0  0  0  0  0  0  0  0  0
  144.0410   77.3490  219.9400 H   0  0  0  0  0  0  0  0  0  0  0  0
  139.0206   69.4775  222.4870 H   0  0  0  0  0  0  0  0  0  0  0  0
  138.9678   68.0132  224.4649 H   0  0  0  0  0  0  0  0  0  0  0  0
  139.4362   67.6750  226.7327 H   0  0  0  0  0  0  0  0  0  0  0  0
  141.2797   70.8079  229.0035 H   0  0  0  0  0  0  0  0  0  0  0  0
  141.3265   72.2582  227.0173 H   0  0  0  0  0  0  0  0  0  0  0  0
  1  2  2  0
  2  3  1  0
  3  4  1  0
  4  5  1  0
  5  6  2  0
  5  7  1  0
  7  8  1  0
  8  9  1  0
  9 10  1  0
 10 11  1  0
 10 12  1  0
 12 13  1  0
 13 14  1  0
  2 15  1  0
 15 16  2  0
 16 17  1  0
 17 18  2  0
 18 19  1  0
 19 20  2  0
 20 21  1  0
 20 22  1  0
 22 23  2  0
 23 24  1  0
 24 25  2  0
 12  7  1  0
 25 15  1  0
 24 18  1  0
  3 26  1  0
  4 27  1  0
  4 28  1  0
  8 29  1  0
  8 30  1  0
  9 31  1  0
  9 32  1  0
 10 33  1  1
 11 34  1  0
 12 35  1  6
 13 36  1  0
 13 37  1  0
 14 38  1  0
 16 39  1  0
 17 40  1  0
 19 41  1  0
 22 42  1  0
 23 43  1  0
M  END
>  <smiles>  (24) 
O=C(NCC(=O)N1CC[C@H](O)[C@H]1CO)c1ccc2cc(F)ccc2n1

>  <score_type>  (24) 
oracle

>  <origin>  (24) 
autodockgpu

>  <m_score__min__energy>  (24) 
-7.4800000000000004

>  <m_primary>  (24) 
energy

>  <rmsd>  (24) 
2.2476566987507827

>  <m_score__min__rmsd>  (24) 
2.2476566987507827

>  <meeko>  (24) 
{"free_energy": -6.6, "intermolecular_energy": -8.69, "internal_energy": -2.5, "cluster_size": 12, "cluster_id": 4, "rank_in_cluster": 5}

>  <energy>  (24) 
-7.19

>  <cluster_rmsd>  (24) 
0.16

>  <cluster>  (24) 
2

$$$$

     RDKit          3D

 43 45  0  0  0  0  0  0  0  0999 V2000
  139.8690   71.2550  220.8220 O   0  0  0  0  0  0  0  0  0  0  0  0
  140.0830   71.9250  221.8760 C   0  0  0  0  0  0  0  0  0  0  0  0
  140.3320   73.3400  221.8140 N   0  0  0  0  0  0  0  0  0  0  0  0
  140.3410   74.0330  220.5160 C   0  0  0  0  0  0  0  0  0  0  0  0
  141.6300   74.7030  220.3120 C   0  0  0  0  0  0  0  0  0  0  0  0
  141.6210   75.9820  220.3280 O   0  0  0  0  0  0  0  0  0  0  0  0
  142.8900   74.1000  220.0960 N   0  0  0  0  0  0  0  0  0  0  0  0
  143.2250   72.8670  220.8680 C   0  0  0  0  0  0  0  0  0  0  0  0
  144.5980   72.4880  220.3900 C   0  0  0  0  0  0  0  0  0  0  0  0
  144.6350   73.0700  218.9850 C   0  0  2  0  0  0  0  0  0  0  0  0
  145.9410   73.2090  218.5280 O   0  0  0  0  0  0  0  0  0  0  0  0
  144.0010   74.4410  219.2510 C   0  0  1  0  0  0  0  0  0  0  0  0
  143.6850   75.1440  217.9800 C   0  0  0  0  0  0  0  0  0  0  0  0
  144.6090   74.9420  216.9770 O   0  0  0  0  0  0  0  0  0  0  0  0
  140.0800   71.2660  223.1740 C   0  0  0  0  0  0  0  0  0  0  0  0
  139.5490   70.0050  223.3010 C   0  0  0  0  0  0  0  0  0  0  0  0
  139.5030   69.3050  224.4830 C   0  0  0  0  0  0  0  0  0  0  0  0
  140.0210   69.9130  225.6010 C   0  0  0  0  0  0  0  0  0  0  0  0
  139.9760   69.2180  226.7840 C   0  0  0  0  0  0  0  0  0  0  0  0
  140.4880   69.8020  227.9240 C   0  0  0  0  0  0  0  0  0  0  0  0
  140.4470   69.1170  229.0990 F   0  0  0  0  0  0  0  0  0  0  0  0
  141.0270   71.0720  227.8200 C   0  0  0  0  0  0  0  0  0  0  0  0
  141.0640   71.7560  226.6230 C   0  0  0  0  0  0  0  0  0  0  0  0
  140.5510   71.1780  225.4710 C   0  0  0  0  0  0  0  0  0  0  0  0
  140.5800   71.8320  224.2920 N   0  0  0  0  0  0  0  0  0  0  0  0
  140.5010   73.8400  222.7120 H   0  0  0  0  0  0  0  0  0  0  0  0
  140.1801   73.3005  219.7112 H   0  0  0  0  0  0  0  0  0  0  0  0
  139.5381   74.7848  220.5033 H   0  0  0  0  0  0  0  0  0  0  0  0
  143.2324   73.0742  221.9483 H   0  0  0  0  0  0  0  0  0  0  0  0
  142.4905   72.0630  220.7131 H   0  0  0  0  0  0  0  0  0  0  0  0
  145.3767   72.9352  221.0253 H   0  0  0  0  0  0  0  0  0  0  0  0
  144.7869   71.4047  220.4190 H   0  0  0  0  0  0  0  0  0  0  0  0
  144.1347   72.4601  218.2184 H   0  0  0  0  0  0  0  0  0  0  0  0
  146.1740   74.1330  218.2630 H   0  0  0  0  0  0  0  0  0  0  0  0
  144.6454   75.1820  219.7468 H   0  0  0  0  0  0  0  0  0  0  0  0
  142.7065   74.7895  217.6239 H   0  0  0  0  0  0  0  0  0  0  0  0
  143.6927   76.2209  218.2043 H   0  0  0  0  0  0  0  0  0  0  0  0
  145.5290   74.9480  217.3190 H   0  0  0  0  0  0  0  0  0  0  0  0
  139.1352   69.5262  222.4012 H   0  0  0  0  0  0  0  0  0  0  0  0
  139.0678   68.2959  224.5321 H   0  0  0  0  0  0  0  0  0  0  0  0
  139.5379   68.2097  226.8223 H   0  0  0  0  0  0  0  0  0  0  0  0
  141.4390   71.5512  228.7204 H   0  0  0  0  0  0  0  0  0  0  0  0
  141.5021   72.7641  226.5816 H   0  0  0  0  0  0  0  0  0  0  0  0
  1  2  2  0
  2  3  1  0
  3  4  1  0
  4  5  1  0
  5  6  2  0
  5  7  1  0
  7  8  1  0
  8  9  1  0
  9 10  1  0
 10 11  1  0
 10 12  1  0
 12 13  1  0
 13 14  1  0
  2 15  1  0
 15 16  2  0
 16 17  1  0
 17 18  2  0
 18 19  1  0
 19 20  2  0
 20 21  1  0
 20 22  1  0
 22 23  2  0
 23 24  1  0
 24 25  2  0
 12  7  1  0
 25 15  1  0
 24 18  1  0
  3 26  1  0
  4 27  1  0
  4 28  1  0
  8 29  1  0
  8 30  1  0
  9 31  1  0
  9 32  1  0
 10 33  1  6
 11 34  1  0
 12 35  1  1
 13 36  1  0
 13 37  1  0
 14 38  1  0
 16 39  1  0
 17 40  1  0
 19 41  1  0
 22 42  1  0
 23 43  1  0
M  END
>  <smiles>  (25) 
O=C(NCC(=O)N1CC[C@H](O)[C@H]1CO)c1ccc2cc(F)ccc2n1

>  <score_type>  (25) 
oracle

>  <origin>  (25) 
autodockgpu

>  <m_score__min__energy>  (25) 
-7.4800000000000004

>  <m_primary>  (25) 
energy

>  <rmsd>  (25) 
3.1007863261996986

>  <m_score__min__rmsd>  (25) 
3.1007863261996986

>  <meeko>  (25) 
{"free_energy": -6.55, "intermolecular_energy": -8.64, "internal_energy": -2.25, "cluster_size": 18, "cluster_id": 1, "rank_in_cluster": 11}

>  <energy>  (25) 
-7.19

>  <cluster_rmsd>  (25) 
0.1

>  <cluster>  (25) 
2

$$$$

     RDKit          3D

 43 45  0  0  0  0  0  0  0  0999 V2000
  141.6250   71.9650  221.0680 O   0  0  0  0  0  0  0  0  0  0  0  0
  140.9490   72.8270  221.7050 C   0  0  0  0  0  0  0  0  0  0  0  0
  139.9900   72.4280  222.6990 N   0  0  0  0  0  0  0  0  0  0  0  0
  139.7800   71.0010  222.9930 C   0  0  0  0  0  0  0  0  0  0  0  0
  139.2380   70.8400  224.3460 C   0  0  0  0  0  0  0  0  0  0  0  0
  138.0150   71.1760  224.5180 O   0  0  0  0  0  0  0  0  0  0  0  0
  139.9090   70.3560  225.4910 N   0  0  0  0  0  0  0  0  0  0  0  0
  140.3960   71.3450  226.4970 C   0  0  0  0  0  0  0  0  0  0  0  0
  141.0300   70.5070  227.5700 C   0  0  0  0  0  0  0  0  0  0  0  0
  140.2820   69.1880  227.4510 C   0  0  2  0  0  0  0  0  0  0  0  0
  140.9870   68.1490  228.0460 O   0  0  0  0  0  0  0  0  0  0  0  0
  140.2650   69.0330  225.9240 C   0  0  1  0  0  0  0  0  0  0  0  0
  139.3660   67.9260  225.5060 C   0  0  0  0  0  0  0  0  0  0  0  0
  139.1520   66.9720  226.4780 O   0  0  0  0  0  0  0  0  0  0  0  0
  141.1360   74.2460  221.4370 C   0  0  0  0  0  0  0  0  0  0  0  0
  142.0110   74.6480  220.4560 C   0  0  0  0  0  0  0  0  0  0  0  0
  142.2520   75.9620  220.1320 C   0  0  0  0  0  0  0  0  0  0  0  0
  141.5720   76.9250  220.8370 C   0  0  0  0  0  0  0  0  0  0  0  0
  141.8100   78.2380  220.5170 C   0  0  0  0  0  0  0  0  0  0  0  0
  141.1420   79.2280  221.2080 C   0  0  0  0  0  0  0  0  0  0  0  0
  141.3740   80.5310  220.8940 F   0  0  0  0  0  0  0  0  0  0  0  0
  140.2560   78.8460  222.1990 C   0  0  0  0  0  0  0  0  0  0  0  0
  140.0280   77.5220  222.5080 C   0  0  0  0  0  0  0  0  0  0  0  0
  140.6960   76.5180  221.8200 C   0  0  0  0  0  0  0  0  0  0  0  0
  140.4850   75.2180  222.1080 N   0  0  0  0  0  0  0  0  0  0  0  0
  139.4630   73.1800  223.1920 H   0  0  0  0  0  0  0  0  0  0  0  0
  139.0714   70.5799  222.2646 H   0  0  0  0  0  0  0  0  0  0  0  0
  140.7431   70.4739  222.9258 H   0  0  0  0  0  0  0  0  0  0  0  0
  141.1343   72.0255  226.0477 H   0  0  0  0  0  0  0  0  0  0  0  0
  139.5865   71.9804  226.8854 H   0  0  0  0  0  0  0  0  0  0  0  0
  142.1055   70.3712  227.3834 H   0  0  0  0  0  0  0  0  0  0  0  0
  140.9636   70.9573  228.5714 H   0  0  0  0  0  0  0  0  0  0  0  0
  139.2960   69.1696  227.9383 H   0  0  0  0  0  0  0  0  0  0  0  0
  140.4740   67.3060  228.1140 H   0  0  0  0  0  0  0  0  0  0  0  0
  141.2124   68.7214  225.4600 H   0  0  0  0  0  0  0  0  0  0  0  0
  138.3936   68.3583  225.2273 H   0  0  0  0  0  0  0  0  0  0  0  0
  139.8627   67.4159  224.6675 H   0  0  0  0  0  0  0  0  0  0  0  0
  139.9950   66.6390  226.8550 H   0  0  0  0  0  0  0  0  0  0  0  0
  142.5514   73.8706  219.8960 H   0  0  0  0  0  0  0  0  0  0  0  0
  142.9631   76.2323  219.3375 H   0  0  0  0  0  0  0  0  0  0  0  0
  142.5233   78.4976  219.7208 H   0  0  0  0  0  0  0  0  0  0  0  0
  139.7158   79.6238  222.7587 H   0  0  0  0  0  0  0  0  0  0  0  0
  139.3140   77.2600  223.3027 H   0  0  0  0  0  0  0  0  0  0  0  0
  1  2  2  0
  2  3  1  0
  3  4  1  0
  4  5  1  0
  5  6  2  0
  5  7  1  0
  7  8  1  0
  8  9  1  0
  9 10  1  0
 10 11  1  0
 10 12  1  0
 12 13  1  0
 13 14  1  0
  2 15  1  0
 15 16  2  0
 16 17  1  0
 17 18  2  0
 18 19  1  0
 19 20  2  0
 20 21  1  0
 20 22  1  0
 22 23  2  0
 23 24  1  0
 24 25  2  0
 12  7  1  0
 25 15  1  0
 24 18  1  0
  3 26  1  0
  4 27  1  0
  4 28  1  0
  8 29  1  0
  8 30  1  0
  9 31  1  0
  9 32  1  0
 10 33  1  1
 11 34  1  0
 12 35  1  6
 13 36  1  0
 13 37  1  0
 14 38  1  0
 16 39  1  0
 17 40  1  0
 19 41  1  0
 22 42  1  0
 23 43  1  0
M  END
>  <smiles>  (26) 
O=C(NCC(=O)N1CC[C@H](O)[C@H]1CO)c1ccc2cc(F)ccc2n1

>  <score_type>  (26) 
oracle

>  <origin>  (26) 
autodockgpu

>  <m_score__min__energy>  (26) 
-7.4800000000000004

>  <m_primary>  (26) 
energy

>  <rmsd>  (26) 
9.209656987801699

>  <m_score__min__rmsd>  (26) 
9.209656987801699

>  <meeko>  (26) 
{"free_energy": -7.15, "intermolecular_energy": -9.23, "internal_energy": -2.26, "cluster_size": 16, "cluster_id": 2, "rank_in_cluster": 8}

>  <energy>  (26) 
-7.15

>  <cluster_rmsd>  (26) 
0.11

>  <cluster>  (26) 
2

$$$$

     RDKit          3D

 43 45  0  0  0  0  0  0  0  0999 V2000
  141.6950   72.0980  221.1100 O   0  0  0  0  0  0  0  0  0  0  0  0
  141.0260   72.9360  221.7860 C   0  0  0  0  0  0  0  0  0  0  0  0
  140.1400   72.5020  222.8330 N   0  0  0  0  0  0  0  0  0  0  0  0
  139.9990   71.0690  223.1340 C   0  0  0  0  0  0  0  0  0  0  0  0
  139.3950   70.8900  224.4590 C   0  0  0  0  0  0  0  0  0  0  0  0
  138.1720   71.2460  224.5850 O   0  0  0  0  0  0  0  0  0  0  0  0
  140.0060   70.3680  225.6220 N   0  0  0  0  0  0  0  0  0  0  0  0
  140.4130   71.3220  226.6950 C   0  0  0  0  0  0  0  0  0  0  0  0
  140.9980   70.4500  227.7690 C   0  0  0  0  0  0  0  0  0  0  0  0
  140.2830   69.1250  227.5500 C   0  0  2  0  0  0  0  0  0  0  0  0
  140.9710   68.0730  228.1440 O   0  0  0  0  0  0  0  0  0  0  0  0
  140.3600   69.0340  226.0200 C   0  0  1  0  0  0  0  0  0  0  0  0
  139.5080   67.9320  225.5040 C   0  0  0  0  0  0  0  0  0  0  0  0
  139.1360   67.0090  226.4570 O   0  0  0  0  0  0  0  0  0  0  0  0
  141.1460   74.3600  221.5110 C   0  0  0  0  0  0  0  0  0  0  0  0
  141.9380   74.7930  220.4740 C   0  0  0  0  0  0  0  0  0  0  0  0
  142.1120   76.1150  220.1390 C   0  0  0  0  0  0  0  0  0  0  0  0
  141.4500   77.0530  220.8930 C   0  0  0  0  0  0  0  0  0  0  0  0
  141.6210   78.3740  220.5620 C   0  0  0  0  0  0  0  0  0  0  0  0
  140.9700   79.3400  221.3010 C   0  0  0  0  0  0  0  0  0  0  0  0
  141.1360   80.6510  220.9770 F   0  0  0  0  0  0  0  0  0  0  0  0
  140.1680   78.9270  222.3490 C   0  0  0  0  0  0  0  0  0  0  0  0
  140.0060   77.5950  222.6690 C   0  0  0  0  0  0  0  0  0  0  0  0
  140.6580   76.6160  221.9320 C   0  0  0  0  0  0  0  0  0  0  0  0
  140.5120   75.3080  222.2300 N   0  0  0  0  0  0  0  0  0  0  0  0
  139.6160   73.2340  223.3560 H   0  0  0  0  0  0  0  0  0  0  0  0
  139.3566   70.5991  222.3747 H   0  0  0  0  0  0  0  0  0  0  0  0
  140.9936   70.5993  223.1249 H   0  0  0  0  0  0  0  0  0  0  0  0
  141.1635   72.0331  226.3193 H   0  0  0  0  0  0  0  0  0  0  0  0
  139.5698   71.9271  227.0596 H   0  0  0  0  0  0  0  0  0  0  0  0
  142.0851   70.3398  227.6422 H   0  0  0  0  0  0  0  0  0  0  0  0
  140.8640   70.8562  228.7824 H   0  0  0  0  0  0  0  0  0  0  0  0
  139.2699   69.0702  227.9750 H   0  0  0  0  0  0  0  0  0  0  0  0
  140.4760   67.2170  228.1330 H   0  0  0  0  0  0  0  0  0  0  0  0
  141.3387   68.7572  225.6010 H   0  0  0  0  0  0  0  0  0  0  0  0
  138.5953   68.3732  225.0770 H   0  0  0  0  0  0  0  0  0  0  0  0
  140.1100   67.3907  224.7593 H   0  0  0  0  0  0  0  0  0  0  0  0
  139.9120   66.6300  226.9230 H   0  0  0  0  0  0  0  0  0  0  0  0
  142.4648   74.0352  219.8756 H   0  0  0  0  0  0  0  0  0  0  0  0
  142.7573   76.4105  219.2986 H   0  0  0  0  0  0  0  0  0  0  0  0
  142.2681   78.6585  219.7192 H   0  0  0  0  0  0  0  0  0  0  0  0
  139.6419   79.6856  222.9472 H   0  0  0  0  0  0  0  0  0  0  0  0
  139.3584   77.3079  223.5105 H   0  0  0  0  0  0  0  0  0  0  0  0
  1  2  2  0
  2  3  1  0
  3  4  1  0
  4  5  1  0
  5  6  2  0
  5  7  1  0
  7  8  1  0
  8  9  1  0
  9 10  1  0
 10 11  1  0
 10 12  1  0
 12 13  1  0
 13 14  1  0
  2 15  1  0
 15 16  2  0
 16 17  1  0
 17 18  2  0
 18 19  1  0
 19 20  2  0
 20 21  1  0
 20 22  1  0
 22 23  2  0
 23 24  1  0
 24 25  2  0
 12  7  1  0
 25 15  1  0
 24 18  1  0
  3 26  1  0
  4 27  1  0
  4 28  1  0
  8 29  1  0
  8 30  1  0
  9 31  1  0
  9 32  1  0
 10 33  1  6
 11 34  1  0
 12 35  1  1
 13 36  1  0
 13 37  1  0
 14 38  1  0
 16 39  1  0
 17 40  1  0
 19 41  1  0
 22 42  1  0
 23 43  1  0
M  END
>  <smiles>  (27) 
O=C(NCC(=O)N1CC[C@H](O)[C@H]1CO)c1ccc2cc(F)ccc2n1

>  <score_type>  (27) 
oracle

>  <origin>  (27) 
autodockgpu

>  <m_score__min__energy>  (27) 
-7.4800000000000004

>  <m_primary>  (27) 
energy

>  <rmsd>  (27) 
9.274508844088443

>  <m_score__min__rmsd>  (27) 
9.274508844088443

>  <meeko>  (27) 
{"free_energy": -7.19, "intermolecular_energy": -9.28, "internal_energy": -2.25, "cluster_size": 16, "cluster_id": 2, "rank_in_cluster": 6}

>  <energy>  (27) 
-7.12

>  <cluster_rmsd>  (27) 
0.24

>  <cluster>  (27) 
2

$$$$

     RDKit          3D

 43 45  0  0  0  0  0  0  0  0999 V2000
  140.7820   71.8110  221.1930 O   0  0  0  0  0  0  0  0  0  0  0  0
  140.3290   72.3220  222.2610 C   0  0  0  0  0  0  0  0  0  0  0  0
  139.9340   73.7030  222.3100 N   0  0  0  0  0  0  0  0  0  0  0  0
  140.0500   74.5480  221.1110 C   0  0  0  0  0  0  0  0  0  0  0  0
  140.3760   75.9260  221.4950 C   0  0  0  0  0  0  0  0  0  0  0  0
  140.1620   76.2470  222.7150 O   0  0  0  0  0  0  0  0  0  0  0  0
  140.9000   76.9490  220.6730 N   0  0  0  0  0  0  0  0  0  0  0  0
  140.5270   76.9550  219.2280 C   0  0  0  0  0  0  0  0  0  0  0  0
  141.2250   78.1610  218.6660 C   0  0  0  0  0  0  0  0  0  0  0  0
  141.3430   79.0730  219.8780 C   0  0  2  0  0  0  0  0  0  0  0  0
  142.3220   80.0420  219.6900 O   0  0  0  0  0  0  0  0  0  0  0  0
  141.7830   78.0510  220.9350 C   0  0  1  0  0  0  0  0  0  0  0  0
  141.7380   78.6370  222.3000 C   0  0  0  0  0  0  0  0  0  0  0  0
  142.6260   79.6720  222.5020 O   0  0  0  0  0  0  0  0  0  0  0  0
  140.2020   71.5100  223.4630 C   0  0  0  0  0  0  0  0  0  0  0  0
  139.5780   70.2860  223.4000 C   0  0  0  0  0  0  0  0  0  0  0  0
  139.4120   69.4510  224.4790 C   0  0  0  0  0  0  0  0  0  0  0  0
  139.9020   69.8750  225.6900 C   0  0  0  0  0  0  0  0  0  0  0  0
  139.7380   69.0440  226.7710 C   0  0  0  0  0  0  0  0  0  0  0  0
  140.2190   69.4420  228.0010 C   0  0  0  0  0  0  0  0  0  0  0  0
  140.0590   68.6230  229.0750 F   0  0  0  0  0  0  0  0  0  0  0  0
  140.8500   70.6700  228.0880 C   0  0  0  0  0  0  0  0  0  0  0  0
  141.0070   71.4920  226.9920 C   0  0  0  0  0  0  0  0  0  0  0  0
  140.5260   71.1020  225.7500 C   0  0  0  0  0  0  0  0  0  0  0  0
  140.6710   71.8930  224.6670 N   0  0  0  0  0  0  0  0  0  0  0  0
  139.5680   74.0690  223.2130 H   0  0  0  0  0  0  0  0  0  0  0  0
  140.8462   74.1528  220.4630 H   0  0  0  0  0  0  0  0  0  0  0  0
  139.0912   74.5417  220.5719 H   0  0  0  0  0  0  0  0  0  0  0  0
  140.8760   76.0372  218.7322 H   0  0  0  0  0  0  0  0  0  0  0  0
  139.4381   76.9927  219.0765 H   0  0  0  0  0  0  0  0  0  0  0  0
  142.2167   77.8969  218.2701 H   0  0  0  0  0  0  0  0  0  0  0  0
  140.6899   78.6221  217.8228 H   0  0  0  0  0  0  0  0  0  0  0  0
  140.4321   79.6399  220.1205 H   0  0  0  0  0  0  0  0  0  0  0  0
  142.9330   80.1470  220.4600 H   0  0  0  0  0  0  0  0  0  0  0  0
  142.8311   77.7215  220.8818 H   0  0  0  0  0  0  0  0  0  0  0  0
  140.7209   79.0157  222.4791 H   0  0  0  0  0  0  0  0  0  0  0  0
  142.0243   77.8354  222.9968 H   0  0  0  0  0  0  0  0  0  0  0  0
  143.2090   79.8110  221.7250 H   0  0  0  0  0  0  0  0  0  0  0  0
  139.1878   69.9550  222.4262 H   0  0  0  0  0  0  0  0  0  0  0  0
  138.9058   68.4798  224.3765 H   0  0  0  0  0  0  0  0  0  0  0  0
  139.2303   68.0748  226.6576 H   0  0  0  0  0  0  0  0  0  0  0  0
  141.2388   71.0012  229.0622 H   0  0  0  0  0  0  0  0  0  0  0  0
  141.5157   72.4610  227.1026 H   0  0  0  0  0  0  0  0  0  0  0  0
  1  2  2  0
  2  3  1  0
  3  4  1  0
  4  5  1  0
  5  6  2  0
  5  7  1  0
  7  8  1  0
  8  9  1  0
  9 10  1  0
 10 11  1  0
 10 12  1  0
 12 13  1  0
 13 14  1  0
  2 15  1  0
 15 16  2  0
 16 17  1  0
 17 18  2  0
 18 19  1  0
 19 20  2  0
 20 21  1  0
 20 22  1  0
 22 23  2  0
 23 24  1  0
 24 25  2  0
 12  7  1  0
 25 15  1  0
 24 18  1  0
  3 26  1  0
  4 27  1  0
  4 28  1  0
  8 29  1  0
  8 30  1  0
  9 31  1  0
  9 32  1  0
 10 33  1  1
 11 34  1  0
 12 35  1  6
 13 36  1  0
 13 37  1  0
 14 38  1  0
 16 39  1  0
 17 40  1  0
 19 41  1  0
 22 42  1  0
 23 43  1  0
M  END
>  <smiles>  (28) 
O=C(NCC(=O)N1CC[C@H](O)[C@H]1CO)c1ccc2cc(F)ccc2n1

>  <score_type>  (28) 
oracle

>  <origin>  (28) 
autodockgpu

>  <m_score__min__energy>  (28) 
-7.4800000000000004

>  <m_primary>  (28) 
energy

>  <rmsd>  (28) 
2.593694868486186

>  <m_score__min__rmsd>  (28) 
2.593694868486186

>  <meeko>  (28) 
{"free_energy": -6.58, "intermolecular_energy": -8.67, "internal_energy": -2.32, "cluster_size": 12, "cluster_id": 4, "rank_in_cluster": 6}

>  <energy>  (28) 
-7.12

>  <cluster_rmsd>  (28) 
0.21

>  <cluster>  (28) 
2

$$$$

     RDKit          3D

 43 45  0  0  0  0  0  0  0  0999 V2000
  141.6010   71.9420  221.0020 O   0  0  0  0  0  0  0  0  0  0  0  0
  140.9910   72.8050  221.7010 C   0  0  0  0  0  0  0  0  0  0  0  0
  140.1210   72.4070  222.7750 N   0  0  0  0  0  0  0  0  0  0  0  0
  139.9280   70.9810  223.0790 C   0  0  0  0  0  0  0  0  0  0  0  0
  139.3520   70.8250  224.4190 C   0  0  0  0  0  0  0  0  0  0  0  0
  138.1280   71.1720  224.5620 O   0  0  0  0  0  0  0  0  0  0  0  0
  139.9910   70.3350  225.5800 N   0  0  0  0  0  0  0  0  0  0  0  0
  140.3840   71.3120  226.6380 C   0  0  0  0  0  0  0  0  0  0  0  0
  141.0060   70.4700  227.7150 C   0  0  0  0  0  0  0  0  0  0  0  0
  140.3260   69.1230  227.5200 C   0  0  2  0  0  0  0  0  0  0  0  0
  141.0500   68.0980  228.1170 O   0  0  0  0  0  0  0  0  0  0  0  0
  140.3880   69.0160  225.9900 C   0  0  1  0  0  0  0  0  0  0  0  0
  139.5610   67.8840  225.4970 C   0  0  0  0  0  0  0  0  0  0  0  0
  139.1350   67.0210  226.4840 O   0  0  0  0  0  0  0  0  0  0  0  0
  141.1640   74.2240  221.4240 C   0  0  0  0  0  0  0  0  0  0  0  0
  142.0280   74.6280  220.4350 C   0  0  0  0  0  0  0  0  0  0  0  0
  142.2560   75.9420  220.1020 C   0  0  0  0  0  0  0  0  0  0  0  0
  141.5730   76.9030  220.8080 C   0  0  0  0  0  0  0  0  0  0  0  0
  141.7980   78.2170  220.4790 C   0  0  0  0  0  0  0  0  0  0  0  0
  141.1270   79.2040  221.1700 C   0  0  0  0  0  0  0  0  0  0  0  0
  141.3460   80.5080  220.8480 F   0  0  0  0  0  0  0  0  0  0  0  0
  140.2520   78.8210  222.1700 C   0  0  0  0  0  0  0  0  0  0  0  0
  140.0380   77.4960  222.4880 C   0  0  0  0  0  0  0  0  0  0  0  0
  140.7080   76.4940  221.7990 C   0  0  0  0  0  0  0  0  0  0  0  0
  140.5110   75.1940  222.0960 N   0  0  0  0  0  0  0  0  0  0  0  0
  139.6470   73.1600  223.3170 H   0  0  0  0  0  0  0  0  0  0  0  0
  139.2469   70.5396  222.3365 H   0  0  0  0  0  0  0  0  0  0  0  0
  140.9016   70.4703  223.0438 H   0  0  0  0  0  0  0  0  0  0  0  0
  141.1097   72.0394  226.2453 H   0  0  0  0  0  0  0  0  0  0  0  0
  139.5281   71.8968  227.0061 H   0  0  0  0  0  0  0  0  0  0  0  0
  142.0942   70.3889  227.5764 H   0  0  0  0  0  0  0  0  0  0  0  0
  140.8726   70.8845  228.7252 H   0  0  0  0  0  0  0  0  0  0  0  0
  139.3200   69.0451  227.9580 H   0  0  0  0  0  0  0  0  0  0  0  0
  140.6130   67.2130  228.0560 H   0  0  0  0  0  0  0  0  0  0  0  0
  141.3695   68.7622  225.5632 H   0  0  0  0  0  0  0  0  0  0  0  0
  138.6741   68.2982  224.9951 H   0  0  0  0  0  0  0  0  0  0  0  0
  140.2003   67.2980  224.8203 H   0  0  0  0  0  0  0  0  0  0  0  0
  139.8860   66.6500  226.9960 H   0  0  0  0  0  0  0  0  0  0  0  0
  142.5707   73.8521  219.8752 H   0  0  0  0  0  0  0  0  0  0  0  0
  142.9587   76.2140  219.3006 H   0  0  0  0  0  0  0  0  0  0  0  0
  142.5030   78.4785  219.6762 H   0  0  0  0  0  0  0  0  0  0  0  0
  139.7096   79.5974  222.7294 H   0  0  0  0  0  0  0  0  0  0  0  0
  139.3337   77.2321  223.2907 H   0  0  0  0  0  0  0  0  0  0  0  0
  1  2  2  0
  2  3  1  0
  3  4  1  0
  4  5  1  0
  5  6  2  0
  5  7  1  0
  7  8  1  0
  8  9  1  0
  9 10  1  0
 10 11  1  0
 10 12  1  0
 12 13  1  0
 13 14  1  0
  2 15  1  0
 15 16  2  0
 16 17  1  0
 17 18  2  0
 18 19  1  0
 19 20  2  0
 20 21  1  0
 20 22  1  0
 22 23  2  0
 23 24  1  0
 24 25  2  0
 12  7  1  0
 25 15  1  0
 24 18  1  0
  3 26  1  0
  4 27  1  0
  4 28  1  0
  8 29  1  0
  8 30  1  0
  9 31  1  0
  9 32  1  0
 10 33  1  1
 11 34  1  0
 12 35  1  1
 13 36  1  0
 13 37  1  0
 14 38  1  0
 16 39  1  0
 17 40  1  0
 19 41  1  0
 22 42  1  0
 23 43  1  0
M  END
>  <smiles>  (29) 
O=C(NCC(=O)N1CC[C@H](O)[C@H]1CO)c1ccc2cc(F)ccc2n1

>  <score_type>  (29) 
oracle

>  <origin>  (29) 
autodockgpu

>  <m_score__min__energy>  (29) 
-7.4800000000000004

>  <m_primary>  (29) 
energy

>  <rmsd>  (29) 
9.245979309708106

>  <m_score__min__rmsd>  (29) 
9.245979309708106

>  <meeko>  (29) 
{"free_energy": -7.23, "intermolecular_energy": -9.32, "internal_energy": -2.22, "cluster_size": 16, "cluster_id": 2, "rank_in_cluster": 1}

>  <energy>  (29) 
-7.11

>  <cluster_rmsd>  (29) 
0.21

>  <cluster>  (29) 
2

$$$$

     RDKit          3D

 43 45  0  0  0  0  0  0  0  0999 V2000
  140.2340   71.4040  220.7810 O   0  0  0  0  0  0  0  0  0  0  0  0
  140.4470   72.0470  221.8520 C   0  0  0  0  0  0  0  0  0  0  0  0
  140.8790   73.4180  221.8180 N   0  0  0  0  0  0  0  0  0  0  0  0
  141.0800   74.0980  220.5280 C   0  0  0  0  0  0  0  0  0  0  0  0
  142.5130   74.1950  220.2290 C   0  0  0  0  0  0  0  0  0  0  0  0
  143.0270   75.3660  220.2620 O   0  0  0  0  0  0  0  0  0  0  0  0
  143.3990   73.1430  219.9040 N   0  0  0  0  0  0  0  0  0  0  0  0
  143.0650   72.2710  218.7400 C   0  0  0  0  0  0  0  0  0  0  0  0
  144.2020   71.2910  218.6670 C   0  0  0  0  0  0  0  0  0  0  0  0
  145.3510   72.0660  219.2950 C   0  0  2  0  0  0  0  0  0  0  0  0
  146.3660   71.2150  219.7150 O   0  0  0  0  0  0  0  0  0  0  0  0
  144.6250   72.6850  220.4970 C   0  0  1  0  0  0  0  0  0  0  0  0
  145.4690   73.7090  221.1650 C   0  0  0  0  0  0  0  0  0  0  0  0
  146.6540   73.2230  221.6740 O   0  0  0  0  0  0  0  0  0  0  0  0
  140.2560   71.4010  223.1430 C   0  0  0  0  0  0  0  0  0  0  0  0
  139.5700   70.2120  223.2190 C   0  0  0  0  0  0  0  0  0  0  0  0
  139.3410   69.5300  224.3900 C   0  0  0  0  0  0  0  0  0  0  0  0
  139.8300   70.0780  225.5500 C   0  0  0  0  0  0  0  0  0  0  0  0
  139.6030   69.4010  226.7220 C   0  0  0  0  0  0  0  0  0  0  0  0
  140.0830   69.9270  227.9040 C   0  0  0  0  0  0  0  0  0  0  0  0
  139.8600   69.2580  229.0680 F   0  0  0  0  0  0  0  0  0  0  0  0
  140.7750   71.1220  227.8510 C   0  0  0  0  0  0  0  0  0  0  0  0
  140.9950   71.7910  226.6650 C   0  0  0  0  0  0  0  0  0  0  0  0
  140.5160   71.2710  225.4710 C   0  0  0  0  0  0  0  0  0  0  0  0
  140.7220   71.9100  224.3010 N   0  0  0  0  0  0  0  0  0  0  0  0
  141.0370   73.8980  222.7290 H   0  0  0  0  0  0  0  0  0  0  0  0
  140.5800   73.5255  219.7328 H   0  0  0  0  0  0  0  0  0  0  0  0
  140.6538   75.1105  220.5837 H   0  0  0  0  0  0  0  0  0  0  0  0
  142.1113   71.7487  218.9062 H   0  0  0  0  0  0  0  0  0  0  0  0
  142.9453   72.8437  217.8085 H   0  0  0  0  0  0  0  0  0  0  0  0
  143.9778   70.3796  219.2406 H   0  0  0  0  0  0  0  0  0  0  0  0
  144.4155   70.9448  217.6450 H   0  0  0  0  0  0  0  0  0  0  0  0
  145.8474   72.7825  218.6240 H   0  0  0  0  0  0  0  0  0  0  0  0
  146.5830   71.2970  220.6770 H   0  0  0  0  0  0  0  0  0  0  0  0
  144.4138   72.0054  221.3358 H   0  0  0  0  0  0  0  0  0  0  0  0
  145.7053   74.4931  220.4306 H   0  0  0  0  0  0  0  0  0  0  0  0
  144.8894   74.0855  222.0208 H   0  0  0  0  0  0  0  0  0  0  0  0
  146.6980   72.2430  221.6280 H   0  0  0  0  0  0  0  0  0  0  0  0
  139.1806   69.7800  222.2853 H   0  0  0  0  0  0  0  0  0  0  0  0
  138.7864   68.5801  224.3976 H   0  0  0  0  0  0  0  0  0  0  0  0
  139.0462   68.4523  226.7192 H   0  0  0  0  0  0  0  0  0  0  0  0
  141.1631   71.5539  228.7853 H   0  0  0  0  0  0  0  0  0  0  0  0
  141.5519   72.7396  226.6657 H   0  0  0  0  0  0  0  0  0  0  0  0
  1  2  2  0
  2  3  1  0
  3  4  1  0
  4  5  1  0
  5  6  2  0
  5  7  1  0
  7  8  1  0
  8  9  1  0
  9 10  1  0
 10 11  1  0
 10 12  1  0
 12 13  1  0
 13 14  1  0
  2 15  1  0
 15 16  2  0
 16 17  1  0
 17 18  2  0
 18 19  1  0
 19 20  2  0
 20 21  1  0
 20 22  1  0
 22 23  2  0
 23 24  1  0
 24 25  2  0
 12  7  1  0
 25 15  1  0
 24 18  1  0
  3 26  1  0
  4 27  1  0
  4 28  1  0
  8 29  1  0
  8 30  1  0
  9 31  1  0
  9 32  1  0
 10 33  1  6
 11 34  1  0
 12 35  1  1
 13 36  1  0
 13 37  1  0
 14 38  1  0
 16 39  1  0
 17 40  1  0
 19 41  1  0
 22 42  1  0
 23 43  1  0
M  END
>  <smiles>  (30) 
O=C(NCC(=O)N1CC[C@H](O)[C@H]1CO)c1ccc2cc(F)ccc2n1

>  <score_type>  (30) 
oracle

>  <origin>  (30) 
autodockgpu

>  <m_score__min__energy>  (30) 
-7.4800000000000004

>  <m_primary>  (30) 
energy

>  <rmsd>  (30) 
3.876364593563536

>  <m_score__min__rmsd>  (30) 
3.876364593563536

>  <meeko>  (30) 
{"free_energy": -6.53, "intermolecular_energy": -8.62, "internal_energy": -2.27, "cluster_size": 18, "cluster_id": 1, "rank_in_cluster": 13}

>  <energy>  (30) 
-7.08

>  <cluster_rmsd>  (30) 
0.19

>  <cluster>  (30) 
2

$$$$

     RDKit          3D

 43 45  0  0  0  0  0  0  0  0999 V2000
  139.5220   73.0930  220.6920 O   0  0  0  0  0  0  0  0  0  0  0  0
  139.6200   73.5340  221.8760 C   0  0  0  0  0  0  0  0  0  0  0  0
  139.8760   72.6460  222.9780 N   0  0  0  0  0  0  0  0  0  0  0  0
  140.0290   71.2010  222.7420 C   0  0  0  0  0  0  0  0  0  0  0  0
  139.4360   70.4450  223.8510 C   0  0  0  0  0  0  0  0  0  0  0  0
  138.2530   69.9930  223.6690 O   0  0  0  0  0  0  0  0  0  0  0  0
  140.0200   70.1540  225.1040 N   0  0  0  0  0  0  0  0  0  0  0  0
  140.3760   71.2940  226.0000 C   0  0  0  0  0  0  0  0  0  0  0  0
  140.9430   70.6420  227.2290 C   0  0  0  0  0  0  0  0  0  0  0  0
  140.2600   69.2820  227.2310 C   0  0  2  0  0  0  0  0  0  0  0  0
  140.9480   68.3700  228.0220 O   0  0  0  0  0  0  0  0  0  0  0  0
  140.3870   68.9220  225.7450 C   0  0  1  0  0  0  0  0  0  0  0  0
  139.5720   67.7250  225.4110 C   0  0  0  0  0  0  0  0  0  0  0  0
  139.1180   67.0240  226.5080 O   0  0  0  0  0  0  0  0  0  0  0  0
  139.4750   74.9590  222.1400 C   0  0  0  0  0  0  0  0  0  0  0  0
  138.2220   75.5210  222.1940 C   0  0  0  0  0  0  0  0  0  0  0  0
  137.9860   76.8530  222.4370 C   0  0  0  0  0  0  0  0  0  0  0  0
  139.0760   77.6640  222.6360 C   0  0  0  0  0  0  0  0  0  0  0  0
  138.8460   78.9950  222.8790 C   0  0  0  0  0  0  0  0  0  0  0  0
  139.9210   79.8350  223.0810 C   0  0  0  0  0  0  0  0  0  0  0  0
  139.6970   81.1560  223.3230 F   0  0  0  0  0  0  0  0  0  0  0  0
  141.1910   79.2920  223.0310 C   0  0  0  0  0  0  0  0  0  0  0  0
  141.4060   77.9520  222.7860 C   0  0  0  0  0  0  0  0  0  0  0  0
  140.3310   77.0980  222.5800 C   0  0  0  0  0  0  0  0  0  0  0  0
  140.5220   75.7850  222.3390 N   0  0  0  0  0  0  0  0  0  0  0  0
  139.9480   73.0640  223.9290 H   0  0  0  0  0  0  0  0  0  0  0  0
  139.5222   70.9295  221.8042 H   0  0  0  0  0  0  0  0  0  0  0  0
  141.0996   70.9583  222.6718 H   0  0  0  0  0  0  0  0  0  0  0  0
  141.1249   71.9439  225.5238 H   0  0  0  0  0  0  0  0  0  0  0  0
  139.5108   71.9343  226.2269 H   0  0  0  0  0  0  0  0  0  0  0  0
  142.0354   70.5372  227.1544 H   0  0  0  0  0  0  0  0  0  0  0  0
  140.7693   71.2192  228.1491 H   0  0  0  0  0  0  0  0  0  0  0  0
  139.2352   69.2793  227.6308 H   0  0  0  0  0  0  0  0  0  0  0  0
  140.5240   67.4780  228.0620 H   0  0  0  0  0  0  0  0  0  0  0  0
  141.3840   68.5994  225.4104 H   0  0  0  0  0  0  0  0  0  0  0  0
  138.6997   68.0540  224.8272 H   0  0  0  0  0  0  0  0  0  0  0  0
  140.2286   67.0430  224.8508 H   0  0  0  0  0  0  0  0  0  0  0  0
  139.8550   66.7330  227.0870 H   0  0  0  0  0  0  0  0  0  0  0  0
  137.3544   74.8642  222.0328 H   0  0  0  0  0  0  0  0  0  0  0  0
  136.9624   77.2543  222.4708 H   0  0  0  0  0  0  0  0  0  0  0  0
  137.8185   79.3864  222.9122 H   0  0  0  0  0  0  0  0  0  0  0  0
  142.0580   79.9497  223.1918 H   0  0  0  0  0  0  0  0  0  0  0  0
  142.4327   77.5585  222.7537 H   0  0  0  0  0  0  0  0  0  0  0  0
  1  2  2  0
  2  3  1  0
  3  4  1  0
  4  5  1  0
  5  6  2  0
  5  7  1  0
  7  8  1  0
  8  9  1  0
  9 10  1  0
 10 11  1  0
 10 12  1  0
 12 13  1  0
 13 14  1  0
  2 15  1  0
 15 16  2  0
 16 17  1  0
 17 18  2  0
 18 19  1  0
 19 20  2  0
 20 21  1  0
 20 22  1  0
 22 23  2  0
 23 24  1  0
 24 25  2  0
 12  7  1  0
 25 15  1  0
 24 18  1  0
  3 26  1  0
  4 27  1  0
  4 28  1  0
  8 29  1  0
  8 30  1  0
  9 31  1  0
  9 32  1  0
 10 33  1  1
 11 34  1  0
 12 35  1  1
 13 36  1  0
 13 37  1  0
 14 38  1  0
 16 39  1  0
 17 40  1  0
 19 41  1  0
 22 42  1  0
 23 43  1  0
M  END
>  <smiles>  (31) 
O=C(NCC(=O)N1CC[C@H](O)[C@H]1CO)c1ccc2cc(F)ccc2n1

>  <score_type>  (31) 
oracle

>  <origin>  (31) 
autodockgpu

>  <m_score__min__energy>  (31) 
-7.4800000000000004

>  <m_primary>  (31) 
energy

>  <rmsd>  (31) 
9.025388681915375

>  <m_score__min__rmsd>  (31) 
9.025388681915375

>  <meeko>  (31) 
{"free_energy": -6.79, "intermolecular_energy": -8.87, "internal_energy": -1.9, "cluster_size": 16, "cluster_id": 2, "rank_in_cluster": 16}

>  <energy>  (31) 
-6.98

>  <cluster_rmsd>  (31) 
0.33

>  <cluster>  (31) 
2

$$$$

     RDKit          3D

 43 45  0  0  0  0  0  0  0  0999 V2000
  140.4410   70.9630  221.6660 O   0  0  0  0  0  0  0  0  0  0  0  0
  140.2530   71.6920  222.6860 C   0  0  0  0  0  0  0  0  0  0  0  0
  139.9640   73.0940  222.5510 N   0  0  0  0  0  0  0  0  0  0  0  0
  139.8810   73.7050  221.2150 C   0  0  0  0  0  0  0  0  0  0  0  0
  140.4890   75.0410  221.2340 C   0  0  0  0  0  0  0  0  0  0  0  0
  140.4160   75.6880  222.3360 O   0  0  0  0  0  0  0  0  0  0  0  0
  141.1480   75.7030  220.1740 N   0  0  0  0  0  0  0  0  0  0  0  0
  140.5910   77.0020  219.6960 C   0  0  0  0  0  0  0  0  0  0  0  0
  141.5260   77.4300  218.6010 C   0  0  0  0  0  0  0  0  0  0  0  0
  142.8320   76.7590  218.9950 C   0  0  2  0  0  0  0  0  0  0  0  0
  143.7020   76.6680  217.9150 O   0  0  0  0  0  0  0  0  0  0  0  0
  142.3070   75.3730  219.3910 C   0  0  1  0  0  0  0  0  0  0  0  0
  143.3620   74.5690  220.0610 C   0  0  0  0  0  0  0  0  0  0  0  0
  144.4100   74.2130  219.2400 O   0  0  0  0  0  0  0  0  0  0  0  0
  140.3270   71.1140  224.0210 C   0  0  0  0  0  0  0  0  0  0  0  0
  140.7300   71.8900  225.0820 C   0  0  0  0  0  0  0  0  0  0  0  0
  140.8300   71.4340  226.3740 C   0  0  0  0  0  0  0  0  0  0  0  0
  140.5060   70.1190  226.6100 C   0  0  0  0  0  0  0  0  0  0  0  0
  140.6040   69.6590  227.8990 C   0  0  0  0  0  0  0  0  0  0  0  0
  140.2860   68.3440  228.1670 C   0  0  0  0  0  0  0  0  0  0  0  0
  140.3820   67.8830  229.4440 F   0  0  0  0  0  0  0  0  0  0  0  0
  139.8780   67.5450  227.1150 C   0  0  0  0  0  0  0  0  0  0  0  0
  139.7840   68.0230  225.8250 C   0  0  0  0  0  0  0  0  0  0  0  0
  140.1030   69.3440  225.5440 C   0  0  0  0  0  0  0  0  0  0  0  0
  140.0170   69.8300  224.2890 N   0  0  0  0  0  0  0  0  0  0  0  0
  139.8170   73.6430  223.4230 H   0  0  0  0  0  0  0  0  0  0  0  0
  140.4155   73.0720  220.4913 H   0  0  0  0  0  0  0  0  0  0  0  0
  138.8239   73.7940  220.9243 H   0  0  0  0  0  0  0  0  0  0  0  0
  139.5710   76.8682  219.3065 H   0  0  0  0  0  0  0  0  0  0  0  0
  140.5187   77.7484  220.5008 H   0  0  0  0  0  0  0  0  0  0  0  0
  141.1774   77.0742  217.6202 H   0  0  0  0  0  0  0  0  0  0  0  0
  141.6095   78.5222  218.5006 H   0  0  0  0  0  0  0  0  0  0  0  0
  143.4062   77.2855  219.7716 H   0  0  0  0  0  0  0  0  0  0  0  0
  144.4510   76.0380  218.0580 H   0  0  0  0  0  0  0  0  0  0  0  0
  142.0305   74.7065  218.5607 H   0  0  0  0  0  0  0  0  0  0  0  0
  143.7647   75.1581  220.8981 H   0  0  0  0  0  0  0  0  0  0  0  0
  142.8854   73.6330  220.3877 H   0  0  0  0  0  0  0  0  0  0  0  0
  144.7880   74.9880  218.7710 H   0  0  0  0  0  0  0  0  0  0  0  0
  140.9883   72.9408  224.8841 H   0  0  0  0  0  0  0  0  0  0  0  0
  141.1571   72.0962  227.1891 H   0  0  0  0  0  0  0  0  0  0  0  0
  140.9316   70.3295  228.7072 H   0  0  0  0  0  0  0  0  0  0  0  0
  139.6201   66.4942  227.3135 H   0  0  0  0  0  0  0  0  0  0  0  0
  139.4549   67.3547  225.0156 H   0  0  0  0  0  0  0  0  0  0  0  0
  1  2  2  0
  2  3  1  0
  3  4  1  0
  4  5  1  0
  5  6  2  0
  5  7  1  0
  7  8  1  0
  8  9  1  0
  9 10  1  0
 10 11  1  0
 10 12  1  0
 12 13  1  0
 13 14  1  0
  2 15  1  0
 15 16  2  0
 16 17  1  0
 17 18  2  0
 18 19  1  0
 19 20  2  0
 20 21  1  0
 20 22  1  0
 22 23  2  0
 23 24  1  0
 24 25  2  0
 12  7  1  0
 25 15  1  0
 24 18  1  0
  3 26  1  0
  4 27  1  0
  4 28  1  0
  8 29  1  0
  8 30  1  0
  9 31  1  0
  9 32  1  0
 10 33  1  1
 11 34  1  0
 12 35  1  6
 13 36  1  0
 13 37  1  0
 14 38  1  0
 16 39  1  0
 17 40  1  0
 19 41  1  0
 22 42  1  0
 23 43  1  0
M  END
>  <smiles>  (32) 
O=C(NCC(=O)N1CC[C@H](O)[C@H]1CO)c1ccc2cc(F)ccc2n1

>  <score_type>  (32) 
oracle

>  <origin>  (32) 
autodockgpu

>  <m_score__min__energy>  (32) 
-7.4800000000000004

>  <m_primary>  (32) 
energy

>  <rmsd>  (32) 
3.0491475770189544

>  <m_score__min__rmsd>  (32) 
3.0491475770189544

>  <meeko>  (32) 
{"free_energy": -6.53, "intermolecular_energy": -8.62, "internal_energy": -2.19, "cluster_size": 12, "cluster_id": 4, "rank_in_cluster": 8}

>  <energy>  (32) 
-6.96

>  <cluster_rmsd>  (32) 
0.33

>  <cluster>  (32) 
2

$$$$

     RDKit          3D

 43 45  0  0  0  0  0  0  0  0999 V2000
  140.9060   71.2330  221.2860 O   0  0  0  0  0  0  0  0  0  0  0  0
  140.4080   71.8550  222.2710 C   0  0  0  0  0  0  0  0  0  0  0  0
  140.0270   73.2370  222.1580 N   0  0  0  0  0  0  0  0  0  0  0  0
  140.2120   73.9520  220.8850 C   0  0  0  0  0  0  0  0  0  0  0  0
  141.6360   74.2340  220.6680 C   0  0  0  0  0  0  0  0  0  0  0  0
  142.1020   75.2900  221.2200 O   0  0  0  0  0  0  0  0  0  0  0  0
  142.5600   73.4740  219.9160 N   0  0  0  0  0  0  0  0  0  0  0  0
  142.0820   72.8170  218.6630 C   0  0  0  0  0  0  0  0  0  0  0  0
  143.2970   72.1250  218.1160 C   0  0  0  0  0  0  0  0  0  0  0  0
  144.4380   72.9650  218.6690 C   0  0  2  0  0  0  0  0  0  0  0  0
  145.6400   72.2670  218.6450 O   0  0  0  0  0  0  0  0  0  0  0  0
  143.9480   73.1580  220.1100 C   0  0  1  0  0  0  0  0  0  0  0  0
  144.7700   74.1680  220.8270 C   0  0  0  0  0  0  0  0  0  0  0  0
  146.1220   74.0830  220.5710 O   0  0  0  0  0  0  0  0  0  0  0  0
  140.2120   71.1740  223.5430 C   0  0  0  0  0  0  0  0  0  0  0  0
  139.5750   69.9560  223.5760 C   0  0  0  0  0  0  0  0  0  0  0  0
  139.3460   69.2380  224.7260 C   0  0  0  0  0  0  0  0  0  0  0  0
  139.7830   69.7810  225.9100 C   0  0  0  0  0  0  0  0  0  0  0  0
  139.5570   69.0690  227.0610 C   0  0  0  0  0  0  0  0  0  0  0  0
  139.9840   69.5880  228.2660 C   0  0  0  0  0  0  0  0  0  0  0  0
  139.7610   68.8860  229.4090 F   0  0  0  0  0  0  0  0  0  0  0  0
  140.6270   70.8130  228.2560 C   0  0  0  0  0  0  0  0  0  0  0  0
  140.8470   71.5160  227.0900 C   0  0  0  0  0  0  0  0  0  0  0  0
  140.4200   71.0030  225.8730 C   0  0  0  0  0  0  0  0  0  0  0  0
  140.6280   71.6760  224.7230 N   0  0  0  0  0  0  0  0  0  0  0  0
  139.6220   73.6980  222.9990 H   0  0  0  0  0  0  0  0  0  0  0  0
  139.8343   73.3301  220.0600 H   0  0  0  0  0  0  0  0  0  0  0  0
  139.6581   74.9017  220.9213 H   0  0  0  0  0  0  0  0  0  0  0  0
  141.2866   72.0900  218.8839 H   0  0  0  0  0  0  0  0  0  0  0  0
  141.6533   73.5366  217.9500 H   0  0  0  0  0  0  0  0  0  0  0  0
  143.3580   71.0873  218.4757 H   0  0  0  0  0  0  0  0  0  0  0  0
  143.3007   72.0524  217.0184 H   0  0  0  0  0  0  0  0  0  0  0  0
  144.6424   73.8913  218.1120 H   0  0  0  0  0  0  0  0  0  0  0  0
  146.0700   72.1850  219.5320 H   0  0  0  0  0  0  0  0  0  0  0  0
  144.0534   72.2884  220.7754 H   0  0  0  0  0  0  0  0  0  0  0  0
  144.4248   75.1687  220.5279 H   0  0  0  0  0  0  0  0  0  0  0  0
  144.6398   73.9751  221.9021 H   0  0  0  0  0  0  0  0  0  0  0  0
  146.3150   74.1070  219.6090 H   0  0  0  0  0  0  0  0  0  0  0  0
  139.2271   69.5296  222.6235 H   0  0  0  0  0  0  0  0  0  0  0  0
  138.8324   68.2657  224.6991 H   0  0  0  0  0  0  0  0  0  0  0  0
  139.0424   68.0975  227.0235 H   0  0  0  0  0  0  0  0  0  0  0  0
  140.9739   71.2400  229.2086 H   0  0  0  0  0  0  0  0  0  0  0  0
  141.3628   72.4869  227.1246 H   0  0  0  0  0  0  0  0  0  0  0  0
  1  2  2  0
  2  3  1  0
  3  4  1  0
  4  5  1  0
  5  6  2  0
  5  7  1  0
  7  8  1  0
  8  9  1  0
  9 10  1  0
 10 11  1  0
 10 12  1  0
 12 13  1  0
 13 14  1  0
  2 15  1  0
 15 16  2  0
 16 17  1  0
 17 18  2  0
 18 19  1  0
 19 20  2  0
 20 21  1  0
 20 22  1  0
 22 23  2  0
 23 24  1  0
 24 25  2  0
 12  7  1  0
 25 15  1  0
 24 18  1  0
  3 26  1  0
  4 27  1  0
  4 28  1  0
  8 29  1  0
  8 30  1  0
  9 31  1  0
  9 32  1  0
 10 33  1  6
 11 34  1  0
 12 35  1  1
 13 36  1  0
 13 37  1  0
 14 38  1  0
 16 39  1  0
 17 40  1  0
 19 41  1  0
 22 42  1  0
 23 43  1  0
M  END
>  <smiles>  (33) 
O=C(NCC(=O)N1CC[C@H](O)[C@H]1CO)c1ccc2cc(F)ccc2n1

>  <score_type>  (33) 
oracle

>  <origin>  (33) 
autodockgpu

>  <m_score__min__energy>  (33) 
-7.4800000000000004

>  <m_primary>  (33) 
energy

>  <rmsd>  (33) 
3.1548074488630835

>  <m_score__min__rmsd>  (33) 
3.1548074488630835

>  <meeko>  (33) 
{"free_energy": -6.35, "intermolecular_energy": -8.44, "internal_energy": -2.26, "cluster_size": 18, "cluster_id": 1, "rank_in_cluster": 17}

>  <energy>  (33) 
-6.96

>  <cluster_rmsd>  (33) 
0.34

>  <cluster>  (33) 
2

$$$$

     RDKit          3D

 43 45  0  0  0  0  0  0  0  0999 V2000
  141.5980   72.1230  221.0300 O   0  0  0  0  0  0  0  0  0  0  0  0
  141.0140   72.9750  221.7630 C   0  0  0  0  0  0  0  0  0  0  0  0
  140.2100   72.5620  222.8810 N   0  0  0  0  0  0  0  0  0  0  0  0
  140.0540   71.1310  223.1900 C   0  0  0  0  0  0  0  0  0  0  0  0
  139.3820   70.9660  224.4840 C   0  0  0  0  0  0  0  0  0  0  0  0
  138.1480   71.3000  224.5360 O   0  0  0  0  0  0  0  0  0  0  0  0
  139.9380   70.4790  225.6880 N   0  0  0  0  0  0  0  0  0  0  0  0
  140.5420   71.4620  226.6360 C   0  0  0  0  0  0  0  0  0  0  0  0
  141.0100   70.6270  227.7940 C   0  0  0  0  0  0  0  0  0  0  0  0
  140.0710   69.4300  227.7430 C   0  0  2  0  0  0  0  0  0  0  0  0
  140.5910   68.3480  228.4430 O   0  0  0  0  0  0  0  0  0  0  0  0
  140.0740   69.1570  226.2340 C   0  0  1  0  0  0  0  0  0  0  0  0
  139.0280   68.1690  225.8640 C   0  0  0  0  0  0  0  0  0  0  0  0
  139.1660   66.9410  226.4750 O   0  0  0  0  0  0  0  0  0  0  0  0
  141.1500   74.3980  221.4820 C   0  0  0  0  0  0  0  0  0  0  0  0
  141.9290   74.8160  220.4290 C   0  0  0  0  0  0  0  0  0  0  0  0
  142.1160   76.1340  220.0870 C   0  0  0  0  0  0  0  0  0  0  0  0
  141.4830   77.0840  220.8510 C   0  0  0  0  0  0  0  0  0  0  0  0
  141.6670   78.4020  220.5140 C   0  0  0  0  0  0  0  0  0  0  0  0
  141.0440   79.3780  221.2630 C   0  0  0  0  0  0  0  0  0  0  0  0
  141.2240   80.6860  220.9320 F   0  0  0  0  0  0  0  0  0  0  0  0
  140.2560   78.9800  222.3270 C   0  0  0  0  0  0  0  0  0  0  0  0
  140.0810   77.6520  222.6530 C   0  0  0  0  0  0  0  0  0  0  0  0
  140.7040   76.6610  221.9060 C   0  0  0  0  0  0  0  0  0  0  0  0
  140.5440   75.3570  222.2100 N   0  0  0  0  0  0  0  0  0  0  0  0
  139.7540   73.3050  223.4500 H   0  0  0  0  0  0  0  0  0  0  0  0
  139.4521   70.6523  222.4036 H   0  0  0  0  0  0  0  0  0  0  0  0
  141.0479   70.6620  223.2375 H   0  0  0  0  0  0  0  0  0  0  0  0
  141.3880   71.9856  226.1669 H   0  0  0  0  0  0  0  0  0  0  0  0
  139.8284   72.2410  226.9427 H   0  0  0  0  0  0  0  0  0  0  0  0
  142.0568   70.3161  227.6617 H   0  0  0  0  0  0  0  0  0  0  0  0
  140.9858   71.1607  228.7556 H   0  0  0  0  0  0  0  0  0  0  0  0
  139.0799   69.6000  228.1889 H   0  0  0  0  0  0  0  0  0  0  0  0
  140.4940   67.4840  227.9710 H   0  0  0  0  0  0  0  0  0  0  0  0
  140.9754   68.6694  225.8344 H   0  0  0  0  0  0  0  0  0  0  0  0
  138.0481   68.5841  226.1424 H   0  0  0  0  0  0  0  0  0  0  0  0
  139.1271   67.9955  224.7823 H   0  0  0  0  0  0  0  0  0  0  0  0
  139.2130   67.0220  227.4520 H   0  0  0  0  0  0  0  0  0  0  0  0
  142.4334   74.0487  219.8233 H   0  0  0  0  0  0  0  0  0  0  0  0
  142.7490   76.4175  219.2332 H   0  0  0  0  0  0  0  0  0  0  0  0
  142.3023   78.6757  219.6587 H   0  0  0  0  0  0  0  0  0  0  0  0
  139.7525   79.7477  222.9329 H   0  0  0  0  0  0  0  0  0  0  0  0
  139.4457   77.3765  223.5077 H   0  0  0  0  0  0  0  0  0  0  0  0
  1  2  2  0
  2  3  1  0
  3  4  1  0
  4  5  1  0
  5  6  2  0
  5  7  1  0
  7  8  1  0
  8  9  1  0
  9 10  1  0
 10 11  1  0
 10 12  1  0
 12 13  1  0
 13 14  1  0
  2 15  1  0
 15 16  2  0
 16 17  1  0
 17 18  2  0
 18 19  1  0
 19 20  2  0
 20 21  1  0
 20 22  1  0
 22 23  2  0
 23 24  1  0
 24 25  2  0
 12  7  1  0
 25 15  1  0
 24 18  1  0
  3 26  1  0
  4 27  1  0
  4 28  1  0
  8 29  1  0
  8 30  1  0
  9 31  1  0
  9 32  1  0
 10 33  1  1
 11 34  1  0
 12 35  1  6
 13 36  1  0
 13 37  1  0
 14 38  1  0
 16 39  1  0
 17 40  1  0
 19 41  1  0
 22 42  1  0
 23 43  1  0
M  END
>  <smiles>  (34) 
O=C(NCC(=O)N1CC[C@H](O)[C@H]1CO)c1ccc2cc(F)ccc2n1

>  <score_type>  (34) 
oracle

>  <origin>  (34) 
autodockgpu

>  <m_score__min__energy>  (34) 
-7.4800000000000004

>  <m_primary>  (34) 
energy

>  <rmsd>  (34) 
9.29793640266666

>  <m_score__min__rmsd>  (34) 
9.29793640266666

>  <meeko>  (34) 
{"free_energy": -6.98, "intermolecular_energy": -9.07, "internal_energy": -2.27, "cluster_size": 16, "cluster_id": 2, "rank_in_cluster": 13}

>  <energy>  (34) 
-6.79

>  <cluster_rmsd>  (34) 
1.31

>  <cluster>  (34) 
2

$$$$

     RDKit          3D

 43 45  0  0  0  0  0  0  0  0999 V2000
  135.9550   69.3700  224.4030 O   0  0  0  0  0  0  0  0  0  0  0  0
  136.1190   70.6120  224.5920 C   0  0  0  0  0  0  0  0  0  0  0  0
  137.3340   71.2680  224.1930 N   0  0  0  0  0  0  0  0  0  0  0  0
  138.4140   70.4970  223.5540 C   0  0  0  0  0  0  0  0  0  0  0  0
  139.6930   70.7820  224.2130 C   0  0  0  0  0  0  0  0  0  0  0  0
  140.5250   71.5050  223.5620 O   0  0  0  0  0  0  0  0  0  0  0  0
  140.1220   70.3500  225.4880 N   0  0  0  0  0  0  0  0  0  0  0  0
  140.4760   71.3850  226.5040 C   0  0  0  0  0  0  0  0  0  0  0  0
  140.8600   70.5970  227.7230 C   0  0  0  0  0  0  0  0  0  0  0  0
  140.0720   69.3070  227.5500 C   0  0  2  0  0  0  0  0  0  0  0  0
  140.6000   68.2820  228.3260 O   0  0  0  0  0  0  0  0  0  0  0  0
  140.3200   69.0460  226.0590 C   0  0  1  0  0  0  0  0  0  0  0  0
  139.4480   67.9540  225.5520 C   0  0  0  0  0  0  0  0  0  0  0  0
  139.1250   67.0030  226.4960 O   0  0  0  0  0  0  0  0  0  0  0  0
  135.0680   71.4000  225.2210 C   0  0  0  0  0  0  0  0  0  0  0  0
  134.0290   70.7690  225.8630 C   0  0  0  0  0  0  0  0  0  0  0  0
  132.9950   71.4270  226.4840 C   0  0  0  0  0  0  0  0  0  0  0  0
  133.0090   72.8010  226.4560 C   0  0  0  0  0  0  0  0  0  0  0  0
  131.9780   73.4620  227.0760 C   0  0  0  0  0  0  0  0  0  0  0  0
  131.9650   74.8420  227.0640 C   0  0  0  0  0  0  0  0  0  0  0  0
  130.9450   75.5020  227.6770 F   0  0  0  0  0  0  0  0  0  0  0  0
  133.0000   75.4980  226.4240 C   0  0  0  0  0  0  0  0  0  0  0  0
  134.0290   74.8180  225.8070 C   0  0  0  0  0  0  0  0  0  0  0  0
  134.0520   73.4300  225.8120 C   0  0  0  0  0  0  0  0  0  0  0  0
  135.0500   72.7490  225.2140 N   0  0  0  0  0  0  0  0  0  0  0  0
  137.4140   72.2900  224.3720 H   0  0  0  0  0  0  0  0  0  0  0  0
  138.1929   69.4227  223.6374 H   0  0  0  0  0  0  0  0  0  0  0  0
  138.4829   70.7831  222.4941 H   0  0  0  0  0  0  0  0  0  0  0  0
  141.3196   71.9992  226.1561 H   0  0  0  0  0  0  0  0  0  0  0  0
  139.6470   72.0812  226.6992 H   0  0  0  0  0  0  0  0  0  0  0  0
  141.9422   70.4009  227.7438 H   0  0  0  0  0  0  0  0  0  0  0  0
  140.6413   71.1186  228.6665 H   0  0  0  0  0  0  0  0  0  0  0  0
  139.0152   69.3667  227.8493 H   0  0  0  0  0  0  0  0  0  0  0  0
  140.0860   67.4390  228.2760 H   0  0  0  0  0  0  0  0  0  0  0  0
  141.3162   68.6605  225.7962 H   0  0  0  0  0  0  0  0  0  0  0  0
  138.5146   68.4024  225.1810 H   0  0  0  0  0  0  0  0  0  0  0  0
  140.0156   67.4368  224.7644 H   0  0  0  0  0  0  0  0  0  0  0  0
  139.9110   66.7110  227.0060 H   0  0  0  0  0  0  0  0  0  0  0  0
  134.0252   69.6691  225.8807 H   0  0  0  0  0  0  0  0  0  0  0  0
  132.1862   70.8747  226.9848 H   0  0  0  0  0  0  0  0  0  0  0  0
  131.1744   72.9003  227.5748 H   0  0  0  0  0  0  0  0  0  0  0  0
  133.0029   76.5979  226.4063 H   0  0  0  0  0  0  0  0  0  0  0  0
  134.8346   75.3776  225.3091 H   0  0  0  0  0  0  0  0  0  0  0  0
  1  2  2  0
  2  3  1  0
  3  4  1  0
  4  5  1  0
  5  6  2  0
  5  7  1  0
  7  8  1  0
  8  9  1  0
  9 10  1  0
 10 11  1  0
 10 12  1  0
 12 13  1  0
 13 14  1  0
  2 15  1  0
 15 16  2  0
 16 17  1  0
 17 18  2  0
 18 19  1  0
 19 20  2  0
 20 21  1  0
 20 22  1  0
 22 23  2  0
 23 24  1  0
 24 25  2  0
 12  7  1  0
 25 15  1  0
 24 18  1  0
  3 26  1  0
  4 27  1  0
  4 28  1  0
  8 29  1  0
  8 30  1  0
  9 31  1  0
  9 32  1  0
 10 33  1  6
 11 34  1  0
 12 35  1  1
 13 36  1  0
 13 37  1  0
 14 38  1  0
 16 39  1  0
 17 40  1  0
 19 41  1  0
 22 42  1  0
 23 43  1  0
M  END
>  <smiles>  (35) 
O=C(NCC(=O)N1CC[C@H](O)[C@H]1CO)c1ccc2cc(F)ccc2n1

>  <score_type>  (35) 
oracle

>  <origin>  (35) 
autodockgpu

>  <m_score__min__energy>  (35) 
-7.4800000000000004

>  <m_primary>  (35) 
energy

>  <rmsd>  (35) 
8.750053963381463

>  <m_score__min__rmsd>  (35) 
8.750053963381463

>  <meeko>  (35) 
{"free_energy": -6.75, "intermolecular_energy": -8.83, "internal_energy": -2.31, "cluster_size": 4, "cluster_id": 3, "rank_in_cluster": 3}

>  <energy>  (35) 
-6.83

>  <cluster_rmsd>  (35) 
0.0

>  <cluster>  (35) 
3

$$$$

     RDKit          3D

 43 45  0  0  0  0  0  0  0  0999 V2000
  141.6490   71.9390  221.0610 O   0  0  0  0  0  0  0  0  0  0  0  0
  141.0180   72.8010  221.7420 C   0  0  0  0  0  0  0  0  0  0  0  0
  140.1400   72.4020  222.8090 N   0  0  0  0  0  0  0  0  0  0  0  0
  139.9630   70.9760  223.1260 C   0  0  0  0  0  0  0  0  0  0  0  0
  139.3720   70.8260  224.4600 C   0  0  0  0  0  0  0  0  0  0  0  0
  138.1520   71.1890  224.5910 O   0  0  0  0  0  0  0  0  0  0  0  0
  139.9940   70.3260  225.6270 N   0  0  0  0  0  0  0  0  0  0  0  0
  140.3690   71.2940  226.6980 C   0  0  0  0  0  0  0  0  0  0  0  0
  140.9760   70.4430  227.7770 C   0  0  0  0  0  0  0  0  0  0  0  0
  140.3000   69.0970  227.5600 C   0  0  2  0  0  0  0  0  0  0  0  0
  141.0160   68.0680  228.1590 O   0  0  0  0  0  0  0  0  0  0  0  0
  140.3850   69.0040  226.0310 C   0  0  1  0  0  0  0  0  0  0  0  0
  139.5670   67.8760  225.5150 C   0  0  0  0  0  0  0  0  0  0  0  0
  139.1280   67.0030  226.4870 O   0  0  0  0  0  0  0  0  0  0  0  0
  141.1740   74.2190  221.4520 C   0  0  0  0  0  0  0  0  0  0  0  0
  142.0630   74.6270  220.4870 C   0  0  0  0  0  0  0  0  0  0  0  0
  142.2780   75.9400  220.1440 C   0  0  0  0  0  0  0  0  0  0  0  0
  141.5550   76.8970  220.8140 C   0  0  0  0  0  0  0  0  0  0  0  0
  141.7660   78.2110  220.4750 C   0  0  0  0  0  0  0  0  0  0  0  0
  141.0550   79.1940  221.1310 C   0  0  0  0  0  0  0  0  0  0  0  0
  141.2610   80.4970  220.7990 F   0  0  0  0  0  0  0  0  0  0  0  0
  140.1550   78.8070  222.1070 C   0  0  0  0  0  0  0  0  0  0  0  0
  139.9540   77.4830  222.4350 C   0  0  0  0  0  0  0  0  0  0  0  0
  140.6650   76.4850  221.7820 C   0  0  0  0  0  0  0  0  0  0  0  0
  140.4820   75.1850  222.0890 N   0  0  0  0  0  0  0  0  0  0  0  0
  139.6480   73.1530  223.3360 H   0  0  0  0  0  0  0  0  0  0  0  0
  139.2978   70.5172  222.3797 H   0  0  0  0  0  0  0  0  0  0  0  0
  140.9441   70.4788  223.1088 H   0  0  0  0  0  0  0  0  0  0  0  0
  141.0995   72.0257  226.3226 H   0  0  0  0  0  0  0  0  0  0  0  0
  139.5070   71.8748  227.0580 H   0  0  0  0  0  0  0  0  0  0  0  0
  142.0662   70.3640  227.6539 H   0  0  0  0  0  0  0  0  0  0  0  0
  140.8274   70.8485  228.7887 H   0  0  0  0  0  0  0  0  0  0  0  0
  139.2875   69.0140  227.9819 H   0  0  0  0  0  0  0  0  0  0  0  0
  140.5830   67.1820  228.0800 H   0  0  0  0  0  0  0  0  0  0  0  0
  141.3730   68.7545  225.6168 H   0  0  0  0  0  0  0  0  0  0  0  0
  138.6869   68.2939  225.0043 H   0  0  0  0  0  0  0  0  0  0  0  0
  140.2169   67.2974  224.8420 H   0  0  0  0  0  0  0  0  0  0  0  0
  139.8720   66.6270  227.0050 H   0  0  0  0  0  0  0  0  0  0  0  0
  142.6384   73.8544  219.9560 H   0  0  0  0  0  0  0  0  0  0  0  0
  143.0017   76.2146  219.3624 H   0  0  0  0  0  0  0  0  0  0  0  0
  142.4915   78.4756  219.6917 H   0  0  0  0  0  0  0  0  0  0  0  0
  139.5811   79.5802  222.6387 H   0  0  0  0  0  0  0  0  0  0  0  0
  139.2277   77.2163  223.2169 H   0  0  0  0  0  0  0  0  0  0  0  0
  1  2  2  0
  2  3  1  0
  3  4  1  0
  4  5  1  0
  5  6  2  0
  5  7  1  0
  7  8  1  0
  8  9  1  0
  9 10  1  0
 10 11  1  0
 10 12  1  0
 12 13  1  0
 13 14  1  0
  2 15  1  0
 15 16  2  0
 16 17  1  0
 17 18  2  0
 18 19  1  0
 19 20  2  0
 20 21  1  0
 20 22  1  0
 22 23  2  0
 23 24  1  0
 24 25  2  0
 12  7  1  0
 25 15  1  0
 24 18  1  0
  3 26  1  0
  4 27  1  0
  4 28  1  0
  8 29  1  0
  8 30  1  0
  9 31  1  0
  9 32  1  0
 10 33  1  6
 11 34  1  0
 12 35  1  1
 13 36  1  0
 13 37  1  0
 14 38  1  0
 16 39  1  0
 17 40  1  0
 19 41  1  0
 22 42  1  0
 23 43  1  0
M  END
>  <smiles>  (36) 
O=C(NCC(=O)N1CC[C@H](O)[C@H]1CO)c1ccc2cc(F)ccc2n1

>  <score_type>  (36) 
oracle

>  <origin>  (36) 
autodockgpu

>  <m_score__min__energy>  (36) 
-7.4800000000000004

>  <m_primary>  (36) 
energy

>  <rmsd>  (36) 
9.269975200777859

>  <m_score__min__rmsd>  (36) 
9.269975200777859

>  <meeko>  (36) 
{"free_energy": -7.21, "intermolecular_energy": -9.29, "internal_energy": -2.22, "cluster_size": 16, "cluster_id": 2, "rank_in_cluster": 4}

>  <energy>  (36) 
-6.81

>  <cluster_rmsd>  (36) 
0.07

>  <cluster>  (36) 
3

$$$$

     RDKit          3D

 43 45  0  0  0  0  0  0  0  0999 V2000
  138.9370   72.0160  221.3590 O   0  0  0  0  0  0  0  0  0  0  0  0
  139.7970   72.2670  222.2560 C   0  0  0  0  0  0  0  0  0  0  0  0
  140.7380   73.3420  222.0990 N   0  0  0  0  0  0  0  0  0  0  0  0
  140.7150   74.1730  220.8840 C   0  0  0  0  0  0  0  0  0  0  0  0
  141.5310   73.5530  219.8340 C   0  0  0  0  0  0  0  0  0  0  0  0
  140.9160   73.1690  218.7800 O   0  0  0  0  0  0  0  0  0  0  0  0
  142.9270   73.3270  219.8490 N   0  0  0  0  0  0  0  0  0  0  0  0
  143.4740   72.3450  220.8310 C   0  0  0  0  0  0  0  0  0  0  0  0
  144.9520   72.3340  220.5660 C   0  0  0  0  0  0  0  0  0  0  0  0
  145.0320   72.7360  219.1010 C   0  0  2  0  0  0  0  0  0  0  0  0
  146.3000   73.2000  218.7700 O   0  0  0  0  0  0  0  0  0  0  0  0
  144.0110   73.8810  219.0860 C   0  0  1  0  0  0  0  0  0  0  0  0
  143.7020   74.3090  217.6970 C   0  0  0  0  0  0  0  0  0  0  0  0
  144.8130   74.5130  216.9070 O   0  0  0  0  0  0  0  0  0  0  0  0
  139.8430   71.4620  223.4690 C   0  0  0  0  0  0  0  0  0  0  0  0
  139.2740   70.2120  223.4830 C   0  0  0  0  0  0  0  0  0  0  0  0
  139.2690   69.3810  224.5780 C   0  0  0  0  0  0  0  0  0  0  0  0
  139.8720   69.8390  225.7240 C   0  0  0  0  0  0  0  0  0  0  0  0
  139.8690   69.0130  226.8210 C   0  0  0  0  0  0  0  0  0  0  0  0
  140.4660   69.4450  227.9870 C   0  0  0  0  0  0  0  0  0  0  0  0
  140.4660   68.6300  229.0760 F   0  0  0  0  0  0  0  0  0  0  0  0
  141.0450   70.7010  227.9950 C   0  0  0  0  0  0  0  0  0  0  0  0
  141.0400   71.5190  226.8850 C   0  0  0  0  0  0  0  0  0  0  0  0
  140.4410   71.0940  225.7070 C   0  0  0  0  0  0  0  0  0  0  0  0
  140.4260   71.8790  224.6110 N   0  0  0  0  0  0  0  0  0  0  0  0
  141.4210   73.5030  222.8680 H   0  0  0  0  0  0  0  0  0  0  0  0
  139.6783   74.2704  220.5293 H   0  0  0  0  0  0  0  0  0  0  0  0
  141.1248   75.1663  221.1192 H   0  0  0  0  0  0  0  0  0  0  0  0
  143.2659   72.6683  221.8616 H   0  0  0  0  0  0  0  0  0  0  0  0
  143.0216   71.3482  220.7228 H   0  0  0  0  0  0  0  0  0  0  0  0
  145.4751   73.0600  221.2057 H   0  0  0  0  0  0  0  0  0  0  0  0
  145.4265   71.3648  220.7793 H   0  0  0  0  0  0  0  0  0  0  0  0
  144.8384   71.9217  218.3872 H   0  0  0  0  0  0  0  0  0  0  0  0
  146.3090   74.1300  218.4330 H   0  0  0  0  0  0  0  0  0  0  0  0
  144.3452   74.8306  219.5293 H   0  0  0  0  0  0  0  0  0  0  0  0
  143.0825   73.5313  217.2264 H   0  0  0  0  0  0  0  0  0  0  0  0
  143.1865   75.2778  217.7727 H   0  0  0  0  0  0  0  0  0  0  0  0
  145.5970   74.7740  217.4380 H   0  0  0  0  0  0  0  0  0  0  0  0
  138.7926   69.8538  222.5611 H   0  0  0  0  0  0  0  0  0  0  0  0
  138.7998   68.3869  224.5380 H   0  0  0  0  0  0  0  0  0  0  0  0
  139.3971   68.0207  226.7706 H   0  0  0  0  0  0  0  0  0  0  0  0
  141.5254   71.0592  228.9174 H   0  0  0  0  0  0  0  0  0  0  0  0
  141.5121   72.5114  226.9331 H   0  0  0  0  0  0  0  0  0  0  0  0
  1  2  2  0
  2  3  1  0
  3  4  1  0
  4  5  1  0
  5  6  2  0
  5  7  1  0
  7  8  1  0
  8  9  1  0
  9 10  1  0
 10 11  1  0
 10 12  1  0
 12 13  1  0
 13 14  1  0
  2 15  1  0
 15 16  2  0
 16 17  1  0
 17 18  2  0
 18 19  1  0
 19 20  2  0
 20 21  1  0
 20 22  1  0
 22 23  2  0
 23 24  1  0
 24 25  2  0
 12  7  1  0
 25 15  1  0
 24 18  1  0
  3 26  1  0
  4 27  1  0
  4 28  1  0
  8 29  1  0
  8 30  1  0
  9 31  1  0
  9 32  1  0
 10 33  1  6
 11 34  1  0
 12 35  1  1
 13 36  1  0
 13 37  1  0
 14 38  1  0
 16 39  1  0
 17 40  1  0
 19 41  1  0
 22 42  1  0
 23 43  1  0
M  END
>  <smiles>  (37) 
O=C(NCC(=O)N1CC[C@H](O)[C@H]1CO)c1ccc2cc(F)ccc2n1

>  <score_type>  (37) 
oracle

>  <origin>  (37) 
autodockgpu

>  <m_score__min__energy>  (37) 
-7.4800000000000004

>  <m_primary>  (37) 
energy

>  <rmsd>  (37) 
3.4189752980018397

>  <m_score__min__rmsd>  (37) 
3.4189752980018397

>  <meeko>  (37) 
{"free_energy": -6.53, "intermolecular_energy": -8.62, "internal_energy": -2.21, "cluster_size": 18, "cluster_id": 1, "rank_in_cluster": 12}

>  <energy>  (37) 
-6.75

>  <cluster_rmsd>  (37) 
0.16

>  <cluster>  (37) 
3

$$$$

     RDKit          3D

 43 45  0  0  0  0  0  0  0  0999 V2000
  139.7670   71.5050  221.0900 O   0  0  0  0  0  0  0  0  0  0  0  0
  139.7360   72.0920  222.2130 C   0  0  0  0  0  0  0  0  0  0  0  0
  139.5810   73.5190  222.2980 N   0  0  0  0  0  0  0  0  0  0  0  0
  139.4540   74.3220  221.0720 C   0  0  0  0  0  0  0  0  0  0  0  0
  138.8840   75.6370  221.3880 C   0  0  0  0  0  0  0  0  0  0  0  0
  137.6080   75.7100  221.4430 O   0  0  0  0  0  0  0  0  0  0  0  0
  139.5810   76.8400  221.6410 N   0  0  0  0  0  0  0  0  0  0  0  0
  139.0740   77.7380  222.7200 C   0  0  0  0  0  0  0  0  0  0  0  0
  140.0380   78.8890  222.7330 C   0  0  0  0  0  0  0  0  0  0  0  0
  141.3160   78.2610  222.1980 C   0  0  2  0  0  0  0  0  0  0  0  0
  142.1980   79.2270  221.7290 O   0  0  0  0  0  0  0  0  0  0  0  0
  140.7390   77.4390  221.0380 C   0  0  1  0  0  0  0  0  0  0  0  0
  141.7570   76.5130  220.4760 C   0  0  0  0  0  0  0  0  0  0  0  0
  142.9210   77.1300  220.0700 O   0  0  0  0  0  0  0  0  0  0  0  0
  139.8590   71.3220  223.4430 C   0  0  0  0  0  0  0  0  0  0  0  0
  139.4690   70.0050  223.4690 C   0  0  0  0  0  0  0  0  0  0  0  0
  139.5470   69.2000  224.5800 C   0  0  0  0  0  0  0  0  0  0  0  0
  140.0470   69.7570  225.7330 C   0  0  0  0  0  0  0  0  0  0  0  0
  140.1280   68.9580  226.8460 C   0  0  0  0  0  0  0  0  0  0  0  0
  140.6250   69.4890  228.0170 C   0  0  0  0  0  0  0  0  0  0  0  0
  140.7070   68.7010  229.1230 F   0  0  0  0  0  0  0  0  0  0  0  0
  141.0240   70.8130  228.0150 C   0  0  0  0  0  0  0  0  0  0  0  0
  140.9370   71.6030  226.8880 C   0  0  0  0  0  0  0  0  0  0  0  0
  140.4370   71.0790  225.7040 C   0  0  0  0  0  0  0  0  0  0  0  0
  140.3450   71.8360  224.5910 N   0  0  0  0  0  0  0  0  0  0  0  0
  139.5620   73.9470  223.2470 H   0  0  0  0  0  0  0  0  0  0  0  0
  140.4478   74.4553  220.6197 H   0  0  0  0  0  0  0  0  0  0  0  0
  138.7892   73.8010  220.3673 H   0  0  0  0  0  0  0  0  0  0  0  0
  138.0560   78.0857  222.4904 H   0  0  0  0  0  0  0  0  0  0  0  0
  139.0146   77.2303  223.6940 H   0  0  0  0  0  0  0  0  0  0  0  0
  139.6923   79.7033  222.0792 H   0  0  0  0  0  0  0  0  0  0  0  0
  140.1588   79.3459  223.7263 H   0  0  0  0  0  0  0  0  0  0  0  0
  141.8961   77.6901  222.9380 H   0  0  0  0  0  0  0  0  0  0  0  0
  143.0420   78.8560  221.3710 H   0  0  0  0  0  0  0  0  0  0  0  0
  140.4523   78.0064  220.1403 H   0  0  0  0  0  0  0  0  0  0  0  0
  142.0111   75.7709  221.2472 H   0  0  0  0  0  0  0  0  0  0  0  0
  141.3103   76.0602  219.5785 H   0  0  0  0  0  0  0  0  0  0  0  0
  143.3480   77.6250  220.8020 H   0  0  0  0  0  0  0  0  0  0  0  0
  139.0692   69.5674  222.5424 H   0  0  0  0  0  0  0  0  0  0  0  0
  139.2217   68.1497  224.5479 H   0  0  0  0  0  0  0  0  0  0  0  0
  139.8009   67.9086  226.8042 H   0  0  0  0  0  0  0  0  0  0  0  0
  141.4236   71.2501  228.9420 H   0  0  0  0  0  0  0  0  0  0  0  0
  141.2650   72.6522  226.9276 H   0  0  0  0  0  0  0  0  0  0  0  0
  1  2  2  0
  2  3  1  0
  3  4  1  0
  4  5  1  0
  5  6  2  0
  5  7  1  0
  7  8  1  0
  8  9  1  0
  9 10  1  0
 10 11  1  0
 10 12  1  0
 12 13  1  0
 13 14  1  0
  2 15  1  0
 15 16  2  0
 16 17  1  0
 17 18  2  0
 18 19  1  0
 19 20  2  0
 20 21  1  0
 20 22  1  0
 22 23  2  0
 23 24  1  0
 24 25  2  0
 12  7  1  0
 25 15  1  0
 24 18  1  0
  3 26  1  0
  4 27  1  0
  4 28  1  0
  8 29  1  0
  8 30  1  0
  9 31  1  0
  9 32  1  0
 10 33  1  1
 11 34  1  0
 12 35  1  6
 13 36  1  0
 13 37  1  0
 14 38  1  0
 16 39  1  0
 17 40  1  0
 19 41  1  0
 22 42  1  0
 23 43  1  0
M  END
>  <smiles>  (38) 
O=C(NCC(=O)N1CC[C@H](O)[C@H]1CO)c1ccc2cc(F)ccc2n1

>  <score_type>  (38) 
oracle

>  <origin>  (38) 
autodockgpu

>  <m_score__min__energy>  (38) 
-7.4800000000000004

>  <m_primary>  (38) 
energy

>  <rmsd>  (38) 
3.11102608262947

>  <m_score__min__rmsd>  (38) 
3.11102608262947

>  <meeko>  (38) 
{"free_energy": -6.8, "intermolecular_energy": -8.89, "internal_energy": -2.01, "cluster_size": 12, "cluster_id": 4, "rank_in_cluster": 2}

>  <energy>  (38) 
-6.59

>  <cluster_rmsd>  (38) 
0.29

>  <cluster>  (38) 
3

$$$$

     RDKit          3D

 43 45  0  0  0  0  0  0  0  0999 V2000
  138.7210   70.4000  221.5620 O   0  0  0  0  0  0  0  0  0  0  0  0
  139.3520   70.9370  222.5200 C   0  0  0  0  0  0  0  0  0  0  0  0
  139.8940   72.2630  222.3980 N   0  0  0  0  0  0  0  0  0  0  0  0
  139.7200   73.0200  221.1480 C   0  0  0  0  0  0  0  0  0  0  0  0
  140.3350   74.3460  221.2730 C   0  0  0  0  0  0  0  0  0  0  0  0
  139.9580   75.0620  222.2630 O   0  0  0  0  0  0  0  0  0  0  0  0
  141.3010   74.9310  220.4230 N   0  0  0  0  0  0  0  0  0  0  0  0
  141.7600   74.1550  219.2340 C   0  0  0  0  0  0  0  0  0  0  0  0
  142.7490   75.0590  218.5550 C   0  0  0  0  0  0  0  0  0  0  0  0
  142.2770   76.4440  218.9730 C   0  0  2  0  0  0  0  0  0  0  0  0
  143.2820   77.3910  218.8150 O   0  0  0  0  0  0  0  0  0  0  0  0
  141.9970   76.1880  220.4600 C   0  0  1  0  0  0  0  0  0  0  0  0
  141.2790   77.3330  221.0770 C   0  0  0  0  0  0  0  0  0  0  0  0
  141.9390   78.5390  220.9710 O   0  0  0  0  0  0  0  0  0  0  0  0
  139.5390   70.2120  223.7700 C   0  0  0  0  0  0  0  0  0  0  0  0
  139.0960   68.9160  223.8830 C   0  0  0  0  0  0  0  0  0  0  0  0
  139.2280   68.1540  225.0180 C   0  0  0  0  0  0  0  0  0  0  0  0
  139.8420   68.7330  226.1030 C   0  0  0  0  0  0  0  0  0  0  0  0
  139.9760   67.9760  227.2400 C   0  0  0  0  0  0  0  0  0  0  0  0
  140.5870   68.5290  228.3450 C   0  0  0  0  0  0  0  0  0  0  0  0
  140.7230   67.7830  229.4750 F   0  0  0  0  0  0  0  0  0  0  0  0
  141.0410   69.8330  228.2540 C   0  0  0  0  0  0  0  0  0  0  0  0
  140.8990   70.5800  227.1040 C   0  0  0  0  0  0  0  0  0  0  0  0
  140.2840   70.0320  225.9870 C   0  0  0  0  0  0  0  0  0  0  0  0
  140.1370   70.7480  224.8530 N   0  0  0  0  0  0  0  0  0  0  0  0
  140.4030   72.6550  223.2180 H   0  0  0  0  0  0  0  0  0  0  0  0
  140.1982   72.4734  220.3218 H   0  0  0  0  0  0  0  0  0  0  0  0
  138.6454   73.1387  220.9451 H   0  0  0  0  0  0  0  0  0  0  0  0
  142.2410   73.2157  219.5445 H   0  0  0  0  0  0  0  0  0  0  0  0
  140.9282   73.8722  218.5721 H   0  0  0  0  0  0  0  0  0  0  0  0
  143.7722   74.8649  218.9091 H   0  0  0  0  0  0  0  0  0  0  0  0
  142.7889   74.9219  217.4643 H   0  0  0  0  0  0  0  0  0  0  0  0
  141.4288   76.8384  218.3942 H   0  0  0  0  0  0  0  0  0  0  0  0
  143.5530   77.8290  219.6590 H   0  0  0  0  0  0  0  0  0  0  0  0
  142.8802   76.1172  221.1119 H   0  0  0  0  0  0  0  0  0  0  0  0
  140.3000   77.4314  220.5851 H   0  0  0  0  0  0  0  0  0  0  0  0
  141.1967   77.1118  222.1514 H   0  0  0  0  0  0  0  0  0  0  0  0
  142.8730   78.4220  220.6920 H   0  0  0  0  0  0  0  0  0  0  0  0
  138.6052   68.4607  223.0102 H   0  0  0  0  0  0  0  0  0  0  0  0
  138.8564   67.1194  225.0573 H   0  0  0  0  0  0  0  0  0  0  0  0
  139.6010   66.9423  227.2691 H   0  0  0  0  0  0  0  0  0  0  0  0
  141.5310   70.2882  229.1273 H   0  0  0  0  0  0  0  0  0  0  0  0
  141.2743   71.6135  227.0716 H   0  0  0  0  0  0  0  0  0  0  0  0
  1  2  2  0
  2  3  1  0
  3  4  1  0
  4  5  1  0
  5  6  2  0
  5  7  1  0
  7  8  1  0
  8  9  1  0
  9 10  1  0
 10 11  1  0
 10 12  1  0
 12 13  1  0
 13 14  1  0
  2 15  1  0
 15 16  2  0
 16 17  1  0
 17 18  2  0
 18 19  1  0
 19 20  2  0
 20 21  1  0
 20 22  1  0
 22 23  2  0
 23 24  1  0
 24 25  2  0
 12  7  1  0
 25 15  1  0
 24 18  1  0
  3 26  1  0
  4 27  1  0
  4 28  1  0
  8 29  1  0
  8 30  1  0
  9 31  1  0
  9 32  1  0
 10 33  1  6
 11 34  1  0
 12 35  1  1
 13 36  1  0
 13 37  1  0
 14 38  1  0
 16 39  1  0
 17 40  1  0
 19 41  1  0
 22 42  1  0
 23 43  1  0
M  END
>  <smiles>  (39) 
O=C(NCC(=O)N1CC[C@H](O)[C@H]1CO)c1ccc2cc(F)ccc2n1

>  <score_type>  (39) 
oracle

>  <origin>  (39) 
autodockgpu

>  <m_score__min__energy>  (39) 
-7.4800000000000004

>  <m_primary>  (39) 
energy

>  <rmsd>  (39) 
2.06141356698853

>  <m_score__min__rmsd>  (39) 
2.06141356698853

>  <meeko>  (39) 
{"free_energy": -6.25, "intermolecular_energy": -8.34, "internal_energy": -2.2, "cluster_size": 12, "cluster_id": 4, "rank_in_cluster": 11}

>  <energy>  (39) 
-6.81

>  <cluster_rmsd>  (39) 
0.0

>  <cluster>  (39) 
4

$$$$

     RDKit          3D

 43 45  0  0  0  0  0  0  0  0999 V2000
  139.3000   71.3060  221.4730 O   0  0  0  0  0  0  0  0  0  0  0  0
  139.9690   71.6900  222.4780 C   0  0  0  0  0  0  0  0  0  0  0  0
  140.7510   72.8950  222.4300 N   0  0  0  0  0  0  0  0  0  0  0  0
  140.7840   73.7050  221.2010 C   0  0  0  0  0  0  0  0  0  0  0  0
  141.5500   73.0110  220.1610 C   0  0  0  0  0  0  0  0  0  0  0  0
  140.8770   72.3480  219.2990 O   0  0  0  0  0  0  0  0  0  0  0  0
  142.9540   72.9870  219.9950 N   0  0  0  0  0  0  0  0  0  0  0  0
  143.7490   72.0450  220.8380 C   0  0  0  0  0  0  0  0  0  0  0  0
  145.1700   72.2600  220.4000 C   0  0  0  0  0  0  0  0  0  0  0  0
  145.0090   72.7420  218.9670 C   0  0  2  0  0  0  0  0  0  0  0  0
  146.1500   73.3990  218.5210 O   0  0  0  0  0  0  0  0  0  0  0  0
  143.8480   73.7290  219.1500 C   0  0  1  0  0  0  0  0  0  0  0  0
  143.3110   74.1770  217.8380 C   0  0  0  0  0  0  0  0  0  0  0  0
  144.1780   74.9650  217.1120 O   0  0  0  0  0  0  0  0  0  0  0  0
  139.9550   70.9090  223.7070 C   0  0  0  0  0  0  0  0  0  0  0  0
  139.3320   69.6840  223.7330 C   0  0  0  0  0  0  0  0  0  0  0  0
  139.2670   68.8770  224.8440 C   0  0  0  0  0  0  0  0  0  0  0  0
  139.8650   69.3320  225.9940 C   0  0  0  0  0  0  0  0  0  0  0  0
  139.8030   68.5300  227.1060 C   0  0  0  0  0  0  0  0  0  0  0  0
  140.3930   68.9600  228.2760 C   0  0  0  0  0  0  0  0  0  0  0  0
  140.3350   68.1680  229.3810 F   0  0  0  0  0  0  0  0  0  0  0  0
  141.0260   70.1890  228.2730 C   0  0  0  0  0  0  0  0  0  0  0  0
  141.0790   70.9840  227.1470 C   0  0  0  0  0  0  0  0  0  0  0  0
  140.4880   70.5610  225.9650 C   0  0  0  0  0  0  0  0  0  0  0  0
  140.5300   71.3240  224.8530 N   0  0  0  0  0  0  0  0  0  0  0  0
  141.2800   73.1630  223.2850 H   0  0  0  0  0  0  0  0  0  0  0  0
  139.7559   73.8704  220.8465 H   0  0  0  0  0  0  0  0  0  0  0  0
  141.2645   74.6703  221.4186 H   0  0  0  0  0  0  0  0  0  0  0  0
  143.6304   72.2830  221.9054 H   0  0  0  0  0  0  0  0  0  0  0  0
  143.4266   71.0003  220.7174 H   0  0  0  0  0  0  0  0  0  0  0  0
  145.6657   73.0207  221.0210 H   0  0  0  0  0  0  0  0  0  0  0  0
  145.7954   71.3596  220.4899 H   0  0  0  0  0  0  0  0  0  0  0  0
  144.8392   71.9452  218.2279 H   0  0  0  0  0  0  0  0  0  0  0  0
  145.9710   74.2940  218.1390 H   0  0  0  0  0  0  0  0  0  0  0  0
  144.1030   74.6930  219.6144 H   0  0  0  0  0  0  0  0  0  0  0  0
  143.0726   73.2850  217.2401 H   0  0  0  0  0  0  0  0  0  0  0  0
  142.4267   74.7949  218.0528 H   0  0  0  0  0  0  0  0  0  0  0  0
  145.0610   75.0270  217.5360 H   0  0  0  0  0  0  0  0  0  0  0  0
  138.8560   69.3274  222.8076 H   0  0  0  0  0  0  0  0  0  0  0  0
  138.7555   67.9037  224.8133 H   0  0  0  0  0  0  0  0  0  0  0  0
  139.2899   67.5579  227.0646 H   0  0  0  0  0  0  0  0  0  0  0  0
  141.5028   70.5444  229.1984 H   0  0  0  0  0  0  0  0  0  0  0  0
  141.5915   71.9565  227.1862 H   0  0  0  0  0  0  0  0  0  0  0  0
  1  2  2  0
  2  3  1  0
  3  4  1  0
  4  5  1  0
  5  6  2  0
  5  7  1  0
  7  8  1  0
  8  9  1  0
  9 10  1  0
 10 11  1  0
 10 12  1  0
 12 13  1  0
 13 14  1  0
  2 15  1  0
 15 16  2  0
 16 17  1  0
 17 18  2  0
 18 19  1  0
 19 20  2  0
 20 21  1  0
 20 22  1  0
 22 23  2  0
 23 24  1  0
 24 25  2  0
 12  7  1  0
 25 15  1  0
 24 18  1  0
  3 26  1  0
  4 27  1  0
  4 28  1  0
  8 29  1  0
  8 30  1  0
  9 31  1  0
  9 32  1  0
 10 33  1  6
 11 34  1  0
 12 35  1  1
 13 36  1  0
 13 37  1  0
 14 38  1  0
 16 39  1  0
 17 40  1  0
 19 41  1  0
 22 42  1  0
 23 43  1  0
M  END
>  <smiles>  (40) 
O=C(NCC(=O)N1CC[C@H](O)[C@H]1CO)c1ccc2cc(F)ccc2n1

>  <score_type>  (40) 
oracle

>  <origin>  (40) 
autodockgpu

>  <m_score__min__energy>  (40) 
-7.4800000000000004

>  <m_primary>  (40) 
energy

>  <rmsd>  (40) 
3.4464798129897374

>  <m_score__min__rmsd>  (40) 
3.4464798129897374

>  <meeko>  (40) 
{"free_energy": -6.34, "intermolecular_energy": -8.42, "internal_energy": -2.2, "cluster_size": 18, "cluster_id": 1, "rank_in_cluster": 18}

>  <energy>  (40) 
-6.8

>  <cluster_rmsd>  (40) 
0.94

>  <cluster>  (40) 
4

$$$$

     RDKit          3D

 43 45  0  0  0  0  0  0  0  0999 V2000
  140.0850   70.9720  221.1960 O   0  0  0  0  0  0  0  0  0  0  0  0
  139.9040   71.6130  222.2740 C   0  0  0  0  0  0  0  0  0  0  0  0
  139.7420   73.0420  222.2670 N   0  0  0  0  0  0  0  0  0  0  0  0
  139.7860   73.7840  220.9970 C   0  0  0  0  0  0  0  0  0  0  0  0
  140.5820   75.0060  221.1550 C   0  0  0  0  0  0  0  0  0  0  0  0
  140.7080   75.4590  222.3450 O   0  0  0  0  0  0  0  0  0  0  0  0
  141.2300   75.7490  220.1420 N   0  0  0  0  0  0  0  0  0  0  0  0
  140.8020   77.1610  219.9170 C   0  0  0  0  0  0  0  0  0  0  0  0
  141.6900   77.6490  218.8080 C   0  0  0  0  0  0  0  0  0  0  0  0
  142.9310   76.7840  218.9680 C   0  0  2  0  0  0  0  0  0  0  0  0
  143.6910   76.7680  217.8050 O   0  0  0  0  0  0  0  0  0  0  0  0
  142.2710   75.4190  219.2080 C   0  0  1  0  0  0  0  0  0  0  0  0
  143.2680   74.4090  219.6450 C   0  0  0  0  0  0  0  0  0  0  0  0
  144.4160   74.3790  218.8820 O   0  0  0  0  0  0  0  0  0  0  0  0
  139.8550   70.9050  223.5460 C   0  0  0  0  0  0  0  0  0  0  0  0
  139.3170   69.6420  223.6070 C   0  0  0  0  0  0  0  0  0  0  0  0
  139.2290   68.8980  224.7590 C   0  0  0  0  0  0  0  0  0  0  0  0
  139.7110   69.4600  225.9160 C   0  0  0  0  0  0  0  0  0  0  0  0
  139.6250   68.7210  227.0690 C   0  0  0  0  0  0  0  0  0  0  0  0
  140.1000   69.2600  228.2470 C   0  0  0  0  0  0  0  0  0  0  0  0
  140.0170   68.5300  229.3930 F   0  0  0  0  0  0  0  0  0  0  0  0
  140.6450   70.5300  228.2090 C   0  0  0  0  0  0  0  0  0  0  0  0
  140.7240   71.2590  227.0420 C   0  0  0  0  0  0  0  0  0  0  0  0
  140.2490   70.7270  225.8520 C   0  0  0  0  0  0  0  0  0  0  0  0
  140.3180   71.4260  224.7000 N   0  0  0  0  0  0  0  0  0  0  0  0
  139.5950   73.5160  223.1820 H   0  0  0  0  0  0  0  0  0  0  0  0
  140.2413   73.1509  220.2212 H   0  0  0  0  0  0  0  0  0  0  0  0
  138.7616   74.0568  220.7035 H   0  0  0  0  0  0  0  0  0  0  0  0
  139.7447   77.2040  219.6164 H   0  0  0  0  0  0  0  0  0  0  0  0
  140.8899   77.7753  220.8253 H   0  0  0  0  0  0  0  0  0  0  0  0
  141.2207   77.4915  217.8257 H   0  0  0  0  0  0  0  0  0  0  0  0
  141.9001   78.7275  218.8596 H   0  0  0  0  0  0  0  0  0  0  0  0
  143.6280   77.1152  219.7519 H   0  0  0  0  0  0  0  0  0  0  0  0
  144.5800   76.3490  217.9160 H   0  0  0  0  0  0  0  0  0  0  0  0
  141.8468   74.9253  218.3213 H   0  0  0  0  0  0  0  0  0  0  0  0
  143.5508   74.6312  220.6845 H   0  0  0  0  0  0  0  0  0  0  0  0
  142.7895   73.4248  219.5336 H   0  0  0  0  0  0  0  0  0  0  0  0
  144.4290   75.0950  218.2120 H   0  0  0  0  0  0  0  0  0  0  0  0
  138.9331   69.1992  222.6761 H   0  0  0  0  0  0  0  0  0  0  0  0
  138.7889   67.8899  224.7548 H   0  0  0  0  0  0  0  0  0  0  0  0
  139.1838   67.7135  227.0544 H   0  0  0  0  0  0  0  0  0  0  0  0
  141.0279   70.9729  229.1402 H   0  0  0  0  0  0  0  0  0  0  0  0
  141.1654   72.2665  227.0542 H   0  0  0  0  0  0  0  0  0  0  0  0
  1  2  2  0
  2  3  1  0
  3  4  1  0
  4  5  1  0
  5  6  2  0
  5  7  1  0
  7  8  1  0
  8  9  1  0
  9 10  1  0
 10 11  1  0
 10 12  1  0
 12 13  1  0
 13 14  1  0
  2 15  1  0
 15 16  2  0
 16 17  1  0
 17 18  2  0
 18 19  1  0
 19 20  2  0
 20 21  1  0
 20 22  1  0
 22 23  2  0
 23 24  1  0
 24 25  2  0
 12  7  1  0
 25 15  1  0
 24 18  1  0
  3 26  1  0
  4 27  1  0
  4 28  1  0
  8 29  1  0
  8 30  1  0
  9 31  1  0
  9 32  1  0
 10 33  1  1
 11 34  1  0
 12 35  1  6
 13 36  1  0
 13 37  1  0
 14 38  1  0
 16 39  1  0
 17 40  1  0
 19 41  1  0
 22 42  1  0
 23 43  1  0
M  END
>  <smiles>  (41) 
O=C(NCC(=O)N1CC[C@H](O)[C@H]1CO)c1ccc2cc(F)ccc2n1

>  <score_type>  (41) 
oracle

>  <origin>  (41) 
autodockgpu

>  <m_score__min__energy>  (41) 
-7.4800000000000004

>  <m_primary>  (41) 
energy

>  <rmsd>  (41) 
2.145634719698891

>  <m_score__min__rmsd>  (41) 
2.145634719698891

>  <meeko>  (41) 
{"free_energy": -6.47, "intermolecular_energy": -8.56, "internal_energy": -2.36, "cluster_size": 18, "cluster_id": 1, "rank_in_cluster": 14}

>  <energy>  (41) 
-6.61

>  <cluster_rmsd>  (41) 
1.53

>  <cluster>  (41) 
4

$$$$

     RDKit          3D

 43 45  0  0  0  0  0  0  0  0999 V2000
  135.8820   69.3560  224.3350 O   0  0  0  0  0  0  0  0  0  0  0  0
  136.0850   70.5860  224.5620 C   0  0  0  0  0  0  0  0  0  0  0  0
  137.3190   71.2150  224.1780 N   0  0  0  0  0  0  0  0  0  0  0  0
  138.3710   70.4330  223.5100 C   0  0  0  0  0  0  0  0  0  0  0  0
  139.6700   70.6930  224.1400 C   0  0  0  0  0  0  0  0  0  0  0  0
  140.5150   71.3670  223.4560 O   0  0  0  0  0  0  0  0  0  0  0  0
  140.1020   70.2840  225.4220 N   0  0  0  0  0  0  0  0  0  0  0  0
  140.3870   71.3360  226.4410 C   0  0  0  0  0  0  0  0  0  0  0  0
  140.7960   70.5700  227.6670 C   0  0  0  0  0  0  0  0  0  0  0  0
  140.0800   69.2400  227.4840 C   0  0  2  0  0  0  0  0  0  0  0  0
  140.6510   68.2440  228.2680 O   0  0  0  0  0  0  0  0  0  0  0  0
  140.3620   68.9920  225.9960 C   0  0  1  0  0  0  0  0  0  0  0  0
  139.5560   67.8560  225.4780 C   0  0  0  0  0  0  0  0  0  0  0  0
  139.0690   67.0150  226.4560 O   0  0  0  0  0  0  0  0  0  0  0  0
  135.0620   71.3860  225.2210 C   0  0  0  0  0  0  0  0  0  0  0  0
  134.0370   70.7660  225.8960 C   0  0  0  0  0  0  0  0  0  0  0  0
  133.0290   71.4360  226.5480 C   0  0  0  0  0  0  0  0  0  0  0  0
  133.0560   72.8090  226.5160 C   0  0  0  0  0  0  0  0  0  0  0  0
  132.0510   73.4830  227.1650 C   0  0  0  0  0  0  0  0  0  0  0  0
  132.0510   74.8620  227.1500 C   0  0  0  0  0  0  0  0  0  0  0  0
  131.0570   75.5340  227.7920 F   0  0  0  0  0  0  0  0  0  0  0  0
  133.0730   75.5070  226.4770 C   0  0  0  0  0  0  0  0  0  0  0  0
  134.0750   74.8150  225.8300 C   0  0  0  0  0  0  0  0  0  0  0  0
  134.0840   73.4270  225.8380 C   0  0  0  0  0  0  0  0  0  0  0  0
  135.0570   72.7340  225.2110 N   0  0  0  0  0  0  0  0  0  0  0  0
  137.4310   72.2290  224.3890 H   0  0  0  0  0  0  0  0  0  0  0  0
  138.1351   69.3617  223.5916 H   0  0  0  0  0  0  0  0  0  0  0  0
  138.4196   70.7262  222.4509 H   0  0  0  0  0  0  0  0  0  0  0  0
  141.2015   71.9938  226.1036 H   0  0  0  0  0  0  0  0  0  0  0  0
  139.5196   71.9872  226.6242 H   0  0  0  0  0  0  0  0  0  0  0  0
  141.8867   70.4318  227.7030 H   0  0  0  0  0  0  0  0  0  0  0  0
  140.5373   71.0796  228.6069 H   0  0  0  0  0  0  0  0  0  0  0  0
  139.0175   69.2439  227.7687 H   0  0  0  0  0  0  0  0  0  0  0  0
  140.1490   67.3930  228.2580 H   0  0  0  0  0  0  0  0  0  0  0  0
  141.3806   68.6596  225.7470 H   0  0  0  0  0  0  0  0  0  0  0  0
  138.7018   68.2659  224.9191 H   0  0  0  0  0  0  0  0  0  0  0  0
  140.2278   67.2532  224.8492 H   0  0  0  0  0  0  0  0  0  0  0  0
  139.7820   66.6840  227.0430 H   0  0  0  0  0  0  0  0  0  0  0  0
  134.0226   69.6663  225.9155 H   0  0  0  0  0  0  0  0  0  0  0  0
  132.2309   70.8930  227.0755 H   0  0  0  0  0  0  0  0  0  0  0  0
  131.2572   72.9309  227.6894 H   0  0  0  0  0  0  0  0  0  0  0  0
  133.0868   76.6067  226.4573 H   0  0  0  0  0  0  0  0  0  0  0  0
  134.8702   75.3651  225.3055 H   0  0  0  0  0  0  0  0  0  0  0  0
  1  2  2  0
  2  3  1  0
  3  4  1  0
  4  5  1  0
  5  6  2  0
  5  7  1  0
  7  8  1  0
  8  9  1  0
  9 10  1  0
 10 11  1  0
 10 12  1  0
 12 13  1  0
 13 14  1  0
  2 15  1  0
 15 16  2  0
 16 17  1  0
 17 18  2  0
 18 19  1  0
 19 20  2  0
 20 21  1  0
 20 22  1  0
 22 23  2  0
 23 24  1  0
 24 25  2  0
 12  7  1  0
 25 15  1  0
 24 18  1  0
  3 26  1  0
  4 27  1  0
  4 28  1  0
  8 29  1  0
  8 30  1  0
  9 31  1  0
  9 32  1  0
 10 33  1  6
 11 34  1  0
 12 35  1  1
 13 36  1  0
 13 37  1  0
 14 38  1  0
 16 39  1  0
 17 40  1  0
 19 41  1  0
 22 42  1  0
 23 43  1  0
M  END
>  <smiles>  (42) 
O=C(NCC(=O)N1CC[C@H](O)[C@H]1CO)c1ccc2cc(F)ccc2n1

>  <score_type>  (42) 
oracle

>  <origin>  (42) 
autodockgpu

>  <m_score__min__energy>  (42) 
-7.4800000000000004

>  <m_primary>  (42) 
energy

>  <rmsd>  (42) 
8.732024737682048

>  <m_score__min__rmsd>  (42) 
8.732024737682048

>  <meeko>  (42) 
{"free_energy": -6.81, "intermolecular_energy": -8.89, "internal_energy": -2.29, "cluster_size": 4, "cluster_id": 3, "rank_in_cluster": 2}

>  <energy>  (42) 
-6.6

>  <cluster_rmsd>  (42) 
1.54

>  <cluster>  (42) 
4

$$$$

     RDKit          3D

 43 45  0  0  0  0  0  0  0  0999 V2000
  141.6790   72.1810  221.0260 O   0  0  0  0  0  0  0  0  0  0  0  0
  141.0540   73.0190  221.7410 C   0  0  0  0  0  0  0  0  0  0  0  0
  140.2100   72.5850  222.8210 N   0  0  0  0  0  0  0  0  0  0  0  0
  140.0600   71.1500  223.1120 C   0  0  0  0  0  0  0  0  0  0  0  0
  139.4250   70.9650  224.4210 C   0  0  0  0  0  0  0  0  0  0  0  0
  138.2030   71.3300  224.5230 O   0  0  0  0  0  0  0  0  0  0  0  0
  140.0060   70.4300  225.5930 N   0  0  0  0  0  0  0  0  0  0  0  0
  140.5260   71.3780  226.6220 C   0  0  0  0  0  0  0  0  0  0  0  0
  141.0450   70.4930  227.7190 C   0  0  0  0  0  0  0  0  0  0  0  0
  140.2000   69.2370  227.5630 C   0  0  2  0  0  0  0  0  0  0  0  0
  140.7950   68.1460  228.1850 O   0  0  0  0  0  0  0  0  0  0  0  0
  140.2370   69.0830  226.0370 C   0  0  1  0  0  0  0  0  0  0  0  0
  139.2720   68.0510  225.5770 C   0  0  0  0  0  0  0  0  0  0  0  0
  139.0970   67.0060  226.4590 O   0  0  0  0  0  0  0  0  0  0  0  0
  141.1830   74.4450  221.4770 C   0  0  0  0  0  0  0  0  0  0  0  0
  141.9500   74.8800  220.4230 C   0  0  0  0  0  0  0  0  0  0  0  0
  142.1300   76.2030  220.0970 C   0  0  0  0  0  0  0  0  0  0  0  0
  141.5000   77.1410  220.8790 C   0  0  0  0  0  0  0  0  0  0  0  0
  141.6770   78.4630  220.5570 C   0  0  0  0  0  0  0  0  0  0  0  0
  141.0580   79.4280  221.3240 C   0  0  0  0  0  0  0  0  0  0  0  0
  141.2300   80.7400  221.0090 F   0  0  0  0  0  0  0  0  0  0  0  0
  140.2800   79.0130  222.3900 C   0  0  0  0  0  0  0  0  0  0  0  0
  140.1130   77.6800  222.7000 C   0  0  0  0  0  0  0  0  0  0  0  0
  140.7320   76.7010  221.9350 C   0  0  0  0  0  0  0  0  0  0  0  0
  140.5790   75.3930  222.2230 N   0  0  0  0  0  0  0  0  0  0  0  0
  139.7210   73.3180  223.3770 H   0  0  0  0  0  0  0  0  0  0  0  0
  139.4351   70.6847  222.3355 H   0  0  0  0  0  0  0  0  0  0  0  0
  141.0541   70.6793  223.1243 H   0  0  0  0  0  0  0  0  0  0  0  0
  141.3345   71.9977  226.2068 H   0  0  0  0  0  0  0  0  0  0  0  0
  139.7533   72.0757  226.9771 H   0  0  0  0  0  0  0  0  0  0  0  0
  142.1134   70.2723  227.5786 H   0  0  0  0  0  0  0  0  0  0  0  0
  140.9716   70.9473  228.7181 H   0  0  0  0  0  0  0  0  0  0  0  0
  139.1951   69.2970  228.0064 H   0  0  0  0  0  0  0  0  0  0  0  0
  140.2570   67.3170  228.1350 H   0  0  0  0  0  0  0  0  0  0  0  0
  141.1760   68.6967  225.6137 H   0  0  0  0  0  0  0  0  0  0  0  0
  138.2974   68.5362  225.4197 H   0  0  0  0  0  0  0  0  0  0  0  0
  139.6878   67.6191  224.6547 H   0  0  0  0  0  0  0  0  0  0  0  0
  139.9500   66.6930  226.8300 H   0  0  0  0  0  0  0  0  0  0  0  0
  142.4507   74.1227  219.8020 H   0  0  0  0  0  0  0  0  0  0  0  0
  142.7551   76.4999  219.2420 H   0  0  0  0  0  0  0  0  0  0  0  0
  142.3036   78.7492  219.6994 H   0  0  0  0  0  0  0  0  0  0  0  0
  139.7786   79.7707  223.0101 H   0  0  0  0  0  0  0  0  0  0  0  0
  139.4868   77.3911  223.5570 H   0  0  0  0  0  0  0  0  0  0  0  0
  1  2  2  0
  2  3  1  0
  3  4  1  0
  4  5  1  0
  5  6  2  0
  5  7  1  0
  7  8  1  0
  8  9  1  0
  9 10  1  0
 10 11  1  0
 10 12  1  0
 12 13  1  0
 13 14  1  0
  2 15  1  0
 15 16  2  0
 16 17  1  0
 17 18  2  0
 18 19  1  0
 19 20  2  0
 20 21  1  0
 20 22  1  0
 22 23  2  0
 23 24  1  0
 24 25  2  0
 12  7  1  0
 25 15  1  0
 24 18  1  0
  3 26  1  0
  4 27  1  0
  4 28  1  0
  8 29  1  0
  8 30  1  0
  9 31  1  0
  9 32  1  0
 10 33  1  1
 11 34  1  0
 12 35  1  1
 13 36  1  0
 13 37  1  0
 14 38  1  0
 16 39  1  0
 17 40  1  0
 19 41  1  0
 22 42  1  0
 23 43  1  0
M  END
>  <smiles>  (43) 
O=C(NCC(=O)N1CC[C@H](O)[C@H]1CO)c1ccc2cc(F)ccc2n1

>  <score_type>  (43) 
oracle

>  <origin>  (43) 
autodockgpu

>  <m_score__min__energy>  (43) 
-7.4800000000000004

>  <m_primary>  (43) 
energy

>  <rmsd>  (43) 
9.286923718833233

>  <m_score__min__rmsd>  (43) 
9.286923718833233

>  <meeko>  (43) 
{"free_energy": -7.12, "intermolecular_energy": -9.21, "internal_energy": -2.27, "cluster_size": 16, "cluster_id": 2, "rank_in_cluster": 9}

>  <energy>  (43) 
-6.6

>  <cluster_rmsd>  (43) 
1.55

>  <cluster>  (43) 
4

$$$$

     RDKit          3D

 43 45  0  0  0  0  0  0  0  0999 V2000
  135.7890   69.4570  224.3270 O   0  0  0  0  0  0  0  0  0  0  0  0
  135.9980   70.6830  224.5680 C   0  0  0  0  0  0  0  0  0  0  0  0
  137.2370   71.3090  224.1960 N   0  0  0  0  0  0  0  0  0  0  0  0
  138.2880   70.5280  223.5240 C   0  0  0  0  0  0  0  0  0  0  0  0
  139.5890   70.7940  224.1470 C   0  0  0  0  0  0  0  0  0  0  0  0
  140.4470   71.4240  223.4360 O   0  0  0  0  0  0  0  0  0  0  0  0
  140.0120   70.4350  225.4460 N   0  0  0  0  0  0  0  0  0  0  0  0
  140.5810   71.4990  226.3240 C   0  0  0  0  0  0  0  0  0  0  0  0
  140.9020   70.7920  227.6100 C   0  0  0  0  0  0  0  0  0  0  0  0
  139.9110   69.6380  227.6140 C   0  0  2  0  0  0  0  0  0  0  0  0
  140.3110   68.6280  228.4810 O   0  0  0  0  0  0  0  0  0  0  0  0
  140.0320   69.1840  226.1530 C   0  0  1  0  0  0  0  0  0  0  0  0
  138.9710   68.2020  225.8060 C   0  0  0  0  0  0  0  0  0  0  0  0
  139.1450   66.9570  226.3720 O   0  0  0  0  0  0  0  0  0  0  0  0
  134.9760   71.4820  225.2310 C   0  0  0  0  0  0  0  0  0  0  0  0
  133.9390   70.8610  225.8850 C   0  0  0  0  0  0  0  0  0  0  0  0
  132.9310   71.5300  226.5380 C   0  0  0  0  0  0  0  0  0  0  0  0
  132.9720   72.9030  226.5300 C   0  0  0  0  0  0  0  0  0  0  0  0
  131.9680   73.5750  227.1810 C   0  0  0  0  0  0  0  0  0  0  0  0
  131.9820   74.9550  227.1900 C   0  0  0  0  0  0  0  0  0  0  0  0
  130.9880   75.6250  227.8340 F   0  0  0  0  0  0  0  0  0  0  0  0
  133.0160   75.6000  226.5380 C   0  0  0  0  0  0  0  0  0  0  0  0
  134.0180   74.9100  225.8890 C   0  0  0  0  0  0  0  0  0  0  0  0
  134.0130   73.5220  225.8730 C   0  0  0  0  0  0  0  0  0  0  0  0
  134.9850   72.8300  225.2440 N   0  0  0  0  0  0  0  0  0  0  0  0
  137.3540   72.3200  224.4180 H   0  0  0  0  0  0  0  0  0  0  0  0
  138.0559   69.4562  223.6095 H   0  0  0  0  0  0  0  0  0  0  0  0
  138.3302   70.8181  222.4638 H   0  0  0  0  0  0  0  0  0  0  0  0
  141.4909   71.9265  225.8775 H   0  0  0  0  0  0  0  0  0  0  0  0
  139.8849   72.3381  226.4699 H   0  0  0  0  0  0  0  0  0  0  0  0
  141.9388   70.4244  227.6124 H   0  0  0  0  0  0  0  0  0  0  0  0
  140.8215   71.4393  228.4957 H   0  0  0  0  0  0  0  0  0  0  0  0
  138.8952   69.9012  227.9440 H   0  0  0  0  0  0  0  0  0  0  0  0
  139.9190   67.7450  228.2710 H   0  0  0  0  0  0  0  0  0  0  0  0
  140.9385   68.6154  225.8982 H   0  0  0  0  0  0  0  0  0  0  0  0
  138.0050   68.6035  226.1462 H   0  0  0  0  0  0  0  0  0  0  0  0
  139.0148   68.0620  224.7158 H   0  0  0  0  0  0  0  0  0  0  0  0
  139.5470   67.0140  227.2660 H   0  0  0  0  0  0  0  0  0  0  0  0
  133.9140   69.7613  225.8860 H   0  0  0  0  0  0  0  0  0  0  0  0
  132.1220   70.9862  227.0477 H   0  0  0  0  0  0  0  0  0  0  0  0
  131.1638   73.0218  227.6882 H   0  0  0  0  0  0  0  0  0  0  0  0
  133.0404   76.6997  226.5368 H   0  0  0  0  0  0  0  0  0  0  0  0
  134.8239   75.4612  225.3823 H   0  0  0  0  0  0  0  0  0  0  0  0
  1  2  2  0
  2  3  1  0
  3  4  1  0
  4  5  1  0
  5  6  2  0
  5  7  1  0
  7  8  1  0
  8  9  1  0
  9 10  1  0
 10 11  1  0
 10 12  1  0
 12 13  1  0
 13 14  1  0
  2 15  1  0
 15 16  2  0
 16 17  1  0
 17 18  2  0
 18 19  1  0
 19 20  2  0
 20 21  1  0
 20 22  1  0
 22 23  2  0
 23 24  1  0
 24 25  2  0
 12  7  1  0
 25 15  1  0
 24 18  1  0
  3 26  1  0
  4 27  1  0
  4 28  1  0
  8 29  1  0
  8 30  1  0
  9 31  1  0
  9 32  1  0
 10 33  1  1
 11 34  1  0
 12 35  1  1
 13 36  1  0
 13 37  1  0
 14 38  1  0
 16 39  1  0
 17 40  1  0
 19 41  1  0
 22 42  1  0
 23 43  1  0
M  END
>  <smiles>  (44) 
O=C(NCC(=O)N1CC[C@H](O)[C@H]1CO)c1ccc2cc(F)ccc2n1

>  <score_type>  (44) 
oracle

>  <origin>  (44) 
autodockgpu

>  <m_score__min__energy>  (44) 
-7.4800000000000004

>  <m_primary>  (44) 
energy

>  <rmsd>  (44) 
8.74413107552944

>  <m_score__min__rmsd>  (44) 
8.74413107552944

>  <meeko>  (44) 
{"free_energy": -6.59, "intermolecular_energy": -8.67, "internal_energy": -2.2, "cluster_size": 4, "cluster_id": 3, "rank_in_cluster": 4}

>  <energy>  (44) 
-6.58

>  <cluster_rmsd>  (44) 
1.59

>  <cluster>  (44) 
4

$$$$

     RDKit          3D

 43 45  0  0  0  0  0  0  0  0999 V2000
  141.6770   71.9620  220.9690 O   0  0  0  0  0  0  0  0  0  0  0  0
  141.1250   72.8250  221.7140 C   0  0  0  0  0  0  0  0  0  0  0  0
  140.3540   72.4280  222.8600 N   0  0  0  0  0  0  0  0  0  0  0  0
  140.1950   71.0010  223.1860 C   0  0  0  0  0  0  0  0  0  0  0  0
  139.5460   70.8520  224.4930 C   0  0  0  0  0  0  0  0  0  0  0  0
  138.3470   71.2870  224.5910 O   0  0  0  0  0  0  0  0  0  0  0  0
  140.0910   70.2820  225.6660 N   0  0  0  0  0  0  0  0  0  0  0  0
  140.5470   71.1990  226.7520 C   0  0  0  0  0  0  0  0  0  0  0  0
  141.0410   70.2820  227.8340 C   0  0  0  0  0  0  0  0  0  0  0  0
  140.2310   69.0160  227.5940 C   0  0  2  0  0  0  0  0  0  0  0  0
  140.8240   67.9130  228.1970 O   0  0  0  0  0  0  0  0  0  0  0  0
  140.3330   68.9240  226.0660 C   0  0  1  0  0  0  0  0  0  0  0  0
  139.4100   67.8920  225.5270 C   0  0  0  0  0  0  0  0  0  0  0  0
  138.9320   67.0100  226.4720 O   0  0  0  0  0  0  0  0  0  0  0  0
  141.2650   74.2440  221.4170 C   0  0  0  0  0  0  0  0  0  0  0  0
  142.1050   74.6530  220.4090 C   0  0  0  0  0  0  0  0  0  0  0  0
  142.3010   75.9670  220.0560 C   0  0  0  0  0  0  0  0  0  0  0  0
  141.6120   76.9230  220.7620 C   0  0  0  0  0  0  0  0  0  0  0  0
  141.8040   78.2360  220.4140 C   0  0  0  0  0  0  0  0  0  0  0  0
  141.1260   79.2190  221.1050 C   0  0  0  0  0  0  0  0  0  0  0  0
  141.3140   80.5220  220.7630 F   0  0  0  0  0  0  0  0  0  0  0  0
  140.2760   78.8300  222.1240 C   0  0  0  0  0  0  0  0  0  0  0  0
  140.0940   77.5060  222.4610 C   0  0  0  0  0  0  0  0  0  0  0  0
  140.7720   76.5090  221.7730 C   0  0  0  0  0  0  0  0  0  0  0  0
  140.6050   75.2090  222.0890 N   0  0  0  0  0  0  0  0  0  0  0  0
  139.9240   73.1800  223.4380 H   0  0  0  0  0  0  0  0  0  0  0  0
  139.5760   70.5185  222.4153 H   0  0  0  0  0  0  0  0  0  0  0  0
  141.1869   70.5268  223.2203 H   0  0  0  0  0  0  0  0  0  0  0  0
  141.3573   71.8518  226.3953 H   0  0  0  0  0  0  0  0  0  0  0  0
  139.7448   71.8654  227.1018 H   0  0  0  0  0  0  0  0  0  0  0  0
  142.1189   70.0892  227.7293 H   0  0  0  0  0  0  0  0  0  0  0  0
  140.9174   70.6943  228.8463 H   0  0  0  0  0  0  0  0  0  0  0  0
  139.2079   69.0377  227.9976 H   0  0  0  0  0  0  0  0  0  0  0  0
  140.7180   67.0740  227.6850 H   0  0  0  0  0  0  0  0  0  0  0  0
  141.2965   68.5741  225.6669 H   0  0  0  0  0  0  0  0  0  0  0  0
  138.5514   68.4037  225.0677 H   0  0  0  0  0  0  0  0  0  0  0  0
  139.9891   67.2973  224.8052 H   0  0  0  0  0  0  0  0  0  0  0  0
  139.6580   66.5820  226.9750 H   0  0  0  0  0  0  0  0  0  0  0  0
  142.6544   73.8811  219.8501 H   0  0  0  0  0  0  0  0  0  0  0  0
  142.9839   76.2426  219.2389 H   0  0  0  0  0  0  0  0  0  0  0  0
  142.4891   78.5014  219.5953 H   0  0  0  0  0  0  0  0  0  0  0  0
  139.7275   79.6020  222.6836 H   0  0  0  0  0  0  0  0  0  0  0  0
  139.4086   77.2382  223.2786 H   0  0  0  0  0  0  0  0  0  0  0  0
  1  2  2  0
  2  3  1  0
  3  4  1  0
  4  5  1  0
  5  6  2  0
  5  7  1  0
  7  8  1  0
  8  9  1  0
  9 10  1  0
 10 11  1  0
 10 12  1  0
 12 13  1  0
 13 14  1  0
  2 15  1  0
 15 16  2  0
 16 17  1  0
 17 18  2  0
 18 19  1  0
 19 20  2  0
 20 21  1  0
 20 22  1  0
 22 23  2  0
 23 24  1  0
 24 25  2  0
 12  7  1  0
 25 15  1  0
 24 18  1  0
  3 26  1  0
  4 27  1  0
  4 28  1  0
  8 29  1  0
  8 30  1  0
  9 31  1  0
  9 32  1  0
 10 33  1  6
 11 34  1  0
 12 35  1  1
 13 36  1  0
 13 37  1  0
 14 38  1  0
 16 39  1  0
 17 40  1  0
 19 41  1  0
 22 42  1  0
 23 43  1  0
M  END
>  <smiles>  (45) 
O=C(NCC(=O)N1CC[C@H](O)[C@H]1CO)c1ccc2cc(F)ccc2n1

>  <score_type>  (45) 
oracle

>  <origin>  (45) 
autodockgpu

>  <m_score__min__energy>  (45) 
-7.4800000000000004

>  <m_primary>  (45) 
energy

>  <rmsd>  (45) 
9.31510370036124

>  <m_score__min__rmsd>  (45) 
9.31510370036124

>  <meeko>  (45) 
{"free_energy": -7.08, "intermolecular_energy": -9.16, "internal_energy": -2.21, "cluster_size": 16, "cluster_id": 2, "rank_in_cluster": 12}

>  <energy>  (45) 
-6.54

>  <cluster_rmsd>  (45) 
1.34

>  <cluster>  (45) 
4

$$$$

     RDKit          3D

 43 45  0  0  0  0  0  0  0  0999 V2000
  139.3680   71.1650  221.4810 O   0  0  0  0  0  0  0  0  0  0  0  0
  138.8500   71.5090  222.5850 C   0  0  0  0  0  0  0  0  0  0  0  0
  137.7130   72.3890  222.6260 N   0  0  0  0  0  0  0  0  0  0  0  0
  137.1320   72.9040  221.3750 C   0  0  0  0  0  0  0  0  0  0  0  0
  138.0900   73.7880  220.7020 C   0  0  0  0  0  0  0  0  0  0  0  0
  138.4220   73.4700  219.5080 O   0  0  0  0  0  0  0  0  0  0  0  0
  138.6940   74.9560  221.2180 N   0  0  0  0  0  0  0  0  0  0  0  0
  137.8900   75.8260  222.1270 C   0  0  0  0  0  0  0  0  0  0  0  0
  138.8220   76.9430  222.4980 C   0  0  0  0  0  0  0  0  0  0  0  0
  140.1920   76.2960  222.3590 C   0  0  2  0  0  0  0  0  0  0  0  0
  141.1950   77.2510  222.2380 O   0  0  0  0  0  0  0  0  0  0  0  0
  139.9940   75.5410  221.0380 C   0  0  1  0  0  0  0  0  0  0  0  0
  141.1190   74.6060  220.7790 C   0  0  0  0  0  0  0  0  0  0  0  0
  142.3670   75.1880  220.8470 O   0  0  0  0  0  0  0  0  0  0  0  0
  139.4020   71.0150  223.8380 C   0  0  0  0  0  0  0  0  0  0  0  0
  140.2910   71.7870  224.5470 C   0  0  0  0  0  0  0  0  0  0  0  0
  140.8630   71.4070  225.7370 C   0  0  0  0  0  0  0  0  0  0  0  0
  140.5200   70.1750  226.2400 C   0  0  0  0  0  0  0  0  0  0  0  0
  141.0900   69.7900  227.4280 C   0  0  0  0  0  0  0  0  0  0  0  0
  140.7650   68.5590  227.9590 C   0  0  0  0  0  0  0  0  0  0  0  0
  141.3260   68.1720  229.1360 F   0  0  0  0  0  0  0  0  0  0  0  0
  139.8720   67.7640  227.2630 C   0  0  0  0  0  0  0  0  0  0  0  0
  139.3090   68.1660  226.0700 C   0  0  0  0  0  0  0  0  0  0  0  0
  139.6300   69.4030  225.5270 C   0  0  0  0  0  0  0  0  0  0  0  0
  139.0880   69.8130  224.3620 N   0  0  0  0  0  0  0  0  0  0  0  0
  137.3270   72.6370  223.5610 H   0  0  0  0  0  0  0  0  0  0  0  0
  136.8877   72.0604  220.7127 H   0  0  0  0  0  0  0  0  0  0  0  0
  136.2195   73.4723  221.6084 H   0  0  0  0  0  0  0  0  0  0  0  0
  137.0025   76.2163  221.6074 H   0  0  0  0  0  0  0  0  0  0  0  0
  137.5181   75.2812  223.0073 H   0  0  0  0  0  0  0  0  0  0  0  0
  138.7140   77.7946  221.8102 H   0  0  0  0  0  0  0  0  0  0  0  0
  138.6332   77.3540  223.5007 H   0  0  0  0  0  0  0  0  0  0  0  0
  140.4996   75.6767  223.2145 H   0  0  0  0  0  0  0  0  0  0  0  0
  142.1040   76.8680  222.1680 H   0  0  0  0  0  0  0  0  0  0  0  0
  140.0147   76.1536  220.1246 H   0  0  0  0  0  0  0  0  0  0  0  0
  141.0744   73.7983  221.5244 H   0  0  0  0  0  0  0  0  0  0  0  0
  140.9962   74.2430  219.7479 H   0  0  0  0  0  0  0  0  0  0  0  0
  142.5220   75.6210  221.7140 H   0  0  0  0  0  0  0  0  0  0  0  0
  140.5615   72.7708  224.1359 H   0  0  0  0  0  0  0  0  0  0  0  0
  141.5686   72.0638  226.2669 H   0  0  0  0  0  0  0  0  0  0  0  0
  141.7958   70.4536  227.9491 H   0  0  0  0  0  0  0  0  0  0  0  0
  139.6025   66.7800  227.6742 H   0  0  0  0  0  0  0  0  0  0  0  0
  138.6031   67.5043  225.5467 H   0  0  0  0  0  0  0  0  0  0  0  0
  1  2  2  0
  2  3  1  0
  3  4  1  0
  4  5  1  0
  5  6  2  0
  5  7  1  0
  7  8  1  0
  8  9  1  0
  9 10  1  0
 10 11  1  0
 10 12  1  0
 12 13  1  0
 13 14  1  0
  2 15  1  0
 15 16  2  0
 16 17  1  0
 17 18  2  0
 18 19  1  0
 19 20  2  0
 20 21  1  0
 20 22  1  0
 22 23  2  0
 23 24  1  0
 24 25  2  0
 12  7  1  0
 25 15  1  0
 24 18  1  0
  3 26  1  0
  4 27  1  0
  4 28  1  0
  8 29  1  0
  8 30  1  0
  9 31  1  0
  9 32  1  0
 10 33  1  1
 11 34  1  0
 12 35  1  6
 13 36  1  0
 13 37  1  0
 14 38  1  0
 16 39  1  0
 17 40  1  0
 19 41  1  0
 22 42  1  0
 23 43  1  0
M  END
>  <smiles>  (46) 
O=C(NCC(=O)N1CC[C@H](O)[C@H]1CO)c1ccc2cc(F)ccc2n1

>  <score_type>  (46) 
oracle

>  <origin>  (46) 
autodockgpu

>  <m_score__min__energy>  (46) 
-7.4800000000000004

>  <m_primary>  (46) 
energy

>  <rmsd>  (46) 
3.592315726946548

>  <m_score__min__rmsd>  (46) 
3.592315726946548

>  <meeko>  (46) 
{"free_energy": -6.25, "intermolecular_energy": -8.34, "internal_energy": -2.16, "cluster_size": 12, "cluster_id": 4, "rank_in_cluster": 10}

>  <energy>  (46) 
-6.53

>  <cluster_rmsd>  (46) 
1.97

>  <cluster>  (46) 
4

$$$$

     RDKit          3D

 43 45  0  0  0  0  0  0  0  0999 V2000
  140.1710   71.3620  221.1320 O   0  0  0  0  0  0  0  0  0  0  0  0
  139.9700   71.9120  222.2560 C   0  0  0  0  0  0  0  0  0  0  0  0
  139.7280   73.3260  222.3540 N   0  0  0  0  0  0  0  0  0  0  0  0
  139.7090   74.1580  221.1410 C   0  0  0  0  0  0  0  0  0  0  0  0
  140.0110   75.5530  221.4820 C   0  0  0  0  0  0  0  0  0  0  0  0
  139.8090   75.9030  222.6960 O   0  0  0  0  0  0  0  0  0  0  0  0
  140.5000   76.5640  220.6240 N   0  0  0  0  0  0  0  0  0  0  0  0
  139.7740   77.8670  220.5820 C   0  0  0  0  0  0  0  0  0  0  0  0
  140.5550   78.6990  219.6050 C   0  0  0  0  0  0  0  0  0  0  0  0
  141.9530   78.1080  219.7060 C   0  0  2  0  0  0  0  0  0  0  0  0
  142.7230   78.4340  218.5950 O   0  0  0  0  0  0  0  0  0  0  0  0
  141.6070   76.6130  219.7100 C   0  0  1  0  0  0  0  0  0  0  0  0
  142.7940   75.7870  220.0500 C   0  0  0  0  0  0  0  0  0  0  0  0
  144.0010   76.3680  219.7240 O   0  0  0  0  0  0  0  0  0  0  0  0
  139.9820   71.1140  223.4740 C   0  0  0  0  0  0  0  0  0  0  0  0
  139.4880   69.8310  223.4560 C   0  0  0  0  0  0  0  0  0  0  0  0
  139.4580   69.0030  224.5530 C   0  0  0  0  0  0  0  0  0  0  0  0
  139.9540   69.4980  225.7350 C   0  0  0  0  0  0  0  0  0  0  0  0
  139.9260   68.6750  226.8330 C   0  0  0  0  0  0  0  0  0  0  0  0
  140.4160   69.1440  228.0340 C   0  0  0  0  0  0  0  0  0  0  0  0
  140.3900   68.3320  229.1260 F   0  0  0  0  0  0  0  0  0  0  0  0
  140.9180   70.4320  228.0750 C   0  0  0  0  0  0  0  0  0  0  0  0
  140.9390   71.2460  226.9620 C   0  0  0  0  0  0  0  0  0  0  0  0
  140.4470   70.7840  225.7490 C   0  0  0  0  0  0  0  0  0  0  0  0
  140.4600   71.5660  224.6500 N   0  0  0  0  0  0  0  0  0  0  0  0
  139.5680   73.7240  223.3030 H   0  0  0  0  0  0  0  0  0  0  0  0
  140.4631   73.7852  220.4322 H   0  0  0  0  0  0  0  0  0  0  0  0
  138.7093   74.1070  220.6849 H   0  0  0  0  0  0  0  0  0  0  0  0
  138.7403   77.7255  220.2336 H   0  0  0  0  0  0  0  0  0  0  0  0
  139.7036   78.3397  221.5728 H   0  0  0  0  0  0  0  0  0  0  0  0
  140.1533   78.5960  218.5861 H   0  0  0  0  0  0  0  0  0  0  0  0
  140.5196   79.7766  219.8229 H   0  0  0  0  0  0  0  0  0  0  0  0
  142.5421   78.4583  220.5664 H   0  0  0  0  0  0  0  0  0  0  0  0
  143.6890   78.2580  218.7140 H   0  0  0  0  0  0  0  0  0  0  0  0
  141.3214   76.1809  218.7396 H   0  0  0  0  0  0  0  0  0  0  0  0
  142.7838   75.5986  221.1337 H   0  0  0  0  0  0  0  0  0  0  0  0
  142.7172   74.8648  219.4553 H   0  0  0  0  0  0  0  0  0  0  0  0
  144.0170   77.3250  219.9420 H   0  0  0  0  0  0  0  0  0  0  0  0
  139.0926   69.4433  222.5056 H   0  0  0  0  0  0  0  0  0  0  0  0
  139.0522   67.9827  224.4870 H   0  0  0  0  0  0  0  0  0  0  0  0
  139.5187   67.6561  226.7563 H   0  0  0  0  0  0  0  0  0  0  0  0
  141.3131   70.8195  229.0256 H   0  0  0  0  0  0  0  0  0  0  0  0
  141.3470   72.2649  227.0357 H   0  0  0  0  0  0  0  0  0  0  0  0
  1  2  2  0
  2  3  1  0
  3  4  1  0
  4  5  1  0
  5  6  2  0
  5  7  1  0
  7  8  1  0
  8  9  1  0
  9 10  1  0
 10 11  1  0
 10 12  1  0
 12 13  1  0
 13 14  1  0
  2 15  1  0
 15 16  2  0
 16 17  1  0
 17 18  2  0
 18 19  1  0
 19 20  2  0
 20 21  1  0
 20 22  1  0
 22 23  2  0
 23 24  1  0
 24 25  2  0
 12  7  1  0
 25 15  1  0
 24 18  1  0
  3 26  1  0
  4 27  1  0
  4 28  1  0
  8 29  1  0
  8 30  1  0
  9 31  1  0
  9 32  1  0
 10 33  1  1
 11 34  1  0
 12 35  1  6
 13 36  1  0
 13 37  1  0
 14 38  1  0
 16 39  1  0
 17 40  1  0
 19 41  1  0
 22 42  1  0
 23 43  1  0
M  END
>  <smiles>  (47) 
O=C(NCC(=O)N1CC[C@H](O)[C@H]1CO)c1ccc2cc(F)ccc2n1

>  <score_type>  (47) 
oracle

>  <origin>  (47) 
autodockgpu

>  <m_score__min__energy>  (47) 
-7.4800000000000004

>  <m_primary>  (47) 
energy

>  <rmsd>  (47) 
2.252977178116286

>  <m_score__min__rmsd>  (47) 
2.252977178116286

>  <meeko>  (47) 
{"free_energy": -6.6, "intermolecular_energy": -8.69, "internal_energy": -2.51, "cluster_size": 12, "cluster_id": 4, "rank_in_cluster": 4}

>  <energy>  (47) 
-6.49

>  <cluster_rmsd>  (47) 
1.44

>  <cluster>  (47) 
4

$$$$

     RDKit          3D

 43 45  0  0  0  0  0  0  0  0999 V2000
  139.9720   71.3640  221.1230 O   0  0  0  0  0  0  0  0  0  0  0  0
  139.8420   71.9290  222.2500 C   0  0  0  0  0  0  0  0  0  0  0  0
  139.6710   73.3530  222.3480 N   0  0  0  0  0  0  0  0  0  0  0  0
  139.6440   74.1800  221.1310 C   0  0  0  0  0  0  0  0  0  0  0  0
  140.7000   75.1960  221.1880 C   0  0  0  0  0  0  0  0  0  0  0  0
  141.0140   75.6320  222.3500 O   0  0  0  0  0  0  0  0  0  0  0  0
  141.4160   75.7570  220.1070 N   0  0  0  0  0  0  0  0  0  0  0  0
  141.1520   77.1810  219.7470 C   0  0  0  0  0  0  0  0  0  0  0  0
  142.0760   77.4530  218.5940 C   0  0  0  0  0  0  0  0  0  0  0  0
  143.2100   76.4670  218.8340 C   0  0  2  0  0  0  0  0  0  0  0  0
  143.9470   76.2500  217.6760 O   0  0  0  0  0  0  0  0  0  0  0  0
  142.3980   75.2190  219.2060 C   0  0  1  0  0  0  0  0  0  0  0  0
  143.2770   74.1450  219.7370 C   0  0  0  0  0  0  0  0  0  0  0  0
  144.6230   74.3600  219.5310 O   0  0  0  0  0  0  0  0  0  0  0  0
  139.8640   71.1370  223.4710 C   0  0  0  0  0  0  0  0  0  0  0  0
  139.3880   69.8480  223.4600 C   0  0  0  0  0  0  0  0  0  0  0  0
  139.3690   69.0250  224.5610 C   0  0  0  0  0  0  0  0  0  0  0  0
  139.8570   69.5320  225.7410 C   0  0  0  0  0  0  0  0  0  0  0  0
  139.8390   68.7150  226.8430 C   0  0  0  0  0  0  0  0  0  0  0  0
  140.3230   69.1960  228.0420 C   0  0  0  0  0  0  0  0  0  0  0  0
  140.3080   68.3890  229.1370 F   0  0  0  0  0  0  0  0  0  0  0  0
  140.8070   70.4910  228.0770 C   0  0  0  0  0  0  0  0  0  0  0  0
  140.8170   71.3000  226.9600 C   0  0  0  0  0  0  0  0  0  0  0  0
  140.3330   70.8250  225.7490 C   0  0  0  0  0  0  0  0  0  0  0  0
  140.3360   71.6020  224.6460 N   0  0  0  0  0  0  0  0  0  0  0  0
  139.5680   73.7630  223.2990 H   0  0  0  0  0  0  0  0  0  0  0  0
  139.8035   73.5386  220.2517 H   0  0  0  0  0  0  0  0  0  0  0  0
  138.6671   74.6802  221.0575 H   0  0  0  0  0  0  0  0  0  0  0  0
  140.1030   77.3182  219.4457 H   0  0  0  0  0  0  0  0  0  0  0  0
  141.3226   77.8652  220.5912 H   0  0  0  0  0  0  0  0  0  0  0  0
  141.5783   77.2587  217.6325 H   0  0  0  0  0  0  0  0  0  0  0  0
  142.4113   78.4993  218.5409 H   0  0  0  0  0  0  0  0  0  0  0  0
  143.9518   76.7875  219.5804 H   0  0  0  0  0  0  0  0  0  0  0  0
  144.7930   75.7620  217.8280 H   0  0  0  0  0  0  0  0  0  0  0  0
  141.9064   74.6966  218.3721 H   0  0  0  0  0  0  0  0  0  0  0  0
  143.1032   74.0615  220.8200 H   0  0  0  0  0  0  0  0  0  0  0  0
  143.0174   73.2264  219.1904 H   0  0  0  0  0  0  0  0  0  0  0  0
  144.8240   74.5390  218.5870 H   0  0  0  0  0  0  0  0  0  0  0  0
  138.9980   69.4500  222.5116 H   0  0  0  0  0  0  0  0  0  0  0  0
  138.9777   67.9988  224.4995 H   0  0  0  0  0  0  0  0  0  0  0  0
  139.4442   67.6908  226.7715 H   0  0  0  0  0  0  0  0  0  0  0  0
  141.1964   70.8885  229.0259 H   0  0  0  0  0  0  0  0  0  0  0  0
  141.2099   72.3251  227.0291 H   0  0  0  0  0  0  0  0  0  0  0  0
  1  2  2  0
  2  3  1  0
  3  4  1  0
  4  5  1  0
  5  6  2  0
  5  7  1  0
  7  8  1  0
  8  9  1  0
  9 10  1  0
 10 11  1  0
 10 12  1  0
 12 13  1  0
 13 14  1  0
  2 15  1  0
 15 16  2  0
 16 17  1  0
 17 18  2  0
 18 19  1  0
 19 20  2  0
 20 21  1  0
 20 22  1  0
 22 23  2  0
 23 24  1  0
 24 25  2  0
 12  7  1  0
 25 15  1  0
 24 18  1  0
  3 26  1  0
  4 27  1  0
  4 28  1  0
  8 29  1  0
  8 30  1  0
  9 31  1  0
  9 32  1  0
 10 33  1  1
 11 34  1  0
 12 35  1  6
 13 36  1  0
 13 37  1  0
 14 38  1  0
 16 39  1  0
 17 40  1  0
 19 41  1  0
 22 42  1  0
 23 43  1  0
M  END
>  <smiles>  (48) 
O=C(NCC(=O)N1CC[C@H](O)[C@H]1CO)c1ccc2cc(F)ccc2n1

>  <score_type>  (48) 
oracle

>  <origin>  (48) 
autodockgpu

>  <m_score__min__energy>  (48) 
-7.4800000000000004

>  <m_primary>  (48) 
energy

>  <rmsd>  (48) 
2.19435273484291

>  <m_score__min__rmsd>  (48) 
2.19435273484291

>  <meeko>  (48) 
{"free_energy": -6.66, "intermolecular_energy": -8.74, "internal_energy": -2.3, "cluster_size": 18, "cluster_id": 1, "rank_in_cluster": 9}

>  <energy>  (48) 
-6.25

>  <cluster_rmsd>  (48) 
1.44

>  <cluster>  (48) 
4

$$$$

     RDKit          3D

 43 45  0  0  0  0  0  0  0  0999 V2000
  141.7160   72.1590  221.0890 O   0  0  0  0  0  0  0  0  0  0  0  0
  141.1090   72.9990  221.8190 C   0  0  0  0  0  0  0  0  0  0  0  0
  140.3250   72.5710  222.9450 N   0  0  0  0  0  0  0  0  0  0  0  0
  140.2160   71.1390  223.2680 C   0  0  0  0  0  0  0  0  0  0  0  0
  139.5210   70.9630  224.5480 C   0  0  0  0  0  0  0  0  0  0  0  0
  138.2970   71.3300  224.5910 O   0  0  0  0  0  0  0  0  0  0  0  0
  140.0480   70.4330  225.7480 N   0  0  0  0  0  0  0  0  0  0  0  0
  140.6130   71.3810  226.7520 C   0  0  0  0  0  0  0  0  0  0  0  0
  141.0550   70.5040  227.8890 C   0  0  0  0  0  0  0  0  0  0  0  0
  140.1310   69.3020  227.7620 C   0  0  2  0  0  0  0  0  0  0  0  0
  140.6430   68.1970  228.4320 O   0  0  0  0  0  0  0  0  0  0  0  0
  140.1820   69.0900  226.2430 C   0  0  1  0  0  0  0  0  0  0  0  0
  139.1570   68.1080  225.8020 C   0  0  0  0  0  0  0  0  0  0  0  0
  139.1760   66.9190  226.4990 O   0  0  0  0  0  0  0  0  0  0  0  0
  141.1990   74.4220  221.5250 C   0  0  0  0  0  0  0  0  0  0  0  0
  141.9300   74.8530  220.4430 C   0  0  0  0  0  0  0  0  0  0  0  0
  142.0720   76.1730  220.0870 C   0  0  0  0  0  0  0  0  0  0  0  0
  141.4410   77.1120  220.8660 C   0  0  0  0  0  0  0  0  0  0  0  0
  141.5800   78.4310  220.5150 C   0  0  0  0  0  0  0  0  0  0  0  0
  140.9580   79.3970  221.2780 C   0  0  0  0  0  0  0  0  0  0  0  0
  141.0930   80.7060  220.9330 F   0  0  0  0  0  0  0  0  0  0  0  0
  140.2170   78.9870  222.3710 C   0  0  0  0  0  0  0  0  0  0  0  0
  140.0870   77.6570  222.7110 C   0  0  0  0  0  0  0  0  0  0  0  0
  140.7100   76.6770  221.9500 C   0  0  0  0  0  0  0  0  0  0  0  0
  140.5930   75.3710  222.2670 N   0  0  0  0  0  0  0  0  0  0  0  0
  139.8490   73.3050  223.5100 H   0  0  0  0  0  0  0  0  0  0  0  0
  139.6511   70.6288  222.4740 H   0  0  0  0  0  0  0  0  0  0  0  0
  141.2256   70.7090  223.3441 H   0  0  0  0  0  0  0  0  0  0  0  0
  141.4672   71.9309  226.3301 H   0  0  0  0  0  0  0  0  0  0  0  0
  139.8826   72.1402  227.0683 H   0  0  0  0  0  0  0  0  0  0  0  0
  142.1085   70.2084  227.7758 H   0  0  0  0  0  0  0  0  0  0  0  0
  140.9966   70.9981  228.8700 H   0  0  0  0  0  0  0  0  0  0  0  0
  139.1256   69.4446  228.1849 H   0  0  0  0  0  0  0  0  0  0  0  0
  140.6490   67.3700  227.8900 H   0  0  0  0  0  0  0  0  0  0  0  0
  141.0995   68.6271  225.8508 H   0  0  0  0  0  0  0  0  0  0  0  0
  138.1646   68.5655  225.9276 H   0  0  0  0  0  0  0  0  0  0  0  0
  139.3844   67.8633  224.7539 H   0  0  0  0  0  0  0  0  0  0  0  0
  139.3130   67.0600  227.4610 H   0  0  0  0  0  0  0  0  0  0  0  0
  142.4320   74.0947  219.8242 H   0  0  0  0  0  0  0  0  0  0  0  0
  142.6688   76.4665  219.2108 H   0  0  0  0  0  0  0  0  0  0  0  0
  142.1793   78.7142  219.6371 H   0  0  0  0  0  0  0  0  0  0  0  0
  139.7152   79.7461  222.9891 H   0  0  0  0  0  0  0  0  0  0  0  0
  139.4877   77.3715  223.5881 H   0  0  0  0  0  0  0  0  0  0  0  0
  1  2  2  0
  2  3  1  0
  3  4  1  0
  4  5  1  0
  5  6  2  0
  5  7  1  0
  7  8  1  0
  8  9  1  0
  9 10  1  0
 10 11  1  0
 10 12  1  0
 12 13  1  0
 13 14  1  0
  2 15  1  0
 15 16  2  0
 16 17  1  0
 17 18  2  0
 18 19  1  0
 19 20  2  0
 20 21  1  0
 20 22  1  0
 22 23  2  0
 23 24  1  0
 24 25  2  0
 12  7  1  0
 25 15  1  0
 24 18  1  0
  3 26  1  0
  4 27  1  0
  4 28  1  0
  8 29  1  0
  8 30  1  0
  9 31  1  0
  9 32  1  0
 10 33  1  1
 11 34  1  0
 12 35  1  1
 13 36  1  0
 13 37  1  0
 14 38  1  0
 16 39  1  0
 17 40  1  0
 19 41  1  0
 22 42  1  0
 23 43  1  0
M  END
>  <smiles>  (49) 
O=C(NCC(=O)N1CC[C@H](O)[C@H]1CO)c1ccc2cc(F)ccc2n1

>  <score_type>  (49) 
oracle

>  <origin>  (49) 
autodockgpu

>  <m_score__min__energy>  (49) 
-7.4800000000000004

>  <m_primary>  (49) 
energy

>  <rmsd>  (49) 
9.33268870517291

>  <m_score__min__rmsd>  (49) 
9.33268870517291

>  <meeko>  (49) 
{"free_energy": -6.96, "intermolecular_energy": -9.04, "internal_energy": -2.28, "cluster_size": 16, "cluster_id": 2, "rank_in_cluster": 15}

>  <energy>  (49) 
-6.25

>  <cluster_rmsd>  (49) 
1.66

>  <cluster>  (49) 
4

$$$$

     RDKit          3D

 43 45  0  0  0  0  0  0  0  0999 V2000
  141.7420   72.0740  221.0970 O   0  0  0  0  0  0  0  0  0  0  0  0
  141.0570   72.9130  221.7570 C   0  0  0  0  0  0  0  0  0  0  0  0
  140.1400   72.4800  222.7760 N   0  0  0  0  0  0  0  0  0  0  0  0
  139.9830   71.0460  223.0680 C   0  0  0  0  0  0  0  0  0  0  0  0
  139.3920   70.8650  224.3990 C   0  0  0  0  0  0  0  0  0  0  0  0
  138.1660   71.2080  224.5330 O   0  0  0  0  0  0  0  0  0  0  0  0
  140.0180   70.3550  225.5580 N   0  0  0  0  0  0  0  0  0  0  0  0
  140.4350   71.3180  226.6190 C   0  0  0  0  0  0  0  0  0  0  0  0
  141.0350   70.4570  227.6930 C   0  0  0  0  0  0  0  0  0  0  0  0
  140.3220   69.1280  227.4930 C   0  0  2  0  0  0  0  0  0  0  0  0
  141.0200   68.0830  228.0870 O   0  0  0  0  0  0  0  0  0  0  0  0
  140.3820   69.0250  225.9630 C   0  0  1  0  0  0  0  0  0  0  0  0
  139.5270   67.9160  225.4650 C   0  0  0  0  0  0  0  0  0  0  0  0
  139.1460   67.0150  226.4360 O   0  0  0  0  0  0  0  0  0  0  0  0
  141.1920   74.3380  221.4900 C   0  0  0  0  0  0  0  0  0  0  0  0
  141.9980   74.7690  220.4640 C   0  0  0  0  0  0  0  0  0  0  0  0
  142.1860   76.0910  220.1370 C   0  0  0  0  0  0  0  0  0  0  0  0
  141.5230   77.0310  220.8880 C   0  0  0  0  0  0  0  0  0  0  0  0
  141.7080   78.3520  220.5660 C   0  0  0  0  0  0  0  0  0  0  0  0
  141.0560   79.3190  221.3020 C   0  0  0  0  0  0  0  0  0  0  0  0
  141.2360   80.6300  220.9860 F   0  0  0  0  0  0  0  0  0  0  0  0
  140.2390   78.9080  222.3390 C   0  0  0  0  0  0  0  0  0  0  0  0
  140.0640   77.5760  222.6500 C   0  0  0  0  0  0  0  0  0  0  0  0
  140.7160   76.5950  221.9160 C   0  0  0  0  0  0  0  0  0  0  0  0
  140.5560   75.2870  222.2060 N   0  0  0  0  0  0  0  0  0  0  0  0
  139.6040   73.2120  223.2870 H   0  0  0  0  0  0  0  0  0  0  0  0
  139.3255   70.5906  222.3128 H   0  0  0  0  0  0  0  0  0  0  0  0
  140.9710   70.5630  223.0436 H   0  0  0  0  0  0  0  0  0  0  0  0
  141.1790   72.0282  226.2290 H   0  0  0  0  0  0  0  0  0  0  0  0
  139.5941   71.9230  226.9888 H   0  0  0  0  0  0  0  0  0  0  0  0
  142.1210   70.3494  227.5547 H   0  0  0  0  0  0  0  0  0  0  0  0
  140.9112   70.8710  228.7046 H   0  0  0  0  0  0  0  0  0  0  0  0
  139.3141   69.0735  227.9303 H   0  0  0  0  0  0  0  0  0  0  0  0
  140.5360   67.2210  228.0720 H   0  0  0  0  0  0  0  0  0  0  0  0
  141.3571   68.7481  225.5358 H   0  0  0  0  0  0  0  0  0  0  0  0
  138.6186   68.3524  225.0241 H   0  0  0  0  0  0  0  0  0  0  0  0
  140.1297   67.3565  224.7344 H   0  0  0  0  0  0  0  0  0  0  0  0
  139.9190   66.6330  226.9050 H   0  0  0  0  0  0  0  0  0  0  0  0
  142.5251   74.0097  219.8677 H   0  0  0  0  0  0  0  0  0  0  0  0
  142.8428   76.3851  219.3051 H   0  0  0  0  0  0  0  0  0  0  0  0
  142.3672   78.6357  219.7324 H   0  0  0  0  0  0  0  0  0  0  0  0
  139.7119   79.6677  222.9349 H   0  0  0  0  0  0  0  0  0  0  0  0
  139.4051   77.2899  223.4830 H   0  0  0  0  0  0  0  0  0  0  0  0
  1  2  2  0
  2  3  1  0
  3  4  1  0
  4  5  1  0
  5  6  2  0
  5  7  1  0
  7  8  1  0
  8  9  1  0
  9 10  1  0
 10 11  1  0
 10 12  1  0
 12 13  1  0
 13 14  1  0
  2 15  1  0
 15 16  2  0
 16 17  1  0
 17 18  2  0
 18 19  1  0
 19 20  2  0
 20 21  1  0
 20 22  1  0
 22 23  2  0
 23 24  1  0
 24 25  2  0
 12  7  1  0
 25 15  1  0
 24 18  1  0
  3 26  1  0
  4 27  1  0
  4 28  1  0
  8 29  1  0
  8 30  1  0
  9 31  1  0
  9 32  1  0
 10 33  1  1
 11 34  1  0
 12 35  1  1
 13 36  1  0
 13 37  1  0
 14 38  1  0
 16 39  1  0
 17 40  1  0
 19 41  1  0
 22 42  1  0
 23 43  1  0
M  END
>  <smiles>  (50) 
O=C(NCC(=O)N1CC[C@H](O)[C@H]1CO)c1ccc2cc(F)ccc2n1

>  <score_type>  (50) 
oracle

>  <origin>  (50) 
autodockgpu

>  <m_score__min__energy>  (50) 
-7.4800000000000004

>  <m_primary>  (50) 
energy

>  <rmsd>  (50) 
9.251886914892658

>  <m_score__min__rmsd>  (50) 
9.251886914892658

>  <meeko>  (50) 
{"free_energy": -7.2, "intermolecular_energy": -9.28, "internal_energy": -2.25, "cluster_size": 16, "cluster_id": 2, "rank_in_cluster": 5}

>  <energy>  (50) 
-6.16

>  <cluster_rmsd>  (50) 
1.21

>  <cluster>  (50) 
4

$$$$
