
     RDKit          3D

 44 47  0  0  0  0  0  0  0  0999 V2000
  140.3560   72.4550  220.7970 O   0  0  0  0  0  0  0  0  0  0  0  0
  140.0730   72.8050  221.9820 C   0  0  0  0  0  0  0  0  0  0  0  0
  139.7090   74.1770  222.1560 N   0  0  0  0  0  0  0  0  0  0  0  0
  139.7000   75.0130  220.9920 C   0  0  0  0  0  0  0  0  0  0  0  0
  140.8020   76.0190  221.0100 C   0  0  0  0  0  0  0  0  0  0  0  0
  141.0740   76.7200  222.0170 O   0  0  0  0  0  0  0  0  0  0  0  0
  141.5860   76.1970  219.8390 N   0  0  0  0  0  0  0  0  0  0  0  0
  141.0270   76.4970  218.5120 C   0  0  0  0  0  0  0  0  0  0  0  0
  142.1780   77.3210  217.9150 C   0  0  0  0  0  0  0  0  0  0  0  0
  143.3360   76.4140  218.2800 C   0  0  0  0  0  0  0  0  0  0  0  0
  143.0280   76.1210  219.7340 C   0  0  2  0  0  0  0  0  0  0  0  0
  143.5730   74.8140  220.1600 C   0  0  0  0  0  0  0  0  0  0  0  0
  144.8700   74.4950  220.4110 N   0  0  0  0  0  0  0  0  0  0  0  0
  144.9210   73.1950  220.7740 C   0  0  0  0  0  0  0  0  0  0  0  0
  143.6120   72.7520  220.7290 C   0  0  0  0  0  0  0  0  0  0  0  0
  142.8270   73.7560  220.3560 O   0  0  0  0  0  0  0  0  0  0  0  0
  140.1110   71.8770  223.1050 C   0  0  0  0  0  0  0  0  0  0  0  0
  139.6300   70.6010  222.8890 C   0  0  0  0  0  0  0  0  0  0  0  0
  139.6340   69.6670  223.9050 C   0  0  0  0  0  0  0  0  0  0  0  0
  140.1220   70.0080  225.1480 C   0  0  0  0  0  0  0  0  0  0  0  0
  140.1180   69.0640  226.1490 C   0  0  0  0  0  0  0  0  0  0  0  0
  140.6100   69.4160  227.3920 C   0  0  0  0  0  0  0  0  0  0  0  0
  140.6120   68.2240  228.6780 Cl  0  0  0  0  0  0  0  0  0  0  0  0
  141.0860   70.6940  227.5860 C   0  0  0  0  0  0  0  0  0  0  0  0
  141.0790   71.6290  226.5620 C   0  0  0  0  0  0  0  0  0  0  0  0
  140.5930   71.2960  225.3160 C   0  0  0  0  0  0  0  0  0  0  0  0
  140.5870   72.2060  224.3200 N   0  0  0  0  0  0  0  0  0  0  0  0
  139.4630   74.5390  223.1040 H   0  0  0  0  0  0  0  0  0  0  0  0
  139.8138   74.3792  220.1002 H   0  0  0  0  0  0  0  0  0  0  0  0
  138.7453   75.5592  220.9768 H   0  0  0  0  0  0  0  0  0  0  0  0
  140.8377   75.5813  217.9327 H   0  0  0  0  0  0  0  0  0  0  0  0
  140.0521   77.0063  218.5253 H   0  0  0  0  0  0  0  0  0  0  0  0
  142.0767   77.4422  216.8264 H   0  0  0  0  0  0  0  0  0  0  0  0
  142.2560   78.3561  218.2789 H   0  0  0  0  0  0  0  0  0  0  0  0
  143.3362   75.4958  217.6743 H   0  0  0  0  0  0  0  0  0  0  0  0
  144.3288   76.8550  218.1072 H   0  0  0  0  0  0  0  0  0  0  0  0
  143.5077   76.8425  220.4117 H   0  0  0  0  0  0  0  0  0  0  0  0
  145.8135   72.6129  221.0472 H   0  0  0  0  0  0  0  0  0  0  0  0
  143.2750   71.7317  220.9644 H   0  0  0  0  0  0  0  0  0  0  0  0
  139.2400   70.3263  221.8979 H   0  0  0  0  0  0  0  0  0  0  0  0
  139.2487   68.6529  223.7232 H   0  0  0  0  0  0  0  0  0  0  0  0
  139.7316   68.0508  225.9641 H   0  0  0  0  0  0  0  0  0  0  0  0
  141.4795   70.9785  228.5730 H   0  0  0  0  0  0  0  0  0  0  0  0
  141.4638   72.6431  226.7453 H   0  0  0  0  0  0  0  0  0  0  0  0
  1  2  2  0
  2  3  1  0
  3  4  1  0
  4  5  1  0
  5  6  2  0
  5  7  1  0
  7  8  1  0
  8  9  1  0
  9 10  1  0
 10 11  1  0
 11 12  1  0
 12 13  2  0
 13 14  1  0
 14 15  2  0
 15 16  1  0
  2 17  1  0
 17 18  2  0
 18 19  1  0
 19 20  2  0
 20 21  1  0
 21 22  2  0
 22 23  1  0
 22 24  1  0
 24 25  2  0
 25 26  1  0
 26 27  2  0
 11  7  1  0
 16 12  1  0
 27 17  1  0
 26 20  1  0
  3 28  1  0
  4 29  1  0
  4 30  1  0
  8 31  1  0
  8 32  1  0
  9 33  1  0
  9 34  1  0
 10 35  1  0
 10 36  1  0
 11 37  1  1
 14 38  1  0
 15 39  1  0
 18 40  1  0
 19 41  1  0
 21 42  1  0
 24 43  1  0
 25 44  1  0
M  END
>  <smiles>  (1) 
O=C(NCC(=O)N1CCC[C@@H]1c1ncco1)c1ccc2cc(Cl)ccc2n1

>  <score_type>  (1) 
oracle

>  <origin>  (1) 
autodockgpu

>  <m_score__min__energy>  (1) 
-7.7800000000000002

>  <m_primary>  (1) 
energy

>  <rmsd>  (1) 
3.284349072732721

>  <m_score__min__rmsd>  (1) 
3.284349072732721

>  <meeko>  (1) 
{"free_energy": -7.26, "intermolecular_energy": -8.75, "internal_energy": -1.71, "cluster_size": 4, "cluster_id": 3, "rank_in_cluster": 2}

>  <energy>  (1) 
-7.78

>  <cluster_rmsd>  (1) 
0.0

>  <cluster>  (1) 
1

$$$$

     RDKit          3D

 44 47  0  0  0  0  0  0  0  0999 V2000
  140.2430   74.0420  221.9890 O   0  0  0  0  0  0  0  0  0  0  0  0
  140.2670   72.7790  221.8800 C   0  0  0  0  0  0  0  0  0  0  0  0
  140.3240   72.2700  220.5450 N   0  0  0  0  0  0  0  0  0  0  0  0
  140.3490   73.2220  219.4740 C   0  0  0  0  0  0  0  0  0  0  0  0
  141.6220   73.1640  218.6970 C   0  0  0  0  0  0  0  0  0  0  0  0
  141.6580   73.1260  217.4420 O   0  0  0  0  0  0  0  0  0  0  0  0
  142.8550   73.1530  219.4030 N   0  0  0  0  0  0  0  0  0  0  0  0
  143.9520   74.1010  219.1580 C   0  0  0  0  0  0  0  0  0  0  0  0
  144.5670   74.1710  220.5640 C   0  0  0  0  0  0  0  0  0  0  0  0
  144.6360   72.6880  220.8690 C   0  0  0  0  0  0  0  0  0  0  0  0
  143.2490   72.2420  220.4560 C   0  0  2  0  0  0  0  0  0  0  0  0
  143.2290   70.8240  220.0340 C   0  0  0  0  0  0  0  0  0  0  0  0
  144.2920   69.9970  219.8460 N   0  0  0  0  0  0  0  0  0  0  0  0
  143.8220   68.7890  219.4630 C   0  0  0  0  0  0  0  0  0  0  0  0
  142.4460   68.9270  219.4300 C   0  0  0  0  0  0  0  0  0  0  0  0
  142.1260   70.1670  219.7810 O   0  0  0  0  0  0  0  0  0  0  0  0
  140.2400   71.8900  223.0360 C   0  0  0  0  0  0  0  0  0  0  0  0
  139.7140   70.6280  222.8520 C   0  0  0  0  0  0  0  0  0  0  0  0
  139.6540   69.7310  223.8990 C   0  0  0  0  0  0  0  0  0  0  0  0
  140.1250   70.0970  225.1420 C   0  0  0  0  0  0  0  0  0  0  0  0
  140.0570   69.1900  226.1740 C   0  0  0  0  0  0  0  0  0  0  0  0
  140.5320   69.5660  227.4170 C   0  0  0  0  0  0  0  0  0  0  0  0
  140.4540   68.4220  228.7430 Cl  0  0  0  0  0  0  0  0  0  0  0  0
  141.0540   70.8300  227.5790 C   0  0  0  0  0  0  0  0  0  0  0  0
  141.1100   71.7280  226.5230 C   0  0  0  0  0  0  0  0  0  0  0  0
  140.6430   71.3700  225.2780 C   0  0  0  0  0  0  0  0  0  0  0  0
  140.6980   72.2430  224.2510 N   0  0  0  0  0  0  0  0  0  0  0  0
  140.3470   71.2400  220.3760 H   0  0  0  0  0  0  0  0  0  0  0  0
  139.5096   73.0128  218.7946 H   0  0  0  0  0  0  0  0  0  0  0  0
  140.2676   74.2270  219.9138 H   0  0  0  0  0  0  0  0  0  0  0  0
  144.6682   73.7135  218.4185 H   0  0  0  0  0  0  0  0  0  0  0  0
  143.6409   75.0701  218.7408 H   0  0  0  0  0  0  0  0  0  0  0  0
  145.5635   74.6367  220.5552 H   0  0  0  0  0  0  0  0  0  0  0  0
  144.0103   74.7778  221.2933 H   0  0  0  0  0  0  0  0  0  0  0  0
  145.4146   72.1891  220.2734 H   0  0  0  0  0  0  0  0  0  0  0  0
  144.8963   72.4515  221.9113 H   0  0  0  0  0  0  0  0  0  0  0  0
  142.5364   72.2808  221.2931 H   0  0  0  0  0  0  0  0  0  0  0  0
  144.4084   67.8885  219.2278 H   0  0  0  0  0  0  0  0  0  0  0  0
  141.7316   68.1364  219.1568 H   0  0  0  0  0  0  0  0  0  0  0  0
  139.3386   70.3338  221.8608 H   0  0  0  0  0  0  0  0  0  0  0  0
  139.2318   68.7274  223.7424 H   0  0  0  0  0  0  0  0  0  0  0  0
  139.6339   68.1873  226.0139 H   0  0  0  0  0  0  0  0  0  0  0  0
  141.4342   71.1337  228.5655 H   0  0  0  0  0  0  0  0  0  0  0  0
  141.5301   72.7322  226.6812 H   0  0  0  0  0  0  0  0  0  0  0  0
  1  2  2  0
  2  3  1  0
  3  4  1  0
  4  5  1  0
  5  6  2  0
  5  7  1  0
  7  8  1  0
  8  9  1  0
  9 10  1  0
 10 11  1  0
 11 12  1  0
 12 13  2  0
 13 14  1  0
 14 15  2  0
 15 16  1  0
  2 17  1  0
 17 18  2  0
 18 19  1  0
 19 20  2  0
 20 21  1  0
 21 22  2  0
 22 23  1  0
 22 24  1  0
 24 25  2  0
 25 26  1  0
 26 27  2  0
 11  7  1  0
 16 12  1  0
 27 17  1  0
 26 20  1  0
  3 28  1  0
  4 29  1  0
  4 30  1  0
  8 31  1  0
  8 32  1  0
  9 33  1  0
  9 34  1  0
 10 35  1  0
 10 36  1  0
 11 37  1  1
 14 38  1  0
 15 39  1  0
 18 40  1  0
 19 41  1  0
 21 42  1  0
 24 43  1  0
 25 44  1  0
M  END
>  <smiles>  (2) 
O=C(NCC(=O)N1CCC[C@@H]1c1ncco1)c1ccc2cc(Cl)ccc2n1

>  <score_type>  (2) 
oracle

>  <origin>  (2) 
autodockgpu

>  <m_score__min__energy>  (2) 
-7.7800000000000002

>  <m_primary>  (2) 
energy

>  <rmsd>  (2) 
5.429346402917935

>  <m_score__min__rmsd>  (2) 
5.429346402917935

>  <meeko>  (2) 
{"free_energy": -6.43, "intermolecular_energy": -7.92, "internal_energy": -2.41, "cluster_size": 6, "cluster_id": 7, "rank_in_cluster": 6}

>  <energy>  (2) 
-7.76

>  <cluster_rmsd>  (2) 
0.21

>  <cluster>  (2) 
1

$$$$

     RDKit          3D

 44 47  0  0  0  0  0  0  0  0999 V2000
  141.6230   72.0370  221.3750 O   0  0  0  0  0  0  0  0  0  0  0  0
  140.8830   72.9380  221.8740 C   0  0  0  0  0  0  0  0  0  0  0  0
  139.8390   72.4780  222.7370 N   0  0  0  0  0  0  0  0  0  0  0  0
  139.7310   71.0660  222.9520 C   0  0  0  0  0  0  0  0  0  0  0  0
  138.8710   70.7380  224.1280 C   0  0  0  0  0  0  0  0  0  0  0  0
  137.8010   71.3450  224.3850 O   0  0  0  0  0  0  0  0  0  0  0  0
  139.2750   69.6930  225.0010 N   0  0  0  0  0  0  0  0  0  0  0  0
  138.4580   68.5060  225.2960 C   0  0  0  0  0  0  0  0  0  0  0  0
  139.5660   67.4730  225.5510 C   0  0  0  0  0  0  0  0  0  0  0  0
  140.4410   68.2860  226.4830 C   0  0  0  0  0  0  0  0  0  0  0  0
  140.5170   69.6010  225.7370 C   0  0  2  0  0  0  0  0  0  0  0  0
  140.7350   70.7420  226.6520 C   0  0  0  0  0  0  0  0  0  0  0  0
  141.5440   71.8190  226.4630 N   0  0  0  0  0  0  0  0  0  0  0  0
  141.4420   72.6180  227.5470 C   0  0  0  0  0  0  0  0  0  0  0  0
  140.5470   71.9800  228.3870 C   0  0  0  0  0  0  0  0  0  0  0  0
  140.1420   70.8530  227.8130 O   0  0  0  0  0  0  0  0  0  0  0  0
  141.0740   74.3560  221.5950 C   0  0  0  0  0  0  0  0  0  0  0  0
  141.9100   74.6880  220.5480 C   0  0  0  0  0  0  0  0  0  0  0  0
  142.1400   76.0090  220.2240 C   0  0  0  0  0  0  0  0  0  0  0  0
  141.5290   77.0090  220.9500 C   0  0  0  0  0  0  0  0  0  0  0  0
  141.7690   78.3210  220.6120 C   0  0  0  0  0  0  0  0  0  0  0  0
  141.1520   79.3170  221.3460 C   0  0  0  0  0  0  0  0  0  0  0  0
  141.4470   80.9940  220.9290 Cl  0  0  0  0  0  0  0  0  0  0  0  0
  140.3210   78.9640  222.3860 C   0  0  0  0  0  0  0  0  0  0  0  0
  140.0940   77.6340  222.7080 C   0  0  0  0  0  0  0  0  0  0  0  0
  140.7000   76.6290  221.9870 C   0  0  0  0  0  0  0  0  0  0  0  0
  140.4790   75.3350  222.3010 N   0  0  0  0  0  0  0  0  0  0  0  0
  139.1890   73.1620  223.1860 H   0  0  0  0  0  0  0  0  0  0  0  0
  139.2948   70.6034  222.0543 H   0  0  0  0  0  0  0  0  0  0  0  0
  140.7401   70.6771  223.1530 H   0  0  0  0  0  0  0  0  0  0  0  0
  137.8275   68.6555  226.1849 H   0  0  0  0  0  0  0  0  0  0  0  0
  137.7414   68.2305  224.5082 H   0  0  0  0  0  0  0  0  0  0  0  0
  139.1790   66.5649  226.0365 H   0  0  0  0  0  0  0  0  0  0  0  0
  140.0665   67.0855  224.6514 H   0  0  0  0  0  0  0  0  0  0  0  0
  139.9734   68.4089  227.4710 H   0  0  0  0  0  0  0  0  0  0  0  0
  141.4188   67.8305  226.6984 H   0  0  0  0  0  0  0  0  0  0  0  0
  141.3789   69.6389  225.0546 H   0  0  0  0  0  0  0  0  0  0  0  0
  141.9599   73.5721  227.7241 H   0  0  0  0  0  0  0  0  0  0  0  0
  140.2229   72.3471  229.3720 H   0  0  0  0  0  0  0  0  0  0  0  0
  142.3975   73.8916  219.9665 H   0  0  0  0  0  0  0  0  0  0  0  0
  142.8090   76.2637  219.3888 H   0  0  0  0  0  0  0  0  0  0  0  0
  142.4377   78.5721  219.7754 H   0  0  0  0  0  0  0  0  0  0  0  0
  139.8274   79.7525  222.9731 H   0  0  0  0  0  0  0  0  0  0  0  0
  139.4259   77.3804  223.5443 H   0  0  0  0  0  0  0  0  0  0  0  0
  1  2  2  0
  2  3  1  0
  3  4  1  0
  4  5  1  0
  5  6  2  0
  5  7  1  0
  7  8  1  0
  8  9  1  0
  9 10  1  0
 10 11  1  0
 11 12  1  0
 12 13  2  0
 13 14  1  0
 14 15  2  0
 15 16  1  0
  2 17  1  0
 17 18  2  0
 18 19  1  0
 19 20  2  0
 20 21  1  0
 21 22  2  0
 22 23  1  0
 22 24  1  0
 24 25  2  0
 25 26  1  0
 26 27  2  0
 11  7  1  0
 16 12  1  0
 27 17  1  0
 26 20  1  0
  3 28  1  0
  4 29  1  0
  4 30  1  0
  8 31  1  0
  8 32  1  0
  9 33  1  0
  9 34  1  0
 10 35  1  0
 10 36  1  0
 11 37  1  6
 14 38  1  0
 15 39  1  0
 18 40  1  0
 19 41  1  0
 21 42  1  0
 24 43  1  0
 25 44  1  0
M  END
>  <smiles>  (3) 
O=C(NCC(=O)N1CCC[C@@H]1c1ncco1)c1ccc2cc(Cl)ccc2n1

>  <score_type>  (3) 
oracle

>  <origin>  (3) 
autodockgpu

>  <m_score__min__energy>  (3) 
-7.7800000000000002

>  <m_primary>  (3) 
energy

>  <rmsd>  (3) 
8.68850093249046

>  <m_score__min__rmsd>  (3) 
8.68850093249046

>  <meeko>  (3) 
{"free_energy": -7.78, "intermolecular_energy": -9.27, "internal_energy": -1.62, "cluster_size": 8, "cluster_id": 1, "rank_in_cluster": 1}

>  <energy>  (3) 
-7.74

>  <cluster_rmsd>  (3) 
0.24

>  <cluster>  (3) 
1

$$$$

     RDKit          3D

 44 47  0  0  0  0  0  0  0  0999 V2000
  139.9560   72.3470  220.6900 O   0  0  0  0  0  0  0  0  0  0  0  0
  139.6770   72.7140  221.8710 C   0  0  0  0  0  0  0  0  0  0  0  0
  139.2010   74.0560  222.0090 N   0  0  0  0  0  0  0  0  0  0  0  0
  139.0880   74.8450  220.8180 C   0  0  0  0  0  0  0  0  0  0  0  0
  140.0760   75.9620  220.7860 C   0  0  0  0  0  0  0  0  0  0  0  0
  140.9890   76.0460  219.9260 O   0  0  0  0  0  0  0  0  0  0  0  0
  139.9880   76.9840  221.7690 N   0  0  0  0  0  0  0  0  0  0  0  0
  141.0690   77.3180  222.7080 C   0  0  0  0  0  0  0  0  0  0  0  0
  140.8010   78.8180  222.9050 C   0  0  0  0  0  0  0  0  0  0  0  0
  139.3070   78.7640  223.1500 C   0  0  0  0  0  0  0  0  0  0  0  0
  138.8610   77.8550  222.0230 C   0  0  2  0  0  0  0  0  0  0  0  0
  137.6240   77.1200  222.3650 C   0  0  0  0  0  0  0  0  0  0  0  0
  137.4990   76.0270  223.1640 N   0  0  0  0  0  0  0  0  0  0  0  0
  136.1940   75.6810  223.2030 C   0  0  0  0  0  0  0  0  0  0  0  0
  135.5480   76.6040  222.4000 C   0  0  0  0  0  0  0  0  0  0  0  0
  136.4420   77.4560  221.9130 O   0  0  0  0  0  0  0  0  0  0  0  0
  139.8250   71.8340  223.0230 C   0  0  0  0  0  0  0  0  0  0  0  0
  139.4130   70.5240  222.8770 C   0  0  0  0  0  0  0  0  0  0  0  0
  139.5230   69.6320  223.9240 C   0  0  0  0  0  0  0  0  0  0  0  0
  140.0480   70.0490  225.1280 C   0  0  0  0  0  0  0  0  0  0  0  0
  140.1500   69.1460  226.1610 C   0  0  0  0  0  0  0  0  0  0  0  0
  140.6790   69.5740  227.3640 C   0  0  0  0  0  0  0  0  0  0  0  0
  140.8160   68.4350  228.6900 Cl  0  0  0  0  0  0  0  0  0  0  0  0
  141.0840   70.8840  227.4890 C   0  0  0  0  0  0  0  0  0  0  0  0
  140.9710   71.7770  226.4330 C   0  0  0  0  0  0  0  0  0  0  0  0
  140.4470   71.3680  225.2260 C   0  0  0  0  0  0  0  0  0  0  0  0
  140.3380   72.2370  224.2000 N   0  0  0  0  0  0  0  0  0  0  0  0
  138.9500   74.4290  222.9520 H   0  0  0  0  0  0  0  0  0  0  0  0
  139.2582   74.1964  219.9460 H   0  0  0  0  0  0  0  0  0  0  0  0
  138.0801   75.2852  220.7990 H   0  0  0  0  0  0  0  0  0  0  0  0
  140.9766   76.7599  223.6514 H   0  0  0  0  0  0  0  0  0  0  0  0
  142.0811   77.0718  222.3543 H   0  0  0  0  0  0  0  0  0  0  0  0
  141.3460   79.2239  223.7700 H   0  0  0  0  0  0  0  0  0  0  0  0
  141.1205   79.4675  222.0767 H   0  0  0  0  0  0  0  0  0  0  0  0
  139.0746   78.3310  224.1341 H   0  0  0  0  0  0  0  0  0  0  0  0
  138.8139   79.7472  223.1612 H   0  0  0  0  0  0  0  0  0  0  0  0
  138.5928   78.4198  221.1180 H   0  0  0  0  0  0  0  0  0  0  0  0
  135.7415   74.8442  223.7552 H   0  0  0  0  0  0  0  0  0  0  0  0
  134.4671   76.6280  222.1976 H   0  0  0  0  0  0  0  0  0  0  0  0
  138.9932   70.1885  221.9172 H   0  0  0  0  0  0  0  0  0  0  0  0
  139.1924   68.5905  223.7979 H   0  0  0  0  0  0  0  0  0  0  0  0
  139.8175   68.1054  226.0322 H   0  0  0  0  0  0  0  0  0  0  0  0
  141.5053   71.2294  228.4446 H   0  0  0  0  0  0  0  0  0  0  0  0
  141.3019   72.8183  226.5602 H   0  0  0  0  0  0  0  0  0  0  0  0
  1  2  2  0
  2  3  1  0
  3  4  1  0
  4  5  1  0
  5  6  2  0
  5  7  1  0
  7  8  1  0
  8  9  1  0
  9 10  1  0
 10 11  1  0
 11 12  1  0
 12 13  2  0
 13 14  1  0
 14 15  2  0
 15 16  1  0
  2 17  1  0
 17 18  2  0
 18 19  1  0
 19 20  2  0
 20 21  1  0
 21 22  2  0
 22 23  1  0
 22 24  1  0
 24 25  2  0
 25 26  1  0
 26 27  2  0
 11  7  1  0
 16 12  1  0
 27 17  1  0
 26 20  1  0
  3 28  1  0
  4 29  1  0
  4 30  1  0
  8 31  1  0
  8 32  1  0
  9 33  1  0
  9 34  1  0
 10 35  1  0
 10 36  1  0
 11 37  1  6
 14 38  1  0
 15 39  1  0
 18 40  1  0
 19 41  1  0
 21 42  1  0
 24 43  1  0
 25 44  1  0
M  END
>  <smiles>  (4) 
O=C(NCC(=O)N1CCC[C@@H]1c1ncco1)c1ccc2cc(Cl)ccc2n1

>  <score_type>  (4) 
oracle

>  <origin>  (4) 
autodockgpu

>  <m_score__min__energy>  (4) 
-7.7800000000000002

>  <m_primary>  (4) 
energy

>  <rmsd>  (4) 
3.901751078938126

>  <m_score__min__rmsd>  (4) 
3.901751078938126

>  <meeko>  (4) 
{"free_energy": -6.87, "intermolecular_energy": -8.36, "internal_energy": -2.03, "cluster_size": 8, "cluster_id": 5, "rank_in_cluster": 7}

>  <energy>  (4) 
-7.67

>  <cluster_rmsd>  (4) 
0.68

>  <cluster>  (4) 
1

$$$$

     RDKit          3D

 44 47  0  0  0  0  0  0  0  0999 V2000
  140.0070   72.1960  220.7590 O   0  0  0  0  0  0  0  0  0  0  0  0
  139.8990   72.5920  221.9590 C   0  0  0  0  0  0  0  0  0  0  0  0
  139.6860   73.9950  222.1340 N   0  0  0  0  0  0  0  0  0  0  0  0
  139.6170   74.8070  220.9560 C   0  0  0  0  0  0  0  0  0  0  0  0
  140.5370   75.9800  221.0240 C   0  0  0  0  0  0  0  0  0  0  0  0
  140.5670   76.7730  222.0000 O   0  0  0  0  0  0  0  0  0  0  0  0
  141.4240   76.2190  219.9410 N   0  0  0  0  0  0  0  0  0  0  0  0
  141.0020   76.7330  218.6290 C   0  0  0  0  0  0  0  0  0  0  0  0
  142.2670   77.5020  218.2200 C   0  0  0  0  0  0  0  0  0  0  0  0
  143.3040   76.4450  218.5430 C   0  0  0  0  0  0  0  0  0  0  0  0
  142.8560   76.0110  219.9230 C   0  0  2  0  0  0  0  0  0  0  0  0
  143.2430   74.6130  220.2130 C   0  0  0  0  0  0  0  0  0  0  0  0
  144.4590   74.1500  220.6060 N   0  0  0  0  0  0  0  0  0  0  0  0
  144.3700   72.8110  220.7600 C   0  0  0  0  0  0  0  0  0  0  0  0
  143.0620   72.4940  220.4440 C   0  0  0  0  0  0  0  0  0  0  0  0
  142.4120   73.6050  220.1200 O   0  0  0  0  0  0  0  0  0  0  0  0
  139.9830   71.6840  223.0970 C   0  0  0  0  0  0  0  0  0  0  0  0
  139.5280   70.3940  222.9120 C   0  0  0  0  0  0  0  0  0  0  0  0
  139.5750   69.4780  223.9430 C   0  0  0  0  0  0  0  0  0  0  0  0
  140.0820   69.8510  225.1690 C   0  0  0  0  0  0  0  0  0  0  0  0
  140.1220   68.9250  226.1850 C   0  0  0  0  0  0  0  0  0  0  0  0
  140.6330   69.3090  227.4110 C   0  0  0  0  0  0  0  0  0  0  0  0
  140.6910   68.1400  228.7170 Cl  0  0  0  0  0  0  0  0  0  0  0  0
  141.0820   70.6010  227.5740 C   0  0  0  0  0  0  0  0  0  0  0  0
  141.0310   71.5180  226.5350 C   0  0  0  0  0  0  0  0  0  0  0  0
  140.5260   71.1520  225.3060 C   0  0  0  0  0  0  0  0  0  0  0  0
  140.4770   72.0450  224.2950 N   0  0  0  0  0  0  0  0  0  0  0  0
  139.5880   74.3950  223.0940 H   0  0  0  0  0  0  0  0  0  0  0  0
  139.8907   74.1924  220.0858 H   0  0  0  0  0  0  0  0  0  0  0  0
  138.5891   75.1891  220.8695 H   0  0  0  0  0  0  0  0  0  0  0  0
  140.7751   75.9181  217.9258 H   0  0  0  0  0  0  0  0  0  0  0  0
  140.0806   77.3337  218.6429 H   0  0  0  0  0  0  0  0  0  0  0  0
  142.2633   77.7628  217.1514 H   0  0  0  0  0  0  0  0  0  0  0  0
  142.4112   78.4727  218.7170 H   0  0  0  0  0  0  0  0  0  0  0  0
  143.2678   75.6115  217.8261 H   0  0  0  0  0  0  0  0  0  0  0  0
  144.3437   76.8010  218.4954 H   0  0  0  0  0  0  0  0  0  0  0  0
  143.3448   76.5933  220.7180 H   0  0  0  0  0  0  0  0  0  0  0  0
  145.1678   72.1203  221.0705 H   0  0  0  0  0  0  0  0  0  0  0  0
  142.6292   71.4828  220.4587 H   0  0  0  0  0  0  0  0  0  0  0  0
  139.1243   70.0935  221.9339 H   0  0  0  0  0  0  0  0  0  0  0  0
  139.2087   68.4526  223.7867 H   0  0  0  0  0  0  0  0  0  0  0  0
  139.7551   67.9003  226.0256 H   0  0  0  0  0  0  0  0  0  0  0  0
  141.4891   70.9115  228.5476 H   0  0  0  0  0  0  0  0  0  0  0  0
  141.3958   72.5437  226.6927 H   0  0  0  0  0  0  0  0  0  0  0  0
  1  2  2  0
  2  3  1  0
  3  4  1  0
  4  5  1  0
  5  6  2  0
  5  7  1  0
  7  8  1  0
  8  9  1  0
  9 10  1  0
 10 11  1  0
 11 12  1  0
 12 13  2  0
 13 14  1  0
 14 15  2  0
 15 16  1  0
  2 17  1  0
 17 18  2  0
 18 19  1  0
 19 20  2  0
 20 21  1  0
 21 22  2  0
 22 23  1  0
 22 24  1  0
 24 25  2  0
 25 26  1  0
 26 27  2  0
 11  7  1  0
 16 12  1  0
 27 17  1  0
 26 20  1  0
  3 28  1  0
  4 29  1  0
  4 30  1  0
  8 31  1  0
  8 32  1  0
  9 33  1  0
  9 34  1  0
 10 35  1  0
 10 36  1  0
 11 37  1  1
 14 38  1  0
 15 39  1  0
 18 40  1  0
 19 41  1  0
 21 42  1  0
 24 43  1  0
 25 44  1  0
M  END
>  <smiles>  (5) 
O=C(NCC(=O)N1CCC[C@@H]1c1ncco1)c1ccc2cc(Cl)ccc2n1

>  <score_type>  (5) 
oracle

>  <origin>  (5) 
autodockgpu

>  <m_score__min__energy>  (5) 
-7.7800000000000002

>  <m_primary>  (5) 
energy

>  <rmsd>  (5) 
3.2973121722486485

>  <m_score__min__rmsd>  (5) 
3.2973121722486485

>  <meeko>  (5) 
{"free_energy": -7.08, "intermolecular_energy": -8.57, "internal_energy": -1.78, "cluster_size": 4, "cluster_id": 3, "rank_in_cluster": 4}

>  <energy>  (5) 
-7.67

>  <cluster_rmsd>  (5) 
0.64

>  <cluster>  (5) 
1

$$$$

     RDKit          3D

 44 47  0  0  0  0  0  0  0  0999 V2000
  140.0070   74.0160  222.3080 O   0  0  0  0  0  0  0  0  0  0  0  0
  140.2300   72.7780  222.1550 C   0  0  0  0  0  0  0  0  0  0  0  0
  140.4530   72.3480  220.8090 N   0  0  0  0  0  0  0  0  0  0  0  0
  140.4030   73.3420  219.7790 C   0  0  0  0  0  0  0  0  0  0  0  0
  141.5960   73.2860  218.8830 C   0  0  0  0  0  0  0  0  0  0  0  0
  141.5100   73.2040  217.6320 O   0  0  0  0  0  0  0  0  0  0  0  0
  142.8910   73.3290  219.4640 N   0  0  0  0  0  0  0  0  0  0  0  0
  143.9090   74.3380  219.1340 C   0  0  0  0  0  0  0  0  0  0  0  0
  144.6550   74.4160  220.4740 C   0  0  0  0  0  0  0  0  0  0  0  0
  144.8300   72.9350  220.7380 C   0  0  0  0  0  0  0  0  0  0  0  0
  143.4340   72.4220  220.4530 C   0  0  2  0  0  0  0  0  0  0  0  0
  143.4460   71.0130  220.0040 C   0  0  0  0  0  0  0  0  0  0  0  0
  144.5260   70.2430  219.7060 N   0  0  0  0  0  0  0  0  0  0  0  0
  144.0830   69.0200  219.3400 C   0  0  0  0  0  0  0  0  0  0  0  0
  142.7040   69.0900  219.4300 C   0  0  0  0  0  0  0  0  0  0  0  0
  142.3570   70.3060  219.8340 O   0  0  0  0  0  0  0  0  0  0  0  0
  140.2620   71.8410  223.2710 C   0  0  0  0  0  0  0  0  0  0  0  0
  139.8530   70.5460  223.0230 C   0  0  0  0  0  0  0  0  0  0  0  0
  139.8550   69.6030  224.0300 C   0  0  0  0  0  0  0  0  0  0  0  0
  140.2700   69.9540  225.2970 C   0  0  0  0  0  0  0  0  0  0  0  0
  140.2650   69.0010  226.2890 C   0  0  0  0  0  0  0  0  0  0  0  0
  140.6830   69.3640  227.5570 C   0  0  0  0  0  0  0  0  0  0  0  0
  140.6830   68.1600  228.8320 Cl  0  0  0  0  0  0  0  0  0  0  0  0
  141.0860   70.6610  227.7830 C   0  0  0  0  0  0  0  0  0  0  0  0
  141.0820   71.6050  226.7670 C   0  0  0  0  0  0  0  0  0  0  0  0
  140.6700   71.2610  225.4980 C   0  0  0  0  0  0  0  0  0  0  0  0
  140.6650   72.1800  224.5090 N   0  0  0  0  0  0  0  0  0  0  0  0
  140.6430   71.3410  220.6040 H   0  0  0  0  0  0  0  0  0  0  0  0
  139.4981   73.1807  219.1747 H   0  0  0  0  0  0  0  0  0  0  0  0
  140.3902   74.3297  220.2631 H   0  0  0  0  0  0  0  0  0  0  0  0
  144.5675   74.0017  218.3196 H   0  0  0  0  0  0  0  0  0  0  0  0
  143.5094   75.2963  218.7708 H   0  0  0  0  0  0  0  0  0  0  0  0
  145.6205   74.9343  220.3784 H   0  0  0  0  0  0  0  0  0  0  0  0
  144.1421   74.9794  221.2675 H   0  0  0  0  0  0  0  0  0  0  0  0
  145.5707   72.4885  220.0583 H   0  0  0  0  0  0  0  0  0  0  0  0
  145.2037   72.6955  221.7445 H   0  0  0  0  0  0  0  0  0  0  0  0
  142.8064   72.4078  221.3563 H   0  0  0  0  0  0  0  0  0  0  0  0
  144.6890   68.1539  219.0356 H   0  0  0  0  0  0  0  0  0  0  0  0
  142.0071   68.2697  219.2032 H   0  0  0  0  0  0  0  0  0  0  0  0
  139.5223   70.2633  222.0127 H   0  0  0  0  0  0  0  0  0  0  0  0
  139.5264   68.5739  223.8226 H   0  0  0  0  0  0  0  0  0  0  0  0
  139.9358   67.9727  226.0787 H   0  0  0  0  0  0  0  0  0  0  0  0
  141.4179   70.9544  228.7899 H   0  0  0  0  0  0  0  0  0  0  0  0
  141.4096   72.6342  226.9754 H   0  0  0  0  0  0  0  0  0  0  0  0
  1  2  2  0
  2  3  1  0
  3  4  1  0
  4  5  1  0
  5  6  2  0
  5  7  1  0
  7  8  1  0
  8  9  1  0
  9 10  1  0
 10 11  1  0
 11 12  1  0
 12 13  2  0
 13 14  1  0
 14 15  2  0
 15 16  1  0
  2 17  1  0
 17 18  2  0
 18 19  1  0
 19 20  2  0
 20 21  1  0
 21 22  2  0
 22 23  1  0
 22 24  1  0
 24 25  2  0
 25 26  1  0
 26 27  2  0
 11  7  1  0
 16 12  1  0
 27 17  1  0
 26 20  1  0
  3 28  1  0
  4 29  1  0
  4 30  1  0
  8 31  1  0
  8 32  1  0
  9 33  1  0
  9 34  1  0
 10 35  1  0
 10 36  1  0
 11 37  1  1
 14 38  1  0
 15 39  1  0
 18 40  1  0
 19 41  1  0
 21 42  1  0
 24 43  1  0
 25 44  1  0
M  END
>  <smiles>  (6) 
O=C(NCC(=O)N1CCC[C@@H]1c1ncco1)c1ccc2cc(Cl)ccc2n1

>  <score_type>  (6) 
oracle

>  <origin>  (6) 
autodockgpu

>  <m_score__min__energy>  (6) 
-7.7800000000000002

>  <m_primary>  (6) 
energy

>  <rmsd>  (6) 
5.349317554429617

>  <m_score__min__rmsd>  (6) 
5.349317554429617

>  <meeko>  (6) 
{"free_energy": -6.54, "intermolecular_energy": -8.03, "internal_energy": -2.32, "cluster_size": 6, "cluster_id": 7, "rank_in_cluster": 1}

>  <energy>  (6) 
-7.66

>  <cluster_rmsd>  (6) 
0.63

>  <cluster>  (6) 
1

$$$$

     RDKit          3D

 44 47  0  0  0  0  0  0  0  0999 V2000
  141.8110   72.3000  221.2590 O   0  0  0  0  0  0  0  0  0  0  0  0
  141.0690   73.1610  221.8200 C   0  0  0  0  0  0  0  0  0  0  0  0
  140.1090   72.6470  222.7480 N   0  0  0  0  0  0  0  0  0  0  0  0
  140.0780   71.2290  222.9520 C   0  0  0  0  0  0  0  0  0  0  0  0
  139.0900   70.8310  223.9960 C   0  0  0  0  0  0  0  0  0  0  0  0
  137.9790   71.4020  224.1430 O   0  0  0  0  0  0  0  0  0  0  0  0
  139.4110   69.7570  224.8690 N   0  0  0  0  0  0  0  0  0  0  0  0
  138.5450   68.5890  225.0900 C   0  0  0  0  0  0  0  0  0  0  0  0
  139.6060   67.5200  225.3880 C   0  0  0  0  0  0  0  0  0  0  0  0
  140.4470   68.2880  226.3870 C   0  0  0  0  0  0  0  0  0  0  0  0
  140.6040   69.6150  225.6750 C   0  0  2  0  0  0  0  0  0  0  0  0
  140.7990   70.7310  226.6260 C   0  0  0  0  0  0  0  0  0  0  0  0
  141.5640   71.8420  226.4590 N   0  0  0  0  0  0  0  0  0  0  0  0
  141.4550   72.5990  227.5730 C   0  0  0  0  0  0  0  0  0  0  0  0
  140.6010   71.9000  228.4060 C   0  0  0  0  0  0  0  0  0  0  0  0
  140.2260   70.7800  227.8020 O   0  0  0  0  0  0  0  0  0  0  0  0
  141.1770   74.5890  221.5460 C   0  0  0  0  0  0  0  0  0  0  0  0
  141.9540   74.9700  220.4710 C   0  0  0  0  0  0  0  0  0  0  0  0
  142.1050   76.3040  220.1500 C   0  0  0  0  0  0  0  0  0  0  0  0
  141.4730   77.2670  220.9070 C   0  0  0  0  0  0  0  0  0  0  0  0
  141.6340   78.5920  220.5720 C   0  0  0  0  0  0  0  0  0  0  0  0
  140.9960   79.5500  221.3390 C   0  0  0  0  0  0  0  0  0  0  0  0
  141.1900   81.2420  220.9250 Cl  0  0  0  0  0  0  0  0  0  0  0  0
  140.2240   79.1480  222.4060 C   0  0  0  0  0  0  0  0  0  0  0  0
  140.0770   77.8060  222.7250 C   0  0  0  0  0  0  0  0  0  0  0  0
  140.7050   76.8370  221.9730 C   0  0  0  0  0  0  0  0  0  0  0  0
  140.5620   75.5320  222.2830 N   0  0  0  0  0  0  0  0  0  0  0  0
  139.4630   73.2970  223.2490 H   0  0  0  0  0  0  0  0  0  0  0  0
  139.8077   70.7407  222.0041 H   0  0  0  0  0  0  0  0  0  0  0  0
  141.0753   70.9154  223.2941 H   0  0  0  0  0  0  0  0  0  0  0  0
  137.8670   68.7396  225.9430 H   0  0  0  0  0  0  0  0  0  0  0  0
  137.8693   68.3499  224.2556 H   0  0  0  0  0  0  0  0  0  0  0  0
  139.1654   66.6144  225.8305 H   0  0  0  0  0  0  0  0  0  0  0  0
  140.1481   67.1360  224.5113 H   0  0  0  0  0  0  0  0  0  0  0  0
  139.9255   68.4049  227.3484 H   0  0  0  0  0  0  0  0  0  0  0  0
  141.3971   67.7996  226.6494 H   0  0  0  0  0  0  0  0  0  0  0  0
  141.5057   69.6419  225.0455 H   0  0  0  0  0  0  0  0  0  0  0  0
  141.9416   73.5648  227.7741 H   0  0  0  0  0  0  0  0  0  0  0  0
  140.2834   72.2212  229.4090 H   0  0  0  0  0  0  0  0  0  0  0  0
  142.4578   74.2033  219.8641 H   0  0  0  0  0  0  0  0  0  0  0  0
  142.7280   76.5977  219.2924 H   0  0  0  0  0  0  0  0  0  0  0  0
  142.2565   78.8829  219.7130 H   0  0  0  0  0  0  0  0  0  0  0  0
  139.7135   79.9064  223.0178 H   0  0  0  0  0  0  0  0  0  0  0  0
  139.4551   77.5135  223.5839 H   0  0  0  0  0  0  0  0  0  0  0  0
  1  2  2  0
  2  3  1  0
  3  4  1  0
  4  5  1  0
  5  6  2  0
  5  7  1  0
  7  8  1  0
  8  9  1  0
  9 10  1  0
 10 11  1  0
 11 12  1  0
 12 13  2  0
 13 14  1  0
 14 15  2  0
 15 16  1  0
  2 17  1  0
 17 18  2  0
 18 19  1  0
 19 20  2  0
 20 21  1  0
 21 22  2  0
 22 23  1  0
 22 24  1  0
 24 25  2  0
 25 26  1  0
 26 27  2  0
 11  7  1  0
 16 12  1  0
 27 17  1  0
 26 20  1  0
  3 28  1  0
  4 29  1  0
  4 30  1  0
  8 31  1  0
  8 32  1  0
  9 33  1  0
  9 34  1  0
 10 35  1  0
 10 36  1  0
 11 37  1  6
 14 38  1  0
 15 39  1  0
 18 40  1  0
 19 41  1  0
 21 42  1  0
 24 43  1  0
 25 44  1  0
M  END
>  <smiles>  (7) 
O=C(NCC(=O)N1CCC[C@@H]1c1ncco1)c1ccc2cc(Cl)ccc2n1

>  <score_type>  (7) 
oracle

>  <origin>  (7) 
autodockgpu

>  <m_score__min__energy>  (7) 
-7.7800000000000002

>  <m_primary>  (7) 
energy

>  <rmsd>  (7) 
8.735552591287322

>  <m_score__min__rmsd>  (7) 
8.735552591287322

>  <meeko>  (7) 
{"free_energy": -7.74, "intermolecular_energy": -9.23, "internal_energy": -1.61, "cluster_size": 8, "cluster_id": 1, "rank_in_cluster": 3}

>  <energy>  (7) 
-7.49

>  <cluster_rmsd>  (7) 
1.01

>  <cluster>  (7) 
1

$$$$

     RDKit          3D

 44 47  0  0  0  0  0  0  0  0999 V2000
  135.6950   75.3910  221.5040 O   0  0  0  0  0  0  0  0  0  0  0  0
  136.8420   75.2800  222.0330 C   0  0  0  0  0  0  0  0  0  0  0  0
  137.2890   73.9430  222.2740 N   0  0  0  0  0  0  0  0  0  0  0  0
  136.4120   72.8730  221.9010 C   0  0  0  0  0  0  0  0  0  0  0  0
  137.1120   71.5550  221.8670 C   0  0  0  0  0  0  0  0  0  0  0  0
  136.7950   70.6310  221.0770 O   0  0  0  0  0  0  0  0  0  0  0  0
  138.1890   71.3280  222.7660 N   0  0  0  0  0  0  0  0  0  0  0  0
  138.0290   71.1790  224.2200 C   0  0  0  0  0  0  0  0  0  0  0  0
  139.2000   70.2330  224.5240 C   0  0  0  0  0  0  0  0  0  0  0  0
  140.2910   70.9460  223.7510 C   0  0  0  0  0  0  0  0  0  0  0  0
  139.5910   71.2050  222.4330 C   0  0  2  0  0  0  0  0  0  0  0  0
  140.1330   72.3980  221.7470 C   0  0  0  0  0  0  0  0  0  0  0  0
  140.5170   72.5080  220.4480 N   0  0  0  0  0  0  0  0  0  0  0  0
  140.9480   73.7710  220.2420 C   0  0  0  0  0  0  0  0  0  0  0  0
  140.8070   74.4080  221.4610 C   0  0  0  0  0  0  0  0  0  0  0  0
  140.3120   73.5490  222.3440 O   0  0  0  0  0  0  0  0  0  0  0  0
  137.6630   76.4340  222.3770 C   0  0  0  0  0  0  0  0  0  0  0  0
  137.0070   77.6030  222.7040 C   0  0  0  0  0  0  0  0  0  0  0  0
  137.7170   78.7380  223.0410 C   0  0  0  0  0  0  0  0  0  0  0  0
  139.0950   78.7050  223.0530 C   0  0  0  0  0  0  0  0  0  0  0  0
  139.7870   79.8450  223.3920 C   0  0  0  0  0  0  0  0  0  0  0  0
  141.1690   79.8020  223.4010 C   0  0  0  0  0  0  0  0  0  0  0  0
  142.0660   81.2460  223.8310 Cl  0  0  0  0  0  0  0  0  0  0  0  0
  141.8040   78.6240  223.0730 C   0  0  0  0  0  0  0  0  0  0  0  0
  141.0850   77.4880  222.7340 C   0  0  0  0  0  0  0  0  0  0  0  0
  139.7080   77.5120  222.7200 C   0  0  0  0  0  0  0  0  0  0  0  0
  139.0090   76.4060  222.3910 N   0  0  0  0  0  0  0  0  0  0  0  0
  138.2240   73.7720  222.7080 H   0  0  0  0  0  0  0  0  0  0  0  0
  135.5899   72.8186  222.6298 H   0  0  0  0  0  0  0  0  0  0  0  0
  136.0367   73.0819  220.8883 H   0  0  0  0  0  0  0  0  0  0  0  0
  138.1356   72.1410  224.7427 H   0  0  0  0  0  0  0  0  0  0  0  0
  137.0430   70.8125  224.5416 H   0  0  0  0  0  0  0  0  0  0  0  0
  139.4219   70.1846  225.6003 H   0  0  0  0  0  0  0  0  0  0  0  0
  139.0391   69.1797  224.2508 H   0  0  0  0  0  0  0  0  0  0  0  0
  140.5866   71.8847  224.2425 H   0  0  0  0  0  0  0  0  0  0  0  0
  141.2285   70.3776  223.6620 H   0  0  0  0  0  0  0  0  0  0  0  0
  139.7504   70.3893  221.7124 H   0  0  0  0  0  0  0  0  0  0  0  0
  141.3298   74.2013  219.3044 H   0  0  0  0  0  0  0  0  0  0  0  0
  141.0637   75.4578  221.6662 H   0  0  0  0  0  0  0  0  0  0  0  0
  135.9074   77.6309  222.6961 H   0  0  0  0  0  0  0  0  0  0  0  0
  137.1849   79.6655  223.2991 H   0  0  0  0  0  0  0  0  0  0  0  0
  139.2521   80.7708  223.6503 H   0  0  0  0  0  0  0  0  0  0  0  0
  142.9033   78.5840  223.0802 H   0  0  0  0  0  0  0  0  0  0  0  0
  141.6179   76.5614  222.4745 H   0  0  0  0  0  0  0  0  0  0  0  0
  1  2  2  0
  2  3  1  0
  3  4  1  0
  4  5  1  0
  5  6  2  0
  5  7  1  0
  7  8  1  0
  8  9  1  0
  9 10  1  0
 10 11  1  0
 11 12  1  0
 12 13  2  0
 13 14  1  0
 14 15  2  0
 15 16  1  0
  2 17  1  0
 17 18  2  0
 18 19  1  0
 19 20  2  0
 20 21  1  0
 21 22  2  0
 22 23  1  0
 22 24  1  0
 24 25  2  0
 25 26  1  0
 26 27  2  0
 11  7  1  0
 16 12  1  0
 27 17  1  0
 26 20  1  0
  3 28  1  0
  4 29  1  0
  4 30  1  0
  8 31  1  0
  8 32  1  0
  9 33  1  0
  9 34  1  0
 10 35  1  0
 10 36  1  0
 11 37  1  6
 14 38  1  0
 15 39  1  0
 18 40  1  0
 19 41  1  0
 21 42  1  0
 24 43  1  0
 25 44  1  0
M  END
>  <smiles>  (8) 
O=C(NCC(=O)N1CCC[C@@H]1c1ncco1)c1ccc2cc(Cl)ccc2n1

>  <score_type>  (8) 
oracle

>  <origin>  (8) 
autodockgpu

>  <m_score__min__energy>  (8) 
-7.7800000000000002

>  <m_primary>  (8) 
energy

>  <rmsd>  (8) 
7.605336790530811

>  <m_score__min__rmsd>  (8) 
7.605336790530811

>  <meeko>  (8) 
{"free_energy": -6.02, "intermolecular_energy": -7.51, "internal_energy": -2.57, "cluster_size": 1, "cluster_id": 8, "rank_in_cluster": 1}

>  <energy>  (8) 
-7.42

>  <cluster_rmsd>  (8) 
1.87

>  <cluster>  (8) 
1

$$$$

     RDKit          3D

 44 47  0  0  0  0  0  0  0  0999 V2000
  140.2310   74.0750  221.9660 O   0  0  0  0  0  0  0  0  0  0  0  0
  140.2680   72.8130  221.8510 C   0  0  0  0  0  0  0  0  0  0  0  0
  140.3390   72.3120  220.5130 N   0  0  0  0  0  0  0  0  0  0  0  0
  140.3600   73.2690  219.4470 C   0  0  0  0  0  0  0  0  0  0  0  0
  141.6240   73.2040  218.6560 C   0  0  0  0  0  0  0  0  0  0  0  0
  141.6460   73.1760  217.3990 O   0  0  0  0  0  0  0  0  0  0  0  0
  142.8650   73.1710  219.3470 N   0  0  0  0  0  0  0  0  0  0  0  0
  143.9790   74.0940  219.0830 C   0  0  0  0  0  0  0  0  0  0  0  0
  144.6110   74.1610  220.4810 C   0  0  0  0  0  0  0  0  0  0  0  0
  144.6520   72.6800  220.7960 C   0  0  0  0  0  0  0  0  0  0  0  0
  143.2520   72.2600  220.4030 C   0  0  2  0  0  0  0  0  0  0  0  0
  143.1970   70.8400  219.9920 C   0  0  0  0  0  0  0  0  0  0  0  0
  142.0920   70.0880  219.7420 N   0  0  0  0  0  0  0  0  0  0  0  0
  142.4980   68.8460  219.3970 C   0  0  0  0  0  0  0  0  0  0  0  0
  143.8790   68.8860  219.4510 C   0  0  0  0  0  0  0  0  0  0  0  0
  144.2640   70.1040  219.8130 O   0  0  0  0  0  0  0  0  0  0  0  0
  140.2420   71.9180  223.0010 C   0  0  0  0  0  0  0  0  0  0  0  0
  139.7180   70.6560  222.8100 C   0  0  0  0  0  0  0  0  0  0  0  0
  139.6590   69.7530  223.8520 C   0  0  0  0  0  0  0  0  0  0  0  0
  140.1300   70.1120  225.0970 C   0  0  0  0  0  0  0  0  0  0  0  0
  140.0640   69.1990  226.1240 C   0  0  0  0  0  0  0  0  0  0  0  0
  140.5390   69.5700  227.3690 C   0  0  0  0  0  0  0  0  0  0  0  0
  140.4630   68.4180  228.6890 Cl  0  0  0  0  0  0  0  0  0  0  0  0
  141.0590   70.8330  227.5380 C   0  0  0  0  0  0  0  0  0  0  0  0
  141.1140   71.7370  226.4870 C   0  0  0  0  0  0  0  0  0  0  0  0
  140.6470   71.3850  225.2400 C   0  0  0  0  0  0  0  0  0  0  0  0
  140.7010   72.2640  224.2180 N   0  0  0  0  0  0  0  0  0  0  0  0
  140.3730   71.2820  220.3390 H   0  0  0  0  0  0  0  0  0  0  0  0
  139.5114   73.0704  218.7758 H   0  0  0  0  0  0  0  0  0  0  0  0
  140.2916   74.2724  219.8925 H   0  0  0  0  0  0  0  0  0  0  0  0
  144.6786   73.6863  218.3384 H   0  0  0  0  0  0  0  0  0  0  0  0
  143.6836   75.0665  218.6623 H   0  0  0  0  0  0  0  0  0  0  0  0
  145.6170   74.6054  220.4576 H   0  0  0  0  0  0  0  0  0  0  0  0
  144.0755   74.7847  221.2120 H   0  0  0  0  0  0  0  0  0  0  0  0
  145.4129   72.1605  220.1951 H   0  0  0  0  0  0  0  0  0  0  0  0
  144.9193   72.4459  221.8370 H   0  0  0  0  0  0  0  0  0  0  0  0
  142.5507   72.3199  221.2483 H   0  0  0  0  0  0  0  0  0  0  0  0
  141.8650   67.9868  219.1302 H   0  0  0  0  0  0  0  0  0  0  0  0
  144.5510   68.0437  219.2296 H   0  0  0  0  0  0  0  0  0  0  0  0
  139.3434   70.3666  221.8170 H   0  0  0  0  0  0  0  0  0  0  0  0
  139.2375   68.7500  223.6897 H   0  0  0  0  0  0  0  0  0  0  0  0
  139.6429   68.1963  225.9588 H   0  0  0  0  0  0  0  0  0  0  0  0
  141.4387   71.1317  228.5262 H   0  0  0  0  0  0  0  0  0  0  0  0
  141.5330   72.7408  226.6506 H   0  0  0  0  0  0  0  0  0  0  0  0
  1  2  2  0
  2  3  1  0
  3  4  1  0
  4  5  1  0
  5  6  2  0
  5  7  1  0
  7  8  1  0
  8  9  1  0
  9 10  1  0
 10 11  1  0
 11 12  1  0
 12 13  2  0
 13 14  1  0
 14 15  2  0
 15 16  1  0
  2 17  1  0
 17 18  2  0
 18 19  1  0
 19 20  2  0
 20 21  1  0
 21 22  2  0
 22 23  1  0
 22 24  1  0
 24 25  2  0
 25 26  1  0
 26 27  2  0
 11  7  1  0
 16 12  1  0
 27 17  1  0
 26 20  1  0
  3 28  1  0
  4 29  1  0
  4 30  1  0
  8 31  1  0
  8 32  1  0
  9 33  1  0
  9 34  1  0
 10 35  1  0
 10 36  1  0
 11 37  1  1
 14 38  1  0
 15 39  1  0
 18 40  1  0
 19 41  1  0
 21 42  1  0
 24 43  1  0
 25 44  1  0
M  END
>  <smiles>  (9) 
O=C(NCC(=O)N1CCC[C@@H]1c1ncco1)c1ccc2cc(Cl)ccc2n1

>  <score_type>  (9) 
oracle

>  <origin>  (9) 
autodockgpu

>  <m_score__min__energy>  (9) 
-7.7800000000000002

>  <m_primary>  (9) 
energy

>  <rmsd>  (9) 
5.384986359884285

>  <m_score__min__rmsd>  (9) 
5.384986359884285

>  <meeko>  (9) 
{"free_energy": -6.46, "intermolecular_energy": -7.96, "internal_energy": -2.33, "cluster_size": 6, "cluster_id": 7, "rank_in_cluster": 5}

>  <energy>  (9) 
-7.43

>  <cluster_rmsd>  (9) 
0.0

>  <cluster>  (9) 
2

$$$$

     RDKit          3D

 44 47  0  0  0  0  0  0  0  0999 V2000
  140.2450   72.4940  220.8060 O   0  0  0  0  0  0  0  0  0  0  0  0
  139.9580   72.8400  221.9910 C   0  0  0  0  0  0  0  0  0  0  0  0
  139.5600   74.2030  222.1620 N   0  0  0  0  0  0  0  0  0  0  0  0
  139.5240   75.0340  220.9950 C   0  0  0  0  0  0  0  0  0  0  0  0
  140.4800   76.1770  221.0870 C   0  0  0  0  0  0  0  0  0  0  0  0
  141.5280   76.2510  220.3980 O   0  0  0  0  0  0  0  0  0  0  0  0
  140.1980   77.2350  221.9930 N   0  0  0  0  0  0  0  0  0  0  0  0
  141.1430   77.7220  223.0090 C   0  0  0  0  0  0  0  0  0  0  0  0
  140.7190   79.1960  223.0860 C   0  0  0  0  0  0  0  0  0  0  0  0
  139.2190   79.0090  223.1890 C   0  0  0  0  0  0  0  0  0  0  0  0
  138.9750   78.0040  222.0830 C   0  0  2  0  0  0  0  0  0  0  0  0
  137.7830   77.1690  222.3490 C   0  0  0  0  0  0  0  0  0  0  0  0
  136.5260   77.3340  221.8600 N   0  0  0  0  0  0  0  0  0  0  0  0
  135.7480   76.3490  222.3580 C   0  0  0  0  0  0  0  0  0  0  0  0
  136.5850   75.5940  223.1590 C   0  0  0  0  0  0  0  0  0  0  0  0
  137.8040   76.1180  223.1290 O   0  0  0  0  0  0  0  0  0  0  0  0
  140.0240   71.9170  223.1170 C   0  0  0  0  0  0  0  0  0  0  0  0
  139.5480   70.6380  222.9160 C   0  0  0  0  0  0  0  0  0  0  0  0
  139.5770   69.7080  223.9350 C   0  0  0  0  0  0  0  0  0  0  0  0
  140.0890   70.0570  225.1670 C   0  0  0  0  0  0  0  0  0  0  0  0
  140.1110   69.1170  226.1710 C   0  0  0  0  0  0  0  0  0  0  0  0
  140.6250   69.4780  227.4030 C   0  0  0  0  0  0  0  0  0  0  0  0
  140.6610   68.2920  228.6940 Cl  0  0  0  0  0  0  0  0  0  0  0  0
  141.0960   70.7590  227.5830 C   0  0  0  0  0  0  0  0  0  0  0  0
  141.0630   71.6900  226.5550 C   0  0  0  0  0  0  0  0  0  0  0  0
  140.5540   71.3490  225.3210 C   0  0  0  0  0  0  0  0  0  0  0  0
  140.5220   72.2540  224.3210 N   0  0  0  0  0  0  0  0  0  0  0  0
  139.3070   74.5620  223.1100 H   0  0  0  0  0  0  0  0  0  0  0  0
  139.7846   74.4240  220.1175 H   0  0  0  0  0  0  0  0  0  0  0  0
  138.5090   75.4489  220.9070 H   0  0  0  0  0  0  0  0  0  0  0  0
  141.0075   77.2078  223.9719 H   0  0  0  0  0  0  0  0  0  0  0  0
  142.2041   77.5579  222.7701 H   0  0  0  0  0  0  0  0  0  0  0  0
  141.1334   79.6981  223.9726 H   0  0  0  0  0  0  0  0  0  0  0  0
  141.0597   79.8293  222.2536 H   0  0  0  0  0  0  0  0  0  0  0  0
  138.9287   78.6071  224.1709 H   0  0  0  0  0  0  0  0  0  0  0  0
  138.6390   79.9387  223.0922 H   0  0  0  0  0  0  0  0  0  0  0  0
  138.7484   78.4925  221.1238 H   0  0  0  0  0  0  0  0  0  0  0  0
  134.6775   76.1828  222.1673 H   0  0  0  0  0  0  0  0  0  0  0  0
  136.2880   74.7018  223.7298 H   0  0  0  0  0  0  0  0  0  0  0  0
  139.1412   70.3566  221.9335 H   0  0  0  0  0  0  0  0  0  0  0  0
  139.1929   68.6913  223.7651 H   0  0  0  0  0  0  0  0  0  0  0  0
  139.7281   68.1004  225.9977 H   0  0  0  0  0  0  0  0  0  0  0  0
  141.5065   71.0501  228.5611 H   0  0  0  0  0  0  0  0  0  0  0  0
  141.4457   72.7070  226.7262 H   0  0  0  0  0  0  0  0  0  0  0  0
  1  2  2  0
  2  3  1  0
  3  4  1  0
  4  5  1  0
  5  6  2  0
  5  7  1  0
  7  8  1  0
  8  9  1  0
  9 10  1  0
 10 11  1  0
 11 12  1  0
 12 13  2  0
 13 14  1  0
 14 15  2  0
 15 16  1  0
  2 17  1  0
 17 18  2  0
 18 19  1  0
 19 20  2  0
 20 21  1  0
 21 22  2  0
 22 23  1  0
 22 24  1  0
 24 25  2  0
 25 26  1  0
 26 27  2  0
 11  7  1  0
 16 12  1  0
 27 17  1  0
 26 20  1  0
  3 28  1  0
  4 29  1  0
  4 30  1  0
  8 31  1  0
  8 32  1  0
  9 33  1  0
  9 34  1  0
 10 35  1  0
 10 36  1  0
 11 37  1  6
 14 38  1  0
 15 39  1  0
 18 40  1  0
 19 41  1  0
 21 42  1  0
 24 43  1  0
 25 44  1  0
M  END
>  <smiles>  (10) 
O=C(NCC(=O)N1CCC[C@@H]1c1ncco1)c1ccc2cc(Cl)ccc2n1

>  <score_type>  (10) 
oracle

>  <origin>  (10) 
autodockgpu

>  <m_score__min__energy>  (10) 
-7.7800000000000002

>  <m_primary>  (10) 
energy

>  <rmsd>  (10) 
3.997207567713741

>  <m_score__min__rmsd>  (10) 
3.997207567713741

>  <meeko>  (10) 
{"free_energy": -6.98, "intermolecular_energy": -8.47, "internal_energy": -2.05, "cluster_size": 8, "cluster_id": 5, "rank_in_cluster": 1}

>  <energy>  (10) 
-7.43

>  <cluster_rmsd>  (10) 
0.99

>  <cluster>  (10) 
2

$$$$

     RDKit          3D

 44 47  0  0  0  0  0  0  0  0999 V2000
  137.4290   71.1720  221.4430 O   0  0  0  0  0  0  0  0  0  0  0  0
  138.0520   71.7160  222.4040 C   0  0  0  0  0  0  0  0  0  0  0  0
  138.2090   73.1350  222.3210 N   0  0  0  0  0  0  0  0  0  0  0  0
  137.6550   73.7970  221.1780 C   0  0  0  0  0  0  0  0  0  0  0  0
  137.5320   75.2700  221.3830 C   0  0  0  0  0  0  0  0  0  0  0  0
  136.4290   75.8500  221.5450 O   0  0  0  0  0  0  0  0  0  0  0  0
  138.7130   76.0600  221.3990 N   0  0  0  0  0  0  0  0  0  0  0  0
  138.8360   77.3690  220.7390 C   0  0  0  0  0  0  0  0  0  0  0  0
  139.8520   78.0460  221.6710 C   0  0  0  0  0  0  0  0  0  0  0  0
  140.8690   76.9270  221.7710 C   0  0  0  0  0  0  0  0  0  0  0  0
  139.9680   75.7400  222.0430 C   0  0  2  0  0  0  0  0  0  0  0  0
  140.5630   74.4750  221.5600 C   0  0  0  0  0  0  0  0  0  0  0  0
  140.9930   74.1840  220.3040 N   0  0  0  0  0  0  0  0  0  0  0  0
  141.4650   72.9180  220.3030 C   0  0  0  0  0  0  0  0  0  0  0  0
  141.3000   72.4670  221.6000 C   0  0  0  0  0  0  0  0  0  0  0  0
  140.7540   73.4330  222.3290 O   0  0  0  0  0  0  0  0  0  0  0  0
  138.5810   70.9530  223.5290 C   0  0  0  0  0  0  0  0  0  0  0  0
  138.2550   69.6140  223.5950 C   0  0  0  0  0  0  0  0  0  0  0  0
  138.7180   68.8270  224.6300 C   0  0  0  0  0  0  0  0  0  0  0  0
  139.5140   69.3820  225.6080 C   0  0  0  0  0  0  0  0  0  0  0  0
  139.9670   68.5830  226.6330 C   0  0  0  0  0  0  0  0  0  0  0  0
  140.7660   69.1500  227.6100 C   0  0  0  0  0  0  0  0  0  0  0  0
  141.3510   68.1450  228.9220 Cl  0  0  0  0  0  0  0  0  0  0  0  0
  141.0800   70.4880  227.5240 C   0  0  0  0  0  0  0  0  0  0  0  0
  140.6110   71.2740  226.4820 C   0  0  0  0  0  0  0  0  0  0  0  0
  139.8150   70.7270  225.5000 C   0  0  0  0  0  0  0  0  0  0  0  0
  139.3590   71.4910  224.4860 N   0  0  0  0  0  0  0  0  0  0  0  0
  138.7120   73.6520  223.0760 H   0  0  0  0  0  0  0  0  0  0  0  0
  138.3076   73.6134  220.3117 H   0  0  0  0  0  0  0  0  0  0  0  0
  136.6450   73.3942  221.0116 H   0  0  0  0  0  0  0  0  0  0  0  0
  139.2232   77.2740  219.7138 H   0  0  0  0  0  0  0  0  0  0  0  0
  137.8890   77.9143  220.6133 H   0  0  0  0  0  0  0  0  0  0  0  0
  140.2813   78.9540  221.2224 H   0  0  0  0  0  0  0  0  0  0  0  0
  139.4479   78.4035  222.6296 H   0  0  0  0  0  0  0  0  0  0  0  0
  141.4271   76.8034  220.8312 H   0  0  0  0  0  0  0  0  0  0  0  0
  141.6474   77.0887  222.5312 H   0  0  0  0  0  0  0  0  0  0  0  0
  139.8215   75.5707  223.1200 H   0  0  0  0  0  0  0  0  0  0  0  0
  141.8896   72.3644  219.4526 H   0  0  0  0  0  0  0  0  0  0  0  0
  141.5768   71.4682  221.9685 H   0  0  0  0  0  0  0  0  0  0  0  0
  137.6197   69.1692  222.8149 H   0  0  0  0  0  0  0  0  0  0  0  0
  138.4524   67.7605  224.6739 H   0  0  0  0  0  0  0  0  0  0  0  0
  139.6996   67.5168  226.6746 H   0  0  0  0  0  0  0  0  0  0  0  0
  141.7160   70.9428  228.2978 H   0  0  0  0  0  0  0  0  0  0  0  0
  140.8763   72.3407  226.4395 H   0  0  0  0  0  0  0  0  0  0  0  0
  1  2  2  0
  2  3  1  0
  3  4  1  0
  4  5  1  0
  5  6  2  0
  5  7  1  0
  7  8  1  0
  8  9  1  0
  9 10  1  0
 10 11  1  0
 11 12  1  0
 12 13  2  0
 13 14  1  0
 14 15  2  0
 15 16  1  0
  2 17  1  0
 17 18  2  0
 18 19  1  0
 19 20  2  0
 20 21  1  0
 21 22  2  0
 22 23  1  0
 22 24  1  0
 24 25  2  0
 25 26  1  0
 26 27  2  0
 11  7  1  0
 16 12  1  0
 27 17  1  0
 26 20  1  0
  3 28  1  0
  4 29  1  0
  4 30  1  0
  8 31  1  0
  8 32  1  0
  9 33  1  0
  9 34  1  0
 10 35  1  0
 10 36  1  0
 11 37  1  1
 14 38  1  0
 15 39  1  0
 18 40  1  0
 19 41  1  0
 21 42  1  0
 24 43  1  0
 25 44  1  0
M  END
>  <smiles>  (11) 
O=C(NCC(=O)N1CCC[C@@H]1c1ncco1)c1ccc2cc(Cl)ccc2n1

>  <score_type>  (11) 
oracle

>  <origin>  (11) 
autodockgpu

>  <m_score__min__energy>  (11) 
-7.7800000000000002

>  <m_primary>  (11) 
energy

>  <rmsd>  (11) 
3.369036442340937

>  <m_score__min__rmsd>  (11) 
3.369036442340937

>  <meeko>  (11) 
{"free_energy": -6.71, "intermolecular_energy": -8.2, "internal_energy": -2.15, "cluster_size": 8, "cluster_id": 5, "rank_in_cluster": 8}

>  <energy>  (11) 
-7.43

>  <cluster_rmsd>  (11) 
0.61

>  <cluster>  (11) 
2

$$$$

     RDKit          3D

 44 47  0  0  0  0  0  0  0  0999 V2000
  135.5070   68.7000  224.7880 O   0  0  0  0  0  0  0  0  0  0  0  0
  136.0730   69.8290  224.6710 C   0  0  0  0  0  0  0  0  0  0  0  0
  137.4270   69.8010  224.2130 N   0  0  0  0  0  0  0  0  0  0  0  0
  138.0070   68.5210  223.9350 C   0  0  0  0  0  0  0  0  0  0  0  0
  139.1250   68.1930  224.8670 C   0  0  0  0  0  0  0  0  0  0  0  0
  139.5610   67.0250  225.0320 O   0  0  0  0  0  0  0  0  0  0  0  0
  139.7310   69.2430  225.6070 N   0  0  0  0  0  0  0  0  0  0  0  0
  139.4160   69.5500  227.0100 C   0  0  0  0  0  0  0  0  0  0  0  0
  140.7700   70.1070  227.4750 C   0  0  0  0  0  0  0  0  0  0  0  0
  141.0440   71.0580  226.3280 C   0  0  0  0  0  0  0  0  0  0  0  0
  140.7340   70.1750  225.1380 C   0  0  2  0  0  0  0  0  0  0  0  0
  140.2930   70.9630  223.9660 C   0  0  0  0  0  0  0  0  0  0  0  0
  140.3590   72.3100  223.7970 N   0  0  0  0  0  0  0  0  0  0  0  0
  139.8460   72.6070  222.5830 C   0  0  0  0  0  0  0  0  0  0  0  0
  139.4740   71.3920  222.0370 C   0  0  0  0  0  0  0  0  0  0  0  0
  139.7590   70.4240  222.9000 O   0  0  0  0  0  0  0  0  0  0  0  0
  135.3960   71.0820  224.9790 C   0  0  0  0  0  0  0  0  0  0  0  0
  135.7460   72.1910  224.2350 C   0  0  0  0  0  0  0  0  0  0  0  0
  135.1480   73.4120  224.4700 C   0  0  0  0  0  0  0  0  0  0  0  0
  134.1920   73.5290  225.4550 C   0  0  0  0  0  0  0  0  0  0  0  0
  133.6060   74.7550  225.6750 C   0  0  0  0  0  0  0  0  0  0  0  0
  132.6480   74.8620  226.6660 C   0  0  0  0  0  0  0  0  0  0  0  0
  131.8920   76.4170  226.9590 Cl  0  0  0  0  0  0  0  0  0  0  0  0
  132.3130   73.7430  227.3970 C   0  0  0  0  0  0  0  0  0  0  0  0
  132.9170   72.5180  227.1570 C   0  0  0  0  0  0  0  0  0  0  0  0
  133.8740   72.3930  226.1730 C   0  0  0  0  0  0  0  0  0  0  0  0
  134.4620   71.2010  225.9410 N   0  0  0  0  0  0  0  0  0  0  0  0
  137.9590   70.6920  224.0920 H   0  0  0  0  0  0  0  0  0  0  0  0
  137.2278   67.7507  224.0319 H   0  0  0  0  0  0  0  0  0  0  0  0
  138.4166   68.5509  222.9145 H   0  0  0  0  0  0  0  0  0  0  0  0
  138.6161   70.3004  227.0935 H   0  0  0  0  0  0  0  0  0  0  0  0
  139.0407   68.6984  227.5964 H   0  0  0  0  0  0  0  0  0  0  0  0
  140.6903   70.6340  228.4372 H   0  0  0  0  0  0  0  0  0  0  0  0
  141.5509   69.3552  227.6620 H   0  0  0  0  0  0  0  0  0  0  0  0
  140.3810   71.9350  226.3636 H   0  0  0  0  0  0  0  0  0  0  0  0
  142.0587   71.4827  226.3245 H   0  0  0  0  0  0  0  0  0  0  0  0
  141.6251   69.6402  224.7776 H   0  0  0  0  0  0  0  0  0  0  0  0
  139.7456   73.6027  222.1263 H   0  0  0  0  0  0  0  0  0  0  0  0
  139.0158   71.2504  221.0471 H   0  0  0  0  0  0  0  0  0  0  0  0
  136.5087   72.1003  223.4476 H   0  0  0  0  0  0  0  0  0  0  0  0
  135.4339   74.2900  223.8722 H   0  0  0  0  0  0  0  0  0  0  0  0
  133.8939   75.6309  225.0751 H   0  0  0  0  0  0  0  0  0  0  0  0
  131.5513   73.8230  228.1866 H   0  0  0  0  0  0  0  0  0  0  0  0
  132.6306   71.6407  227.7556 H   0  0  0  0  0  0  0  0  0  0  0  0
  1  2  2  0
  2  3  1  0
  3  4  1  0
  4  5  1  0
  5  6  2  0
  5  7  1  0
  7  8  1  0
  8  9  1  0
  9 10  1  0
 10 11  1  0
 11 12  1  0
 12 13  2  0
 13 14  1  0
 14 15  2  0
 15 16  1  0
  2 17  1  0
 17 18  2  0
 18 19  1  0
 19 20  2  0
 20 21  1  0
 21 22  2  0
 22 23  1  0
 22 24  1  0
 24 25  2  0
 25 26  1  0
 26 27  2  0
 11  7  1  0
 16 12  1  0
 27 17  1  0
 26 20  1  0
  3 28  1  0
  4 29  1  0
  4 30  1  0
  8 31  1  0
  8 32  1  0
  9 33  1  0
  9 34  1  0
 10 35  1  0
 10 36  1  0
 11 37  1  6
 14 38  1  0
 15 39  1  0
 18 40  1  0
 19 41  1  0
 21 42  1  0
 24 43  1  0
 25 44  1  0
M  END
>  <smiles>  (12) 
O=C(NCC(=O)N1CCC[C@@H]1c1ncco1)c1ccc2cc(Cl)ccc2n1

>  <score_type>  (12) 
oracle

>  <origin>  (12) 
autodockgpu

>  <m_score__min__energy>  (12) 
-7.7800000000000002

>  <m_primary>  (12) 
energy

>  <rmsd>  (12) 
8.080809578449623

>  <m_score__min__rmsd>  (12) 
8.080809578449623

>  <meeko>  (12) 
{"free_energy": -6.56, "intermolecular_energy": -8.06, "internal_energy": -2.28, "cluster_size": 12, "cluster_id": 4, "rank_in_cluster": 10}

>  <energy>  (12) 
-7.37

>  <cluster_rmsd>  (12) 
0.8

>  <cluster>  (12) 
2

$$$$

     RDKit          3D

 44 47  0  0  0  0  0  0  0  0999 V2000
  140.4280   72.5470  220.8810 O   0  0  0  0  0  0  0  0  0  0  0  0
  140.0390   72.8780  222.0420 C   0  0  0  0  0  0  0  0  0  0  0  0
  139.5750   74.2230  222.1840 N   0  0  0  0  0  0  0  0  0  0  0  0
  139.5930   75.0560  221.0180 C   0  0  0  0  0  0  0  0  0  0  0  0
  140.5610   76.1860  221.1480 C   0  0  0  0  0  0  0  0  0  0  0  0
  141.6380   76.2430  220.5030 O   0  0  0  0  0  0  0  0  0  0  0  0
  140.2560   77.2490  222.0390 N   0  0  0  0  0  0  0  0  0  0  0  0
  141.1810   77.7520  223.0670 C   0  0  0  0  0  0  0  0  0  0  0  0
  140.7460   79.2240  223.1240 C   0  0  0  0  0  0  0  0  0  0  0  0
  139.2460   79.0280  223.2030 C   0  0  0  0  0  0  0  0  0  0  0  0
  139.0280   78.0110  222.1010 C   0  0  2  0  0  0  0  0  0  0  0  0
  137.8360   77.1710  222.3540 C   0  0  0  0  0  0  0  0  0  0  0  0
  136.6070   77.2770  221.7840 N   0  0  0  0  0  0  0  0  0  0  0  0
  135.8180   76.3110  222.3010 C   0  0  0  0  0  0  0  0  0  0  0  0
  136.6190   75.6280  223.1980 C   0  0  0  0  0  0  0  0  0  0  0  0
  137.8290   76.1740  223.2020 O   0  0  0  0  0  0  0  0  0  0  0  0
  140.0580   71.9530  223.1690 C   0  0  0  0  0  0  0  0  0  0  0  0
  139.5020   70.7050  222.9740 C   0  0  0  0  0  0  0  0  0  0  0  0
  139.4830   69.7770  223.9950 C   0  0  0  0  0  0  0  0  0  0  0  0
  140.0240   70.0960  225.2220 C   0  0  0  0  0  0  0  0  0  0  0  0
  139.9970   69.1580  226.2280 C   0  0  0  0  0  0  0  0  0  0  0  0
  140.5420   69.4880  227.4550 C   0  0  0  0  0  0  0  0  0  0  0  0
  140.5160   68.3030  228.7480 Cl  0  0  0  0  0  0  0  0  0  0  0  0
  141.0930   70.7380  227.6280 C   0  0  0  0  0  0  0  0  0  0  0  0
  141.1080   71.6680  226.5990 C   0  0  0  0  0  0  0  0  0  0  0  0
  140.5700   71.3570  225.3700 C   0  0  0  0  0  0  0  0  0  0  0  0
  140.5850   72.2610  224.3680 N   0  0  0  0  0  0  0  0  0  0  0  0
  139.2380   74.5670  223.1110 H   0  0  0  0  0  0  0  0  0  0  0  0
  139.8774   74.4438  220.1494 H   0  0  0  0  0  0  0  0  0  0  0  0
  138.5877   75.4846  220.8931 H   0  0  0  0  0  0  0  0  0  0  0  0
  141.0327   77.2453  224.0320 H   0  0  0  0  0  0  0  0  0  0  0  0
  142.2470   77.5932  222.8472 H   0  0  0  0  0  0  0  0  0  0  0  0
  141.1419   79.7365  224.0132 H   0  0  0  0  0  0  0  0  0  0  0  0
  141.0967   79.8523  222.2920 H   0  0  0  0  0  0  0  0  0  0  0  0
  138.9415   78.6327  224.1833 H   0  0  0  0  0  0  0  0  0  0  0  0
  138.6615   79.9528  223.0883 H   0  0  0  0  0  0  0  0  0  0  0  0
  138.8160   78.4897  221.1336 H   0  0  0  0  0  0  0  0  0  0  0  0
  134.7636   76.1102  222.0602 H   0  0  0  0  0  0  0  0  0  0  0  0
  136.3040   74.7699  223.8100 H   0  0  0  0  0  0  0  0  0  0  0  0
  139.0700   70.4477  221.9956 H   0  0  0  0  0  0  0  0  0  0  0  0
  139.0372   68.7850  223.8301 H   0  0  0  0  0  0  0  0  0  0  0  0
  139.5513   68.1665  226.0597 H   0  0  0  0  0  0  0  0  0  0  0  0
  141.5300   71.0044  228.6017 H   0  0  0  0  0  0  0  0  0  0  0  0
  141.5525   72.6603  226.7657 H   0  0  0  0  0  0  0  0  0  0  0  0
  1  2  2  0
  2  3  1  0
  3  4  1  0
  4  5  1  0
  5  6  2  0
  5  7  1  0
  7  8  1  0
  8  9  1  0
  9 10  1  0
 10 11  1  0
 11 12  1  0
 12 13  2  0
 13 14  1  0
 14 15  2  0
 15 16  1  0
  2 17  1  0
 17 18  2  0
 18 19  1  0
 19 20  2  0
 20 21  1  0
 21 22  2  0
 22 23  1  0
 22 24  1  0
 24 25  2  0
 25 26  1  0
 26 27  2  0
 11  7  1  0
 16 12  1  0
 27 17  1  0
 26 20  1  0
  3 28  1  0
  4 29  1  0
  4 30  1  0
  8 31  1  0
  8 32  1  0
  9 33  1  0
  9 34  1  0
 10 35  1  0
 10 36  1  0
 11 37  1  6
 14 38  1  0
 15 39  1  0
 18 40  1  0
 19 41  1  0
 21 42  1  0
 24 43  1  0
 25 44  1  0
M  END
>  <smiles>  (13) 
O=C(NCC(=O)N1CCC[C@@H]1c1ncco1)c1ccc2cc(Cl)ccc2n1

>  <score_type>  (13) 
oracle

>  <origin>  (13) 
autodockgpu

>  <m_score__min__energy>  (13) 
-7.7800000000000002

>  <m_primary>  (13) 
energy

>  <rmsd>  (13) 
4.00795708587142

>  <m_score__min__rmsd>  (13) 
4.00795708587142

>  <meeko>  (13) 
{"free_energy": -6.94, "intermolecular_energy": -8.43, "internal_energy": -2.05, "cluster_size": 8, "cluster_id": 5, "rank_in_cluster": 2}

>  <energy>  (13) 
-7.28

>  <cluster_rmsd>  (13) 
0.86

>  <cluster>  (13) 
2

$$$$

     RDKit          3D

 44 47  0  0  0  0  0  0  0  0999 V2000
  139.9520   72.1730  220.7680 O   0  0  0  0  0  0  0  0  0  0  0  0
  139.6590   72.5150  221.9530 C   0  0  0  0  0  0  0  0  0  0  0  0
  139.1520   73.8430  222.1100 N   0  0  0  0  0  0  0  0  0  0  0  0
  139.0250   74.6480  220.9310 C   0  0  0  0  0  0  0  0  0  0  0  0
  139.7500   75.9470  221.0530 C   0  0  0  0  0  0  0  0  0  0  0  0
  139.2280   76.9800  221.5440 O   0  0  0  0  0  0  0  0  0  0  0  0
  141.0930   76.0270  220.5970 N   0  0  0  0  0  0  0  0  0  0  0  0
  142.0280   74.8920  220.5870 C   0  0  0  0  0  0  0  0  0  0  0  0
  142.8970   75.2700  219.3790 C   0  0  0  0  0  0  0  0  0  0  0  0
  143.1620   76.7220  219.7180 C   0  0  0  0  0  0  0  0  0  0  0  0
  141.7690   77.1950  220.0760 C   0  0  2  0  0  0  0  0  0  0  0  0
  141.7980   78.3240  221.0320 C   0  0  0  0  0  0  0  0  0  0  0  0
  141.7760   78.2650  222.3900 N   0  0  0  0  0  0  0  0  0  0  0  0
  141.8180   79.5280  222.8670 C   0  0  0  0  0  0  0  0  0  0  0  0
  141.8670   80.3390  221.7470 C   0  0  0  0  0  0  0  0  0  0  0  0
  141.8540   79.5770  220.6600 O   0  0  0  0  0  0  0  0  0  0  0  0
  139.8240   71.6210  223.0930 C   0  0  0  0  0  0  0  0  0  0  0  0
  139.4440   70.3050  222.9250 C   0  0  0  0  0  0  0  0  0  0  0  0
  139.5700   69.3990  223.9580 C   0  0  0  0  0  0  0  0  0  0  0  0
  140.0810   69.8100  225.1710 C   0  0  0  0  0  0  0  0  0  0  0  0
  140.1990   68.8940  226.1900 C   0  0  0  0  0  0  0  0  0  0  0  0
  140.7130   69.3160  227.4030 C   0  0  0  0  0  0  0  0  0  0  0  0
  140.8710   68.1600  228.7120 Cl  0  0  0  0  0  0  0  0  0  0  0  0
  141.0860   70.6330  227.5490 C   0  0  0  0  0  0  0  0  0  0  0  0
  140.9560   71.5390  226.5070 C   0  0  0  0  0  0  0  0  0  0  0  0
  140.4470   71.1370  225.2920 C   0  0  0  0  0  0  0  0  0  0  0  0
  140.3210   72.0180  224.2780 N   0  0  0  0  0  0  0  0  0  0  0  0
  138.8890   74.1970  223.0570 H   0  0  0  0  0  0  0  0  0  0  0  0
  139.4370   74.0915  220.0763 H   0  0  0  0  0  0  0  0  0  0  0  0
  137.9572   74.8700  220.7877 H   0  0  0  0  0  0  0  0  0  0  0  0
  142.6180   74.8415  221.5140 H   0  0  0  0  0  0  0  0  0  0  0  0
  141.5528   73.9020  220.5231 H   0  0  0  0  0  0  0  0  0  0  0  0
  143.8249   74.6806  219.3386 H   0  0  0  0  0  0  0  0  0  0  0  0
  142.4397   75.0914  218.3947 H   0  0  0  0  0  0  0  0  0  0  0  0
  143.8523   76.8185  220.5689 H   0  0  0  0  0  0  0  0  0  0  0  0
  143.6418   77.2954  218.9111 H   0  0  0  0  0  0  0  0  0  0  0  0
  141.2339   77.5992  219.2040 H   0  0  0  0  0  0  0  0  0  0  0  0
  141.8141   79.8442  223.9206 H   0  0  0  0  0  0  0  0  0  0  0  0
  141.9098   81.4381  221.7559 H   0  0  0  0  0  0  0  0  0  0  0  0
  139.0366   69.9751  221.9580 H   0  0  0  0  0  0  0  0  0  0  0  0
  139.2638   68.3523  223.8143 H   0  0  0  0  0  0  0  0  0  0  0  0
  139.8913   67.8481  226.0436 H   0  0  0  0  0  0  0  0  0  0  0  0
  141.4954   70.9737  228.5115 H   0  0  0  0  0  0  0  0  0  0  0  0
  141.2615   72.5857  226.6519 H   0  0  0  0  0  0  0  0  0  0  0  0
  1  2  2  0
  2  3  1  0
  3  4  1  0
  4  5  1  0
  5  6  2  0
  5  7  1  0
  7  8  1  0
  8  9  1  0
  9 10  1  0
 10 11  1  0
 11 12  1  0
 12 13  2  0
 13 14  1  0
 14 15  2  0
 15 16  1  0
  2 17  1  0
 17 18  2  0
 18 19  1  0
 19 20  2  0
 20 21  1  0
 21 22  2  0
 22 23  1  0
 22 24  1  0
 24 25  2  0
 25 26  1  0
 26 27  2  0
 11  7  1  0
 16 12  1  0
 27 17  1  0
 26 20  1  0
  3 28  1  0
  4 29  1  0
  4 30  1  0
  8 31  1  0
  8 32  1  0
  9 33  1  0
  9 34  1  0
 10 35  1  0
 10 36  1  0
 11 37  1  6
 14 38  1  0
 15 39  1  0
 18 40  1  0
 19 41  1  0
 21 42  1  0
 24 43  1  0
 25 44  1  0
M  END
>  <smiles>  (14) 
O=C(NCC(=O)N1CCC[C@@H]1c1ncco1)c1ccc2cc(Cl)ccc2n1

>  <score_type>  (14) 
oracle

>  <origin>  (14) 
autodockgpu

>  <m_score__min__energy>  (14) 
-7.7800000000000002

>  <m_primary>  (14) 
energy

>  <rmsd>  (14) 
2.0128327548815212

>  <m_score__min__rmsd>  (14) 
2.0128327548815212

>  <meeko>  (14) 
{"free_energy": -7.37, "intermolecular_energy": -8.86, "internal_energy": -1.39, "cluster_size": 6, "cluster_id": 2, "rank_in_cluster": 4}

>  <energy>  (14) 
-6.41

>  <cluster_rmsd>  (14) 
1.71

>  <cluster>  (14) 
2

$$$$

     RDKit          3D

 44 47  0  0  0  0  0  0  0  0999 V2000
  138.4750   77.5710  222.5260 O   0  0  0  0  0  0  0  0  0  0  0  0
  139.7010   77.8880  222.4660 C   0  0  0  0  0  0  0  0  0  0  0  0
  140.0760   79.0650  223.1850 N   0  0  0  0  0  0  0  0  0  0  0  0
  139.0460   79.7640  223.8960 C   0  0  0  0  0  0  0  0  0  0  0  0
  138.5260   80.9340  223.1290 C   0  0  0  0  0  0  0  0  0  0  0  0
  137.4860   81.5600  223.4540 O   0  0  0  0  0  0  0  0  0  0  0  0
  139.2350   81.3670  221.9760 N   0  0  0  0  0  0  0  0  0  0  0  0
  138.7760   81.1460  220.5960 C   0  0  0  0  0  0  0  0  0  0  0  0
  139.3740   82.3840  219.9120 C   0  0  0  0  0  0  0  0  0  0  0  0
  140.7790   82.3140  220.4740 C   0  0  0  0  0  0  0  0  0  0  0  0
  140.4930   82.0810  221.9430 C   0  0  2  0  0  0  0  0  0  0  0  0
  141.5930   81.3510  222.6100 C   0  0  0  0  0  0  0  0  0  0  0  0
  142.5430   80.5690  222.0320 N   0  0  0  0  0  0  0  0  0  0  0  0
  143.3500   80.0970  223.0070 C   0  0  0  0  0  0  0  0  0  0  0  0
  142.8480   80.6250  224.1830 C   0  0  0  0  0  0  0  0  0  0  0  0
  141.7890   81.3760  223.9040 O   0  0  0  0  0  0  0  0  0  0  0  0
  140.6770   77.1090  221.7140 C   0  0  0  0  0  0  0  0  0  0  0  0
  141.5010   77.7950  220.8440 C   0  0  0  0  0  0  0  0  0  0  0  0
  142.4490   77.1260  220.0980 C   0  0  0  0  0  0  0  0  0  0  0  0
  142.5780   75.7590  220.2210 C   0  0  0  0  0  0  0  0  0  0  0  0
  143.5300   75.1080  219.4700 C   0  0  0  0  0  0  0  0  0  0  0  0
  143.6510   73.7370  219.6010 C   0  0  0  0  0  0  0  0  0  0  0  0
  144.8590   72.8920  218.6510 Cl  0  0  0  0  0  0  0  0  0  0  0  0
  142.8200   73.0710  220.4750 C   0  0  0  0  0  0  0  0  0  0  0  0
  141.8680   73.7490  221.2210 C   0  0  0  0  0  0  0  0  0  0  0  0
  141.7330   75.1150  221.1050 C   0  0  0  0  0  0  0  0  0  0  0  0
  140.8070   75.7750  221.8310 N   0  0  0  0  0  0  0  0  0  0  0  0
  141.0690   79.3890  223.1820 H   0  0  0  0  0  0  0  0  0  0  0  0
  138.2151   79.0695  224.0893 H   0  0  0  0  0  0  0  0  0  0  0  0
  139.4793   80.1408  224.8342 H   0  0  0  0  0  0  0  0  0  0  0  0
  139.1801   80.2130  220.1762 H   0  0  0  0  0  0  0  0  0  0  0  0
  137.6874   81.0358  220.4828 H   0  0  0  0  0  0  0  0  0  0  0  0
  139.3639   82.2941  218.8157 H   0  0  0  0  0  0  0  0  0  0  0  0
  138.8395   83.3280  220.0941 H   0  0  0  0  0  0  0  0  0  0  0  0
  141.3478   81.4804  220.0363 H   0  0  0  0  0  0  0  0  0  0  0  0
  141.3941   83.2023  220.2677 H   0  0  0  0  0  0  0  0  0  0  0  0
  140.4216   83.0241  222.5046 H   0  0  0  0  0  0  0  0  0  0  0  0
  144.2203   79.4344  222.8907 H   0  0  0  0  0  0  0  0  0  0  0  0
  143.2600   80.4507  225.1879 H   0  0  0  0  0  0  0  0  0  0  0  0
  141.4005   78.8859  220.7448 H   0  0  0  0  0  0  0  0  0  0  0  0
  143.1001   77.6816  219.4071 H   0  0  0  0  0  0  0  0  0  0  0  0
  144.1804   75.6663  218.7806 H   0  0  0  0  0  0  0  0  0  0  0  0
  142.9136   71.9803  220.5831 H   0  0  0  0  0  0  0  0  0  0  0  0
  141.2160   73.1923  221.9102 H   0  0  0  0  0  0  0  0  0  0  0  0
  1  2  2  0
  2  3  1  0
  3  4  1  0
  4  5  1  0
  5  6  2  0
  5  7  1  0
  7  8  1  0
  8  9  1  0
  9 10  1  0
 10 11  1  0
 11 12  1  0
 12 13  2  0
 13 14  1  0
 14 15  2  0
 15 16  1  0
  2 17  1  0
 17 18  2  0
 18 19  1  0
 19 20  2  0
 20 21  1  0
 21 22  2  0
 22 23  1  0
 22 24  1  0
 24 25  2  0
 25 26  1  0
 26 27  2  0
 11  7  1  0
 16 12  1  0
 27 17  1  0
 26 20  1  0
  3 28  1  0
  4 29  1  0
  4 30  1  0
  8 31  1  0
  8 32  1  0
  9 33  1  0
  9 34  1  0
 10 35  1  0
 10 36  1  0
 11 37  1  1
 14 38  1  0
 15 39  1  0
 18 40  1  0
 19 41  1  0
 21 42  1  0
 24 43  1  0
 25 44  1  0
M  END
>  <smiles>  (15) 
O=C(NCC(=O)N1CCC[C@@H]1c1ncco1)c1ccc2cc(Cl)ccc2n1

>  <score_type>  (15) 
oracle

>  <origin>  (15) 
autodockgpu

>  <m_score__min__energy>  (15) 
-7.7800000000000002

>  <m_primary>  (15) 
energy

>  <rmsd>  (15) 
7.164574770333755

>  <m_score__min__rmsd>  (15) 
7.164574770333755

>  <meeko>  (15) 
{"free_energy": -5.55, "intermolecular_energy": -7.04, "internal_energy": -2.89, "cluster_size": 1, "cluster_id": 10, "rank_in_cluster": 1}

>  <energy>  (15) 
-7.27

>  <cluster_rmsd>  (15) 
0.0

>  <cluster>  (15) 
3

$$$$

     RDKit          3D

 44 47  0  0  0  0  0  0  0  0999 V2000
  141.1820   71.1560  221.7050 O   0  0  0  0  0  0  0  0  0  0  0  0
  140.4330   72.0800  222.1440 C   0  0  0  0  0  0  0  0  0  0  0  0
  139.3370   71.6580  222.9590 N   0  0  0  0  0  0  0  0  0  0  0  0
  139.1910   70.2530  223.1980 C   0  0  0  0  0  0  0  0  0  0  0  0
  138.6700   69.9640  224.5670 C   0  0  0  0  0  0  0  0  0  0  0  0
  137.5750   70.4120  224.9920 O   0  0  0  0  0  0  0  0  0  0  0  0
  139.4400   69.1450  225.4350 N   0  0  0  0  0  0  0  0  0  0  0  0
  138.9980   67.8370  225.9410 C   0  0  0  0  0  0  0  0  0  0  0  0
  140.3540   67.1310  226.0860 C   0  0  0  0  0  0  0  0  0  0  0  0
  141.1180   68.2250  226.8050 C   0  0  0  0  0  0  0  0  0  0  0  0
  140.7560   69.4320  225.9650 C   0  0  2  0  0  0  0  0  0  0  0  0
  140.8050   70.6840  226.7510 C   0  0  0  0  0  0  0  0  0  0  0  0
  140.0610   71.0130  227.8400 N   0  0  0  0  0  0  0  0  0  0  0  0
  140.4290   72.2490  228.2430 C   0  0  0  0  0  0  0  0  0  0  0  0
  141.4160   72.6430  227.3570 C   0  0  0  0  0  0  0  0  0  0  0  0
  141.6160   71.6740  226.4720 O   0  0  0  0  0  0  0  0  0  0  0  0
  140.6650   73.4880  221.8450 C   0  0  0  0  0  0  0  0  0  0  0  0
  141.7300   73.7930  221.0220 C   0  0  0  0  0  0  0  0  0  0  0  0
  142.0120   75.1040  220.6940 C   0  0  0  0  0  0  0  0  0  0  0  0
  141.2240   76.1190  221.1910 C   0  0  0  0  0  0  0  0  0  0  0  0
  141.5200   77.4200  220.8540 C   0  0  0  0  0  0  0  0  0  0  0  0
  140.7230   78.4320  221.3580 C   0  0  0  0  0  0  0  0  0  0  0  0
  141.0860   80.0950  220.9380 Cl  0  0  0  0  0  0  0  0  0  0  0  0
  139.6660   78.1050  222.1780 C   0  0  0  0  0  0  0  0  0  0  0  0
  139.3870   76.7860  222.5050 C   0  0  0  0  0  0  0  0  0  0  0  0
  140.1700   75.7650  222.0110 C   0  0  0  0  0  0  0  0  0  0  0  0
  139.8990   74.4820  222.3290 N   0  0  0  0  0  0  0  0  0  0  0  0
  138.6770   72.3630  223.3580 H   0  0  0  0  0  0  0  0  0  0  0  0
  138.4905   69.8389  222.4578 H   0  0  0  0  0  0  0  0  0  0  0  0
  140.1855   69.7910  223.1111 H   0  0  0  0  0  0  0  0  0  0  0  0
  138.4802   67.9275  226.9072 H   0  0  0  0  0  0  0  0  0  0  0  0
  138.2717   67.3153  225.3004 H   0  0  0  0  0  0  0  0  0  0  0  0
  140.2791   66.2151  226.6905 H   0  0  0  0  0  0  0  0  0  0  0  0
  140.8056   66.7786  225.1469 H   0  0  0  0  0  0  0  0  0  0  0  0
  140.7768   68.3395  227.8445 H   0  0  0  0  0  0  0  0  0  0  0  0
  142.1991   68.0409  226.8913 H   0  0  0  0  0  0  0  0  0  0  0  0
  141.4764   69.6003  225.1509 H   0  0  0  0  0  0  0  0  0  0  0  0
  140.0292   72.8201  229.0939 H   0  0  0  0  0  0  0  0  0  0  0  0
  141.9493   73.6047  227.3819 H   0  0  0  0  0  0  0  0  0  0  0  0
  142.3600   72.9840  220.6237 H   0  0  0  0  0  0  0  0  0  0  0  0
  142.8633   75.3375  220.0378 H   0  0  0  0  0  0  0  0  0  0  0  0
  142.3723   77.6503  220.1978 H   0  0  0  0  0  0  0  0  0  0  0  0
  139.0298   78.9063  222.5820 H   0  0  0  0  0  0  0  0  0  0  0  0
  138.5361   76.5537  223.1623 H   0  0  0  0  0  0  0  0  0  0  0  0
  1  2  2  0
  2  3  1  0
  3  4  1  0
  4  5  1  0
  5  6  2  0
  5  7  1  0
  7  8  1  0
  8  9  1  0
  9 10  1  0
 10 11  1  0
 11 12  1  0
 12 13  2  0
 13 14  1  0
 14 15  2  0
 15 16  1  0
  2 17  1  0
 17 18  2  0
 18 19  1  0
 19 20  2  0
 20 21  1  0
 21 22  2  0
 22 23  1  0
 22 24  1  0
 24 25  2  0
 25 26  1  0
 26 27  2  0
 11  7  1  0
 16 12  1  0
 27 17  1  0
 26 20  1  0
  3 28  1  0
  4 29  1  0
  4 30  1  0
  8 31  1  0
  8 32  1  0
  9 33  1  0
  9 34  1  0
 10 35  1  0
 10 36  1  0
 11 37  1  6
 14 38  1  0
 15 39  1  0
 18 40  1  0
 19 41  1  0
 21 42  1  0
 24 43  1  0
 25 44  1  0
M  END
>  <smiles>  (16) 
O=C(NCC(=O)N1CCC[C@@H]1c1ncco1)c1ccc2cc(Cl)ccc2n1

>  <score_type>  (16) 
oracle

>  <origin>  (16) 
autodockgpu

>  <m_score__min__energy>  (16) 
-7.7800000000000002

>  <m_primary>  (16) 
energy

>  <rmsd>  (16) 
8.632984315418671

>  <m_score__min__rmsd>  (16) 
8.632984315418671

>  <meeko>  (16) 
{"free_energy": -7.49, "intermolecular_energy": -8.98, "internal_energy": -1.61, "cluster_size": 8, "cluster_id": 1, "rank_in_cluster": 7}

>  <energy>  (16) 
-7.26

>  <cluster_rmsd>  (16) 
0.35

>  <cluster>  (16) 
3

$$$$

     RDKit          3D

 44 47  0  0  0  0  0  0  0  0999 V2000
  135.0760   68.5320  224.8860 O   0  0  0  0  0  0  0  0  0  0  0  0
  135.3760   69.7270  224.5880 C   0  0  0  0  0  0  0  0  0  0  0  0
  136.4000   69.8840  223.6020 N   0  0  0  0  0  0  0  0  0  0  0  0
  136.9790   68.6950  223.0530 C   0  0  0  0  0  0  0  0  0  0  0  0
  138.4240   68.5570  223.4040 C   0  0  0  0  0  0  0  0  0  0  0  0
  139.1880   67.7260  222.8510 O   0  0  0  0  0  0  0  0  0  0  0  0
  138.9680   69.4020  224.4080 N   0  0  0  0  0  0  0  0  0  0  0  0
  138.6150   69.3180  225.8340 C   0  0  0  0  0  0  0  0  0  0  0  0
  139.9340   69.7880  226.4650 C   0  0  0  0  0  0  0  0  0  0  0  0
  140.1830   71.0160  225.6140 C   0  0  0  0  0  0  0  0  0  0  0  0
  139.9350   70.4630  224.2260 C   0  0  2  0  0  0  0  0  0  0  0  0
  139.4770   71.5110  223.2890 C   0  0  0  0  0  0  0  0  0  0  0  0
  140.1950   72.5500  222.7860 N   0  0  0  0  0  0  0  0  0  0  0  0
  139.3900   73.2620  221.9690 C   0  0  0  0  0  0  0  0  0  0  0  0
  138.1700   72.6120  222.0020 C   0  0  0  0  0  0  0  0  0  0  0  0
  138.2600   71.5610  222.8080 O   0  0  0  0  0  0  0  0  0  0  0  0
  134.7250   70.8770  225.2040 C   0  0  0  0  0  0  0  0  0  0  0  0
  133.7820   70.6240  226.1790 C   0  0  0  0  0  0  0  0  0  0  0  0
  133.1240   71.6620  226.8070 C   0  0  0  0  0  0  0  0  0  0  0  0
  133.4110   72.9650  226.4600 C   0  0  0  0  0  0  0  0  0  0  0  0
  132.7450   73.9870  227.0960 C   0  0  0  0  0  0  0  0  0  0  0  0
  133.0400   75.2900  226.7410 C   0  0  0  0  0  0  0  0  0  0  0  0
  132.2010   76.6040  227.5430 Cl  0  0  0  0  0  0  0  0  0  0  0  0
  133.9850   75.5210  225.7670 C   0  0  0  0  0  0  0  0  0  0  0  0
  134.6430   74.4740  225.1380 C   0  0  0  0  0  0  0  0  0  0  0  0
  134.3630   73.1690  225.4790 C   0  0  0  0  0  0  0  0  0  0  0  0
  135.0030   72.1500  224.8680 N   0  0  0  0  0  0  0  0  0  0  0  0
  136.7000   70.8400  223.3040 H   0  0  0  0  0  0  0  0  0  0  0  0
  136.4346   67.8228  223.4440 H   0  0  0  0  0  0  0  0  0  0  0  0
  136.9021   68.7568  221.9574 H   0  0  0  0  0  0  0  0  0  0  0  0
  137.7800   69.9876  226.0877 H   0  0  0  0  0  0  0  0  0  0  0  0
  138.2692   68.3285  226.1676 H   0  0  0  0  0  0  0  0  0  0  0  0
  139.8146   70.0413  227.5288 H   0  0  0  0  0  0  0  0  0  0  0  0
  140.7454   69.0453  226.4707 H   0  0  0  0  0  0  0  0  0  0  0  0
  139.4792   71.8255  225.8577 H   0  0  0  0  0  0  0  0  0  0  0  0
  141.1767   71.4676  225.7506 H   0  0  0  0  0  0  0  0  0  0  0  0
  140.8559   70.0777  223.7640 H   0  0  0  0  0  0  0  0  0  0  0  0
  139.6493   74.1662  221.3988 H   0  0  0  0  0  0  0  0  0  0  0  0
  137.2693   72.9169  221.4490 H   0  0  0  0  0  0  0  0  0  0  0  0
  133.5525   69.5851  226.4584 H   0  0  0  0  0  0  0  0  0  0  0  0
  132.3728   71.4503  227.5821 H   0  0  0  0  0  0  0  0  0  0  0  0
  131.9939   73.7720  227.8703 H   0  0  0  0  0  0  0  0  0  0  0  0
  134.2232   76.5563  225.4817 H   0  0  0  0  0  0  0  0  0  0  0  0
  135.3930   74.6873  224.3621 H   0  0  0  0  0  0  0  0  0  0  0  0
  1  2  2  0
  2  3  1  0
  3  4  1  0
  4  5  1  0
  5  6  2  0
  5  7  1  0
  7  8  1  0
  8  9  1  0
  9 10  1  0
 10 11  1  0
 11 12  1  0
 12 13  2  0
 13 14  1  0
 14 15  2  0
 15 16  1  0
  2 17  1  0
 17 18  2  0
 18 19  1  0
 19 20  2  0
 20 21  1  0
 21 22  2  0
 22 23  1  0
 22 24  1  0
 24 25  2  0
 25 26  1  0
 26 27  2  0
 11  7  1  0
 16 12  1  0
 27 17  1  0
 26 20  1  0
  3 28  1  0
  4 29  1  0
  4 30  1  0
  8 31  1  0
  8 32  1  0
  9 33  1  0
  9 34  1  0
 10 35  1  0
 10 36  1  0
 11 37  1  6
 14 38  1  0
 15 39  1  0
 18 40  1  0
 19 41  1  0
 21 42  1  0
 24 43  1  0
 25 44  1  0
M  END
>  <smiles>  (17) 
O=C(NCC(=O)N1CCC[C@@H]1c1ncco1)c1ccc2cc(Cl)ccc2n1

>  <score_type>  (17) 
oracle

>  <origin>  (17) 
autodockgpu

>  <m_score__min__energy>  (17) 
-7.7800000000000002

>  <m_primary>  (17) 
energy

>  <rmsd>  (17) 
7.738353159263791

>  <m_score__min__rmsd>  (17) 
7.738353159263791

>  <meeko>  (17) 
{"free_energy": -6.09, "intermolecular_energy": -7.58, "internal_energy": -2.61, "cluster_size": 12, "cluster_id": 4, "rank_in_cluster": 12}

>  <energy>  (17) 
-7.26

>  <cluster_rmsd>  (17) 
0.34

>  <cluster>  (17) 
3

$$$$

     RDKit          3D

 44 47  0  0  0  0  0  0  0  0999 V2000
  140.4210   72.5980  220.8790 O   0  0  0  0  0  0  0  0  0  0  0  0
  139.8210   72.8050  221.9760 C   0  0  0  0  0  0  0  0  0  0  0  0
  139.0270   73.9940  222.0360 N   0  0  0  0  0  0  0  0  0  0  0  0
  138.9880   74.8240  220.8690 C   0  0  0  0  0  0  0  0  0  0  0  0
  140.0610   75.8610  220.8770 C   0  0  0  0  0  0  0  0  0  0  0  0
  141.0460   75.8350  220.0970 O   0  0  0  0  0  0  0  0  0  0  0  0
  139.9730   76.9310  221.8070 N   0  0  0  0  0  0  0  0  0  0  0  0
  141.0600   77.3230  222.7170 C   0  0  0  0  0  0  0  0  0  0  0  0
  140.7800   78.8280  222.8390 C   0  0  0  0  0  0  0  0  0  0  0  0
  139.2890   78.7740  223.1010 C   0  0  0  0  0  0  0  0  0  0  0  0
  138.8400   77.8040  222.0280 C   0  0  2  0  0  0  0  0  0  0  0  0
  137.6140   77.0770  222.4200 C   0  0  0  0  0  0  0  0  0  0  0  0
  136.3500   77.2640  221.9550 N   0  0  0  0  0  0  0  0  0  0  0  0
  135.5370   76.3860  222.5810 C   0  0  0  0  0  0  0  0  0  0  0  0
  136.3590   75.6710  223.4330 C   0  0  0  0  0  0  0  0  0  0  0  0
  137.6040   76.1150  223.3080 O   0  0  0  0  0  0  0  0  0  0  0  0
  139.9230   71.8970  223.1120 C   0  0  0  0  0  0  0  0  0  0  0  0
  139.4860   70.6010  222.9280 C   0  0  0  0  0  0  0  0  0  0  0  0
  139.5510   69.6840  223.9570 C   0  0  0  0  0  0  0  0  0  0  0  0
  140.0590   70.0630  225.1810 C   0  0  0  0  0  0  0  0  0  0  0  0
  140.1160   69.1350  226.1960 C   0  0  0  0  0  0  0  0  0  0  0  0
  140.6270   69.5260  227.4200 C   0  0  0  0  0  0  0  0  0  0  0  0
  140.7080   68.3560  228.7230 Cl  0  0  0  0  0  0  0  0  0  0  0  0
  141.0580   70.8230  227.5820 C   0  0  0  0  0  0  0  0  0  0  0  0
  140.9890   71.7410  226.5450 C   0  0  0  0  0  0  0  0  0  0  0  0
  140.4840   71.3700  225.3180 C   0  0  0  0  0  0  0  0  0  0  0  0
  140.4180   72.2630  224.3080 N   0  0  0  0  0  0  0  0  0  0  0  0
  138.5030   74.2320  222.9080 H   0  0  0  0  0  0  0  0  0  0  0  0
  139.1152   74.1899  219.9792 H   0  0  0  0  0  0  0  0  0  0  0  0
  138.0181   75.3427  220.8565 H   0  0  0  0  0  0  0  0  0  0  0  0
  140.9818   76.8136  223.6888 H   0  0  0  0  0  0  0  0  0  0  0  0
  142.0709   77.0679  222.3664 H   0  0  0  0  0  0  0  0  0  0  0  0
  141.3293   79.2827  223.6766 H   0  0  0  0  0  0  0  0  0  0  0  0
  141.0857   79.4366  221.9752 H   0  0  0  0  0  0  0  0  0  0  0  0
  139.0698   78.3911  224.1086 H   0  0  0  0  0  0  0  0  0  0  0  0
  138.7874   79.7523  223.0655 H   0  0  0  0  0  0  0  0  0  0  0  0
  138.5569   78.3189  221.0981 H   0  0  0  0  0  0  0  0  0  0  0  0
  134.4524   76.2653  222.4427 H   0  0  0  0  0  0  0  0  0  0  0  0
  136.0336   74.8641  224.1061 H   0  0  0  0  0  0  0  0  0  0  0  0
  139.0819   70.2960  221.9514 H   0  0  0  0  0  0  0  0  0  0  0  0
  139.1985   68.6537  223.8010 H   0  0  0  0  0  0  0  0  0  0  0  0
  139.7630   68.1054  226.0370 H   0  0  0  0  0  0  0  0  0  0  0  0
  141.4656   71.1378  228.5540 H   0  0  0  0  0  0  0  0  0  0  0  0
  141.3396   72.7716  226.7030 H   0  0  0  0  0  0  0  0  0  0  0  0
  1  2  2  0
  2  3  1  0
  3  4  1  0
  4  5  1  0
  5  6  2  0
  5  7  1  0
  7  8  1  0
  8  9  1  0
  9 10  1  0
 10 11  1  0
 11 12  1  0
 12 13  2  0
 13 14  1  0
 14 15  2  0
 15 16  1  0
  2 17  1  0
 17 18  2  0
 18 19  1  0
 19 20  2  0
 20 21  1  0
 21 22  2  0
 22 23  1  0
 22 24  1  0
 24 25  2  0
 25 26  1  0
 26 27  2  0
 11  7  1  0
 16 12  1  0
 27 17  1  0
 26 20  1  0
  3 28  1  0
  4 29  1  0
  4 30  1  0
  8 31  1  0
  8 32  1  0
  9 33  1  0
  9 34  1  0
 10 35  1  0
 10 36  1  0
 11 37  1  6
 14 38  1  0
 15 39  1  0
 18 40  1  0
 19 41  1  0
 21 42  1  0
 24 43  1  0
 25 44  1  0
M  END
>  <smiles>  (18) 
O=C(NCC(=O)N1CCC[C@@H]1c1ncco1)c1ccc2cc(Cl)ccc2n1

>  <score_type>  (18) 
oracle

>  <origin>  (18) 
autodockgpu

>  <m_score__min__energy>  (18) 
-7.7800000000000002

>  <m_primary>  (18) 
energy

>  <rmsd>  (18) 
3.8911073295643503

>  <m_score__min__rmsd>  (18) 
3.8911073295643503

>  <meeko>  (18) 
{"free_energy": -6.93, "intermolecular_energy": -8.42, "internal_energy": -2.07, "cluster_size": 8, "cluster_id": 5, "rank_in_cluster": 3}

>  <energy>  (18) 
-7.08

>  <cluster_rmsd>  (18) 
0.41

>  <cluster>  (18) 
3

$$$$

     RDKit          3D

 44 47  0  0  0  0  0  0  0  0999 V2000
  135.2240   68.5640  224.7640 O   0  0  0  0  0  0  0  0  0  0  0  0
  135.6620   69.7410  224.9440 C   0  0  0  0  0  0  0  0  0  0  0  0
  137.0240   69.9630  224.5680 N   0  0  0  0  0  0  0  0  0  0  0  0
  137.7530   68.8520  224.0320 C   0  0  0  0  0  0  0  0  0  0  0  0
  138.9090   68.4660  224.8940 C   0  0  0  0  0  0  0  0  0  0  0  0
  139.3190   67.2830  225.0020 O   0  0  0  0  0  0  0  0  0  0  0  0
  139.5820   69.4780  225.6290 N   0  0  0  0  0  0  0  0  0  0  0  0
  139.3190   69.7810  227.0440 C   0  0  0  0  0  0  0  0  0  0  0  0
  140.7090   70.2680  227.4790 C   0  0  0  0  0  0  0  0  0  0  0  0
  140.9970   71.2200  226.3360 C   0  0  0  0  0  0  0  0  0  0  0  0
  140.6150   70.3680  225.1440 C   0  0  2  0  0  0  0  0  0  0  0  0
  140.1800   71.1910  223.9950 C   0  0  0  0  0  0  0  0  0  0  0  0
  140.9540   71.7260  223.0140 N   0  0  0  0  0  0  0  0  0  0  0  0
  140.1500   72.4030  222.1660 C   0  0  0  0  0  0  0  0  0  0  0  0
  138.8730   72.2530  222.6750 C   0  0  0  0  0  0  0  0  0  0  0  0
  138.9310   71.5150  223.7780 O   0  0  0  0  0  0  0  0  0  0  0  0
  134.8390   70.8090  225.4980 C   0  0  0  0  0  0  0  0  0  0  0  0
  133.8320   70.4450  226.3680 C   0  0  0  0  0  0  0  0  0  0  0  0
  133.0110   71.4000  226.9330 C   0  0  0  0  0  0  0  0  0  0  0  0
  133.1980   72.7310  226.6270 C   0  0  0  0  0  0  0  0  0  0  0  0
  132.3710   73.6700  227.1990 C   0  0  0  0  0  0  0  0  0  0  0  0
  132.5660   75.0030  226.8860 C   0  0  0  0  0  0  0  0  0  0  0  0
  131.5210   76.2120  227.6060 Cl  0  0  0  0  0  0  0  0  0  0  0  0
  133.5770   75.3440  226.0150 C   0  0  0  0  0  0  0  0  0  0  0  0
  134.3980   74.3800  225.4500 C   0  0  0  0  0  0  0  0  0  0  0  0
  134.2190   73.0470  225.7510 C   0  0  0  0  0  0  0  0  0  0  0  0
  135.0180   72.1090  225.2020 N   0  0  0  0  0  0  0  0  0  0  0  0
  137.4540   70.9070  224.6870 H   0  0  0  0  0  0  0  0  0  0  0  0
  137.0734   67.9914  223.9450 H   0  0  0  0  0  0  0  0  0  0  0  0
  138.1493   69.1508  223.0503 H   0  0  0  0  0  0  0  0  0  0  0  0
  138.5577   70.5667  227.1580 H   0  0  0  0  0  0  0  0  0  0  0  0
  138.9198   68.9400  227.6301 H   0  0  0  0  0  0  0  0  0  0  0  0
  140.6794   70.7857  228.4491 H   0  0  0  0  0  0  0  0  0  0  0  0
  141.4584   69.4783  227.6363 H   0  0  0  0  0  0  0  0  0  0  0  0
  140.3768   72.1263  226.3996 H   0  0  0  0  0  0  0  0  0  0  0  0
  142.0301   71.5969  226.3104 H   0  0  0  0  0  0  0  0  0  0  0  0
  141.4703   69.7973  224.7531 H   0  0  0  0  0  0  0  0  0  0  0  0
  140.4475   72.9559  221.2628 H   0  0  0  0  0  0  0  0  0  0  0  0
  137.9570   72.6764  222.2372 H   0  0  0  0  0  0  0  0  0  0  0  0
  133.6819   69.3834  226.6138 H   0  0  0  0  0  0  0  0  0  0  0  0
  132.2103   71.1000  227.6250 H   0  0  0  0  0  0  0  0  0  0  0  0
  131.5714   73.3669  227.8909 H   0  0  0  0  0  0  0  0  0  0  0  0
  133.7364   76.4027  225.7625 H   0  0  0  0  0  0  0  0  0  0  0  0
  135.1974   74.6811  224.7570 H   0  0  0  0  0  0  0  0  0  0  0  0
  1  2  2  0
  2  3  1  0
  3  4  1  0
  4  5  1  0
  5  6  2  0
  5  7  1  0
  7  8  1  0
  8  9  1  0
  9 10  1  0
 10 11  1  0
 11 12  1  0
 12 13  2  0
 13 14  1  0
 14 15  2  0
 15 16  1  0
  2 17  1  0
 17 18  2  0
 18 19  1  0
 19 20  2  0
 20 21  1  0
 21 22  2  0
 22 23  1  0
 22 24  1  0
 24 25  2  0
 25 26  1  0
 26 27  2  0
 11  7  1  0
 16 12  1  0
 27 17  1  0
 26 20  1  0
  3 28  1  0
  4 29  1  0
  4 30  1  0
  8 31  1  0
  8 32  1  0
  9 33  1  0
  9 34  1  0
 10 35  1  0
 10 36  1  0
 11 37  1  6
 14 38  1  0
 15 39  1  0
 18 40  1  0
 19 41  1  0
 21 42  1  0
 24 43  1  0
 25 44  1  0
M  END
>  <smiles>  (19) 
O=C(NCC(=O)N1CCC[C@@H]1c1ncco1)c1ccc2cc(Cl)ccc2n1

>  <score_type>  (19) 
oracle

>  <origin>  (19) 
autodockgpu

>  <m_score__min__energy>  (19) 
-7.7800000000000002

>  <m_primary>  (19) 
energy

>  <rmsd>  (19) 
8.03813176459843

>  <m_score__min__rmsd>  (19) 
8.03813176459843

>  <meeko>  (19) 
{"free_energy": -7.06, "intermolecular_energy": -8.55, "internal_energy": -2.28, "cluster_size": 12, "cluster_id": 4, "rank_in_cluster": 7}

>  <energy>  (19) 
-7.12

>  <cluster_rmsd>  (19) 
0.0

>  <cluster>  (19) 
4

$$$$

     RDKit          3D

 44 47  0  0  0  0  0  0  0  0999 V2000
  135.1680   68.5950  224.7770 O   0  0  0  0  0  0  0  0  0  0  0  0
  135.5800   69.7940  224.8170 C   0  0  0  0  0  0  0  0  0  0  0  0
  136.8700   70.0270  224.2450 N   0  0  0  0  0  0  0  0  0  0  0  0
  137.5620   68.9020  223.6890 C   0  0  0  0  0  0  0  0  0  0  0  0
  138.7480   68.5100  224.5050 C   0  0  0  0  0  0  0  0  0  0  0  0
  139.2350   67.3510  224.4960 O   0  0  0  0  0  0  0  0  0  0  0  0
  139.3630   69.4870  225.3340 N   0  0  0  0  0  0  0  0  0  0  0  0
  139.0400   69.6810  226.7560 C   0  0  0  0  0  0  0  0  0  0  0  0
  140.3980   70.1770  227.2750 C   0  0  0  0  0  0  0  0  0  0  0  0
  140.6960   71.2160  226.2130 C   0  0  0  0  0  0  0  0  0  0  0  0
  140.3840   70.4390  224.9510 C   0  0  2  0  0  0  0  0  0  0  0  0
  139.9630   71.3270  223.8460 C   0  0  0  0  0  0  0  0  0  0  0  0
  140.7570   71.9940  222.9670 N   0  0  0  0  0  0  0  0  0  0  0  0
  139.9610   72.6880  222.1240 C   0  0  0  0  0  0  0  0  0  0  0  0
  138.6690   72.4120  222.5330 C   0  0  0  0  0  0  0  0  0  0  0  0
  138.7100   71.5880  223.5730 O   0  0  0  0  0  0  0  0  0  0  0  0
  134.7990   70.8740  225.4060 C   0  0  0  0  0  0  0  0  0  0  0  0
  133.7890   70.5230  226.2780 C   0  0  0  0  0  0  0  0  0  0  0  0
  133.0060   71.4900  226.8740 C   0  0  0  0  0  0  0  0  0  0  0  0
  133.2340   72.8220  226.5990 C   0  0  0  0  0  0  0  0  0  0  0  0
  132.4450   73.7730  227.2030 C   0  0  0  0  0  0  0  0  0  0  0  0
  132.6810   75.1050  226.9200 C   0  0  0  0  0  0  0  0  0  0  0  0
  131.6840   76.3300  227.6810 Cl  0  0  0  0  0  0  0  0  0  0  0  0
  133.6950   75.4350  226.0470 C   0  0  0  0  0  0  0  0  0  0  0  0
  134.4770   74.4580  225.4500 C   0  0  0  0  0  0  0  0  0  0  0  0
  134.2560   73.1250  225.7200 C   0  0  0  0  0  0  0  0  0  0  0  0
  135.0180   72.1750  225.1390 N   0  0  0  0  0  0  0  0  0  0  0  0
  137.2760   70.9890  224.2410 H   0  0  0  0  0  0  0  0  0  0  0  0
  136.8690   68.0492  223.6390 H   0  0  0  0  0  0  0  0  0  0  0  0
  137.9197   69.1865  222.6885 H   0  0  0  0  0  0  0  0  0  0  0  0
  138.2502   70.4338  226.8958 H   0  0  0  0  0  0  0  0  0  0  0  0
  138.6472   68.7895  227.2669 H   0  0  0  0  0  0  0  0  0  0  0  0
  140.3179   70.6235  228.2771 H   0  0  0  0  0  0  0  0  0  0  0  0
  141.1662   69.4003  227.4040 H   0  0  0  0  0  0  0  0  0  0  0  0
  140.0452   72.0968  226.3161 H   0  0  0  0  0  0  0  0  0  0  0  0
  141.7166   71.6245  226.2527 H   0  0  0  0  0  0  0  0  0  0  0  0
  141.2710   69.9233  224.5543 H   0  0  0  0  0  0  0  0  0  0  0  0
  140.2737   73.3343  221.2906 H   0  0  0  0  0  0  0  0  0  0  0  0
  137.7542   72.8112  222.0707 H   0  0  0  0  0  0  0  0  0  0  0  0
  133.6062   69.4613  226.5003 H   0  0  0  0  0  0  0  0  0  0  0  0
  132.2022   71.1994  227.5665 H   0  0  0  0  0  0  0  0  0  0  0  0
  131.6432   73.4796  227.8966 H   0  0  0  0  0  0  0  0  0  0  0  0
  133.8877   76.4938  225.8194 H   0  0  0  0  0  0  0  0  0  0  0  0
  135.2793   74.7490  224.7561 H   0  0  0  0  0  0  0  0  0  0  0  0
  1  2  2  0
  2  3  1  0
  3  4  1  0
  4  5  1  0
  5  6  2  0
  5  7  1  0
  7  8  1  0
  8  9  1  0
  9 10  1  0
 10 11  1  0
 11 12  1  0
 12 13  2  0
 13 14  1  0
 14 15  2  0
 15 16  1  0
  2 17  1  0
 17 18  2  0
 18 19  1  0
 19 20  2  0
 20 21  1  0
 21 22  2  0
 22 23  1  0
 22 24  1  0
 24 25  2  0
 25 26  1  0
 26 27  2  0
 11  7  1  0
 16 12  1  0
 27 17  1  0
 26 20  1  0
  3 28  1  0
  4 29  1  0
  4 30  1  0
  8 31  1  0
  8 32  1  0
  9 33  1  0
  9 34  1  0
 10 35  1  0
 10 36  1  0
 11 37  1  6
 14 38  1  0
 15 39  1  0
 18 40  1  0
 19 41  1  0
 21 42  1  0
 24 43  1  0
 25 44  1  0
M  END
>  <smiles>  (20) 
O=C(NCC(=O)N1CCC[C@@H]1c1ncco1)c1ccc2cc(Cl)ccc2n1

>  <score_type>  (20) 
oracle

>  <origin>  (20) 
autodockgpu

>  <m_score__min__energy>  (20) 
-7.7800000000000002

>  <m_primary>  (20) 
energy

>  <rmsd>  (20) 
7.940440503757128

>  <m_score__min__rmsd>  (20) 
7.940440503757128

>  <meeko>  (20) 
{"free_energy": -6.82, "intermolecular_energy": -8.32, "internal_energy": -2.35, "cluster_size": 12, "cluster_id": 4, "rank_in_cluster": 8}

>  <energy>  (20) 
-7.1

>  <cluster_rmsd>  (20) 
0.37

>  <cluster>  (20) 
4

$$$$

     RDKit          3D

 44 47  0  0  0  0  0  0  0  0999 V2000
  141.1800   72.8860  221.4850 O   0  0  0  0  0  0  0  0  0  0  0  0
  140.2470   72.8290  222.3430 C   0  0  0  0  0  0  0  0  0  0  0  0
  139.1740   73.7560  222.1570 N   0  0  0  0  0  0  0  0  0  0  0  0
  139.2540   74.6470  221.0380 C   0  0  0  0  0  0  0  0  0  0  0  0
  140.0330   75.8800  221.3520 C   0  0  0  0  0  0  0  0  0  0  0  0
  139.7090   76.6830  222.2630 O   0  0  0  0  0  0  0  0  0  0  0  0
  141.1990   76.1660  220.5920 N   0  0  0  0  0  0  0  0  0  0  0  0
  142.2180   75.1660  220.2390 C   0  0  0  0  0  0  0  0  0  0  0  0
  142.7040   75.7360  218.8990 C   0  0  0  0  0  0  0  0  0  0  0  0
  142.8880   77.1840  219.3070 C   0  0  0  0  0  0  0  0  0  0  0  0
  141.5890   77.4460  220.0400 C   0  0  2  0  0  0  0  0  0  0  0  0
  141.7390   78.4990  221.0680 C   0  0  0  0  0  0  0  0  0  0  0  0
  141.8370   79.8410  220.8770 N   0  0  0  0  0  0  0  0  0  0  0  0
  141.9590   80.4310  222.0850 C   0  0  0  0  0  0  0  0  0  0  0  0
  141.9320   79.3950  223.0010 C   0  0  0  0  0  0  0  0  0  0  0  0
  141.7970   78.2450  222.3510 O   0  0  0  0  0  0  0  0  0  0  0  0
  140.2560   71.8830  223.4520 C   0  0  0  0  0  0  0  0  0  0  0  0
  139.7900   70.6090  223.2000 C   0  0  0  0  0  0  0  0  0  0  0  0
  139.7680   69.6580  224.2000 C   0  0  0  0  0  0  0  0  0  0  0  0
  140.2160   69.9810  225.4630 C   0  0  0  0  0  0  0  0  0  0  0  0
  140.1870   69.0210  226.4480 C   0  0  0  0  0  0  0  0  0  0  0  0
  140.6390   69.3550  227.7110 C   0  0  0  0  0  0  0  0  0  0  0  0
  140.6090   68.1430  228.9770 Cl  0  0  0  0  0  0  0  0  0  0  0  0
  141.1010   70.6320  227.9400 C   0  0  0  0  0  0  0  0  0  0  0  0
  141.1200   71.5840  226.9320 C   0  0  0  0  0  0  0  0  0  0  0  0
  140.6740   71.2690  225.6670 C   0  0  0  0  0  0  0  0  0  0  0  0
  140.6930   72.1940  224.6850 N   0  0  0  0  0  0  0  0  0  0  0  0
  138.3700   73.7680  222.8240 H   0  0  0  0  0  0  0  0  0  0  0  0
  139.7418   74.1233  220.2027 H   0  0  0  0  0  0  0  0  0  0  0  0
  138.2301   74.9527  220.7767 H   0  0  0  0  0  0  0  0  0  0  0  0
  143.0271   75.1283  220.9833 H   0  0  0  0  0  0  0  0  0  0  0  0
  141.8519   74.1297  220.1944 H   0  0  0  0  0  0  0  0  0  0  0  0
  143.6490   75.2762  218.5741 H   0  0  0  0  0  0  0  0  0  0  0  0
  142.0332   75.5682  218.0435 H   0  0  0  0  0  0  0  0  0  0  0  0
  143.7576   77.3097  219.9689 H   0  0  0  0  0  0  0  0  0  0  0  0
  143.0816   77.8697  218.4690 H   0  0  0  0  0  0  0  0  0  0  0  0
  140.8089   77.8367  219.3701 H   0  0  0  0  0  0  0  0  0  0  0  0
  142.0586   81.5060  222.2958 H   0  0  0  0  0  0  0  0  0  0  0  0
  142.0099   79.5059  224.0926 H   0  0  0  0  0  0  0  0  0  0  0  0
  139.4327   70.3488  222.1927 H   0  0  0  0  0  0  0  0  0  0  0  0
  139.3940   68.6451  223.9897 H   0  0  0  0  0  0  0  0  0  0  0  0
  139.8121   68.0090  226.2351 H   0  0  0  0  0  0  0  0  0  0  0  0
  141.4624   70.9023  228.9432 H   0  0  0  0  0  0  0  0  0  0  0  0
  141.4934   72.5968  227.1436 H   0  0  0  0  0  0  0  0  0  0  0  0
  1  2  2  0
  2  3  1  0
  3  4  1  0
  4  5  1  0
  5  6  2  0
  5  7  1  0
  7  8  1  0
  8  9  1  0
  9 10  1  0
 10 11  1  0
 11 12  1  0
 12 13  2  0
 13 14  1  0
 14 15  2  0
 15 16  1  0
  2 17  1  0
 17 18  2  0
 18 19  1  0
 19 20  2  0
 20 21  1  0
 21 22  2  0
 22 23  1  0
 22 24  1  0
 24 25  2  0
 25 26  1  0
 26 27  2  0
 11  7  1  0
 16 12  1  0
 27 17  1  0
 26 20  1  0
  3 28  1  0
  4 29  1  0
  4 30  1  0
  8 31  1  0
  8 32  1  0
  9 33  1  0
  9 34  1  0
 10 35  1  0
 10 36  1  0
 11 37  1  6
 14 38  1  0
 15 39  1  0
 18 40  1  0
 19 41  1  0
 21 42  1  0
 24 43  1  0
 25 44  1  0
M  END
>  <smiles>  (21) 
O=C(NCC(=O)N1CCC[C@@H]1c1ncco1)c1ccc2cc(Cl)ccc2n1

>  <score_type>  (21) 
oracle

>  <origin>  (21) 
autodockgpu

>  <m_score__min__energy>  (21) 
-7.7800000000000002

>  <m_primary>  (21) 
energy

>  <rmsd>  (21) 
2.0365977833320463

>  <m_score__min__rmsd>  (21) 
2.0365977833320463

>  <meeko>  (21) 
{"free_energy": -7.43, "intermolecular_energy": -8.93, "internal_energy": -1.21, "cluster_size": 6, "cluster_id": 2, "rank_in_cluster": 1}

>  <energy>  (21) 
-7.1

>  <cluster_rmsd>  (21) 
0.64

>  <cluster>  (21) 
4

$$$$

     RDKit          3D

 44 47  0  0  0  0  0  0  0  0999 V2000
  141.7820   72.2520  221.2770 O   0  0  0  0  0  0  0  0  0  0  0  0
  141.0370   73.1210  221.8230 C   0  0  0  0  0  0  0  0  0  0  0  0
  140.0590   72.6180  222.7370 N   0  0  0  0  0  0  0  0  0  0  0  0
  140.0150   71.2010  222.9460 C   0  0  0  0  0  0  0  0  0  0  0  0
  139.0570   70.8200  224.0260 C   0  0  0  0  0  0  0  0  0  0  0  0
  137.9580   71.4020  224.2040 O   0  0  0  0  0  0  0  0  0  0  0  0
  139.3970   69.7490  224.8950 N   0  0  0  0  0  0  0  0  0  0  0  0
  138.5370   68.5810  225.1370 C   0  0  0  0  0  0  0  0  0  0  0  0
  139.6050   67.5130  225.4170 C   0  0  0  0  0  0  0  0  0  0  0  0
  140.4640   68.2850  226.3970 C   0  0  0  0  0  0  0  0  0  0  0  0
  140.6060   69.6100  225.6780 C   0  0  2  0  0  0  0  0  0  0  0  0
  140.8190   70.7300  226.6210 C   0  0  0  0  0  0  0  0  0  0  0  0
  141.5580   71.8540  226.4260 N   0  0  0  0  0  0  0  0  0  0  0  0
  141.4800   72.6090  227.5430 C   0  0  0  0  0  0  0  0  0  0  0  0
  140.6700   71.8960  228.4080 C   0  0  0  0  0  0  0  0  0  0  0  0
  140.2900   70.7690  227.8180 O   0  0  0  0  0  0  0  0  0  0  0  0
  141.1600   74.5470  221.5440 C   0  0  0  0  0  0  0  0  0  0  0  0
  141.9570   74.9180  220.4810 C   0  0  0  0  0  0  0  0  0  0  0  0
  142.1220   76.2490  220.1560 C   0  0  0  0  0  0  0  0  0  0  0  0
  141.4840   77.2200  220.9000 C   0  0  0  0  0  0  0  0  0  0  0  0
  141.6600   78.5420  220.5620 C   0  0  0  0  0  0  0  0  0  0  0  0
  141.0170   79.5080  221.3140 C   0  0  0  0  0  0  0  0  0  0  0  0
  141.2300   81.1970  220.8960 Cl  0  0  0  0  0  0  0  0  0  0  0  0
  140.2250   79.1160  222.3700 C   0  0  0  0  0  0  0  0  0  0  0  0
  140.0640   77.7760  222.6920 C   0  0  0  0  0  0  0  0  0  0  0  0
  140.6970   76.8000  221.9540 C   0  0  0  0  0  0  0  0  0  0  0  0
  140.5400   75.4970  222.2670 N   0  0  0  0  0  0  0  0  0  0  0  0
  139.4090   73.2740  223.2250 H   0  0  0  0  0  0  0  0  0  0  0  0
  139.7051   70.7142  222.0095 H   0  0  0  0  0  0  0  0  0  0  0  0
  141.0190   70.8736  223.2540 H   0  0  0  0  0  0  0  0  0  0  0  0
  137.8762   68.7337  226.0030 H   0  0  0  0  0  0  0  0  0  0  0  0
  137.8450   68.3388  224.3170 H   0  0  0  0  0  0  0  0  0  0  0  0
  139.1741   66.6082  225.8705 H   0  0  0  0  0  0  0  0  0  0  0  0
  140.1302   67.1267  224.5311 H   0  0  0  0  0  0  0  0  0  0  0  0
  139.9609   68.4044  227.3679 H   0  0  0  0  0  0  0  0  0  0  0  0
  141.4195   67.7984  226.6426 H   0  0  0  0  0  0  0  0  0  0  0  0
  141.4954   69.6349  225.0312 H   0  0  0  0  0  0  0  0  0  0  0  0
  141.9583   73.5826  227.7257 H   0  0  0  0  0  0  0  0  0  0  0  0
  140.3860   72.2121  229.4226 H   0  0  0  0  0  0  0  0  0  0  0  0
  142.4661   74.1452  219.8864 H   0  0  0  0  0  0  0  0  0  0  0  0
  142.7600   76.5348  219.3067 H   0  0  0  0  0  0  0  0  0  0  0  0
  142.2984   78.8244  219.7119 H   0  0  0  0  0  0  0  0  0  0  0  0
  139.7097   79.8803  222.9702 H   0  0  0  0  0  0  0  0  0  0  0  0
  139.4267   77.4911  223.5421 H   0  0  0  0  0  0  0  0  0  0  0  0
  1  2  2  0
  2  3  1  0
  3  4  1  0
  4  5  1  0
  5  6  2  0
  5  7  1  0
  7  8  1  0
  8  9  1  0
  9 10  1  0
 10 11  1  0
 11 12  1  0
 12 13  2  0
 13 14  1  0
 14 15  2  0
 15 16  1  0
  2 17  1  0
 17 18  2  0
 18 19  1  0
 19 20  2  0
 20 21  1  0
 21 22  2  0
 22 23  1  0
 22 24  1  0
 24 25  2  0
 25 26  1  0
 26 27  2  0
 11  7  1  0
 16 12  1  0
 27 17  1  0
 26 20  1  0
  3 28  1  0
  4 29  1  0
  4 30  1  0
  8 31  1  0
  8 32  1  0
  9 33  1  0
  9 34  1  0
 10 35  1  0
 10 36  1  0
 11 37  1  6
 14 38  1  0
 15 39  1  0
 18 40  1  0
 19 41  1  0
 21 42  1  0
 24 43  1  0
 25 44  1  0
M  END
>  <smiles>  (22) 
O=C(NCC(=O)N1CCC[C@@H]1c1ncco1)c1ccc2cc(Cl)ccc2n1

>  <score_type>  (22) 
oracle

>  <origin>  (22) 
autodockgpu

>  <m_score__min__energy>  (22) 
-7.7800000000000002

>  <m_primary>  (22) 
energy

>  <rmsd>  (22) 
8.728486513686692

>  <m_score__min__rmsd>  (22) 
8.728486513686692

>  <meeko>  (22) 
{"free_energy": -7.76, "intermolecular_energy": -9.25, "internal_energy": -1.62, "cluster_size": 8, "cluster_id": 1, "rank_in_cluster": 2}

>  <energy>  (22) 
-7.09

>  <cluster_rmsd>  (22) 
0.36

>  <cluster>  (22) 
4

$$$$

     RDKit          3D

 44 47  0  0  0  0  0  0  0  0999 V2000
  135.3790   68.5120  224.8280 O   0  0  0  0  0  0  0  0  0  0  0  0
  135.6710   69.7380  224.6830 C   0  0  0  0  0  0  0  0  0  0  0  0
  136.8250   70.0130  223.8860 N   0  0  0  0  0  0  0  0  0  0  0  0
  137.5310   68.8950  223.3340 C   0  0  0  0  0  0  0  0  0  0  0  0
  138.7070   68.5040  224.1670 C   0  0  0  0  0  0  0  0  0  0  0  0
  139.1770   67.3390  224.1850 O   0  0  0  0  0  0  0  0  0  0  0  0
  139.3280   69.4890  224.9810 N   0  0  0  0  0  0  0  0  0  0  0  0
  139.0350   69.6820  226.4090 C   0  0  0  0  0  0  0  0  0  0  0  0
  140.3980   70.1930  226.8980 C   0  0  0  0  0  0  0  0  0  0  0  0
  140.6610   71.2340  225.8280 C   0  0  0  0  0  0  0  0  0  0  0  0
  140.3290   70.4510  224.5740 C   0  0  2  0  0  0  0  0  0  0  0  0
  139.8750   71.3340  223.4780 C   0  0  0  0  0  0  0  0  0  0  0  0
  140.2870   72.6000  223.2030 N   0  0  0  0  0  0  0  0  0  0  0  0
  139.6150   73.0340  222.1150 C   0  0  0  0  0  0  0  0  0  0  0  0
  138.7910   71.9850  221.7520 C   0  0  0  0  0  0  0  0  0  0  0  0
  138.9760   70.9760  222.5960 O   0  0  0  0  0  0  0  0  0  0  0  0
  134.8860   70.8090  225.2870 C   0  0  0  0  0  0  0  0  0  0  0  0
  133.9350   70.4480  226.2200 C   0  0  0  0  0  0  0  0  0  0  0  0
  133.1530   71.4060  226.8330 C   0  0  0  0  0  0  0  0  0  0  0  0
  133.3230   72.7360  226.5140 C   0  0  0  0  0  0  0  0  0  0  0  0
  132.5350   73.6770  227.1360 C   0  0  0  0  0  0  0  0  0  0  0  0
  132.7130   75.0090  226.8080 C   0  0  0  0  0  0  0  0  0  0  0  0
  131.7170   76.2210  227.5920 Cl  0  0  0  0  0  0  0  0  0  0  0  0
  133.6670   75.3470  225.8750 C   0  0  0  0  0  0  0  0  0  0  0  0
  134.4490   74.3800  225.2610 C   0  0  0  0  0  0  0  0  0  0  0  0
  134.2870   73.0480  225.5750 C   0  0  0  0  0  0  0  0  0  0  0  0
  135.0480   72.1080  224.9770 N   0  0  0  0  0  0  0  0  0  0  0  0
  137.1270   71.0000  223.7220 H   0  0  0  0  0  0  0  0  0  0  0  0
  136.8432   68.0391  223.2681 H   0  0  0  0  0  0  0  0  0  0  0  0
  137.9026   69.1871  222.3407 H   0  0  0  0  0  0  0  0  0  0  0  0
  138.2406   70.4267  226.5651 H   0  0  0  0  0  0  0  0  0  0  0  0
  138.6635   68.7869  226.9294 H   0  0  0  0  0  0  0  0  0  0  0  0
  140.3349   70.6399  227.9011 H   0  0  0  0  0  0  0  0  0  0  0  0
  141.1773   69.4250  227.0115 H   0  0  0  0  0  0  0  0  0  0  0  0
  140.0032   72.1079  225.9444 H   0  0  0  0  0  0  0  0  0  0  0  0
  141.6776   71.6538  225.8443 H   0  0  0  0  0  0  0  0  0  0  0  0
  141.2114   69.9430  224.1578 H   0  0  0  0  0  0  0  0  0  0  0  0
  139.7043   74.0135  221.6225 H   0  0  0  0  0  0  0  0  0  0  0  0
  138.0941   71.9857  220.9009 H   0  0  0  0  0  0  0  0  0  0  0  0
  133.7991   69.3872  226.4773 H   0  0  0  0  0  0  0  0  0  0  0  0
  132.3963   71.1089  227.5740 H   0  0  0  0  0  0  0  0  0  0  0  0
  131.7802   73.3767  227.8777 H   0  0  0  0  0  0  0  0  0  0  0  0
  133.8120   76.4050  225.6112 H   0  0  0  0  0  0  0  0  0  0  0  0
  135.2036   74.6783  224.5184 H   0  0  0  0  0  0  0  0  0  0  0  0
  1  2  2  0
  2  3  1  0
  3  4  1  0
  4  5  1  0
  5  6  2  0
  5  7  1  0
  7  8  1  0
  8  9  1  0
  9 10  1  0
 10 11  1  0
 11 12  1  0
 12 13  2  0
 13 14  1  0
 14 15  2  0
 15 16  1  0
  2 17  1  0
 17 18  2  0
 18 19  1  0
 19 20  2  0
 20 21  1  0
 21 22  2  0
 22 23  1  0
 22 24  1  0
 24 25  2  0
 25 26  1  0
 26 27  2  0
 11  7  1  0
 16 12  1  0
 27 17  1  0
 26 20  1  0
  3 28  1  0
  4 29  1  0
  4 30  1  0
  8 31  1  0
  8 32  1  0
  9 33  1  0
  9 34  1  0
 10 35  1  0
 10 36  1  0
 11 37  1  6
 14 38  1  0
 15 39  1  0
 18 40  1  0
 19 41  1  0
 21 42  1  0
 24 43  1  0
 25 44  1  0
M  END
>  <smiles>  (23) 
O=C(NCC(=O)N1CCC[C@@H]1c1ncco1)c1ccc2cc(Cl)ccc2n1

>  <score_type>  (23) 
oracle

>  <origin>  (23) 
autodockgpu

>  <m_score__min__energy>  (23) 
-7.7800000000000002

>  <m_primary>  (23) 
energy

>  <rmsd>  (23) 
7.801361321295346

>  <m_score__min__rmsd>  (23) 
7.801361321295346

>  <meeko>  (23) 
{"free_energy": -6.71, "intermolecular_energy": -8.2, "internal_energy": -2.25, "cluster_size": 12, "cluster_id": 4, "rank_in_cluster": 9}

>  <energy>  (23) 
-7.08

>  <cluster_rmsd>  (23) 
0.22

>  <cluster>  (23) 
4

$$$$

     RDKit          3D

 44 47  0  0  0  0  0  0  0  0999 V2000
  140.6510   72.0470  221.0040 O   0  0  0  0  0  0  0  0  0  0  0  0
  140.1760   72.4100  222.1220 C   0  0  0  0  0  0  0  0  0  0  0  0
  139.6520   73.7400  222.1730 N   0  0  0  0  0  0  0  0  0  0  0  0
  139.7130   74.5220  220.9740 C   0  0  0  0  0  0  0  0  0  0  0  0
  140.6960   75.6400  221.0790 C   0  0  0  0  0  0  0  0  0  0  0  0
  140.8450   76.3260  222.1220 O   0  0  0  0  0  0  0  0  0  0  0  0
  141.5050   75.9500  219.9530 N   0  0  0  0  0  0  0  0  0  0  0  0
  140.9710   76.2850  218.6240 C   0  0  0  0  0  0  0  0  0  0  0  0
  142.0730   77.2300  218.1220 C   0  0  0  0  0  0  0  0  0  0  0  0
  143.2860   76.3960  218.4820 C   0  0  0  0  0  0  0  0  0  0  0  0
  142.9500   75.9930  219.9020 C   0  0  2  0  0  0  0  0  0  0  0  0
  143.5830   74.7090  220.2750 C   0  0  0  0  0  0  0  0  0  0  0  0
  144.9040   74.4600  220.4760 N   0  0  0  0  0  0  0  0  0  0  0  0
  145.0410   73.1560  220.8010 C   0  0  0  0  0  0  0  0  0  0  0  0
  143.7590   72.6390  220.7870 C   0  0  0  0  0  0  0  0  0  0  0  0
  142.9060   73.6050  220.4660 O   0  0  0  0  0  0  0  0  0  0  0  0
  140.1580   71.5370  223.2900 C   0  0  0  0  0  0  0  0  0  0  0  0
  139.6130   70.2790  223.1310 C   0  0  0  0  0  0  0  0  0  0  0  0
  139.5610   69.3970  224.1910 C   0  0  0  0  0  0  0  0  0  0  0  0
  140.0580   69.7730  225.4200 C   0  0  0  0  0  0  0  0  0  0  0  0
  139.9990   68.8800  226.4660 C   0  0  0  0  0  0  0  0  0  0  0  0
  140.5000   69.2670  227.6950 C   0  0  0  0  0  0  0  0  0  0  0  0
  140.4320   68.1410  229.0370 Cl  0  0  0  0  0  0  0  0  0  0  0  0
  141.0400   70.5260  227.8310 C   0  0  0  0  0  0  0  0  0  0  0  0
  141.0890   71.4090  226.7630 C   0  0  0  0  0  0  0  0  0  0  0  0
  140.5940   71.0410  225.5310 C   0  0  0  0  0  0  0  0  0  0  0  0
  140.6420   71.9000  224.4910 N   0  0  0  0  0  0  0  0  0  0  0  0
  139.2430   74.1100  223.0600 H   0  0  0  0  0  0  0  0  0  0  0  0
  140.0076   73.8686  220.1396 H   0  0  0  0  0  0  0  0  0  0  0  0
  138.7186   74.9615  220.8068 H   0  0  0  0  0  0  0  0  0  0  0  0
  140.8760   75.3939  217.9861 H   0  0  0  0  0  0  0  0  0  0  0  0
  139.9587   76.7154  218.6273 H   0  0  0  0  0  0  0  0  0  0  0  0
  142.0017   77.4075  217.0387 H   0  0  0  0  0  0  0  0  0  0  0  0
  142.0546   78.2445  218.5467 H   0  0  0  0  0  0  0  0  0  0  0  0
  143.3821   75.5188  217.8253 H   0  0  0  0  0  0  0  0  0  0  0  0
  144.2457   76.9230  218.3758 H   0  0  0  0  0  0  0  0  0  0  0  0
  143.3452   76.7079  220.6386 H   0  0  0  0  0  0  0  0  0  0  0  0
  145.9741   72.6197  221.0284 H   0  0  0  0  0  0  0  0  0  0  0  0
  143.4889   71.5955  221.0064 H   0  0  0  0  0  0  0  0  0  0  0  0
  139.2165   69.9767  222.1505 H   0  0  0  0  0  0  0  0  0  0  0  0
  139.1241   68.3967  224.0553 H   0  0  0  0  0  0  0  0  0  0  0  0
  139.5625   67.8799  226.3269 H   0  0  0  0  0  0  0  0  0  0  0  0
  141.4408   70.8379  228.8068 H   0  0  0  0  0  0  0  0  0  0  0  0
  141.5257   72.4092  226.9002 H   0  0  0  0  0  0  0  0  0  0  0  0
  1  2  2  0
  2  3  1  0
  3  4  1  0
  4  5  1  0
  5  6  2  0
  5  7  1  0
  7  8  1  0
  8  9  1  0
  9 10  1  0
 10 11  1  0
 11 12  1  0
 12 13  2  0
 13 14  1  0
 14 15  2  0
 15 16  1  0
  2 17  1  0
 17 18  2  0
 18 19  1  0
 19 20  2  0
 20 21  1  0
 21 22  2  0
 22 23  1  0
 22 24  1  0
 24 25  2  0
 25 26  1  0
 26 27  2  0
 11  7  1  0
 16 12  1  0
 27 17  1  0
 26 20  1  0
  3 28  1  0
  4 29  1  0
  4 30  1  0
  8 31  1  0
  8 32  1  0
  9 33  1  0
  9 34  1  0
 10 35  1  0
 10 36  1  0
 11 37  1  1
 14 38  1  0
 15 39  1  0
 18 40  1  0
 19 41  1  0
 21 42  1  0
 24 43  1  0
 25 44  1  0
M  END
>  <smiles>  (24) 
O=C(NCC(=O)N1CCC[C@@H]1c1ncco1)c1ccc2cc(Cl)ccc2n1

>  <score_type>  (24) 
oracle

>  <origin>  (24) 
autodockgpu

>  <m_score__min__energy>  (24) 
-7.7800000000000002

>  <m_primary>  (24) 
energy

>  <rmsd>  (24) 
3.235611166509564

>  <m_score__min__rmsd>  (24) 
3.235611166509564

>  <meeko>  (24) 
{"free_energy": -7.27, "intermolecular_energy": -8.76, "internal_energy": -1.63, "cluster_size": 4, "cluster_id": 3, "rank_in_cluster": 1}

>  <energy>  (24) 
-7.07

>  <cluster_rmsd>  (24) 
0.22

>  <cluster>  (24) 
4

$$$$

     RDKit          3D

 44 47  0  0  0  0  0  0  0  0999 V2000
  135.2520   68.5790  224.7420 O   0  0  0  0  0  0  0  0  0  0  0  0
  135.6910   69.7510  224.9430 C   0  0  0  0  0  0  0  0  0  0  0  0
  137.0590   69.9730  224.5880 N   0  0  0  0  0  0  0  0  0  0  0  0
  137.7900   68.8660  224.0470 C   0  0  0  0  0  0  0  0  0  0  0  0
  138.9580   68.4920  224.8980 C   0  0  0  0  0  0  0  0  0  0  0  0
  139.3660   67.3100  225.0200 O   0  0  0  0  0  0  0  0  0  0  0  0
  139.6450   69.5140  225.6060 N   0  0  0  0  0  0  0  0  0  0  0  0
  139.4100   69.8350  227.0230 C   0  0  0  0  0  0  0  0  0  0  0  0
  140.8080   70.3290  227.4220 C   0  0  0  0  0  0  0  0  0  0  0  0
  141.0720   71.2660  226.2620 C   0  0  0  0  0  0  0  0  0  0  0  0
  140.6670   70.3980  225.0890 C   0  0  2  0  0  0  0  0  0  0  0  0
  140.2070   71.2060  223.9380 C   0  0  0  0  0  0  0  0  0  0  0  0
  140.9580   71.7160  222.9270 N   0  0  0  0  0  0  0  0  0  0  0  0
  140.1370   72.3870  222.0900 C   0  0  0  0  0  0  0  0  0  0  0  0
  138.8740   72.2580  222.6380 C   0  0  0  0  0  0  0  0  0  0  0  0
  138.9550   71.5390  223.7510 O   0  0  0  0  0  0  0  0  0  0  0  0
  134.8640   70.8150  225.4990 C   0  0  0  0  0  0  0  0  0  0  0  0
  133.8600   70.4460  226.3710 C   0  0  0  0  0  0  0  0  0  0  0  0
  133.0360   71.3970  226.9390 C   0  0  0  0  0  0  0  0  0  0  0  0
  133.2170   72.7290  226.6340 C   0  0  0  0  0  0  0  0  0  0  0  0
  132.3870   73.6640  227.2090 C   0  0  0  0  0  0  0  0  0  0  0  0
  132.5760   74.9980  226.8960 C   0  0  0  0  0  0  0  0  0  0  0  0
  131.5270   76.2010  227.6200 Cl  0  0  0  0  0  0  0  0  0  0  0  0
  133.5840   75.3440  226.0240 C   0  0  0  0  0  0  0  0  0  0  0  0
  134.4080   74.3840  225.4570 C   0  0  0  0  0  0  0  0  0  0  0  0
  134.2350   73.0510  225.7570 C   0  0  0  0  0  0  0  0  0  0  0  0
  135.0370   72.1170  225.2050 N   0  0  0  0  0  0  0  0  0  0  0  0
  137.4910   70.9140  224.7250 H   0  0  0  0  0  0  0  0  0  0  0  0
  137.1160   68.0001  223.9700 H   0  0  0  0  0  0  0  0  0  0  0  0
  138.1729   69.1641  223.0598 H   0  0  0  0  0  0  0  0  0  0  0  0
  138.6501   70.6212  227.1425 H   0  0  0  0  0  0  0  0  0  0  0  0
  139.0238   69.0016  227.6282 H   0  0  0  0  0  0  0  0  0  0  0  0
  140.7980   70.8592  228.3857 H   0  0  0  0  0  0  0  0  0  0  0  0
  141.5612   69.5417  227.5733 H   0  0  0  0  0  0  0  0  0  0  0  0
  140.4523   72.1725  226.3263 H   0  0  0  0  0  0  0  0  0  0  0  0
  142.1039   71.6436  226.2108 H   0  0  0  0  0  0  0  0  0  0  0  0
  141.5151   69.8232  224.6886 H   0  0  0  0  0  0  0  0  0  0  0  0
  140.4139   72.9216  221.1694 H   0  0  0  0  0  0  0  0  0  0  0  0
  137.9501   72.6831  222.2188 H   0  0  0  0  0  0  0  0  0  0  0  0
  133.7148   69.3835  226.6160 H   0  0  0  0  0  0  0  0  0  0  0  0
  132.2380   71.0929  227.6323 H   0  0  0  0  0  0  0  0  0  0  0  0
  131.5903   73.3571  227.9026 H   0  0  0  0  0  0  0  0  0  0  0  0
  133.7386   76.4036  225.7722 H   0  0  0  0  0  0  0  0  0  0  0  0
  135.2051   74.6889  224.7630 H   0  0  0  0  0  0  0  0  0  0  0  0
  1  2  2  0
  2  3  1  0
  3  4  1  0
  4  5  1  0
  5  6  2  0
  5  7  1  0
  7  8  1  0
  8  9  1  0
  9 10  1  0
 10 11  1  0
 11 12  1  0
 12 13  2  0
 13 14  1  0
 14 15  2  0
 15 16  1  0
  2 17  1  0
 17 18  2  0
 18 19  1  0
 19 20  2  0
 20 21  1  0
 21 22  2  0
 22 23  1  0
 22 24  1  0
 24 25  2  0
 25 26  1  0
 26 27  2  0
 11  7  1  0
 16 12  1  0
 27 17  1  0
 26 20  1  0
  3 28  1  0
  4 29  1  0
  4 30  1  0
  8 31  1  0
  8 32  1  0
  9 33  1  0
  9 34  1  0
 10 35  1  0
 10 36  1  0
 11 37  1  6
 14 38  1  0
 15 39  1  0
 18 40  1  0
 19 41  1  0
 21 42  1  0
 24 43  1  0
 25 44  1  0
M  END
>  <smiles>  (25) 
O=C(NCC(=O)N1CCC[C@@H]1c1ncco1)c1ccc2cc(Cl)ccc2n1

>  <score_type>  (25) 
oracle

>  <origin>  (25) 
autodockgpu

>  <m_score__min__energy>  (25) 
-7.7800000000000002

>  <m_primary>  (25) 
energy

>  <rmsd>  (25) 
8.009438761064029

>  <m_score__min__rmsd>  (25) 
8.009438761064029

>  <meeko>  (25) 
{"free_energy": -7.07, "intermolecular_energy": -8.56, "internal_energy": -2.28, "cluster_size": 12, "cluster_id": 4, "rank_in_cluster": 6}

>  <energy>  (25) 
-7.06

>  <cluster_rmsd>  (25) 
0.2

>  <cluster>  (25) 
4

$$$$

     RDKit          3D

 44 47  0  0  0  0  0  0  0  0999 V2000
  135.1930   68.5210  224.7220 O   0  0  0  0  0  0  0  0  0  0  0  0
  135.6590   69.6790  224.9450 C   0  0  0  0  0  0  0  0  0  0  0  0
  137.0370   69.8700  224.6140 N   0  0  0  0  0  0  0  0  0  0  0  0
  137.7490   68.7520  224.0700 C   0  0  0  0  0  0  0  0  0  0  0  0
  138.9170   68.3640  224.9130 C   0  0  0  0  0  0  0  0  0  0  0  0
  139.3520   67.1860  224.9820 O   0  0  0  0  0  0  0  0  0  0  0  0
  139.5750   69.3660  225.6760 N   0  0  0  0  0  0  0  0  0  0  0  0
  139.2750   69.6560  227.0860 C   0  0  0  0  0  0  0  0  0  0  0  0
  140.6550   70.1330  227.5620 C   0  0  0  0  0  0  0  0  0  0  0  0
  140.9780   71.0950  226.4370 C   0  0  0  0  0  0  0  0  0  0  0  0
  140.6250   70.2560  225.2270 C   0  0  2  0  0  0  0  0  0  0  0  0
  140.2240   71.0910  224.0740 C   0  0  0  0  0  0  0  0  0  0  0  0
  138.9730   71.5070  223.7430 N   0  0  0  0  0  0  0  0  0  0  0  0
  139.0600   72.2490  222.6180 C   0  0  0  0  0  0  0  0  0  0  0  0
  140.4040   72.2600  222.2920 C   0  0  0  0  0  0  0  0  0  0  0  0
  141.0750   71.5520  223.1930 O   0  0  0  0  0  0  0  0  0  0  0  0
  134.8500   70.7570  225.5030 C   0  0  0  0  0  0  0  0  0  0  0  0
  133.8510   70.4070  226.3870 C   0  0  0  0  0  0  0  0  0  0  0  0
  133.0450   71.3720  226.9560 C   0  0  0  0  0  0  0  0  0  0  0  0
  133.2380   72.6990  226.6400 C   0  0  0  0  0  0  0  0  0  0  0  0
  132.4250   73.6480  227.2170 C   0  0  0  0  0  0  0  0  0  0  0  0
  132.6280   74.9770  226.8930 C   0  0  0  0  0  0  0  0  0  0  0  0
  131.6000   76.1980  227.6190 Cl  0  0  0  0  0  0  0  0  0  0  0  0
  133.6310   75.3050  226.0080 C   0  0  0  0  0  0  0  0  0  0  0  0
  134.4370   74.3310  225.4390 C   0  0  0  0  0  0  0  0  0  0  0  0
  134.2510   73.0020  225.7500 C   0  0  0  0  0  0  0  0  0  0  0  0
  135.0360   72.0540  225.1960 N   0  0  0  0  0  0  0  0  0  0  0  0
  137.4900   70.7980  224.7700 H   0  0  0  0  0  0  0  0  0  0  0  0
  137.0627   67.8952  223.9995 H   0  0  0  0  0  0  0  0  0  0  0  0
  138.1290   69.0429  223.0796 H   0  0  0  0  0  0  0  0  0  0  0  0
  138.5139   70.4437  227.1874 H   0  0  0  0  0  0  0  0  0  0  0  0
  138.8567   68.8113  227.6530 H   0  0  0  0  0  0  0  0  0  0  0  0
  140.6017   70.6413  228.5361 H   0  0  0  0  0  0  0  0  0  0  0  0
  141.3966   69.3383  227.7307 H   0  0  0  0  0  0  0  0  0  0  0  0
  140.3601   72.0033  226.4926 H   0  0  0  0  0  0  0  0  0  0  0  0
  142.0128   71.4680  226.4432 H   0  0  0  0  0  0  0  0  0  0  0  0
  141.4886   69.6858  224.8540 H   0  0  0  0  0  0  0  0  0  0  0  0
  138.2377   72.7397  222.0767 H   0  0  0  0  0  0  0  0  0  0  0  0
  140.8463   72.7730  221.4253 H   0  0  0  0  0  0  0  0  0  0  0  0
  133.6951   69.3482  226.6411 H   0  0  0  0  0  0  0  0  0  0  0  0
  132.2507   71.0825  227.6598 H   0  0  0  0  0  0  0  0  0  0  0  0
  131.6313   73.3558  227.9203 H   0  0  0  0  0  0  0  0  0  0  0  0
  133.7959   76.3609  225.7474 H   0  0  0  0  0  0  0  0  0  0  0  0
  135.2303   74.6214  224.7345 H   0  0  0  0  0  0  0  0  0  0  0  0
  1  2  2  0
  2  3  1  0
  3  4  1  0
  4  5  1  0
  5  6  2  0
  5  7  1  0
  7  8  1  0
  8  9  1  0
  9 10  1  0
 10 11  1  0
 11 12  1  0
 12 13  2  0
 13 14  1  0
 14 15  2  0
 15 16  1  0
  2 17  1  0
 17 18  2  0
 18 19  1  0
 19 20  2  0
 20 21  1  0
 21 22  2  0
 22 23  1  0
 22 24  1  0
 24 25  2  0
 25 26  1  0
 26 27  2  0
 11  7  1  0
 16 12  1  0
 27 17  1  0
 26 20  1  0
  3 28  1  0
  4 29  1  0
  4 30  1  0
  8 31  1  0
  8 32  1  0
  9 33  1  0
  9 34  1  0
 10 35  1  0
 10 36  1  0
 11 37  1  6
 14 38  1  0
 15 39  1  0
 18 40  1  0
 19 41  1  0
 21 42  1  0
 24 43  1  0
 25 44  1  0
M  END
>  <smiles>  (26) 
O=C(NCC(=O)N1CCC[C@@H]1c1ncco1)c1ccc2cc(Cl)ccc2n1

>  <score_type>  (26) 
oracle

>  <origin>  (26) 
autodockgpu

>  <m_score__min__energy>  (26) 
-7.7800000000000002

>  <m_primary>  (26) 
energy

>  <rmsd>  (26) 
8.079235401205828

>  <m_score__min__rmsd>  (26) 
8.079235401205828

>  <meeko>  (26) 
{"free_energy": -7.1, "intermolecular_energy": -8.59, "internal_energy": -2.17, "cluster_size": 12, "cluster_id": 4, "rank_in_cluster": 3}

>  <energy>  (26) 
-6.82

>  <cluster_rmsd>  (26) 
0.28

>  <cluster>  (26) 
4

$$$$

     RDKit          3D

 44 47  0  0  0  0  0  0  0  0999 V2000
  135.0670   68.6240  224.8480 O   0  0  0  0  0  0  0  0  0  0  0  0
  135.5320   69.7880  225.0420 C   0  0  0  0  0  0  0  0  0  0  0  0
  136.9000   69.9810  224.6750 N   0  0  0  0  0  0  0  0  0  0  0  0
  137.6050   68.8590  224.1300 C   0  0  0  0  0  0  0  0  0  0  0  0
  138.8330   68.5300  224.9110 C   0  0  0  0  0  0  0  0  0  0  0  0
  139.3370   67.3800  224.9440 O   0  0  0  0  0  0  0  0  0  0  0  0
  139.4690   69.5610  225.6540 N   0  0  0  0  0  0  0  0  0  0  0  0
  139.2120   69.8280  227.0770 C   0  0  0  0  0  0  0  0  0  0  0  0
  140.5840   70.3740  227.5000 C   0  0  0  0  0  0  0  0  0  0  0  0
  140.8100   71.3580  226.3700 C   0  0  0  0  0  0  0  0  0  0  0  0
  140.4510   70.5070  225.1690 C   0  0  2  0  0  0  0  0  0  0  0  0
  139.9600   71.3270  224.0400 C   0  0  0  0  0  0  0  0  0  0  0  0
  140.6970   71.9960  223.1150 N   0  0  0  0  0  0  0  0  0  0  0  0
  139.8470   72.6130  222.2650 C   0  0  0  0  0  0  0  0  0  0  0  0
  138.5810   72.2890  222.7170 C   0  0  0  0  0  0  0  0  0  0  0  0
  138.6890   71.5110  223.7880 O   0  0  0  0  0  0  0  0  0  0  0  0
  134.7320   70.8700  225.6040 C   0  0  0  0  0  0  0  0  0  0  0  0
  133.7310   70.5230  226.4890 C   0  0  0  0  0  0  0  0  0  0  0  0
  132.9320   71.4920  227.0610 C   0  0  0  0  0  0  0  0  0  0  0  0
  133.1350   72.8190  226.7490 C   0  0  0  0  0  0  0  0  0  0  0  0
  132.3290   73.7720  227.3300 C   0  0  0  0  0  0  0  0  0  0  0  0
  132.5400   75.1010  227.0100 C   0  0  0  0  0  0  0  0  0  0  0  0
  131.5220   76.3270  227.7410 Cl  0  0  0  0  0  0  0  0  0  0  0  0
  133.5450   75.4250  226.1260 C   0  0  0  0  0  0  0  0  0  0  0  0
  134.3440   74.4470  225.5530 C   0  0  0  0  0  0  0  0  0  0  0  0
  134.1490   73.1180  225.8600 C   0  0  0  0  0  0  0  0  0  0  0  0
  134.9260   72.1660  225.3020 N   0  0  0  0  0  0  0  0  0  0  0  0
  137.3530   70.9140  224.8050 H   0  0  0  0  0  0  0  0  0  0  0  0
  136.9373   67.9848  224.1353 H   0  0  0  0  0  0  0  0  0  0  0  0
  137.9156   69.1202  223.1076 H   0  0  0  0  0  0  0  0  0  0  0  0
  138.4158   70.5744  227.2147 H   0  0  0  0  0  0  0  0  0  0  0  0
  138.8615   68.9599  227.6546 H   0  0  0  0  0  0  0  0  0  0  0  0
  140.5445   70.8734  228.4793 H   0  0  0  0  0  0  0  0  0  0  0  0
  141.3722   69.6182  227.6322 H   0  0  0  0  0  0  0  0  0  0  0  0
  140.1485   72.2325  226.4576 H   0  0  0  0  0  0  0  0  0  0  0  0
  141.8232   71.7849  226.3365 H   0  0  0  0  0  0  0  0  0  0  0  0
  141.3263   69.9838  224.7565 H   0  0  0  0  0  0  0  0  0  0  0  0
  140.1066   73.2392  221.3987 H   0  0  0  0  0  0  0  0  0  0  0  0
  137.6362   72.6221  222.2626 H   0  0  0  0  0  0  0  0  0  0  0  0
  133.5687   69.4645  226.7406 H   0  0  0  0  0  0  0  0  0  0  0  0
  132.1356   71.2061  227.7638 H   0  0  0  0  0  0  0  0  0  0  0  0
  131.5344   73.4828  228.0335 H   0  0  0  0  0  0  0  0  0  0  0  0
  133.7175   76.4806  225.8693 H   0  0  0  0  0  0  0  0  0  0  0  0
  135.1387   74.7341  224.8487 H   0  0  0  0  0  0  0  0  0  0  0  0
  1  2  2  0
  2  3  1  0
  3  4  1  0
  4  5  1  0
  5  6  2  0
  5  7  1  0
  7  8  1  0
  8  9  1  0
  9 10  1  0
 10 11  1  0
 11 12  1  0
 12 13  2  0
 13 14  1  0
 14 15  2  0
 15 16  1  0
  2 17  1  0
 17 18  2  0
 18 19  1  0
 19 20  2  0
 20 21  1  0
 21 22  2  0
 22 23  1  0
 22 24  1  0
 24 25  2  0
 25 26  1  0
 26 27  2  0
 11  7  1  0
 16 12  1  0
 27 17  1  0
 26 20  1  0
  3 28  1  0
  4 29  1  0
  4 30  1  0
  8 31  1  0
  8 32  1  0
  9 33  1  0
  9 34  1  0
 10 35  1  0
 10 36  1  0
 11 37  1  6
 14 38  1  0
 15 39  1  0
 18 40  1  0
 19 41  1  0
 21 42  1  0
 24 43  1  0
 25 44  1  0
M  END
>  <smiles>  (27) 
O=C(NCC(=O)N1CCC[C@@H]1c1ncco1)c1ccc2cc(Cl)ccc2n1

>  <score_type>  (27) 
oracle

>  <origin>  (27) 
autodockgpu

>  <m_score__min__energy>  (27) 
-7.7800000000000002

>  <m_primary>  (27) 
energy

>  <rmsd>  (27) 
8.063091128969555

>  <m_score__min__rmsd>  (27) 
8.063091128969555

>  <meeko>  (27) 
{"free_energy": -7.12, "intermolecular_energy": -8.61, "internal_energy": -2.26, "cluster_size": 12, "cluster_id": 4, "rank_in_cluster": 1}

>  <energy>  (27) 
-6.71

>  <cluster_rmsd>  (27) 
0.63

>  <cluster>  (27) 
4

$$$$

     RDKit          3D

 44 47  0  0  0  0  0  0  0  0999 V2000
  140.5130   72.5500  220.8680 O   0  0  0  0  0  0  0  0  0  0  0  0
  139.8910   72.7650  221.9510 C   0  0  0  0  0  0  0  0  0  0  0  0
  139.0980   73.9550  221.9870 N   0  0  0  0  0  0  0  0  0  0  0  0
  139.0820   74.7770  220.8140 C   0  0  0  0  0  0  0  0  0  0  0  0
  140.1370   75.8330  220.8510 C   0  0  0  0  0  0  0  0  0  0  0  0
  141.1340   75.8330  220.0850 O   0  0  0  0  0  0  0  0  0  0  0  0
  140.0150   76.8900  221.7910 N   0  0  0  0  0  0  0  0  0  0  0  0
  141.0750   77.2790  222.7340 C   0  0  0  0  0  0  0  0  0  0  0  0
  140.7790   78.7800  222.8680 C   0  0  0  0  0  0  0  0  0  0  0  0
  139.2820   78.7110  223.0890 C   0  0  0  0  0  0  0  0  0  0  0  0
  138.8700   77.7520  221.9920 C   0  0  2  0  0  0  0  0  0  0  0  0
  137.6390   77.0100  222.3420 C   0  0  0  0  0  0  0  0  0  0  0  0
  137.4930   76.0320  223.2750 N   0  0  0  0  0  0  0  0  0  0  0  0
  136.2040   75.6300  223.2660 C   0  0  0  0  0  0  0  0  0  0  0  0
  135.5890   76.4010  222.2970 C   0  0  0  0  0  0  0  0  0  0  0  0
  136.4850   77.2220  221.7620 O   0  0  0  0  0  0  0  0  0  0  0  0
  139.9690   71.8650  223.0950 C   0  0  0  0  0  0  0  0  0  0  0  0
  139.4910   70.5820  222.9250 C   0  0  0  0  0  0  0  0  0  0  0  0
  139.5320   69.6720  223.9620 C   0  0  0  0  0  0  0  0  0  0  0  0
  140.0560   70.0470  225.1800 C   0  0  0  0  0  0  0  0  0  0  0  0
  140.0890   69.1270  226.2030 C   0  0  0  0  0  0  0  0  0  0  0  0
  140.6170   69.5120  227.4220 C   0  0  0  0  0  0  0  0  0  0  0  0
  140.6670   68.3520  228.7360 Cl  0  0  0  0  0  0  0  0  0  0  0  0
  141.0900   70.7970  227.5700 C   0  0  0  0  0  0  0  0  0  0  0  0
  141.0460   71.7070  226.5250 C   0  0  0  0  0  0  0  0  0  0  0  0
  140.5230   71.3410  225.3030 C   0  0  0  0  0  0  0  0  0  0  0  0
  140.4810   72.2260  224.2860 N   0  0  0  0  0  0  0  0  0  0  0  0
  138.5560   74.1990  222.8460 H   0  0  0  0  0  0  0  0  0  0  0  0
  139.2490   74.1401  219.9328 H   0  0  0  0  0  0  0  0  0  0  0  0
  138.1040   75.2782  220.7661 H   0  0  0  0  0  0  0  0  0  0  0  0
  140.9762   76.7563  223.6968 H   0  0  0  0  0  0  0  0  0  0  0  0
  142.0968   77.0368  222.4065 H   0  0  0  0  0  0  0  0  0  0  0  0
  141.3018   79.2280  223.7259 H   0  0  0  0  0  0  0  0  0  0  0  0
  141.1026   79.4022  222.0206 H   0  0  0  0  0  0  0  0  0  0  0  0
  139.0390   78.3131  224.0853 H   0  0  0  0  0  0  0  0  0  0  0  0
  138.7736   79.6858  223.0527 H   0  0  0  0  0  0  0  0  0  0  0  0
  138.6084   78.2770  221.0615 H   0  0  0  0  0  0  0  0  0  0  0  0
  135.7420   74.8549  223.8951 H   0  0  0  0  0  0  0  0  0  0  0  0
  134.5275   76.3435  222.0145 H   0  0  0  0  0  0  0  0  0  0  0  0
  139.0729   70.2812  221.9530 H   0  0  0  0  0  0  0  0  0  0  0  0
  139.1479   68.6515  223.8167 H   0  0  0  0  0  0  0  0  0  0  0  0
  139.7038   68.1074  226.0544 H   0  0  0  0  0  0  0  0  0  0  0  0
  141.5114   71.1077  228.5374 H   0  0  0  0  0  0  0  0  0  0  0  0
  141.4307   72.7271  226.6717 H   0  0  0  0  0  0  0  0  0  0  0  0
  1  2  2  0
  2  3  1  0
  3  4  1  0
  4  5  1  0
  5  6  2  0
  5  7  1  0
  7  8  1  0
  8  9  1  0
  9 10  1  0
 10 11  1  0
 11 12  1  0
 12 13  2  0
 13 14  1  0
 14 15  2  0
 15 16  1  0
  2 17  1  0
 17 18  2  0
 18 19  1  0
 19 20  2  0
 20 21  1  0
 21 22  2  0
 22 23  1  0
 22 24  1  0
 24 25  2  0
 25 26  1  0
 26 27  2  0
 11  7  1  0
 16 12  1  0
 27 17  1  0
 26 20  1  0
  3 28  1  0
  4 29  1  0
  4 30  1  0
  8 31  1  0
  8 32  1  0
  9 33  1  0
  9 34  1  0
 10 35  1  0
 10 36  1  0
 11 37  1  6
 14 38  1  0
 15 39  1  0
 18 40  1  0
 19 41  1  0
 21 42  1  0
 24 43  1  0
 25 44  1  0
M  END
>  <smiles>  (28) 
O=C(NCC(=O)N1CCC[C@@H]1c1ncco1)c1ccc2cc(Cl)ccc2n1

>  <score_type>  (28) 
oracle

>  <origin>  (28) 
autodockgpu

>  <m_score__min__energy>  (28) 
-7.7800000000000002

>  <m_primary>  (28) 
energy

>  <rmsd>  (28) 
3.9020833709466114

>  <m_score__min__rmsd>  (28) 
3.9020833709466114

>  <meeko>  (28) 
{"free_energy": -6.88, "intermolecular_energy": -8.37, "internal_energy": -2.02, "cluster_size": 8, "cluster_id": 5, "rank_in_cluster": 6}

>  <energy>  (28) 
-6.56

>  <cluster_rmsd>  (28) 
0.89

>  <cluster>  (28) 
4

$$$$

     RDKit          3D

 44 47  0  0  0  0  0  0  0  0999 V2000
  135.0680   68.5130  224.9940 O   0  0  0  0  0  0  0  0  0  0  0  0
  135.3530   69.7300  224.7790 C   0  0  0  0  0  0  0  0  0  0  0  0
  136.4170   69.9660  223.8530 N   0  0  0  0  0  0  0  0  0  0  0  0
  137.0500   68.8220  223.2660 C   0  0  0  0  0  0  0  0  0  0  0  0
  138.5380   68.9430  223.2590 C   0  0  0  0  0  0  0  0  0  0  0  0
  139.2690   68.3610  222.4180 O   0  0  0  0  0  0  0  0  0  0  0  0
  139.1640   69.7510  224.2450 N   0  0  0  0  0  0  0  0  0  0  0  0
  138.9370   69.6100  225.6910 C   0  0  0  0  0  0  0  0  0  0  0  0
  140.3040   70.0640  226.2240 C   0  0  0  0  0  0  0  0  0  0  0  0
  140.4740   71.3260  225.4030 C   0  0  0  0  0  0  0  0  0  0  0  0
  140.1080   70.8250  224.0210 C   0  0  2  0  0  0  0  0  0  0  0  0
  139.5670   71.9060  223.1680 C   0  0  0  0  0  0  0  0  0  0  0  0
  138.2970   72.0420  222.7030 N   0  0  0  0  0  0  0  0  0  0  0  0
  138.2390   73.1710  221.9640 C   0  0  0  0  0  0  0  0  0  0  0  0
  139.5160   73.7000  222.0050 C   0  0  0  0  0  0  0  0  0  0  0  0
  140.2890   72.9110  222.7410 O   0  0  0  0  0  0  0  0  0  0  0  0
  134.6470   70.8280  225.4270 C   0  0  0  0  0  0  0  0  0  0  0  0
  133.6840   70.5000  226.3590 C   0  0  0  0  0  0  0  0  0  0  0  0
  132.9740   71.4850  227.0140 C   0  0  0  0  0  0  0  0  0  0  0  0
  133.2280   72.8110  226.7380 C   0  0  0  0  0  0  0  0  0  0  0  0
  132.5110   73.7810  227.4010 C   0  0  0  0  0  0  0  0  0  0  0  0
  132.7730   75.1080  227.1160 C   0  0  0  0  0  0  0  0  0  0  0  0
  131.8680   76.3560  227.9520 Cl  0  0  0  0  0  0  0  0  0  0  0  0
  133.7390   75.4140  226.1830 C   0  0  0  0  0  0  0  0  0  0  0  0
  134.4490   74.4200  225.5270 C   0  0  0  0  0  0  0  0  0  0  0  0
  134.2010   73.0920  225.7980 C   0  0  0  0  0  0  0  0  0  0  0  0
  134.8920   72.1240  225.1600 N   0  0  0  0  0  0  0  0  0  0  0  0
  136.7080   70.9430  223.6250 H   0  0  0  0  0  0  0  0  0  0  0  0
  136.7699   67.9276  223.8419 H   0  0  0  0  0  0  0  0  0  0  0  0
  136.7121   68.7475  222.2218 H   0  0  0  0  0  0  0  0  0  0  0  0
  138.1249   70.2637  226.0419 H   0  0  0  0  0  0  0  0  0  0  0  0
  138.6251   68.6059  226.0142 H   0  0  0  0  0  0  0  0  0  0  0  0
  140.2761   70.2751  227.3032 H   0  0  0  0  0  0  0  0  0  0  0  0
  141.1155   69.3272  226.1309 H   0  0  0  0  0  0  0  0  0  0  0  0
  139.7914   72.1207  225.7382 H   0  0  0  0  0  0  0  0  0  0  0  0
  141.4742   71.7788  225.4704 H   0  0  0  0  0  0  0  0  0  0  0  0
  140.9863   70.4637  223.4660 H   0  0  0  0  0  0  0  0  0  0  0  0
  137.3629   73.5820  221.4411 H   0  0  0  0  0  0  0  0  0  0  0  0
  139.8394   74.6262  221.5074 H   0  0  0  0  0  0  0  0  0  0  0  0
  133.4802   69.4423  226.5821 H   0  0  0  0  0  0  0  0  0  0  0  0
  132.2074   71.2127  227.7544 H   0  0  0  0  0  0  0  0  0  0  0  0
  131.7458   73.5061  228.1419 H   0  0  0  0  0  0  0  0  0  0  0  0
  133.9515   76.4686  225.9536 H   0  0  0  0  0  0  0  0  0  0  0  0
  135.2147   74.6932  224.7859 H   0  0  0  0  0  0  0  0  0  0  0  0
  1  2  2  0
  2  3  1  0
  3  4  1  0
  4  5  1  0
  5  6  2  0
  5  7  1  0
  7  8  1  0
  8  9  1  0
  9 10  1  0
 10 11  1  0
 11 12  1  0
 12 13  2  0
 13 14  1  0
 14 15  2  0
 15 16  1  0
  2 17  1  0
 17 18  2  0
 18 19  1  0
 19 20  2  0
 20 21  1  0
 21 22  2  0
 22 23  1  0
 22 24  1  0
 24 25  2  0
 25 26  1  0
 26 27  2  0
 11  7  1  0
 16 12  1  0
 27 17  1  0
 26 20  1  0
  3 28  1  0
  4 29  1  0
  4 30  1  0
  8 31  1  0
  8 32  1  0
  9 33  1  0
  9 34  1  0
 10 35  1  0
 10 36  1  0
 11 37  1  6
 14 38  1  0
 15 39  1  0
 18 40  1  0
 19 41  1  0
 21 42  1  0
 24 43  1  0
 25 44  1  0
M  END
>  <smiles>  (29) 
O=C(NCC(=O)N1CCC[C@@H]1c1ncco1)c1ccc2cc(Cl)ccc2n1

>  <score_type>  (29) 
oracle

>  <origin>  (29) 
autodockgpu

>  <m_score__min__energy>  (29) 
-7.7800000000000002

>  <m_primary>  (29) 
energy

>  <rmsd>  (29) 
7.580576318831975

>  <m_score__min__rmsd>  (29) 
7.580576318831975

>  <meeko>  (29) 
{"free_energy": -6.25, "intermolecular_energy": -7.74, "internal_energy": -2.4, "cluster_size": 12, "cluster_id": 4, "rank_in_cluster": 11}

>  <energy>  (29) 
-6.25

>  <cluster_rmsd>  (29) 
1.14

>  <cluster>  (29) 
4

$$$$

     RDKit          3D

 44 47  0  0  0  0  0  0  0  0999 V2000
  141.9120   79.8490  218.4800 O   0  0  0  0  0  0  0  0  0  0  0  0
  141.5940   78.8220  219.1530 C   0  0  0  0  0  0  0  0  0  0  0  0
  140.4880   78.9820  220.0460 N   0  0  0  0  0  0  0  0  0  0  0  0
  139.8560   80.2660  220.0950 C   0  0  0  0  0  0  0  0  0  0  0  0
  140.2220   81.0290  221.3250 C   0  0  0  0  0  0  0  0  0  0  0  0
  139.7810   82.1790  221.5750 O   0  0  0  0  0  0  0  0  0  0  0  0
  141.1090   80.4340  222.2610 N   0  0  0  0  0  0  0  0  0  0  0  0
  142.5480   80.7300  222.3350 C   0  0  0  0  0  0  0  0  0  0  0  0
  142.7910   80.5150  223.8360 C   0  0  0  0  0  0  0  0  0  0  0  0
  142.0780   79.1890  224.0070 C   0  0  0  0  0  0  0  0  0  0  0  0
  140.7780   79.4620  223.2810 C   0  0  2  0  0  0  0  0  0  0  0  0
  140.1820   78.2250  222.7330 C   0  0  0  0  0  0  0  0  0  0  0  0
  140.8110   77.0520  222.4530 N   0  0  0  0  0  0  0  0  0  0  0  0
  139.8920   76.1880  221.9690 C   0  0  0  0  0  0  0  0  0  0  0  0
  138.6980   76.8860  221.9700 C   0  0  0  0  0  0  0  0  0  0  0  0
  138.9120   78.1100  222.4380 O   0  0  0  0  0  0  0  0  0  0  0  0
  142.3010   77.5530  219.0320 C   0  0  0  0  0  0  0  0  0  0  0  0
  142.9550   77.3040  217.8430 C   0  0  0  0  0  0  0  0  0  0  0  0
  143.6470   76.1240  217.6540 C   0  0  0  0  0  0  0  0  0  0  0  0
  143.6860   75.1850  218.6620 C   0  0  0  0  0  0  0  0  0  0  0  0
  144.3810   74.0150  218.4570 C   0  0  0  0  0  0  0  0  0  0  0  0
  144.4140   73.0790  219.4740 C   0  0  0  0  0  0  0  0  0  0  0  0
  145.2950   71.5830  219.2290 Cl  0  0  0  0  0  0  0  0  0  0  0  0
  143.7560   73.3480  220.6530 C   0  0  0  0  0  0  0  0  0  0  0  0
  143.0620   74.5350  220.8370 C   0  0  0  0  0  0  0  0  0  0  0  0
  143.0170   75.4790  219.8350 C   0  0  0  0  0  0  0  0  0  0  0  0
  142.3430   76.6340  220.0140 N   0  0  0  0  0  0  0  0  0  0  0  0
  140.1680   78.1800  220.6340 H   0  0  0  0  0  0  0  0  0  0  0  0
  140.1648   80.8465  219.2132 H   0  0  0  0  0  0  0  0  0  0  0  0
  138.7678   80.1061  220.1085 H   0  0  0  0  0  0  0  0  0  0  0  0
  143.1395   80.0337  221.7224 H   0  0  0  0  0  0  0  0  0  0  0  0
  142.8356   81.7225  221.9579 H   0  0  0  0  0  0  0  0  0  0  0  0
  143.8625   80.4402  224.0733 H   0  0  0  0  0  0  0  0  0  0  0  0
  142.4421   81.3265  224.4916 H   0  0  0  0  0  0  0  0  0  0  0  0
  142.6374   78.3664  223.5376 H   0  0  0  0  0  0  0  0  0  0  0  0
  141.9544   78.8731  225.0534 H   0  0  0  0  0  0  0  0  0  0  0  0
  140.0027   79.8534  223.9561 H   0  0  0  0  0  0  0  0  0  0  0  0
  140.0580   75.1505  221.6435 H   0  0  0  0  0  0  0  0  0  0  0  0
  137.7271   76.4907  221.6367 H   0  0  0  0  0  0  0  0  0  0  0  0
  142.9249   78.0527  217.0377 H   0  0  0  0  0  0  0  0  0  0  0  0
  144.1652   75.9342  216.7024 H   0  0  0  0  0  0  0  0  0  0  0  0
  144.8990   73.8286  217.5047 H   0  0  0  0  0  0  0  0  0  0  0  0
  143.7811   72.6068  221.4654 H   0  0  0  0  0  0  0  0  0  0  0  0
  142.5444   74.7235  221.7891 H   0  0  0  0  0  0  0  0  0  0  0  0
  1  2  2  0
  2  3  1  0
  3  4  1  0
  4  5  1  0
  5  6  2  0
  5  7  1  0
  7  8  1  0
  8  9  1  0
  9 10  1  0
 10 11  1  0
 11 12  1  0
 12 13  2  0
 13 14  1  0
 14 15  2  0
 15 16  1  0
  2 17  1  0
 17 18  2  0
 18 19  1  0
 19 20  2  0
 20 21  1  0
 21 22  2  0
 22 23  1  0
 22 24  1  0
 24 25  2  0
 25 26  1  0
 26 27  2  0
 11  7  1  0
 16 12  1  0
 27 17  1  0
 26 20  1  0
  3 28  1  0
  4 29  1  0
  4 30  1  0
  8 31  1  0
  8 32  1  0
  9 33  1  0
  9 34  1  0
 10 35  1  0
 10 36  1  0
 11 37  1  1
 14 38  1  0
 15 39  1  0
 18 40  1  0
 19 41  1  0
 21 42  1  0
 24 43  1  0
 25 44  1  0
M  END
>  <smiles>  (30) 
O=C(NCC(=O)N1CCC[C@@H]1c1ncco1)c1ccc2cc(Cl)ccc2n1

>  <score_type>  (30) 
oracle

>  <origin>  (30) 
autodockgpu

>  <m_score__min__energy>  (30) 
-7.7800000000000002

>  <m_primary>  (30) 
energy

>  <rmsd>  (30) 
7.877412741750227

>  <m_score__min__rmsd>  (30) 
7.877412741750227

>  <meeko>  (30) 
{"free_energy": -5.48, "intermolecular_energy": -6.97, "internal_energy": -3.15, "cluster_size": 3, "cluster_id": 9, "rank_in_cluster": 3}

>  <energy>  (30) 
-6.09

>  <cluster_rmsd>  (30) 
0.94

>  <cluster>  (30) 
4

$$$$

     RDKit          3D

 44 47  0  0  0  0  0  0  0  0999 V2000
  140.6850   72.5870  220.9170 O   0  0  0  0  0  0  0  0  0  0  0  0
  140.1710   72.8820  222.0390 C   0  0  0  0  0  0  0  0  0  0  0  0
  139.5910   74.1860  222.1340 N   0  0  0  0  0  0  0  0  0  0  0  0
  139.6450   75.0220  220.9710 C   0  0  0  0  0  0  0  0  0  0  0  0
  140.6030   76.1550  221.1350 C   0  0  0  0  0  0  0  0  0  0  0  0
  141.7040   76.2140  220.5310 O   0  0  0  0  0  0  0  0  0  0  0  0
  140.2620   77.2190  222.0120 N   0  0  0  0  0  0  0  0  0  0  0  0
  141.1540   77.7420  223.0570 C   0  0  0  0  0  0  0  0  0  0  0  0
  140.6960   79.2080  223.0940 C   0  0  0  0  0  0  0  0  0  0  0  0
  139.1970   78.9890  223.1390 C   0  0  0  0  0  0  0  0  0  0  0  0
  139.0210   77.9620  222.0400 C   0  0  2  0  0  0  0  0  0  0  0  0
  137.8370   77.1060  222.2710 C   0  0  0  0  0  0  0  0  0  0  0  0
  136.6490   77.1330  221.6120 N   0  0  0  0  0  0  0  0  0  0  0  0
  135.8510   76.1810  222.1430 C   0  0  0  0  0  0  0  0  0  0  0  0
  136.6040   75.5880  223.1400 C   0  0  0  0  0  0  0  0  0  0  0  0
  137.7960   76.1710  223.1870 O   0  0  0  0  0  0  0  0  0  0  0  0
  140.1640   71.9590  223.1670 C   0  0  0  0  0  0  0  0  0  0  0  0
  139.6050   70.7140  222.9630 C   0  0  0  0  0  0  0  0  0  0  0  0
  139.5620   69.7860  223.9840 C   0  0  0  0  0  0  0  0  0  0  0  0
  140.0830   70.1040  225.2200 C   0  0  0  0  0  0  0  0  0  0  0  0
  140.0320   69.1670  226.2260 C   0  0  0  0  0  0  0  0  0  0  0  0
  140.5580   69.4950  227.4620 C   0  0  0  0  0  0  0  0  0  0  0  0
  140.5010   68.3120  228.7550 Cl  0  0  0  0  0  0  0  0  0  0  0  0
  141.1120   70.7420  227.6440 C   0  0  0  0  0  0  0  0  0  0  0  0
  141.1520   71.6710  226.6150 C   0  0  0  0  0  0  0  0  0  0  0  0
  140.6330   71.3610  225.3760 C   0  0  0  0  0  0  0  0  0  0  0  0
  140.6720   72.2650  224.3750 N   0  0  0  0  0  0  0  0  0  0  0  0
  139.1490   74.5000  223.0260 H   0  0  0  0  0  0  0  0  0  0  0  0
  139.9607   74.4128  220.1112 H   0  0  0  0  0  0  0  0  0  0  0  0
  138.6428   75.4472  220.8139 H   0  0  0  0  0  0  0  0  0  0  0  0
  140.9906   77.2393  224.0217 H   0  0  0  0  0  0  0  0  0  0  0  0
  142.2272   77.5979  222.8632 H   0  0  0  0  0  0  0  0  0  0  0  0
  141.0630   79.7320  223.9888 H   0  0  0  0  0  0  0  0  0  0  0  0
  141.0569   79.8366  222.2666 H   0  0  0  0  0  0  0  0  0  0  0  0
  138.8755   78.5956  224.1146 H   0  0  0  0  0  0  0  0  0  0  0  0
  138.6012   79.9037  223.0040 H   0  0  0  0  0  0  0  0  0  0  0  0
  138.8246   78.4305  221.0643 H   0  0  0  0  0  0  0  0  0  0  0  0
  134.8219   75.9309  221.8458 H   0  0  0  0  0  0  0  0  0  0  0  0
  136.2693   74.7657  223.7895 H   0  0  0  0  0  0  0  0  0  0  0  0
  139.1895   70.4585  221.9770 H   0  0  0  0  0  0  0  0  0  0  0  0
  139.1136   68.7964  223.8119 H   0  0  0  0  0  0  0  0  0  0  0  0
  139.5826   68.1784  226.0509 H   0  0  0  0  0  0  0  0  0  0  0  0
  141.5316   71.0070  228.6257 H   0  0  0  0  0  0  0  0  0  0  0  0
  141.6002   72.6605  226.7884 H   0  0  0  0  0  0  0  0  0  0  0  0
  1  2  2  0
  2  3  1  0
  3  4  1  0
  4  5  1  0
  5  6  2  0
  5  7  1  0
  7  8  1  0
  8  9  1  0
  9 10  1  0
 10 11  1  0
 11 12  1  0
 12 13  2  0
 13 14  1  0
 14 15  2  0
 15 16  1  0
  2 17  1  0
 17 18  2  0
 18 19  1  0
 19 20  2  0
 20 21  1  0
 21 22  2  0
 22 23  1  0
 22 24  1  0
 24 25  2  0
 25 26  1  0
 26 27  2  0
 11  7  1  0
 16 12  1  0
 27 17  1  0
 26 20  1  0
  3 28  1  0
  4 29  1  0
  4 30  1  0
  8 31  1  0
  8 32  1  0
  9 33  1  0
  9 34  1  0
 10 35  1  0
 10 36  1  0
 11 37  1  6
 14 38  1  0
 15 39  1  0
 18 40  1  0
 19 41  1  0
 21 42  1  0
 24 43  1  0
 25 44  1  0
M  END
>  <smiles>  (31) 
O=C(NCC(=O)N1CCC[C@@H]1c1ncco1)c1ccc2cc(Cl)ccc2n1

>  <score_type>  (31) 
oracle

>  <origin>  (31) 
autodockgpu

>  <m_score__min__energy>  (31) 
-7.7800000000000002

>  <m_primary>  (31) 
energy

>  <rmsd>  (31) 
4.006835741604685

>  <m_score__min__rmsd>  (31) 
4.006835741604685

>  <meeko>  (31) 
{"free_energy": -6.91, "intermolecular_energy": -8.4, "internal_energy": -2.04, "cluster_size": 8, "cluster_id": 5, "rank_in_cluster": 5}

>  <energy>  (31) 
-6.98

>  <cluster_rmsd>  (31) 
0.0

>  <cluster>  (31) 
5

$$$$

     RDKit          3D

 44 47  0  0  0  0  0  0  0  0999 V2000
  140.4860   72.6770  220.9510 O   0  0  0  0  0  0  0  0  0  0  0  0
  139.8240   72.8230  222.0220 C   0  0  0  0  0  0  0  0  0  0  0  0
  138.9570   73.9600  222.0690 N   0  0  0  0  0  0  0  0  0  0  0  0
  138.9210   74.8130  220.9190 C   0  0  0  0  0  0  0  0  0  0  0  0
  140.0320   75.8100  220.9200 C   0  0  0  0  0  0  0  0  0  0  0  0
  141.0210   75.7350  220.1480 O   0  0  0  0  0  0  0  0  0  0  0  0
  139.9760   76.8960  221.8340 N   0  0  0  0  0  0  0  0  0  0  0  0
  141.0840   77.2830  222.7210 C   0  0  0  0  0  0  0  0  0  0  0  0
  140.8320   78.7950  222.8220 C   0  0  0  0  0  0  0  0  0  0  0  0
  139.3440   78.7720  223.1060 C   0  0  0  0  0  0  0  0  0  0  0  0
  138.8620   77.7930  222.0560 C   0  0  2  0  0  0  0  0  0  0  0  0
  137.6290   77.0940  222.4770 C   0  0  0  0  0  0  0  0  0  0  0  0
  136.3530   77.3480  222.0850 N   0  0  0  0  0  0  0  0  0  0  0  0
  135.5370   76.4730  222.7130 C   0  0  0  0  0  0  0  0  0  0  0  0
  136.3710   75.6910  223.4910 C   0  0  0  0  0  0  0  0  0  0  0  0
  137.6250   76.0940  223.3230 O   0  0  0  0  0  0  0  0  0  0  0  0
  139.9290   71.8960  223.1430 C   0  0  0  0  0  0  0  0  0  0  0  0
  139.5000   70.6010  222.9360 C   0  0  0  0  0  0  0  0  0  0  0  0
  139.5680   69.6670  223.9490 C   0  0  0  0  0  0  0  0  0  0  0  0
  140.0700   70.0280  225.1810 C   0  0  0  0  0  0  0  0  0  0  0  0
  140.1310   69.0840  226.1800 C   0  0  0  0  0  0  0  0  0  0  0  0
  140.6370   69.4560  227.4120 C   0  0  0  0  0  0  0  0  0  0  0  0
  140.7210   68.2650  228.6960 Cl  0  0  0  0  0  0  0  0  0  0  0  0
  141.0600   70.7530  227.5970 C   0  0  0  0  0  0  0  0  0  0  0  0
  140.9880   71.6880  226.5750 C   0  0  0  0  0  0  0  0  0  0  0  0
  140.4880   71.3350  225.3410 C   0  0  0  0  0  0  0  0  0  0  0  0
  140.4180   72.2450  224.3470 N   0  0  0  0  0  0  0  0  0  0  0  0
  138.3790   74.1450  222.9190 H   0  0  0  0  0  0  0  0  0  0  0  0
  139.0035   74.1920  220.0148 H   0  0  0  0  0  0  0  0  0  0  0  0
  137.9709   75.3669  220.9397 H   0  0  0  0  0  0  0  0  0  0  0  0
  141.0119   76.7910  223.7022 H   0  0  0  0  0  0  0  0  0  0  0  0
  142.0848   77.0040  222.3597 H   0  0  0  0  0  0  0  0  0  0  0  0
  141.4012   79.2535  223.6440 H   0  0  0  0  0  0  0  0  0  0  0  0
  141.1358   79.3837  221.9439 H   0  0  0  0  0  0  0  0  0  0  0  0
  139.1328   78.4096  224.1229 H   0  0  0  0  0  0  0  0  0  0  0  0
  138.8595   79.7585  223.0612 H   0  0  0  0  0  0  0  0  0  0  0  0
  138.5743   78.2981  221.1221 H   0  0  0  0  0  0  0  0  0  0  0  0
  134.4431   76.3986  222.6243 H   0  0  0  0  0  0  0  0  0  0  0  0
  136.0475   74.8672  224.1442 H   0  0  0  0  0  0  0  0  0  0  0  0
  139.0998   70.3105  221.9534 H   0  0  0  0  0  0  0  0  0  0  0  0
  139.2227   68.6374  223.7742 H   0  0  0  0  0  0  0  0  0  0  0  0
  139.7846   68.0552  226.0025 H   0  0  0  0  0  0  0  0  0  0  0  0
  141.4633   71.0539  228.5752 H   0  0  0  0  0  0  0  0  0  0  0  0
  141.3323   72.7178  226.7510 H   0  0  0  0  0  0  0  0  0  0  0  0
  1  2  2  0
  2  3  1  0
  3  4  1  0
  4  5  1  0
  5  6  2  0
  5  7  1  0
  7  8  1  0
  8  9  1  0
  9 10  1  0
 10 11  1  0
 11 12  1  0
 12 13  2  0
 13 14  1  0
 14 15  2  0
 15 16  1  0
  2 17  1  0
 17 18  2  0
 18 19  1  0
 19 20  2  0
 20 21  1  0
 21 22  2  0
 22 23  1  0
 22 24  1  0
 24 25  2  0
 25 26  1  0
 26 27  2  0
 11  7  1  0
 16 12  1  0
 27 17  1  0
 26 20  1  0
  3 28  1  0
  4 29  1  0
  4 30  1  0
  8 31  1  0
  8 32  1  0
  9 33  1  0
  9 34  1  0
 10 35  1  0
 10 36  1  0
 11 37  1  6
 14 38  1  0
 15 39  1  0
 18 40  1  0
 19 41  1  0
 21 42  1  0
 24 43  1  0
 25 44  1  0
M  END
>  <smiles>  (32) 
O=C(NCC(=O)N1CCC[C@@H]1c1ncco1)c1ccc2cc(Cl)ccc2n1

>  <score_type>  (32) 
oracle

>  <origin>  (32) 
autodockgpu

>  <m_score__min__energy>  (32) 
-7.7800000000000002

>  <m_primary>  (32) 
energy

>  <rmsd>  (32) 
3.8779901910367722

>  <m_score__min__rmsd>  (32) 
3.8779901910367722

>  <meeko>  (32) 
{"free_energy": -6.92, "intermolecular_energy": -8.41, "internal_energy": -2.04, "cluster_size": 8, "cluster_id": 5, "rank_in_cluster": 4}

>  <energy>  (32) 
-6.94

>  <cluster_rmsd>  (32) 
0.1

>  <cluster>  (32) 
5

$$$$

     RDKit          3D

 44 47  0  0  0  0  0  0  0  0999 V2000
  141.8310   72.3220  221.2490 O   0  0  0  0  0  0  0  0  0  0  0  0
  141.0840   73.1770  221.8140 C   0  0  0  0  0  0  0  0  0  0  0  0
  140.1450   72.6560  222.7580 N   0  0  0  0  0  0  0  0  0  0  0  0
  140.1370   71.2390  222.9720 C   0  0  0  0  0  0  0  0  0  0  0  0
  139.1090   70.8250  223.9720 C   0  0  0  0  0  0  0  0  0  0  0  0
  137.9910   71.3890  224.0790 O   0  0  0  0  0  0  0  0  0  0  0  0
  139.4000   69.7440  224.8470 N   0  0  0  0  0  0  0  0  0  0  0  0
  138.4940   68.6110  225.0850 C   0  0  0  0  0  0  0  0  0  0  0  0
  139.5180   67.5030  225.3740 C   0  0  0  0  0  0  0  0  0  0  0  0
  140.4000   68.2430  226.3590 C   0  0  0  0  0  0  0  0  0  0  0  0
  140.5980   69.5600  225.6380 C   0  0  2  0  0  0  0  0  0  0  0  0
  140.8480   70.6730  226.5800 C   0  0  0  0  0  0  0  0  0  0  0  0
  140.6320   70.6910  227.9220 N   0  0  0  0  0  0  0  0  0  0  0  0
  140.9970   71.9040  228.3910 C   0  0  0  0  0  0  0  0  0  0  0  0
  141.4370   72.6050  227.2830 C   0  0  0  0  0  0  0  0  0  0  0  0
  141.3330   71.8310  226.2100 O   0  0  0  0  0  0  0  0  0  0  0  0
  141.1690   74.6040  221.5290 C   0  0  0  0  0  0  0  0  0  0  0  0
  141.9160   74.9880  220.4340 C   0  0  0  0  0  0  0  0  0  0  0  0
  142.0420   76.3210  220.1010 C   0  0  0  0  0  0  0  0  0  0  0  0
  141.4170   77.2810  220.8680 C   0  0  0  0  0  0  0  0  0  0  0  0
  141.5540   78.6050  220.5210 C   0  0  0  0  0  0  0  0  0  0  0  0
  140.9230   79.5600  221.2970 C   0  0  0  0  0  0  0  0  0  0  0  0
  141.0870   81.2530  220.8690 Cl  0  0  0  0  0  0  0  0  0  0  0  0
  140.1820   79.1560  222.3850 C   0  0  0  0  0  0  0  0  0  0  0  0
  140.0590   77.8150  222.7150 C   0  0  0  0  0  0  0  0  0  0  0  0
  140.6800   76.8490  221.9540 C   0  0  0  0  0  0  0  0  0  0  0  0
  140.5600   75.5440  222.2750 N   0  0  0  0  0  0  0  0  0  0  0  0
  139.4960   73.3000  223.2640 H   0  0  0  0  0  0  0  0  0  0  0  0
  139.9235   70.7377  222.0164 H   0  0  0  0  0  0  0  0  0  0  0  0
  141.1238   70.9513  223.3637 H   0  0  0  0  0  0  0  0  0  0  0  0
  137.8338   68.7908  225.9463 H   0  0  0  0  0  0  0  0  0  0  0  0
  137.7986   68.3942  224.2607 H   0  0  0  0  0  0  0  0  0  0  0  0
  139.0493   66.6164  225.8259 H   0  0  0  0  0  0  0  0  0  0  0  0
  140.0339   67.0952  224.4922 H   0  0  0  0  0  0  0  0  0  0  0  0
  139.8953   68.3840  227.3262 H   0  0  0  0  0  0  0  0  0  0  0  0
  141.3341   67.7202  226.6124 H   0  0  0  0  0  0  0  0  0  0  0  0
  141.4918   69.5489  224.9969 H   0  0  0  0  0  0  0  0  0  0  0  0
  140.9536   72.2584  229.4315 H   0  0  0  0  0  0  0  0  0  0  0  0
  141.8130   73.6387  227.2900 H   0  0  0  0  0  0  0  0  0  0  0  0
  142.4159   74.2238  219.8207 H   0  0  0  0  0  0  0  0  0  0  0  0
  142.6394   76.6169  219.2260 H   0  0  0  0  0  0  0  0  0  0  0  0
  142.1523   78.8977  219.6456 H   0  0  0  0  0  0  0  0  0  0  0  0
  139.6777   79.9121  223.0046 H   0  0  0  0  0  0  0  0  0  0  0  0
  139.4615   77.5204  223.5904 H   0  0  0  0  0  0  0  0  0  0  0  0
  1  2  2  0
  2  3  1  0
  3  4  1  0
  4  5  1  0
  5  6  2  0
  5  7  1  0
  7  8  1  0
  8  9  1  0
  9 10  1  0
 10 11  1  0
 11 12  1  0
 12 13  2  0
 13 14  1  0
 14 15  2  0
 15 16  1  0
  2 17  1  0
 17 18  2  0
 18 19  1  0
 19 20  2  0
 20 21  1  0
 21 22  2  0
 22 23  1  0
 22 24  1  0
 24 25  2  0
 25 26  1  0
 26 27  2  0
 11  7  1  0
 16 12  1  0
 27 17  1  0
 26 20  1  0
  3 28  1  0
  4 29  1  0
  4 30  1  0
  8 31  1  0
  8 32  1  0
  9 33  1  0
  9 34  1  0
 10 35  1  0
 10 36  1  0
 11 37  1  6
 14 38  1  0
 15 39  1  0
 18 40  1  0
 19 41  1  0
 21 42  1  0
 24 43  1  0
 25 44  1  0
M  END
>  <smiles>  (33) 
O=C(NCC(=O)N1CCC[C@@H]1c1ncco1)c1ccc2cc(Cl)ccc2n1

>  <score_type>  (33) 
oracle

>  <origin>  (33) 
autodockgpu

>  <m_score__min__energy>  (33) 
-7.7800000000000002

>  <m_primary>  (33) 
energy

>  <rmsd>  (33) 
8.767926288571207

>  <m_score__min__rmsd>  (33) 
8.767926288571207

>  <meeko>  (33) 
{"free_energy": -7.67, "intermolecular_energy": -9.16, "internal_energy": -1.63, "cluster_size": 8, "cluster_id": 1, "rank_in_cluster": 5}

>  <energy>  (33) 
-6.93

>  <cluster_rmsd>  (33) 
0.36

>  <cluster>  (33) 
5

$$$$

     RDKit          3D

 44 47  0  0  0  0  0  0  0  0999 V2000
  140.8290   72.6100  221.2350 O   0  0  0  0  0  0  0  0  0  0  0  0
  140.0730   72.7180  222.2480 C   0  0  0  0  0  0  0  0  0  0  0  0
  139.1540   73.8130  222.2250 N   0  0  0  0  0  0  0  0  0  0  0  0
  139.1750   74.6720  221.0770 C   0  0  0  0  0  0  0  0  0  0  0  0
  139.9180   75.9400  221.3350 C   0  0  0  0  0  0  0  0  0  0  0  0
  139.5130   76.8230  222.1320 O   0  0  0  0  0  0  0  0  0  0  0  0
  141.1430   76.1670  220.6520 N   0  0  0  0  0  0  0  0  0  0  0  0
  142.1570   75.1290  220.4140 C   0  0  0  0  0  0  0  0  0  0  0  0
  142.7540   75.6330  219.0920 C   0  0  0  0  0  0  0  0  0  0  0  0
  142.9470   77.0910  219.4560 C   0  0  0  0  0  0  0  0  0  0  0  0
  141.6060   77.4140  220.0820 C   0  0  2  0  0  0  0  0  0  0  0  0
  141.7100   78.5040  221.0760 C   0  0  0  0  0  0  0  0  0  0  0  0
  141.8350   78.3900  222.4250 N   0  0  0  0  0  0  0  0  0  0  0  0
  141.8960   79.6340  222.9480 C   0  0  0  0  0  0  0  0  0  0  0  0
  141.8040   80.4900  221.8650 C   0  0  0  0  0  0  0  0  0  0  0  0
  141.6940   79.7720  220.7540 O   0  0  0  0  0  0  0  0  0  0  0  0
  140.1270   71.7900  223.3700 C   0  0  0  0  0  0  0  0  0  0  0  0
  139.6770   70.5040  223.1510 C   0  0  0  0  0  0  0  0  0  0  0  0
  139.6970   69.5690  224.1660 C   0  0  0  0  0  0  0  0  0  0  0  0
  140.1720   69.9200  225.4110 C   0  0  0  0  0  0  0  0  0  0  0  0
  140.1850   68.9750  226.4110 C   0  0  0  0  0  0  0  0  0  0  0  0
  140.6630   69.3370  227.6570 C   0  0  0  0  0  0  0  0  0  0  0  0
  140.6860   68.1440  228.9420 Cl  0  0  0  0  0  0  0  0  0  0  0  0
  141.1080   70.6250  227.8540 C   0  0  0  0  0  0  0  0  0  0  0  0
  141.0850   71.5600  226.8310 C   0  0  0  0  0  0  0  0  0  0  0  0
  140.6130   71.2180  225.5830 C   0  0  0  0  0  0  0  0  0  0  0  0
  140.5900   72.1280  224.5870 N   0  0  0  0  0  0  0  0  0  0  0  0
  138.4990   73.9660  223.0240 H   0  0  0  0  0  0  0  0  0  0  0  0
  139.6603   74.1400  220.2454 H   0  0  0  0  0  0  0  0  0  0  0  0
  138.1350   74.9339  220.8323 H   0  0  0  0  0  0  0  0  0  0  0  0
  142.9087   75.1017  221.2166 H   0  0  0  0  0  0  0  0  0  0  0  0
  141.7673   74.1008  220.3828 H   0  0  0  0  0  0  0  0  0  0  0  0
  143.7073   75.1379  218.8552 H   0  0  0  0  0  0  0  0  0  0  0  0
  142.1424   75.4471  218.1968 H   0  0  0  0  0  0  0  0  0  0  0  0
  143.7699   77.2224  220.1740 H   0  0  0  0  0  0  0  0  0  0  0  0
  143.2186   77.7373  218.6084 H   0  0  0  0  0  0  0  0  0  0  0  0
  140.8864   77.7964  219.3431 H   0  0  0  0  0  0  0  0  0  0  0  0
  141.9972   79.9079  224.0085 H   0  0  0  0  0  0  0  0  0  0  0  0
  141.8195   81.5887  221.9164 H   0  0  0  0  0  0  0  0  0  0  0  0
  139.2986   70.2213  222.1576 H   0  0  0  0  0  0  0  0  0  0  0  0
  139.3349   68.5468  223.9817 H   0  0  0  0  0  0  0  0  0  0  0  0
  139.8229   67.9534  226.2233 H   0  0  0  0  0  0  0  0  0  0  0  0
  141.4895   70.9179  228.8433 H   0  0  0  0  0  0  0  0  0  0  0  0
  141.4462   72.5822  227.0171 H   0  0  0  0  0  0  0  0  0  0  0  0
  1  2  2  0
  2  3  1  0
  3  4  1  0
  4  5  1  0
  5  6  2  0
  5  7  1  0
  7  8  1  0
  8  9  1  0
  9 10  1  0
 10 11  1  0
 11 12  1  0
 12 13  2  0
 13 14  1  0
 14 15  2  0
 15 16  1  0
  2 17  1  0
 17 18  2  0
 18 19  1  0
 19 20  2  0
 20 21  1  0
 21 22  2  0
 22 23  1  0
 22 24  1  0
 24 25  2  0
 25 26  1  0
 26 27  2  0
 11  7  1  0
 16 12  1  0
 27 17  1  0
 26 20  1  0
  3 28  1  0
  4 29  1  0
  4 30  1  0
  8 31  1  0
  8 32  1  0
  9 33  1  0
  9 34  1  0
 10 35  1  0
 10 36  1  0
 11 37  1  6
 14 38  1  0
 15 39  1  0
 18 40  1  0
 19 41  1  0
 21 42  1  0
 24 43  1  0
 25 44  1  0
M  END
>  <smiles>  (34) 
O=C(NCC(=O)N1CCC[C@@H]1c1ncco1)c1ccc2cc(Cl)ccc2n1

>  <score_type>  (34) 
oracle

>  <origin>  (34) 
autodockgpu

>  <m_score__min__energy>  (34) 
-7.7800000000000002

>  <m_primary>  (34) 
energy

>  <rmsd>  (34) 
2.0080603112139777

>  <m_score__min__rmsd>  (34) 
2.0080603112139777

>  <meeko>  (34) 
{"free_energy": -7.43, "intermolecular_energy": -8.92, "internal_energy": -1.31, "cluster_size": 6, "cluster_id": 2, "rank_in_cluster": 3}

>  <energy>  (34) 
-6.92

>  <cluster_rmsd>  (34) 
0.4

>  <cluster>  (34) 
5

$$$$

     RDKit          3D

 44 47  0  0  0  0  0  0  0  0999 V2000
  141.8530   78.4010  217.2620 O   0  0  0  0  0  0  0  0  0  0  0  0
  142.3250   77.8850  218.3200 C   0  0  0  0  0  0  0  0  0  0  0  0
  142.2140   78.6800  219.5030 N   0  0  0  0  0  0  0  0  0  0  0  0
  141.5890   79.9640  219.3830 C   0  0  0  0  0  0  0  0  0  0  0  0
  140.8590   80.3550  220.6250 C   0  0  0  0  0  0  0  0  0  0  0  0
  139.7690   80.9800  220.6120 O   0  0  0  0  0  0  0  0  0  0  0  0
  141.4160   80.0060  221.8850 N   0  0  0  0  0  0  0  0  0  0  0  0
  142.7100   80.5010  222.3780 C   0  0  0  0  0  0  0  0  0  0  0  0
  142.4370   80.5100  223.8890 C   0  0  0  0  0  0  0  0  0  0  0  0
  141.8250   79.1320  224.0310 C   0  0  0  0  0  0  0  0  0  0  0  0
  140.8370   79.1340  222.8830 C   0  0  2  0  0  0  0  0  0  0  0  0
  140.5750   77.7680  222.3790 C   0  0  0  0  0  0  0  0  0  0  0  0
  139.4590   77.0130  222.5630 N   0  0  0  0  0  0  0  0  0  0  0  0
  139.6420   75.8320  221.9310 C   0  0  0  0  0  0  0  0  0  0  0  0
  140.9020   75.9120  221.3670 C   0  0  0  0  0  0  0  0  0  0  0  0
  141.4340   77.0930  221.6580 O   0  0  0  0  0  0  0  0  0  0  0  0
  142.9440   76.5650  218.3420 C   0  0  0  0  0  0  0  0  0  0  0  0
  142.9530   75.8510  217.1610 C   0  0  0  0  0  0  0  0  0  0  0  0
  143.5210   74.5940  217.1040 C   0  0  0  0  0  0  0  0  0  0  0  0
  144.0860   74.0460  218.2350 C   0  0  0  0  0  0  0  0  0  0  0  0
  144.6480   72.7920  218.1600 C   0  0  0  0  0  0  0  0  0  0  0  0
  145.2120   72.2500  219.3000 C   0  0  0  0  0  0  0  0  0  0  0  0
  145.9320   70.6540  219.2210 Cl  0  0  0  0  0  0  0  0  0  0  0  0
  145.1930   72.9800  220.4680 C   0  0  0  0  0  0  0  0  0  0  0  0
  144.6200   74.2420  220.5190 C   0  0  0  0  0  0  0  0  0  0  0  0
  144.0530   74.7980  219.3930 C   0  0  0  0  0  0  0  0  0  0  0  0
  143.4960   76.0260  219.4440 N   0  0  0  0  0  0  0  0  0  0  0  0
  142.5800   78.3210  220.4130 H   0  0  0  0  0  0  0  0  0  0  0  0
  142.3637   80.7169  219.1757 H   0  0  0  0  0  0  0  0  0  0  0  0
  140.8561   79.9073  218.5647 H   0  0  0  0  0  0  0  0  0  0  0  0
  143.5335   79.8202  222.1165 H   0  0  0  0  0  0  0  0  0  0  0  0
  143.0249   81.4683  221.9594 H   0  0  0  0  0  0  0  0  0  0  0  0
  143.3628   80.6118  224.4742 H   0  0  0  0  0  0  0  0  0  0  0  0
  141.8151   81.3420  224.2511 H   0  0  0  0  0  0  0  0  0  0  0  0
  142.5799   78.3407  223.9127 H   0  0  0  0  0  0  0  0  0  0  0  0
  141.3754   78.9351  225.0154 H   0  0  0  0  0  0  0  0  0  0  0  0
  139.8460   79.4982  223.1918 H   0  0  0  0  0  0  0  0  0  0  0  0
  138.9388   74.9878  221.8770 H   0  0  0  0  0  0  0  0  0  0  0  0
  141.3861   75.1233  220.7724 H   0  0  0  0  0  0  0  0  0  0  0  0
  142.5035   76.2874  216.2568 H   0  0  0  0  0  0  0  0  0  0  0  0
  143.5225   74.0316  216.1586 H   0  0  0  0  0  0  0  0  0  0  0  0
  144.6484   72.2326  217.2129 H   0  0  0  0  0  0  0  0  0  0  0  0
  145.6409   72.5538  221.3778 H   0  0  0  0  0  0  0  0  0  0  0  0
  144.6182   74.8031  221.4652 H   0  0  0  0  0  0  0  0  0  0  0  0
  1  2  2  0
  2  3  1  0
  3  4  1  0
  4  5  1  0
  5  6  2  0
  5  7  1  0
  7  8  1  0
  8  9  1  0
  9 10  1  0
 10 11  1  0
 11 12  1  0
 12 13  2  0
 13 14  1  0
 14 15  2  0
 15 16  1  0
  2 17  1  0
 17 18  2  0
 18 19  1  0
 19 20  2  0
 20 21  1  0
 21 22  2  0
 22 23  1  0
 22 24  1  0
 24 25  2  0
 25 26  1  0
 26 27  2  0
 11  7  1  0
 16 12  1  0
 27 17  1  0
 26 20  1  0
  3 28  1  0
  4 29  1  0
  4 30  1  0
  8 31  1  0
  8 32  1  0
  9 33  1  0
  9 34  1  0
 10 35  1  0
 10 36  1  0
 11 37  1  1
 14 38  1  0
 15 39  1  0
 18 40  1  0
 19 41  1  0
 21 42  1  0
 24 43  1  0
 25 44  1  0
M  END
>  <smiles>  (35) 
O=C(NCC(=O)N1CCC[C@@H]1c1ncco1)c1ccc2cc(Cl)ccc2n1

>  <score_type>  (35) 
oracle

>  <origin>  (35) 
autodockgpu

>  <m_score__min__energy>  (35) 
-7.7800000000000002

>  <m_primary>  (35) 
energy

>  <rmsd>  (35) 
7.829143691876004

>  <m_score__min__rmsd>  (35) 
7.829143691876004

>  <meeko>  (35) 
{"free_energy": -6.0, "intermolecular_energy": -7.5, "internal_energy": -2.66, "cluster_size": 3, "cluster_id": 9, "rank_in_cluster": 1}

>  <energy>  (35) 
-6.91

>  <cluster_rmsd>  (35) 
0.17

>  <cluster>  (35) 
5

$$$$

     RDKit          3D

 44 47  0  0  0  0  0  0  0  0999 V2000
  141.5610   73.1050  220.8660 O   0  0  0  0  0  0  0  0  0  0  0  0
  140.7990   73.9230  221.4640 C   0  0  0  0  0  0  0  0  0  0  0  0
  139.7140   73.3430  222.1940 N   0  0  0  0  0  0  0  0  0  0  0  0
  139.5940   71.9160  222.1800 C   0  0  0  0  0  0  0  0  0  0  0  0
  139.4880   71.3440  223.5550 C   0  0  0  0  0  0  0  0  0  0  0  0
  140.4340   71.3670  224.3810 O   0  0  0  0  0  0  0  0  0  0  0  0
  138.2630   70.7470  223.9550 N   0  0  0  0  0  0  0  0  0  0  0  0
  137.0110   71.4910  224.1580 C   0  0  0  0  0  0  0  0  0  0  0  0
  135.9890   70.4080  223.7820 C   0  0  0  0  0  0  0  0  0  0  0  0
  136.5550   69.2560  224.5860 C   0  0  0  0  0  0  0  0  0  0  0  0
  138.0240   69.3460  224.2280 C   0  0  2  0  0  0  0  0  0  0  0  0
  138.8870   68.8080  225.3030 C   0  0  0  0  0  0  0  0  0  0  0  0
  139.4720   69.4930  226.3210 N   0  0  0  0  0  0  0  0  0  0  0  0
  140.1720   68.6140  227.0710 C   0  0  0  0  0  0  0  0  0  0  0  0
  139.9840   67.3860  226.4640 C   0  0  0  0  0  0  0  0  0  0  0  0
  139.2030   67.5420  225.4020 O   0  0  0  0  0  0  0  0  0  0  0  0
  141.0060   75.3660  221.4200 C   0  0  0  0  0  0  0  0  0  0  0  0
  141.8210   75.8580  220.4210 C   0  0  0  0  0  0  0  0  0  0  0  0
  142.0630   77.2130  220.3160 C   0  0  0  0  0  0  0  0  0  0  0  0
  141.4860   78.0840  221.2140 C   0  0  0  0  0  0  0  0  0  0  0  0
  141.7390   79.4310  221.0940 C   0  0  0  0  0  0  0  0  0  0  0  0
  141.1550   80.2970  222.0000 C   0  0  0  0  0  0  0  0  0  0  0  0
  141.4670   82.0170  221.8600 Cl  0  0  0  0  0  0  0  0  0  0  0  0
  140.3450   79.7850  222.9890 C   0  0  0  0  0  0  0  0  0  0  0  0
  140.1050   78.4230  223.0910 C   0  0  0  0  0  0  0  0  0  0  0  0
  140.6780   77.5450  222.1960 C   0  0  0  0  0  0  0  0  0  0  0  0
  140.4440   76.2200  222.2950 N   0  0  0  0  0  0  0  0  0  0  0  0
  139.0450   73.9540  222.7130 H   0  0  0  0  0  0  0  0  0  0  0  0
  138.6925   71.6421  221.6122 H   0  0  0  0  0  0  0  0  0  0  0  0
  140.5018   71.5060  221.7134 H   0  0  0  0  0  0  0  0  0  0  0  0
  136.8948   71.8161  225.2024 H   0  0  0  0  0  0  0  0  0  0  0  0
  136.9291   72.4238  223.5808 H   0  0  0  0  0  0  0  0  0  0  0  0
  134.9707   70.6732  224.1025 H   0  0  0  0  0  0  0  0  0  0  0  0
  135.8744   70.2205  222.7042 H   0  0  0  0  0  0  0  0  0  0  0  0
  136.3929   69.3984  225.6646 H   0  0  0  0  0  0  0  0  0  0  0  0
  136.0944   68.2814  224.3670 H   0  0  0  0  0  0  0  0  0  0  0  0
  138.2746   68.7294  223.3522 H   0  0  0  0  0  0  0  0  0  0  0  0
  140.7649   68.8293  227.9722 H   0  0  0  0  0  0  0  0  0  0  0  0
  140.4128   66.4326  226.8063 H   0  0  0  0  0  0  0  0  0  0  0  0
  142.2818   75.1645  219.7022 H   0  0  0  0  0  0  0  0  0  0  0  0
  142.7150   77.5963  219.5173 H   0  0  0  0  0  0  0  0  0  0  0  0
  142.3919   79.8109  220.2944 H   0  0  0  0  0  0  0  0  0  0  0  0
  139.8790   80.4701  223.7126 H   0  0  0  0  0  0  0  0  0  0  0  0
  139.4535   78.0410  223.8908 H   0  0  0  0  0  0  0  0  0  0  0  0
  1  2  2  0
  2  3  1  0
  3  4  1  0
  4  5  1  0
  5  6  2  0
  5  7  1  0
  7  8  1  0
  8  9  1  0
  9 10  1  0
 10 11  1  0
 11 12  1  0
 12 13  2  0
 13 14  1  0
 14 15  2  0
 15 16  1  0
  2 17  1  0
 17 18  2  0
 18 19  1  0
 19 20  2  0
 20 21  1  0
 21 22  2  0
 22 23  1  0
 22 24  1  0
 24 25  2  0
 25 26  1  0
 26 27  2  0
 11  7  1  0
 16 12  1  0
 27 17  1  0
 26 20  1  0
  3 28  1  0
  4 29  1  0
  4 30  1  0
  8 31  1  0
  8 32  1  0
  9 33  1  0
  9 34  1  0
 10 35  1  0
 10 36  1  0
 11 37  1  6
 14 38  1  0
 15 39  1  0
 18 40  1  0
 19 41  1  0
 21 42  1  0
 24 43  1  0
 25 44  1  0
M  END
>  <smiles>  (36) 
O=C(NCC(=O)N1CCC[C@@H]1c1ncco1)c1ccc2cc(Cl)ccc2n1

>  <score_type>  (36) 
oracle

>  <origin>  (36) 
autodockgpu

>  <m_score__min__energy>  (36) 
-7.7800000000000002

>  <m_primary>  (36) 
energy

>  <rmsd>  (36) 
9.001418037391021

>  <m_score__min__rmsd>  (36) 
9.001418037391021

>  <meeko>  (36) 
{"free_energy": -7.42, "intermolecular_energy": -8.91, "internal_energy": -1.3, "cluster_size": 8, "cluster_id": 1, "rank_in_cluster": 8}

>  <energy>  (36) 
-6.88

>  <cluster_rmsd>  (36) 
0.68

>  <cluster>  (36) 
5

$$$$

     RDKit          3D

 44 47  0  0  0  0  0  0  0  0999 V2000
  140.0580   74.0480  222.0330 O   0  0  0  0  0  0  0  0  0  0  0  0
  140.2360   72.7990  221.9140 C   0  0  0  0  0  0  0  0  0  0  0  0
  140.4500   72.3240  220.5820 N   0  0  0  0  0  0  0  0  0  0  0  0
  140.4430   73.2910  219.5250 C   0  0  0  0  0  0  0  0  0  0  0  0
  141.6890   73.2400  218.7050 C   0  0  0  0  0  0  0  0  0  0  0  0
  141.6820   73.1900  217.4490 O   0  0  0  0  0  0  0  0  0  0  0  0
  142.9460   73.2500  219.3670 N   0  0  0  0  0  0  0  0  0  0  0  0
  144.0170   74.2170  219.0860 C   0  0  0  0  0  0  0  0  0  0  0  0
  144.6790   74.2960  220.4700 C   0  0  0  0  0  0  0  0  0  0  0  0
  144.7850   72.8150  220.7700 C   0  0  0  0  0  0  0  0  0  0  0  0
  143.3930   72.3450  220.4040 C   0  0  2  0  0  0  0  0  0  0  0  0
  143.3830   70.9270  219.9810 C   0  0  0  0  0  0  0  0  0  0  0  0
  142.3040   70.1270  219.7770 N   0  0  0  0  0  0  0  0  0  0  0  0
  142.7480   68.9090  219.3980 C   0  0  0  0  0  0  0  0  0  0  0  0
  144.1270   69.0120  219.3840 C   0  0  0  0  0  0  0  0  0  0  0  0
  144.4730   70.2440  219.7410 O   0  0  0  0  0  0  0  0  0  0  0  0
  140.2270   71.8920  223.0550 C   0  0  0  0  0  0  0  0  0  0  0  0
  139.7330   70.6200  222.8500 C   0  0  0  0  0  0  0  0  0  0  0  0
  139.6910   69.7060  223.8830 C   0  0  0  0  0  0  0  0  0  0  0  0
  140.1490   70.0640  225.1330 C   0  0  0  0  0  0  0  0  0  0  0  0
  140.1010   69.1390  226.1510 C   0  0  0  0  0  0  0  0  0  0  0  0
  140.5620   69.5080  227.4010 C   0  0  0  0  0  0  0  0  0  0  0  0
  140.5080   68.3420  228.7090 Cl  0  0  0  0  0  0  0  0  0  0  0  0
  141.0510   70.7820  227.5850 C   0  0  0  0  0  0  0  0  0  0  0  0
  141.0900   71.6970  226.5430 C   0  0  0  0  0  0  0  0  0  0  0  0
  140.6350   71.3470  225.2900 C   0  0  0  0  0  0  0  0  0  0  0  0
  140.6720   72.2370  224.2770 N   0  0  0  0  0  0  0  0  0  0  0  0
  140.6050   71.3060  220.4050 H   0  0  0  0  0  0  0  0  0  0  0  0
  139.5805   73.0946  218.8711 H   0  0  0  0  0  0  0  0  0  0  0  0
  140.3804   74.2897  219.9818 H   0  0  0  0  0  0  0  0  0  0  0  0
  144.7138   73.8430  218.3214 H   0  0  0  0  0  0  0  0  0  0  0  0
  143.6749   75.1811  218.6816 H   0  0  0  0  0  0  0  0  0  0  0  0
  145.6662   74.7795  220.4275 H   0  0  0  0  0  0  0  0  0  0  0  0
  144.1370   74.8917  221.2192 H   0  0  0  0  0  0  0  0  0  0  0  0
  145.5516   72.3307  220.1473 H   0  0  0  0  0  0  0  0  0  0  0  0
  145.0852   72.5821  221.8023 H   0  0  0  0  0  0  0  0  0  0  0  0
  142.7094   72.3704  221.2654 H   0  0  0  0  0  0  0  0  0  0  0  0
  142.1422   68.0242  219.1529 H   0  0  0  0  0  0  0  0  0  0  0  0
  144.8250   68.2039  219.1198 H   0  0  0  0  0  0  0  0  0  0  0  0
  139.3689   70.3316  221.8529 H   0  0  0  0  0  0  0  0  0  0  0  0
  139.2934   68.6951  223.7096 H   0  0  0  0  0  0  0  0  0  0  0  0
  139.7045   68.1283  225.9739 H   0  0  0  0  0  0  0  0  0  0  0  0
  141.4181   71.0802  228.5782 H   0  0  0  0  0  0  0  0  0  0  0  0
  141.4865   72.7080  226.7179 H   0  0  0  0  0  0  0  0  0  0  0  0
  1  2  2  0
  2  3  1  0
  3  4  1  0
  4  5  1  0
  5  6  2  0
  5  7  1  0
  7  8  1  0
  8  9  1  0
  9 10  1  0
 10 11  1  0
 11 12  1  0
 12 13  2  0
 13 14  1  0
 14 15  2  0
 15 16  1  0
  2 17  1  0
 17 18  2  0
 18 19  1  0
 19 20  2  0
 20 21  1  0
 21 22  2  0
 22 23  1  0
 22 24  1  0
 24 25  2  0
 25 26  1  0
 26 27  2  0
 11  7  1  0
 16 12  1  0
 27 17  1  0
 26 20  1  0
  3 28  1  0
  4 29  1  0
  4 30  1  0
  8 31  1  0
  8 32  1  0
  9 33  1  0
  9 34  1  0
 10 35  1  0
 10 36  1  0
 11 37  1  1
 14 38  1  0
 15 39  1  0
 18 40  1  0
 19 41  1  0
 21 42  1  0
 24 43  1  0
 25 44  1  0
M  END
>  <smiles>  (37) 
O=C(NCC(=O)N1CCC[C@@H]1c1ncco1)c1ccc2cc(Cl)ccc2n1

>  <score_type>  (37) 
oracle

>  <origin>  (37) 
autodockgpu

>  <m_score__min__energy>  (37) 
-7.7800000000000002

>  <m_primary>  (37) 
energy

>  <rmsd>  (37) 
5.369077152469192

>  <m_score__min__rmsd>  (37) 
5.369077152469192

>  <meeko>  (37) 
{"free_energy": -6.54, "intermolecular_energy": -8.03, "internal_energy": -2.29, "cluster_size": 6, "cluster_id": 7, "rank_in_cluster": 2}

>  <energy>  (37) 
-6.87

>  <cluster_rmsd>  (37) 
0.67

>  <cluster>  (37) 
5

$$$$

     RDKit          3D

 44 47  0  0  0  0  0  0  0  0999 V2000
  135.0290   68.6090  224.8700 O   0  0  0  0  0  0  0  0  0  0  0  0
  135.4770   69.7910  224.9710 C   0  0  0  0  0  0  0  0  0  0  0  0
  136.7900   70.0060  224.4460 N   0  0  0  0  0  0  0  0  0  0  0  0
  137.4630   68.8820  223.8660 C   0  0  0  0  0  0  0  0  0  0  0  0
  138.7310   68.5530  224.5820 C   0  0  0  0  0  0  0  0  0  0  0  0
  139.2310   67.4000  224.5960 O   0  0  0  0  0  0  0  0  0  0  0  0
  139.4110   69.5860  225.2810 N   0  0  0  0  0  0  0  0  0  0  0  0
  139.2280   69.8690  226.7130 C   0  0  0  0  0  0  0  0  0  0  0  0
  140.6230   70.4080  227.0610 C   0  0  0  0  0  0  0  0  0  0  0  0
  140.7990   71.3790  225.9110 C   0  0  0  0  0  0  0  0  0  0  0  0
  140.3740   70.5200  224.7390 C   0  0  2  0  0  0  0  0  0  0  0  0
  139.8330   71.3320  223.6270 C   0  0  0  0  0  0  0  0  0  0  0  0
  140.3300   72.4940  223.1270 N   0  0  0  0  0  0  0  0  0  0  0  0
  139.5270   72.8960  222.1180 C   0  0  0  0  0  0  0  0  0  0  0  0
  138.5360   71.9340  222.0360 C   0  0  0  0  0  0  0  0  0  0  0  0
  138.7540   71.0070  222.9610 O   0  0  0  0  0  0  0  0  0  0  0  0
  134.7110   70.8720  225.5800 C   0  0  0  0  0  0  0  0  0  0  0  0
  133.7400   70.5220  226.4960 C   0  0  0  0  0  0  0  0  0  0  0  0
  132.9750   71.4900  227.1140 C   0  0  0  0  0  0  0  0  0  0  0  0
  133.1810   72.8200  226.8150 C   0  0  0  0  0  0  0  0  0  0  0  0
  132.4090   73.7720  227.4410 C   0  0  0  0  0  0  0  0  0  0  0  0
  132.6230   75.1030  227.1350 C   0  0  0  0  0  0  0  0  0  0  0  0
  131.6480   76.3280  227.9240 Cl  0  0  0  0  0  0  0  0  0  0  0  0
  133.5970   75.4310  226.2180 C   0  0  0  0  0  0  0  0  0  0  0  0
  134.3630   74.4530  225.6000 C   0  0  0  0  0  0  0  0  0  0  0  0
  134.1640   73.1220  225.8930 C   0  0  0  0  0  0  0  0  0  0  0  0
  134.9090   72.1710  225.2910 N   0  0  0  0  0  0  0  0  0  0  0  0
  137.2250   70.9540  224.4920 H   0  0  0  0  0  0  0  0  0  0  0  0
  136.7954   68.0088  223.9084 H   0  0  0  0  0  0  0  0  0  0  0  0
  137.7187   69.1404  222.8278 H   0  0  0  0  0  0  0  0  0  0  0  0
  138.4453   70.6230  226.8830 H   0  0  0  0  0  0  0  0  0  0  0  0
  138.9007   69.0093  227.3162 H   0  0  0  0  0  0  0  0  0  0  0  0
  140.6365   70.9173  228.0359 H   0  0  0  0  0  0  0  0  0  0  0  0
  141.4113   69.6474  227.1613 H   0  0  0  0  0  0  0  0  0  0  0  0
  140.1493   72.2595  226.0229 H   0  0  0  0  0  0  0  0  0  0  0  0
  141.8124   71.7974  225.8222 H   0  0  0  0  0  0  0  0  0  0  0  0
  141.2244   69.9866  224.2891 H   0  0  0  0  0  0  0  0  0  0  0  0
  139.6373   73.7957  221.4948 H   0  0  0  0  0  0  0  0  0  0  0  0
  137.7014   71.9368  221.3194 H   0  0  0  0  0  0  0  0  0  0  0  0
  133.5743   69.4613  226.7358 H   0  0  0  0  0  0  0  0  0  0  0  0
  132.2033   71.2014  227.8428 H   0  0  0  0  0  0  0  0  0  0  0  0
  131.6381   73.4800  228.1693 H   0  0  0  0  0  0  0  0  0  0  0  0
  133.7709   76.4887  225.9709 H   0  0  0  0  0  0  0  0  0  0  0  0
  135.1344   74.7426  224.8712 H   0  0  0  0  0  0  0  0  0  0  0  0
  1  2  2  0
  2  3  1  0
  3  4  1  0
  4  5  1  0
  5  6  2  0
  5  7  1  0
  7  8  1  0
  8  9  1  0
  9 10  1  0
 10 11  1  0
 11 12  1  0
 12 13  2  0
 13 14  1  0
 14 15  2  0
 15 16  1  0
  2 17  1  0
 17 18  2  0
 18 19  1  0
 19 20  2  0
 20 21  1  0
 21 22  2  0
 22 23  1  0
 22 24  1  0
 24 25  2  0
 25 26  1  0
 26 27  2  0
 11  7  1  0
 16 12  1  0
 27 17  1  0
 26 20  1  0
  3 28  1  0
  4 29  1  0
  4 30  1  0
  8 31  1  0
  8 32  1  0
  9 33  1  0
  9 34  1  0
 10 35  1  0
 10 36  1  0
 11 37  1  6
 14 38  1  0
 15 39  1  0
 18 40  1  0
 19 41  1  0
 21 42  1  0
 24 43  1  0
 25 44  1  0
M  END
>  <smiles>  (38) 
O=C(NCC(=O)N1CCC[C@@H]1c1ncco1)c1ccc2cc(Cl)ccc2n1

>  <score_type>  (38) 
oracle

>  <origin>  (38) 
autodockgpu

>  <m_score__min__energy>  (38) 
-7.7800000000000002

>  <m_primary>  (38) 
energy

>  <rmsd>  (38) 
7.929631206545142

>  <m_score__min__rmsd>  (38) 
7.929631206545142

>  <meeko>  (38) 
{"free_energy": -7.1, "intermolecular_energy": -8.59, "internal_energy": -2.12, "cluster_size": 12, "cluster_id": 4, "rank_in_cluster": 2}

>  <energy>  (38) 
-6.71

>  <cluster_rmsd>  (38) 
1.9

>  <cluster>  (38) 
5

$$$$

     RDKit          3D

 44 47  0  0  0  0  0  0  0  0999 V2000
  139.4400   72.0130  220.8310 O   0  0  0  0  0  0  0  0  0  0  0  0
  139.4690   72.4330  222.0270 C   0  0  0  0  0  0  0  0  0  0  0  0
  139.2700   73.8390  222.1980 N   0  0  0  0  0  0  0  0  0  0  0  0
  139.0600   74.6270  221.0200 C   0  0  0  0  0  0  0  0  0  0  0  0
  139.7680   75.9390  221.0850 C   0  0  0  0  0  0  0  0  0  0  0  0
  139.2380   76.9830  221.5400 O   0  0  0  0  0  0  0  0  0  0  0  0
  141.1050   76.0190  220.6120 N   0  0  0  0  0  0  0  0  0  0  0  0
  142.0470   74.8890  220.6090 C   0  0  0  0  0  0  0  0  0  0  0  0
  142.9000   75.2520  219.3840 C   0  0  0  0  0  0  0  0  0  0  0  0
  143.1600   76.7110  219.6980 C   0  0  0  0  0  0  0  0  0  0  0  0
  141.7690   77.1830  220.0640 C   0  0  2  0  0  0  0  0  0  0  0  0
  141.8030   78.3270  221.0010 C   0  0  0  0  0  0  0  0  0  0  0  0
  141.7970   78.2900  222.3600 N   0  0  0  0  0  0  0  0  0  0  0  0
  141.8380   79.5610  222.8150 C   0  0  0  0  0  0  0  0  0  0  0  0
  141.8670   80.3530  221.6820 C   0  0  0  0  0  0  0  0  0  0  0  0
  141.8460   79.5740  220.6070 O   0  0  0  0  0  0  0  0  0  0  0  0
  139.6900   71.5490  223.1640 C   0  0  0  0  0  0  0  0  0  0  0  0
  139.3490   70.2200  223.0100 C   0  0  0  0  0  0  0  0  0  0  0  0
  139.5300   69.3230  224.0420 C   0  0  0  0  0  0  0  0  0  0  0  0
  140.0560   69.7550  225.2410 C   0  0  0  0  0  0  0  0  0  0  0  0
  140.2290   68.8460  226.2600 C   0  0  0  0  0  0  0  0  0  0  0  0
  140.7580   69.2890  227.4580 C   0  0  0  0  0  0  0  0  0  0  0  0
  140.9850   68.1440  228.7660 Cl  0  0  0  0  0  0  0  0  0  0  0  0
  141.0920   70.6180  227.5910 C   0  0  0  0  0  0  0  0  0  0  0  0
  140.9080   71.5160  226.5500 C   0  0  0  0  0  0  0  0  0  0  0  0
  140.3830   71.0930  225.3490 C   0  0  0  0  0  0  0  0  0  0  0  0
  140.2040   71.9660  224.3360 N   0  0  0  0  0  0  0  0  0  0  0  0
  139.2810   74.2580  223.1550 H   0  0  0  0  0  0  0  0  0  0  0  0
  139.4309   74.0672  220.1487 H   0  0  0  0  0  0  0  0  0  0  0  0
  137.9819   74.8291  220.9371 H   0  0  0  0  0  0  0  0  0  0  0  0
  142.6483   74.8570  221.5295 H   0  0  0  0  0  0  0  0  0  0  0  0
  141.5768   73.8955  220.5667 H   0  0  0  0  0  0  0  0  0  0  0  0
  143.8307   74.6672  219.3419 H   0  0  0  0  0  0  0  0  0  0  0  0
  142.4328   75.0548  218.4078 H   0  0  0  0  0  0  0  0  0  0  0  0
  143.8590   76.8242  220.5398 H   0  0  0  0  0  0  0  0  0  0  0  0
  143.6273   77.2742  218.8767 H   0  0  0  0  0  0  0  0  0  0  0  0
  141.2219   77.5706  219.1920 H   0  0  0  0  0  0  0  0  0  0  0  0
  141.8465   79.8948  223.8631 H   0  0  0  0  0  0  0  0  0  0  0  0
  141.9019   81.4524  221.6727 H   0  0  0  0  0  0  0  0  0  0  0  0
  138.9287   69.8730  222.0545 H   0  0  0  0  0  0  0  0  0  0  0  0
  139.2555   68.2662  223.9089 H   0  0  0  0  0  0  0  0  0  0  0  0
  139.9524   67.7901  226.1241 H   0  0  0  0  0  0  0  0  0  0  0  0
  141.5134   70.9750  228.5423 H   0  0  0  0  0  0  0  0  0  0  0  0
  141.1831   72.5725  226.6845 H   0  0  0  0  0  0  0  0  0  0  0  0
  1  2  2  0
  2  3  1  0
  3  4  1  0
  4  5  1  0
  5  6  2  0
  5  7  1  0
  7  8  1  0
  8  9  1  0
  9 10  1  0
 10 11  1  0
 11 12  1  0
 12 13  2  0
 13 14  1  0
 14 15  2  0
 15 16  1  0
  2 17  1  0
 17 18  2  0
 18 19  1  0
 19 20  2  0
 20 21  1  0
 21 22  2  0
 22 23  1  0
 22 24  1  0
 24 25  2  0
 25 26  1  0
 26 27  2  0
 11  7  1  0
 16 12  1  0
 27 17  1  0
 26 20  1  0
  3 28  1  0
  4 29  1  0
  4 30  1  0
  8 31  1  0
  8 32  1  0
  9 33  1  0
  9 34  1  0
 10 35  1  0
 10 36  1  0
 11 37  1  6
 14 38  1  0
 15 39  1  0
 18 40  1  0
 19 41  1  0
 21 42  1  0
 24 43  1  0
 25 44  1  0
M  END
>  <smiles>  (39) 
O=C(NCC(=O)N1CCC[C@@H]1c1ncco1)c1ccc2cc(Cl)ccc2n1

>  <score_type>  (39) 
oracle

>  <origin>  (39) 
autodockgpu

>  <m_score__min__energy>  (39) 
-7.7800000000000002

>  <m_primary>  (39) 
energy

>  <rmsd>  (39) 
2.00141283338601

>  <m_score__min__rmsd>  (39) 
2.00141283338601

>  <meeko>  (39) 
{"free_energy": -7.28, "intermolecular_energy": -8.77, "internal_energy": -1.41, "cluster_size": 6, "cluster_id": 2, "rank_in_cluster": 5}

>  <energy>  (39) 
-6.93

>  <cluster_rmsd>  (39) 
0.0

>  <cluster>  (39) 
6

$$$$

     RDKit          3D

 44 47  0  0  0  0  0  0  0  0999 V2000
  140.3590   72.4700  220.8330 O   0  0  0  0  0  0  0  0  0  0  0  0
  140.0620   72.8150  222.0160 C   0  0  0  0  0  0  0  0  0  0  0  0
  139.6760   74.1810  222.1890 N   0  0  0  0  0  0  0  0  0  0  0  0
  139.6630   75.0180  221.0250 C   0  0  0  0  0  0  0  0  0  0  0  0
  140.7740   76.0140  221.0350 C   0  0  0  0  0  0  0  0  0  0  0  0
  141.0590   76.7150  222.0380 O   0  0  0  0  0  0  0  0  0  0  0  0
  141.5520   76.1840  219.8580 N   0  0  0  0  0  0  0  0  0  0  0  0
  140.9840   76.4470  218.5270 C   0  0  0  0  0  0  0  0  0  0  0  0
  142.1170   77.2790  217.9100 C   0  0  0  0  0  0  0  0  0  0  0  0
  143.2930   76.4030  218.2900 C   0  0  0  0  0  0  0  0  0  0  0  0
  142.9940   76.1330  219.7500 C   0  0  2  0  0  0  0  0  0  0  0  0
  143.5650   74.8450  220.2000 C   0  0  0  0  0  0  0  0  0  0  0  0
  144.8620   74.5680  220.4970 N   0  0  0  0  0  0  0  0  0  0  0  0
  144.9410   73.2710  220.8670 C   0  0  0  0  0  0  0  0  0  0  0  0
  143.6490   72.7870  220.7800 C   0  0  0  0  0  0  0  0  0  0  0  0
  142.8460   73.7650  220.3760 O   0  0  0  0  0  0  0  0  0  0  0  0
  140.1050   71.8860  223.1390 C   0  0  0  0  0  0  0  0  0  0  0  0
  139.6340   70.6070  222.9220 C   0  0  0  0  0  0  0  0  0  0  0  0
  139.6430   69.6720  223.9370 C   0  0  0  0  0  0  0  0  0  0  0  0
  140.1270   70.0160  225.1810 C   0  0  0  0  0  0  0  0  0  0  0  0
  140.1290   69.0710  226.1810 C   0  0  0  0  0  0  0  0  0  0  0  0
  140.6170   69.4260  227.4250 C   0  0  0  0  0  0  0  0  0  0  0  0
  140.6260   68.2340  228.7110 Cl  0  0  0  0  0  0  0  0  0  0  0  0
  141.0830   70.7070  227.6210 C   0  0  0  0  0  0  0  0  0  0  0  0
  141.0710   71.6430  226.5970 C   0  0  0  0  0  0  0  0  0  0  0  0
  140.5890   71.3070  225.3510 C   0  0  0  0  0  0  0  0  0  0  0  0
  140.5770   72.2180  224.3550 N   0  0  0  0  0  0  0  0  0  0  0  0
  139.4170   74.5380  223.1350 H   0  0  0  0  0  0  0  0  0  0  0  0
  139.7634   74.3841  220.1316 H   0  0  0  0  0  0  0  0  0  0  0  0
  138.7127   75.5719  221.0178 H   0  0  0  0  0  0  0  0  0  0  0  0
  140.8098   75.5165  217.9669 H   0  0  0  0  0  0  0  0  0  0  0  0
  140.0001   76.9388  218.5333 H   0  0  0  0  0  0  0  0  0  0  0  0
  142.0105   77.3752  216.8194 H   0  0  0  0  0  0  0  0  0  0  0  0
  142.1762   78.3227  218.2523 H   0  0  0  0  0  0  0  0  0  0  0  0
  143.3102   75.4731  217.7027 H   0  0  0  0  0  0  0  0  0  0  0  0
  144.2765   76.8601  218.1060 H   0  0  0  0  0  0  0  0  0  0  0  0
  143.4614   76.8768  220.4120 H   0  0  0  0  0  0  0  0  0  0  0  0
  145.8415   72.7180  221.1724 H   0  0  0  0  0  0  0  0  0  0  0  0
  143.3362   71.7575  221.0086 H   0  0  0  0  0  0  0  0  0  0  0  0
  139.2476   70.3301  221.9300 H   0  0  0  0  0  0  0  0  0  0  0  0
  139.2651   68.6553  223.7539 H   0  0  0  0  0  0  0  0  0  0  0  0
  139.7506   68.0551  225.9948 H   0  0  0  0  0  0  0  0  0  0  0  0
  141.4724   70.9938  228.6090 H   0  0  0  0  0  0  0  0  0  0  0  0
  141.4487   72.6596  226.7812 H   0  0  0  0  0  0  0  0  0  0  0  0
  1  2  2  0
  2  3  1  0
  3  4  1  0
  4  5  1  0
  5  6  2  0
  5  7  1  0
  7  8  1  0
  8  9  1  0
  9 10  1  0
 10 11  1  0
 11 12  1  0
 12 13  2  0
 13 14  1  0
 14 15  2  0
 15 16  1  0
  2 17  1  0
 17 18  2  0
 18 19  1  0
 19 20  2  0
 20 21  1  0
 21 22  2  0
 22 23  1  0
 22 24  1  0
 24 25  2  0
 25 26  1  0
 26 27  2  0
 11  7  1  0
 16 12  1  0
 27 17  1  0
 26 20  1  0
  3 28  1  0
  4 29  1  0
  4 30  1  0
  8 31  1  0
  8 32  1  0
  9 33  1  0
  9 34  1  0
 10 35  1  0
 10 36  1  0
 11 37  1  1
 14 38  1  0
 15 39  1  0
 18 40  1  0
 19 41  1  0
 21 42  1  0
 24 43  1  0
 25 44  1  0
M  END
>  <smiles>  (40) 
O=C(NCC(=O)N1CCC[C@@H]1c1ncco1)c1ccc2cc(Cl)ccc2n1

>  <score_type>  (40) 
oracle

>  <origin>  (40) 
autodockgpu

>  <m_score__min__energy>  (40) 
-7.7800000000000002

>  <m_primary>  (40) 
energy

>  <rmsd>  (40) 
3.2534197546531036

>  <m_score__min__rmsd>  (40) 
3.2534197546531036

>  <meeko>  (40) 
{"free_energy": -7.26, "intermolecular_energy": -8.75, "internal_energy": -1.7, "cluster_size": 4, "cluster_id": 3, "rank_in_cluster": 3}

>  <energy>  (40) 
-6.54

>  <cluster_rmsd>  (40) 
0.0

>  <cluster>  (40) 
7

$$$$

     RDKit          3D

 44 47  0  0  0  0  0  0  0  0999 V2000
  141.6170   71.6980  221.4180 O   0  0  0  0  0  0  0  0  0  0  0  0
  140.8570   72.5920  221.8980 C   0  0  0  0  0  0  0  0  0  0  0  0
  139.8130   72.1250  222.7570 N   0  0  0  0  0  0  0  0  0  0  0  0
  139.7280   70.7140  222.9900 C   0  0  0  0  0  0  0  0  0  0  0  0
  138.9400   70.3910  224.2160 C   0  0  0  0  0  0  0  0  0  0  0  0
  137.8400   70.9340  224.4870 O   0  0  0  0  0  0  0  0  0  0  0  0
  139.4520   69.4250  225.1240 N   0  0  0  0  0  0  0  0  0  0  0  0
  138.7540   68.1800  225.4800 C   0  0  0  0  0  0  0  0  0  0  0  0
  139.9570   67.2670  225.7580 C   0  0  0  0  0  0  0  0  0  0  0  0
  140.7650   68.1960  226.6410 C   0  0  0  0  0  0  0  0  0  0  0  0
  140.7070   69.4800  225.8410 C   0  0  2  0  0  0  0  0  0  0  0  0
  140.8290   70.6740  226.7060 C   0  0  0  0  0  0  0  0  0  0  0  0
  140.2640   70.8800  227.9250 N   0  0  0  0  0  0  0  0  0  0  0  0
  140.6370   72.1030  228.3610 C   0  0  0  0  0  0  0  0  0  0  0  0
  141.4420   72.6170  227.3600 C   0  0  0  0  0  0  0  0  0  0  0  0
  141.5360   71.7270  226.3790 O   0  0  0  0  0  0  0  0  0  0  0  0
  141.0260   74.0090  221.6010 C   0  0  0  0  0  0  0  0  0  0  0  0
  141.9450   74.3470  220.6290 C   0  0  0  0  0  0  0  0  0  0  0  0
  142.1600   75.6690  220.2940 C   0  0  0  0  0  0  0  0  0  0  0  0
  141.4510   76.6620  220.9340 C   0  0  0  0  0  0  0  0  0  0  0  0
  141.6780   77.9740  220.5870 C   0  0  0  0  0  0  0  0  0  0  0  0
  140.9610   78.9630  221.2350 C   0  0  0  0  0  0  0  0  0  0  0  0
  141.2380   80.6400  220.8040 Cl  0  0  0  0  0  0  0  0  0  0  0  0
  140.0480   78.6040  222.2010 C   0  0  0  0  0  0  0  0  0  0  0  0
  139.8360   77.2740  222.5340 C   0  0  0  0  0  0  0  0  0  0  0  0
  140.5410   76.2750  221.8990 C   0  0  0  0  0  0  0  0  0  0  0  0
  140.3350   74.9820  222.2240 N   0  0  0  0  0  0  0  0  0  0  0  0
  139.1470   72.8030  223.1900 H   0  0  0  0  0  0  0  0  0  0  0  0
  139.2442   70.2404  222.1230 H   0  0  0  0  0  0  0  0  0  0  0  0
  140.7499   70.3338  223.1357 H   0  0  0  0  0  0  0  0  0  0  0  0
  138.1235   68.3068  226.3724 H   0  0  0  0  0  0  0  0  0  0  0  0
  138.0567   67.8061  224.7158 H   0  0  0  0  0  0  0  0  0  0  0  0
  139.6633   66.3482  226.2867 H   0  0  0  0  0  0  0  0  0  0  0  0
  140.4796   66.8906  224.8663 H   0  0  0  0  0  0  0  0  0  0  0  0
  140.3017   68.3161  227.6314 H   0  0  0  0  0  0  0  0  0  0  0  0
  141.7840   67.8428  226.8574 H   0  0  0  0  0  0  0  0  0  0  0  0
  141.5520   69.5695  225.1425 H   0  0  0  0  0  0  0  0  0  0  0  0
  140.3599   72.5868  229.3092 H   0  0  0  0  0  0  0  0  0  0  0  0
  141.9264   73.6045  227.3745 H   0  0  0  0  0  0  0  0  0  0  0  0
  142.5117   73.5558  220.1162 H   0  0  0  0  0  0  0  0  0  0  0  0
  142.8953   75.9288  219.5183 H   0  0  0  0  0  0  0  0  0  0  0  0
  142.4140   78.2306  219.8108 H   0  0  0  0  0  0  0  0  0  0  0  0
  139.4753   79.3873  222.7191 H   0  0  0  0  0  0  0  0  0  0  0  0
  139.1004   77.0154  223.3099 H   0  0  0  0  0  0  0  0  0  0  0  0
  1  2  2  0
  2  3  1  0
  3  4  1  0
  4  5  1  0
  5  6  2  0
  5  7  1  0
  7  8  1  0
  8  9  1  0
  9 10  1  0
 10 11  1  0
 11 12  1  0
 12 13  2  0
 13 14  1  0
 14 15  2  0
 15 16  1  0
  2 17  1  0
 17 18  2  0
 18 19  1  0
 19 20  2  0
 20 21  1  0
 21 22  2  0
 22 23  1  0
 22 24  1  0
 24 25  2  0
 25 26  1  0
 26 27  2  0
 11  7  1  0
 16 12  1  0
 27 17  1  0
 26 20  1  0
  3 28  1  0
  4 29  1  0
  4 30  1  0
  8 31  1  0
  8 32  1  0
  9 33  1  0
  9 34  1  0
 10 35  1  0
 10 36  1  0
 11 37  1  6
 14 38  1  0
 15 39  1  0
 18 40  1  0
 19 41  1  0
 21 42  1  0
 24 43  1  0
 25 44  1  0
M  END
>  <smiles>  (41) 
O=C(NCC(=O)N1CCC[C@@H]1c1ncco1)c1ccc2cc(Cl)ccc2n1

>  <score_type>  (41) 
oracle

>  <origin>  (41) 
autodockgpu

>  <m_score__min__energy>  (41) 
-7.7800000000000002

>  <m_primary>  (41) 
energy

>  <rmsd>  (41) 
8.709842415627275

>  <m_score__min__rmsd>  (41) 
8.709842415627275

>  <meeko>  (41) 
{"free_energy": -7.67, "intermolecular_energy": -9.16, "internal_energy": -1.61, "cluster_size": 8, "cluster_id": 1, "rank_in_cluster": 4}

>  <energy>  (41) 
-6.54

>  <cluster_rmsd>  (41) 
0.62

>  <cluster>  (41) 
7

$$$$

     RDKit          3D

 44 47  0  0  0  0  0  0  0  0999 V2000
  140.1550   74.0700  221.9820 O   0  0  0  0  0  0  0  0  0  0  0  0
  140.2670   72.8110  221.8730 C   0  0  0  0  0  0  0  0  0  0  0  0
  140.4300   72.3150  220.5410 N   0  0  0  0  0  0  0  0  0  0  0  0
  140.4510   73.2710  219.4750 C   0  0  0  0  0  0  0  0  0  0  0  0
  141.7090   73.1970  218.6750 C   0  0  0  0  0  0  0  0  0  0  0  0
  141.7210   73.1540  217.4190 O   0  0  0  0  0  0  0  0  0  0  0  0
  142.9540   73.1730  219.3580 N   0  0  0  0  0  0  0  0  0  0  0  0
  144.0530   74.1160  219.0990 C   0  0  0  0  0  0  0  0  0  0  0  0
  144.6940   74.1730  220.4930 C   0  0  0  0  0  0  0  0  0  0  0  0
  144.7590   72.6890  220.7880 C   0  0  0  0  0  0  0  0  0  0  0  0
  143.3620   72.2530  220.3980 C   0  0  2  0  0  0  0  0  0  0  0  0
  143.3260   70.8380  219.9680 C   0  0  0  0  0  0  0  0  0  0  0  0
  144.3790   70.0050  219.7560 N   0  0  0  0  0  0  0  0  0  0  0  0
  143.8950   68.8030  219.3750 C   0  0  0  0  0  0  0  0  0  0  0  0
  142.5190   68.9500  219.3670 C   0  0  0  0  0  0  0  0  0  0  0  0
  142.2130   70.1900  219.7310 O   0  0  0  0  0  0  0  0  0  0  0  0
  140.2340   71.9160  223.0230 C   0  0  0  0  0  0  0  0  0  0  0  0
  139.7050   70.6570  222.8310 C   0  0  0  0  0  0  0  0  0  0  0  0
  139.6400   69.7540  223.8730 C   0  0  0  0  0  0  0  0  0  0  0  0
  140.1080   70.1120  225.1190 C   0  0  0  0  0  0  0  0  0  0  0  0
  140.0360   69.1990  226.1460 C   0  0  0  0  0  0  0  0  0  0  0  0
  140.5080   69.5680  227.3920 C   0  0  0  0  0  0  0  0  0  0  0  0
  140.4240   68.4170  228.7120 Cl  0  0  0  0  0  0  0  0  0  0  0  0
  141.0330   70.8300  227.5630 C   0  0  0  0  0  0  0  0  0  0  0  0
  141.0950   71.7330  226.5120 C   0  0  0  0  0  0  0  0  0  0  0  0
  140.6300   71.3830  225.2630 C   0  0  0  0  0  0  0  0  0  0  0  0
  140.6900   72.2620  224.2410 N   0  0  0  0  0  0  0  0  0  0  0  0
  140.5280   71.2890  220.3720 H   0  0  0  0  0  0  0  0  0  0  0  0
  139.5964   73.0784  218.8097 H   0  0  0  0  0  0  0  0  0  0  0  0
  140.3934   74.2749  219.9210 H   0  0  0  0  0  0  0  0  0  0  0  0
  144.7530   73.7288  218.3439 H   0  0  0  0  0  0  0  0  0  0  0  0
  143.7405   75.0898  218.6940 H   0  0  0  0  0  0  0  0  0  0  0  0
  145.6932   74.6323  220.4685 H   0  0  0  0  0  0  0  0  0  0  0  0
  144.1546   74.7787  221.2361 H   0  0  0  0  0  0  0  0  0  0  0  0
  145.5236   72.1889  220.1755 H   0  0  0  0  0  0  0  0  0  0  0  0
  145.0364   72.4453  221.8242 H   0  0  0  0  0  0  0  0  0  0  0  0
  142.6651   72.2902  221.2483 H   0  0  0  0  0  0  0  0  0  0  0  0
  144.4714   67.9002  219.1246 H   0  0  0  0  0  0  0  0  0  0  0  0
  141.7949   68.1656  219.1017 H   0  0  0  0  0  0  0  0  0  0  0  0
  139.3310   70.3694  221.8373 H   0  0  0  0  0  0  0  0  0  0  0  0
  139.2162   68.7522  223.7095 H   0  0  0  0  0  0  0  0  0  0  0  0
  139.6123   68.1977  225.9793 H   0  0  0  0  0  0  0  0  0  0  0  0
  141.4105   71.1275  228.5525 H   0  0  0  0  0  0  0  0  0  0  0  0
  141.5181   72.7350  226.6766 H   0  0  0  0  0  0  0  0  0  0  0  0
  1  2  2  0
  2  3  1  0
  3  4  1  0
  4  5  1  0
  5  6  2  0
  5  7  1  0
  7  8  1  0
  8  9  1  0
  9 10  1  0
 10 11  1  0
 11 12  1  0
 12 13  2  0
 13 14  1  0
 14 15  2  0
 15 16  1  0
  2 17  1  0
 17 18  2  0
 18 19  1  0
 19 20  2  0
 20 21  1  0
 21 22  2  0
 22 23  1  0
 22 24  1  0
 24 25  2  0
 25 26  1  0
 26 27  2  0
 11  7  1  0
 16 12  1  0
 27 17  1  0
 26 20  1  0
  3 28  1  0
  4 29  1  0
  4 30  1  0
  8 31  1  0
  8 32  1  0
  9 33  1  0
  9 34  1  0
 10 35  1  0
 10 36  1  0
 11 37  1  1
 14 38  1  0
 15 39  1  0
 18 40  1  0
 19 41  1  0
 21 42  1  0
 24 43  1  0
 25 44  1  0
M  END
>  <smiles>  (42) 
O=C(NCC(=O)N1CCC[C@@H]1c1ncco1)c1ccc2cc(Cl)ccc2n1

>  <score_type>  (42) 
oracle

>  <origin>  (42) 
autodockgpu

>  <m_score__min__energy>  (42) 
-7.7800000000000002

>  <m_primary>  (42) 
energy

>  <rmsd>  (42) 
5.458073125339173

>  <m_score__min__rmsd>  (42) 
5.458073125339173

>  <meeko>  (42) 
{"free_energy": -6.54, "intermolecular_energy": -8.03, "internal_energy": -2.37, "cluster_size": 6, "cluster_id": 7, "rank_in_cluster": 3}

>  <energy>  (42) 
-6.54

>  <cluster_rmsd>  (42) 
0.28

>  <cluster>  (42) 
7

$$$$

     RDKit          3D

 44 47  0  0  0  0  0  0  0  0999 V2000
  140.2270   74.0250  222.0420 O   0  0  0  0  0  0  0  0  0  0  0  0
  140.2840   72.7640  221.9210 C   0  0  0  0  0  0  0  0  0  0  0  0
  140.3880   72.2720  220.5830 N   0  0  0  0  0  0  0  0  0  0  0  0
  140.4180   73.2350  219.5230 C   0  0  0  0  0  0  0  0  0  0  0  0
  141.6710   73.1490  218.7170 C   0  0  0  0  0  0  0  0  0  0  0  0
  141.6780   73.0950  217.4620 O   0  0  0  0  0  0  0  0  0  0  0  0
  142.9200   73.1260  219.3940 N   0  0  0  0  0  0  0  0  0  0  0  0
  144.0180   74.0680  219.1270 C   0  0  0  0  0  0  0  0  0  0  0  0
  144.6650   74.1290  220.5190 C   0  0  0  0  0  0  0  0  0  0  0  0
  144.7310   72.6450  220.8180 C   0  0  0  0  0  0  0  0  0  0  0  0
  143.3320   72.2090  220.4350 C   0  0  2  0  0  0  0  0  0  0  0  0
  143.2930   70.7930  220.0100 C   0  0  0  0  0  0  0  0  0  0  0  0
  144.3450   69.9610  219.7870 N   0  0  0  0  0  0  0  0  0  0  0  0
  143.8580   68.7580  219.4150 C   0  0  0  0  0  0  0  0  0  0  0  0
  142.4830   68.9020  219.4240 C   0  0  0  0  0  0  0  0  0  0  0  0
  142.1790   70.1420  219.7880 O   0  0  0  0  0  0  0  0  0  0  0  0
  140.2470   71.8630  223.0670 C   0  0  0  0  0  0  0  0  0  0  0  0
  139.7200   70.6040  222.8650 C   0  0  0  0  0  0  0  0  0  0  0  0
  139.6510   69.6950  223.9010 C   0  0  0  0  0  0  0  0  0  0  0  0
  140.1150   70.0460  225.1510 C   0  0  0  0  0  0  0  0  0  0  0  0
  140.0390   69.1280  226.1730 C   0  0  0  0  0  0  0  0  0  0  0  0
  140.5060   69.4890  227.4230 C   0  0  0  0  0  0  0  0  0  0  0  0
  140.4170   68.3310  228.7360 Cl  0  0  0  0  0  0  0  0  0  0  0  0
  141.0290   70.7510  227.6030 C   0  0  0  0  0  0  0  0  0  0  0  0
  141.0940   71.6600  226.5580 C   0  0  0  0  0  0  0  0  0  0  0  0
  140.6340   71.3170  225.3050 C   0  0  0  0  0  0  0  0  0  0  0  0
  140.6980   72.2020  224.2880 N   0  0  0  0  0  0  0  0  0  0  0  0
  140.4390   71.2440  220.4040 H   0  0  0  0  0  0  0  0  0  0  0  0
  139.5579   73.0589  218.8602 H   0  0  0  0  0  0  0  0  0  0  0  0
  140.3766   74.2365  219.9760 H   0  0  0  0  0  0  0  0  0  0  0  0
  144.7147   73.6783  218.3702 H   0  0  0  0  0  0  0  0  0  0  0  0
  143.7041   75.0405  218.7200 H   0  0  0  0  0  0  0  0  0  0  0  0
  145.6642   74.5881  220.4892 H   0  0  0  0  0  0  0  0  0  0  0  0
  144.1288   74.7369  221.2625 H   0  0  0  0  0  0  0  0  0  0  0  0
  145.4928   72.1429  220.2035 H   0  0  0  0  0  0  0  0  0  0  0  0
  145.0130   72.4038  221.8535 H   0  0  0  0  0  0  0  0  0  0  0  0
  142.6387   72.2497  221.2881 H   0  0  0  0  0  0  0  0  0  0  0  0
  144.4327   67.8556  219.1592 H   0  0  0  0  0  0  0  0  0  0  0  0
  141.7573   68.1153  219.1702 H   0  0  0  0  0  0  0  0  0  0  0  0
  139.3510   70.3219  221.8679 H   0  0  0  0  0  0  0  0  0  0  0  0
  139.2275   68.6943  223.7302 H   0  0  0  0  0  0  0  0  0  0  0  0
  139.6155   68.1278  225.9991 H   0  0  0  0  0  0  0  0  0  0  0  0
  141.4024   71.0432  228.5956 H   0  0  0  0  0  0  0  0  0  0  0  0
  141.5154   72.6614  226.7302 H   0  0  0  0  0  0  0  0  0  0  0  0
  1  2  2  0
  2  3  1  0
  3  4  1  0
  4  5  1  0
  5  6  2  0
  5  7  1  0
  7  8  1  0
  8  9  1  0
  9 10  1  0
 10 11  1  0
 11 12  1  0
 12 13  2  0
 13 14  1  0
 14 15  2  0
 15 16  1  0
  2 17  1  0
 17 18  2  0
 18 19  1  0
 19 20  2  0
 20 21  1  0
 21 22  2  0
 22 23  1  0
 22 24  1  0
 24 25  2  0
 25 26  1  0
 26 27  2  0
 11  7  1  0
 16 12  1  0
 27 17  1  0
 26 20  1  0
  3 28  1  0
  4 29  1  0
  4 30  1  0
  8 31  1  0
  8 32  1  0
  9 33  1  0
  9 34  1  0
 10 35  1  0
 10 36  1  0
 11 37  1  1
 14 38  1  0
 15 39  1  0
 18 40  1  0
 19 41  1  0
 21 42  1  0
 24 43  1  0
 25 44  1  0
M  END
>  <smiles>  (43) 
O=C(NCC(=O)N1CCC[C@@H]1c1ncco1)c1ccc2cc(Cl)ccc2n1

>  <score_type>  (43) 
oracle

>  <origin>  (43) 
autodockgpu

>  <m_score__min__energy>  (43) 
-7.7800000000000002

>  <m_primary>  (43) 
energy

>  <rmsd>  (43) 
5.458556397830354

>  <m_score__min__rmsd>  (43) 
5.458556397830354

>  <meeko>  (43) 
{"free_energy": -6.47, "intermolecular_energy": -7.97, "internal_energy": -2.39, "cluster_size": 6, "cluster_id": 7, "rank_in_cluster": 4}

>  <energy>  (43) 
-6.47

>  <cluster_rmsd>  (43) 
0.27

>  <cluster>  (43) 
7

$$$$

     RDKit          3D

 44 47  0  0  0  0  0  0  0  0999 V2000
  141.6270   71.8560  221.3350 O   0  0  0  0  0  0  0  0  0  0  0  0
  140.8730   72.7500  221.8230 C   0  0  0  0  0  0  0  0  0  0  0  0
  139.8360   72.2840  222.6910 N   0  0  0  0  0  0  0  0  0  0  0  0
  139.7500   70.8720  222.9220 C   0  0  0  0  0  0  0  0  0  0  0  0
  138.9680   70.5480  224.1510 C   0  0  0  0  0  0  0  0  0  0  0  0
  137.8820   71.1110  224.4410 O   0  0  0  0  0  0  0  0  0  0  0  0
  139.4670   69.5590  225.0400 N   0  0  0  0  0  0  0  0  0  0  0  0
  138.7520   68.3190  225.3770 C   0  0  0  0  0  0  0  0  0  0  0  0
  139.9420   67.3830  225.6340 C   0  0  0  0  0  0  0  0  0  0  0  0
  140.7660   68.2840  226.5310 C   0  0  0  0  0  0  0  0  0  0  0  0
  140.7250   69.5830  225.7540 C   0  0  2  0  0  0  0  0  0  0  0  0
  140.8680   70.7590  226.6400 C   0  0  0  0  0  0  0  0  0  0  0  0
  140.2710   70.9730  227.8420 N   0  0  0  0  0  0  0  0  0  0  0  0
  140.6800   72.1730  228.3070 C   0  0  0  0  0  0  0  0  0  0  0  0
  141.5380   72.6660  227.3410 C   0  0  0  0  0  0  0  0  0  0  0  0
  141.6280   71.7850  226.3510 O   0  0  0  0  0  0  0  0  0  0  0  0
  141.0410   74.1680  221.5280 C   0  0  0  0  0  0  0  0  0  0  0  0
  141.9340   74.5050  220.5300 C   0  0  0  0  0  0  0  0  0  0  0  0
  142.1470   75.8260  220.1940 C   0  0  0  0  0  0  0  0  0  0  0  0
  141.4630   76.8210  220.8590 C   0  0  0  0  0  0  0  0  0  0  0  0
  141.6870   78.1330  220.5110 C   0  0  0  0  0  0  0  0  0  0  0  0
  140.9960   79.1230  221.1840 C   0  0  0  0  0  0  0  0  0  0  0  0
  141.2710   80.8000  220.7520 Cl  0  0  0  0  0  0  0  0  0  0  0  0
  140.1100   78.7650  222.1750 C   0  0  0  0  0  0  0  0  0  0  0  0
  139.9000   77.4360  222.5090 C   0  0  0  0  0  0  0  0  0  0  0  0
  140.5800   76.4350  221.8490 C   0  0  0  0  0  0  0  0  0  0  0  0
  140.3750   75.1420  222.1740 N   0  0  0  0  0  0  0  0  0  0  0  0
  139.1750   72.9620  223.1310 H   0  0  0  0  0  0  0  0  0  0  0  0
  139.2611   70.4007  222.0566 H   0  0  0  0  0  0  0  0  0  0  0  0
  140.7720   70.4900  223.0618 H   0  0  0  0  0  0  0  0  0  0  0  0
  138.1270   68.4397  226.2741 H   0  0  0  0  0  0  0  0  0  0  0  0
  138.0462   67.9692  224.6092 H   0  0  0  0  0  0  0  0  0  0  0  0
  139.6363   66.4591  226.1468 H   0  0  0  0  0  0  0  0  0  0  0  0
  140.4562   67.0149  224.7339 H   0  0  0  0  0  0  0  0  0  0  0  0
  140.3071   68.3933  227.5247 H   0  0  0  0  0  0  0  0  0  0  0  0
  141.7802   67.9119  226.7382 H   0  0  0  0  0  0  0  0  0  0  0  0
  141.5689   69.6730  225.0542 H   0  0  0  0  0  0  0  0  0  0  0  0
  140.3920   72.6555  229.2527 H   0  0  0  0  0  0  0  0  0  0  0  0
  142.0617   73.6323  227.3853 H   0  0  0  0  0  0  0  0  0  0  0  0
  142.4807   73.7126  219.9979 H   0  0  0  0  0  0  0  0  0  0  0  0
  142.8606   76.0845  219.3978 H   0  0  0  0  0  0  0  0  0  0  0  0
  142.4008   78.3887  219.7141 H   0  0  0  0  0  0  0  0  0  0  0  0
  139.5574   79.5495  222.7128 H   0  0  0  0  0  0  0  0  0  0  0  0
  139.1863   77.1787  223.3056 H   0  0  0  0  0  0  0  0  0  0  0  0
  1  2  2  0
  2  3  1  0
  3  4  1  0
  4  5  1  0
  5  6  2  0
  5  7  1  0
  7  8  1  0
  8  9  1  0
  9 10  1  0
 10 11  1  0
 11 12  1  0
 12 13  2  0
 13 14  1  0
 14 15  2  0
 15 16  1  0
  2 17  1  0
 17 18  2  0
 18 19  1  0
 19 20  2  0
 20 21  1  0
 21 22  2  0
 22 23  1  0
 22 24  1  0
 24 25  2  0
 25 26  1  0
 26 27  2  0
 11  7  1  0
 16 12  1  0
 27 17  1  0
 26 20  1  0
  3 28  1  0
  4 29  1  0
  4 30  1  0
  8 31  1  0
  8 32  1  0
  9 33  1  0
  9 34  1  0
 10 35  1  0
 10 36  1  0
 11 37  1  6
 14 38  1  0
 15 39  1  0
 18 40  1  0
 19 41  1  0
 21 42  1  0
 24 43  1  0
 25 44  1  0
M  END
>  <smiles>  (44) 
O=C(NCC(=O)N1CCC[C@@H]1c1ncco1)c1ccc2cc(Cl)ccc2n1

>  <score_type>  (44) 
oracle

>  <origin>  (44) 
autodockgpu

>  <m_score__min__energy>  (44) 
-7.7800000000000002

>  <m_primary>  (44) 
energy

>  <rmsd>  (44) 
8.693351430218028

>  <m_score__min__rmsd>  (44) 
8.693351430218028

>  <meeko>  (44) 
{"free_energy": -7.66, "intermolecular_energy": -9.16, "internal_energy": -1.6, "cluster_size": 8, "cluster_id": 1, "rank_in_cluster": 6}

>  <energy>  (44) 
-6.46

>  <cluster_rmsd>  (44) 
0.66

>  <cluster>  (44) 
7

$$$$

     RDKit          3D

 44 47  0  0  0  0  0  0  0  0999 V2000
  140.6500   72.5870  220.8560 O   0  0  0  0  0  0  0  0  0  0  0  0
  140.2590   72.9100  222.0180 C   0  0  0  0  0  0  0  0  0  0  0  0
  139.8380   74.2680  222.1790 N   0  0  0  0  0  0  0  0  0  0  0  0
  139.8970   75.1200  221.0290 C   0  0  0  0  0  0  0  0  0  0  0  0
  140.4380   76.4720  221.3560 C   0  0  0  0  0  0  0  0  0  0  0  0
  140.2370   77.0430  222.4570 O   0  0  0  0  0  0  0  0  0  0  0  0
  141.2190   77.1510  220.3820 N   0  0  0  0  0  0  0  0  0  0  0  0
  142.1740   76.4860  219.4830 C   0  0  0  0  0  0  0  0  0  0  0  0
  142.0850   77.4130  218.2620 C   0  0  0  0  0  0  0  0  0  0  0  0
  142.2070   78.7490  218.9660 C   0  0  0  0  0  0  0  0  0  0  0  0
  141.2220   78.5710  220.1010 C   0  0  2  0  0  0  0  0  0  0  0  0
  141.5800   79.3940  221.2770 C   0  0  0  0  0  0  0  0  0  0  0  0
  142.3060   79.0220  222.3640 N   0  0  0  0  0  0  0  0  0  0  0  0
  142.3930   80.0830  223.1950 C   0  0  0  0  0  0  0  0  0  0  0  0
  141.6950   81.0970  222.5660 C   0  0  0  0  0  0  0  0  0  0  0  0
  141.2190   80.6450  221.4120 O   0  0  0  0  0  0  0  0  0  0  0  0
  140.2340   71.9660  223.1290 C   0  0  0  0  0  0  0  0  0  0  0  0
  139.7050   70.7150  222.8860 C   0  0  0  0  0  0  0  0  0  0  0  0
  139.6480   69.7690  223.8880 C   0  0  0  0  0  0  0  0  0  0  0  0
  140.1240   70.0720  225.1450 C   0  0  0  0  0  0  0  0  0  0  0  0
  140.0600   69.1160  226.1320 C   0  0  0  0  0  0  0  0  0  0  0  0
  140.5410   69.4310  227.3900 C   0  0  0  0  0  0  0  0  0  0  0  0
  140.4660   68.2230  228.6590 Cl  0  0  0  0  0  0  0  0  0  0  0  0
  141.0660   70.6840  227.6110 C   0  0  0  0  0  0  0  0  0  0  0  0
  141.1200   71.6320  226.6000 C   0  0  0  0  0  0  0  0  0  0  0  0
  140.6460   71.3370  225.3410 C   0  0  0  0  0  0  0  0  0  0  0  0
  140.6990   72.2590  224.3570 N   0  0  0  0  0  0  0  0  0  0  0  0
  139.5020   74.6070  223.1080 H   0  0  0  0  0  0  0  0  0  0  0  0
  140.5460   74.6518  220.2742 H   0  0  0  0  0  0  0  0  0  0  0  0
  138.8719   75.2488  220.6513 H   0  0  0  0  0  0  0  0  0  0  0  0
  143.1886   76.4672  219.9076 H   0  0  0  0  0  0  0  0  0  0  0  0
  141.9551   75.4279  219.2770 H   0  0  0  0  0  0  0  0  0  0  0  0
  142.9101   77.2431  217.5547 H   0  0  0  0  0  0  0  0  0  0  0  0
  141.1872   77.2880  217.6388 H   0  0  0  0  0  0  0  0  0  0  0  0
  143.2278   78.9163  219.3401 H   0  0  0  0  0  0  0  0  0  0  0  0
  142.0051   79.6190  218.3239 H   0  0  0  0  0  0  0  0  0  0  0  0
  140.2140   78.9184  219.8305 H   0  0  0  0  0  0  0  0  0  0  0  0
  142.9091   80.1303  224.1653 H   0  0  0  0  0  0  0  0  0  0  0  0
  141.5562   82.1151  222.9587 H   0  0  0  0  0  0  0  0  0  0  0  0
  139.3250   70.4698  221.8833 H   0  0  0  0  0  0  0  0  0  0  0  0
  139.2235   68.7749  223.6841 H   0  0  0  0  0  0  0  0  0  0  0  0
  139.6355   68.1225  225.9253 H   0  0  0  0  0  0  0  0  0  0  0  0
  141.4505   70.9387  228.6096 H   0  0  0  0  0  0  0  0  0  0  0  0
  141.5442   72.6260  226.8051 H   0  0  0  0  0  0  0  0  0  0  0  0
  1  2  2  0
  2  3  1  0
  3  4  1  0
  4  5  1  0
  5  6  2  0
  5  7  1  0
  7  8  1  0
  8  9  1  0
  9 10  1  0
 10 11  1  0
 11 12  1  0
 12 13  2  0
 13 14  1  0
 14 15  2  0
 15 16  1  0
  2 17  1  0
 17 18  2  0
 18 19  1  0
 19 20  2  0
 20 21  1  0
 21 22  2  0
 22 23  1  0
 22 24  1  0
 24 25  2  0
 25 26  1  0
 26 27  2  0
 11  7  1  0
 16 12  1  0
 27 17  1  0
 26 20  1  0
  3 28  1  0
  4 29  1  0
  4 30  1  0
  8 31  1  0
  8 32  1  0
  9 33  1  0
  9 34  1  0
 10 35  1  0
 10 36  1  0
 11 37  1  6
 14 38  1  0
 15 39  1  0
 18 40  1  0
 19 41  1  0
 21 42  1  0
 24 43  1  0
 25 44  1  0
M  END
>  <smiles>  (45) 
O=C(NCC(=O)N1CCC[C@@H]1c1ncco1)c1ccc2cc(Cl)ccc2n1

>  <score_type>  (45) 
oracle

>  <origin>  (45) 
autodockgpu

>  <m_score__min__energy>  (45) 
-7.7800000000000002

>  <m_primary>  (45) 
energy

>  <rmsd>  (45) 
2.159272868258327

>  <m_score__min__rmsd>  (45) 
2.159272868258327

>  <meeko>  (45) 
{"free_energy": -7.43, "intermolecular_energy": -8.92, "internal_energy": -1.38, "cluster_size": 6, "cluster_id": 2, "rank_in_cluster": 2}

>  <energy>  (45) 
-6.43

>  <cluster_rmsd>  (45) 
0.29

>  <cluster>  (45) 
7

$$$$

     RDKit          3D

 44 47  0  0  0  0  0  0  0  0999 V2000
  137.8400   71.3730  221.0350 O   0  0  0  0  0  0  0  0  0  0  0  0
  138.3550   71.8960  222.0690 C   0  0  0  0  0  0  0  0  0  0  0  0
  138.4960   73.3190  222.0420 N   0  0  0  0  0  0  0  0  0  0  0  0
  138.0480   74.0070  220.8680 C   0  0  0  0  0  0  0  0  0  0  0  0
  137.5730   75.3890  221.1700 C   0  0  0  0  0  0  0  0  0  0  0  0
  136.3640   75.7260  221.1130 O   0  0  0  0  0  0  0  0  0  0  0  0
  138.5270   76.3750  221.5410 N   0  0  0  0  0  0  0  0  0  0  0  0
  138.3890   77.8080  221.2380 C   0  0  0  0  0  0  0  0  0  0  0  0
  139.1340   78.4100  222.4380 C   0  0  0  0  0  0  0  0  0  0  0  0
  140.3760   77.5430  222.4100 C   0  0  0  0  0  0  0  0  0  0  0  0
  139.7650   76.1650  222.2600 C   0  0  2  0  0  0  0  0  0  0  0  0
  140.6810   75.2270  221.5760 C   0  0  0  0  0  0  0  0  0  0  0  0
  141.4110   75.4480  220.4510 N   0  0  0  0  0  0  0  0  0  0  0  0
  142.1100   74.3250  220.1750 C   0  0  0  0  0  0  0  0  0  0  0  0
  141.7700   73.4300  221.1730 C   0  0  0  0  0  0  0  0  0  0  0  0
  140.9070   74.0090  222.0000 O   0  0  0  0  0  0  0  0  0  0  0  0
  138.7800   71.1080  223.2200 C   0  0  0  0  0  0  0  0  0  0  0  0
  138.3820   69.7870  223.2640 C   0  0  0  0  0  0  0  0  0  0  0  0
  138.7450   68.9780  224.3220 C   0  0  0  0  0  0  0  0  0  0  0  0
  139.5140   69.4920  225.3440 C   0  0  0  0  0  0  0  0  0  0  0  0
  139.8670   68.6710  226.3910 C   0  0  0  0  0  0  0  0  0  0  0  0
  140.6380   69.1960  227.4110 C   0  0  0  0  0  0  0  0  0  0  0  0
  141.0970   68.1630  228.7520 Cl  0  0  0  0  0  0  0  0  0  0  0  0
  141.0250   70.5160  227.3470 C   0  0  0  0  0  0  0  0  0  0  0  0
  140.6570   71.3240  226.2820 C   0  0  0  0  0  0  0  0  0  0  0  0
  139.8890   70.8190  225.2550 C   0  0  0  0  0  0  0  0  0  0  0  0
  139.5300   71.6050  224.2190 N   0  0  0  0  0  0  0  0  0  0  0  0
  138.9120   73.8210  222.8580 H   0  0  0  0  0  0  0  0  0  0  0  0
  138.8819   74.0676  220.1532 H   0  0  0  0  0  0  0  0  0  0  0  0
  137.2012   73.4433  220.4493 H   0  0  0  0  0  0  0  0  0  0  0  0
  138.8708   78.0715  220.2849 H   0  0  0  0  0  0  0  0  0  0  0  0
  137.3531   78.1568  221.1147 H   0  0  0  0  0  0  0  0  0  0  0  0
  139.3705   79.4733  222.2847 H   0  0  0  0  0  0  0  0  0  0  0  0
  138.5785   78.4077  223.3875 H   0  0  0  0  0  0  0  0  0  0  0  0
  141.0235   77.7926  221.5565 H   0  0  0  0  0  0  0  0  0  0  0  0
  141.0274   77.6563  223.2891 H   0  0  0  0  0  0  0  0  0  0  0  0
  139.5758   75.6892  223.2336 H   0  0  0  0  0  0  0  0  0  0  0  0
  142.8016   74.1583  219.3360 H   0  0  0  0  0  0  0  0  0  0  0  0
  142.1530   72.4031  221.2668 H   0  0  0  0  0  0  0  0  0  0  0  0
  137.7698   69.3750  222.4483 H   0  0  0  0  0  0  0  0  0  0  0  0
  138.4217   67.9269  224.3494 H   0  0  0  0  0  0  0  0  0  0  0  0
  139.5426   67.6202  226.4154 H   0  0  0  0  0  0  0  0  0  0  0  0
  141.6383   70.9378  228.1569 H   0  0  0  0  0  0  0  0  0  0  0  0
  140.9802   72.3751  226.2566 H   0  0  0  0  0  0  0  0  0  0  0  0
  1  2  2  0
  2  3  1  0
  3  4  1  0
  4  5  1  0
  5  6  2  0
  5  7  1  0
  7  8  1  0
  8  9  1  0
  9 10  1  0
 10 11  1  0
 11 12  1  0
 12 13  2  0
 13 14  1  0
 14 15  2  0
 15 16  1  0
  2 17  1  0
 17 18  2  0
 18 19  1  0
 19 20  2  0
 20 21  1  0
 21 22  2  0
 22 23  1  0
 22 24  1  0
 24 25  2  0
 25 26  1  0
 26 27  2  0
 11  7  1  0
 16 12  1  0
 27 17  1  0
 26 20  1  0
  3 28  1  0
  4 29  1  0
  4 30  1  0
  8 31  1  0
  8 32  1  0
  9 33  1  0
  9 34  1  0
 10 35  1  0
 10 36  1  0
 11 37  1  1
 14 38  1  0
 15 39  1  0
 18 40  1  0
 19 41  1  0
 21 42  1  0
 24 43  1  0
 25 44  1  0
M  END
>  <smiles>  (46) 
O=C(NCC(=O)N1CCC[C@@H]1c1ncco1)c1ccc2cc(Cl)ccc2n1

>  <score_type>  (46) 
oracle

>  <origin>  (46) 
autodockgpu

>  <m_score__min__energy>  (46) 
-7.7800000000000002

>  <m_primary>  (46) 
energy

>  <rmsd>  (46) 
3.3260973275456798

>  <m_score__min__rmsd>  (46) 
3.3260973275456798

>  <meeko>  (46) 
{"free_energy": -6.93, "intermolecular_energy": -8.42, "internal_energy": -2.02, "cluster_size": 1, "cluster_id": 6, "rank_in_cluster": 1}

>  <energy>  (46) 
-6.02

>  <cluster_rmsd>  (46) 
0.0

>  <cluster>  (46) 
8

$$$$

     RDKit          3D

 44 47  0  0  0  0  0  0  0  0999 V2000
  138.4940   71.4390  220.7670 O   0  0  0  0  0  0  0  0  0  0  0  0
  138.8990   71.9720  221.8440 C   0  0  0  0  0  0  0  0  0  0  0  0
  139.0070   73.3980  221.8320 N   0  0  0  0  0  0  0  0  0  0  0  0
  138.6510   74.0790  220.6230 C   0  0  0  0  0  0  0  0  0  0  0  0
  139.6470   73.8530  219.5340 C   0  0  0  0  0  0  0  0  0  0  0  0
  139.3210   73.6490  218.3380 O   0  0  0  0  0  0  0  0  0  0  0  0
  141.0300   73.8680  219.8580 N   0  0  0  0  0  0  0  0  0  0  0  0
  141.8240   72.6620  220.1360 C   0  0  0  0  0  0  0  0  0  0  0  0
  143.2010   73.1230  219.6340 C   0  0  0  0  0  0  0  0  0  0  0  0
  143.2580   74.4800  220.3060 C   0  0  0  0  0  0  0  0  0  0  0  0
  141.8880   75.0290  219.9690 C   0  0  2  0  0  0  0  0  0  0  0  0
  141.4190   76.0010  220.9810 C   0  0  0  0  0  0  0  0  0  0  0  0
  141.6640   77.3370  221.0270 N   0  0  0  0  0  0  0  0  0  0  0  0
  141.0460   77.8410  222.1180 C   0  0  0  0  0  0  0  0  0  0  0  0
  140.4270   76.7590  222.7190 C   0  0  0  0  0  0  0  0  0  0  0  0
  140.6740   75.6670  222.0040 O   0  0  0  0  0  0  0  0  0  0  0  0
  139.2370   71.1900  223.0280 C   0  0  0  0  0  0  0  0  0  0  0  0
  138.8980   69.8520  223.0210 C   0  0  0  0  0  0  0  0  0  0  0  0
  139.1860   69.0480  224.1050 C   0  0  0  0  0  0  0  0  0  0  0  0
  139.8190   69.5840  225.2060 C   0  0  0  0  0  0  0  0  0  0  0  0
  140.0980   68.7680  226.2790 C   0  0  0  0  0  0  0  0  0  0  0  0
  140.7330   69.3150  227.3780 C   0  0  0  0  0  0  0  0  0  0  0  0
  141.0970   68.2890  228.7520 Cl  0  0  0  0  0  0  0  0  0  0  0  0
  141.0640   70.6520  227.3640 C   0  0  0  0  0  0  0  0  0  0  0  0
  140.7720   71.4550  226.2710 C   0  0  0  0  0  0  0  0  0  0  0  0
  140.1390   70.9280  225.1670 C   0  0  0  0  0  0  0  0  0  0  0  0
  139.8550   71.7090  224.1040 N   0  0  0  0  0  0  0  0  0  0  0  0
  139.3340   73.9070  222.6830 H   0  0  0  0  0  0  0  0  0  0  0  0
  137.6694   73.7138  220.2866 H   0  0  0  0  0  0  0  0  0  0  0  0
  138.6248   75.1574  220.8381 H   0  0  0  0  0  0  0  0  0  0  0  0
  141.8405   72.4234  221.2097 H   0  0  0  0  0  0  0  0  0  0  0  0
  141.4458   71.7417  219.6670 H   0  0  0  0  0  0  0  0  0  0  0  0
  144.0082   72.4590  219.9769 H   0  0  0  0  0  0  0  0  0  0  0  0
  143.3270   73.1312  218.5413 H   0  0  0  0  0  0  0  0  0  0  0  0
  143.3993   74.3866  221.3929 H   0  0  0  0  0  0  0  0  0  0  0  0
  144.0938   75.1142  219.9754 H   0  0  0  0  0  0  0  0  0  0  0  0
  141.8932   75.6028  219.0305 H   0  0  0  0  0  0  0  0  0  0  0  0
  141.0369   78.8877  222.4561 H   0  0  0  0  0  0  0  0  0  0  0  0
  139.8271   76.7971  223.6403 H   0  0  0  0  0  0  0  0  0  0  0  0
  138.3934   69.4225  222.1430 H   0  0  0  0  0  0  0  0  0  0  0  0
  138.9114   67.9829  224.0905 H   0  0  0  0  0  0  0  0  0  0  0  0
  139.8215   67.7035  226.2621 H   0  0  0  0  0  0  0  0  0  0  0  0
  141.5697   71.0916  228.2364 H   0  0  0  0  0  0  0  0  0  0  0  0
  141.0479   72.5197  226.2861 H   0  0  0  0  0  0  0  0  0  0  0  0
  1  2  2  0
  2  3  1  0
  3  4  1  0
  4  5  1  0
  5  6  2  0
  5  7  1  0
  7  8  1  0
  8  9  1  0
  9 10  1  0
 10 11  1  0
 11 12  1  0
 12 13  2  0
 13 14  1  0
 14 15  2  0
 15 16  1  0
  2 17  1  0
 17 18  2  0
 18 19  1  0
 19 20  2  0
 20 21  1  0
 21 22  2  0
 22 23  1  0
 22 24  1  0
 24 25  2  0
 25 26  1  0
 26 27  2  0
 11  7  1  0
 16 12  1  0
 27 17  1  0
 26 20  1  0
  3 28  1  0
  4 29  1  0
  4 30  1  0
  8 31  1  0
  8 32  1  0
  9 33  1  0
  9 34  1  0
 10 35  1  0
 10 36  1  0
 11 37  1  6
 14 38  1  0
 15 39  1  0
 18 40  1  0
 19 41  1  0
 21 42  1  0
 24 43  1  0
 25 44  1  0
M  END
>  <smiles>  (47) 
O=C(NCC(=O)N1CCC[C@@H]1c1ncco1)c1ccc2cc(Cl)ccc2n1

>  <score_type>  (47) 
oracle

>  <origin>  (47) 
autodockgpu

>  <m_score__min__energy>  (47) 
-7.7800000000000002

>  <m_primary>  (47) 
energy

>  <rmsd>  (47) 
2.5205342886322333

>  <m_score__min__rmsd>  (47) 
2.5205342886322333

>  <meeko>  (47) 
{"free_energy": -6.41, "intermolecular_energy": -7.9, "internal_energy": -2.29, "cluster_size": 6, "cluster_id": 2, "rank_in_cluster": 6}

>  <energy>  (47) 
-6.0

>  <cluster_rmsd>  (47) 
0.0

>  <cluster>  (47) 
9

$$$$

     RDKit          3D

 44 47  0  0  0  0  0  0  0  0999 V2000
  141.8190   78.6320  217.4990 O   0  0  0  0  0  0  0  0  0  0  0  0
  142.2970   78.1010  218.5460 C   0  0  0  0  0  0  0  0  0  0  0  0
  142.2000   78.8830  219.7400 N   0  0  0  0  0  0  0  0  0  0  0  0
  141.5810   80.1710  219.6390 C   0  0  0  0  0  0  0  0  0  0  0  0
  140.9570   80.5990  220.9260 C   0  0  0  0  0  0  0  0  0  0  0  0
  139.9670   81.3720  220.9840 O   0  0  0  0  0  0  0  0  0  0  0  0
  141.5010   80.1150  222.1460 N   0  0  0  0  0  0  0  0  0  0  0  0
  142.8200   80.5010  222.6690 C   0  0  0  0  0  0  0  0  0  0  0  0
  142.5540   80.3910  224.1780 C   0  0  0  0  0  0  0  0  0  0  0  0
  141.8750   79.0360  224.2030 C   0  0  0  0  0  0  0  0  0  0  0  0
  140.8840   79.1870  223.0690 C   0  0  2  0  0  0  0  0  0  0  0  0
  140.5530   77.8860  222.4490 C   0  0  0  0  0  0  0  0  0  0  0  0
  139.3410   77.2700  222.4010 N   0  0  0  0  0  0  0  0  0  0  0  0
  139.4890   76.1010  221.7410 C   0  0  0  0  0  0  0  0  0  0  0  0
  140.8270   76.0430  221.3980 C   0  0  0  0  0  0  0  0  0  0  0  0
  141.4370   77.1360  221.8410 O   0  0  0  0  0  0  0  0  0  0  0  0
  142.9090   76.7780  218.5480 C   0  0  0  0  0  0  0  0  0  0  0  0
  142.8590   76.0560  217.3730 C   0  0  0  0  0  0  0  0  0  0  0  0
  143.4160   74.7960  217.2970 C   0  0  0  0  0  0  0  0  0  0  0  0
  144.0300   74.2510  218.4050 C   0  0  0  0  0  0  0  0  0  0  0  0
  144.5810   72.9930  218.3110 C   0  0  0  0  0  0  0  0  0  0  0  0
  145.1940   72.4550  219.4280 C   0  0  0  0  0  0  0  0  0  0  0  0
  145.9010   70.8540  219.3260 Cl  0  0  0  0  0  0  0  0  0  0  0  0
  145.2340   73.1930  220.5900 C   0  0  0  0  0  0  0  0  0  0  0  0
  144.6710   74.4590  220.6610 C   0  0  0  0  0  0  0  0  0  0  0  0
  144.0560   75.0110  219.5580 C   0  0  0  0  0  0  0  0  0  0  0  0
  143.5090   76.2420  219.6260 N   0  0  0  0  0  0  0  0  0  0  0  0
  142.5720   78.5120  220.6430 H   0  0  0  0  0  0  0  0  0  0  0  0
  142.3443   80.9094  219.3525 H   0  0  0  0  0  0  0  0  0  0  0  0
  140.7846   80.1047  218.8831 H   0  0  0  0  0  0  0  0  0  0  0  0
  143.6076   79.8062  222.3420 H   0  0  0  0  0  0  0  0  0  0  0  0
  143.1807   81.4846  222.3336 H   0  0  0  0  0  0  0  0  0  0  0  0
  143.4860   80.3958  224.7622 H   0  0  0  0  0  0  0  0  0  0  0  0
  141.9757   81.2173  224.6171 H   0  0  0  0  0  0  0  0  0  0  0  0
  142.5897   78.2226  224.0090 H   0  0  0  0  0  0  0  0  0  0  0  0
  141.4204   78.7750  225.1701 H   0  0  0  0  0  0  0  0  0  0  0  0
  139.9135   79.5699  223.4176 H   0  0  0  0  0  0  0  0  0  0  0  0
  138.7111   75.3545  221.5229 H   0  0  0  0  0  0  0  0  0  0  0  0
  141.3092   75.2225  220.8463 H   0  0  0  0  0  0  0  0  0  0  0  0
  142.3701   76.4894  216.4881 H   0  0  0  0  0  0  0  0  0  0  0  0
  143.3705   74.2282  216.3560 H   0  0  0  0  0  0  0  0  0  0  0  0
  144.5348   72.4281  217.3683 H   0  0  0  0  0  0  0  0  0  0  0  0
  145.7224   72.7700  221.4802 H   0  0  0  0  0  0  0  0  0  0  0  0
  144.7157   75.0254  221.6029 H   0  0  0  0  0  0  0  0  0  0  0  0
  1  2  2  0
  2  3  1  0
  3  4  1  0
  4  5  1  0
  5  6  2  0
  5  7  1  0
  7  8  1  0
  8  9  1  0
  9 10  1  0
 10 11  1  0
 11 12  1  0
 12 13  2  0
 13 14  1  0
 14 15  2  0
 15 16  1  0
  2 17  1  0
 17 18  2  0
 18 19  1  0
 19 20  2  0
 20 21  1  0
 21 22  2  0
 22 23  1  0
 22 24  1  0
 24 25  2  0
 25 26  1  0
 26 27  2  0
 11  7  1  0
 16 12  1  0
 27 17  1  0
 26 20  1  0
  3 28  1  0
  4 29  1  0
  4 30  1  0
  8 31  1  0
  8 32  1  0
  9 33  1  0
  9 34  1  0
 10 35  1  0
 10 36  1  0
 11 37  1  1
 14 38  1  0
 15 39  1  0
 18 40  1  0
 19 41  1  0
 21 42  1  0
 24 43  1  0
 25 44  1  0
M  END
>  <smiles>  (48) 
O=C(NCC(=O)N1CCC[C@@H]1c1ncco1)c1ccc2cc(Cl)ccc2n1

>  <score_type>  (48) 
oracle

>  <origin>  (48) 
autodockgpu

>  <m_score__min__energy>  (48) 
-7.7800000000000002

>  <m_primary>  (48) 
energy

>  <rmsd>  (48) 
7.873810451607028

>  <m_score__min__rmsd>  (48) 
7.873810451607028

>  <meeko>  (48) 
{"free_energy": -5.99, "intermolecular_energy": -7.48, "internal_energy": -2.72, "cluster_size": 3, "cluster_id": 9, "rank_in_cluster": 2}

>  <energy>  (48) 
-5.99

>  <cluster_rmsd>  (48) 
0.3

>  <cluster>  (48) 
9

$$$$

     RDKit          3D

 44 47  0  0  0  0  0  0  0  0999 V2000
  135.2630   68.5830  224.7300 O   0  0  0  0  0  0  0  0  0  0  0  0
  135.7120   69.7510  224.9390 C   0  0  0  0  0  0  0  0  0  0  0  0
  137.0840   69.9610  224.5950 N   0  0  0  0  0  0  0  0  0  0  0  0
  137.8100   68.8500  224.0560 C   0  0  0  0  0  0  0  0  0  0  0  0
  139.0030   68.5010  224.8820 C   0  0  0  0  0  0  0  0  0  0  0  0
  139.4530   67.3320  224.9770 O   0  0  0  0  0  0  0  0  0  0  0  0
  139.6670   69.5340  225.5960 N   0  0  0  0  0  0  0  0  0  0  0  0
  139.4270   69.8400  227.0150 C   0  0  0  0  0  0  0  0  0  0  0  0
  140.8140   70.3640  227.4160 C   0  0  0  0  0  0  0  0  0  0  0  0
  141.0540   71.3150  226.2620 C   0  0  0  0  0  0  0  0  0  0  0  0
  140.6670   70.4460  225.0840 C   0  0  2  0  0  0  0  0  0  0  0  0
  140.1870   71.2510  223.9390 C   0  0  0  0  0  0  0  0  0  0  0  0
  140.9270   71.8030  222.9420 N   0  0  0  0  0  0  0  0  0  0  0  0
  140.0880   72.4530  222.1060 C   0  0  0  0  0  0  0  0  0  0  0  0
  138.8260   72.2680  222.6400 C   0  0  0  0  0  0  0  0  0  0  0  0
  138.9250   71.5380  223.7450 O   0  0  0  0  0  0  0  0  0  0  0  0
  134.8900   70.8200  225.4930 C   0  0  0  0  0  0  0  0  0  0  0  0
  133.8870   70.4590  226.3690 C   0  0  0  0  0  0  0  0  0  0  0  0
  133.0680   71.4150  226.9340 C   0  0  0  0  0  0  0  0  0  0  0  0
  133.2530   72.7460  226.6230 C   0  0  0  0  0  0  0  0  0  0  0  0
  132.4280   73.6860  227.1960 C   0  0  0  0  0  0  0  0  0  0  0  0
  132.6220   75.0170  226.8780 C   0  0  0  0  0  0  0  0  0  0  0  0
  131.5790   76.2280  227.6000 Cl  0  0  0  0  0  0  0  0  0  0  0  0
  133.6290   75.3570  226.0030 C   0  0  0  0  0  0  0  0  0  0  0  0
  134.4480   74.3910  225.4370 C   0  0  0  0  0  0  0  0  0  0  0  0
  134.2700   73.0590  225.7430 C   0  0  0  0  0  0  0  0  0  0  0  0
  135.0670   72.1200  225.1920 N   0  0  0  0  0  0  0  0  0  0  0  0
  137.5230   70.8980  224.7390 H   0  0  0  0  0  0  0  0  0  0  0  0
  137.1415   67.9775  224.0130 H   0  0  0  0  0  0  0  0  0  0  0  0
  138.1646   69.1329  223.0539 H   0  0  0  0  0  0  0  0  0  0  0  0
  138.6491   70.6075  227.1407 H   0  0  0  0  0  0  0  0  0  0  0  0
  139.0614   68.9936  227.6150 H   0  0  0  0  0  0  0  0  0  0  0  0
  140.7929   70.8871  228.3834 H   0  0  0  0  0  0  0  0  0  0  0  0
  141.5857   69.5937  227.5611 H   0  0  0  0  0  0  0  0  0  0  0  0
  140.4136   72.2065  226.3336 H   0  0  0  0  0  0  0  0  0  0  0  0
  142.0767   71.7168  226.2116 H   0  0  0  0  0  0  0  0  0  0  0  0
  141.5276   69.8937  224.6786 H   0  0  0  0  0  0  0  0  0  0  0  0
  140.3523   73.0103  221.1952 H   0  0  0  0  0  0  0  0  0  0  0  0
  137.8901   72.6623  222.2173 H   0  0  0  0  0  0  0  0  0  0  0  0
  133.7387   69.3982  226.6195 H   0  0  0  0  0  0  0  0  0  0  0  0
  132.2702   71.1167  227.6301 H   0  0  0  0  0  0  0  0  0  0  0  0
  131.6313   73.3849  227.8921 H   0  0  0  0  0  0  0  0  0  0  0  0
  133.7872   76.4152  225.7477 H   0  0  0  0  0  0  0  0  0  0  0  0
  135.2444   74.6899  224.7396 H   0  0  0  0  0  0  0  0  0  0  0  0
  1  2  2  0
  2  3  1  0
  3  4  1  0
  4  5  1  0
  5  6  2  0
  5  7  1  0
  7  8  1  0
  8  9  1  0
  9 10  1  0
 10 11  1  0
 11 12  1  0
 12 13  2  0
 13 14  1  0
 14 15  2  0
 15 16  1  0
  2 17  1  0
 17 18  2  0
 18 19  1  0
 19 20  2  0
 20 21  1  0
 21 22  2  0
 22 23  1  0
 22 24  1  0
 24 25  2  0
 25 26  1  0
 26 27  2  0
 11  7  1  0
 16 12  1  0
 27 17  1  0
 26 20  1  0
  3 28  1  0
  4 29  1  0
  4 30  1  0
  8 31  1  0
  8 32  1  0
  9 33  1  0
  9 34  1  0
 10 35  1  0
 10 36  1  0
 11 37  1  6
 14 38  1  0
 15 39  1  0
 18 40  1  0
 19 41  1  0
 21 42  1  0
 24 43  1  0
 25 44  1  0
M  END
>  <smiles>  (49) 
O=C(NCC(=O)N1CCC[C@@H]1c1ncco1)c1ccc2cc(Cl)ccc2n1

>  <score_type>  (49) 
oracle

>  <origin>  (49) 
autodockgpu

>  <m_score__min__energy>  (49) 
-7.7800000000000002

>  <m_primary>  (49) 
energy

>  <rmsd>  (49) 
7.989757179103848

>  <m_score__min__rmsd>  (49) 
7.989757179103848

>  <meeko>  (49) 
{"free_energy": -7.08, "intermolecular_energy": -8.58, "internal_energy": -2.27, "cluster_size": 12, "cluster_id": 4, "rank_in_cluster": 5}

>  <energy>  (49) 
-5.48

>  <cluster_rmsd>  (49) 
1.3

>  <cluster>  (49) 
9

$$$$

     RDKit          3D

 44 47  0  0  0  0  0  0  0  0999 V2000
  135.0560   68.6140  224.8960 O   0  0  0  0  0  0  0  0  0  0  0  0
  135.5010   69.7980  224.9780 C   0  0  0  0  0  0  0  0  0  0  0  0
  136.8080   70.0110  224.4390 N   0  0  0  0  0  0  0  0  0  0  0  0
  137.4800   68.8830  223.8650 C   0  0  0  0  0  0  0  0  0  0  0  0
  138.7370   68.5440  224.5950 C   0  0  0  0  0  0  0  0  0  0  0  0
  139.2310   67.3880  224.6110 O   0  0  0  0  0  0  0  0  0  0  0  0
  139.4140   69.5700  225.3080 N   0  0  0  0  0  0  0  0  0  0  0  0
  139.2230   69.8410  226.7410 C   0  0  0  0  0  0  0  0  0  0  0  0
  140.6160   70.3760  227.1020 C   0  0  0  0  0  0  0  0  0  0  0  0
  140.8000   71.3560  225.9610 C   0  0  0  0  0  0  0  0  0  0  0  0
  140.3820   70.5070  224.7790 C   0  0  2  0  0  0  0  0  0  0  0  0
  139.8480   71.3300  223.6710 C   0  0  0  0  0  0  0  0  0  0  0  0
  140.3250   72.5170  223.2120 N   0  0  0  0  0  0  0  0  0  0  0  0
  139.5390   72.9190  222.1900 C   0  0  0  0  0  0  0  0  0  0  0  0
  138.5800   71.9310  222.0570 C   0  0  0  0  0  0  0  0  0  0  0  0
  138.7990   70.9890  222.9660 O   0  0  0  0  0  0  0  0  0  0  0  0
  134.7380   70.8840  225.5820 C   0  0  0  0  0  0  0  0  0  0  0  0
  133.7640   70.5410  226.4980 C   0  0  0  0  0  0  0  0  0  0  0  0
  133.0010   71.5140  227.1100 C   0  0  0  0  0  0  0  0  0  0  0  0
  133.2120   72.8420  226.8070 C   0  0  0  0  0  0  0  0  0  0  0  0
  132.4420   73.7980  227.4280 C   0  0  0  0  0  0  0  0  0  0  0  0
  132.6610   75.1280  227.1170 C   0  0  0  0  0  0  0  0  0  0  0  0
  131.6880   76.3590  227.9000 Cl  0  0  0  0  0  0  0  0  0  0  0  0
  133.6380   75.4490  226.2010 C   0  0  0  0  0  0  0  0  0  0  0  0
  134.4020   74.4670  225.5880 C   0  0  0  0  0  0  0  0  0  0  0  0
  134.1980   73.1370  225.8860 C   0  0  0  0  0  0  0  0  0  0  0  0
  134.9410   72.1820  225.2890 N   0  0  0  0  0  0  0  0  0  0  0  0
  137.2410   70.9610  224.4700 H   0  0  0  0  0  0  0  0  0  0  0  0
  136.8058   68.0144  223.8983 H   0  0  0  0  0  0  0  0  0  0  0  0
  137.7496   69.1412  222.8303 H   0  0  0  0  0  0  0  0  0  0  0  0
  138.4398   70.5941  226.9127 H   0  0  0  0  0  0  0  0  0  0  0  0
  138.8917   68.9764  227.3348 H   0  0  0  0  0  0  0  0  0  0  0  0
  140.6237   70.8774  228.0810 H   0  0  0  0  0  0  0  0  0  0  0  0
  141.4031   69.6140  227.2011 H   0  0  0  0  0  0  0  0  0  0  0  0
  140.1502   72.2361  226.0759 H   0  0  0  0  0  0  0  0  0  0  0  0
  141.8144   71.7742  225.8822 H   0  0  0  0  0  0  0  0  0  0  0  0
  141.2342   69.9761  224.3296 H   0  0  0  0  0  0  0  0  0  0  0  0
  139.6399   73.8362  221.5912 H   0  0  0  0  0  0  0  0  0  0  0  0
  137.7664   71.9267  221.3167 H   0  0  0  0  0  0  0  0  0  0  0  0
  133.5946   69.4819  226.7423 H   0  0  0  0  0  0  0  0  0  0  0  0
  132.2264   71.2307  227.8378 H   0  0  0  0  0  0  0  0  0  0  0  0
  131.6689   73.5111  228.1560 H   0  0  0  0  0  0  0  0  0  0  0  0
  133.8160   76.5052  225.9505 H   0  0  0  0  0  0  0  0  0  0  0  0
  135.1755   74.7515  224.8595 H   0  0  0  0  0  0  0  0  0  0  0  0
  1  2  2  0
  2  3  1  0
  3  4  1  0
  4  5  1  0
  5  6  2  0
  5  7  1  0
  7  8  1  0
  8  9  1  0
  9 10  1  0
 10 11  1  0
 11 12  1  0
 12 13  2  0
 13 14  1  0
 14 15  2  0
 15 16  1  0
  2 17  1  0
 17 18  2  0
 18 19  1  0
 19 20  2  0
 20 21  1  0
 21 22  2  0
 22 23  1  0
 22 24  1  0
 24 25  2  0
 25 26  1  0
 26 27  2  0
 11  7  1  0
 16 12  1  0
 27 17  1  0
 26 20  1  0
  3 28  1  0
  4 29  1  0
  4 30  1  0
  8 31  1  0
  8 32  1  0
  9 33  1  0
  9 34  1  0
 10 35  1  0
 10 36  1  0
 11 37  1  6
 14 38  1  0
 15 39  1  0
 18 40  1  0
 19 41  1  0
 21 42  1  0
 24 43  1  0
 25 44  1  0
M  END
>  <smiles>  (50) 
O=C(NCC(=O)N1CCC[C@@H]1c1ncco1)c1ccc2cc(Cl)ccc2n1

>  <score_type>  (50) 
oracle

>  <origin>  (50) 
autodockgpu

>  <m_score__min__energy>  (50) 
-7.7800000000000002

>  <m_primary>  (50) 
energy

>  <rmsd>  (50) 
7.935475127607462

>  <m_score__min__rmsd>  (50) 
7.935475127607462

>  <meeko>  (50) 
{"free_energy": -7.09, "intermolecular_energy": -8.58, "internal_energy": -2.12, "cluster_size": 12, "cluster_id": 4, "rank_in_cluster": 4}

>  <energy>  (50) 
-5.55

>  <cluster_rmsd>  (50) 
0.0

>  <cluster>  (50) 
10

$$$$
