
     RDKit          3D

 50 53  0  0  0  0  0  0  0  0999 V2000
  146.3200   73.0080  218.6290 N   0  0  0  0  0  0  0  0  0  0  0  0
  145.3390   73.3540  219.1480 C   0  0  0  0  0  0  0  0  0  0  0  0
  144.1180   73.7880  219.7690 C   0  0  0  0  0  0  0  0  0  0  0  0
  143.6650   75.0740  219.6430 C   0  0  0  0  0  0  0  0  0  0  0  0
  142.4950   75.5060  220.2330 C   0  0  0  0  0  0  0  0  0  0  0  0
  141.7810   74.5820  220.9690 C   0  0  0  0  0  0  0  0  0  0  0  0
  140.5900   74.9730  221.5850 C   0  0  0  0  0  0  0  0  0  0  0  0
  140.1890   76.2890  221.4170 O   0  0  0  0  0  0  0  0  0  0  0  0
  140.1560   77.1110  222.5650 C   0  0  0  0  0  0  0  0  0  0  0  0
  141.0650   78.3340  222.3770 C   0  0  0  0  0  0  0  0  0  0  0  0
  141.8280   78.5920  223.6190 C   0  0  0  0  0  0  0  0  0  0  0  0
  142.3550   79.9680  223.8020 C   0  0  0  0  0  0  0  0  0  0  0  0
  141.8110   81.0230  222.9190 C   0  0  0  0  0  0  0  0  0  0  0  0
  141.3330   80.5830  221.5660 C   0  0  0  0  0  0  0  0  0  0  0  0
  140.2940   79.4840  221.8210 C   0  0  0  0  0  0  0  0  0  0  0  0
  139.8740   74.0760  222.3140 N   0  0  0  0  0  0  0  0  0  0  0  0
  140.3000   72.8000  222.4540 C   0  0  0  0  0  0  0  0  0  0  0  0
  139.5450   71.8270  223.2320 C   0  0  0  0  0  0  0  0  0  0  0  0
  140.1660   70.9010  223.9430 C   0  0  0  0  0  0  0  0  0  0  0  0
  140.2910   70.9400  225.3800 C   0  0  0  0  0  0  0  0  0  0  0  0
  141.0310   71.8710  226.0510 C   0  0  0  0  0  0  0  0  0  0  0  0
  141.0810   71.8140  227.4240 C   0  0  0  0  0  0  0  0  0  0  0  0
  140.4080   70.8490  228.1500 C   0  0  0  0  0  0  0  0  0  0  0  0
  139.6890   69.9470  227.4700 N   0  0  0  0  0  0  0  0  0  0  0  0
  139.6310   69.9880  226.1450 C   0  0  0  0  0  0  0  0  0  0  0  0
  141.4500   72.4280  221.8580 N   0  0  0  0  0  0  0  0  0  0  0  0
  142.2070   73.2640  221.1220 C   0  0  0  0  0  0  0  0  0  0  0  0
  143.3840   72.8730  220.5150 C   0  0  0  0  0  0  0  0  0  0  0  0
  144.2551   75.7883  219.0501 H   0  0  0  0  0  0  0  0  0  0  0  0
  142.1459   76.5432  220.1215 H   0  0  0  0  0  0  0  0  0  0  0  0
  139.1240   77.4502  222.7378 H   0  0  0  0  0  0  0  0  0  0  0  0
  140.5141   76.5309  223.4283 H   0  0  0  0  0  0  0  0  0  0  0  0
  141.8338   78.1416  221.6141 H   0  0  0  0  0  0  0  0  0  0  0  0
  141.1655   78.3726  224.4693 H   0  0  0  0  0  0  0  0  0  0  0  0
  142.7170   77.9476  223.5523 H   0  0  0  0  0  0  0  0  0  0  0  0
  142.1481   80.2663  224.8404 H   0  0  0  0  0  0  0  0  0  0  0  0
  143.4212   79.9006  223.5399 H   0  0  0  0  0  0  0  0  0  0  0  0
  140.9606   81.4883  223.4389 H   0  0  0  0  0  0  0  0  0  0  0  0
  142.6539   81.7022  222.7234 H   0  0  0  0  0  0  0  0  0  0  0  0
  140.8733   81.4266  221.0302 H   0  0  0  0  0  0  0  0  0  0  0  0
  142.1635   80.2158  220.9452 H   0  0  0  0  0  0  0  0  0  0  0  0
  139.5395   79.8275  222.5440 H   0  0  0  0  0  0  0  0  0  0  0  0
  139.7537   79.2097  220.9029 H   0  0  0  0  0  0  0  0  0  0  0  0
  138.4456   71.8630  223.2280 H   0  0  0  0  0  0  0  0  0  0  0  0
  140.6137   70.0509  223.4074 H   0  0  0  0  0  0  0  0  0  0  0  0
  141.5774   72.6527  225.5029 H   0  0  0  0  0  0  0  0  0  0  0  0
  141.6781   72.5634  227.9642 H   0  0  0  0  0  0  0  0  0  0  0  0
  140.4613   70.8231  229.2484 H   0  0  0  0  0  0  0  0  0  0  0  0
  139.0286   69.2281  225.6257 H   0  0  0  0  0  0  0  0  0  0  0  0
  143.7407   71.8379  220.6217 H   0  0  0  0  0  0  0  0  0  0  0  0
  1  2  3  0
  2  3  1  0
  3  4  2  0
  4  5  1  0
  5  6  2  0
  6  7  1  0
  7  8  1  0
  8  9  1  0
  9 10  1  0
 10 11  1  0
 11 12  1  0
 12 13  1  0
 13 14  1  0
 14 15  1  0
  7 16  2  0
 16 17  1  0
 17 18  1  0
 18 19  2  0
 19 20  1  0
 20 21  2  0
 21 22  1  0
 22 23  2  0
 23 24  1  0
 24 25  2  0
 17 26  2  0
 26 27  1  0
 27 28  2  0
 28  3  1  0
 27  6  1  0
 15 10  1  0
 25 20  1  0
  4 29  1  0
  5 30  1  0
  9 31  1  0
  9 32  1  0
 10 33  1  0
 11 34  1  0
 11 35  1  0
 12 36  1  0
 12 37  1  0
 13 38  1  0
 13 39  1  0
 14 40  1  0
 14 41  1  0
 15 42  1  0
 15 43  1  0
 18 44  1  0
 19 45  1  0
 21 46  1  0
 22 47  1  0
 23 48  1  0
 25 49  1  0
 28 50  1  0
M  END
>  <smiles>  (1) 
N#Cc1ccc2c(OCC3CCCCC3)nc(/C=C/c3cccnc3)nc2c1

>  <score_type>  (1) 
oracle

>  <origin>  (1) 
autodockgpu

>  <m_score__min__energy>  (1) 
-9.4900000000000002

>  <m_primary>  (1) 
energy

>  <rmsd>  (1) 
7.412385061116563

>  <m_score__min__rmsd>  (1) 
7.412385061116563

>  <meeko>  (1) 
{"free_energy": -9.37, "intermolecular_energy": -11.46, "internal_energy": -0.99, "cluster_size": 35, "cluster_id": 1, "rank_in_cluster": 13}

>  <energy>  (1) 
-9.49

>  <cluster_rmsd>  (1) 
0.0

>  <cluster>  (1) 
1

$$$$

     RDKit          3D

 50 53  0  0  0  0  0  0  0  0999 V2000
  146.2760   73.3400  218.7690 N   0  0  0  0  0  0  0  0  0  0  0  0
  145.2750   73.2240  219.3490 C   0  0  0  0  0  0  0  0  0  0  0  0
  144.0340   73.1030  220.0610 C   0  0  0  0  0  0  0  0  0  0  0  0
  143.5900   71.8980  220.5350 C   0  0  0  0  0  0  0  0  0  0  0  0
  142.4000   71.7650  221.2210 C   0  0  0  0  0  0  0  0  0  0  0  0
  141.6560   72.9120  221.4190 C   0  0  0  0  0  0  0  0  0  0  0  0
  140.4440   72.8280  222.1080 C   0  0  0  0  0  0  0  0  0  0  0  0
  140.0540   71.5770  222.5610 O   0  0  0  0  0  0  0  0  0  0  0  0
  138.9570   71.5190  223.4480 C   0  0  0  0  0  0  0  0  0  0  0  0
  139.3790   70.8930  224.7850 C   0  0  0  0  0  0  0  0  0  0  0  0
  140.6480   71.4980  225.2490 C   0  0  0  0  0  0  0  0  0  0  0  0
  141.4480   70.7070  226.2160 C   0  0  0  0  0  0  0  0  0  0  0  0
  141.0920   69.2800  226.3800 C   0  0  0  0  0  0  0  0  0  0  0  0
  139.6600   68.9140  226.1240 C   0  0  0  0  0  0  0  0  0  0  0  0
  139.3450   69.4030  224.7040 C   0  0  0  0  0  0  0  0  0  0  0  0
  139.6980   73.9460  222.3120 N   0  0  0  0  0  0  0  0  0  0  0  0
  140.1140   75.1490  221.8540 C   0  0  0  0  0  0  0  0  0  0  0  0
  139.3260   76.3560  222.0640 C   0  0  0  0  0  0  0  0  0  0  0  0
  139.7390   77.5220  221.5970 C   0  0  0  0  0  0  0  0  0  0  0  0
  140.6270   78.4070  222.3120 C   0  0  0  0  0  0  0  0  0  0  0  0
  141.9050   78.6810  221.9150 C   0  0  0  0  0  0  0  0  0  0  0  0
  142.6650   79.5400  222.6730 C   0  0  0  0  0  0  0  0  0  0  0  0
  142.1830   80.1360  223.8240 C   0  0  0  0  0  0  0  0  0  0  0  0
  140.9280   79.8510  224.1930 N   0  0  0  0  0  0  0  0  0  0  0  0
  140.1810   79.0250  223.4720 C   0  0  0  0  0  0  0  0  0  0  0  0
  141.2840   75.2230  221.1900 N   0  0  0  0  0  0  0  0  0  0  0  0
  142.0710   74.1570  220.9540 C   0  0  0  0  0  0  0  0  0  0  0  0
  143.2680   74.2450  220.2710 C   0  0  0  0  0  0  0  0  0  0  0  0
  144.2047   71.0022  220.3627 H   0  0  0  0  0  0  0  0  0  0  0  0
  142.0587   70.7881  221.5939 H   0  0  0  0  0  0  0  0  0  0  0  0
  138.5823   72.5375  223.6274 H   0  0  0  0  0  0  0  0  0  0  0  0
  138.1680   70.8985  222.9980 H   0  0  0  0  0  0  0  0  0  0  0  0
  138.6537   71.1288  225.5777 H   0  0  0  0  0  0  0  0  0  0  0  0
  141.2759   71.6760  224.3635 H   0  0  0  0  0  0  0  0  0  0  0  0
  140.3531   72.4075  225.7929 H   0  0  0  0  0  0  0  0  0  0  0  0
  142.4980   70.7510  225.8911 H   0  0  0  0  0  0  0  0  0  0  0  0
  141.2435   71.1648  227.1951 H   0  0  0  0  0  0  0  0  0  0  0  0
  141.7151   68.6980  225.6850 H   0  0  0  0  0  0  0  0  0  0  0  0
  141.2639   69.0573  227.4434 H   0  0  0  0  0  0  0  0  0  0  0  0
  139.5263   67.8242  226.1913 H   0  0  0  0  0  0  0  0  0  0  0  0
  138.9887   69.3717  226.8656 H   0  0  0  0  0  0  0  0  0  0  0  0
  140.1018   69.0382  223.9939 H   0  0  0  0  0  0  0  0  0  0  0  0
  138.3717   69.0333  224.3490 H   0  0  0  0  0  0  0  0  0  0  0  0
  138.3770   76.2968  222.6171 H   0  0  0  0  0  0  0  0  0  0  0  0
  139.3846   77.8363  220.6042 H   0  0  0  0  0  0  0  0  0  0  0  0
  142.3188   78.2224  221.0048 H   0  0  0  0  0  0  0  0  0  0  0  0
  143.6937   79.7612  222.3523 H   0  0  0  0  0  0  0  0  0  0  0  0
  142.8088   80.8203  224.4157 H   0  0  0  0  0  0  0  0  0  0  0  0
  139.1550   78.8193  223.8111 H   0  0  0  0  0  0  0  0  0  0  0  0
  143.6156   75.2178  219.8931 H   0  0  0  0  0  0  0  0  0  0  0  0
  1  2  3  0
  2  3  1  0
  3  4  2  0
  4  5  1  0
  5  6  2  0
  6  7  1  0
  7  8  1  0
  8  9  1  0
  9 10  1  0
 10 11  1  0
 11 12  1  0
 12 13  1  0
 13 14  1  0
 14 15  1  0
  7 16  2  0
 16 17  1  0
 17 18  1  0
 18 19  2  0
 19 20  1  0
 20 21  2  0
 21 22  1  0
 22 23  2  0
 23 24  1  0
 24 25  2  0
 17 26  2  0
 26 27  1  0
 27 28  2  0
 28  3  1  0
 27  6  1  0
 15 10  1  0
 25 20  1  0
  4 29  1  0
  5 30  1  0
  9 31  1  0
  9 32  1  0
 10 33  1  0
 11 34  1  0
 11 35  1  0
 12 36  1  0
 12 37  1  0
 13 38  1  0
 13 39  1  0
 14 40  1  0
 14 41  1  0
 15 42  1  0
 15 43  1  0
 18 44  1  0
 19 45  1  0
 21 46  1  0
 22 47  1  0
 23 48  1  0
 25 49  1  0
 28 50  1  0
M  END
>  <smiles>  (2) 
N#Cc1ccc2c(OCC3CCCCC3)nc(/C=C/c3cccnc3)nc2c1

>  <score_type>  (2) 
oracle

>  <origin>  (2) 
autodockgpu

>  <m_score__min__energy>  (2) 
-9.4900000000000002

>  <m_primary>  (2) 
energy

>  <rmsd>  (2) 
8.21935044405624

>  <m_score__min__rmsd>  (2) 
8.21935044405624

>  <meeko>  (2) 
{"free_energy": -8.38, "intermolecular_energy": -10.47, "internal_energy": -1.15, "cluster_size": 14, "cluster_id": 2, "rank_in_cluster": 11}

>  <energy>  (2) 
-9.47

>  <cluster_rmsd>  (2) 
0.07

>  <cluster>  (2) 
1

$$$$

     RDKit          3D

 50 53  0  0  0  0  0  0  0  0999 V2000
  146.3170   73.0650  218.7090 N   0  0  0  0  0  0  0  0  0  0  0  0
  145.3020   73.0290  219.2750 C   0  0  0  0  0  0  0  0  0  0  0  0
  144.0560   72.9650  219.9860 C   0  0  0  0  0  0  0  0  0  0  0  0
  143.5070   71.7720  220.3700 C   0  0  0  0  0  0  0  0  0  0  0  0
  142.3110   71.6940  221.0540 C   0  0  0  0  0  0  0  0  0  0  0  0
  141.6720   72.8830  221.3440 C   0  0  0  0  0  0  0  0  0  0  0  0
  140.4580   72.8550  222.0340 C   0  0  0  0  0  0  0  0  0  0  0  0
  139.9580   71.6130  222.3930 O   0  0  0  0  0  0  0  0  0  0  0  0
  139.2540   71.5230  223.6140 C   0  0  0  0  0  0  0  0  0  0  0  0
  140.0480   70.6960  224.6340 C   0  0  0  0  0  0  0  0  0  0  0  0
  139.3830   69.3920  224.8560 C   0  0  0  0  0  0  0  0  0  0  0  0
  139.6990   68.6910  226.1250 C   0  0  0  0  0  0  0  0  0  0  0  0
  140.3700   69.4780  227.1830 C   0  0  0  0  0  0  0  0  0  0  0  0
  141.2380   70.6130  226.7240 C   0  0  0  0  0  0  0  0  0  0  0  0
  140.3440   71.5050  225.8540 C   0  0  0  0  0  0  0  0  0  0  0  0
  139.8150   74.0160  222.3290 N   0  0  0  0  0  0  0  0  0  0  0  0
  140.3370   75.2090  221.9600 C   0  0  0  0  0  0  0  0  0  0  0  0
  139.6600   76.4620  222.2680 C   0  0  0  0  0  0  0  0  0  0  0  0
  139.9860   77.5780  221.6380 C   0  0  0  0  0  0  0  0  0  0  0  0
  140.9110   78.5560  222.1590 C   0  0  0  0  0  0  0  0  0  0  0  0
  141.3120   78.5980  223.4640 C   0  0  0  0  0  0  0  0  0  0  0  0
  142.1990   79.5740  223.8540 C   0  0  0  0  0  0  0  0  0  0  0  0
  142.6990   80.5150  222.9730 C   0  0  0  0  0  0  0  0  0  0  0  0
  142.2910   80.4530  221.6990 N   0  0  0  0  0  0  0  0  0  0  0  0
  141.4360   79.5170  221.3070 C   0  0  0  0  0  0  0  0  0  0  0  0
  141.5080   75.2300  221.2940 N   0  0  0  0  0  0  0  0  0  0  0  0
  142.1970   74.1190  220.9720 C   0  0  0  0  0  0  0  0  0  0  0  0
  143.3960   74.1510  220.2890 C   0  0  0  0  0  0  0  0  0  0  0  0
  144.0386   70.8408  220.1244 H   0  0  0  0  0  0  0  0  0  0  0  0
  141.8849   70.7257  221.3554 H   0  0  0  0  0  0  0  0  0  0  0  0
  139.0940   72.5348  224.0147 H   0  0  0  0  0  0  0  0  0  0  0  0
  138.2880   71.0295  223.4315 H   0  0  0  0  0  0  0  0  0  0  0  0
  141.0430   70.4372  224.2428 H   0  0  0  0  0  0  0  0  0  0  0  0
  138.2967   69.5632  224.8312 H   0  0  0  0  0  0  0  0  0  0  0  0
  139.7624   68.7345  224.0600 H   0  0  0  0  0  0  0  0  0  0  0  0
  138.7520   68.3168  226.5411 H   0  0  0  0  0  0  0  0  0  0  0  0
  140.4253   67.9134  225.8462 H   0  0  0  0  0  0  0  0  0  0  0  0
  139.5888   69.8968  227.8344 H   0  0  0  0  0  0  0  0  0  0  0  0
  141.0515   68.7735  227.6822 H   0  0  0  0  0  0  0  0  0  0  0  0
  141.6163   71.1784  227.5884 H   0  0  0  0  0  0  0  0  0  0  0  0
  142.1120   70.2501  226.1633 H   0  0  0  0  0  0  0  0  0  0  0  0
  139.4140   71.7542  226.3860 H   0  0  0  0  0  0  0  0  0  0  0  0
  140.8336   72.4581  225.6052 H   0  0  0  0  0  0  0  0  0  0  0  0
  138.8694   76.4797  223.0326 H   0  0  0  0  0  0  0  0  0  0  0  0
  139.5248   77.7727  220.6585 H   0  0  0  0  0  0  0  0  0  0  0  0
  140.9322   77.8642  224.1902 H   0  0  0  0  0  0  0  0  0  0  0  0
  142.5224   79.6072  224.9049 H   0  0  0  0  0  0  0  0  0  0  0  0
  143.4072   81.2876  223.3069 H   0  0  0  0  0  0  0  0  0  0  0  0
  141.1273   79.5022  220.2513 H   0  0  0  0  0  0  0  0  0  0  0  0
  143.8296   75.1149  219.9843 H   0  0  0  0  0  0  0  0  0  0  0  0
  1  2  3  0
  2  3  1  0
  3  4  2  0
  4  5  1  0
  5  6  2  0
  6  7  1  0
  7  8  1  0
  8  9  1  0
  9 10  1  0
 10 11  1  0
 11 12  1  0
 12 13  1  0
 13 14  1  0
 14 15  1  0
  7 16  2  0
 16 17  1  0
 17 18  1  0
 18 19  2  0
 19 20  1  0
 20 21  2  0
 21 22  1  0
 22 23  2  0
 23 24  1  0
 24 25  2  0
 17 26  2  0
 26 27  1  0
 27 28  2  0
 28  3  1  0
 27  6  1  0
 15 10  1  0
 25 20  1  0
  4 29  1  0
  5 30  1  0
  9 31  1  0
  9 32  1  0
 10 33  1  0
 11 34  1  0
 11 35  1  0
 12 36  1  0
 12 37  1  0
 13 38  1  0
 13 39  1  0
 14 40  1  0
 14 41  1  0
 15 42  1  0
 15 43  1  0
 18 44  1  0
 19 45  1  0
 21 46  1  0
 22 47  1  0
 23 48  1  0
 25 49  1  0
 28 50  1  0
M  END
>  <smiles>  (3) 
N#Cc1ccc2c(OCC3CCCCC3)nc(/C=C/c3cccnc3)nc2c1

>  <score_type>  (3) 
oracle

>  <origin>  (3) 
autodockgpu

>  <m_score__min__energy>  (3) 
-9.4900000000000002

>  <m_primary>  (3) 
energy

>  <rmsd>  (3) 
8.278795098436758

>  <m_score__min__rmsd>  (3) 
8.278795098436758

>  <meeko>  (3) 
{"free_energy": -8.8, "intermolecular_energy": -10.89, "internal_energy": -1.01, "cluster_size": 14, "cluster_id": 2, "rank_in_cluster": 1}

>  <energy>  (3) 
-9.46

>  <cluster_rmsd>  (3) 
0.08

>  <cluster>  (3) 
1

$$$$

     RDKit          3D

 50 53  0  0  0  0  0  0  0  0999 V2000
  146.3080   73.0170  218.6760 N   0  0  0  0  0  0  0  0  0  0  0  0
  145.3150   73.3430  219.1860 C   0  0  0  0  0  0  0  0  0  0  0  0
  144.0820   73.7560  219.7950 C   0  0  0  0  0  0  0  0  0  0  0  0
  143.5920   75.0250  219.6410 C   0  0  0  0  0  0  0  0  0  0  0  0
  142.4090   75.4370  220.2200 C   0  0  0  0  0  0  0  0  0  0  0  0
  141.7200   74.5080  220.9750 C   0  0  0  0  0  0  0  0  0  0  0  0
  140.5180   74.8790  221.5800 C   0  0  0  0  0  0  0  0  0  0  0  0
  140.0800   76.1790  221.3840 O   0  0  0  0  0  0  0  0  0  0  0  0
  140.0810   77.0420  222.5020 C   0  0  0  0  0  0  0  0  0  0  0  0
  141.1480   78.1340  222.3380 C   0  0  0  0  0  0  0  0  0  0  0  0
  141.6010   78.6020  223.6670 C   0  0  0  0  0  0  0  0  0  0  0  0
  142.2260   79.9460  223.7220 C   0  0  0  0  0  0  0  0  0  0  0  0
  142.0500   80.8220  222.5420 C   0  0  0  0  0  0  0  0  0  0  0  0
  141.8760   80.1350  221.2190 C   0  0  0  0  0  0  0  0  0  0  0  0
  140.6820   79.1870  221.3880 C   0  0  0  0  0  0  0  0  0  0  0  0
  139.8250   73.9780  222.3270 N   0  0  0  0  0  0  0  0  0  0  0  0
  140.2870   72.7170  222.4940 C   0  0  0  0  0  0  0  0  0  0  0  0
  139.5580   71.7400  223.2920 C   0  0  0  0  0  0  0  0  0  0  0  0
  140.2020   70.8160  223.9840 C   0  0  0  0  0  0  0  0  0  0  0  0
  140.3360   70.8350  225.4200 C   0  0  0  0  0  0  0  0  0  0  0  0
  139.7600   69.9130  226.2470 C   0  0  0  0  0  0  0  0  0  0  0  0
  139.9530   70.0260  227.6040 C   0  0  0  0  0  0  0  0  0  0  0  0
  140.7100   71.0400  228.1620 C   0  0  0  0  0  0  0  0  0  0  0  0
  141.2640   71.9320  227.3310 N   0  0  0  0  0  0  0  0  0  0  0  0
  141.0870   71.8360  226.0190 C   0  0  0  0  0  0  0  0  0  0  0  0
  141.4480   72.3660  221.9080 N   0  0  0  0  0  0  0  0  0  0  0  0
  142.1830   73.2070  221.1560 C   0  0  0  0  0  0  0  0  0  0  0  0
  143.3720   72.8360  220.5590 C   0  0  0  0  0  0  0  0  0  0  0  0
  144.1624   75.7428  219.0332 H   0  0  0  0  0  0  0  0  0  0  0  0
  142.0310   76.4613  220.0860 H   0  0  0  0  0  0  0  0  0  0  0  0
  139.0917   77.5138  222.5959 H   0  0  0  0  0  0  0  0  0  0  0  0
  140.3086   76.4551  223.4041 H   0  0  0  0  0  0  0  0  0  0  0  0
  142.0545   77.7325  221.8616 H   0  0  0  0  0  0  0  0  0  0  0  0
  140.7253   78.6141  224.3326 H   0  0  0  0  0  0  0  0  0  0  0  0
  142.3948   77.9014  223.9653 H   0  0  0  0  0  0  0  0  0  0  0  0
  141.8037   80.4722  224.5908 H   0  0  0  0  0  0  0  0  0  0  0  0
  143.3079   79.7540  223.7741 H   0  0  0  0  0  0  0  0  0  0  0  0
  141.1587   81.4426  222.7163 H   0  0  0  0  0  0  0  0  0  0  0  0
  142.9898   81.3870  222.4557 H   0  0  0  0  0  0  0  0  0  0  0  0
  141.6694   80.8727  220.4296 H   0  0  0  0  0  0  0  0  0  0  0  0
  142.7851   79.5894  220.9260 H   0  0  0  0  0  0  0  0  0  0  0  0
  139.8177   79.7259  221.8035 H   0  0  0  0  0  0  0  0  0  0  0  0
  140.3581   78.7593  220.4277 H   0  0  0  0  0  0  0  0  0  0  0  0
  138.4588   71.7717  223.3190 H   0  0  0  0  0  0  0  0  0  0  0  0
  140.6629   69.9835  223.4321 H   0  0  0  0  0  0  0  0  0  0  0  0
  139.1522   69.0941  225.8347 H   0  0  0  0  0  0  0  0  0  0  0  0
  139.4886   69.2833  228.2694 H   0  0  0  0  0  0  0  0  0  0  0  0
  140.8521   71.1113  229.2505 H   0  0  0  0  0  0  0  0  0  0  0  0
  141.5606   72.5897  225.3727 H   0  0  0  0  0  0  0  0  0  0  0  0
  143.7570   71.8137  220.6877 H   0  0  0  0  0  0  0  0  0  0  0  0
  1  2  3  0
  2  3  1  0
  3  4  2  0
  4  5  1  0
  5  6  2  0
  6  7  1  0
  7  8  1  0
  8  9  1  0
  9 10  1  0
 10 11  1  0
 11 12  1  0
 12 13  1  0
 13 14  1  0
 14 15  1  0
  7 16  2  0
 16 17  1  0
 17 18  1  0
 18 19  2  0
 19 20  1  0
 20 21  2  0
 21 22  1  0
 22 23  2  0
 23 24  1  0
 24 25  2  0
 17 26  2  0
 26 27  1  0
 27 28  2  0
 28  3  1  0
 27  6  1  0
 15 10  1  0
 25 20  1  0
  4 29  1  0
  5 30  1  0
  9 31  1  0
  9 32  1  0
 10 33  1  0
 11 34  1  0
 11 35  1  0
 12 36  1  0
 12 37  1  0
 13 38  1  0
 13 39  1  0
 14 40  1  0
 14 41  1  0
 15 42  1  0
 15 43  1  0
 18 44  1  0
 19 45  1  0
 21 46  1  0
 22 47  1  0
 23 48  1  0
 25 49  1  0
 28 50  1  0
M  END
>  <smiles>  (4) 
N#Cc1ccc2c(OCC3CCCCC3)nc(/C=C/c3cccnc3)nc2c1

>  <score_type>  (4) 
oracle

>  <origin>  (4) 
autodockgpu

>  <m_score__min__energy>  (4) 
-9.4900000000000002

>  <m_primary>  (4) 
energy

>  <rmsd>  (4) 
7.448510615120532

>  <m_score__min__rmsd>  (4) 
7.448510615120532

>  <meeko>  (4) 
{"free_energy": -9.4, "intermolecular_energy": -11.49, "internal_energy": -1.04, "cluster_size": 35, "cluster_id": 1, "rank_in_cluster": 7}

>  <energy>  (4) 
-9.42

>  <cluster_rmsd>  (4) 
1.05

>  <cluster>  (4) 
1

$$$$

     RDKit          3D

 50 53  0  0  0  0  0  0  0  0999 V2000
  146.3050   73.0150  218.9150 N   0  0  0  0  0  0  0  0  0  0  0  0
  145.3050   73.3700  219.3900 C   0  0  0  0  0  0  0  0  0  0  0  0
  144.0580   73.7910  219.9650 C   0  0  0  0  0  0  0  0  0  0  0  0
  143.6100   75.0790  219.8490 C   0  0  0  0  0  0  0  0  0  0  0  0
  142.4140   75.4990  220.3950 C   0  0  0  0  0  0  0  0  0  0  0  0
  141.6680   74.5580  221.0780 C   0  0  0  0  0  0  0  0  0  0  0  0
  140.4510   74.9360  221.6480 C   0  0  0  0  0  0  0  0  0  0  0  0
  140.0570   76.2550  221.4930 O   0  0  0  0  0  0  0  0  0  0  0  0
  139.7790   76.9940  222.6640 C   0  0  0  0  0  0  0  0  0  0  0  0
  140.3840   78.4010  222.5700 C   0  0  0  0  0  0  0  0  0  0  0  0
  140.7700   78.6930  221.1720 C   0  0  0  0  0  0  0  0  0  0  0  0
  141.7910   79.7510  220.9700 C   0  0  0  0  0  0  0  0  0  0  0  0
  142.5600   80.1840  222.1580 C   0  0  0  0  0  0  0  0  0  0  0  0
  141.8680   80.0590  223.4850 C   0  0  0  0  0  0  0  0  0  0  0  0
  141.4440   78.5900  223.6040 C   0  0  0  0  0  0  0  0  0  0  0  0
  139.7040   74.0230  222.3230 N   0  0  0  0  0  0  0  0  0  0  0  0
  140.1240   72.7440  222.4530 C   0  0  0  0  0  0  0  0  0  0  0  0
  139.3350   71.7530  223.1740 C   0  0  0  0  0  0  0  0  0  0  0  0
  139.9240   70.7860  223.8560 C   0  0  0  0  0  0  0  0  0  0  0  0
  140.1960   70.8500  225.2720 C   0  0  0  0  0  0  0  0  0  0  0  0
  140.9060   71.8570  225.8620 C   0  0  0  0  0  0  0  0  0  0  0  0
  141.1060   71.8190  227.2220 C   0  0  0  0  0  0  0  0  0  0  0  0
  140.6150   70.7970  228.0140 C   0  0  0  0  0  0  0  0  0  0  0  0
  139.9230   69.8220  227.4130 N   0  0  0  0  0  0  0  0  0  0  0  0
  139.7210   69.8450  226.1010 C   0  0  0  0  0  0  0  0  0  0  0  0
  141.2990   72.3850  221.9010 N   0  0  0  0  0  0  0  0  0  0  0  0
  142.0880   73.2370  221.2190 C   0  0  0  0  0  0  0  0  0  0  0  0
  143.2910   72.8590  220.6560 C   0  0  0  0  0  0  0  0  0  0  0  0
  144.2260   75.8065  219.3002 H   0  0  0  0  0  0  0  0  0  0  0  0
  142.0696   76.5385  220.2908 H   0  0  0  0  0  0  0  0  0  0  0  0
  138.6893   77.0765  222.7894 H   0  0  0  0  0  0  0  0  0  0  0  0
  140.2225   76.4737  223.5258 H   0  0  0  0  0  0  0  0  0  0  0  0
  139.6367   79.1693  222.8176 H   0  0  0  0  0  0  0  0  0  0  0  0
  141.1618   77.7635  220.7332 H   0  0  0  0  0  0  0  0  0  0  0  0
  139.8568   79.0772  220.6940 H   0  0  0  0  0  0  0  0  0  0  0  0
  142.5115   79.3781  220.2272 H   0  0  0  0  0  0  0  0  0  0  0  0
  141.2212   80.6399  220.6615 H   0  0  0  0  0  0  0  0  0  0  0  0
  143.4776   79.5790  222.2011 H   0  0  0  0  0  0  0  0  0  0  0  0
  142.7302   81.2617  222.0183 H   0  0  0  0  0  0  0  0  0  0  0  0
  142.5555   80.3257  224.3012 H   0  0  0  0  0  0  0  0  0  0  0  0
  141.0028   80.7348  223.5534 H   0  0  0  0  0  0  0  0  0  0  0  0
  142.2979   77.9253  223.4064 H   0  0  0  0  0  0  0  0  0  0  0  0
  141.0798   78.3487  224.6135 H   0  0  0  0  0  0  0  0  0  0  0  0
  138.2368   71.8105  223.1503 H   0  0  0  0  0  0  0  0  0  0  0  0
  140.2248   69.8785  223.3120 H   0  0  0  0  0  0  0  0  0  0  0  0
  141.3106   72.6838  225.2597 H   0  0  0  0  0  0  0  0  0  0  0  0
  141.6769   72.6305  227.6970 H   0  0  0  0  0  0  0  0  0  0  0  0
  140.7874   70.7860  229.1004 H   0  0  0  0  0  0  0  0  0  0  0  0
  139.1466   69.0236  225.6477 H   0  0  0  0  0  0  0  0  0  0  0  0
  143.6425   71.8213  220.7540 H   0  0  0  0  0  0  0  0  0  0  0  0
  1  2  3  0
  2  3  1  0
  3  4  2  0
  4  5  1  0
  5  6  2  0
  6  7  1  0
  7  8  1  0
  8  9  1  0
  9 10  1  0
 10 11  1  0
 11 12  1  0
 12 13  1  0
 13 14  1  0
 14 15  1  0
  7 16  2  0
 16 17  1  0
 17 18  1  0
 18 19  2  0
 19 20  1  0
 20 21  2  0
 21 22  1  0
 22 23  2  0
 23 24  1  0
 24 25  2  0
 17 26  2  0
 26 27  1  0
 27 28  2  0
 28  3  1  0
 27  6  1  0
 15 10  1  0
 25 20  1  0
  4 29  1  0
  5 30  1  0
  9 31  1  0
  9 32  1  0
 10 33  1  0
 11 34  1  0
 11 35  1  0
 12 36  1  0
 12 37  1  0
 13 38  1  0
 13 39  1  0
 14 40  1  0
 14 41  1  0
 15 42  1  0
 15 43  1  0
 18 44  1  0
 19 45  1  0
 21 46  1  0
 22 47  1  0
 23 48  1  0
 25 49  1  0
 28 50  1  0
M  END
>  <smiles>  (5) 
N#Cc1ccc2c(OCC3CCCCC3)nc(/C=C/c3cccnc3)nc2c1

>  <score_type>  (5) 
oracle

>  <origin>  (5) 
autodockgpu

>  <m_score__min__energy>  (5) 
-9.4900000000000002

>  <m_primary>  (5) 
energy

>  <rmsd>  (5) 
7.4023006376778815

>  <m_score__min__rmsd>  (5) 
7.4023006376778815

>  <meeko>  (5) 
{"free_energy": -9.12, "intermolecular_energy": -11.21, "internal_energy": -1.19, "cluster_size": 35, "cluster_id": 1, "rank_in_cluster": 27}

>  <energy>  (5) 
-9.41

>  <cluster_rmsd>  (5) 
1.04

>  <cluster>  (5) 
1

$$$$

     RDKit          3D

 50 53  0  0  0  0  0  0  0  0999 V2000
  146.2330   73.0250  218.6600 N   0  0  0  0  0  0  0  0  0  0  0  0
  145.2140   73.3090  219.1430 C   0  0  0  0  0  0  0  0  0  0  0  0
  143.9670   73.6660  219.7600 C   0  0  0  0  0  0  0  0  0  0  0  0
  143.4000   74.8980  219.5760 C   0  0  0  0  0  0  0  0  0  0  0  0
  142.2030   75.2570  220.1610 C   0  0  0  0  0  0  0  0  0  0  0  0
  141.5810   74.3130  220.9540 C   0  0  0  0  0  0  0  0  0  0  0  0
  140.3680   74.6290  221.5680 C   0  0  0  0  0  0  0  0  0  0  0  0
  139.8500   75.8940  221.3400 O   0  0  0  0  0  0  0  0  0  0  0  0
  139.9000   76.8200  222.4050 C   0  0  0  0  0  0  0  0  0  0  0  0
  141.0110   77.8530  222.1690 C   0  0  0  0  0  0  0  0  0  0  0  0
  141.5120   78.3620  223.4640 C   0  0  0  0  0  0  0  0  0  0  0  0
  142.1980   79.6780  223.4430 C   0  0  0  0  0  0  0  0  0  0  0  0
  142.0370   80.5040  222.2250 C   0  0  0  0  0  0  0  0  0  0  0  0
  141.8060   79.7630  220.9400 C   0  0  0  0  0  0  0  0  0  0  0  0
  140.5740   78.8800  221.1760 C   0  0  0  0  0  0  0  0  0  0  0  0
  139.7420   73.7120  222.3520 N   0  0  0  0  0  0  0  0  0  0  0  0
  140.2810   72.4880  222.5500 C   0  0  0  0  0  0  0  0  0  0  0  0
  139.6230   71.4930  223.3880 C   0  0  0  0  0  0  0  0  0  0  0  0
  140.0140   71.2960  224.6360 C   0  0  0  0  0  0  0  0  0  0  0  0
  140.0350   70.0030  225.2770 C   0  0  0  0  0  0  0  0  0  0  0  0
  140.8110   69.7080  226.3610 C   0  0  0  0  0  0  0  0  0  0  0  0
  140.7520   68.4410  226.8930 C   0  0  0  0  0  0  0  0  0  0  0  0
  139.9370   67.4550  226.3690 C   0  0  0  0  0  0  0  0  0  0  0  0
  139.1870   67.7680  225.3060 N   0  0  0  0  0  0  0  0  0  0  0  0
  139.2310   68.9860  224.7810 C   0  0  0  0  0  0  0  0  0  0  0  0
  141.4520   72.1880  221.9560 N   0  0  0  0  0  0  0  0  0  0  0  0
  142.1240   73.0470  221.1670 C   0  0  0  0  0  0  0  0  0  0  0  0
  143.3240   72.7300  220.5630 C   0  0  0  0  0  0  0  0  0  0  0  0
  143.9179   75.6293  218.9380 H   0  0  0  0  0  0  0  0  0  0  0  0
  141.7630   76.2526  220.0024 H   0  0  0  0  0  0  0  0  0  0  0  0
  138.9330   77.3391  222.4788 H   0  0  0  0  0  0  0  0  0  0  0  0
  140.1118   76.2773  223.3381 H   0  0  0  0  0  0  0  0  0  0  0  0
  141.8888   77.3880  221.6965 H   0  0  0  0  0  0  0  0  0  0  0  0
  140.6518   78.4454  224.1445 H   0  0  0  0  0  0  0  0  0  0  0  0
  142.2801   77.6408  223.7802 H   0  0  0  0  0  0  0  0  0  0  0  0
  141.8174   80.2635  224.2929 H   0  0  0  0  0  0  0  0  0  0  0  0
  143.2711   79.4398  223.4850 H   0  0  0  0  0  0  0  0  0  0  0  0
  141.1777   81.1718  222.3850 H   0  0  0  0  0  0  0  0  0  0  0  0
  142.9989   81.0214  222.0944 H   0  0  0  0  0  0  0  0  0  0  0  0
  141.6173   80.4708  220.1194 H   0  0  0  0  0  0  0  0  0  0  0  0
  142.6836   79.1627  220.6580 H   0  0  0  0  0  0  0  0  0  0  0  0
  139.7431   79.4774  221.5795 H   0  0  0  0  0  0  0  0  0  0  0  0
  140.2125   78.4219  220.2436 H   0  0  0  0  0  0  0  0  0  0  0  0
  138.7924   70.8997  222.9779 H   0  0  0  0  0  0  0  0  0  0  0  0
  140.3424   72.1687  225.2196 H   0  0  0  0  0  0  0  0  0  0  0  0
  141.4714   70.4698  226.8009 H   0  0  0  0  0  0  0  0  0  0  0  0
  141.3760   68.2037  227.7672 H   0  0  0  0  0  0  0  0  0  0  0  0
  139.9061   66.4480  226.8106 H   0  0  0  0  0  0  0  0  0  0  0  0
  138.5976   69.2007  223.9077 H   0  0  0  0  0  0  0  0  0  0  0  0
  143.7718   71.7371  220.7168 H   0  0  0  0  0  0  0  0  0  0  0  0
  1  2  3  0
  2  3  1  0
  3  4  2  0
  4  5  1  0
  5  6  2  0
  6  7  1  0
  7  8  1  0
  8  9  1  0
  9 10  1  0
 10 11  1  0
 11 12  1  0
 12 13  1  0
 13 14  1  0
 14 15  1  0
  7 16  2  0
 16 17  1  0
 17 18  1  0
 18 19  2  0
 19 20  1  0
 20 21  2  0
 21 22  1  0
 22 23  2  0
 23 24  1  0
 24 25  2  0
 17 26  2  0
 26 27  1  0
 27 28  2  0
 28  3  1  0
 27  6  1  0
 15 10  1  0
 25 20  1  0
  4 29  1  0
  5 30  1  0
  9 31  1  0
  9 32  1  0
 10 33  1  0
 11 34  1  0
 11 35  1  0
 12 36  1  0
 12 37  1  0
 13 38  1  0
 13 39  1  0
 14 40  1  0
 14 41  1  0
 15 42  1  0
 15 43  1  0
 18 44  1  0
 19 45  1  0
 21 46  1  0
 22 47  1  0
 23 48  1  0
 25 49  1  0
 28 50  1  0
M  END
>  <smiles>  (6) 
N#Cc1ccc2c(OCC3CCCCC3)nc(/C=C/c3cccnc3)nc2c1

>  <score_type>  (6) 
oracle

>  <origin>  (6) 
autodockgpu

>  <m_score__min__energy>  (6) 
-9.4900000000000002

>  <m_primary>  (6) 
energy

>  <rmsd>  (6) 
7.560788813060638

>  <m_score__min__rmsd>  (6) 
7.560788813060638

>  <meeko>  (6) 
{"free_energy": -9.46, "intermolecular_energy": -11.55, "internal_energy": -1.01, "cluster_size": 35, "cluster_id": 1, "rank_in_cluster": 3}

>  <energy>  (6) 
-9.41

>  <cluster_rmsd>  (6) 
0.15

>  <cluster>  (6) 
1

$$$$

     RDKit          3D

 50 53  0  0  0  0  0  0  0  0999 V2000
  138.1780   74.8700  220.5420 N   0  0  0  0  0  0  0  0  0  0  0  0
  138.1170   73.9230  221.2130 C   0  0  0  0  0  0  0  0  0  0  0  0
  138.0190   72.7550  222.0430 C   0  0  0  0  0  0  0  0  0  0  0  0
  139.0600   71.8760  222.1750 C   0  0  0  0  0  0  0  0  0  0  0  0
  138.9810   70.7490  222.9680 C   0  0  0  0  0  0  0  0  0  0  0  0
  137.7930   70.5320  223.6380 C   0  0  0  0  0  0  0  0  0  0  0  0
  137.6650   69.4050  224.4530 C   0  0  0  0  0  0  0  0  0  0  0  0
  138.7570   68.5570  224.5420 O   0  0  0  0  0  0  0  0  0  0  0  0
  139.1430   68.1260  225.8300 C   0  0  0  0  0  0  0  0  0  0  0  0
  140.0640   69.1610  226.4910 C   0  0  0  0  0  0  0  0  0  0  0  0
  139.4840   69.6060  227.7780 C   0  0  0  0  0  0  0  0  0  0  0  0
  139.9450   70.9170  228.2990 C   0  0  0  0  0  0  0  0  0  0  0  0
  140.6710   71.8000  227.3590 C   0  0  0  0  0  0  0  0  0  0  0  0
  141.4400   71.1210  226.2630 C   0  0  0  0  0  0  0  0  0  0  0  0
  140.4300   70.2360  225.5220 C   0  0  0  0  0  0  0  0  0  0  0  0
  136.5030   69.1760  225.1200 N   0  0  0  0  0  0  0  0  0  0  0  0
  135.4590   70.0290  225.0060 C   0  0  0  0  0  0  0  0  0  0  0  0
  134.2070   69.7970  225.7140 C   0  0  0  0  0  0  0  0  0  0  0  0
  133.9340   70.4440  226.8350 C   0  0  0  0  0  0  0  0  0  0  0  0
  133.2970   71.7390  226.8810 C   0  0  0  0  0  0  0  0  0  0  0  0
  132.0140   71.9360  227.3050 C   0  0  0  0  0  0  0  0  0  0  0  0
  131.5060   73.2140  227.3080 C   0  0  0  0  0  0  0  0  0  0  0  0
  132.2470   74.3060  226.8960 C   0  0  0  0  0  0  0  0  0  0  0  0
  133.5020   74.0870  226.4840 N   0  0  0  0  0  0  0  0  0  0  0  0
  134.0070   72.8600  226.4760 C   0  0  0  0  0  0  0  0  0  0  0  0
  135.5880   71.1140  224.2190 N   0  0  0  0  0  0  0  0  0  0  0  0
  136.7090   71.4020  223.5310 C   0  0  0  0  0  0  0  0  0  0  0  0
  136.8310   72.5170  222.7270 C   0  0  0  0  0  0  0  0  0  0  0  0
  139.9939   72.0751  221.6290 H   0  0  0  0  0  0  0  0  0  0  0  0
  139.8280   70.0535  223.0623 H   0  0  0  0  0  0  0  0  0  0  0  0
  138.2449   67.9920  226.4509 H   0  0  0  0  0  0  0  0  0  0  0  0
  139.6866   67.1741  225.7380 H   0  0  0  0  0  0  0  0  0  0  0  0
  141.0308   68.7123  226.7631 H   0  0  0  0  0  0  0  0  0  0  0  0
  138.3930   69.6632  227.6499 H   0  0  0  0  0  0  0  0  0  0  0  0
  139.8214   68.8658  228.5185 H   0  0  0  0  0  0  0  0  0  0  0  0
  139.0577   71.4646  228.6494 H   0  0  0  0  0  0  0  0  0  0  0  0
  140.6786   70.6699  229.0805 H   0  0  0  0  0  0  0  0  0  0  0  0
  139.9329   72.4652  226.8872 H   0  0  0  0  0  0  0  0  0  0  0  0
  141.4267   72.3169  227.9687 H   0  0  0  0  0  0  0  0  0  0  0  0
  141.8686   71.8674  225.5780 H   0  0  0  0  0  0  0  0  0  0  0  0
  142.2753   70.5287  226.6648 H   0  0  0  0  0  0  0  0  0  0  0  0
  139.5411   70.8191  225.2394 H   0  0  0  0  0  0  0  0  0  0  0  0
  140.8494   69.8248  224.5920 H   0  0  0  0  0  0  0  0  0  0  0  0
  133.4805   69.0756  225.3118 H   0  0  0  0  0  0  0  0  0  0  0  0
  134.2083   69.9677  227.7878 H   0  0  0  0  0  0  0  0  0  0  0  0
  131.3979   71.0878  227.6381 H   0  0  0  0  0  0  0  0  0  0  0  0
  130.4729   73.3731  227.6506 H   0  0  0  0  0  0  0  0  0  0  0  0
  131.8203   75.3198  226.9063 H   0  0  0  0  0  0  0  0  0  0  0  0
  135.0424   72.7246  226.1303 H   0  0  0  0  0  0  0  0  0  0  0  0
  135.9889   73.2176  222.6269 H   0  0  0  0  0  0  0  0  0  0  0  0
  1  2  3  0
  2  3  1  0
  3  4  2  0
  4  5  1  0
  5  6  2  0
  6  7  1  0
  7  8  1  0
  8  9  1  0
  9 10  1  0
 10 11  1  0
 11 12  1  0
 12 13  1  0
 13 14  1  0
 14 15  1  0
  7 16  2  0
 16 17  1  0
 17 18  1  0
 18 19  2  0
 19 20  1  0
 20 21  2  0
 21 22  1  0
 22 23  2  0
 23 24  1  0
 24 25  2  0
 17 26  2  0
 26 27  1  0
 27 28  2  0
 28  3  1  0
 27  6  1  0
 15 10  1  0
 25 20  1  0
  4 29  1  0
  5 30  1  0
  9 31  1  0
  9 32  1  0
 10 33  1  0
 11 34  1  0
 11 35  1  0
 12 36  1  0
 12 37  1  0
 13 38  1  0
 13 39  1  0
 14 40  1  0
 14 41  1  0
 15 42  1  0
 15 43  1  0
 18 44  1  0
 19 45  1  0
 21 46  1  0
 22 47  1  0
 23 48  1  0
 25 49  1  0
 28 50  1  0
M  END
>  <smiles>  (7) 
N#Cc1ccc2c(OCC3CCCCC3)nc(/C=C/c3cccnc3)nc2c1

>  <score_type>  (7) 
oracle

>  <origin>  (7) 
autodockgpu

>  <m_score__min__energy>  (7) 
-9.4900000000000002

>  <m_primary>  (7) 
energy

>  <rmsd>  (7) 
10.490402419318652

>  <m_score__min__rmsd>  (7) 
10.490402419318652

>  <meeko>  (7) 
{"free_energy": -7.35, "intermolecular_energy": -9.43, "internal_energy": -1.32, "cluster_size": 1, "cluster_id": 3, "rank_in_cluster": 1}

>  <energy>  (7) 
-9.4

>  <cluster_rmsd>  (7) 
1.22

>  <cluster>  (7) 
1

$$$$

     RDKit          3D

 50 53  0  0  0  0  0  0  0  0999 V2000
  146.2950   73.0360  218.9670 N   0  0  0  0  0  0  0  0  0  0  0  0
  145.2690   73.3230  219.4320 C   0  0  0  0  0  0  0  0  0  0  0  0
  143.9960   73.6900  219.9870 C   0  0  0  0  0  0  0  0  0  0  0  0
  143.4750   74.9460  219.8270 C   0  0  0  0  0  0  0  0  0  0  0  0
  142.2540   75.3130  220.3540 C   0  0  0  0  0  0  0  0  0  0  0  0
  141.5590   74.3540  221.0630 C   0  0  0  0  0  0  0  0  0  0  0  0
  140.3180   74.6790  221.6150 C   0  0  0  0  0  0  0  0  0  0  0  0
  139.8510   75.9680  221.4160 O   0  0  0  0  0  0  0  0  0  0  0  0
  139.5010   76.7180  222.5600 C   0  0  0  0  0  0  0  0  0  0  0  0
  139.9960   78.1650  222.4270 C   0  0  0  0  0  0  0  0  0  0  0  0
  141.4750   78.1950  222.4180 C   0  0  0  0  0  0  0  0  0  0  0  0
  142.1180   79.4790  222.7940 C   0  0  0  0  0  0  0  0  0  0  0  0
  141.2640   80.4950  223.4490 C   0  0  0  0  0  0  0  0  0  0  0  0
  139.8040   80.4660  223.1030 C   0  0  0  0  0  0  0  0  0  0  0  0
  139.3200   79.0470  223.4250 C   0  0  0  0  0  0  0  0  0  0  0  0
  139.6200   73.7470  222.3160 N   0  0  0  0  0  0  0  0  0  0  0  0
  140.1120   72.4980  222.4890 C   0  0  0  0  0  0  0  0  0  0  0  0
  139.3750   71.4880  223.2370 C   0  0  0  0  0  0  0  0  0  0  0  0
  139.5930   71.3120  224.5290 C   0  0  0  0  0  0  0  0  0  0  0  0
  139.8600   70.0280  225.1330 C   0  0  0  0  0  0  0  0  0  0  0  0
  140.9000   69.7940  225.9870 C   0  0  0  0  0  0  0  0  0  0  0  0
  141.0600   68.5300  226.5050 C   0  0  0  0  0  0  0  0  0  0  0  0
  140.2090   67.4870  226.1900 C   0  0  0  0  0  0  0  0  0  0  0  0
  139.1980   67.7410  225.3510 N   0  0  0  0  0  0  0  0  0  0  0  0
  139.0280   68.9560  224.8430 C   0  0  0  0  0  0  0  0  0  0  0  0
  141.3090   72.1900  221.9540 N   0  0  0  0  0  0  0  0  0  0  0  0
  142.0520   73.0640  221.2480 C   0  0  0  0  0  0  0  0  0  0  0  0
  143.2790   72.7380  220.7040 C   0  0  0  0  0  0  0  0  0  0  0  0
  144.0512   75.6899  219.2572 H   0  0  0  0  0  0  0  0  0  0  0  0
  141.8512   76.3271  220.2151 H   0  0  0  0  0  0  0  0  0  0  0  0
  138.4067   76.7187  222.6714 H   0  0  0  0  0  0  0  0  0  0  0  0
  139.9720   76.2608  223.4427 H   0  0  0  0  0  0  0  0  0  0  0  0
  139.7049   78.5948  221.4572 H   0  0  0  0  0  0  0  0  0  0  0  0
  141.8283   77.4267  223.1215 H   0  0  0  0  0  0  0  0  0  0  0  0
  141.7613   78.0244  221.3697 H   0  0  0  0  0  0  0  0  0  0  0  0
  142.9438   79.2468  223.4825 H   0  0  0  0  0  0  0  0  0  0  0  0
  142.4215   79.9350  221.8401 H   0  0  0  0  0  0  0  0  0  0  0  0
  141.3526   80.3553  224.5365 H   0  0  0  0  0  0  0  0  0  0  0  0
  141.6311   81.4647  223.0816 H   0  0  0  0  0  0  0  0  0  0  0  0
  139.2538   81.2033  223.7061 H   0  0  0  0  0  0  0  0  0  0  0  0
  139.6360   80.7181  222.0455 H   0  0  0  0  0  0  0  0  0  0  0  0
  139.6092   78.7639  224.4479 H   0  0  0  0  0  0  0  0  0  0  0  0
  138.2245   78.9646  223.3700 H   0  0  0  0  0  0  0  0  0  0  0  0
  138.6292   70.8653  222.7212 H   0  0  0  0  0  0  0  0  0  0  0  0
  139.5696   72.1963  225.1827 H   0  0  0  0  0  0  0  0  0  0  0  0
  141.5968   70.6017  226.2555 H   0  0  0  0  0  0  0  0  0  0  0  0
  141.8957   68.3421  227.1952 H   0  0  0  0  0  0  0  0  0  0  0  0
  140.3578   66.4831  226.6144 H   0  0  0  0  0  0  0  0  0  0  0  0
  138.1842   69.1212  224.1570 H   0  0  0  0  0  0  0  0  0  0  0  0
  143.6889   71.7260  220.8377 H   0  0  0  0  0  0  0  0  0  0  0  0
  1  2  3  0
  2  3  1  0
  3  4  2  0
  4  5  1  0
  5  6  2  0
  6  7  1  0
  7  8  1  0
  8  9  1  0
  9 10  1  0
 10 11  1  0
 11 12  1  0
 12 13  1  0
 13 14  1  0
 14 15  1  0
  7 16  2  0
 16 17  1  0
 17 18  1  0
 18 19  2  0
 19 20  1  0
 20 21  2  0
 21 22  1  0
 22 23  2  0
 23 24  1  0
 24 25  2  0
 17 26  2  0
 26 27  1  0
 27 28  2  0
 28  3  1  0
 27  6  1  0
 15 10  1  0
 25 20  1  0
  4 29  1  0
  5 30  1  0
  9 31  1  0
  9 32  1  0
 10 33  1  0
 11 34  1  0
 11 35  1  0
 12 36  1  0
 12 37  1  0
 13 38  1  0
 13 39  1  0
 14 40  1  0
 14 41  1  0
 15 42  1  0
 15 43  1  0
 18 44  1  0
 19 45  1  0
 21 46  1  0
 22 47  1  0
 23 48  1  0
 25 49  1  0
 28 50  1  0
M  END
>  <smiles>  (8) 
N#Cc1ccc2c(OCC3CCCCC3)nc(/C=C/c3cccnc3)nc2c1

>  <score_type>  (8) 
oracle

>  <origin>  (8) 
autodockgpu

>  <m_score__min__energy>  (8) 
-9.4900000000000002

>  <m_primary>  (8) 
energy

>  <rmsd>  (8) 
7.528664309509981

>  <m_score__min__rmsd>  (8) 
7.528664309509981

>  <meeko>  (8) 
{"free_energy": -9.22, "intermolecular_energy": -11.31, "internal_energy": -0.95, "cluster_size": 35, "cluster_id": 1, "rank_in_cluster": 19}

>  <energy>  (8) 
-9.4

>  <cluster_rmsd>  (8) 
1.25

>  <cluster>  (8) 
1

$$$$

     RDKit          3D

 50 53  0  0  0  0  0  0  0  0999 V2000
  146.3100   73.0080  218.6440 N   0  0  0  0  0  0  0  0  0  0  0  0
  145.3230   73.3800  219.1330 C   0  0  0  0  0  0  0  0  0  0  0  0
  144.0970   73.8170  219.7400 C   0  0  0  0  0  0  0  0  0  0  0  0
  143.6340   75.0960  219.5890 C   0  0  0  0  0  0  0  0  0  0  0  0
  142.4580   75.5300  220.1650 C   0  0  0  0  0  0  0  0  0  0  0  0
  141.7480   74.6140  220.9160 C   0  0  0  0  0  0  0  0  0  0  0  0
  140.5510   75.0070  221.5190 C   0  0  0  0  0  0  0  0  0  0  0  0
  140.1410   76.3160  221.3250 O   0  0  0  0  0  0  0  0  0  0  0  0
  139.5570   76.9850  222.4240 C   0  0  0  0  0  0  0  0  0  0  0  0
  140.2500   78.3330  222.6640 C   0  0  0  0  0  0  0  0  0  0  0  0
  140.3860   79.0670  221.3870 C   0  0  0  0  0  0  0  0  0  0  0  0
  141.4360   80.1150  221.3280 C   0  0  0  0  0  0  0  0  0  0  0  0
  142.4510   80.1130  222.4050 C   0  0  0  0  0  0  0  0  0  0  0  0
  142.0180   79.5660  223.7330 C   0  0  0  0  0  0  0  0  0  0  0  0
  141.5000   78.1490  223.4590 C   0  0  0  0  0  0  0  0  0  0  0  0
  139.8390   74.1180  222.2610 N   0  0  0  0  0  0  0  0  0  0  0  0
  140.2740   72.8480  222.4260 C   0  0  0  0  0  0  0  0  0  0  0  0
  139.5220   71.8830  223.2180 C   0  0  0  0  0  0  0  0  0  0  0  0
  140.1450   70.9300  223.8900 C   0  0  0  0  0  0  0  0  0  0  0  0
  140.2930   70.9230  225.3260 C   0  0  0  0  0  0  0  0  0  0  0  0
  141.0080   71.8590  226.0180 C   0  0  0  0  0  0  0  0  0  0  0  0
  141.0840   71.7570  227.3870 C   0  0  0  0  0  0  0  0  0  0  0  0
  140.4640   70.7390  228.0880 C   0  0  0  0  0  0  0  0  0  0  0  0
  139.7710   69.8330  227.3880 N   0  0  0  0  0  0  0  0  0  0  0  0
  139.6870   69.9180  226.0670 C   0  0  0  0  0  0  0  0  0  0  0  0
  141.4290   72.4750  221.8420 N   0  0  0  0  0  0  0  0  0  0  0  0
  142.1830   73.3020  221.0940 C   0  0  0  0  0  0  0  0  0  0  0  0
  143.3660   72.9100  220.5000 C   0  0  0  0  0  0  0  0  0  0  0  0
  144.2213   75.8042  218.9860 H   0  0  0  0  0  0  0  0  0  0  0  0
  142.1010   76.5619  220.0317 H   0  0  0  0  0  0  0  0  0  0  0  0
  138.4906   77.1582  222.2171 H   0  0  0  0  0  0  0  0  0  0  0  0
  139.6730   76.3609  223.3224 H   0  0  0  0  0  0  0  0  0  0  0  0
  139.6311   78.9878  223.2951 H   0  0  0  0  0  0  0  0  0  0  0  0
  140.6065   78.3299  220.6009 H   0  0  0  0  0  0  0  0  0  0  0  0
  139.4345   79.6041  221.2599 H   0  0  0  0  0  0  0  0  0  0  0  0
  141.9671   79.9986  220.3718 H   0  0  0  0  0  0  0  0  0  0  0  0
  140.8962   81.0660  221.4471 H   0  0  0  0  0  0  0  0  0  0  0  0
  143.3046   79.5119  222.0584 H   0  0  0  0  0  0  0  0  0  0  0  0
  142.6822   81.1726  222.5885 H   0  0  0  0  0  0  0  0  0  0  0  0
  142.8694   79.5336  224.4288 H   0  0  0  0  0  0  0  0  0  0  0  0
  141.2430   80.1957  224.1943 H   0  0  0  0  0  0  0  0  0  0  0  0
  142.2403   77.5725  222.8849 H   0  0  0  0  0  0  0  0  0  0  0  0
  141.3156   77.5928  224.3899 H   0  0  0  0  0  0  0  0  0  0  0  0
  138.4246   71.9482  223.2571 H   0  0  0  0  0  0  0  0  0  0  0  0
  140.5761   70.0929  223.3213 H   0  0  0  0  0  0  0  0  0  0  0  0
  141.5141   72.6800  225.4891 H   0  0  0  0  0  0  0  0  0  0  0  0
  141.6582   72.5118  227.9443 H   0  0  0  0  0  0  0  0  0  0  0  0
  140.5379   70.6760  229.1837 H   0  0  0  0  0  0  0  0  0  0  0  0
  139.1070   69.1523  225.5310 H   0  0  0  0  0  0  0  0  0  0  0  0
  143.7306   71.8801  220.6278 H   0  0  0  0  0  0  0  0  0  0  0  0
  1  2  3  0
  2  3  1  0
  3  4  2  0
  4  5  1  0
  5  6  2  0
  6  7  1  0
  7  8  1  0
  8  9  1  0
  9 10  1  0
 10 11  1  0
 11 12  1  0
 12 13  1  0
 13 14  1  0
 14 15  1  0
  7 16  2  0
 16 17  1  0
 17 18  1  0
 18 19  2  0
 19 20  1  0
 20 21  2  0
 21 22  1  0
 22 23  2  0
 23 24  1  0
 24 25  2  0
 17 26  2  0
 26 27  1  0
 27 28  2  0
 28  3  1  0
 27  6  1  0
 15 10  1  0
 25 20  1  0
  4 29  1  0
  5 30  1  0
  9 31  1  0
  9 32  1  0
 10 33  1  0
 11 34  1  0
 11 35  1  0
 12 36  1  0
 12 37  1  0
 13 38  1  0
 13 39  1  0
 14 40  1  0
 14 41  1  0
 15 42  1  0
 15 43  1  0
 18 44  1  0
 19 45  1  0
 21 46  1  0
 22 47  1  0
 23 48  1  0
 25 49  1  0
 28 50  1  0
M  END
>  <smiles>  (9) 
N#Cc1ccc2c(OCC3CCCCC3)nc(/C=C/c3cccnc3)nc2c1

>  <score_type>  (9) 
oracle

>  <origin>  (9) 
autodockgpu

>  <m_score__min__energy>  (9) 
-9.4900000000000002

>  <m_primary>  (9) 
energy

>  <rmsd>  (9) 
7.378923037700888

>  <m_score__min__rmsd>  (9) 
7.378923037700888

>  <meeko>  (9) 
{"free_energy": -9.1, "intermolecular_energy": -11.18, "internal_energy": -1.15, "cluster_size": 35, "cluster_id": 1, "rank_in_cluster": 29}

>  <energy>  (9) 
-9.39

>  <cluster_rmsd>  (9) 
1.23

>  <cluster>  (9) 
1

$$$$

     RDKit          3D

 50 53  0  0  0  0  0  0  0  0999 V2000
  146.2680   73.2750  218.0150 N   0  0  0  0  0  0  0  0  0  0  0  0
  145.3450   73.2220  218.7190 C   0  0  0  0  0  0  0  0  0  0  0  0
  144.1980   73.1350  219.5800 C   0  0  0  0  0  0  0  0  0  0  0  0
  143.8340   71.9580  220.1770 C   0  0  0  0  0  0  0  0  0  0  0  0
  142.7360   71.8590  221.0070 C   0  0  0  0  0  0  0  0  0  0  0  0
  142.0000   73.0080  221.2200 C   0  0  0  0  0  0  0  0  0  0  0  0
  140.8800   72.9560  222.0520 C   0  0  0  0  0  0  0  0  0  0  0  0
  140.5680   71.7340  222.6250 O   0  0  0  0  0  0  0  0  0  0  0  0
  139.2810   71.5890  223.1890 C   0  0  0  0  0  0  0  0  0  0  0  0
  139.3730   70.9460  224.5800 C   0  0  0  0  0  0  0  0  0  0  0  0
  140.5410   71.4850  225.3110 C   0  0  0  0  0  0  0  0  0  0  0  0
  141.0730   70.6570  226.4210 C   0  0  0  0  0  0  0  0  0  0  0  0
  140.6170   69.2510  226.4930 C   0  0  0  0  0  0  0  0  0  0  0  0
  139.2570   68.9590  225.9310 C   0  0  0  0  0  0  0  0  0  0  0  0
  139.2810   69.4590  224.4810 C   0  0  0  0  0  0  0  0  0  0  0  0
  140.1450   74.0780  222.2740 N   0  0  0  0  0  0  0  0  0  0  0  0
  140.4830   75.2530  221.6960 C   0  0  0  0  0  0  0  0  0  0  0  0
  139.7050   76.4640  221.9230 C   0  0  0  0  0  0  0  0  0  0  0  0
  140.1000   77.6240  221.4250 C   0  0  0  0  0  0  0  0  0  0  0  0
  141.0290   78.5090  222.0860 C   0  0  0  0  0  0  0  0  0  0  0  0
  141.2960   78.4630  223.4250 C   0  0  0  0  0  0  0  0  0  0  0  0
  142.2000   79.3550  223.9510 C   0  0  0  0  0  0  0  0  0  0  0  0
  142.8490   80.2970  223.1740 C   0  0  0  0  0  0  0  0  0  0  0  0
  142.5700   80.3230  221.8650 N   0  0  0  0  0  0  0  0  0  0  0  0
  141.7000   79.4680  221.3420 C   0  0  0  0  0  0  0  0  0  0  0  0
  141.5650   75.2970  220.8940 N   0  0  0  0  0  0  0  0  0  0  0  0
  142.3370   74.2250  220.6320 C   0  0  0  0  0  0  0  0  0  0  0  0
  143.4440   74.2810  219.8090 C   0  0  0  0  0  0  0  0  0  0  0  0
  144.4386   71.0587  219.9882 H   0  0  0  0  0  0  0  0  0  0  0  0
  142.4586   70.9050  221.4791 H   0  0  0  0  0  0  0  0  0  0  0  0
  138.8112   72.5796  223.2784 H   0  0  0  0  0  0  0  0  0  0  0  0
  138.6776   70.9407  222.5366 H   0  0  0  0  0  0  0  0  0  0  0  0
  138.5073   71.2218  225.2000 H   0  0  0  0  0  0  0  0  0  0  0  0
  141.3531   71.6276  224.5828 H   0  0  0  0  0  0  0  0  0  0  0  0
  140.1824   72.4098  225.7867 H   0  0  0  0  0  0  0  0  0  0  0  0
  142.1691   70.6454  226.3296 H   0  0  0  0  0  0  0  0  0  0  0  0
  140.6871   71.1281  227.3371 H   0  0  0  0  0  0  0  0  0  0  0  0
  141.3447   68.6351  225.9443 H   0  0  0  0  0  0  0  0  0  0  0  0
  140.5435   69.0233  227.5667 H   0  0  0  0  0  0  0  0  0  0  0  0
  139.0562   67.8778  225.9590 H   0  0  0  0  0  0  0  0  0  0  0  0
  138.4660   69.4534  226.5141 H   0  0  0  0  0  0  0  0  0  0  0  0
  140.1534   69.0534  223.9477 H   0  0  0  0  0  0  0  0  0  0  0  0
  138.3897   69.1390  223.9214 H   0  0  0  0  0  0  0  0  0  0  0  0
  138.7792   76.4129  222.5149 H   0  0  0  0  0  0  0  0  0  0  0  0
  139.6966   77.9325  220.4493 H   0  0  0  0  0  0  0  0  0  0  0  0
  140.7966   77.7255  224.0705 H   0  0  0  0  0  0  0  0  0  0  0  0
  142.4150   79.3182  225.0292 H   0  0  0  0  0  0  0  0  0  0  0  0
  143.5696   81.0006  223.6163 H   0  0  0  0  0  0  0  0  0  0  0  0
  141.5006   79.5229  220.2616 H   0  0  0  0  0  0  0  0  0  0  0  0
  143.7295   75.2315  219.3346 H   0  0  0  0  0  0  0  0  0  0  0  0
  1  2  3  0
  2  3  1  0
  3  4  2  0
  4  5  1  0
  5  6  2  0
  6  7  1  0
  7  8  1  0
  8  9  1  0
  9 10  1  0
 10 11  1  0
 11 12  1  0
 12 13  1  0
 13 14  1  0
 14 15  1  0
  7 16  2  0
 16 17  1  0
 17 18  1  0
 18 19  2  0
 19 20  1  0
 20 21  2  0
 21 22  1  0
 22 23  2  0
 23 24  1  0
 24 25  2  0
 17 26  2  0
 26 27  1  0
 27 28  2  0
 28  3  1  0
 27  6  1  0
 15 10  1  0
 25 20  1  0
  4 29  1  0
  5 30  1  0
  9 31  1  0
  9 32  1  0
 10 33  1  0
 11 34  1  0
 11 35  1  0
 12 36  1  0
 12 37  1  0
 13 38  1  0
 13 39  1  0
 14 40  1  0
 14 41  1  0
 15 42  1  0
 15 43  1  0
 18 44  1  0
 19 45  1  0
 21 46  1  0
 22 47  1  0
 23 48  1  0
 25 49  1  0
 28 50  1  0
M  END
>  <smiles>  (10) 
N#Cc1ccc2c(OCC3CCCCC3)nc(/C=C/c3cccnc3)nc2c1

>  <score_type>  (10) 
oracle

>  <origin>  (10) 
autodockgpu

>  <m_score__min__energy>  (10) 
-9.4900000000000002

>  <m_primary>  (10) 
energy

>  <rmsd>  (10) 
8.235401150913312

>  <m_score__min__rmsd>  (10) 
8.235401150913312

>  <meeko>  (10) 
{"free_energy": -8.45, "intermolecular_energy": -10.54, "internal_energy": -1.05, "cluster_size": 14, "cluster_id": 2, "rank_in_cluster": 10}

>  <energy>  (10) 
-9.39

>  <cluster_rmsd>  (10) 
1.23

>  <cluster>  (10) 
1

$$$$

     RDKit          3D

 50 53  0  0  0  0  0  0  0  0999 V2000
  146.3330   73.2600  218.9930 N   0  0  0  0  0  0  0  0  0  0  0  0
  145.2970   73.2020  219.5170 C   0  0  0  0  0  0  0  0  0  0  0  0
  144.0070   73.1260  220.1440 C   0  0  0  0  0  0  0  0  0  0  0  0
  143.4120   71.9260  220.4250 C   0  0  0  0  0  0  0  0  0  0  0  0
  142.1740   71.8360  221.0270 C   0  0  0  0  0  0  0  0  0  0  0  0
  141.5390   73.0220  221.3420 C   0  0  0  0  0  0  0  0  0  0  0  0
  140.2840   72.9820  221.9520 C   0  0  0  0  0  0  0  0  0  0  0  0
  139.7400   71.7340  222.2090 O   0  0  0  0  0  0  0  0  0  0  0  0
  138.6640   71.6680  223.1220 C   0  0  0  0  0  0  0  0  0  0  0  0
  139.1110   71.0070  224.4330 C   0  0  0  0  0  0  0  0  0  0  0  0
  140.4380   71.5240  224.8340 C   0  0  0  0  0  0  0  0  0  0  0  0
  141.2320   70.6760  225.7570 C   0  0  0  0  0  0  0  0  0  0  0  0
  140.7920   69.2750  225.9340 C   0  0  0  0  0  0  0  0  0  0  0  0
  139.3280   69.0050  225.7490 C   0  0  0  0  0  0  0  0  0  0  0  0
  138.9750   69.5230  224.3490 C   0  0  0  0  0  0  0  0  0  0  0  0
  139.6450   74.1390  222.2700 N   0  0  0  0  0  0  0  0  0  0  0  0
  140.2100   75.3390  222.0020 C   0  0  0  0  0  0  0  0  0  0  0  0
  139.5380   76.5880  222.3370 C   0  0  0  0  0  0  0  0  0  0  0  0
  139.8840   77.7200  221.7470 C   0  0  0  0  0  0  0  0  0  0  0  0
  140.8850   78.6220  222.2620 C   0  0  0  0  0  0  0  0  0  0  0  0
  141.5850   79.5000  221.4850 C   0  0  0  0  0  0  0  0  0  0  0  0
  142.5180   80.3160  222.0820 C   0  0  0  0  0  0  0  0  0  0  0  0
  142.7730   80.2780  223.4400 C   0  0  0  0  0  0  0  0  0  0  0  0
  142.0750   79.4090  224.1810 N   0  0  0  0  0  0  0  0  0  0  0  0
  141.1700   78.6160  223.6200 C   0  0  0  0  0  0  0  0  0  0  0  0
  141.4210   75.3710  221.4140 N   0  0  0  0  0  0  0  0  0  0  0  0
  142.1090   74.2640  221.0730 C   0  0  0  0  0  0  0  0  0  0  0  0
  143.3500   74.3080  220.4700 C   0  0  0  0  0  0  0  0  0  0  0  0
  143.9408   70.9983  220.1609 H   0  0  0  0  0  0  0  0  0  0  0  0
  141.7123   70.8621  221.2467 H   0  0  0  0  0  0  0  0  0  0  0  0
  138.3060   72.6863  223.3338 H   0  0  0  0  0  0  0  0  0  0  0  0
  137.8569   71.0669  222.6777 H   0  0  0  0  0  0  0  0  0  0  0  0
  138.4437   71.2847  225.2622 H   0  0  0  0  0  0  0  0  0  0  0  0
  141.0310   71.6661  223.9185 H   0  0  0  0  0  0  0  0  0  0  0  0
  140.2312   72.4473  225.3951 H   0  0  0  0  0  0  0  0  0  0  0  0
  142.2650   70.6534  225.3797 H   0  0  0  0  0  0  0  0  0  0  0  0
  141.1073   71.1398  226.7466 H   0  0  0  0  0  0  0  0  0  0  0  0
  141.3402   68.6581  225.2067 H   0  0  0  0  0  0  0  0  0  0  0  0
  141.0017   69.0347  226.9868 H   0  0  0  0  0  0  0  0  0  0  0  0
  139.1267   67.9258  225.8190 H   0  0  0  0  0  0  0  0  0  0  0  0
  138.7262   69.5005  226.5250 H   0  0  0  0  0  0  0  0  0  0  0  0
  139.6695   69.1141  223.6003 H   0  0  0  0  0  0  0  0  0  0  0  0
  137.9628   69.2204  224.0426 H   0  0  0  0  0  0  0  0  0  0  0  0
  138.7346   76.5893  223.0884 H   0  0  0  0  0  0  0  0  0  0  0  0
  139.3785   77.9896  220.8080 H   0  0  0  0  0  0  0  0  0  0  0  0
  141.4061   79.5539  220.4010 H   0  0  0  0  0  0  0  0  0  0  0  0
  143.0812   81.0240  221.4563 H   0  0  0  0  0  0  0  0  0  0  0  0
  143.5241   80.9395  223.8963 H   0  0  0  0  0  0  0  0  0  0  0  0
  140.6172   77.9176  224.2655 H   0  0  0  0  0  0  0  0  0  0  0  0
  143.8193   75.2776  220.2473 H   0  0  0  0  0  0  0  0  0  0  0  0
  1  2  3  0
  2  3  1  0
  3  4  2  0
  4  5  1  0
  5  6  2  0
  6  7  1  0
  7  8  1  0
  8  9  1  0
  9 10  1  0
 10 11  1  0
 11 12  1  0
 12 13  1  0
 13 14  1  0
 14 15  1  0
  7 16  2  0
 16 17  1  0
 17 18  1  0
 18 19  2  0
 19 20  1  0
 20 21  2  0
 21 22  1  0
 22 23  2  0
 23 24  1  0
 24 25  2  0
 17 26  2  0
 26 27  1  0
 27 28  2  0
 28  3  1  0
 27  6  1  0
 15 10  1  0
 25 20  1  0
  4 29  1  0
  5 30  1  0
  9 31  1  0
  9 32  1  0
 10 33  1  0
 11 34  1  0
 11 35  1  0
 12 36  1  0
 12 37  1  0
 13 38  1  0
 13 39  1  0
 14 40  1  0
 14 41  1  0
 15 42  1  0
 15 43  1  0
 18 44  1  0
 19 45  1  0
 21 46  1  0
 22 47  1  0
 23 48  1  0
 25 49  1  0
 28 50  1  0
M  END
>  <smiles>  (11) 
N#Cc1ccc2c(OCC3CCCCC3)nc(/C=C/c3cccnc3)nc2c1

>  <score_type>  (11) 
oracle

>  <origin>  (11) 
autodockgpu

>  <m_score__min__energy>  (11) 
-9.4900000000000002

>  <m_primary>  (11) 
energy

>  <rmsd>  (11) 
8.13565154245248

>  <m_score__min__rmsd>  (11) 
8.13565154245248

>  <meeko>  (11) 
{"free_energy": -8.37, "intermolecular_energy": -10.45, "internal_energy": -1.17, "cluster_size": 14, "cluster_id": 2, "rank_in_cluster": 12}

>  <energy>  (11) 
-9.39

>  <cluster_rmsd>  (11) 
0.16

>  <cluster>  (11) 
1

$$$$

     RDKit          3D

 50 53  0  0  0  0  0  0  0  0999 V2000
  146.2890   73.0530  218.7720 N   0  0  0  0  0  0  0  0  0  0  0  0
  145.2780   73.3520  219.2620 C   0  0  0  0  0  0  0  0  0  0  0  0
  144.0300   73.7410  219.8560 C   0  0  0  0  0  0  0  0  0  0  0  0
  143.5170   75.0000  219.6950 C   0  0  0  0  0  0  0  0  0  0  0  0
  142.3200   75.3890  220.2590 C   0  0  0  0  0  0  0  0  0  0  0  0
  141.6400   74.4480  221.0070 C   0  0  0  0  0  0  0  0  0  0  0  0
  140.4230   74.7950  221.5980 C   0  0  0  0  0  0  0  0  0  0  0  0
  139.9620   76.0860  221.3950 O   0  0  0  0  0  0  0  0  0  0  0  0
  140.0170   76.9770  222.4900 C   0  0  0  0  0  0  0  0  0  0  0  0
  141.0880   78.0520  222.2570 C   0  0  0  0  0  0  0  0  0  0  0  0
  141.5840   78.5610  223.5540 C   0  0  0  0  0  0  0  0  0  0  0  0
  142.2220   79.9010  223.5440 C   0  0  0  0  0  0  0  0  0  0  0  0
  142.0190   80.7370  222.3400 C   0  0  0  0  0  0  0  0  0  0  0  0
  141.8000   80.0060  221.0480 C   0  0  0  0  0  0  0  0  0  0  0  0
  140.6040   79.0760  221.2840 C   0  0  0  0  0  0  0  0  0  0  0  0
  139.7400   73.8820  222.3380 N   0  0  0  0  0  0  0  0  0  0  0  0
  140.2250   72.6310  222.5130 C   0  0  0  0  0  0  0  0  0  0  0  0
  139.5050   71.6400  223.3030 C   0  0  0  0  0  0  0  0  0  0  0  0
  140.1590   70.7710  224.0540 C   0  0  0  0  0  0  0  0  0  0  0  0
  140.3100   70.8970  225.4840 C   0  0  0  0  0  0  0  0  0  0  0  0
  141.0190   71.8980  226.0860 C   0  0  0  0  0  0  0  0  0  0  0  0
  141.0970   71.9220  227.4580 C   0  0  0  0  0  0  0  0  0  0  0  0
  140.4860   70.9690  228.2520 C   0  0  0  0  0  0  0  0  0  0  0  0
  139.7980   69.9980  227.6390 N   0  0  0  0  0  0  0  0  0  0  0  0
  139.7120   69.9610  226.3150 C   0  0  0  0  0  0  0  0  0  0  0  0
  141.3990   72.3020  221.9400 N   0  0  0  0  0  0  0  0  0  0  0  0
  142.1260   73.1560  221.1960 C   0  0  0  0  0  0  0  0  0  0  0  0
  143.3290   72.8080  220.6140 C   0  0  0  0  0  0  0  0  0  0  0  0
  144.0804   75.7285  219.0934 H   0  0  0  0  0  0  0  0  0  0  0  0
  141.9238   76.4056  220.1190 H   0  0  0  0  0  0  0  0  0  0  0  0
  139.0374   77.4625  222.6108 H   0  0  0  0  0  0  0  0  0  0  0  0
  140.2743   76.4099  223.3968 H   0  0  0  0  0  0  0  0  0  0  0  0
  141.9765   77.6252  221.7688 H   0  0  0  0  0  0  0  0  0  0  0  0
  140.7286   78.6042  224.2443 H   0  0  0  0  0  0  0  0  0  0  0  0
  142.3806   77.8637  223.8527 H   0  0  0  0  0  0  0  0  0  0  0  0
  141.8297   80.4609  224.4058 H   0  0  0  0  0  0  0  0  0  0  0  0
  143.3033   79.7008  223.5715 H   0  0  0  0  0  0  0  0  0  0  0  0
  141.1387   81.3721  222.5183 H   0  0  0  0  0  0  0  0  0  0  0  0
  142.9607   81.2896  222.2065 H   0  0  0  0  0  0  0  0  0  0  0  0
  141.5766   80.7178  220.2396 H   0  0  0  0  0  0  0  0  0  0  0  0
  142.6954   79.4416  220.7485 H   0  0  0  0  0  0  0  0  0  0  0  0
  139.7565   79.6371  221.7046 H   0  0  0  0  0  0  0  0  0  0  0  0
  140.2494   78.6181  220.3488 H   0  0  0  0  0  0  0  0  0  0  0  0
  138.4057   71.6151  223.2738 H   0  0  0  0  0  0  0  0  0  0  0  0
  140.6151   69.9004  223.5601 H   0  0  0  0  0  0  0  0  0  0  0  0
  141.5184   72.6709  225.4833 H   0  0  0  0  0  0  0  0  0  0  0  0
  141.6664   72.7290  227.9422 H   0  0  0  0  0  0  0  0  0  0  0  0
  140.5626   71.0074  229.3487 H   0  0  0  0  0  0  0  0  0  0  0  0
  139.1365   69.1455  225.8526 H   0  0  0  0  0  0  0  0  0  0  0  0
  143.7329   71.7938  220.7495 H   0  0  0  0  0  0  0  0  0  0  0  0
  1  2  3  0
  2  3  1  0
  3  4  2  0
  4  5  1  0
  5  6  2  0
  6  7  1  0
  7  8  1  0
  8  9  1  0
  9 10  1  0
 10 11  1  0
 11 12  1  0
 12 13  1  0
 13 14  1  0
 14 15  1  0
  7 16  2  0
 16 17  1  0
 17 18  1  0
 18 19  2  0
 19 20  1  0
 20 21  2  0
 21 22  1  0
 22 23  2  0
 23 24  1  0
 24 25  2  0
 17 26  2  0
 26 27  1  0
 27 28  2  0
 28  3  1  0
 27  6  1  0
 15 10  1  0
 25 20  1  0
  4 29  1  0
  5 30  1  0
  9 31  1  0
  9 32  1  0
 10 33  1  0
 11 34  1  0
 11 35  1  0
 12 36  1  0
 12 37  1  0
 13 38  1  0
 13 39  1  0
 14 40  1  0
 14 41  1  0
 15 42  1  0
 15 43  1  0
 18 44  1  0
 19 45  1  0
 21 46  1  0
 22 47  1  0
 23 48  1  0
 25 49  1  0
 28 50  1  0
M  END
>  <smiles>  (12) 
N#Cc1ccc2c(OCC3CCCCC3)nc(/C=C/c3cccnc3)nc2c1

>  <score_type>  (12) 
oracle

>  <origin>  (12) 
autodockgpu

>  <m_score__min__energy>  (12) 
-9.4900000000000002

>  <m_primary>  (12) 
energy

>  <rmsd>  (12) 
7.470221919146415

>  <m_score__min__rmsd>  (12) 
7.470221919146415

>  <meeko>  (12) 
{"free_energy": -9.41, "intermolecular_energy": -11.5, "internal_energy": -1.09, "cluster_size": 35, "cluster_id": 1, "rank_in_cluster": 5}

>  <energy>  (12) 
-9.38

>  <cluster_rmsd>  (12) 
1.01

>  <cluster>  (12) 
1

$$$$

     RDKit          3D

 50 53  0  0  0  0  0  0  0  0999 V2000
  146.2510   73.0260  218.1370 N   0  0  0  0  0  0  0  0  0  0  0  0
  145.3040   73.3080  218.7500 C   0  0  0  0  0  0  0  0  0  0  0  0
  144.1280   73.6700  219.4900 C   0  0  0  0  0  0  0  0  0  0  0  0
  143.6580   74.9550  219.5130 C   0  0  0  0  0  0  0  0  0  0  0  0
  142.5300   75.3190  220.2190 C   0  0  0  0  0  0  0  0  0  0  0  0
  141.8750   74.3230  220.9170 C   0  0  0  0  0  0  0  0  0  0  0  0
  140.7280   74.6420  221.6460 C   0  0  0  0  0  0  0  0  0  0  0  0
  140.3080   75.9630  221.6260 O   0  0  0  0  0  0  0  0  0  0  0  0
  140.6610   76.7750  222.7260 C   0  0  0  0  0  0  0  0  0  0  0  0
  140.7210   78.2510  222.3080 C   0  0  0  0  0  0  0  0  0  0  0  0
  141.2310   78.3640  220.9240 C   0  0  0  0  0  0  0  0  0  0  0  0
  141.8190   79.6700  220.5350 C   0  0  0  0  0  0  0  0  0  0  0  0
  142.1410   80.6170  221.6250 C   0  0  0  0  0  0  0  0  0  0  0  0
  141.3060   80.5170  222.8680 C   0  0  0  0  0  0  0  0  0  0  0  0
  141.4270   79.0630  223.3430 C   0  0  0  0  0  0  0  0  0  0  0  0
  140.0700   73.6750  222.3380 N   0  0  0  0  0  0  0  0  0  0  0  0
  140.5130   72.3970  222.3330 C   0  0  0  0  0  0  0  0  0  0  0  0
  139.8200   71.3480  223.0700 C   0  0  0  0  0  0  0  0  0  0  0  0
  139.9390   71.2530  224.3840 C   0  0  0  0  0  0  0  0  0  0  0  0
  139.9930   70.0010  225.0980 C   0  0  0  0  0  0  0  0  0  0  0  0
  140.7740   69.7890  226.1980 C   0  0  0  0  0  0  0  0  0  0  0  0
  140.7480   68.5540  226.8020 C   0  0  0  0  0  0  0  0  0  0  0  0
  139.9610   67.5180  226.3360 C   0  0  0  0  0  0  0  0  0  0  0  0
  139.2050   67.7490  225.2560 N   0  0  0  0  0  0  0  0  0  0  0  0
  139.2180   68.9360  224.6620 C   0  0  0  0  0  0  0  0  0  0  0  0
  141.6210   72.0940  221.6270 N   0  0  0  0  0  0  0  0  0  0  0  0
  142.3190   73.0020  220.9190 C   0  0  0  0  0  0  0  0  0  0  0  0
  143.4530   72.6820  220.2000 C   0  0  0  0  0  0  0  0  0  0  0  0
  144.2001   75.7269  218.9471 H   0  0  0  0  0  0  0  0  0  0  0  0
  142.1678   76.3576  220.2258 H   0  0  0  0  0  0  0  0  0  0  0  0
  139.9101   76.6542  223.5207 H   0  0  0  0  0  0  0  0  0  0  0  0
  141.6524   76.4682  223.0908 H   0  0  0  0  0  0  0  0  0  0  0  0
  139.7141   78.6922  222.2693 H   0  0  0  0  0  0  0  0  0  0  0  0
  142.0073   77.5961  220.7911 H   0  0  0  0  0  0  0  0  0  0  0  0
  140.3481   78.2410  220.2796 H   0  0  0  0  0  0  0  0  0  0  0  0
  142.7515   79.4638  219.9892 H   0  0  0  0  0  0  0  0  0  0  0  0
  141.0357   80.1701  219.9465 H   0  0  0  0  0  0  0  0  0  0  0  0
  143.1897   80.4512  221.9127 H   0  0  0  0  0  0  0  0  0  0  0  0
  141.9322   81.6157  221.2138 H   0  0  0  0  0  0  0  0  0  0  0  0
  141.6849   81.2038  223.6392 H   0  0  0  0  0  0  0  0  0  0  0  0
  140.2588   80.7913  222.6730 H   0  0  0  0  0  0  0  0  0  0  0  0
  142.4841   78.7663  223.4106 H   0  0  0  0  0  0  0  0  0  0  0  0
  140.9921   78.9206  224.3433 H   0  0  0  0  0  0  0  0  0  0  0  0
  139.1908   70.6270  222.5275 H   0  0  0  0  0  0  0  0  0  0  0  0
  140.0004   72.1840  224.9666 H   0  0  0  0  0  0  0  0  0  0  0  0
  141.4128   70.5922  226.5940 H   0  0  0  0  0  0  0  0  0  0  0  0
  141.3767   68.3844  227.6886 H   0  0  0  0  0  0  0  0  0  0  0  0
  139.9561   66.5378  226.8352 H   0  0  0  0  0  0  0  0  0  0  0  0
  138.5808   69.0830  223.7775 H   0  0  0  0  0  0  0  0  0  0  0  0
  143.8229   71.6461  220.1883 H   0  0  0  0  0  0  0  0  0  0  0  0
  1  2  3  0
  2  3  1  0
  3  4  2  0
  4  5  1  0
  5  6  2  0
  6  7  1  0
  7  8  1  0
  8  9  1  0
  9 10  1  0
 10 11  1  0
 11 12  1  0
 12 13  1  0
 13 14  1  0
 14 15  1  0
  7 16  2  0
 16 17  1  0
 17 18  1  0
 18 19  2  0
 19 20  1  0
 20 21  2  0
 21 22  1  0
 22 23  2  0
 23 24  1  0
 24 25  2  0
 17 26  2  0
 26 27  1  0
 27 28  2  0
 28  3  1  0
 27  6  1  0
 15 10  1  0
 25 20  1  0
  4 29  1  0
  5 30  1  0
  9 31  1  0
  9 32  1  0
 10 33  1  0
 11 34  1  0
 11 35  1  0
 12 36  1  0
 12 37  1  0
 13 38  1  0
 13 39  1  0
 14 40  1  0
 14 41  1  0
 15 42  1  0
 15 43  1  0
 18 44  1  0
 19 45  1  0
 21 46  1  0
 22 47  1  0
 23 48  1  0
 25 49  1  0
 28 50  1  0
M  END
>  <smiles>  (13) 
N#Cc1ccc2c(OCC3CCCCC3)nc(/C=C/c3cccnc3)nc2c1

>  <score_type>  (13) 
oracle

>  <origin>  (13) 
autodockgpu

>  <m_score__min__energy>  (13) 
-9.4900000000000002

>  <m_primary>  (13) 
energy

>  <rmsd>  (13) 
7.630206973864253

>  <m_score__min__rmsd>  (13) 
7.630206973864253

>  <meeko>  (13) 
{"free_energy": -9.02, "intermolecular_energy": -11.11, "internal_energy": -0.93, "cluster_size": 35, "cluster_id": 1, "rank_in_cluster": 31}

>  <energy>  (13) 
-9.37

>  <cluster_rmsd>  (13) 
1.07

>  <cluster>  (13) 
1

$$$$

     RDKit          3D

 50 53  0  0  0  0  0  0  0  0999 V2000
  146.3150   73.1160  218.0330 N   0  0  0  0  0  0  0  0  0  0  0  0
  145.3650   73.3650  218.6540 C   0  0  0  0  0  0  0  0  0  0  0  0
  144.1820   73.6850  219.4030 C   0  0  0  0  0  0  0  0  0  0  0  0
  143.6390   74.9410  219.3900 C   0  0  0  0  0  0  0  0  0  0  0  0
  142.5030   75.2640  220.1040 C   0  0  0  0  0  0  0  0  0  0  0  0
  141.9180   74.2580  220.8470 C   0  0  0  0  0  0  0  0  0  0  0  0
  140.7670   74.5360  221.5860 C   0  0  0  0  0  0  0  0  0  0  0  0
  140.2700   75.8290  221.5280 O   0  0  0  0  0  0  0  0  0  0  0  0
  140.4540   76.6480  222.6640 C   0  0  0  0  0  0  0  0  0  0  0  0
  141.3340   77.8580  222.3190 C   0  0  0  0  0  0  0  0  0  0  0  0
  141.7840   78.5260  223.5600 C   0  0  0  0  0  0  0  0  0  0  0  0
  142.2020   79.9450  223.4390 C   0  0  0  0  0  0  0  0  0  0  0  0
  141.8320   80.6540  222.1940 C   0  0  0  0  0  0  0  0  0  0  0  0
  141.6910   79.8110  220.9600 C   0  0  0  0  0  0  0  0  0  0  0  0
  140.6640   78.7250  221.3050 C   0  0  0  0  0  0  0  0  0  0  0  0
  140.1780   73.5580  222.3240 N   0  0  0  0  0  0  0  0  0  0  0  0
  140.6950   72.3080  222.3550 C   0  0  0  0  0  0  0  0  0  0  0  0
  140.0760   71.2480  223.1400 C   0  0  0  0  0  0  0  0  0  0  0  0
  139.5140   71.5130  224.3080 C   0  0  0  0  0  0  0  0  0  0  0  0
  140.0300   71.0460  225.5720 C   0  0  0  0  0  0  0  0  0  0  0  0
  140.6510   71.8550  226.4810 C   0  0  0  0  0  0  0  0  0  0  0  0
  141.1050   71.3040  227.6570 C   0  0  0  0  0  0  0  0  0  0  0  0
  140.9560   69.9620  227.9520 C   0  0  0  0  0  0  0  0  0  0  0  0
  140.3450   69.1890  227.0450 N   0  0  0  0  0  0  0  0  0  0  0  0
  139.9000   69.7060  225.9060 C   0  0  0  0  0  0  0  0  0  0  0  0
  141.8060   72.0450  221.6400 N   0  0  0  0  0  0  0  0  0  0  0  0
  142.4390   72.9660  220.8880 C   0  0  0  0  0  0  0  0  0  0  0  0
  143.5770   72.6860  220.1590 C   0  0  0  0  0  0  0  0  0  0  0  0
  144.1261   75.7223  218.7880 H   0  0  0  0  0  0  0  0  0  0  0  0
  142.0815   76.2798  220.0821 H   0  0  0  0  0  0  0  0  0  0  0  0
  139.4743   77.0021  223.0172 H   0  0  0  0  0  0  0  0  0  0  0  0
  140.9509   76.0597  223.4495 H   0  0  0  0  0  0  0  0  0  0  0  0
  142.2629   77.5420  221.8217 H   0  0  0  0  0  0  0  0  0  0  0  0
  140.9546   78.4832  224.2812 H   0  0  0  0  0  0  0  0  0  0  0  0
  142.6895   77.9831  223.8686 H   0  0  0  0  0  0  0  0  0  0  0  0
  141.7533   80.4952  224.2792 H   0  0  0  0  0  0  0  0  0  0  0  0
  143.3016   79.9178  223.4343 H   0  0  0  0  0  0  0  0  0  0  0  0
  140.8684   81.1550  222.3684 H   0  0  0  0  0  0  0  0  0  0  0  0
  142.6703   81.3355  221.9869 H   0  0  0  0  0  0  0  0  0  0  0  0
  141.3329   80.4222  220.1184 H   0  0  0  0  0  0  0  0  0  0  0  0
  142.6542   79.3735  220.6587 H   0  0  0  0  0  0  0  0  0  0  0  0
  139.7528   79.1758  221.7251 H   0  0  0  0  0  0  0  0  0  0  0  0
  140.3560   78.1544  220.4164 H   0  0  0  0  0  0  0  0  0  0  0  0
  140.0760   70.2166  222.7575 H   0  0  0  0  0  0  0  0  0  0  0  0
  138.6000   72.1251  224.3160 H   0  0  0  0  0  0  0  0  0  0  0  0
  140.7856   72.9274  226.2764 H   0  0  0  0  0  0  0  0  0  0  0  0
  141.6048   71.9553  228.3892 H   0  0  0  0  0  0  0  0  0  0  0  0
  141.3265   69.5432  228.8993 H   0  0  0  0  0  0  0  0  0  0  0  0
  139.4019   69.0364  225.1894 H   0  0  0  0  0  0  0  0  0  0  0  0
  144.0056   71.6731  220.1757 H   0  0  0  0  0  0  0  0  0  0  0  0
  1  2  3  0
  2  3  1  0
  3  4  2  0
  4  5  1  0
  5  6  2  0
  6  7  1  0
  7  8  1  0
  8  9  1  0
  9 10  1  0
 10 11  1  0
 11 12  1  0
 12 13  1  0
 13 14  1  0
 14 15  1  0
  7 16  2  0
 16 17  1  0
 17 18  1  0
 18 19  2  0
 19 20  1  0
 20 21  2  0
 21 22  1  0
 22 23  2  0
 23 24  1  0
 24 25  2  0
 17 26  2  0
 26 27  1  0
 27 28  2  0
 28  3  1  0
 27  6  1  0
 15 10  1  0
 25 20  1  0
  4 29  1  0
  5 30  1  0
  9 31  1  0
  9 32  1  0
 10 33  1  0
 11 34  1  0
 11 35  1  0
 12 36  1  0
 12 37  1  0
 13 38  1  0
 13 39  1  0
 14 40  1  0
 14 41  1  0
 15 42  1  0
 15 43  1  0
 18 44  1  0
 19 45  1  0
 21 46  1  0
 22 47  1  0
 23 48  1  0
 25 49  1  0
 28 50  1  0
M  END
>  <smiles>  (14) 
N#Cc1ccc2c(OCC3CCCCC3)nc(/C=C/c3cccnc3)nc2c1

>  <score_type>  (14) 
oracle

>  <origin>  (14) 
autodockgpu

>  <m_score__min__energy>  (14) 
-9.4900000000000002

>  <m_primary>  (14) 
energy

>  <rmsd>  (14) 
7.67771461680232

>  <m_score__min__rmsd>  (14) 
7.67771461680232

>  <meeko>  (14) 
{"free_energy": -8.66, "intermolecular_energy": -10.74, "internal_energy": -1.01, "cluster_size": 35, "cluster_id": 1, "rank_in_cluster": 35}

>  <energy>  (14) 
-9.36

>  <cluster_rmsd>  (14) 
1.01

>  <cluster>  (14) 
1

$$$$

     RDKit          3D

 50 53  0  0  0  0  0  0  0  0999 V2000
  146.2680   73.0850  218.8010 N   0  0  0  0  0  0  0  0  0  0  0  0
  145.2470   73.3840  219.2710 C   0  0  0  0  0  0  0  0  0  0  0  0
  143.9880   73.7350  219.8650 C   0  0  0  0  0  0  0  0  0  0  0  0
  143.4580   74.9900  219.7420 C   0  0  0  0  0  0  0  0  0  0  0  0
  142.2490   75.3420  220.3070 C   0  0  0  0  0  0  0  0  0  0  0  0
  141.5770   74.3660  221.0170 C   0  0  0  0  0  0  0  0  0  0  0  0
  140.3500   74.6750  221.6070 C   0  0  0  0  0  0  0  0  0  0  0  0
  139.8710   75.9650  221.4430 O   0  0  0  0  0  0  0  0  0  0  0  0
  140.0090   76.8540  222.5320 C   0  0  0  0  0  0  0  0  0  0  0  0
  141.0870   77.9070  222.2360 C   0  0  0  0  0  0  0  0  0  0  0  0
  141.6040   78.4720  223.5020 C   0  0  0  0  0  0  0  0  0  0  0  0
  142.2540   79.8030  223.4210 C   0  0  0  0  0  0  0  0  0  0  0  0
  142.0440   80.5830  222.1810 C   0  0  0  0  0  0  0  0  0  0  0  0
  141.8030   79.7940  220.9270 C   0  0  0  0  0  0  0  0  0  0  0  0
  140.6010   78.8880  221.2210 C   0  0  0  0  0  0  0  0  0  0  0  0
  139.6740   73.7270  222.3090 N   0  0  0  0  0  0  0  0  0  0  0  0
  140.1760   72.4780  222.4460 C   0  0  0  0  0  0  0  0  0  0  0  0
  139.4650   71.4510  223.1950 C   0  0  0  0  0  0  0  0  0  0  0  0
  140.1170   70.6220  223.9920 C   0  0  0  0  0  0  0  0  0  0  0  0
  140.3600   70.8770  225.3920 C   0  0  0  0  0  0  0  0  0  0  0  0
  141.1360   71.9020  225.8520 C   0  0  0  0  0  0  0  0  0  0  0  0
  141.3000   72.0530  227.2080 C   0  0  0  0  0  0  0  0  0  0  0  0
  140.7090   71.2030  228.1250 C   0  0  0  0  0  0  0  0  0  0  0  0
  139.9540   70.2050  227.6500 N   0  0  0  0  0  0  0  0  0  0  0  0
  139.7850   70.0460  226.3430 C   0  0  0  0  0  0  0  0  0  0  0  0
  141.3610   72.1860  221.8740 N   0  0  0  0  0  0  0  0  0  0  0  0
  142.0810   73.0760  221.1660 C   0  0  0  0  0  0  0  0  0  0  0  0
  143.2940   72.7660  220.5840 C   0  0  0  0  0  0  0  0  0  0  0  0
  144.0162   75.7469  219.1715 H   0  0  0  0  0  0  0  0  0  0  0  0
  141.8381   76.3564  220.1967 H   0  0  0  0  0  0  0  0  0  0  0  0
  139.0485   77.3598  222.7098 H   0  0  0  0  0  0  0  0  0  0  0  0
  140.3075   76.2810  223.4223 H   0  0  0  0  0  0  0  0  0  0  0  0
  141.9658   77.4491  221.7584 H   0  0  0  0  0  0  0  0  0  0  0  0
  140.7577   78.5562  224.1996 H   0  0  0  0  0  0  0  0  0  0  0  0
  142.3977   77.7817  223.8239 H   0  0  0  0  0  0  0  0  0  0  0  0
  141.8775   80.4069  224.2598 H   0  0  0  0  0  0  0  0  0  0  0  0
  143.3336   79.5937  223.4453 H   0  0  0  0  0  0  0  0  0  0  0  0
  141.1716   81.2340  222.3392 H   0  0  0  0  0  0  0  0  0  0  0  0
  142.9891   81.1195  222.0106 H   0  0  0  0  0  0  0  0  0  0  0  0
  141.5766   80.4690  220.0885 H   0  0  0  0  0  0  0  0  0  0  0  0
  142.6894   79.2075  220.6438 H   0  0  0  0  0  0  0  0  0  0  0  0
  139.7639   79.4769  221.6241 H   0  0  0  0  0  0  0  0  0  0  0  0
  140.2309   78.3896  220.3129 H   0  0  0  0  0  0  0  0  0  0  0  0
  138.3729   71.3642  223.0964 H   0  0  0  0  0  0  0  0  0  0  0  0
  140.4967   69.6828  223.5633 H   0  0  0  0  0  0  0  0  0  0  0  0
  141.6216   72.5950  225.1492 H   0  0  0  0  0  0  0  0  0  0  0  0
  141.9241   72.8800  227.5775 H   0  0  0  0  0  0  0  0  0  0  0  0
  140.8543   71.3422  229.2065 H   0  0  0  0  0  0  0  0  0  0  0  0
  139.1567   69.2125  225.9959 H   0  0  0  0  0  0  0  0  0  0  0  0
  143.7118   71.7538  220.6884 H   0  0  0  0  0  0  0  0  0  0  0  0
  1  2  3  0
  2  3  1  0
  3  4  2  0
  4  5  1  0
  5  6  2  0
  6  7  1  0
  7  8  1  0
  8  9  1  0
  9 10  1  0
 10 11  1  0
 11 12  1  0
 12 13  1  0
 13 14  1  0
 14 15  1  0
  7 16  2  0
 16 17  1  0
 17 18  1  0
 18 19  2  0
 19 20  1  0
 20 21  2  0
 21 22  1  0
 22 23  2  0
 23 24  1  0
 24 25  2  0
 17 26  2  0
 26 27  1  0
 27 28  2  0
 28  3  1  0
 27  6  1  0
 15 10  1  0
 25 20  1  0
  4 29  1  0
  5 30  1  0
  9 31  1  0
  9 32  1  0
 10 33  1  0
 11 34  1  0
 11 35  1  0
 12 36  1  0
 12 37  1  0
 13 38  1  0
 13 39  1  0
 14 40  1  0
 14 41  1  0
 15 42  1  0
 15 43  1  0
 18 44  1  0
 19 45  1  0
 21 46  1  0
 22 47  1  0
 23 48  1  0
 25 49  1  0
 28 50  1  0
M  END
>  <smiles>  (15) 
N#Cc1ccc2c(OCC3CCCCC3)nc(/C=C/c3cccnc3)nc2c1

>  <score_type>  (15) 
oracle

>  <origin>  (15) 
autodockgpu

>  <m_score__min__energy>  (15) 
-9.4900000000000002

>  <m_primary>  (15) 
energy

>  <rmsd>  (15) 
7.509258372974878

>  <m_score__min__rmsd>  (15) 
7.509258372974878

>  <meeko>  (15) 
{"free_energy": -9.22, "intermolecular_energy": -11.31, "internal_energy": -1.16, "cluster_size": 35, "cluster_id": 1, "rank_in_cluster": 20}

>  <energy>  (15) 
-9.36

>  <cluster_rmsd>  (15) 
0.98

>  <cluster>  (15) 
1

$$$$

     RDKit          3D

 50 53  0  0  0  0  0  0  0  0999 V2000
  146.2990   73.0210  218.9220 N   0  0  0  0  0  0  0  0  0  0  0  0
  145.2760   73.3390  219.3750 C   0  0  0  0  0  0  0  0  0  0  0  0
  144.0230   73.7520  219.9430 C   0  0  0  0  0  0  0  0  0  0  0  0
  143.5460   75.0250  219.7860 C   0  0  0  0  0  0  0  0  0  0  0  0
  142.3440   75.4360  220.3250 C   0  0  0  0  0  0  0  0  0  0  0  0
  141.6230   74.5030  221.0430 C   0  0  0  0  0  0  0  0  0  0  0  0
  140.4000   74.8720  221.6080 C   0  0  0  0  0  0  0  0  0  0  0  0
  139.9760   76.1770  221.4110 O   0  0  0  0  0  0  0  0  0  0  0  0
  140.0560   77.0610  222.5100 C   0  0  0  0  0  0  0  0  0  0  0  0
  141.1400   78.1210  222.2710 C   0  0  0  0  0  0  0  0  0  0  0  0
  141.6770   78.5950  223.5660 C   0  0  0  0  0  0  0  0  0  0  0  0
  142.3390   79.9240  223.5650 C   0  0  0  0  0  0  0  0  0  0  0  0
  142.1230   80.7860  222.3830 C   0  0  0  0  0  0  0  0  0  0  0  0
  141.8600   80.0850  221.0820 C   0  0  0  0  0  0  0  0  0  0  0  0
  140.6520   79.1720  221.3300 C   0  0  0  0  0  0  0  0  0  0  0  0
  139.6770   73.9670  222.3180 N   0  0  0  0  0  0  0  0  0  0  0  0
  140.1260   72.7020  222.4880 C   0  0  0  0  0  0  0  0  0  0  0  0
  139.3630   71.7190  223.2470 C   0  0  0  0  0  0  0  0  0  0  0  0
  139.9770   70.7760  223.9400 C   0  0  0  0  0  0  0  0  0  0  0  0
  140.2540   70.8670  225.3530 C   0  0  0  0  0  0  0  0  0  0  0  0
  139.7500   70.0010  226.2820 C   0  0  0  0  0  0  0  0  0  0  0  0
  140.0800   70.1820  227.6040 C   0  0  0  0  0  0  0  0  0  0  0  0
  140.9010   71.2100  228.0290 C   0  0  0  0  0  0  0  0  0  0  0  0
  141.3830   72.0460  227.1010 N   0  0  0  0  0  0  0  0  0  0  0  0
  141.0740   71.8840  225.8200 C   0  0  0  0  0  0  0  0  0  0  0  0
  141.3060   72.3510  221.9410 N   0  0  0  0  0  0  0  0  0  0  0  0
  142.0720   73.1970  221.2260 C   0  0  0  0  0  0  0  0  0  0  0  0
  143.2810   72.8270  220.6700 C   0  0  0  0  0  0  0  0  0  0  0  0
  144.1425   75.7470  219.2091 H   0  0  0  0  0  0  0  0  0  0  0  0
  141.9759   76.4635  220.1883 H   0  0  0  0  0  0  0  0  0  0  0  0
  139.0851   77.5603  222.6441 H   0  0  0  0  0  0  0  0  0  0  0  0
  140.3146   76.4853  223.4109 H   0  0  0  0  0  0  0  0  0  0  0  0
  142.0084   77.6886  221.7523 H   0  0  0  0  0  0  0  0  0  0  0  0
  140.8398   78.6398  224.2781 H   0  0  0  0  0  0  0  0  0  0  0  0
  142.4673   77.8776  223.8322 H   0  0  0  0  0  0  0  0  0  0  0  0
  141.9777   80.4743  224.4463 H   0  0  0  0  0  0  0  0  0  0  0  0
  143.4167   79.7038  223.5620 H   0  0  0  0  0  0  0  0  0  0  0  0
  141.2590   81.4330  222.5946 H   0  0  0  0  0  0  0  0  0  0  0  0
  143.0716   81.3236  222.2375 H   0  0  0  0  0  0  0  0  0  0  0  0
  141.6306   80.8166  220.2932 H   0  0  0  0  0  0  0  0  0  0  0  0
  142.7373   79.5109  220.7492 H   0  0  0  0  0  0  0  0  0  0  0  0
  139.8257   79.7403  221.7819 H   0  0  0  0  0  0  0  0  0  0  0  0
  140.2662   78.7389  220.3953 H   0  0  0  0  0  0  0  0  0  0  0  0
  138.2639   71.7625  223.2429 H   0  0  0  0  0  0  0  0  0  0  0  0
  140.2959   69.8676  223.4078 H   0  0  0  0  0  0  0  0  0  0  0  0
  139.0920   69.1738  225.9774 H   0  0  0  0  0  0  0  0  0  0  0  0
  139.6760   69.4832  228.3513 H   0  0  0  0  0  0  0  0  0  0  0  0
  141.1496   71.3367  229.0930 H   0  0  0  0  0  0  0  0  0  0  0  0
  141.4903   72.5939  225.0901 H   0  0  0  0  0  0  0  0  0  0  0  0
  143.6568   71.8016  220.8020 H   0  0  0  0  0  0  0  0  0  0  0  0
  1  2  3  0
  2  3  1  0
  3  4  2  0
  4  5  1  0
  5  6  2  0
  6  7  1  0
  7  8  1  0
  8  9  1  0
  9 10  1  0
 10 11  1  0
 11 12  1  0
 12 13  1  0
 13 14  1  0
 14 15  1  0
  7 16  2  0
 16 17  1  0
 17 18  1  0
 18 19  2  0
 19 20  1  0
 20 21  2  0
 21 22  1  0
 22 23  2  0
 23 24  1  0
 24 25  2  0
 17 26  2  0
 26 27  1  0
 27 28  2  0
 28  3  1  0
 27  6  1  0
 15 10  1  0
 25 20  1  0
  4 29  1  0
  5 30  1  0
  9 31  1  0
  9 32  1  0
 10 33  1  0
 11 34  1  0
 11 35  1  0
 12 36  1  0
 12 37  1  0
 13 38  1  0
 13 39  1  0
 14 40  1  0
 14 41  1  0
 15 42  1  0
 15 43  1  0
 18 44  1  0
 19 45  1  0
 21 46  1  0
 22 47  1  0
 23 48  1  0
 25 49  1  0
 28 50  1  0
M  END
>  <smiles>  (16) 
N#Cc1ccc2c(OCC3CCCCC3)nc(/C=C/c3cccnc3)nc2c1

>  <score_type>  (16) 
oracle

>  <origin>  (16) 
autodockgpu

>  <m_score__min__energy>  (16) 
-9.4900000000000002

>  <m_primary>  (16) 
energy

>  <rmsd>  (16) 
7.434047869625223

>  <m_score__min__rmsd>  (16) 
7.434047869625223

>  <meeko>  (16) 
{"free_energy": -9.39, "intermolecular_energy": -11.48, "internal_energy": -1.1, "cluster_size": 35, "cluster_id": 1, "rank_in_cluster": 10}

>  <energy>  (16) 
-9.36

>  <cluster_rmsd>  (16) 
1.21

>  <cluster>  (16) 
1

$$$$

     RDKit          3D

 50 53  0  0  0  0  0  0  0  0999 V2000
  146.3340   73.3700  218.4570 N   0  0  0  0  0  0  0  0  0  0  0  0
  145.3560   73.2650  219.0760 C   0  0  0  0  0  0  0  0  0  0  0  0
  144.1590   73.1200  219.8570 C   0  0  0  0  0  0  0  0  0  0  0  0
  143.8260   71.9340  220.4520 C   0  0  0  0  0  0  0  0  0  0  0  0
  142.6800   71.7790  221.2040 C   0  0  0  0  0  0  0  0  0  0  0  0
  141.8620   72.8830  221.3410 C   0  0  0  0  0  0  0  0  0  0  0  0
  140.6900   72.7760  222.0930 C   0  0  0  0  0  0  0  0  0  0  0  0
  140.4140   71.5460  222.6680 O   0  0  0  0  0  0  0  0  0  0  0  0
  139.5830   71.5330  223.8100 C   0  0  0  0  0  0  0  0  0  0  0  0
  140.2230   70.7050  224.9330 C   0  0  0  0  0  0  0  0  0  0  0  0
  139.5430   69.3960  225.0480 C   0  0  0  0  0  0  0  0  0  0  0  0
  139.6730   68.6890  226.3460 C   0  0  0  0  0  0  0  0  0  0  0  0
  140.1740   69.4750  227.4960 C   0  0  0  0  0  0  0  0  0  0  0  0
  141.0920   70.6190  227.1750 C   0  0  0  0  0  0  0  0  0  0  0  0
  140.3290   71.5090  226.1860 C   0  0  0  0  0  0  0  0  0  0  0  0
  139.8730   73.8520  222.2380 N   0  0  0  0  0  0  0  0  0  0  0  0
  140.1790   75.0360  221.6600 C   0  0  0  0  0  0  0  0  0  0  0  0
  139.3130   76.2000  221.8060 C   0  0  0  0  0  0  0  0  0  0  0  0
  139.5830   77.1340  222.7020 C   0  0  0  0  0  0  0  0  0  0  0  0
  140.6240   78.1210  222.5470 C   0  0  0  0  0  0  0  0  0  0  0  0
  141.4630   78.5030  223.5550 C   0  0  0  0  0  0  0  0  0  0  0  0
  142.4210   79.4530  223.2960 C   0  0  0  0  0  0  0  0  0  0  0  0
  142.5670   80.0390  222.0520 C   0  0  0  0  0  0  0  0  0  0  0  0
  141.7330   79.6490  221.0800 N   0  0  0  0  0  0  0  0  0  0  0  0
  140.8030   78.7320  221.3140 C   0  0  0  0  0  0  0  0  0  0  0  0
  141.3100   75.1340  220.9350 N   0  0  0  0  0  0  0  0  0  0  0  0
  142.1640   74.1090  220.7520 C   0  0  0  0  0  0  0  0  0  0  0  0
  143.3210   74.2200  220.0070 C   0  0  0  0  0  0  0  0  0  0  0  0
  144.4972   71.0717  220.3260 H   0  0  0  0  0  0  0  0  0  0  0  0
  142.4285   70.8170  221.6744 H   0  0  0  0  0  0  0  0  0  0  0  0
  139.4344   72.5648  224.1610 H   0  0  0  0  0  0  0  0  0  0  0  0
  138.6171   71.0803  223.5413 H   0  0  0  0  0  0  0  0  0  0  0  0
  141.2667   70.4545  224.6924 H   0  0  0  0  0  0  0  0  0  0  0  0
  138.4710   69.5600  224.8638 H   0  0  0  0  0  0  0  0  0  0  0  0
  140.0414   68.7460  224.3137 H   0  0  0  0  0  0  0  0  0  0  0  0
  138.6778   68.3056  226.6154 H   0  0  0  0  0  0  0  0  0  0  0  0
  140.4383   67.9178  226.1740 H   0  0  0  0  0  0  0  0  0  0  0  0
  139.3018   69.8848  228.0264 H   0  0  0  0  0  0  0  0  0  0  0  0
  140.7792   68.7726  228.0879 H   0  0  0  0  0  0  0  0  0  0  0  0
  141.3340   71.1826  228.0881 H   0  0  0  0  0  0  0  0  0  0  0  0
  142.0422   70.2654  226.7484 H   0  0  0  0  0  0  0  0  0  0  0  0
  139.3287   71.7485  226.5758 H   0  0  0  0  0  0  0  0  0  0  0  0
  140.8423   72.4670  226.0163 H   0  0  0  0  0  0  0  0  0  0  0  0
  138.4257   76.3021  221.1639 H   0  0  0  0  0  0  0  0  0  0  0  0
  138.9780   77.1602  223.6203 H   0  0  0  0  0  0  0  0  0  0  0  0
  141.3731   78.0576  224.5568 H   0  0  0  0  0  0  0  0  0  0  0  0
  143.0969   79.7588  224.1082 H   0  0  0  0  0  0  0  0  0  0  0  0
  143.3409   80.7986  221.8676 H   0  0  0  0  0  0  0  0  0  0  0  0
  140.1388   78.4407  220.4869 H   0  0  0  0  0  0  0  0  0  0  0  0
  143.5800   75.1779  219.5323 H   0  0  0  0  0  0  0  0  0  0  0  0
  1  2  3  0
  2  3  1  0
  3  4  2  0
  4  5  1  0
  5  6  2  0
  6  7  1  0
  7  8  1  0
  8  9  1  0
  9 10  1  0
 10 11  1  0
 11 12  1  0
 12 13  1  0
 13 14  1  0
 14 15  1  0
  7 16  2  0
 16 17  1  0
 17 18  1  0
 18 19  2  0
 19 20  1  0
 20 21  2  0
 21 22  1  0
 22 23  2  0
 23 24  1  0
 24 25  2  0
 17 26  2  0
 26 27  1  0
 27 28  2  0
 28  3  1  0
 27  6  1  0
 15 10  1  0
 25 20  1  0
  4 29  1  0
  5 30  1  0
  9 31  1  0
  9 32  1  0
 10 33  1  0
 11 34  1  0
 11 35  1  0
 12 36  1  0
 12 37  1  0
 13 38  1  0
 13 39  1  0
 14 40  1  0
 14 41  1  0
 15 42  1  0
 15 43  1  0
 18 44  1  0
 19 45  1  0
 21 46  1  0
 22 47  1  0
 23 48  1  0
 25 49  1  0
 28 50  1  0
M  END
>  <smiles>  (17) 
N#Cc1ccc2c(OCC3CCCCC3)nc(/C=C/c3cccnc3)nc2c1

>  <score_type>  (17) 
oracle

>  <origin>  (17) 
autodockgpu

>  <m_score__min__energy>  (17) 
-9.4900000000000002

>  <m_primary>  (17) 
energy

>  <rmsd>  (17) 
8.252855399018078

>  <m_score__min__rmsd>  (17) 
8.252855399018078

>  <meeko>  (17) 
{"free_energy": -8.51, "intermolecular_energy": -10.6, "internal_energy": -1.01, "cluster_size": 14, "cluster_id": 2, "rank_in_cluster": 8}

>  <energy>  (17) 
-9.34

>  <cluster_rmsd>  (17) 
1.01

>  <cluster>  (17) 
1

$$$$

     RDKit          3D

 50 53  0  0  0  0  0  0  0  0999 V2000
  146.3210   73.0380  218.8510 N   0  0  0  0  0  0  0  0  0  0  0  0
  145.3100   73.3730  219.3160 C   0  0  0  0  0  0  0  0  0  0  0  0
  144.0510   73.7640  219.8870 C   0  0  0  0  0  0  0  0  0  0  0  0
  143.5400   75.0220  219.7090 C   0  0  0  0  0  0  0  0  0  0  0  0
  142.3330   75.4130  220.2510 C   0  0  0  0  0  0  0  0  0  0  0  0
  141.6410   74.4760  220.9930 C   0  0  0  0  0  0  0  0  0  0  0  0
  140.4150   74.8250  221.5610 C   0  0  0  0  0  0  0  0  0  0  0  0
  139.9560   76.1140  221.3420 O   0  0  0  0  0  0  0  0  0  0  0  0
  140.0090   77.0170  222.4270 C   0  0  0  0  0  0  0  0  0  0  0  0
  141.1030   78.0700  222.1990 C   0  0  0  0  0  0  0  0  0  0  0  0
  141.6220   78.5490  223.4990 C   0  0  0  0  0  0  0  0  0  0  0  0
  142.2920   79.8740  223.5010 C   0  0  0  0  0  0  0  0  0  0  0  0
  142.0990   80.7300  222.3090 C   0  0  0  0  0  0  0  0  0  0  0  0
  141.8520   80.0220  221.0090 C   0  0  0  0  0  0  0  0  0  0  0  0
  140.6350   79.1180  221.2440 C   0  0  0  0  0  0  0  0  0  0  0  0
  139.7200   73.9160  222.2950 N   0  0  0  0  0  0  0  0  0  0  0  0
  140.2030   72.6660  222.4860 C   0  0  0  0  0  0  0  0  0  0  0  0
  139.4720   71.6790  223.2690 C   0  0  0  0  0  0  0  0  0  0  0  0
  140.1150   70.7740  223.9870 C   0  0  0  0  0  0  0  0  0  0  0  0
  140.3040   70.8650  225.4150 C   0  0  0  0  0  0  0  0  0  0  0  0
  140.9660   71.8900  226.0280 C   0  0  0  0  0  0  0  0  0  0  0  0
  141.0880   71.8760  227.3970 C   0  0  0  0  0  0  0  0  0  0  0  0
  140.5640   70.8610  228.1760 C   0  0  0  0  0  0  0  0  0  0  0  0
  139.9200   69.8670  227.5530 N   0  0  0  0  0  0  0  0  0  0  0  0
  139.7940   69.8660  226.2320 C   0  0  0  0  0  0  0  0  0  0  0  0
  141.3870   72.3350  221.9350 N   0  0  0  0  0  0  0  0  0  0  0  0
  142.1260   73.1850  221.1970 C   0  0  0  0  0  0  0  0  0  0  0  0
  143.3380   72.8360  220.6380 C   0  0  0  0  0  0  0  0  0  0  0  0
  144.1127   75.7471  219.1122 H   0  0  0  0  0  0  0  0  0  0  0  0
  141.9384   76.4284  220.0986 H   0  0  0  0  0  0  0  0  0  0  0  0
  139.0364   77.5213  222.5258 H   0  0  0  0  0  0  0  0  0  0  0  0
  140.2412   76.4565  223.3446 H   0  0  0  0  0  0  0  0  0  0  0  0
  141.9773   77.6299  221.6971 H   0  0  0  0  0  0  0  0  0  0  0  0
  140.7738   78.6031  224.1973 H   0  0  0  0  0  0  0  0  0  0  0  0
  142.4038   77.8288  223.7818 H   0  0  0  0  0  0  0  0  0  0  0  0
  141.9201   80.4319  224.3731 H   0  0  0  0  0  0  0  0  0  0  0  0
  143.3684   79.6481  223.5173 H   0  0  0  0  0  0  0  0  0  0  0  0
  141.2356   81.3833  222.5030 H   0  0  0  0  0  0  0  0  0  0  0  0
  143.0528   81.2612  222.1745 H   0  0  0  0  0  0  0  0  0  0  0  0
  141.6393   80.7497  220.2120 H   0  0  0  0  0  0  0  0  0  0  0  0
  142.7309   79.4404  220.6938 H   0  0  0  0  0  0  0  0  0  0  0  0
  139.8053   79.6939  221.6798 H   0  0  0  0  0  0  0  0  0  0  0  0
  140.2605   78.6814  220.3064 H   0  0  0  0  0  0  0  0  0  0  0  0
  138.3720   71.6867  223.2629 H   0  0  0  0  0  0  0  0  0  0  0  0
  140.5307   69.8996  223.4649 H   0  0  0  0  0  0  0  0  0  0  0  0
  141.3942   72.7126  225.4365 H   0  0  0  0  0  0  0  0  0  0  0  0
  141.6215   72.7018  227.8904 H   0  0  0  0  0  0  0  0  0  0  0  0
  140.6727   70.8702  229.2706 H   0  0  0  0  0  0  0  0  0  0  0  0
  139.2574   69.0298  225.7601 H   0  0  0  0  0  0  0  0  0  0  0  0
  143.7405   71.8231  220.7864 H   0  0  0  0  0  0  0  0  0  0  0  0
  1  2  3  0
  2  3  1  0
  3  4  2  0
  4  5  1  0
  5  6  2  0
  6  7  1  0
  7  8  1  0
  8  9  1  0
  9 10  1  0
 10 11  1  0
 11 12  1  0
 12 13  1  0
 13 14  1  0
 14 15  1  0
  7 16  2  0
 16 17  1  0
 17 18  1  0
 18 19  2  0
 19 20  1  0
 20 21  2  0
 21 22  1  0
 22 23  2  0
 23 24  1  0
 24 25  2  0
 17 26  2  0
 26 27  1  0
 27 28  2  0
 28  3  1  0
 27  6  1  0
 15 10  1  0
 25 20  1  0
  4 29  1  0
  5 30  1  0
  9 31  1  0
  9 32  1  0
 10 33  1  0
 11 34  1  0
 11 35  1  0
 12 36  1  0
 12 37  1  0
 13 38  1  0
 13 39  1  0
 14 40  1  0
 14 41  1  0
 15 42  1  0
 15 43  1  0
 18 44  1  0
 19 45  1  0
 21 46  1  0
 22 47  1  0
 23 48  1  0
 25 49  1  0
 28 50  1  0
M  END
>  <smiles>  (18) 
N#Cc1ccc2c(OCC3CCCCC3)nc(/C=C/c3cccnc3)nc2c1

>  <score_type>  (18) 
oracle

>  <origin>  (18) 
autodockgpu

>  <m_score__min__energy>  (18) 
-9.4900000000000002

>  <m_primary>  (18) 
energy

>  <rmsd>  (18) 
7.447067510177774

>  <m_score__min__rmsd>  (18) 
7.447067510177774

>  <meeko>  (18) 
{"free_energy": -9.38, "intermolecular_energy": -11.47, "internal_energy": -1.1, "cluster_size": 35, "cluster_id": 1, "rank_in_cluster": 12}

>  <energy>  (18) 
-9.33

>  <cluster_rmsd>  (18) 
0.99

>  <cluster>  (18) 
1

$$$$

     RDKit          3D

 50 53  0  0  0  0  0  0  0  0999 V2000
  146.2590   73.0340  219.0330 N   0  0  0  0  0  0  0  0  0  0  0  0
  145.2270   73.3320  219.4770 C   0  0  0  0  0  0  0  0  0  0  0  0
  143.9540   73.7210  220.0170 C   0  0  0  0  0  0  0  0  0  0  0  0
  143.4360   74.9710  219.8090 C   0  0  0  0  0  0  0  0  0  0  0  0
  142.2150   75.3600  220.3210 C   0  0  0  0  0  0  0  0  0  0  0  0
  141.5180   74.4280  221.0660 C   0  0  0  0  0  0  0  0  0  0  0  0
  140.2780   74.7760  221.6050 C   0  0  0  0  0  0  0  0  0  0  0  0
  139.8120   76.0570  221.3560 O   0  0  0  0  0  0  0  0  0  0  0  0
  139.3880   76.8220  222.4650 C   0  0  0  0  0  0  0  0  0  0  0  0
  139.9780   78.2380  222.3980 C   0  0  0  0  0  0  0  0  0  0  0  0
  141.4530   78.1680  222.3140 C   0  0  0  0  0  0  0  0  0  0  0  0
  142.2030   79.3780  222.7370 C   0  0  0  0  0  0  0  0  0  0  0  0
  141.4560   80.4040  223.4980 C   0  0  0  0  0  0  0  0  0  0  0  0
  139.9820   80.4970  223.2270 C   0  0  0  0  0  0  0  0  0  0  0  0
  139.4150   79.0950  223.4840 C   0  0  0  0  0  0  0  0  0  0  0  0
  139.5780   73.8720  222.3400 N   0  0  0  0  0  0  0  0  0  0  0  0
  140.0680   72.6300  222.5610 C   0  0  0  0  0  0  0  0  0  0  0  0
  139.3300   71.6500  223.3470 C   0  0  0  0  0  0  0  0  0  0  0  0
  139.9670   70.7100  224.0240 C   0  0  0  0  0  0  0  0  0  0  0  0
  140.2980   70.8130  225.4250 C   0  0  0  0  0  0  0  0  0  0  0  0
  139.8970   69.9080  226.3670 C   0  0  0  0  0  0  0  0  0  0  0  0
  140.2710   70.1040  227.6760 C   0  0  0  0  0  0  0  0  0  0  0  0
  141.0360   71.1840  228.0730 C   0  0  0  0  0  0  0  0  0  0  0  0
  141.4170   72.0570  227.1330 N   0  0  0  0  0  0  0  0  0  0  0  0
  141.0650   71.8820  225.8650 C   0  0  0  0  0  0  0  0  0  0  0  0
  141.2650   72.3010  222.0380 N   0  0  0  0  0  0  0  0  0  0  0  0
  142.0100   73.1460  221.3010 C   0  0  0  0  0  0  0  0  0  0  0  0
  143.2360   72.7980  220.7700 C   0  0  0  0  0  0  0  0  0  0  0  0
  144.0142   75.6916  219.2120 H   0  0  0  0  0  0  0  0  0  0  0  0
  141.8138   76.3687  220.1437 H   0  0  0  0  0  0  0  0  0  0  0  0
  138.2899   76.8867  222.4617 H   0  0  0  0  0  0  0  0  0  0  0  0
  139.7361   76.3346  223.3877 H   0  0  0  0  0  0  0  0  0  0  0  0
  139.6724   78.7503  221.4738 H   0  0  0  0  0  0  0  0  0  0  0  0
  141.7837   77.3322  222.9480 H   0  0  0  0  0  0  0  0  0  0  0  0
  141.6764   78.0488  221.2435 H   0  0  0  0  0  0  0  0  0  0  0  0
  143.0417   79.0447  223.3659 H   0  0  0  0  0  0  0  0  0  0  0  0
  142.4926   79.8748  221.7993 H   0  0  0  0  0  0  0  0  0  0  0  0
  141.5861   80.1870  224.5685 H   0  0  0  0  0  0  0  0  0  0  0  0
  141.8734   81.3687  223.1738 H   0  0  0  0  0  0  0  0  0  0  0  0
  139.5146   81.2281  223.9031 H   0  0  0  0  0  0  0  0  0  0  0  0
  139.7820   80.8298  222.1978 H   0  0  0  0  0  0  0  0  0  0  0  0
  139.7326   78.7256  224.4702 H   0  0  0  0  0  0  0  0  0  0  0  0
  138.3150   79.0904  223.4819 H   0  0  0  0  0  0  0  0  0  0  0  0
  138.2313   71.6927  223.3774 H   0  0  0  0  0  0  0  0  0  0  0  0
  140.2620   69.7958  223.4881 H   0  0  0  0  0  0  0  0  0  0  0  0
  139.2860   69.0383  226.0835 H   0  0  0  0  0  0  0  0  0  0  0  0
  139.9495   69.3747  228.4341 H   0  0  0  0  0  0  0  0  0  0  0  0
  141.3222   71.3216  229.1262 H   0  0  0  0  0  0  0  0  0  0  0  0
  141.3990   72.6235  225.1243 H   0  0  0  0  0  0  0  0  0  0  0  0
  143.6447   71.7914  220.9424 H   0  0  0  0  0  0  0  0  0  0  0  0
  1  2  3  0
  2  3  1  0
  3  4  2  0
  4  5  1  0
  5  6  2  0
  6  7  1  0
  7  8  1  0
  8  9  1  0
  9 10  1  0
 10 11  1  0
 11 12  1  0
 12 13  1  0
 13 14  1  0
 14 15  1  0
  7 16  2  0
 16 17  1  0
 17 18  1  0
 18 19  2  0
 19 20  1  0
 20 21  2  0
 21 22  1  0
 22 23  2  0
 23 24  1  0
 24 25  2  0
 17 26  2  0
 26 27  1  0
 27 28  2  0
 28  3  1  0
 27  6  1  0
 15 10  1  0
 25 20  1  0
  4 29  1  0
  5 30  1  0
  9 31  1  0
  9 32  1  0
 10 33  1  0
 11 34  1  0
 11 35  1  0
 12 36  1  0
 12 37  1  0
 13 38  1  0
 13 39  1  0
 14 40  1  0
 14 41  1  0
 15 42  1  0
 15 43  1  0
 18 44  1  0
 19 45  1  0
 21 46  1  0
 22 47  1  0
 23 48  1  0
 25 49  1  0
 28 50  1  0
M  END
>  <smiles>  (19) 
N#Cc1ccc2c(OCC3CCCCC3)nc(/C=C/c3cccnc3)nc2c1

>  <score_type>  (19) 
oracle

>  <origin>  (19) 
autodockgpu

>  <m_score__min__energy>  (19) 
-9.4900000000000002

>  <m_primary>  (19) 
energy

>  <rmsd>  (19) 
7.461584022730218

>  <m_score__min__rmsd>  (19) 
7.461584022730218

>  <meeko>  (19) 
{"free_energy": -9.2, "intermolecular_energy": -11.29, "internal_energy": -1.08, "cluster_size": 35, "cluster_id": 1, "rank_in_cluster": 21}

>  <energy>  (19) 
-9.22

>  <cluster_rmsd>  (19) 
0.75

>  <cluster>  (19) 
1

$$$$

     RDKit          3D

 50 53  0  0  0  0  0  0  0  0999 V2000
  146.2930   73.0250  218.6470 N   0  0  0  0  0  0  0  0  0  0  0  0
  145.3210   73.3850  219.1730 C   0  0  0  0  0  0  0  0  0  0  0  0
  144.1100   73.8090  219.8190 C   0  0  0  0  0  0  0  0  0  0  0  0
  143.7040   75.1160  219.8020 C   0  0  0  0  0  0  0  0  0  0  0  0
  142.5430   75.5380  220.4170 C   0  0  0  0  0  0  0  0  0  0  0  0
  141.7880   74.5800  221.0650 C   0  0  0  0  0  0  0  0  0  0  0  0
  140.6050   74.9590  221.7020 C   0  0  0  0  0  0  0  0  0  0  0  0
  140.2530   76.2980  221.6460 O   0  0  0  0  0  0  0  0  0  0  0  0
  140.6430   77.1190  222.7270 C   0  0  0  0  0  0  0  0  0  0  0  0
  140.6330   78.5970  222.3120 C   0  0  0  0  0  0  0  0  0  0  0  0
  141.3620   78.7690  221.0360 C   0  0  0  0  0  0  0  0  0  0  0  0
  141.8800   80.1280  220.7420 C   0  0  0  0  0  0  0  0  0  0  0  0
  141.9160   81.0940  221.8620 C   0  0  0  0  0  0  0  0  0  0  0  0
  140.8910   80.9050  222.9420 C   0  0  0  0  0  0  0  0  0  0  0  0
  141.0670   79.4670  223.4450 C   0  0  0  0  0  0  0  0  0  0  0  0
  139.8500   74.0290  222.3440 N   0  0  0  0  0  0  0  0  0  0  0  0
  140.2290   72.7310  222.3760 C   0  0  0  0  0  0  0  0  0  0  0  0
  139.4300   71.7220  223.0600 C   0  0  0  0  0  0  0  0  0  0  0  0
  140.0100   70.7550  223.7510 C   0  0  0  0  0  0  0  0  0  0  0  0
  140.2210   70.8010  225.1770 C   0  0  0  0  0  0  0  0  0  0  0  0
  139.7170   69.8780  226.0480 C   0  0  0  0  0  0  0  0  0  0  0  0
  139.9800   70.0190  227.3900 C   0  0  0  0  0  0  0  0  0  0  0  0
  140.7360   71.0630  227.8910 C   0  0  0  0  0  0  0  0  0  0  0  0
  141.2190   71.9560  227.0180 N   0  0  0  0  0  0  0  0  0  0  0  0
  140.9740   71.8330  225.7200 C   0  0  0  0  0  0  0  0  0  0  0  0
  141.3710   72.3710  221.7590 N   0  0  0  0  0  0  0  0  0  0  0  0
  142.1660   73.2390  221.1050 C   0  0  0  0  0  0  0  0  0  0  0  0
  143.3350   72.8590  220.4760 C   0  0  0  0  0  0  0  0  0  0  0  0
  144.3260   75.8572  219.2789 H   0  0  0  0  0  0  0  0  0  0  0  0
  142.2320   76.5928  220.3922 H   0  0  0  0  0  0  0  0  0  0  0  0
  139.9431   76.9732  223.5630 H   0  0  0  0  0  0  0  0  0  0  0  0
  141.6628   76.8428  223.0330 H   0  0  0  0  0  0  0  0  0  0  0  0
  139.6100   78.9386  222.0959 H   0  0  0  0  0  0  0  0  0  0  0  0
  142.2198   78.0805  221.0469 H   0  0  0  0  0  0  0  0  0  0  0  0
  140.6199   78.5663  220.2497 H   0  0  0  0  0  0  0  0  0  0  0  0
  142.9084   80.0165  220.3678 H   0  0  0  0  0  0  0  0  0  0  0  0
  141.1659   80.5544  220.0222 H   0  0  0  0  0  0  0  0  0  0  0  0
  142.9098   81.0276  222.3289 H   0  0  0  0  0  0  0  0  0  0  0  0
  141.6876   82.0711  221.4114 H   0  0  0  0  0  0  0  0  0  0  0  0
  141.0619   81.6198  223.7604 H   0  0  0  0  0  0  0  0  0  0  0  0
  139.8722   81.0781  222.5652 H   0  0  0  0  0  0  0  0  0  0  0  0
  142.1199   79.2735  223.6979 H   0  0  0  0  0  0  0  0  0  0  0  0
  140.4805   79.2767  224.3560 H   0  0  0  0  0  0  0  0  0  0  0  0
  138.3324   71.7653  223.0008 H   0  0  0  0  0  0  0  0  0  0  0  0
  140.3517   69.8628  223.2059 H   0  0  0  0  0  0  0  0  0  0  0  0
  139.1109   69.0361  225.6821 H   0  0  0  0  0  0  0  0  0  0  0  0
  139.5744   69.2744  228.0907 H   0  0  0  0  0  0  0  0  0  0  0  0
  140.9336   71.1565  228.9691 H   0  0  0  0  0  0  0  0  0  0  0  0
  141.3897   72.5891  225.0377 H   0  0  0  0  0  0  0  0  0  0  0  0
  143.6531   71.8061  220.4945 H   0  0  0  0  0  0  0  0  0  0  0  0
  1  2  3  0
  2  3  1  0
  3  4  2  0
  4  5  1  0
  5  6  2  0
  6  7  1  0
  7  8  1  0
  8  9  1  0
  9 10  1  0
 10 11  1  0
 11 12  1  0
 12 13  1  0
 13 14  1  0
 14 15  1  0
  7 16  2  0
 16 17  1  0
 17 18  1  0
 18 19  2  0
 19 20  1  0
 20 21  2  0
 21 22  1  0
 22 23  2  0
 23 24  1  0
 24 25  2  0
 17 26  2  0
 26 27  1  0
 27 28  2  0
 28  3  1  0
 27  6  1  0
 15 10  1  0
 25 20  1  0
  4 29  1  0
  5 30  1  0
  9 31  1  0
  9 32  1  0
 10 33  1  0
 11 34  1  0
 11 35  1  0
 12 36  1  0
 12 37  1  0
 13 38  1  0
 13 39  1  0
 14 40  1  0
 14 41  1  0
 15 42  1  0
 15 43  1  0
 18 44  1  0
 19 45  1  0
 21 46  1  0
 22 47  1  0
 23 48  1  0
 25 49  1  0
 28 50  1  0
M  END
>  <smiles>  (20) 
N#Cc1ccc2c(OCC3CCCCC3)nc(/C=C/c3cccnc3)nc2c1

>  <score_type>  (20) 
oracle

>  <origin>  (20) 
autodockgpu

>  <m_score__min__energy>  (20) 
-9.4900000000000002

>  <m_primary>  (20) 
energy

>  <rmsd>  (20) 
7.413786121269308

>  <m_score__min__rmsd>  (20) 
7.413786121269308

>  <meeko>  (20) 
{"free_energy": -8.96, "intermolecular_energy": -11.05, "internal_energy": -1.02, "cluster_size": 35, "cluster_id": 1, "rank_in_cluster": 33}

>  <energy>  (20) 
-9.22

>  <cluster_rmsd>  (20) 
1.07

>  <cluster>  (20) 
1

$$$$

     RDKit          3D

 50 53  0  0  0  0  0  0  0  0999 V2000
  146.3160   73.0190  218.8840 N   0  0  0  0  0  0  0  0  0  0  0  0
  145.3140   73.3670  219.3610 C   0  0  0  0  0  0  0  0  0  0  0  0
  144.0720   73.8100  219.9300 C   0  0  0  0  0  0  0  0  0  0  0  0
  143.6420   75.1030  219.8020 C   0  0  0  0  0  0  0  0  0  0  0  0
  142.4520   75.5440  220.3440 C   0  0  0  0  0  0  0  0  0  0  0  0
  141.6930   74.6200  221.0340 C   0  0  0  0  0  0  0  0  0  0  0  0
  140.4800   75.0190  221.5990 C   0  0  0  0  0  0  0  0  0  0  0  0
  140.1040   76.3420  221.4320 O   0  0  0  0  0  0  0  0  0  0  0  0
  139.7030   77.0560  222.5830 C   0  0  0  0  0  0  0  0  0  0  0  0
  140.3930   78.4260  222.6340 C   0  0  0  0  0  0  0  0  0  0  0  0
  140.7490   78.8650  221.2670 C   0  0  0  0  0  0  0  0  0  0  0  0
  141.8280   79.8780  221.1520 C   0  0  0  0  0  0  0  0  0  0  0  0
  142.6630   80.1140  222.3500 C   0  0  0  0  0  0  0  0  0  0  0  0
  142.0110   79.8680  223.6790 C   0  0  0  0  0  0  0  0  0  0  0  0
  141.4980   78.4230  223.6380 C   0  0  0  0  0  0  0  0  0  0  0  0
  139.7190   74.1230  222.2820 N   0  0  0  0  0  0  0  0  0  0  0  0
  140.1220   72.8390  222.4240 C   0  0  0  0  0  0  0  0  0  0  0  0
  139.3190   71.8660  223.1530 C   0  0  0  0  0  0  0  0  0  0  0  0
  139.8930   70.8760  223.8150 C   0  0  0  0  0  0  0  0  0  0  0  0
  140.1640   70.9080  225.2330 C   0  0  0  0  0  0  0  0  0  0  0  0
  140.8940   71.8880  225.8420 C   0  0  0  0  0  0  0  0  0  0  0  0
  141.0910   71.8190  227.2010 C   0  0  0  0  0  0  0  0  0  0  0  0
  140.5770   70.7940  227.9730 C   0  0  0  0  0  0  0  0  0  0  0  0
  139.8650   69.8450  227.3530 N   0  0  0  0  0  0  0  0  0  0  0  0
  139.6660   69.8970  226.0420 C   0  0  0  0  0  0  0  0  0  0  0  0
  141.2930   72.4590  221.8760 N   0  0  0  0  0  0  0  0  0  0  0  0
  142.0940   73.2940  221.1870 C   0  0  0  0  0  0  0  0  0  0  0  0
  143.2920   72.8950  220.6300 C   0  0  0  0  0  0  0  0  0  0  0  0
  144.2680   75.8170  219.2467 H   0  0  0  0  0  0  0  0  0  0  0  0
  142.1222   76.5873  220.2311 H   0  0  0  0  0  0  0  0  0  0  0  0
  138.6128   77.2006  222.5576 H   0  0  0  0  0  0  0  0  0  0  0  0
  139.9888   76.4805  223.4758 H   0  0  0  0  0  0  0  0  0  0  0  0
  139.7047   79.2006  223.0031 H   0  0  0  0  0  0  0  0  0  0  0  0
  141.0656   77.9752  220.7030 H   0  0  0  0  0  0  0  0  0  0  0  0
  139.8464   79.3586  220.8776 H   0  0  0  0  0  0  0  0  0  0  0  0
  142.4973   79.5581  220.3397 H   0  0  0  0  0  0  0  0  0  0  0  0
  141.3059   80.8304  220.9777 H   0  0  0  0  0  0  0  0  0  0  0  0
  143.5406   79.4544  222.2810 H   0  0  0  0  0  0  0  0  0  0  0  0
  142.8971   81.1887  222.3348 H   0  0  0  0  0  0  0  0  0  0  0  0
  142.7419   79.9910  224.4918 H   0  0  0  0  0  0  0  0  0  0  0  0
  141.1936   80.5803  223.8645 H   0  0  0  0  0  0  0  0  0  0  0  0
  142.3002   77.7380  223.3261 H   0  0  0  0  0  0  0  0  0  0  0  0
  141.1541   78.0815  224.6255 H   0  0  0  0  0  0  0  0  0  0  0  0
  138.2227   71.9562  223.1525 H   0  0  0  0  0  0  0  0  0  0  0  0
  140.1810   69.9754  223.2529 H   0  0  0  0  0  0  0  0  0  0  0  0
  141.3167   72.7175  225.2562 H   0  0  0  0  0  0  0  0  0  0  0  0
  141.6792   72.6084  227.6919 H   0  0  0  0  0  0  0  0  0  0  0  0
  140.7471   70.7594  229.0592 H   0  0  0  0  0  0  0  0  0  0  0  0
  139.0753   69.0967  225.5723 H   0  0  0  0  0  0  0  0  0  0  0  0
  143.6300   71.8540  220.7395 H   0  0  0  0  0  0  0  0  0  0  0  0
  1  2  3  0
  2  3  1  0
  3  4  2  0
  4  5  1  0
  5  6  2  0
  6  7  1  0
  7  8  1  0
  8  9  1  0
  9 10  1  0
 10 11  1  0
 11 12  1  0
 12 13  1  0
 13 14  1  0
 14 15  1  0
  7 16  2  0
 16 17  1  0
 17 18  1  0
 18 19  2  0
 19 20  1  0
 20 21  2  0
 21 22  1  0
 22 23  2  0
 23 24  1  0
 24 25  2  0
 17 26  2  0
 26 27  1  0
 27 28  2  0
 28  3  1  0
 27  6  1  0
 15 10  1  0
 25 20  1  0
  4 29  1  0
  5 30  1  0
  9 31  1  0
  9 32  1  0
 10 33  1  0
 11 34  1  0
 11 35  1  0
 12 36  1  0
 12 37  1  0
 13 38  1  0
 13 39  1  0
 14 40  1  0
 14 41  1  0
 15 42  1  0
 15 43  1  0
 18 44  1  0
 19 45  1  0
 21 46  1  0
 22 47  1  0
 23 48  1  0
 25 49  1  0
 28 50  1  0
M  END
>  <smiles>  (21) 
N#Cc1ccc2c(OCC3CCCCC3)nc(/C=C/c3cccnc3)nc2c1

>  <score_type>  (21) 
oracle

>  <origin>  (21) 
autodockgpu

>  <m_score__min__energy>  (21) 
-9.4900000000000002

>  <m_primary>  (21) 
energy

>  <rmsd>  (21) 
7.3668934443746785

>  <m_score__min__rmsd>  (21) 
7.3668934443746785

>  <meeko>  (21) 
{"free_energy": -9.13, "intermolecular_energy": -11.22, "internal_energy": -1.19, "cluster_size": 35, "cluster_id": 1, "rank_in_cluster": 25}

>  <energy>  (21) 
-9.2

>  <cluster_rmsd>  (21) 
1.41

>  <cluster>  (21) 
1

$$$$

     RDKit          3D

 50 53  0  0  0  0  0  0  0  0999 V2000
  146.3080   73.0300  218.8650 N   0  0  0  0  0  0  0  0  0  0  0  0
  145.3050   73.3700  219.3440 C   0  0  0  0  0  0  0  0  0  0  0  0
  144.0610   73.8040  219.9160 C   0  0  0  0  0  0  0  0  0  0  0  0
  143.6040   75.0850  219.7610 C   0  0  0  0  0  0  0  0  0  0  0  0
  142.4120   75.5160  220.3040 C   0  0  0  0  0  0  0  0  0  0  0  0
  141.6770   74.5950  221.0240 C   0  0  0  0  0  0  0  0  0  0  0  0
  140.4630   74.9840  221.5930 C   0  0  0  0  0  0  0  0  0  0  0  0
  140.0600   76.2960  221.3970 O   0  0  0  0  0  0  0  0  0  0  0  0
  139.6050   77.0130  222.5260 C   0  0  0  0  0  0  0  0  0  0  0  0
  140.3130   78.3720  222.6210 C   0  0  0  0  0  0  0  0  0  0  0  0
  140.6070   78.8850  221.2650 C   0  0  0  0  0  0  0  0  0  0  0  0
  141.6910   79.8930  221.1550 C   0  0  0  0  0  0  0  0  0  0  0  0
  142.5860   80.0530  222.3230 C   0  0  0  0  0  0  0  0  0  0  0  0
  141.9960   79.7370  223.6660 C   0  0  0  0  0  0  0  0  0  0  0  0
  141.4650   78.3010  223.5680 C   0  0  0  0  0  0  0  0  0  0  0  0
  139.7270   74.0910  222.3050 N   0  0  0  0  0  0  0  0  0  0  0  0
  140.1560   72.8190  222.4740 C   0  0  0  0  0  0  0  0  0  0  0  0
  139.3780   71.8490  223.2340 C   0  0  0  0  0  0  0  0  0  0  0  0
  139.9770   70.8680  223.8900 C   0  0  0  0  0  0  0  0  0  0  0  0
  140.2520   70.8990  225.3060 C   0  0  0  0  0  0  0  0  0  0  0  0
  139.7430   69.9970  226.1960 C   0  0  0  0  0  0  0  0  0  0  0  0
  140.0720   70.1200  227.5260 C   0  0  0  0  0  0  0  0  0  0  0  0
  140.8980   71.1240  227.9940 C   0  0  0  0  0  0  0  0  0  0  0  0
  141.3850   71.9960  227.1030 N   0  0  0  0  0  0  0  0  0  0  0  0
  141.0780   71.8900  225.8160 C   0  0  0  0  0  0  0  0  0  0  0  0
  141.3280   72.4480  221.9230 N   0  0  0  0  0  0  0  0  0  0  0  0
  142.1060   73.2810  221.2060 C   0  0  0  0  0  0  0  0  0  0  0  0
  143.3060   72.8920  220.6450 C   0  0  0  0  0  0  0  0  0  0  0  0
  144.2102   75.7970  219.1817 H   0  0  0  0  0  0  0  0  0  0  0  0
  142.0614   76.5499  220.1693 H   0  0  0  0  0  0  0  0  0  0  0  0
  138.5205   77.1751  222.4390 H   0  0  0  0  0  0  0  0  0  0  0  0
  139.8298   76.4306  223.4317 H   0  0  0  0  0  0  0  0  0  0  0  0
  139.6534   79.1310  223.0669 H   0  0  0  0  0  0  0  0  0  0  0  0
  140.8853   78.0261  220.6366 H   0  0  0  0  0  0  0  0  0  0  0  0
  139.6923   79.4079  220.9487 H   0  0  0  0  0  0  0  0  0  0  0  0
  142.3166   79.6138  220.2943 H   0  0  0  0  0  0  0  0  0  0  0  0
  141.1724   80.8584  221.0604 H   0  0  0  0  0  0  0  0  0  0  0  0
  143.4517   79.3909  222.1740 H   0  0  0  0  0  0  0  0  0  0  0  0
  142.8315   81.1247  222.3574 H   0  0  0  0  0  0  0  0  0  0  0  0
  142.7666   79.8069  224.4479 H   0  0  0  0  0  0  0  0  0  0  0  0
  141.1967   80.4446  223.9313 H   0  0  0  0  0  0  0  0  0  0  0  0
  142.2431   77.6280  223.1787 H   0  0  0  0  0  0  0  0  0  0  0  0
  141.1655   77.9061  224.5500 H   0  0  0  0  0  0  0  0  0  0  0  0
  138.2816   71.9331  223.2627 H   0  0  0  0  0  0  0  0  0  0  0  0
  140.2831   69.9768  223.3225 H   0  0  0  0  0  0  0  0  0  0  0  0
  139.0817   69.1866  225.8555 H   0  0  0  0  0  0  0  0  0  0  0  0
  139.6628   69.3929  228.2428 H   0  0  0  0  0  0  0  0  0  0  0  0
  141.1468   71.2039  229.0625 H   0  0  0  0  0  0  0  0  0  0  0  0
  141.5008   72.6267  225.1171 H   0  0  0  0  0  0  0  0  0  0  0  0
  143.6649   71.8603  220.7748 H   0  0  0  0  0  0  0  0  0  0  0  0
  1  2  3  0
  2  3  1  0
  3  4  2  0
  4  5  1  0
  5  6  2  0
  6  7  1  0
  7  8  1  0
  8  9  1  0
  9 10  1  0
 10 11  1  0
 11 12  1  0
 12 13  1  0
 13 14  1  0
 14 15  1  0
  7 16  2  0
 16 17  1  0
 17 18  1  0
 18 19  2  0
 19 20  1  0
 20 21  2  0
 21 22  1  0
 22 23  2  0
 23 24  1  0
 24 25  2  0
 17 26  2  0
 26 27  1  0
 27 28  2  0
 28  3  1  0
 27  6  1  0
 15 10  1  0
 25 20  1  0
  4 29  1  0
  5 30  1  0
  9 31  1  0
  9 32  1  0
 10 33  1  0
 11 34  1  0
 11 35  1  0
 12 36  1  0
 12 37  1  0
 13 38  1  0
 13 39  1  0
 14 40  1  0
 14 41  1  0
 15 42  1  0
 15 43  1  0
 18 44  1  0
 19 45  1  0
 21 46  1  0
 22 47  1  0
 23 48  1  0
 25 49  1  0
 28 50  1  0
M  END
>  <smiles>  (22) 
N#Cc1ccc2c(OCC3CCCCC3)nc(/C=C/c3cccnc3)nc2c1

>  <score_type>  (22) 
oracle

>  <origin>  (22) 
autodockgpu

>  <m_score__min__energy>  (22) 
-9.4900000000000002

>  <m_primary>  (22) 
energy

>  <rmsd>  (22) 
7.3773803923868035

>  <m_score__min__rmsd>  (22) 
7.3773803923868035

>  <meeko>  (22) 
{"free_energy": -9.13, "intermolecular_energy": -11.21, "internal_energy": -1.19, "cluster_size": 35, "cluster_id": 1, "rank_in_cluster": 26}

>  <energy>  (22) 
-9.15

>  <cluster_rmsd>  (22) 
1.37

>  <cluster>  (22) 
1

$$$$

     RDKit          3D

 50 53  0  0  0  0  0  0  0  0999 V2000
  146.3110   73.0120  219.0060 N   0  0  0  0  0  0  0  0  0  0  0  0
  145.3050   73.3800  219.4590 C   0  0  0  0  0  0  0  0  0  0  0  0
  144.0520   73.8270  219.9990 C   0  0  0  0  0  0  0  0  0  0  0  0
  143.6300   75.1220  219.8630 C   0  0  0  0  0  0  0  0  0  0  0  0
  142.4290   75.5670  220.3760 C   0  0  0  0  0  0  0  0  0  0  0  0
  141.6490   74.6450  221.0460 C   0  0  0  0  0  0  0  0  0  0  0  0
  140.4250   75.0480  221.5830 C   0  0  0  0  0  0  0  0  0  0  0  0
  140.0590   76.3730  221.4080 O   0  0  0  0  0  0  0  0  0  0  0  0
  139.5040   77.0470  222.5190 C   0  0  0  0  0  0  0  0  0  0  0  0
  140.4440   78.1630  222.9960 C   0  0  0  0  0  0  0  0  0  0  0  0
  139.6550   79.3350  223.4350 C   0  0  0  0  0  0  0  0  0  0  0  0
  140.3560   80.6430  223.4490 C   0  0  0  0  0  0  0  0  0  0  0  0
  141.6470   80.7250  222.7300 C   0  0  0  0  0  0  0  0  0  0  0  0
  142.4410   79.4550  222.6320 C   0  0  0  0  0  0  0  0  0  0  0  0
  141.5100   78.4230  221.9830 C   0  0  0  0  0  0  0  0  0  0  0  0
  139.6450   74.1530  222.2460 N   0  0  0  0  0  0  0  0  0  0  0  0
  140.0390   72.8680  222.3950 C   0  0  0  0  0  0  0  0  0  0  0  0
  139.2140   71.8970  223.1030 C   0  0  0  0  0  0  0  0  0  0  0  0
  139.7640   70.8550  223.7050 C   0  0  0  0  0  0  0  0  0  0  0  0
  140.0700   70.8100  225.1140 C   0  0  0  0  0  0  0  0  0  0  0  0
  139.7130   69.7770  225.9340 C   0  0  0  0  0  0  0  0  0  0  0  0
  140.0570   69.8370  227.2640 C   0  0  0  0  0  0  0  0  0  0  0  0
  140.7490   70.9060  227.8020 C   0  0  0  0  0  0  0  0  0  0  0  0
  141.0860   71.9070  226.9790 N   0  0  0  0  0  0  0  0  0  0  0  0
  140.7630   71.8630  225.6930 C   0  0  0  0  0  0  0  0  0  0  0  0
  141.2210   72.4850  221.8750 N   0  0  0  0  0  0  0  0  0  0  0  0
  142.0420   73.3170  221.2070 C   0  0  0  0  0  0  0  0  0  0  0  0
  143.2520   72.9140  220.6780 C   0  0  0  0  0  0  0  0  0  0  0  0
  144.2723   75.8345  219.3247 H   0  0  0  0  0  0  0  0  0  0  0  0
  142.1064   76.6118  220.2564 H   0  0  0  0  0  0  0  0  0  0  0  0
  138.5379   77.4864  222.2300 H   0  0  0  0  0  0  0  0  0  0  0  0
  139.3633   76.3264  223.3381 H   0  0  0  0  0  0  0  0  0  0  0  0
  141.0026   77.8534  223.8916 H   0  0  0  0  0  0  0  0  0  0  0  0
  138.7912   79.4270  222.7602 H   0  0  0  0  0  0  0  0  0  0  0  0
  139.3980   79.1335  224.4854 H   0  0  0  0  0  0  0  0  0  0  0  0
  139.6797   81.3860  223.0011 H   0  0  0  0  0  0  0  0  0  0  0  0
  140.6075   80.8192  224.5053 H   0  0  0  0  0  0  0  0  0  0  0  0
  141.4380   81.0683  221.7060 H   0  0  0  0  0  0  0  0  0  0  0  0
  142.2680   81.4114  223.3243 H   0  0  0  0  0  0  0  0  0  0  0  0
  143.3339   79.6097  222.0084 H   0  0  0  0  0  0  0  0  0  0  0  0
  142.7876   79.1194  223.6205 H   0  0  0  0  0  0  0  0  0  0  0  0
  141.0725   78.8266  221.0580 H   0  0  0  0  0  0  0  0  0  0  0  0
  142.0462   77.5033  221.7062 H   0  0  0  0  0  0  0  0  0  0  0  0
  138.1228   72.0319  223.1372 H   0  0  0  0  0  0  0  0  0  0  0  0
  140.0019   69.9710  223.0952 H   0  0  0  0  0  0  0  0  0  0  0  0
  139.1602   68.9127  225.5373 H   0  0  0  0  0  0  0  0  0  0  0  0
  139.7713   69.0044  227.9236 H   0  0  0  0  0  0  0  0  0  0  0  0
  141.0136   70.9333  228.8693 H   0  0  0  0  0  0  0  0  0  0  0  0
  141.0604   72.7060  225.0520 H   0  0  0  0  0  0  0  0  0  0  0  0
  143.5831   71.8714  220.7935 H   0  0  0  0  0  0  0  0  0  0  0  0
  1  2  3  0
  2  3  1  0
  3  4  2  0
  4  5  1  0
  5  6  2  0
  6  7  1  0
  7  8  1  0
  8  9  1  0
  9 10  1  0
 10 11  1  0
 11 12  1  0
 12 13  1  0
 13 14  1  0
 14 15  1  0
  7 16  2  0
 16 17  1  0
 17 18  1  0
 18 19  2  0
 19 20  1  0
 20 21  2  0
 21 22  1  0
 22 23  2  0
 23 24  1  0
 24 25  2  0
 17 26  2  0
 26 27  1  0
 27 28  2  0
 28  3  1  0
 27  6  1  0
 15 10  1  0
 25 20  1  0
  4 29  1  0
  5 30  1  0
  9 31  1  0
  9 32  1  0
 10 33  1  0
 11 34  1  0
 11 35  1  0
 12 36  1  0
 12 37  1  0
 13 38  1  0
 13 39  1  0
 14 40  1  0
 14 41  1  0
 15 42  1  0
 15 43  1  0
 18 44  1  0
 19 45  1  0
 21 46  1  0
 22 47  1  0
 23 48  1  0
 25 49  1  0
 28 50  1  0
M  END
>  <smiles>  (23) 
N#Cc1ccc2c(OCC3CCCCC3)nc(/C=C/c3cccnc3)nc2c1

>  <score_type>  (23) 
oracle

>  <origin>  (23) 
autodockgpu

>  <m_score__min__energy>  (23) 
-9.4900000000000002

>  <m_primary>  (23) 
energy

>  <rmsd>  (23) 
7.339681091957752

>  <m_score__min__rmsd>  (23) 
7.339681091957752

>  <meeko>  (23) 
{"free_energy": -9.05, "intermolecular_energy": -11.13, "internal_energy": -1.09, "cluster_size": 35, "cluster_id": 1, "rank_in_cluster": 30}

>  <energy>  (23) 
-9.15

>  <cluster_rmsd>  (23) 
1.06

>  <cluster>  (23) 
1

$$$$

     RDKit          3D

 50 53  0  0  0  0  0  0  0  0999 V2000
  146.6940   73.4080  219.3480 N   0  0  0  0  0  0  0  0  0  0  0  0
  145.6150   73.3310  219.7740 C   0  0  0  0  0  0  0  0  0  0  0  0
  144.2900   73.2240  220.3190 C   0  0  0  0  0  0  0  0  0  0  0  0
  143.7680   72.0210  220.7100 C   0  0  0  0  0  0  0  0  0  0  0  0
  142.4970   71.9020  221.2350 C   0  0  0  0  0  0  0  0  0  0  0  0
  141.7540   73.0590  221.3550 C   0  0  0  0  0  0  0  0  0  0  0  0
  140.4620   72.9890  221.8810 C   0  0  0  0  0  0  0  0  0  0  0  0
  139.9950   71.7400  222.2580 O   0  0  0  0  0  0  0  0  0  0  0  0
  138.8890   71.6950  223.1350 C   0  0  0  0  0  0  0  0  0  0  0  0
  139.2970   71.0920  224.4860 C   0  0  0  0  0  0  0  0  0  0  0  0
  140.6360   71.5850  224.8770 C   0  0  0  0  0  0  0  0  0  0  0  0
  141.3900   70.7620  225.8550 C   0  0  0  0  0  0  0  0  0  0  0  0
  140.9000   69.3870  226.1010 C   0  0  0  0  0  0  0  0  0  0  0  0
  139.4290   69.1570  225.9100 C   0  0  0  0  0  0  0  0  0  0  0  0
  139.1110   69.6100  224.4800 C   0  0  0  0  0  0  0  0  0  0  0  0
  139.7160   74.1180  222.0070 N   0  0  0  0  0  0  0  0  0  0  0  0
  140.2080   75.3190  221.6270 C   0  0  0  0  0  0  0  0  0  0  0  0
  139.4210   76.5390  221.7550 C   0  0  0  0  0  0  0  0  0  0  0  0
  139.6680   77.4040  222.7240 C   0  0  0  0  0  0  0  0  0  0  0  0
  140.7090   78.4020  222.6650 C   0  0  0  0  0  0  0  0  0  0  0  0
  141.5040   78.7320  223.7260 C   0  0  0  0  0  0  0  0  0  0  0  0
  142.4660   79.6990  223.5580 C   0  0  0  0  0  0  0  0  0  0  0  0
  142.6580   80.3520  222.3540 C   0  0  0  0  0  0  0  0  0  0  0  0
  141.8670   80.0120  221.3290 N   0  0  0  0  0  0  0  0  0  0  0  0
  140.9340   79.0800  221.4750 C   0  0  0  0  0  0  0  0  0  0  0  0
  141.4550   75.3810  221.1200 N   0  0  0  0  0  0  0  0  0  0  0  0
  142.2480   74.3030  220.9690 C   0  0  0  0  0  0  0  0  0  0  0  0
  143.5240   74.3770  220.4480 C   0  0  0  0  0  0  0  0  0  0  0  0
  144.3837   71.1159  220.6020 H   0  0  0  0  0  0  0  0  0  0  0  0
  142.0934   70.9266  221.5446 H   0  0  0  0  0  0  0  0  0  0  0  0
  138.5114   72.7159  223.2937 H   0  0  0  0  0  0  0  0  0  0  0  0
  138.1058   71.0657  222.6871 H   0  0  0  0  0  0  0  0  0  0  0  0
  138.6299   71.4369  225.2897 H   0  0  0  0  0  0  0  0  0  0  0  0
  141.2443   71.6576  223.9634 H   0  0  0  0  0  0  0  0  0  0  0  0
  140.4540   72.5434  225.3853 H   0  0  0  0  0  0  0  0  0  0  0  0
  142.4260   70.6846  225.4935 H   0  0  0  0  0  0  0  0  0  0  0  0
  141.2698   71.2825  226.8165 H   0  0  0  0  0  0  0  0  0  0  0  0
  141.4355   68.7136  225.4156 H   0  0  0  0  0  0  0  0  0  0  0  0
  141.0887   69.1968  227.1679 H   0  0  0  0  0  0  0  0  0  0  0  0
  139.1898   68.0906  226.0349 H   0  0  0  0  0  0  0  0  0  0  0  0
  138.8353   69.7140  226.6498 H   0  0  0  0  0  0  0  0  0  0  0  0
  139.7999   69.1380  223.7640 H   0  0  0  0  0  0  0  0  0  0  0  0
  138.0927   69.3255  224.1764 H   0  0  0  0  0  0  0  0  0  0  0  0
  138.6125   76.7424  221.0374 H   0  0  0  0  0  0  0  0  0  0  0  0
  139.0433   77.3605  223.6284 H   0  0  0  0  0  0  0  0  0  0  0  0
  141.3763   78.2325  224.6977 H   0  0  0  0  0  0  0  0  0  0  0  0
  143.1066   79.9633  224.4123 H   0  0  0  0  0  0  0  0  0  0  0  0
  143.4337   81.1239  222.2426 H   0  0  0  0  0  0  0  0  0  0  0  0
  140.3056   78.8315  220.6070 H   0  0  0  0  0  0  0  0  0  0  0  0
  143.9348   75.3482  220.1349 H   0  0  0  0  0  0  0  0  0  0  0  0
  1  2  3  0
  2  3  1  0
  3  4  2  0
  4  5  1  0
  5  6  2  0
  6  7  1  0
  7  8  1  0
  8  9  1  0
  9 10  1  0
 10 11  1  0
 11 12  1  0
 12 13  1  0
 13 14  1  0
 14 15  1  0
  7 16  2  0
 16 17  1  0
 17 18  1  0
 18 19  2  0
 19 20  1  0
 20 21  2  0
 21 22  1  0
 22 23  2  0
 23 24  1  0
 24 25  2  0
 17 26  2  0
 26 27  1  0
 27 28  2  0
 28  3  1  0
 27  6  1  0
 15 10  1  0
 25 20  1  0
  4 29  1  0
  5 30  1  0
  9 31  1  0
  9 32  1  0
 10 33  1  0
 11 34  1  0
 11 35  1  0
 12 36  1  0
 12 37  1  0
 13 38  1  0
 13 39  1  0
 14 40  1  0
 14 41  1  0
 15 42  1  0
 15 43  1  0
 18 44  1  0
 19 45  1  0
 21 46  1  0
 22 47  1  0
 23 48  1  0
 25 49  1  0
 28 50  1  0
M  END
>  <smiles>  (24) 
N#Cc1ccc2c(OCC3CCCCC3)nc(/C=C/c3cccnc3)nc2c1

>  <score_type>  (24) 
oracle

>  <origin>  (24) 
autodockgpu

>  <m_score__min__energy>  (24) 
-9.4900000000000002

>  <m_primary>  (24) 
energy

>  <rmsd>  (24) 
8.112642890026512

>  <m_score__min__rmsd>  (24) 
8.112642890026512

>  <meeko>  (24) 
{"free_energy": -8.28, "intermolecular_energy": -10.36, "internal_energy": -1.2, "cluster_size": 14, "cluster_id": 2, "rank_in_cluster": 13}

>  <energy>  (24) 
-9.14

>  <cluster_rmsd>  (24) 
1.14

>  <cluster>  (24) 
1

$$$$

     RDKit          3D

 50 53  0  0  0  0  0  0  0  0999 V2000
  146.2890   73.0400  218.9320 N   0  0  0  0  0  0  0  0  0  0  0  0
  145.2820   73.3830  219.4020 C   0  0  0  0  0  0  0  0  0  0  0  0
  144.0270   73.7870  219.9720 C   0  0  0  0  0  0  0  0  0  0  0  0
  143.5590   75.0670  219.8500 C   0  0  0  0  0  0  0  0  0  0  0  0
  142.3560   75.4710  220.3920 C   0  0  0  0  0  0  0  0  0  0  0  0
  141.6230   74.5210  221.0770 C   0  0  0  0  0  0  0  0  0  0  0  0
  140.3990   74.8820  221.6430 C   0  0  0  0  0  0  0  0  0  0  0  0
  139.9850   76.1950  221.4820 O   0  0  0  0  0  0  0  0  0  0  0  0
  140.1340   77.0650  222.5840 C   0  0  0  0  0  0  0  0  0  0  0  0
  141.2120   78.1200  222.2960 C   0  0  0  0  0  0  0  0  0  0  0  0
  141.7860   78.6170  223.5660 C   0  0  0  0  0  0  0  0  0  0  0  0
  142.4480   79.9440  223.5230 C   0  0  0  0  0  0  0  0  0  0  0  0
  142.1980   80.7860  222.3330 C   0  0  0  0  0  0  0  0  0  0  0  0
  141.8970   80.0620  221.0530 C   0  0  0  0  0  0  0  0  0  0  0  0
  140.6970   79.1550  221.3510 C   0  0  0  0  0  0  0  0  0  0  0  0
  139.6650   73.9610  222.3210 N   0  0  0  0  0  0  0  0  0  0  0  0
  140.1050   72.6890  222.4570 C   0  0  0  0  0  0  0  0  0  0  0  0
  139.3290   71.6890  223.1800 C   0  0  0  0  0  0  0  0  0  0  0  0
  139.9320   70.7550  223.8970 C   0  0  0  0  0  0  0  0  0  0  0  0
  140.1950   70.8720  225.3110 C   0  0  0  0  0  0  0  0  0  0  0  0
  140.9180   71.8890  225.8660 C   0  0  0  0  0  0  0  0  0  0  0  0
  141.1070   71.9020  227.2280 C   0  0  0  0  0  0  0  0  0  0  0  0
  140.5940   70.9210  228.0560 C   0  0  0  0  0  0  0  0  0  0  0  0
  139.8900   69.9330  227.4890 N   0  0  0  0  0  0  0  0  0  0  0  0
  139.6970   69.9070  226.1760 C   0  0  0  0  0  0  0  0  0  0  0  0
  141.2860   72.3460  221.9080 N   0  0  0  0  0  0  0  0  0  0  0  0
  142.0630   73.2070  221.2240 C   0  0  0  0  0  0  0  0  0  0  0  0
  143.2730   72.8460  220.6660 C   0  0  0  0  0  0  0  0  0  0  0  0
  144.1646   75.8017  219.2991 H   0  0  0  0  0  0  0  0  0  0  0  0
  141.9961   76.5048  220.2834 H   0  0  0  0  0  0  0  0  0  0  0  0
  139.1763   77.5700  222.7783 H   0  0  0  0  0  0  0  0  0  0  0  0
  140.4383   76.4768  223.4623 H   0  0  0  0  0  0  0  0  0  0  0  0
  142.0652   77.6772  221.7613 H   0  0  0  0  0  0  0  0  0  0  0  0
  140.9694   78.6754  224.3007 H   0  0  0  0  0  0  0  0  0  0  0  0
  142.5835   77.9039  223.8218 H   0  0  0  0  0  0  0  0  0  0  0  0
  142.1129   80.5097  224.4049 H   0  0  0  0  0  0  0  0  0  0  0  0
  143.5251   79.7226  223.4924 H   0  0  0  0  0  0  0  0  0  0  0  0
  141.3407   81.4374  222.5583 H   0  0  0  0  0  0  0  0  0  0  0  0
  143.1418   81.3208  222.1506 H   0  0  0  0  0  0  0  0  0  0  0  0
  141.6453   80.7797  220.2583 H   0  0  0  0  0  0  0  0  0  0  0  0
  142.7641   79.4810  220.7059 H   0  0  0  0  0  0  0  0  0  0  0  0
  139.8841   79.7317  221.8165 H   0  0  0  0  0  0  0  0  0  0  0  0
  140.2843   78.7061  220.4355 H   0  0  0  0  0  0  0  0  0  0  0  0
  138.2304   71.7113  223.1288 H   0  0  0  0  0  0  0  0  0  0  0  0
  140.2517   69.8352  223.3853 H   0  0  0  0  0  0  0  0  0  0  0  0
  141.3417   72.6838  225.2346 H   0  0  0  0  0  0  0  0  0  0  0  0
  141.6874   72.7227  227.6748 H   0  0  0  0  0  0  0  0  0  0  0  0
  140.7584   70.9510  229.1432 H   0  0  0  0  0  0  0  0  0  0  0  0
  139.1122   69.0778  225.7512 H   0  0  0  0  0  0  0  0  0  0  0  0
  143.6409   71.8146  220.7701 H   0  0  0  0  0  0  0  0  0  0  0  0
  1  2  3  0
  2  3  1  0
  3  4  2  0
  4  5  1  0
  5  6  2  0
  6  7  1  0
  7  8  1  0
  8  9  1  0
  9 10  1  0
 10 11  1  0
 11 12  1  0
 12 13  1  0
 13 14  1  0
 14 15  1  0
  7 16  2  0
 16 17  1  0
 17 18  1  0
 18 19  2  0
 19 20  1  0
 20 21  2  0
 21 22  1  0
 22 23  2  0
 23 24  1  0
 24 25  2  0
 17 26  2  0
 26 27  1  0
 27 28  2  0
 28  3  1  0
 27  6  1  0
 15 10  1  0
 25 20  1  0
  4 29  1  0
  5 30  1  0
  9 31  1  0
  9 32  1  0
 10 33  1  0
 11 34  1  0
 11 35  1  0
 12 36  1  0
 12 37  1  0
 13 38  1  0
 13 39  1  0
 14 40  1  0
 14 41  1  0
 15 42  1  0
 15 43  1  0
 18 44  1  0
 19 45  1  0
 21 46  1  0
 22 47  1  0
 23 48  1  0
 25 49  1  0
 28 50  1  0
M  END
>  <smiles>  (25) 
N#Cc1ccc2c(OCC3CCCCC3)nc(/C=C/c3cccnc3)nc2c1

>  <score_type>  (25) 
oracle

>  <origin>  (25) 
autodockgpu

>  <m_score__min__energy>  (25) 
-9.4900000000000002

>  <m_primary>  (25) 
energy

>  <rmsd>  (25) 
7.415074500131707

>  <m_score__min__rmsd>  (25) 
7.415074500131707

>  <meeko>  (25) 
{"free_energy": -9.34, "intermolecular_energy": -11.43, "internal_energy": -1.12, "cluster_size": 35, "cluster_id": 1, "rank_in_cluster": 17}

>  <energy>  (25) 
-9.13

>  <cluster_rmsd>  (25) 
1.0

>  <cluster>  (25) 
1

$$$$

     RDKit          3D

 50 53  0  0  0  0  0  0  0  0999 V2000
  146.2750   73.0680  218.3820 N   0  0  0  0  0  0  0  0  0  0  0  0
  145.3140   73.0680  219.0380 C   0  0  0  0  0  0  0  0  0  0  0  0
  144.1170   73.0540  219.8310 C   0  0  0  0  0  0  0  0  0  0  0  0
  143.6770   71.9150  220.4510 C   0  0  0  0  0  0  0  0  0  0  0  0
  142.5300   71.8860  221.2170 C   0  0  0  0  0  0  0  0  0  0  0  0
  141.8240   73.0670  221.3410 C   0  0  0  0  0  0  0  0  0  0  0  0
  140.6570   73.0860  222.1060 C   0  0  0  0  0  0  0  0  0  0  0  0
  140.2680   71.8990  222.7050 O   0  0  0  0  0  0  0  0  0  0  0  0
  140.2050   71.8720  224.1160 C   0  0  0  0  0  0  0  0  0  0  0  0
  140.3350   70.4320  224.6330 C   0  0  0  0  0  0  0  0  0  0  0  0
  139.0610   69.7060  224.4330 C   0  0  0  0  0  0  0  0  0  0  0  0
  138.8310   68.5160  225.2900 C   0  0  0  0  0  0  0  0  0  0  0  0
  139.7130   68.3500  226.4670 C   0  0  0  0  0  0  0  0  0  0  0  0
  141.0910   68.9350  226.3580 C   0  0  0  0  0  0  0  0  0  0  0  0
  140.8970   70.4170  226.0160 C   0  0  0  0  0  0  0  0  0  0  0  0
  139.9490   74.2390  222.2390 N   0  0  0  0  0  0  0  0  0  0  0  0
  140.3620   75.3780  221.6370 C   0  0  0  0  0  0  0  0  0  0  0  0
  139.6160   76.6230  221.7700 C   0  0  0  0  0  0  0  0  0  0  0  0
  140.1100   77.7600  221.3100 C   0  0  0  0  0  0  0  0  0  0  0  0
  140.9840   78.6210  222.0680 C   0  0  0  0  0  0  0  0  0  0  0  0
  141.7560   79.5990  221.5090 C   0  0  0  0  0  0  0  0  0  0  0  0
  142.5540   80.3640  222.3270 C   0  0  0  0  0  0  0  0  0  0  0  0
  142.6050   80.1770  223.6960 C   0  0  0  0  0  0  0  0  0  0  0  0
  141.8400   79.2130  224.2210 N   0  0  0  0  0  0  0  0  0  0  0  0
  141.0640   78.4670  223.4450 C   0  0  0  0  0  0  0  0  0  0  0  0
  141.4900   75.3530  220.9000 N   0  0  0  0  0  0  0  0  0  0  0  0
  142.2380   74.2470  220.7270 C   0  0  0  0  0  0  0  0  0  0  0  0
  143.3920   74.2320  219.9690 C   0  0  0  0  0  0  0  0  0  0  0  0
  144.2595   70.9893  220.3340 H   0  0  0  0  0  0  0  0  0  0  0  0
  142.1919   70.9617  221.7082 H   0  0  0  0  0  0  0  0  0  0  0  0
  141.0251   72.4794  224.5266 H   0  0  0  0  0  0  0  0  0  0  0  0
  139.2345   72.2786  224.4365 H   0  0  0  0  0  0  0  0  0  0  0  0
  141.0719   69.8659  224.0444 H   0  0  0  0  0  0  0  0  0  0  0  0
  138.2406   70.4147  224.6193 H   0  0  0  0  0  0  0  0  0  0  0  0
  139.1076   69.3176  223.4049 H   0  0  0  0  0  0  0  0  0  0  0  0
  137.7953   68.5676  225.6571 H   0  0  0  0  0  0  0  0  0  0  0  0
  139.0542   67.6539  224.6443 H   0  0  0  0  0  0  0  0  0  0  0  0
  139.2159   68.8231  227.3267 H   0  0  0  0  0  0  0  0  0  0  0  0
  139.8640   67.2650  226.5674 H   0  0  0  0  0  0  0  0  0  0  0  0
  141.6269   68.8304  227.3129 H   0  0  0  0  0  0  0  0  0  0  0  0
  141.6871   68.4198  225.5904 H   0  0  0  0  0  0  0  0  0  0  0  0
  140.1961   70.8867  226.7218 H   0  0  0  0  0  0  0  0  0  0  0  0
  141.8399   70.9798  226.0816 H   0  0  0  0  0  0  0  0  0  0  0  0
  138.6306   76.6167  222.2587 H   0  0  0  0  0  0  0  0  0  0  0  0
  139.8384   78.0672  220.2893 H   0  0  0  0  0  0  0  0  0  0  0  0
  141.7398   79.7719  220.4228 H   0  0  0  0  0  0  0  0  0  0  0  0
  143.1739   81.1529  221.8760 H   0  0  0  0  0  0  0  0  0  0  0  0
  143.2522   80.7993  224.3316 H   0  0  0  0  0  0  0  0  0  0  0  0
  140.4517   77.6852  223.9182 H   0  0  0  0  0  0  0  0  0  0  0  0
  143.7375   75.1519  219.4745 H   0  0  0  0  0  0  0  0  0  0  0  0
  1  2  3  0
  2  3  1  0
  3  4  2  0
  4  5  1  0
  5  6  2  0
  6  7  1  0
  7  8  1  0
  8  9  1  0
  9 10  1  0
 10 11  1  0
 11 12  1  0
 12 13  1  0
 13 14  1  0
 14 15  1  0
  7 16  2  0
 16 17  1  0
 17 18  1  0
 18 19  2  0
 19 20  1  0
 20 21  2  0
 21 22  1  0
 22 23  2  0
 23 24  1  0
 24 25  2  0
 17 26  2  0
 26 27  1  0
 27 28  2  0
 28  3  1  0
 27  6  1  0
 15 10  1  0
 25 20  1  0
  4 29  1  0
  5 30  1  0
  9 31  1  0
  9 32  1  0
 10 33  1  0
 11 34  1  0
 11 35  1  0
 12 36  1  0
 12 37  1  0
 13 38  1  0
 13 39  1  0
 14 40  1  0
 14 41  1  0
 15 42  1  0
 15 43  1  0
 18 44  1  0
 19 45  1  0
 21 46  1  0
 22 47  1  0
 23 48  1  0
 25 49  1  0
 28 50  1  0
M  END
>  <smiles>  (26) 
N#Cc1ccc2c(OCC3CCCCC3)nc(/C=C/c3cccnc3)nc2c1

>  <score_type>  (26) 
oracle

>  <origin>  (26) 
autodockgpu

>  <m_score__min__energy>  (26) 
-9.4900000000000002

>  <m_primary>  (26) 
energy

>  <rmsd>  (26) 
8.205508049791256

>  <m_score__min__rmsd>  (26) 
8.205508049791256

>  <meeko>  (26) 
{"free_energy": -8.56, "intermolecular_energy": -10.65, "internal_energy": -0.93, "cluster_size": 14, "cluster_id": 2, "rank_in_cluster": 5}

>  <energy>  (26) 
-9.13

>  <cluster_rmsd>  (26) 
1.24

>  <cluster>  (26) 
1

$$$$

     RDKit          3D

 50 53  0  0  0  0  0  0  0  0999 V2000
  146.3190   73.0770  218.9300 N   0  0  0  0  0  0  0  0  0  0  0  0
  145.2770   73.0260  219.4440 C   0  0  0  0  0  0  0  0  0  0  0  0
  144.0010   72.9590  220.1000 C   0  0  0  0  0  0  0  0  0  0  0  0
  143.4230   71.7630  220.4280 C   0  0  0  0  0  0  0  0  0  0  0  0
  142.1980   71.6810  221.0580 C   0  0  0  0  0  0  0  0  0  0  0  0
  141.5600   72.8710  221.3530 C   0  0  0  0  0  0  0  0  0  0  0  0
  140.3180   72.8390  221.9900 C   0  0  0  0  0  0  0  0  0  0  0  0
  139.7900   71.5950  222.2940 O   0  0  0  0  0  0  0  0  0  0  0  0
  138.7520   71.5440  223.2510 C   0  0  0  0  0  0  0  0  0  0  0  0
  139.2640   70.9500  224.5700 C   0  0  0  0  0  0  0  0  0  0  0  0
  140.5820   71.5320  224.9100 C   0  0  0  0  0  0  0  0  0  0  0  0
  141.4370   70.7500  225.8370 C   0  0  0  0  0  0  0  0  0  0  0  0
  141.0580   69.3400  226.0770 C   0  0  0  0  0  0  0  0  0  0  0  0
  139.6010   69.0070  225.9480 C   0  0  0  0  0  0  0  0  0  0  0  0
  139.1850   69.4590  224.5430 C   0  0  0  0  0  0  0  0  0  0  0  0
  139.6760   74.0000  222.2870 N   0  0  0  0  0  0  0  0  0  0  0  0
  140.2260   75.1950  221.9730 C   0  0  0  0  0  0  0  0  0  0  0  0
  139.5510   76.4490  222.2850 C   0  0  0  0  0  0  0  0  0  0  0  0
  139.8840   77.5680  221.6650 C   0  0  0  0  0  0  0  0  0  0  0  0
  140.8480   78.5130  222.1760 C   0  0  0  0  0  0  0  0  0  0  0  0
  141.2760   78.5330  223.4730 C   0  0  0  0  0  0  0  0  0  0  0  0
  142.1990   79.4790  223.8520 C   0  0  0  0  0  0  0  0  0  0  0  0
  142.7080   80.4130  222.9680 C   0  0  0  0  0  0  0  0  0  0  0  0
  142.2730   80.3740  221.7030 N   0  0  0  0  0  0  0  0  0  0  0  0
  141.3830   79.4660  221.3210 C   0  0  0  0  0  0  0  0  0  0  0  0
  141.4240   75.2200  221.3580 N   0  0  0  0  0  0  0  0  0  0  0  0
  142.1140   74.1090  221.0350 C   0  0  0  0  0  0  0  0  0  0  0  0
  143.3420   74.1450  220.4050 C   0  0  0  0  0  0  0  0  0  0  0  0
  143.9545   70.8323  220.1803 H   0  0  0  0  0  0  0  0  0  0  0  0
  141.7486   70.7103  221.3144 H   0  0  0  0  0  0  0  0  0  0  0  0
  138.3782   72.5622  223.4338 H   0  0  0  0  0  0  0  0  0  0  0  0
  137.9435   70.9062  222.8644 H   0  0  0  0  0  0  0  0  0  0  0  0
  138.6115   71.2326  225.4093 H   0  0  0  0  0  0  0  0  0  0  0  0
  141.1407   71.6627  223.9715 H   0  0  0  0  0  0  0  0  0  0  0  0
  140.3560   72.4666  225.4443 H   0  0  0  0  0  0  0  0  0  0  0  0
  142.4582   70.7535  225.4283 H   0  0  0  0  0  0  0  0  0  0  0  0
  141.3246   71.2447  226.8130 H   0  0  0  0  0  0  0  0  0  0  0  0
  141.6080   68.7186  225.3549 H   0  0  0  0  0  0  0  0  0  0  0  0
  141.3085   69.1466  227.1305 H   0  0  0  0  0  0  0  0  0  0  0  0
  139.4451   67.9241  226.0626 H   0  0  0  0  0  0  0  0  0  0  0  0
  139.0039   69.5072  226.7246 H   0  0  0  0  0  0  0  0  0  0  0  0
  139.8720   69.0502  223.7874 H   0  0  0  0  0  0  0  0  0  0  0  0
  138.1769   69.1061  224.2801 H   0  0  0  0  0  0  0  0  0  0  0  0
  138.7557   76.4642  223.0448 H   0  0  0  0  0  0  0  0  0  0  0  0
  139.3982   77.7920  220.7038 H   0  0  0  0  0  0  0  0  0  0  0  0
  140.8891   77.8052  224.2014 H   0  0  0  0  0  0  0  0  0  0  0  0
  142.5451   79.4935  224.8960 H   0  0  0  0  0  0  0  0  0  0  0  0
  143.4449   81.1620  223.2935 H   0  0  0  0  0  0  0  0  0  0  0  0
  141.0524   79.4693  220.2719 H   0  0  0  0  0  0  0  0  0  0  0  0
  143.7988   75.1112  220.1445 H   0  0  0  0  0  0  0  0  0  0  0  0
  1  2  3  0
  2  3  1  0
  3  4  2  0
  4  5  1  0
  5  6  2  0
  6  7  1  0
  7  8  1  0
  8  9  1  0
  9 10  1  0
 10 11  1  0
 11 12  1  0
 12 13  1  0
 13 14  1  0
 14 15  1  0
  7 16  2  0
 16 17  1  0
 17 18  1  0
 18 19  2  0
 19 20  1  0
 20 21  2  0
 21 22  1  0
 22 23  2  0
 23 24  1  0
 24 25  2  0
 17 26  2  0
 26 27  1  0
 27 28  2  0
 28  3  1  0
 27  6  1  0
 15 10  1  0
 25 20  1  0
  4 29  1  0
  5 30  1  0
  9 31  1  0
  9 32  1  0
 10 33  1  0
 11 34  1  0
 11 35  1  0
 12 36  1  0
 12 37  1  0
 13 38  1  0
 13 39  1  0
 14 40  1  0
 14 41  1  0
 15 42  1  0
 15 43  1  0
 18 44  1  0
 19 45  1  0
 21 46  1  0
 22 47  1  0
 23 48  1  0
 25 49  1  0
 28 50  1  0
M  END
>  <smiles>  (27) 
N#Cc1ccc2c(OCC3CCCCC3)nc(/C=C/c3cccnc3)nc2c1

>  <score_type>  (27) 
oracle

>  <origin>  (27) 
autodockgpu

>  <m_score__min__energy>  (27) 
-9.4900000000000002

>  <m_primary>  (27) 
energy

>  <rmsd>  (27) 
8.26671235737512

>  <m_score__min__rmsd>  (27) 
8.26671235737512

>  <meeko>  (27) 
{"free_energy": -8.49, "intermolecular_energy": -10.58, "internal_energy": -1.17, "cluster_size": 14, "cluster_id": 2, "rank_in_cluster": 9}

>  <energy>  (27) 
-9.12

>  <cluster_rmsd>  (27) 
1.0

>  <cluster>  (27) 
1

$$$$

     RDKit          3D

 50 53  0  0  0  0  0  0  0  0999 V2000
  146.2840   73.0460  218.9000 N   0  0  0  0  0  0  0  0  0  0  0  0
  145.2660   73.3610  219.3640 C   0  0  0  0  0  0  0  0  0  0  0  0
  144.0180   73.7710  219.9460 C   0  0  0  0  0  0  0  0  0  0  0  0
  143.5560   75.0540  219.8280 C   0  0  0  0  0  0  0  0  0  0  0  0
  142.3590   75.4630  220.3810 C   0  0  0  0  0  0  0  0  0  0  0  0
  141.6270   74.5160  221.0700 C   0  0  0  0  0  0  0  0  0  0  0  0
  140.4100   74.8830  221.6470 C   0  0  0  0  0  0  0  0  0  0  0  0
  140.0010   76.1980  221.4900 O   0  0  0  0  0  0  0  0  0  0  0  0
  140.1460   77.0610  222.5980 C   0  0  0  0  0  0  0  0  0  0  0  0
  141.1940   78.1440  222.3040 C   0  0  0  0  0  0  0  0  0  0  0  0
  141.7760   78.6420  223.5700 C   0  0  0  0  0  0  0  0  0  0  0  0
  142.4060   79.9850  223.5300 C   0  0  0  0  0  0  0  0  0  0  0  0
  142.1180   80.8320  222.3510 C   0  0  0  0  0  0  0  0  0  0  0  0
  141.8160   80.1130  221.0690 C   0  0  0  0  0  0  0  0  0  0  0  0
  140.6420   79.1750  221.3770 C   0  0  0  0  0  0  0  0  0  0  0  0
  139.6760   73.9640  222.3290 N   0  0  0  0  0  0  0  0  0  0  0  0
  140.1100   72.6900  222.4600 C   0  0  0  0  0  0  0  0  0  0  0  0
  139.3360   71.6930  223.1890 C   0  0  0  0  0  0  0  0  0  0  0  0
  139.9390   70.7530  223.8960 C   0  0  0  0  0  0  0  0  0  0  0  0
  140.2010   70.8550  225.3110 C   0  0  0  0  0  0  0  0  0  0  0  0
  140.9040   71.8790  225.8800 C   0  0  0  0  0  0  0  0  0  0  0  0
  141.0950   71.8760  227.2410 C   0  0  0  0  0  0  0  0  0  0  0  0
  140.6030   70.8740  228.0560 C   0  0  0  0  0  0  0  0  0  0  0  0
  139.9180   69.8800  227.4760 N   0  0  0  0  0  0  0  0  0  0  0  0
  139.7240   69.8690  226.1630 C   0  0  0  0  0  0  0  0  0  0  0  0
  141.2860   72.3420  221.9020 N   0  0  0  0  0  0  0  0  0  0  0  0
  142.0620   73.2000  221.2130 C   0  0  0  0  0  0  0  0  0  0  0  0
  143.2650   72.8330  220.6440 C   0  0  0  0  0  0  0  0  0  0  0  0
  144.1605   75.7859  219.2723 H   0  0  0  0  0  0  0  0  0  0  0  0
  142.0035   76.4988  220.2773 H   0  0  0  0  0  0  0  0  0  0  0  0
  139.1796   77.5412  222.8115 H   0  0  0  0  0  0  0  0  0  0  0  0
  140.4775   76.4722  223.4660 H   0  0  0  0  0  0  0  0  0  0  0  0
  142.0487   77.7263  221.7517 H   0  0  0  0  0  0  0  0  0  0  0  0
  140.9699   78.6739  224.3178 H   0  0  0  0  0  0  0  0  0  0  0  0
  142.5939   77.9455  223.8063 H   0  0  0  0  0  0  0  0  0  0  0  0
  142.0709   80.5345  224.4221 H   0  0  0  0  0  0  0  0  0  0  0  0
  143.4875   79.7897  223.4816 H   0  0  0  0  0  0  0  0  0  0  0  0
  141.2486   81.4602  222.5949 H   0  0  0  0  0  0  0  0  0  0  0  0
  143.0458   81.3912  222.1601 H   0  0  0  0  0  0  0  0  0  0  0  0
  141.5356   80.8315  220.2847 H   0  0  0  0  0  0  0  0  0  0  0  0
  142.6914   79.5563  220.7033 H   0  0  0  0  0  0  0  0  0  0  0  0
  139.8232   79.7284  221.8599 H   0  0  0  0  0  0  0  0  0  0  0  0
  140.2265   78.7246  220.4635 H   0  0  0  0  0  0  0  0  0  0  0  0
  138.2371   71.7232  223.1503 H   0  0  0  0  0  0  0  0  0  0  0  0
  140.2600   69.8391  223.3747 H   0  0  0  0  0  0  0  0  0  0  0  0
  141.3100   72.6916  225.2597 H   0  0  0  0  0  0  0  0  0  0  0  0
  141.6602   72.7014  227.6985 H   0  0  0  0  0  0  0  0  0  0  0  0
  140.7683   70.8923  229.1434 H   0  0  0  0  0  0  0  0  0  0  0  0
  139.1552   69.0344  225.7273 H   0  0  0  0  0  0  0  0  0  0  0  0
  143.6278   71.7992  220.7426 H   0  0  0  0  0  0  0  0  0  0  0  0
  1  2  3  0
  2  3  1  0
  3  4  2  0
  4  5  1  0
  5  6  2  0
  6  7  1  0
  7  8  1  0
  8  9  1  0
  9 10  1  0
 10 11  1  0
 11 12  1  0
 12 13  1  0
 13 14  1  0
 14 15  1  0
  7 16  2  0
 16 17  1  0
 17 18  1  0
 18 19  2  0
 19 20  1  0
 20 21  2  0
 21 22  1  0
 22 23  2  0
 23 24  1  0
 24 25  2  0
 17 26  2  0
 26 27  1  0
 27 28  2  0
 28  3  1  0
 27  6  1  0
 15 10  1  0
 25 20  1  0
  4 29  1  0
  5 30  1  0
  9 31  1  0
  9 32  1  0
 10 33  1  0
 11 34  1  0
 11 35  1  0
 12 36  1  0
 12 37  1  0
 13 38  1  0
 13 39  1  0
 14 40  1  0
 14 41  1  0
 15 42  1  0
 15 43  1  0
 18 44  1  0
 19 45  1  0
 21 46  1  0
 22 47  1  0
 23 48  1  0
 25 49  1  0
 28 50  1  0
M  END
>  <smiles>  (28) 
N#Cc1ccc2c(OCC3CCCCC3)nc(/C=C/c3cccnc3)nc2c1

>  <score_type>  (28) 
oracle

>  <origin>  (28) 
autodockgpu

>  <m_score__min__energy>  (28) 
-9.4900000000000002

>  <m_primary>  (28) 
energy

>  <rmsd>  (28) 
7.423983246636111

>  <m_score__min__rmsd>  (28) 
7.423983246636111

>  <meeko>  (28) 
{"free_energy": -9.36, "intermolecular_energy": -11.45, "internal_energy": -1.11, "cluster_size": 35, "cluster_id": 1, "rank_in_cluster": 14}

>  <energy>  (28) 
-9.12

>  <cluster_rmsd>  (28) 
1.06

>  <cluster>  (28) 
1

$$$$

     RDKit          3D

 50 53  0  0  0  0  0  0  0  0999 V2000
  146.3250   73.0640  218.9390 N   0  0  0  0  0  0  0  0  0  0  0  0
  145.3110   73.3900  219.4050 C   0  0  0  0  0  0  0  0  0  0  0  0
  144.0500   73.7980  219.9600 C   0  0  0  0  0  0  0  0  0  0  0  0
  143.5700   75.0700  219.7970 C   0  0  0  0  0  0  0  0  0  0  0  0
  142.3610   75.4770  220.3230 C   0  0  0  0  0  0  0  0  0  0  0  0
  141.6360   74.5420  221.0350 C   0  0  0  0  0  0  0  0  0  0  0  0
  140.4060   74.9070  221.5860 C   0  0  0  0  0  0  0  0  0  0  0  0
  139.9800   76.2100  221.3840 O   0  0  0  0  0  0  0  0  0  0  0  0
  140.0510   77.0960  222.4810 C   0  0  0  0  0  0  0  0  0  0  0  0
  141.1300   78.1620  222.2440 C   0  0  0  0  0  0  0  0  0  0  0  0
  141.6750   78.6270  223.5390 C   0  0  0  0  0  0  0  0  0  0  0  0
  142.3330   79.9570  223.5450 C   0  0  0  0  0  0  0  0  0  0  0  0
  142.1060   80.8290  222.3720 C   0  0  0  0  0  0  0  0  0  0  0  0
  141.8360   80.1380  221.0670 C   0  0  0  0  0  0  0  0  0  0  0  0
  140.6330   79.2190  221.3150 C   0  0  0  0  0  0  0  0  0  0  0  0
  139.6790   73.9990  222.2890 N   0  0  0  0  0  0  0  0  0  0  0  0
  140.1310   72.7360  222.4650 C   0  0  0  0  0  0  0  0  0  0  0  0
  139.3630   71.7510  223.2160 C   0  0  0  0  0  0  0  0  0  0  0  0
  139.9730   70.7900  223.8880 C   0  0  0  0  0  0  0  0  0  0  0  0
  140.2350   70.8420  225.3070 C   0  0  0  0  0  0  0  0  0  0  0  0
  140.8640   71.8870  225.9220 C   0  0  0  0  0  0  0  0  0  0  0  0
  141.0630   71.8330  227.2820 C   0  0  0  0  0  0  0  0  0  0  0  0
  140.6520   70.7580  228.0480 C   0  0  0  0  0  0  0  0  0  0  0  0
  140.0390   69.7460  227.4220 N   0  0  0  0  0  0  0  0  0  0  0  0
  139.8380   69.7830  226.1110 C   0  0  0  0  0  0  0  0  0  0  0  0
  141.3180   72.3890  221.9300 N   0  0  0  0  0  0  0  0  0  0  0  0
  142.0880   73.2370  221.2230 C   0  0  0  0  0  0  0  0  0  0  0  0
  143.3040   72.8720  220.6800 C   0  0  0  0  0  0  0  0  0  0  0  0
  144.1701   75.7938  219.2259 H   0  0  0  0  0  0  0  0  0  0  0  0
  141.9904   76.5029  220.1811 H   0  0  0  0  0  0  0  0  0  0  0  0
  139.0768   77.5900  222.6106 H   0  0  0  0  0  0  0  0  0  0  0  0
  140.3097   76.5234  223.3839 H   0  0  0  0  0  0  0  0  0  0  0  0
  141.9961   77.7364  221.7161 H   0  0  0  0  0  0  0  0  0  0  0  0
  140.8427   78.6634  224.2573 H   0  0  0  0  0  0  0  0  0  0  0  0
  142.4694   77.9098  223.7931 H   0  0  0  0  0  0  0  0  0  0  0  0
  141.9766   80.4985  224.4337 H   0  0  0  0  0  0  0  0  0  0  0  0
  143.4113   79.7398  223.5323 H   0  0  0  0  0  0  0  0  0  0  0  0
  141.2415   81.4715  222.5953 H   0  0  0  0  0  0  0  0  0  0  0  0
  143.0516   81.3712  222.2245 H   0  0  0  0  0  0  0  0  0  0  0  0
  141.5988   80.8755  220.2861 H   0  0  0  0  0  0  0  0  0  0  0  0
  142.7128   79.5694  220.7236 H   0  0  0  0  0  0  0  0  0  0  0  0
  139.8077   79.7808  221.7767 H   0  0  0  0  0  0  0  0  0  0  0  0
  140.2430   78.7922  220.3792 H   0  0  0  0  0  0  0  0  0  0  0  0
  138.2645   71.8079  223.2237 H   0  0  0  0  0  0  0  0  0  0  0  0
  140.3003   69.8981  223.3336 H   0  0  0  0  0  0  0  0  0  0  0  0
  141.2052   72.7560  225.3402 H   0  0  0  0  0  0  0  0  0  0  0  0
  141.5673   72.6755  227.7779 H   0  0  0  0  0  0  0  0  0  0  0  0
  140.8228   70.7351  229.1344 H   0  0  0  0  0  0  0  0  0  0  0  0
  139.3304   68.9300  225.6369 H   0  0  0  0  0  0  0  0  0  0  0  0
  143.6824   71.8483  220.8172 H   0  0  0  0  0  0  0  0  0  0  0  0
  1  2  3  0
  2  3  1  0
  3  4  2  0
  4  5  1  0
  5  6  2  0
  6  7  1  0
  7  8  1  0
  8  9  1  0
  9 10  1  0
 10 11  1  0
 11 12  1  0
 12 13  1  0
 13 14  1  0
 14 15  1  0
  7 16  2  0
 16 17  1  0
 17 18  1  0
 18 19  2  0
 19 20  1  0
 20 21  2  0
 21 22  1  0
 22 23  2  0
 23 24  1  0
 24 25  2  0
 17 26  2  0
 26 27  1  0
 27 28  2  0
 28  3  1  0
 27  6  1  0
 15 10  1  0
 25 20  1  0
  4 29  1  0
  5 30  1  0
  9 31  1  0
  9 32  1  0
 10 33  1  0
 11 34  1  0
 11 35  1  0
 12 36  1  0
 12 37  1  0
 13 38  1  0
 13 39  1  0
 14 40  1  0
 14 41  1  0
 15 42  1  0
 15 43  1  0
 18 44  1  0
 19 45  1  0
 21 46  1  0
 22 47  1  0
 23 48  1  0
 25 49  1  0
 28 50  1  0
M  END
>  <smiles>  (29) 
N#Cc1ccc2c(OCC3CCCCC3)nc(/C=C/c3cccnc3)nc2c1

>  <score_type>  (29) 
oracle

>  <origin>  (29) 
autodockgpu

>  <m_score__min__energy>  (29) 
-9.4900000000000002

>  <m_primary>  (29) 
energy

>  <rmsd>  (29) 
7.400053924497919

>  <m_score__min__rmsd>  (29) 
7.400053924497919

>  <meeko>  (29) 
{"free_energy": -9.36, "intermolecular_energy": -11.45, "internal_energy": -1.1, "cluster_size": 35, "cluster_id": 1, "rank_in_cluster": 15}

>  <energy>  (29) 
-9.1

>  <cluster_rmsd>  (29) 
1.02

>  <cluster>  (29) 
1

$$$$

     RDKit          3D

 50 53  0  0  0  0  0  0  0  0999 V2000
  146.3140   73.3480  218.4310 N   0  0  0  0  0  0  0  0  0  0  0  0
  145.3410   73.2360  219.0580 C   0  0  0  0  0  0  0  0  0  0  0  0
  144.1380   73.1200  219.8340 C   0  0  0  0  0  0  0  0  0  0  0  0
  143.7090   71.9160  220.3220 C   0  0  0  0  0  0  0  0  0  0  0  0
  142.5560   71.7890  221.0690 C   0  0  0  0  0  0  0  0  0  0  0  0
  141.8330   72.9400  221.3150 C   0  0  0  0  0  0  0  0  0  0  0  0
  140.6590   72.8620  222.0660 C   0  0  0  0  0  0  0  0  0  0  0  0
  140.2820   71.6120  222.5290 O   0  0  0  0  0  0  0  0  0  0  0  0
  139.0720   71.5230  223.2520 C   0  0  0  0  0  0  0  0  0  0  0  0
  139.3180   70.9260  224.6440 C   0  0  0  0  0  0  0  0  0  0  0  0
  140.5440   71.5080  225.2350 C   0  0  0  0  0  0  0  0  0  0  0  0
  141.2030   70.7250  226.3090 C   0  0  0  0  0  0  0  0  0  0  0  0
  140.7870   69.3140  226.4680 C   0  0  0  0  0  0  0  0  0  0  0  0
  139.3820   68.9800  226.0580 C   0  0  0  0  0  0  0  0  0  0  0  0
  139.2470   69.4350  224.6000 C   0  0  0  0  0  0  0  0  0  0  0  0
  139.9360   73.9850  222.3180 N   0  0  0  0  0  0  0  0  0  0  0  0
  140.3380   75.1880  221.8470 C   0  0  0  0  0  0  0  0  0  0  0  0
  139.5740   76.4010  222.1070 C   0  0  0  0  0  0  0  0  0  0  0  0
  139.9160   77.5480  221.5460 C   0  0  0  0  0  0  0  0  0  0  0  0
  140.8690   78.4700  222.1170 C   0  0  0  0  0  0  0  0  0  0  0  0
  141.2290   78.4680  223.4350 C   0  0  0  0  0  0  0  0  0  0  0  0
  142.1480   79.3930  223.8720 C   0  0  0  0  0  0  0  0  0  0  0  0
  142.7210   80.3240  223.0260 C   0  0  0  0  0  0  0  0  0  0  0  0
  142.3520   80.3070  221.7390 N   0  0  0  0  0  0  0  0  0  0  0  0
  141.4670   79.4200  221.3010 C   0  0  0  0  0  0  0  0  0  0  0  0
  141.4720   75.2570  221.1220 N   0  0  0  0  0  0  0  0  0  0  0  0
  142.2360   74.1860  220.8370 C   0  0  0  0  0  0  0  0  0  0  0  0
  143.3960   74.2680  220.0930 C   0  0  0  0  0  0  0  0  0  0  0  0
  144.3053   71.0161  220.1110 H   0  0  0  0  0  0  0  0  0  0  0  0
  142.2263   70.8122  221.4526 H   0  0  0  0  0  0  0  0  0  0  0  0
  138.6411   72.5292  223.3611 H   0  0  0  0  0  0  0  0  0  0  0  0
  138.3779   70.8695  222.7032 H   0  0  0  0  0  0  0  0  0  0  0  0
  138.5139   71.2062  225.3404 H   0  0  0  0  0  0  0  0  0  0  0  0
  141.2745   71.6409  224.4234 H   0  0  0  0  0  0  0  0  0  0  0  0
  140.2174   72.4413  225.7169 H   0  0  0  0  0  0  0  0  0  0  0  0
  142.2843   70.7307  226.1071 H   0  0  0  0  0  0  0  0  0  0  0  0
  140.9015   71.2173  227.2453 H   0  0  0  0  0  0  0  0  0  0  0  0
  141.4674   68.6949  225.8648 H   0  0  0  0  0  0  0  0  0  0  0  0
  140.8292   69.1180  227.5496 H   0  0  0  0  0  0  0  0  0  0  0  0
  139.2079   67.8968  226.1379 H   0  0  0  0  0  0  0  0  0  0  0  0
  138.6447   69.4777  226.7050 H   0  0  0  0  0  0  0  0  0  0  0  0
  140.0682   69.0280  223.9918 H   0  0  0  0  0  0  0  0  0  0  0  0
  138.3093   69.0824  224.1457 H   0  0  0  0  0  0  0  0  0  0  0  0
  138.7029   76.3619  222.7776 H   0  0  0  0  0  0  0  0  0  0  0  0
  139.4469   77.8158  220.5878 H   0  0  0  0  0  0  0  0  0  0  0  0
  140.7917   77.7397  224.1339 H   0  0  0  0  0  0  0  0  0  0  0  0
  142.4376   79.3920  224.9332 H   0  0  0  0  0  0  0  0  0  0  0  0
  143.4552   81.0540  223.3975 H   0  0  0  0  0  0  0  0  0  0  0  0
  141.1933   79.4389  220.2358 H   0  0  0  0  0  0  0  0  0  0  0  0
  143.7334   75.2405  219.7052 H   0  0  0  0  0  0  0  0  0  0  0  0
  1  2  3  0
  2  3  1  0
  3  4  2  0
  4  5  1  0
  5  6  2  0
  6  7  1  0
  7  8  1  0
  8  9  1  0
  9 10  1  0
 10 11  1  0
 11 12  1  0
 12 13  1  0
 13 14  1  0
 14 15  1  0
  7 16  2  0
 16 17  1  0
 17 18  1  0
 18 19  2  0
 19 20  1  0
 20 21  2  0
 21 22  1  0
 22 23  2  0
 23 24  1  0
 24 25  2  0
 17 26  2  0
 26 27  1  0
 27 28  2  0
 28  3  1  0
 27  6  1  0
 15 10  1  0
 25 20  1  0
  4 29  1  0
  5 30  1  0
  9 31  1  0
  9 32  1  0
 10 33  1  0
 11 34  1  0
 11 35  1  0
 12 36  1  0
 12 37  1  0
 13 38  1  0
 13 39  1  0
 14 40  1  0
 14 41  1  0
 15 42  1  0
 15 43  1  0
 18 44  1  0
 19 45  1  0
 21 46  1  0
 22 47  1  0
 23 48  1  0
 25 49  1  0
 28 50  1  0
M  END
>  <smiles>  (30) 
N#Cc1ccc2c(OCC3CCCCC3)nc(/C=C/c3cccnc3)nc2c1

>  <score_type>  (30) 
oracle

>  <origin>  (30) 
autodockgpu

>  <m_score__min__energy>  (30) 
-9.4900000000000002

>  <m_primary>  (30) 
energy

>  <rmsd>  (30) 
8.231725013223931

>  <m_score__min__rmsd>  (30) 
8.231725013223931

>  <meeko>  (30) 
{"free_energy": -8.53, "intermolecular_energy": -10.62, "internal_energy": -1.1, "cluster_size": 14, "cluster_id": 2, "rank_in_cluster": 7}

>  <energy>  (30) 
-9.05

>  <cluster_rmsd>  (30) 
1.31

>  <cluster>  (30) 
1

$$$$

     RDKit          3D

 50 53  0  0  0  0  0  0  0  0999 V2000
  146.3000   73.0460  218.4120 N   0  0  0  0  0  0  0  0  0  0  0  0
  145.3300   73.0260  219.0520 C   0  0  0  0  0  0  0  0  0  0  0  0
  144.1260   73.0250  219.8360 C   0  0  0  0  0  0  0  0  0  0  0  0
  143.6800   71.8960  220.4680 C   0  0  0  0  0  0  0  0  0  0  0  0
  142.5260   71.8780  221.2240 C   0  0  0  0  0  0  0  0  0  0  0  0
  141.8200   73.0610  221.3240 C   0  0  0  0  0  0  0  0  0  0  0  0
  140.6450   73.0920  222.0790 C   0  0  0  0  0  0  0  0  0  0  0  0
  140.2510   71.9140  222.6920 O   0  0  0  0  0  0  0  0  0  0  0  0
  140.2590   71.8800  224.1040 C   0  0  0  0  0  0  0  0  0  0  0  0
  140.3610   70.4340  224.6080 C   0  0  0  0  0  0  0  0  0  0  0  0
  139.0600   69.7480  224.4430 C   0  0  0  0  0  0  0  0  0  0  0  0
  138.8200   68.5600  225.3000 C   0  0  0  0  0  0  0  0  0  0  0  0
  139.7320   68.3590  226.4470 C   0  0  0  0  0  0  0  0  0  0  0  0
  141.1230   68.9020  226.2990 C   0  0  0  0  0  0  0  0  0  0  0  0
  140.9640   70.3920  225.9730 C   0  0  0  0  0  0  0  0  0  0  0  0
  139.9380   74.2470  222.1880 N   0  0  0  0  0  0  0  0  0  0  0  0
  140.3560   75.3770  221.5730 C   0  0  0  0  0  0  0  0  0  0  0  0
  139.6090   76.6230  221.6810 C   0  0  0  0  0  0  0  0  0  0  0  0
  139.8040   77.4420  222.7010 C   0  0  0  0  0  0  0  0  0  0  0  0
  140.8170   78.4690  222.7260 C   0  0  0  0  0  0  0  0  0  0  0  0
  141.3670   78.9640  223.8740 C   0  0  0  0  0  0  0  0  0  0  0  0
  142.3260   79.9440  223.7810 C   0  0  0  0  0  0  0  0  0  0  0  0
  142.7540   80.4490  222.5670 C   0  0  0  0  0  0  0  0  0  0  0  0
  142.2000   79.9490  221.4560 N   0  0  0  0  0  0  0  0  0  0  0  0
  141.2730   79.0020  221.5280 C   0  0  0  0  0  0  0  0  0  0  0  0
  141.4900   75.3410  220.8470 N   0  0  0  0  0  0  0  0  0  0  0  0
  142.2390   74.2320  220.6970 C   0  0  0  0  0  0  0  0  0  0  0  0
  143.4000   74.2050  219.9500 C   0  0  0  0  0  0  0  0  0  0  0  0
  144.2632   70.9685  220.3696 H   0  0  0  0  0  0  0  0  0  0  0  0
  142.1830   70.9610  221.7255 H   0  0  0  0  0  0  0  0  0  0  0  0
  141.1211   72.4539  224.4747 H   0  0  0  0  0  0  0  0  0  0  0  0
  139.3216   72.3200  224.4750 H   0  0  0  0  0  0  0  0  0  0  0  0
  141.0624   69.8505  223.9935 H   0  0  0  0  0  0  0  0  0  0  0  0
  138.2675   70.4799  224.6581 H   0  0  0  0  0  0  0  0  0  0  0  0
  139.0636   69.3650  223.4118 H   0  0  0  0  0  0  0  0  0  0  0  0
  137.7984   68.6411  225.6997 H   0  0  0  0  0  0  0  0  0  0  0  0
  138.9962   67.6958  224.6427 H   0  0  0  0  0  0  0  0  0  0  0  0
  139.2766   68.8411  227.3246 H   0  0  0  0  0  0  0  0  0  0  0  0
  139.8526   67.2692  226.5358 H   0  0  0  0  0  0  0  0  0  0  0  0
  141.6848   68.7738  227.2360 H   0  0  0  0  0  0  0  0  0  0  0  0
  141.6790   68.3745  225.5099 H   0  0  0  0  0  0  0  0  0  0  0  0
  140.2995   70.8774  226.7030 H   0  0  0  0  0  0  0  0  0  0  0  0
  141.9250   70.9257  226.0136 H   0  0  0  0  0  0  0  0  0  0  0  0
  138.8745   76.8856  220.9054 H   0  0  0  0  0  0  0  0  0  0  0  0
  139.1553   77.3337  223.5827 H   0  0  0  0  0  0  0  0  0  0  0  0
  141.0479   78.5848  224.8560 H   0  0  0  0  0  0  0  0  0  0  0  0
  142.7693   80.3412  224.7061 H   0  0  0  0  0  0  0  0  0  0  0  0
  143.5228   81.2341  222.5162 H   0  0  0  0  0  0  0  0  0  0  0  0
  140.8439   78.6197  220.5901 H   0  0  0  0  0  0  0  0  0  0  0  0
  143.7504   75.1173  219.4451 H   0  0  0  0  0  0  0  0  0  0  0  0
  1  2  3  0
  2  3  1  0
  3  4  2  0
  4  5  1  0
  5  6  2  0
  6  7  1  0
  7  8  1  0
  8  9  1  0
  9 10  1  0
 10 11  1  0
 11 12  1  0
 12 13  1  0
 13 14  1  0
 14 15  1  0
  7 16  2  0
 16 17  1  0
 17 18  1  0
 18 19  2  0
 19 20  1  0
 20 21  2  0
 21 22  1  0
 22 23  2  0
 23 24  1  0
 24 25  2  0
 17 26  2  0
 26 27  1  0
 27 28  2  0
 28  3  1  0
 27  6  1  0
 15 10  1  0
 25 20  1  0
  4 29  1  0
  5 30  1  0
  9 31  1  0
  9 32  1  0
 10 33  1  0
 11 34  1  0
 11 35  1  0
 12 36  1  0
 12 37  1  0
 13 38  1  0
 13 39  1  0
 14 40  1  0
 14 41  1  0
 15 42  1  0
 15 43  1  0
 18 44  1  0
 19 45  1  0
 21 46  1  0
 22 47  1  0
 23 48  1  0
 25 49  1  0
 28 50  1  0
M  END
>  <smiles>  (31) 
N#Cc1ccc2c(OCC3CCCCC3)nc(/C=C/c3cccnc3)nc2c1

>  <score_type>  (31) 
oracle

>  <origin>  (31) 
autodockgpu

>  <m_score__min__energy>  (31) 
-9.4900000000000002

>  <m_primary>  (31) 
energy

>  <rmsd>  (31) 
8.20005501870157

>  <m_score__min__rmsd>  (31) 
8.20005501870157

>  <meeko>  (31) 
{"free_energy": -8.57, "intermolecular_energy": -10.66, "internal_energy": -0.93, "cluster_size": 14, "cluster_id": 2, "rank_in_cluster": 4}

>  <energy>  (31) 
-9.02

>  <cluster_rmsd>  (31) 
0.47

>  <cluster>  (31) 
1

$$$$

     RDKit          3D

 50 53  0  0  0  0  0  0  0  0999 V2000
  146.3200   73.0190  218.6570 N   0  0  0  0  0  0  0  0  0  0  0  0
  145.3180   73.3550  219.1430 C   0  0  0  0  0  0  0  0  0  0  0  0
  144.0930   73.7870  219.7550 C   0  0  0  0  0  0  0  0  0  0  0  0
  143.6130   75.0580  219.5870 C   0  0  0  0  0  0  0  0  0  0  0  0
  142.4380   75.4890  220.1670 C   0  0  0  0  0  0  0  0  0  0  0  0
  141.7460   74.5770  220.9400 C   0  0  0  0  0  0  0  0  0  0  0  0
  140.5510   74.9660  221.5480 C   0  0  0  0  0  0  0  0  0  0  0  0
  140.1230   76.2670  221.3360 O   0  0  0  0  0  0  0  0  0  0  0  0
  139.5550   76.9530  222.4320 C   0  0  0  0  0  0  0  0  0  0  0  0
  140.2630   78.2970  222.6540 C   0  0  0  0  0  0  0  0  0  0  0  0
  140.4320   78.9980  221.3610 C   0  0  0  0  0  0  0  0  0  0  0  0
  141.4970   80.0290  221.2970 C   0  0  0  0  0  0  0  0  0  0  0  0
  142.4940   80.0390  222.3910 C   0  0  0  0  0  0  0  0  0  0  0  0
  142.0290   79.5300  223.7250 C   0  0  0  0  0  0  0  0  0  0  0  0
  141.4960   78.1140  223.4750 C   0  0  0  0  0  0  0  0  0  0  0  0
  139.8560   74.0830  222.3120 N   0  0  0  0  0  0  0  0  0  0  0  0
  140.3080   72.8210  222.4950 C   0  0  0  0  0  0  0  0  0  0  0  0
  139.5760   71.8610  223.3110 C   0  0  0  0  0  0  0  0  0  0  0  0
  140.2180   70.9460  224.0180 C   0  0  0  0  0  0  0  0  0  0  0  0
  140.3220   70.9690  225.4570 C   0  0  0  0  0  0  0  0  0  0  0  0
  141.0640   71.8850  226.1480 C   0  0  0  0  0  0  0  0  0  0  0  0
  141.0920   71.8150  227.5210 C   0  0  0  0  0  0  0  0  0  0  0  0
  140.3990   70.8490  228.2280 C   0  0  0  0  0  0  0  0  0  0  0  0
  139.6810   69.9630  227.5290 N   0  0  0  0  0  0  0  0  0  0  0  0
  139.6420   70.0180  226.2030 C   0  0  0  0  0  0  0  0  0  0  0  0
  141.4620   72.4510  221.9060 N   0  0  0  0  0  0  0  0  0  0  0  0
  142.1990   73.2740  221.1370 C   0  0  0  0  0  0  0  0  0  0  0  0
  143.3800   72.8850  220.5370 C   0  0  0  0  0  0  0  0  0  0  0  0
  144.1860   75.7623  218.9660 H   0  0  0  0  0  0  0  0  0  0  0  0
  142.0681   76.5145  220.0203 H   0  0  0  0  0  0  0  0  0  0  0  0
  138.4888   77.1348  222.2315 H   0  0  0  0  0  0  0  0  0  0  0  0
  139.6725   76.3368  223.3356 H   0  0  0  0  0  0  0  0  0  0  0  0
  139.6435   78.9753  223.2591 H   0  0  0  0  0  0  0  0  0  0  0  0
  140.6563   78.2390  220.5970 H   0  0  0  0  0  0  0  0  0  0  0  0
  139.4905   79.5443  221.2028 H   0  0  0  0  0  0  0  0  0  0  0  0
  142.0426   79.8833  220.3530 H   0  0  0  0  0  0  0  0  0  0  0  0
  140.9682   80.9895  221.3858 H   0  0  0  0  0  0  0  0  0  0  0  0
  143.3445   79.4175  222.0740 H   0  0  0  0  0  0  0  0  0  0  0  0
  142.7386   81.0992  222.5527 H   0  0  0  0  0  0  0  0  0  0  0  0
  142.8671   79.5027  224.4369 H   0  0  0  0  0  0  0  0  0  0  0  0
  141.2550   80.1813  224.1571 H   0  0  0  0  0  0  0  0  0  0  0  0
  142.2379   77.5140  222.9277 H   0  0  0  0  0  0  0  0  0  0  0  0
  141.2878   77.5821  224.4151 H   0  0  0  0  0  0  0  0  0  0  0  0
  138.4770   71.8977  223.3393 H   0  0  0  0  0  0  0  0  0  0  0  0
  140.7011   70.1188  223.4772 H   0  0  0  0  0  0  0  0  0  0  0  0
  141.6288   72.6644  225.6155 H   0  0  0  0  0  0  0  0  0  0  0  0
  141.6871   72.5541  228.0773 H   0  0  0  0  0  0  0  0  0  0  0  0
  140.4370   70.8107  229.3267 H   0  0  0  0  0  0  0  0  0  0  0  0
  139.0386   69.2699  225.6680 H   0  0  0  0  0  0  0  0  0  0  0  0
  143.7570   71.8612  220.6776 H   0  0  0  0  0  0  0  0  0  0  0  0
  1  2  3  0
  2  3  1  0
  3  4  2  0
  4  5  1  0
  5  6  2  0
  6  7  1  0
  7  8  1  0
  8  9  1  0
  9 10  1  0
 10 11  1  0
 11 12  1  0
 12 13  1  0
 13 14  1  0
 14 15  1  0
  7 16  2  0
 16 17  1  0
 17 18  1  0
 18 19  2  0
 19 20  1  0
 20 21  2  0
 21 22  1  0
 22 23  2  0
 23 24  1  0
 24 25  2  0
 17 26  2  0
 26 27  1  0
 27 28  2  0
 28  3  1  0
 27  6  1  0
 15 10  1  0
 25 20  1  0
  4 29  1  0
  5 30  1  0
  9 31  1  0
  9 32  1  0
 10 33  1  0
 11 34  1  0
 11 35  1  0
 12 36  1  0
 12 37  1  0
 13 38  1  0
 13 39  1  0
 14 40  1  0
 14 41  1  0
 15 42  1  0
 15 43  1  0
 18 44  1  0
 19 45  1  0
 21 46  1  0
 22 47  1  0
 23 48  1  0
 25 49  1  0
 28 50  1  0
M  END
>  <smiles>  (32) 
N#Cc1ccc2c(OCC3CCCCC3)nc(/C=C/c3cccnc3)nc2c1

>  <score_type>  (32) 
oracle

>  <origin>  (32) 
autodockgpu

>  <m_score__min__energy>  (32) 
-9.4900000000000002

>  <m_primary>  (32) 
energy

>  <rmsd>  (32) 
7.405537676934856

>  <m_score__min__rmsd>  (32) 
7.405537676934856

>  <meeko>  (32) 
{"free_energy": -9.12, "intermolecular_energy": -11.21, "internal_energy": -1.15, "cluster_size": 35, "cluster_id": 1, "rank_in_cluster": 28}

>  <energy>  (32) 
-8.98

>  <cluster_rmsd>  (32) 
1.25

>  <cluster>  (32) 
1

$$$$

     RDKit          3D

 50 53  0  0  0  0  0  0  0  0999 V2000
  146.3140   73.0200  218.6780 N   0  0  0  0  0  0  0  0  0  0  0  0
  145.3040   73.2950  219.1830 C   0  0  0  0  0  0  0  0  0  0  0  0
  144.0580   73.6570  219.8000 C   0  0  0  0  0  0  0  0  0  0  0  0
  143.5280   74.9120  219.6680 C   0  0  0  0  0  0  0  0  0  0  0  0
  142.3330   75.2760  220.2540 C   0  0  0  0  0  0  0  0  0  0  0  0
  141.6750   74.3120  220.9940 C   0  0  0  0  0  0  0  0  0  0  0  0
  140.4620   74.6330  221.6060 C   0  0  0  0  0  0  0  0  0  0  0  0
  139.9810   75.9210  221.4320 O   0  0  0  0  0  0  0  0  0  0  0  0
  140.0880   76.8090  222.5260 C   0  0  0  0  0  0  0  0  0  0  0  0
  141.1320   77.8960  222.2370 C   0  0  0  0  0  0  0  0  0  0  0  0
  141.5940   78.5040  223.5050 C   0  0  0  0  0  0  0  0  0  0  0  0
  142.1950   79.8570  223.4160 C   0  0  0  0  0  0  0  0  0  0  0  0
  141.9880   80.6060  222.1560 C   0  0  0  0  0  0  0  0  0  0  0  0
  141.8110   79.7860  220.9120 C   0  0  0  0  0  0  0  0  0  0  0  0
  140.6360   78.8400  221.1920 C   0  0  0  0  0  0  0  0  0  0  0  0
  139.8000   73.6980  222.3380 N   0  0  0  0  0  0  0  0  0  0  0  0
  140.3030   72.4500  222.4840 C   0  0  0  0  0  0  0  0  0  0  0  0
  139.6070   71.4360  223.2660 C   0  0  0  0  0  0  0  0  0  0  0  0
  139.5910   71.4930  224.5870 C   0  0  0  0  0  0  0  0  0  0  0  0
  139.9450   70.3880  225.4440 C   0  0  0  0  0  0  0  0  0  0  0  0
  139.5770   69.0940  225.2020 C   0  0  0  0  0  0  0  0  0  0  0  0
  139.9700   68.1180  226.0870 C   0  0  0  0  0  0  0  0  0  0  0  0
  140.7220   68.3970  227.2130 C   0  0  0  0  0  0  0  0  0  0  0  0
  141.0700   69.6720  227.4280 N   0  0  0  0  0  0  0  0  0  0  0  0
  140.6990   70.6260  226.5840 C   0  0  0  0  0  0  0  0  0  0  0  0
  141.4740   72.1470  221.8910 N   0  0  0  0  0  0  0  0  0  0  0  0
  142.1800   73.0240  221.1530 C   0  0  0  0  0  0  0  0  0  0  0  0
  143.3800   72.7020  220.5490 C   0  0  0  0  0  0  0  0  0  0  0  0
  144.0749   75.6580  219.0727 H   0  0  0  0  0  0  0  0  0  0  0  0
  141.9219   76.2896  220.1372 H   0  0  0  0  0  0  0  0  0  0  0  0
  139.1116   77.2833  222.7039 H   0  0  0  0  0  0  0  0  0  0  0  0
  140.4021   76.2419  223.4146 H   0  0  0  0  0  0  0  0  0  0  0  0
  142.0389   77.4626  221.7902 H   0  0  0  0  0  0  0  0  0  0  0  0
  140.7270   78.5683  224.1789 H   0  0  0  0  0  0  0  0  0  0  0  0
  142.4049   77.8508  223.8597 H   0  0  0  0  0  0  0  0  0  0  0  0
  141.7739   80.4609  224.2333 H   0  0  0  0  0  0  0  0  0  0  0  0
  143.2808   79.6900  223.4723 H   0  0  0  0  0  0  0  0  0  0  0  0
  141.0873   81.2252  222.2793 H   0  0  0  0  0  0  0  0  0  0  0  0
  142.9158   81.1759  221.9999 H   0  0  0  0  0  0  0  0  0  0  0  0
  141.5820   80.4364  220.0550 H   0  0  0  0  0  0  0  0  0  0  0  0
  142.7262   79.2287  220.6634 H   0  0  0  0  0  0  0  0  0  0  0  0
  139.7672   79.4037  221.5628 H   0  0  0  0  0  0  0  0  0  0  0  0
  140.3085   78.3122  220.2841 H   0  0  0  0  0  0  0  0  0  0  0  0
  139.0888   70.6135  222.7512 H   0  0  0  0  0  0  0  0  0  0  0  0
  139.2899   72.4391  225.0605 H   0  0  0  0  0  0  0  0  0  0  0  0
  138.9776   68.8383  224.3158 H   0  0  0  0  0  0  0  0  0  0  0  0
  139.6751   67.0764  225.8919 H   0  0  0  0  0  0  0  0  0  0  0  0
  141.0239   67.5996  227.9079 H   0  0  0  0  0  0  0  0  0  0  0  0
  141.0054   71.6603  226.7995 H   0  0  0  0  0  0  0  0  0  0  0  0
  143.7986   71.6909  220.6606 H   0  0  0  0  0  0  0  0  0  0  0  0
  1  2  3  0
  2  3  1  0
  3  4  2  0
  4  5  1  0
  5  6  2  0
  6  7  1  0
  7  8  1  0
  8  9  1  0
  9 10  1  0
 10 11  1  0
 11 12  1  0
 12 13  1  0
 13 14  1  0
 14 15  1  0
  7 16  2  0
 16 17  1  0
 17 18  1  0
 18 19  2  0
 19 20  1  0
 20 21  2  0
 21 22  1  0
 22 23  2  0
 23 24  1  0
 24 25  2  0
 17 26  2  0
 26 27  1  0
 27 28  2  0
 28  3  1  0
 27  6  1  0
 15 10  1  0
 25 20  1  0
  4 29  1  0
  5 30  1  0
  9 31  1  0
  9 32  1  0
 10 33  1  0
 11 34  1  0
 11 35  1  0
 12 36  1  0
 12 37  1  0
 13 38  1  0
 13 39  1  0
 14 40  1  0
 14 41  1  0
 15 42  1  0
 15 43  1  0
 18 44  1  0
 19 45  1  0
 21 46  1  0
 22 47  1  0
 23 48  1  0
 25 49  1  0
 28 50  1  0
M  END
>  <smiles>  (33) 
N#Cc1ccc2c(OCC3CCCCC3)nc(/C=C/c3cccnc3)nc2c1

>  <score_type>  (33) 
oracle

>  <origin>  (33) 
autodockgpu

>  <m_score__min__energy>  (33) 
-9.4900000000000002

>  <m_primary>  (33) 
energy

>  <rmsd>  (33) 
7.588493005025354

>  <m_score__min__rmsd>  (33) 
7.588493005025354

>  <meeko>  (33) 
{"free_energy": -8.87, "intermolecular_energy": -10.96, "internal_energy": -1.0, "cluster_size": 35, "cluster_id": 1, "rank_in_cluster": 34}

>  <energy>  (33) 
-8.96

>  <cluster_rmsd>  (33) 
1.27

>  <cluster>  (33) 
1

$$$$

     RDKit          3D

 50 53  0  0  0  0  0  0  0  0999 V2000
  146.3250   73.1890  217.8790 N   0  0  0  0  0  0  0  0  0  0  0  0
  145.3980   73.1840  218.5800 C   0  0  0  0  0  0  0  0  0  0  0  0
  144.2650   73.1660  219.4620 C   0  0  0  0  0  0  0  0  0  0  0  0
  143.9180   72.0440  220.1660 C   0  0  0  0  0  0  0  0  0  0  0  0
  142.8320   72.0110  221.0170 C   0  0  0  0  0  0  0  0  0  0  0  0
  142.0920   73.1700  221.1400 C   0  0  0  0  0  0  0  0  0  0  0  0
  140.9840   73.1850  221.9900 C   0  0  0  0  0  0  0  0  0  0  0  0
  140.6890   72.0150  222.6720 O   0  0  0  0  0  0  0  0  0  0  0  0
  139.3840   71.8770  223.1940 C   0  0  0  0  0  0  0  0  0  0  0  0
  139.4170   71.1410  224.5400 C   0  0  0  0  0  0  0  0  0  0  0  0
  140.6170   71.5430  225.3070 C   0  0  0  0  0  0  0  0  0  0  0  0
  141.0780   70.6070  226.3620 C   0  0  0  0  0  0  0  0  0  0  0  0
  140.5190   69.2370  226.3410 C   0  0  0  0  0  0  0  0  0  0  0  0
  139.1440   69.0840  225.7580 C   0  0  0  0  0  0  0  0  0  0  0  0
  139.2160   69.6750  224.3440 C   0  0  0  0  0  0  0  0  0  0  0  0
  140.2440   74.3170  222.1230 N   0  0  0  0  0  0  0  0  0  0  0  0
  140.5650   75.4390  221.4390 C   0  0  0  0  0  0  0  0  0  0  0  0
  139.7820   76.6610  221.5710 C   0  0  0  0  0  0  0  0  0  0  0  0
  139.7860   77.3480  222.7010 C   0  0  0  0  0  0  0  0  0  0  0  0
  140.5390   78.5630  222.9010 C   0  0  0  0  0  0  0  0  0  0  0  0
  141.8190   78.5910  223.3760 C   0  0  0  0  0  0  0  0  0  0  0  0
  142.4430   79.8070  223.5270 C   0  0  0  0  0  0  0  0  0  0  0  0
  141.8220   81.0020  223.2170 C   0  0  0  0  0  0  0  0  0  0  0  0
  140.5670   80.9490  222.7540 N   0  0  0  0  0  0  0  0  0  0  0  0
  139.9510   79.7830  222.6010 C   0  0  0  0  0  0  0  0  0  0  0  0
  141.6350   75.4190  220.6210 N   0  0  0  0  0  0  0  0  0  0  0  0
  142.4110   74.3330  220.4430 C   0  0  0  0  0  0  0  0  0  0  0  0
  143.5050   74.3230  219.6010 C   0  0  0  0  0  0  0  0  0  0  0  0
  144.5272   71.1356  220.0490 H   0  0  0  0  0  0  0  0  0  0  0  0
  142.5673   71.0999  221.5736 H   0  0  0  0  0  0  0  0  0  0  0  0
  138.9447   72.8751  223.3382 H   0  0  0  0  0  0  0  0  0  0  0  0
  138.7778   71.2938  222.4852 H   0  0  0  0  0  0  0  0  0  0  0  0
  138.5696   71.4398  225.1745 H   0  0  0  0  0  0  0  0  0  0  0  0
  141.4425   71.6713  224.5914 H   0  0  0  0  0  0  0  0  0  0  0  0
  140.3252   72.4594  225.8410 H   0  0  0  0  0  0  0  0  0  0  0  0
  142.1709   70.5200  226.2728 H   0  0  0  0  0  0  0  0  0  0  0  0
  140.7208   71.0449  227.3058 H   0  0  0  0  0  0  0  0  0  0  0  0
  141.2029   68.6058  225.7546 H   0  0  0  0  0  0  0  0  0  0  0  0
  140.4217   68.9458  227.3973 H   0  0  0  0  0  0  0  0  0  0  0  0
  138.8635   68.0213  225.7142 H   0  0  0  0  0  0  0  0  0  0  0  0
  138.3874   69.5960  226.3706 H   0  0  0  0  0  0  0  0  0  0  0  0
  140.0600   69.2413  223.7876 H   0  0  0  0  0  0  0  0  0  0  0  0
  138.3074   69.4596  223.7626 H   0  0  0  0  0  0  0  0  0  0  0  0
  139.1808   77.0160  220.7210 H   0  0  0  0  0  0  0  0  0  0  0  0
  139.1797   76.9712  223.5379 H   0  0  0  0  0  0  0  0  0  0  0  0
  142.3414   77.6578  223.6332 H   0  0  0  0  0  0  0  0  0  0  0  0
  143.4744   79.8294  223.9086 H   0  0  0  0  0  0  0  0  0  0  0  0
  142.3409   81.9633  223.3462 H   0  0  0  0  0  0  0  0  0  0  0  0
  138.9205   79.7844  222.2162 H   0  0  0  0  0  0  0  0  0  0  0  0
  143.7758   75.2297  219.0401 H   0  0  0  0  0  0  0  0  0  0  0  0
  1  2  3  0
  2  3  1  0
  3  4  2  0
  4  5  1  0
  5  6  2  0
  6  7  1  0
  7  8  1  0
  8  9  1  0
  9 10  1  0
 10 11  1  0
 11 12  1  0
 12 13  1  0
 13 14  1  0
 14 15  1  0
  7 16  2  0
 16 17  1  0
 17 18  1  0
 18 19  2  0
 19 20  1  0
 20 21  2  0
 21 22  1  0
 22 23  2  0
 23 24  1  0
 24 25  2  0
 17 26  2  0
 26 27  1  0
 27 28  2  0
 28  3  1  0
 27  6  1  0
 15 10  1  0
 25 20  1  0
  4 29  1  0
  5 30  1  0
  9 31  1  0
  9 32  1  0
 10 33  1  0
 11 34  1  0
 11 35  1  0
 12 36  1  0
 12 37  1  0
 13 38  1  0
 13 39  1  0
 14 40  1  0
 14 41  1  0
 15 42  1  0
 15 43  1  0
 18 44  1  0
 19 45  1  0
 21 46  1  0
 22 47  1  0
 23 48  1  0
 25 49  1  0
 28 50  1  0
M  END
>  <smiles>  (34) 
N#Cc1ccc2c(OCC3CCCCC3)nc(/C=C/c3cccnc3)nc2c1

>  <score_type>  (34) 
oracle

>  <origin>  (34) 
autodockgpu

>  <m_score__min__energy>  (34) 
-9.4900000000000002

>  <m_primary>  (34) 
energy

>  <rmsd>  (34) 
8.16487220438229

>  <m_score__min__rmsd>  (34) 
8.16487220438229

>  <meeko>  (34) 
{"free_energy": -8.24, "intermolecular_energy": -10.33, "internal_energy": -0.97, "cluster_size": 14, "cluster_id": 2, "rank_in_cluster": 14}

>  <energy>  (34) 
-8.87

>  <cluster_rmsd>  (34) 
0.71

>  <cluster>  (34) 
1

$$$$

     RDKit          3D

 50 53  0  0  0  0  0  0  0  0999 V2000
  146.3140   73.0230  218.9170 N   0  0  0  0  0  0  0  0  0  0  0  0
  145.2880   73.3040  219.3860 C   0  0  0  0  0  0  0  0  0  0  0  0
  144.0220   73.6720  219.9540 C   0  0  0  0  0  0  0  0  0  0  0  0
  143.5020   74.9290  219.8030 C   0  0  0  0  0  0  0  0  0  0  0  0
  142.2870   75.2980  220.3420 C   0  0  0  0  0  0  0  0  0  0  0  0
  141.5970   74.3380  221.0560 C   0  0  0  0  0  0  0  0  0  0  0  0
  140.3620   74.6640  221.6210 C   0  0  0  0  0  0  0  0  0  0  0  0
  139.8950   75.9540  221.4290 O   0  0  0  0  0  0  0  0  0  0  0  0
  139.9930   76.8510  222.5150 C   0  0  0  0  0  0  0  0  0  0  0  0
  141.0860   77.8970  222.2540 C   0  0  0  0  0  0  0  0  0  0  0  0
  141.5860   78.4370  223.5370 C   0  0  0  0  0  0  0  0  0  0  0  0
  142.2510   79.7630  223.4880 C   0  0  0  0  0  0  0  0  0  0  0  0
  142.0690   80.5640  222.2570 C   0  0  0  0  0  0  0  0  0  0  0  0
  141.8420   79.7970  220.9870 C   0  0  0  0  0  0  0  0  0  0  0  0
  140.6260   78.8990  221.2470 C   0  0  0  0  0  0  0  0  0  0  0  0
  139.6690   73.7320  222.3260 N   0  0  0  0  0  0  0  0  0  0  0  0
  140.1600   72.4820  222.4910 C   0  0  0  0  0  0  0  0  0  0  0  0
  139.4290   71.4710  223.2450 C   0  0  0  0  0  0  0  0  0  0  0  0
  139.6370   71.3130  224.5410 C   0  0  0  0  0  0  0  0  0  0  0  0
  139.8770   70.0350  225.1670 C   0  0  0  0  0  0  0  0  0  0  0  0
  140.8900   69.8050  226.0540 C   0  0  0  0  0  0  0  0  0  0  0  0
  141.0280   68.5460  226.5910 C   0  0  0  0  0  0  0  0  0  0  0  0
  140.1790   67.5050  226.2650 C   0  0  0  0  0  0  0  0  0  0  0  0
  139.1940   67.7550  225.3930 N   0  0  0  0  0  0  0  0  0  0  0  0
  139.0470   68.9640  224.8660 C   0  0  0  0  0  0  0  0  0  0  0  0
  141.3510   72.1730  221.9440 N   0  0  0  0  0  0  0  0  0  0  0  0
  142.0900   73.0470  221.2330 C   0  0  0  0  0  0  0  0  0  0  0  0
  143.3100   72.7200  220.6770 C   0  0  0  0  0  0  0  0  0  0  0  0
  144.0746   75.6732  219.2301 H   0  0  0  0  0  0  0  0  0  0  0  0
  141.8850   76.3132  220.2089 H   0  0  0  0  0  0  0  0  0  0  0  0
  139.0283   77.3620  222.6502 H   0  0  0  0  0  0  0  0  0  0  0  0
  140.2532   76.2842  223.4211 H   0  0  0  0  0  0  0  0  0  0  0  0
  141.9684   77.4379  221.7843 H   0  0  0  0  0  0  0  0  0  0  0  0
  140.7284   78.5193  224.2209 H   0  0  0  0  0  0  0  0  0  0  0  0
  142.3669   77.7337  223.8620 H   0  0  0  0  0  0  0  0  0  0  0  0
  141.8668   80.3576  224.3299 H   0  0  0  0  0  0  0  0  0  0  0  0
  143.3280   79.5426  223.5271 H   0  0  0  0  0  0  0  0  0  0  0  0
  141.2000   81.2206  222.4109 H   0  0  0  0  0  0  0  0  0  0  0  0
  143.0217   81.0942  222.1109 H   0  0  0  0  0  0  0  0  0  0  0  0
  141.6367   80.4870  220.1553 H   0  0  0  0  0  0  0  0  0  0  0  0
  142.7273   79.2060  220.7095 H   0  0  0  0  0  0  0  0  0  0  0  0
  139.7885   79.4901  221.6460 H   0  0  0  0  0  0  0  0  0  0  0  0
  140.2654   78.4191  220.3253 H   0  0  0  0  0  0  0  0  0  0  0  0
  138.6962   70.8325  222.7299 H   0  0  0  0  0  0  0  0  0  0  0  0
  139.6265   72.2084  225.1798 H   0  0  0  0  0  0  0  0  0  0  0  0
  141.5830   70.6121  226.3339 H   0  0  0  0  0  0  0  0  0  0  0  0
  141.8435   68.3610  227.3057 H   0  0  0  0  0  0  0  0  0  0  0  0
  140.3081   66.5058  226.7066 H   0  0  0  0  0  0  0  0  0  0  0  0
  138.2246   69.1258  224.1536 H   0  0  0  0  0  0  0  0  0  0  0  0
  143.7194   71.7071  220.8054 H   0  0  0  0  0  0  0  0  0  0  0  0
  1  2  3  0
  2  3  1  0
  3  4  2  0
  4  5  1  0
  5  6  2  0
  6  7  1  0
  7  8  1  0
  8  9  1  0
  9 10  1  0
 10 11  1  0
 11 12  1  0
 12 13  1  0
 13 14  1  0
 14 15  1  0
  7 16  2  0
 16 17  1  0
 17 18  1  0
 18 19  2  0
 19 20  1  0
 20 21  2  0
 21 22  1  0
 22 23  2  0
 23 24  1  0
 24 25  2  0
 17 26  2  0
 26 27  1  0
 27 28  2  0
 28  3  1  0
 27  6  1  0
 15 10  1  0
 25 20  1  0
  4 29  1  0
  5 30  1  0
  9 31  1  0
  9 32  1  0
 10 33  1  0
 11 34  1  0
 11 35  1  0
 12 36  1  0
 12 37  1  0
 13 38  1  0
 13 39  1  0
 14 40  1  0
 14 41  1  0
 15 42  1  0
 15 43  1  0
 18 44  1  0
 19 45  1  0
 21 46  1  0
 22 47  1  0
 23 48  1  0
 25 49  1  0
 28 50  1  0
M  END
>  <smiles>  (35) 
N#Cc1ccc2c(OCC3CCCCC3)nc(/C=C/c3cccnc3)nc2c1

>  <score_type>  (35) 
oracle

>  <origin>  (35) 
autodockgpu

>  <m_score__min__energy>  (35) 
-9.4900000000000002

>  <m_primary>  (35) 
energy

>  <rmsd>  (35) 
7.5507584916262385

>  <m_score__min__rmsd>  (35) 
7.5507584916262385

>  <meeko>  (35) 
{"free_energy": -9.41, "intermolecular_energy": -11.49, "internal_energy": -1.02, "cluster_size": 35, "cluster_id": 1, "rank_in_cluster": 6}

>  <energy>  (35) 
-8.66

>  <cluster_rmsd>  (35) 
0.93

>  <cluster>  (35) 
1

$$$$

     RDKit          3D

 50 53  0  0  0  0  0  0  0  0999 V2000
  146.3350   73.3240  219.1000 N   0  0  0  0  0  0  0  0  0  0  0  0
  145.2800   73.2490  219.5820 C   0  0  0  0  0  0  0  0  0  0  0  0
  143.9860   73.1530  220.1980 C   0  0  0  0  0  0  0  0  0  0  0  0
  143.4250   71.9450  220.5110 C   0  0  0  0  0  0  0  0  0  0  0  0
  142.1840   71.8360  221.1030 C   0  0  0  0  0  0  0  0  0  0  0  0
  141.5100   73.0100  221.3750 C   0  0  0  0  0  0  0  0  0  0  0  0
  140.2500   72.9510  221.9730 C   0  0  0  0  0  0  0  0  0  0  0  0
  139.7410   71.6950  222.2640 O   0  0  0  0  0  0  0  0  0  0  0  0
  139.0750   71.5320  223.4980 C   0  0  0  0  0  0  0  0  0  0  0  0
  139.9080   70.6620  224.4500 C   0  0  0  0  0  0  0  0  0  0  0  0
  139.1150   69.4950  224.8940 C   0  0  0  0  0  0  0  0  0  0  0  0
  139.5420   68.8400  226.1550 C   0  0  0  0  0  0  0  0  0  0  0  0
  140.4900   69.5830  227.0150 C   0  0  0  0  0  0  0  0  0  0  0  0
  141.4170   70.5370  226.3200 C   0  0  0  0  0  0  0  0  0  0  0  0
  140.5200   71.4960  225.5260 C   0  0  0  0  0  0  0  0  0  0  0  0
  139.5720   74.0970  222.2480 N   0  0  0  0  0  0  0  0  0  0  0  0
  140.1030   75.3040  221.9480 C   0  0  0  0  0  0  0  0  0  0  0  0
  139.3900   76.5420  222.2360 C   0  0  0  0  0  0  0  0  0  0  0  0
  139.7440   77.6760  221.6570 C   0  0  0  0  0  0  0  0  0  0  0  0
  140.7840   78.5440  222.1540 C   0  0  0  0  0  0  0  0  0  0  0  0
  141.1680   78.5920  223.4640 C   0  0  0  0  0  0  0  0  0  0  0  0
  142.1730   79.4570  223.8300 C   0  0  0  0  0  0  0  0  0  0  0  0
  142.8080   80.2800  222.9190 C   0  0  0  0  0  0  0  0  0  0  0  0
  142.4140   80.2160  221.6410 N   0  0  0  0  0  0  0  0  0  0  0  0
  141.4460   79.3860  221.2720 C   0  0  0  0  0  0  0  0  0  0  0  0
  141.3190   75.3550  221.3710 N   0  0  0  0  0  0  0  0  0  0  0  0
  142.0450   74.2610  221.0720 C   0  0  0  0  0  0  0  0  0  0  0  0
  143.2900   74.3240  220.4800 C   0  0  0  0  0  0  0  0  0  0  0  0
  143.9847   71.0262  220.2819 H   0  0  0  0  0  0  0  0  0  0  0  0
  141.7497   70.8555  221.3480 H   0  0  0  0  0  0  0  0  0  0  0  0
  138.9159   72.5193  223.9562 H   0  0  0  0  0  0  0  0  0  0  0  0
  138.1096   71.0366  223.3176 H   0  0  0  0  0  0  0  0  0  0  0  0
  140.7742   70.2262  223.9306 H   0  0  0  0  0  0  0  0  0  0  0  0
  138.0757   69.8296  225.0276 H   0  0  0  0  0  0  0  0  0  0  0  0
  139.2560   68.7350  224.1114 H   0  0  0  0  0  0  0  0  0  0  0  0
  138.6374   68.6460  226.7501 H   0  0  0  0  0  0  0  0  0  0  0  0
  140.0917   67.9420  225.8364 H   0  0  0  0  0  0  0  0  0  0  0  0
  139.9000   70.1601  227.7422 H   0  0  0  0  0  0  0  0  0  0  0  0
  141.1411   68.8167  227.4610 H   0  0  0  0  0  0  0  0  0  0  0  0
  142.0145   71.0942  227.0566 H   0  0  0  0  0  0  0  0  0  0  0  0
  142.1216   70.0069  225.6623 H   0  0  0  0  0  0  0  0  0  0  0  0
  139.7400   71.9206  226.1751 H   0  0  0  0  0  0  0  0  0  0  0  0
  141.0880   72.3437  225.1151 H   0  0  0  0  0  0  0  0  0  0  0  0
  138.5476   76.5324  222.9433 H   0  0  0  0  0  0  0  0  0  0  0  0
  139.2139   77.9762  220.7411 H   0  0  0  0  0  0  0  0  0  0  0  0
  140.6819   77.9500  224.2134 H   0  0  0  0  0  0  0  0  0  0  0  0
  142.4822   79.4951  224.8850 H   0  0  0  0  0  0  0  0  0  0  0  0
  143.6098   80.9643  223.2333 H   0  0  0  0  0  0  0  0  0  0  0  0
  141.1535   79.3646  220.2118 H   0  0  0  0  0  0  0  0  0  0  0  0
  143.7320   75.3001  220.2311 H   0  0  0  0  0  0  0  0  0  0  0  0
  1  2  3  0
  2  3  1  0
  3  4  2  0
  4  5  1  0
  5  6  2  0
  6  7  1  0
  7  8  1  0
  8  9  1  0
  9 10  1  0
 10 11  1  0
 11 12  1  0
 12 13  1  0
 13 14  1  0
 14 15  1  0
  7 16  2  0
 16 17  1  0
 17 18  1  0
 18 19  2  0
 19 20  1  0
 20 21  2  0
 21 22  1  0
 22 23  2  0
 23 24  1  0
 24 25  2  0
 17 26  2  0
 26 27  1  0
 27 28  2  0
 28  3  1  0
 27  6  1  0
 15 10  1  0
 25 20  1  0
  4 29  1  0
  5 30  1  0
  9 31  1  0
  9 32  1  0
 10 33  1  0
 11 34  1  0
 11 35  1  0
 12 36  1  0
 12 37  1  0
 13 38  1  0
 13 39  1  0
 14 40  1  0
 14 41  1  0
 15 42  1  0
 15 43  1  0
 18 44  1  0
 19 45  1  0
 21 46  1  0
 22 47  1  0
 23 48  1  0
 25 49  1  0
 28 50  1  0
M  END
>  <smiles>  (36) 
N#Cc1ccc2c(OCC3CCCCC3)nc(/C=C/c3cccnc3)nc2c1

>  <score_type>  (36) 
oracle

>  <origin>  (36) 
autodockgpu

>  <m_score__min__energy>  (36) 
-9.4900000000000002

>  <m_primary>  (36) 
energy

>  <rmsd>  (36) 
8.128094155043769

>  <m_score__min__rmsd>  (36) 
8.128094155043769

>  <meeko>  (36) 
{"free_energy": -8.66, "intermolecular_energy": -10.75, "internal_energy": -1.1, "cluster_size": 14, "cluster_id": 2, "rank_in_cluster": 3}

>  <energy>  (36) 
-8.8

>  <cluster_rmsd>  (36) 
0.0

>  <cluster>  (36) 
2

$$$$

     RDKit          3D

 50 53  0  0  0  0  0  0  0  0999 V2000
  146.3120   73.0160  218.6300 N   0  0  0  0  0  0  0  0  0  0  0  0
  145.3150   73.3260  219.1400 C   0  0  0  0  0  0  0  0  0  0  0  0
  144.0850   73.7310  219.7610 C   0  0  0  0  0  0  0  0  0  0  0  0
  143.5960   75.0030  219.6290 C   0  0  0  0  0  0  0  0  0  0  0  0
  142.4160   75.4070  220.2190 C   0  0  0  0  0  0  0  0  0  0  0  0
  141.7290   74.4680  220.9630 C   0  0  0  0  0  0  0  0  0  0  0  0
  140.5300   74.8310  221.5800 C   0  0  0  0  0  0  0  0  0  0  0  0
  140.0930   76.1340  221.4050 O   0  0  0  0  0  0  0  0  0  0  0  0
  139.8330   76.8950  222.5660 C   0  0  0  0  0  0  0  0  0  0  0  0
  140.4100   78.3100  222.4230 C   0  0  0  0  0  0  0  0  0  0  0  0
  140.8220   78.5490  221.0220 C   0  0  0  0  0  0  0  0  0  0  0  0
  141.8250   79.6190  220.7960 C   0  0  0  0  0  0  0  0  0  0  0  0
  142.5570   80.1200  221.9810 C   0  0  0  0  0  0  0  0  0  0  0  0
  141.8380   80.0390  223.2960 C   0  0  0  0  0  0  0  0  0  0  0  0
  141.4410   78.5680  223.4710 C   0  0  0  0  0  0  0  0  0  0  0  0
  139.8410   73.9190  222.3160 N   0  0  0  0  0  0  0  0  0  0  0  0
  140.3020   72.6560  222.4630 C   0  0  0  0  0  0  0  0  0  0  0  0
  139.5750   71.6670  223.2490 C   0  0  0  0  0  0  0  0  0  0  0  0
  140.2220   70.8000  224.0090 C   0  0  0  0  0  0  0  0  0  0  0  0
  140.3270   70.9100  225.4440 C   0  0  0  0  0  0  0  0  0  0  0  0
  141.0470   71.8830  226.0780 C   0  0  0  0  0  0  0  0  0  0  0  0
  141.0790   71.8940  227.4530 C   0  0  0  0  0  0  0  0  0  0  0  0
  140.4100   70.9550  228.2160 C   0  0  0  0  0  0  0  0  0  0  0  0
  139.7130   70.0110  227.5720 N   0  0  0  0  0  0  0  0  0  0  0  0
  139.6710   69.9880  226.2460 C   0  0  0  0  0  0  0  0  0  0  0  0
  141.4600   72.3120  221.8660 N   0  0  0  0  0  0  0  0  0  0  0  0
  142.1920   73.1640  221.1230 C   0  0  0  0  0  0  0  0  0  0  0  0
  143.3770   72.8010  220.5150 C   0  0  0  0  0  0  0  0  0  0  0  0
  144.1649   75.7297  219.0305 H   0  0  0  0  0  0  0  0  0  0  0  0
  142.0385   76.4335  220.1017 H   0  0  0  0  0  0  0  0  0  0  0  0
  138.7457   76.9614  222.7191 H   0  0  0  0  0  0  0  0  0  0  0  0
  140.3084   76.4028  223.4272 H   0  0  0  0  0  0  0  0  0  0  0  0
  139.6410   79.0717  222.6194 H   0  0  0  0  0  0  0  0  0  0  0  0
  141.2430   77.6100  220.6335 H   0  0  0  0  0  0  0  0  0  0  0  0
  139.9123   78.8920  220.5075 H   0  0  0  0  0  0  0  0  0  0  0  0
  142.5702   79.2298  220.0866 H   0  0  0  0  0  0  0  0  0  0  0  0
  141.2444   80.4809  220.4355 H   0  0  0  0  0  0  0  0  0  0  0  0
  143.4855   79.5371  222.0713 H   0  0  0  0  0  0  0  0  0  0  0  0
  142.7078   81.1940  221.7974 H   0  0  0  0  0  0  0  0  0  0  0  0
  142.5012   80.3558  224.1144 H   0  0  0  0  0  0  0  0  0  0  0  0
  140.9580   80.6988  223.3153 H   0  0  0  0  0  0  0  0  0  0  0  0
  142.3127   77.9136  223.3230 H   0  0  0  0  0  0  0  0  0  0  0  0
  141.0576   78.3645  224.4818 H   0  0  0  0  0  0  0  0  0  0  0  0
  138.4760   71.6417  223.2094 H   0  0  0  0  0  0  0  0  0  0  0  0
  140.7090   69.9443  223.5185 H   0  0  0  0  0  0  0  0  0  0  0  0
  141.5912   72.6438  225.4992 H   0  0  0  0  0  0  0  0  0  0  0  0
  141.6575   72.6778  227.9638 H   0  0  0  0  0  0  0  0  0  0  0  0
  140.4492   70.9827  229.3150 H   0  0  0  0  0  0  0  0  0  0  0  0
  139.0850   69.1959  225.7570 H   0  0  0  0  0  0  0  0  0  0  0  0
  143.7613   71.7764  220.6268 H   0  0  0  0  0  0  0  0  0  0  0  0
  1  2  3  0
  2  3  1  0
  3  4  2  0
  4  5  1  0
  5  6  2  0
  6  7  1  0
  7  8  1  0
  8  9  1  0
  9 10  1  0
 10 11  1  0
 11 12  1  0
 12 13  1  0
 13 14  1  0
 14 15  1  0
  7 16  2  0
 16 17  1  0
 17 18  1  0
 18 19  2  0
 19 20  1  0
 20 21  2  0
 21 22  1  0
 22 23  2  0
 23 24  1  0
 24 25  2  0
 17 26  2  0
 26 27  1  0
 27 28  2  0
 28  3  1  0
 27  6  1  0
 15 10  1  0
 25 20  1  0
  4 29  1  0
  5 30  1  0
  9 31  1  0
  9 32  1  0
 10 33  1  0
 11 34  1  0
 11 35  1  0
 12 36  1  0
 12 37  1  0
 13 38  1  0
 13 39  1  0
 14 40  1  0
 14 41  1  0
 15 42  1  0
 15 43  1  0
 18 44  1  0
 19 45  1  0
 21 46  1  0
 22 47  1  0
 23 48  1  0
 25 49  1  0
 28 50  1  0
M  END
>  <smiles>  (37) 
N#Cc1ccc2c(OCC3CCCCC3)nc(/C=C/c3cccnc3)nc2c1

>  <score_type>  (37) 
oracle

>  <origin>  (37) 
autodockgpu

>  <m_score__min__energy>  (37) 
-9.4900000000000002

>  <m_primary>  (37) 
energy

>  <rmsd>  (37) 
7.482651765517813

>  <m_score__min__rmsd>  (37) 
7.482651765517813

>  <meeko>  (37) 
{"free_energy": -9.15, "intermolecular_energy": -11.24, "internal_energy": -1.16, "cluster_size": 35, "cluster_id": 1, "rank_in_cluster": 23}

>  <energy>  (37) 
-8.71

>  <cluster_rmsd>  (37) 
0.6

>  <cluster>  (37) 
2

$$$$

     RDKit          3D

 50 53  0  0  0  0  0  0  0  0999 V2000
  146.3050   73.0360  218.9730 N   0  0  0  0  0  0  0  0  0  0  0  0
  145.2550   73.0050  219.4690 C   0  0  0  0  0  0  0  0  0  0  0  0
  143.9640   72.9810  220.0990 C   0  0  0  0  0  0  0  0  0  0  0  0
  143.3210   71.8060  220.3790 C   0  0  0  0  0  0  0  0  0  0  0  0
  142.0820   71.7660  220.9840 C   0  0  0  0  0  0  0  0  0  0  0  0
  141.4980   72.9760  221.3050 C   0  0  0  0  0  0  0  0  0  0  0  0
  140.2440   72.9870  221.9180 C   0  0  0  0  0  0  0  0  0  0  0  0
  139.6490   71.7620  222.1730 O   0  0  0  0  0  0  0  0  0  0  0  0
  139.0560   71.5780  223.4420 C   0  0  0  0  0  0  0  0  0  0  0  0
  139.9510   70.7050  224.3330 C   0  0  0  0  0  0  0  0  0  0  0  0
  139.2500   69.4480  224.6770 C   0  0  0  0  0  0  0  0  0  0  0  0
  139.7210   68.7320  225.8890 C   0  0  0  0  0  0  0  0  0  0  0  0
  140.6020   69.4790  226.8140 C   0  0  0  0  0  0  0  0  0  0  0  0
  141.4540   70.5540  226.2050 C   0  0  0  0  0  0  0  0  0  0  0  0
  140.4890   71.4980  225.4780 C   0  0  0  0  0  0  0  0  0  0  0  0
  139.6540   74.1690  222.2400 N   0  0  0  0  0  0  0  0  0  0  0  0
  140.2680   75.3450  221.9740 C   0  0  0  0  0  0  0  0  0  0  0  0
  139.6490   76.6200  222.3130 C   0  0  0  0  0  0  0  0  0  0  0  0
  140.0180   77.7330  221.7020 C   0  0  0  0  0  0  0  0  0  0  0  0
  140.9990   78.6510  222.2270 C   0  0  0  0  0  0  0  0  0  0  0  0
  141.6650   79.5670  221.4630 C   0  0  0  0  0  0  0  0  0  0  0  0
  142.5820   80.3940  222.0690 C   0  0  0  0  0  0  0  0  0  0  0  0
  142.8550   80.3320  223.4230 C   0  0  0  0  0  0  0  0  0  0  0  0
  142.1900   79.4260  224.1500 N   0  0  0  0  0  0  0  0  0  0  0  0
  141.3020   78.6210  223.5810 C   0  0  0  0  0  0  0  0  0  0  0  0
  141.4780   75.3280  221.3820 N   0  0  0  0  0  0  0  0  0  0  0  0
  142.1180   74.1950  221.0370 C   0  0  0  0  0  0  0  0  0  0  0  0
  143.3580   74.1890  220.4300 C   0  0  0  0  0  0  0  0  0  0  0  0
  143.8105   70.8579  220.1116 H   0  0  0  0  0  0  0  0  0  0  0  0
  141.5805   70.8114  221.2015 H   0  0  0  0  0  0  0  0  0  0  0  0
  138.9146   72.5581  223.9209 H   0  0  0  0  0  0  0  0  0  0  0  0
  138.0861   71.0758  223.3117 H   0  0  0  0  0  0  0  0  0  0  0  0
  140.8518   70.3812  223.7910 H   0  0  0  0  0  0  0  0  0  0  0  0
  138.1868   69.6889  224.8243 H   0  0  0  0  0  0  0  0  0  0  0  0
  139.4547   68.7645  223.8398 H   0  0  0  0  0  0  0  0  0  0  0  0
  138.8316   68.4215  226.4569 H   0  0  0  0  0  0  0  0  0  0  0  0
  140.3417   67.9073  225.5089 H   0  0  0  0  0  0  0  0  0  0  0  0
  139.9639   69.9499  227.5763 H   0  0  0  0  0  0  0  0  0  0  0  0
  141.3096   68.7343  227.2074 H   0  0  0  0  0  0  0  0  0  0  0  0
  142.0019   71.0973  226.9890 H   0  0  0  0  0  0  0  0  0  0  0  0
  142.2013   70.1335  225.5161 H   0  0  0  0  0  0  0  0  0  0  0  0
  139.6742   71.8078  226.1489 H   0  0  0  0  0  0  0  0  0  0  0  0
  140.9902   72.4173  225.1409 H   0  0  0  0  0  0  0  0  0  0  0  0
  138.8666   76.6568  223.0853 H   0  0  0  0  0  0  0  0  0  0  0  0
  139.5492   77.9731  220.7363 H   0  0  0  0  0  0  0  0  0  0  0  0
  141.4714   79.6419  220.3828 H   0  0  0  0  0  0  0  0  0  0  0  0
  143.1178   81.1318  221.4538 H   0  0  0  0  0  0  0  0  0  0  0  0
  143.5927   81.0036  223.8864 H   0  0  0  0  0  0  0  0  0  0  0  0
  140.7783   77.8913  224.2160 H   0  0  0  0  0  0  0  0  0  0  0  0
  143.8666   75.1388  220.2081 H   0  0  0  0  0  0  0  0  0  0  0  0
  1  2  3  0
  2  3  1  0
  3  4  2  0
  4  5  1  0
  5  6  2  0
  6  7  1  0
  7  8  1  0
  8  9  1  0
  9 10  1  0
 10 11  1  0
 11 12  1  0
 12 13  1  0
 13 14  1  0
 14 15  1  0
  7 16  2  0
 16 17  1  0
 17 18  1  0
 18 19  2  0
 19 20  1  0
 20 21  2  0
 21 22  1  0
 22 23  2  0
 23 24  1  0
 24 25  2  0
 17 26  2  0
 26 27  1  0
 27 28  2  0
 28  3  1  0
 27  6  1  0
 15 10  1  0
 25 20  1  0
  4 29  1  0
  5 30  1  0
  9 31  1  0
  9 32  1  0
 10 33  1  0
 11 34  1  0
 11 35  1  0
 12 36  1  0
 12 37  1  0
 13 38  1  0
 13 39  1  0
 14 40  1  0
 14 41  1  0
 15 42  1  0
 15 43  1  0
 18 44  1  0
 19 45  1  0
 21 46  1  0
 22 47  1  0
 23 48  1  0
 25 49  1  0
 28 50  1  0
M  END
>  <smiles>  (38) 
N#Cc1ccc2c(OCC3CCCCC3)nc(/C=C/c3cccnc3)nc2c1

>  <score_type>  (38) 
oracle

>  <origin>  (38) 
autodockgpu

>  <m_score__min__energy>  (38) 
-9.4900000000000002

>  <m_primary>  (38) 
energy

>  <rmsd>  (38) 
8.200011157272725

>  <m_score__min__rmsd>  (38) 
8.200011157272725

>  <meeko>  (38) 
{"free_energy": -8.71, "intermolecular_energy": -10.8, "internal_energy": -1.08, "cluster_size": 14, "cluster_id": 2, "rank_in_cluster": 2}

>  <energy>  (38) 
-8.66

>  <cluster_rmsd>  (38) 
0.27

>  <cluster>  (38) 
2

$$$$

     RDKit          3D

 50 53  0  0  0  0  0  0  0  0999 V2000
  146.3170   73.0270  218.7190 N   0  0  0  0  0  0  0  0  0  0  0  0
  145.3080   73.3080  219.2240 C   0  0  0  0  0  0  0  0  0  0  0  0
  144.0570   73.6700  219.8300 C   0  0  0  0  0  0  0  0  0  0  0  0
  143.5190   74.9190  219.6810 C   0  0  0  0  0  0  0  0  0  0  0  0
  142.3190   75.2820  220.2570 C   0  0  0  0  0  0  0  0  0  0  0  0
  141.6630   74.3230  221.0030 C   0  0  0  0  0  0  0  0  0  0  0  0
  140.4440   74.6430  221.6050 C   0  0  0  0  0  0  0  0  0  0  0  0
  139.9570   75.9260  221.4140 O   0  0  0  0  0  0  0  0  0  0  0  0
  140.0440   76.8240  222.5010 C   0  0  0  0  0  0  0  0  0  0  0  0
  141.1120   77.8930  222.2310 C   0  0  0  0  0  0  0  0  0  0  0  0
  141.5640   78.4890  223.5080 C   0  0  0  0  0  0  0  0  0  0  0  0
  142.1910   79.8320  223.4310 C   0  0  0  0  0  0  0  0  0  0  0  0
  142.0190   80.5870  222.1700 C   0  0  0  0  0  0  0  0  0  0  0  0
  141.8460   79.7720  220.9210 C   0  0  0  0  0  0  0  0  0  0  0  0
  140.6500   78.8470  221.1810 C   0  0  0  0  0  0  0  0  0  0  0  0
  139.7840   73.7110  222.3440 N   0  0  0  0  0  0  0  0  0  0  0  0
  140.2940   72.4690  222.5070 C   0  0  0  0  0  0  0  0  0  0  0  0
  139.6000   71.4590  223.2950 C   0  0  0  0  0  0  0  0  0  0  0  0
  139.8590   71.3120  224.5840 C   0  0  0  0  0  0  0  0  0  0  0  0
  139.9450   70.0320  225.2460 C   0  0  0  0  0  0  0  0  0  0  0  0
  140.7450   69.7910  226.3260 C   0  0  0  0  0  0  0  0  0  0  0  0
  140.7500   68.5320  226.8790 C   0  0  0  0  0  0  0  0  0  0  0  0
  139.9750   67.5010  226.3810 C   0  0  0  0  0  0  0  0  0  0  0  0
  139.2000   67.7620  225.3210 N   0  0  0  0  0  0  0  0  0  0  0  0
  139.1830   68.9720  224.7760 C   0  0  0  0  0  0  0  0  0  0  0  0
  141.4710   72.1660  221.9240 N   0  0  0  0  0  0  0  0  0  0  0  0
  142.1750   73.0390  221.1790 C   0  0  0  0  0  0  0  0  0  0  0  0
  143.3800   72.7190  220.5860 C   0  0  0  0  0  0  0  0  0  0  0  0
  144.0636   75.6617  219.0794 H   0  0  0  0  0  0  0  0  0  0  0  0
  141.9028   76.2919  220.1275 H   0  0  0  0  0  0  0  0  0  0  0  0
  139.0697   77.3139  222.6447 H   0  0  0  0  0  0  0  0  0  0  0  0
  140.3231   76.2626  223.4048 H   0  0  0  0  0  0  0  0  0  0  0  0
  142.0183   77.4454  221.7972 H   0  0  0  0  0  0  0  0  0  0  0  0
  140.6875   78.5675  224.1680 H   0  0  0  0  0  0  0  0  0  0  0  0
  142.3565   77.8202  223.8750 H   0  0  0  0  0  0  0  0  0  0  0  0
  141.7674   80.4420  224.2424 H   0  0  0  0  0  0  0  0  0  0  0  0
  143.2725   79.6448  223.5043 H   0  0  0  0  0  0  0  0  0  0  0  0
  141.1286   81.2235  222.2800 H   0  0  0  0  0  0  0  0  0  0  0  0
  142.9600   81.1392  222.0300 H   0  0  0  0  0  0  0  0  0  0  0  0
  141.6420   80.4280  220.0619 H   0  0  0  0  0  0  0  0  0  0  0  0
  142.7547   79.1986  220.6854 H   0  0  0  0  0  0  0  0  0  0  0  0
  139.7859   79.4257  221.5394 H   0  0  0  0  0  0  0  0  0  0  0  0
  140.3273   78.3267  220.2671 H   0  0  0  0  0  0  0  0  0  0  0  0
  138.8526   70.8117  222.8130 H   0  0  0  0  0  0  0  0  0  0  0  0
  140.0181   72.2183  225.1867 H   0  0  0  0  0  0  0  0  0  0  0  0
  141.3741   70.5896  226.7461 H   0  0  0  0  0  0  0  0  0  0  0  0
  141.3941   68.3381  227.7493 H   0  0  0  0  0  0  0  0  0  0  0  0
  139.9945   66.5014  226.8396 H   0  0  0  0  0  0  0  0  0  0  0  0
  138.5311   69.1434  223.9067 H   0  0  0  0  0  0  0  0  0  0  0  0
  143.8046   71.7120  220.7114 H   0  0  0  0  0  0  0  0  0  0  0  0
  1  2  3  0
  2  3  1  0
  3  4  2  0
  4  5  1  0
  5  6  2  0
  6  7  1  0
  7  8  1  0
  8  9  1  0
  9 10  1  0
 10 11  1  0
 11 12  1  0
 12 13  1  0
 13 14  1  0
 14 15  1  0
  7 16  2  0
 16 17  1  0
 17 18  1  0
 18 19  2  0
 19 20  1  0
 20 21  2  0
 21 22  1  0
 22 23  2  0
 23 24  1  0
 24 25  2  0
 17 26  2  0
 26 27  1  0
 27 28  2  0
 28  3  1  0
 27  6  1  0
 15 10  1  0
 25 20  1  0
  4 29  1  0
  5 30  1  0
  9 31  1  0
  9 32  1  0
 10 33  1  0
 11 34  1  0
 11 35  1  0
 12 36  1  0
 12 37  1  0
 13 38  1  0
 13 39  1  0
 14 40  1  0
 14 41  1  0
 15 42  1  0
 15 43  1  0
 18 44  1  0
 19 45  1  0
 21 46  1  0
 22 47  1  0
 23 48  1  0
 25 49  1  0
 28 50  1  0
M  END
>  <smiles>  (39) 
N#Cc1ccc2c(OCC3CCCCC3)nc(/C=C/c3cccnc3)nc2c1

>  <score_type>  (39) 
oracle

>  <origin>  (39) 
autodockgpu

>  <m_score__min__energy>  (39) 
-9.4900000000000002

>  <m_primary>  (39) 
energy

>  <rmsd>  (39) 
7.572487962490378

>  <m_score__min__rmsd>  (39) 
7.572487962490378

>  <meeko>  (39) 
{"free_energy": -9.47, "intermolecular_energy": -11.56, "internal_energy": -1.0, "cluster_size": 35, "cluster_id": 1, "rank_in_cluster": 2}

>  <energy>  (39) 
-8.57

>  <cluster_rmsd>  (39) 
0.61

>  <cluster>  (39) 
2

$$$$

     RDKit          3D

 50 53  0  0  0  0  0  0  0  0999 V2000
  146.3140   73.0300  218.5940 N   0  0  0  0  0  0  0  0  0  0  0  0
  145.3320   73.4050  219.0900 C   0  0  0  0  0  0  0  0  0  0  0  0
  144.1170   73.8470  219.7160 C   0  0  0  0  0  0  0  0  0  0  0  0
  143.6860   75.1420  219.6150 C   0  0  0  0  0  0  0  0  0  0  0  0
  142.5210   75.5830  220.2100 C   0  0  0  0  0  0  0  0  0  0  0  0
  141.7890   74.6560  220.9260 C   0  0  0  0  0  0  0  0  0  0  0  0
  140.6030   75.0550  221.5460 C   0  0  0  0  0  0  0  0  0  0  0  0
  140.2250   76.3800  221.4030 O   0  0  0  0  0  0  0  0  0  0  0  0
  139.6880   77.0300  222.5370 C   0  0  0  0  0  0  0  0  0  0  0  0
  140.6250   78.1510  223.0090 C   0  0  0  0  0  0  0  0  0  0  0  0
  139.8310   79.3060  223.4850 C   0  0  0  0  0  0  0  0  0  0  0  0
  140.5160   80.6230  223.5030 C   0  0  0  0  0  0  0  0  0  0  0  0
  141.7880   80.7330  222.7550 C   0  0  0  0  0  0  0  0  0  0  0  0
  142.5950   79.4750  222.6190 C   0  0  0  0  0  0  0  0  0  0  0  0
  141.6630   78.4410  221.9760 C   0  0  0  0  0  0  0  0  0  0  0  0
  139.8700   74.1560  222.2540 N   0  0  0  0  0  0  0  0  0  0  0  0
  140.2740   72.8700  222.3690 C   0  0  0  0  0  0  0  0  0  0  0  0
  139.4990   71.8940  223.1250 C   0  0  0  0  0  0  0  0  0  0  0  0
  140.1010   70.9250  223.7930 C   0  0  0  0  0  0  0  0  0  0  0  0
  140.2560   70.9130  225.2280 C   0  0  0  0  0  0  0  0  0  0  0  0
  141.0160   71.8170  225.9150 C   0  0  0  0  0  0  0  0  0  0  0  0
  141.0940   71.7130  227.2840 C   0  0  0  0  0  0  0  0  0  0  0  0
  140.4320   70.7250  227.9900 C   0  0  0  0  0  0  0  0  0  0  0  0
  139.6940   69.8510  227.2950 N   0  0  0  0  0  0  0  0  0  0  0  0
  139.6080   69.9390  225.9740 C   0  0  0  0  0  0  0  0  0  0  0  0
  141.4190   72.4910  221.7690 N   0  0  0  0  0  0  0  0  0  0  0  0
  142.1920   73.3280  221.0530 C   0  0  0  0  0  0  0  0  0  0  0  0
  143.3640   72.9300  220.4410 C   0  0  0  0  0  0  0  0  0  0  0  0
  144.2902   75.8579  219.0384 H   0  0  0  0  0  0  0  0  0  0  0  0
  142.1898   76.6279  220.1179 H   0  0  0  0  0  0  0  0  0  0  0  0
  138.7098   77.4612  222.2776 H   0  0  0  0  0  0  0  0  0  0  0  0
  139.5759   76.2953  223.3480 H   0  0  0  0  0  0  0  0  0  0  0  0
  141.2090   77.8348  223.8859 H   0  0  0  0  0  0  0  0  0  0  0  0
  138.9504   79.3970  222.8321 H   0  0  0  0  0  0  0  0  0  0  0  0
  139.6010   79.0850  224.5377 H   0  0  0  0  0  0  0  0  0  0  0  0
  139.8199   81.3640  223.0832 H   0  0  0  0  0  0  0  0  0  0  0  0
  140.7907   80.7858  224.5557 H   0  0  0  0  0  0  0  0  0  0  0  0
  141.5503   81.0889  221.7417 H   0  0  0  0  0  0  0  0  0  0  0  0
  142.4143   81.4187  223.3445 H   0  0  0  0  0  0  0  0  0  0  0  0
  143.4712   79.6507  221.9775 H   0  0  0  0  0  0  0  0  0  0  0  0
  142.9683   79.1289  223.5942 H   0  0  0  0  0  0  0  0  0  0  0  0
  141.1985   78.8528  221.0679 H   0  0  0  0  0  0  0  0  0  0  0  0
  142.2047   77.5330  221.6723 H   0  0  0  0  0  0  0  0  0  0  0  0
  138.4014   71.9645  223.1398 H   0  0  0  0  0  0  0  0  0  0  0  0
  140.5079   70.0778  223.2215 H   0  0  0  0  0  0  0  0  0  0  0  0
  141.5559   72.6138  225.3825 H   0  0  0  0  0  0  0  0  0  0  0  0
  141.7047   72.4416  227.8373 H   0  0  0  0  0  0  0  0  0  0  0  0
  140.5094   70.6597  229.0853 H   0  0  0  0  0  0  0  0  0  0  0  0
  138.9902   69.2006  225.4420 H   0  0  0  0  0  0  0  0  0  0  0  0
  143.7022   71.8868  220.5270 H   0  0  0  0  0  0  0  0  0  0  0  0
  1  2  3  0
  2  3  1  0
  3  4  2  0
  4  5  1  0
  5  6  2  0
  6  7  1  0
  7  8  1  0
  8  9  1  0
  9 10  1  0
 10 11  1  0
 11 12  1  0
 12 13  1  0
 13 14  1  0
 14 15  1  0
  7 16  2  0
 16 17  1  0
 17 18  1  0
 18 19  2  0
 19 20  1  0
 20 21  2  0
 21 22  1  0
 22 23  2  0
 23 24  1  0
 24 25  2  0
 17 26  2  0
 26 27  1  0
 27 28  2  0
 28  3  1  0
 27  6  1  0
 15 10  1  0
 25 20  1  0
  4 29  1  0
  5 30  1  0
  9 31  1  0
  9 32  1  0
 10 33  1  0
 11 34  1  0
 11 35  1  0
 12 36  1  0
 12 37  1  0
 13 38  1  0
 13 39  1  0
 14 40  1  0
 14 41  1  0
 15 42  1  0
 15 43  1  0
 18 44  1  0
 19 45  1  0
 21 46  1  0
 22 47  1  0
 23 48  1  0
 25 49  1  0
 28 50  1  0
M  END
>  <smiles>  (40) 
N#Cc1ccc2c(OCC3CCCCC3)nc(/C=C/c3cccnc3)nc2c1

>  <score_type>  (40) 
oracle

>  <origin>  (40) 
autodockgpu

>  <m_score__min__energy>  (40) 
-9.4900000000000002

>  <m_primary>  (40) 
energy

>  <rmsd>  (40) 
7.358403025603609

>  <m_score__min__rmsd>  (40) 
7.358403025603609

>  <meeko>  (40) 
{"free_energy": -9.14, "intermolecular_energy": -11.23, "internal_energy": -1.07, "cluster_size": 35, "cluster_id": 1, "rank_in_cluster": 24}

>  <energy>  (40) 
-8.56

>  <cluster_rmsd>  (40) 
0.77

>  <cluster>  (40) 
2

$$$$

     RDKit          3D

 50 53  0  0  0  0  0  0  0  0999 V2000
  145.9510   72.6470  217.8800 N   0  0  0  0  0  0  0  0  0  0  0  0
  145.0940   73.0960  218.5250 C   0  0  0  0  0  0  0  0  0  0  0  0
  144.0210   73.6480  219.3050 C   0  0  0  0  0  0  0  0  0  0  0  0
  143.7470   74.9890  219.3050 C   0  0  0  0  0  0  0  0  0  0  0  0
  142.7200   75.5340  220.0480 C   0  0  0  0  0  0  0  0  0  0  0  0
  141.9610   74.6650  220.8080 C   0  0  0  0  0  0  0  0  0  0  0  0
  140.9110   75.1700  221.5760 C   0  0  0  0  0  0  0  0  0  0  0  0
  140.6880   76.5370  221.5310 O   0  0  0  0  0  0  0  0  0  0  0  0
  140.4270   77.1950  222.7530 C   0  0  0  0  0  0  0  0  0  0  0  0
  140.6980   78.7000  222.6220 C   0  0  0  0  0  0  0  0  0  0  0  0
  142.1370   78.9360  222.3680 C   0  0  0  0  0  0  0  0  0  0  0  0
  142.6600   80.2830  222.7040 C   0  0  0  0  0  0  0  0  0  0  0  0
  141.8070   81.1490  223.5480 C   0  0  0  0  0  0  0  0  0  0  0  0
  140.3260   80.9290  223.4490 C   0  0  0  0  0  0  0  0  0  0  0  0
  140.0960   79.4460  223.7670 C   0  0  0  0  0  0  0  0  0  0  0  0
  140.1530   74.3290  222.3300 N   0  0  0  0  0  0  0  0  0  0  0  0
  140.4030   73.0000  222.3470 C   0  0  0  0  0  0  0  0  0  0  0  0
  139.6010   72.0850  223.1490 C   0  0  0  0  0  0  0  0  0  0  0  0
  140.1610   71.0590  223.7680 C   0  0  0  0  0  0  0  0  0  0  0  0
  140.3150   70.9700  225.2000 C   0  0  0  0  0  0  0  0  0  0  0  0
  141.0200   71.8740  225.9440 C   0  0  0  0  0  0  0  0  0  0  0  0
  141.1020   71.6920  227.3040 C   0  0  0  0  0  0  0  0  0  0  0  0
  140.4980   70.6270  227.9470 C   0  0  0  0  0  0  0  0  0  0  0  0
  139.8130   69.7550  227.1970 N   0  0  0  0  0  0  0  0  0  0  0  0
  139.7240   69.9170  225.8820 C   0  0  0  0  0  0  0  0  0  0  0  0
  141.4180   72.5180  221.6030 N   0  0  0  0  0  0  0  0  0  0  0  0
  142.2070   73.2930  220.8350 C   0  0  0  0  0  0  0  0  0  0  0  0
  143.2450   72.7900  220.0760 C   0  0  0  0  0  0  0  0  0  0  0  0
  144.3683   75.6567  218.6901 H   0  0  0  0  0  0  0  0  0  0  0  0
  142.5143   76.6145  220.0358 H   0  0  0  0  0  0  0  0  0  0  0  0
  139.3739   77.0396  223.0300 H   0  0  0  0  0  0  0  0  0  0  0  0
  141.0883   76.7807  223.5283 H   0  0  0  0  0  0  0  0  0  0  0  0
  140.1894   79.1167  221.7401 H   0  0  0  0  0  0  0  0  0  0  0  0
  142.7046   78.2012  222.9578 H   0  0  0  0  0  0  0  0  0  0  0  0
  142.2578   78.8421  221.2787 H   0  0  0  0  0  0  0  0  0  0  0  0
  143.6154   80.1448  223.2313 H   0  0  0  0  0  0  0  0  0  0  0  0
  142.7307   80.8080  221.7400 H   0  0  0  0  0  0  0  0  0  0  0  0
  142.0998   80.9875  224.5960 H   0  0  0  0  0  0  0  0  0  0  0  0
  141.9751   82.1718  223.1797 H   0  0  0  0  0  0  0  0  0  0  0  0
  139.7962   81.5623  224.1758 H   0  0  0  0  0  0  0  0  0  0  0  0
  139.9460   81.1903  222.4504 H   0  0  0  0  0  0  0  0  0  0  0  0
  140.5931   79.1723  224.7093 H   0  0  0  0  0  0  0  0  0  0  0  0
  139.0280   79.2140  223.8918 H   0  0  0  0  0  0  0  0  0  0  0  0
  138.5172   72.2495  223.2407 H   0  0  0  0  0  0  0  0  0  0  0  0
  140.5312   70.2241  223.1549 H   0  0  0  0  0  0  0  0  0  0  0  0
  141.5129   72.7318  225.4632 H   0  0  0  0  0  0  0  0  0  0  0  0
  141.6688   72.4201  227.9028 H   0  0  0  0  0  0  0  0  0  0  0  0
  140.5777   70.5008  229.0368 H   0  0  0  0  0  0  0  0  0  0  0  0
  139.1515   69.1772  225.3033 H   0  0  0  0  0  0  0  0  0  0  0  0
  143.4579   71.7108  220.0814 H   0  0  0  0  0  0  0  0  0  0  0  0
  1  2  3  0
  2  3  1  0
  3  4  2  0
  4  5  1  0
  5  6  2  0
  6  7  1  0
  7  8  1  0
  8  9  1  0
  9 10  1  0
 10 11  1  0
 11 12  1  0
 12 13  1  0
 13 14  1  0
 14 15  1  0
  7 16  2  0
 16 17  1  0
 17 18  1  0
 18 19  2  0
 19 20  1  0
 20 21  2  0
 21 22  1  0
 22 23  2  0
 23 24  1  0
 24 25  2  0
 17 26  2  0
 26 27  1  0
 27 28  2  0
 28  3  1  0
 27  6  1  0
 15 10  1  0
 25 20  1  0
  4 29  1  0
  5 30  1  0
  9 31  1  0
  9 32  1  0
 10 33  1  0
 11 34  1  0
 11 35  1  0
 12 36  1  0
 12 37  1  0
 13 38  1  0
 13 39  1  0
 14 40  1  0
 14 41  1  0
 15 42  1  0
 15 43  1  0
 18 44  1  0
 19 45  1  0
 21 46  1  0
 22 47  1  0
 23 48  1  0
 25 49  1  0
 28 50  1  0
M  END
>  <smiles>  (41) 
N#Cc1ccc2c(OCC3CCCCC3)nc(/C=C/c3cccnc3)nc2c1

>  <score_type>  (41) 
oracle

>  <origin>  (41) 
autodockgpu

>  <m_score__min__energy>  (41) 
-9.4900000000000002

>  <m_primary>  (41) 
energy

>  <rmsd>  (41) 
7.4576081558343486

>  <m_score__min__rmsd>  (41) 
7.4576081558343486

>  <meeko>  (41) 
{"free_energy": -8.98, "intermolecular_energy": -11.07, "internal_energy": -0.9, "cluster_size": 35, "cluster_id": 1, "rank_in_cluster": 32}

>  <energy>  (41) 
-8.53

>  <cluster_rmsd>  (41) 
0.48

>  <cluster>  (41) 
2

$$$$

     RDKit          3D

 50 53  0  0  0  0  0  0  0  0999 V2000
  146.3240   73.0250  218.9100 N   0  0  0  0  0  0  0  0  0  0  0  0
  145.3000   73.3410  219.3610 C   0  0  0  0  0  0  0  0  0  0  0  0
  144.0460   73.7480  219.9300 C   0  0  0  0  0  0  0  0  0  0  0  0
  143.5690   75.0220  219.7840 C   0  0  0  0  0  0  0  0  0  0  0  0
  142.3660   75.4290  220.3250 C   0  0  0  0  0  0  0  0  0  0  0  0
  141.6440   74.4890  221.0340 C   0  0  0  0  0  0  0  0  0  0  0  0
  140.4210   74.8530  221.6000 C   0  0  0  0  0  0  0  0  0  0  0  0
  139.9970   76.1590  221.4130 O   0  0  0  0  0  0  0  0  0  0  0  0
  140.0920   77.0380  222.5150 C   0  0  0  0  0  0  0  0  0  0  0  0
  141.1580   78.1120  222.2560 C   0  0  0  0  0  0  0  0  0  0  0  0
  141.6870   78.6200  223.5420 C   0  0  0  0  0  0  0  0  0  0  0  0
  142.3260   79.9590  223.5170 C   0  0  0  0  0  0  0  0  0  0  0  0
  142.0950   80.7960  222.3180 C   0  0  0  0  0  0  0  0  0  0  0  0
  141.8440   80.0660  221.0310 C   0  0  0  0  0  0  0  0  0  0  0  0
  140.6520   79.1370  221.2960 C   0  0  0  0  0  0  0  0  0  0  0  0
  139.6970   73.9410  222.3010 N   0  0  0  0  0  0  0  0  0  0  0  0
  140.1460   72.6750  222.4610 C   0  0  0  0  0  0  0  0  0  0  0  0
  139.3820   71.6860  223.2100 C   0  0  0  0  0  0  0  0  0  0  0  0
  139.9960   70.7550  223.9210 C   0  0  0  0  0  0  0  0  0  0  0  0
  140.2570   70.8640  225.3360 C   0  0  0  0  0  0  0  0  0  0  0  0
  139.7250   70.0240  226.2720 C   0  0  0  0  0  0  0  0  0  0  0  0
  140.0420   70.2200  227.5950 C   0  0  0  0  0  0  0  0  0  0  0  0
  140.8780   71.2380  228.0130 C   0  0  0  0  0  0  0  0  0  0  0  0
  141.3870   72.0490  227.0780 N   0  0  0  0  0  0  0  0  0  0  0  0
  141.0920   71.8720  225.7960 C   0  0  0  0  0  0  0  0  0  0  0  0
  141.3270   72.3300  221.9130 N   0  0  0  0  0  0  0  0  0  0  0  0
  142.0940   73.1820  221.2060 C   0  0  0  0  0  0  0  0  0  0  0  0
  143.3030   72.8170  220.6480 C   0  0  0  0  0  0  0  0  0  0  0  0
  144.1664   75.7490  219.2143 H   0  0  0  0  0  0  0  0  0  0  0  0
  141.9982   76.4578  220.1969 H   0  0  0  0  0  0  0  0  0  0  0  0
  139.1187   77.5251  222.6744 H   0  0  0  0  0  0  0  0  0  0  0  0
  140.3779   76.4609  223.4067 H   0  0  0  0  0  0  0  0  0  0  0  0
  142.0335   77.6843  221.7454 H   0  0  0  0  0  0  0  0  0  0  0  0
  140.8490   78.6638  224.2532 H   0  0  0  0  0  0  0  0  0  0  0  0
  142.4898   77.9215  223.8206 H   0  0  0  0  0  0  0  0  0  0  0  0
  141.9552   80.5191  224.3881 H   0  0  0  0  0  0  0  0  0  0  0  0
  143.4074   79.7575  223.5183 H   0  0  0  0  0  0  0  0  0  0  0  0
  141.2201   81.4321  222.5178 H   0  0  0  0  0  0  0  0  0  0  0  0
  143.0340   81.3473  222.1620 H   0  0  0  0  0  0  0  0  0  0  0  0
  141.6021   80.7785  220.2286 H   0  0  0  0  0  0  0  0  0  0  0  0
  142.7311   79.5007  220.7093 H   0  0  0  0  0  0  0  0  0  0  0  0
  139.8160   79.6992  221.7376 H   0  0  0  0  0  0  0  0  0  0  0  0
  140.2739   78.6802  220.3695 H   0  0  0  0  0  0  0  0  0  0  0  0
  138.2827   71.7139  223.1839 H   0  0  0  0  0  0  0  0  0  0  0  0
  140.3275   69.8431  223.4027 H   0  0  0  0  0  0  0  0  0  0  0  0
  139.0546   69.2050  225.9725 H   0  0  0  0  0  0  0  0  0  0  0  0
  139.6148   69.5419  228.3485 H   0  0  0  0  0  0  0  0  0  0  0  0
  141.1169   71.3769  229.0777 H   0  0  0  0  0  0  0  0  0  0  0  0
  141.5326   72.5605  225.0599 H   0  0  0  0  0  0  0  0  0  0  0  0
  143.6784   71.7904  220.7712 H   0  0  0  0  0  0  0  0  0  0  0  0
  1  2  3  0
  2  3  1  0
  3  4  2  0
  4  5  1  0
  5  6  2  0
  6  7  1  0
  7  8  1  0
  8  9  1  0
  9 10  1  0
 10 11  1  0
 11 12  1  0
 12 13  1  0
 13 14  1  0
 14 15  1  0
  7 16  2  0
 16 17  1  0
 17 18  1  0
 18 19  2  0
 19 20  1  0
 20 21  2  0
 21 22  1  0
 22 23  2  0
 23 24  1  0
 24 25  2  0
 17 26  2  0
 26 27  1  0
 27 28  2  0
 28  3  1  0
 27  6  1  0
 15 10  1  0
 25 20  1  0
  4 29  1  0
  5 30  1  0
  9 31  1  0
  9 32  1  0
 10 33  1  0
 11 34  1  0
 11 35  1  0
 12 36  1  0
 12 37  1  0
 13 38  1  0
 13 39  1  0
 14 40  1  0
 14 41  1  0
 15 42  1  0
 15 43  1  0
 18 44  1  0
 19 45  1  0
 21 46  1  0
 22 47  1  0
 23 48  1  0
 25 49  1  0
 28 50  1  0
M  END
>  <smiles>  (42) 
N#Cc1ccc2c(OCC3CCCCC3)nc(/C=C/c3cccnc3)nc2c1

>  <score_type>  (42) 
oracle

>  <origin>  (42) 
autodockgpu

>  <m_score__min__energy>  (42) 
-9.4900000000000002

>  <m_primary>  (42) 
energy

>  <rmsd>  (42) 
7.447844855516461

>  <m_score__min__rmsd>  (42) 
7.447844855516461

>  <meeko>  (42) 
{"free_energy": -9.39, "intermolecular_energy": -11.48, "internal_energy": -1.1, "cluster_size": 35, "cluster_id": 1, "rank_in_cluster": 9}

>  <energy>  (42) 
-8.53

>  <cluster_rmsd>  (42) 
0.34

>  <cluster>  (42) 
2

$$$$

     RDKit          3D

 50 53  0  0  0  0  0  0  0  0999 V2000
  146.3250   73.0470  218.9440 N   0  0  0  0  0  0  0  0  0  0  0  0
  145.3060   73.3960  219.3810 C   0  0  0  0  0  0  0  0  0  0  0  0
  144.0460   73.8060  219.9340 C   0  0  0  0  0  0  0  0  0  0  0  0
  143.5520   75.0680  219.7430 C   0  0  0  0  0  0  0  0  0  0  0  0
  142.3430   75.4780  220.2680 C   0  0  0  0  0  0  0  0  0  0  0  0
  141.6320   74.5540  221.0080 C   0  0  0  0  0  0  0  0  0  0  0  0
  140.4030   74.9220  221.5590 C   0  0  0  0  0  0  0  0  0  0  0  0
  139.9630   76.2150  221.3270 O   0  0  0  0  0  0  0  0  0  0  0  0
  139.9930   77.1180  222.4130 C   0  0  0  0  0  0  0  0  0  0  0  0
  141.0970   78.1660  222.2110 C   0  0  0  0  0  0  0  0  0  0  0  0
  141.6260   78.6020  223.5220 C   0  0  0  0  0  0  0  0  0  0  0  0
  142.3100   79.9190  223.5600 C   0  0  0  0  0  0  0  0  0  0  0  0
  142.1200   80.8120  222.3950 C   0  0  0  0  0  0  0  0  0  0  0  0
  141.8610   80.1450  221.0760 C   0  0  0  0  0  0  0  0  0  0  0  0
  140.6360   79.2460  221.2890 C   0  0  0  0  0  0  0  0  0  0  0  0
  139.6900   74.0250  222.2910 N   0  0  0  0  0  0  0  0  0  0  0  0
  140.1550   72.7720  222.4950 C   0  0  0  0  0  0  0  0  0  0  0  0
  139.4020   71.7990  223.2770 C   0  0  0  0  0  0  0  0  0  0  0  0
  140.0230   70.8330  223.9320 C   0  0  0  0  0  0  0  0  0  0  0  0
  140.2780   70.8590  225.3520 C   0  0  0  0  0  0  0  0  0  0  0  0
  140.8740   71.9060  225.9960 C   0  0  0  0  0  0  0  0  0  0  0  0
  141.0680   71.8250  227.3550 C   0  0  0  0  0  0  0  0  0  0  0  0
  140.6830   70.7210  228.0930 C   0  0  0  0  0  0  0  0  0  0  0  0
  140.1010   69.7080  227.4400 N   0  0  0  0  0  0  0  0  0  0  0  0
  139.9060   69.7710  226.1290 C   0  0  0  0  0  0  0  0  0  0  0  0
  141.3410   72.4220  221.9610 N   0  0  0  0  0  0  0  0  0  0  0  0
  142.0990   73.2590  221.2260 C   0  0  0  0  0  0  0  0  0  0  0  0
  143.3130   72.8910  220.6830 C   0  0  0  0  0  0  0  0  0  0  0  0
  144.1406   75.7825  219.1487 H   0  0  0  0  0  0  0  0  0  0  0  0
  141.9623   76.4969  220.1040 H   0  0  0  0  0  0  0  0  0  0  0  0
  139.0205   77.6266  222.4878 H   0  0  0  0  0  0  0  0  0  0  0  0
  140.1998   76.5570  223.3363 H   0  0  0  0  0  0  0  0  0  0  0  0
  141.9646   77.7315  221.6929 H   0  0  0  0  0  0  0  0  0  0  0  0
  140.7810   78.6448  224.2249 H   0  0  0  0  0  0  0  0  0  0  0  0
  142.4014   77.8658  223.7803 H   0  0  0  0  0  0  0  0  0  0  0  0
  141.9484   80.4545  224.4502 H   0  0  0  0  0  0  0  0  0  0  0  0
  143.3840   79.6815  223.5639 H   0  0  0  0  0  0  0  0  0  0  0  0
  141.2635   81.4672  222.6122 H   0  0  0  0  0  0  0  0  0  0  0  0
  143.0780   81.3385  222.2721 H   0  0  0  0  0  0  0  0  0  0  0  0
  141.6524   80.8979  220.3016 H   0  0  0  0  0  0  0  0  0  0  0  0
  142.7329   79.5644  220.7404 H   0  0  0  0  0  0  0  0  0  0  0  0
  139.8135   79.8168  221.7446 H   0  0  0  0  0  0  0  0  0  0  0  0
  140.2542   78.8407  220.3403 H   0  0  0  0  0  0  0  0  0  0  0  0
  138.3052   71.8693  223.3225 H   0  0  0  0  0  0  0  0  0  0  0  0
  140.3656   69.9576  223.3607 H   0  0  0  0  0  0  0  0  0  0  0  0
  141.1931   72.7982  225.4373 H   0  0  0  0  0  0  0  0  0  0  0  0
  141.5466   72.6688  227.8735 H   0  0  0  0  0  0  0  0  0  0  0  0
  140.8493   70.6768  229.1795 H   0  0  0  0  0  0  0  0  0  0  0  0
  139.4243   68.9160  225.6320 H   0  0  0  0  0  0  0  0  0  0  0  0
  143.7012   71.8742  220.8423 H   0  0  0  0  0  0  0  0  0  0  0  0
  1  2  3  0
  2  3  1  0
  3  4  2  0
  4  5  1  0
  5  6  2  0
  6  7  1  0
  7  8  1  0
  8  9  1  0
  9 10  1  0
 10 11  1  0
 11 12  1  0
 12 13  1  0
 13 14  1  0
 14 15  1  0
  7 16  2  0
 16 17  1  0
 17 18  1  0
 18 19  2  0
 19 20  1  0
 20 21  2  0
 21 22  1  0
 22 23  2  0
 23 24  1  0
 24 25  2  0
 17 26  2  0
 26 27  1  0
 27 28  2  0
 28  3  1  0
 27  6  1  0
 15 10  1  0
 25 20  1  0
  4 29  1  0
  5 30  1  0
  9 31  1  0
  9 32  1  0
 10 33  1  0
 11 34  1  0
 11 35  1  0
 12 36  1  0
 12 37  1  0
 13 38  1  0
 13 39  1  0
 14 40  1  0
 14 41  1  0
 15 42  1  0
 15 43  1  0
 18 44  1  0
 19 45  1  0
 21 46  1  0
 22 47  1  0
 23 48  1  0
 25 49  1  0
 28 50  1  0
M  END
>  <smiles>  (43) 
N#Cc1ccc2c(OCC3CCCCC3)nc(/C=C/c3cccnc3)nc2c1

>  <score_type>  (43) 
oracle

>  <origin>  (43) 
autodockgpu

>  <m_score__min__energy>  (43) 
-9.4900000000000002

>  <m_primary>  (43) 
energy

>  <rmsd>  (43) 
7.387959682711388

>  <m_score__min__rmsd>  (43) 
7.387959682711388

>  <meeko>  (43) 
{"free_energy": -9.33, "intermolecular_energy": -11.42, "internal_energy": -1.09, "cluster_size": 35, "cluster_id": 1, "rank_in_cluster": 18}

>  <energy>  (43) 
-8.51

>  <cluster_rmsd>  (43) 
0.51

>  <cluster>  (43) 
2

$$$$

     RDKit          3D

 50 53  0  0  0  0  0  0  0  0999 V2000
  146.3170   73.0180  218.9220 N   0  0  0  0  0  0  0  0  0  0  0  0
  145.3000   73.3320  219.3890 C   0  0  0  0  0  0  0  0  0  0  0  0
  144.0350   73.6980  219.9630 C   0  0  0  0  0  0  0  0  0  0  0  0
  143.5200   74.9590  219.8270 C   0  0  0  0  0  0  0  0  0  0  0  0
  142.3060   75.3250  220.3720 C   0  0  0  0  0  0  0  0  0  0  0  0
  141.6130   74.3590  221.0740 C   0  0  0  0  0  0  0  0  0  0  0  0
  140.3800   74.6830  221.6440 C   0  0  0  0  0  0  0  0  0  0  0  0
  139.9170   75.9770  221.4680 O   0  0  0  0  0  0  0  0  0  0  0  0
  140.0330   76.8640  222.5610 C   0  0  0  0  0  0  0  0  0  0  0  0
  141.1170   77.9160  222.2870 C   0  0  0  0  0  0  0  0  0  0  0  0
  141.6080   78.4800  223.5650 C   0  0  0  0  0  0  0  0  0  0  0  0
  142.2600   79.8120  223.4980 C   0  0  0  0  0  0  0  0  0  0  0  0
  142.0770   80.5920  222.2540 C   0  0  0  0  0  0  0  0  0  0  0  0
  141.8620   79.8040  220.9950 C   0  0  0  0  0  0  0  0  0  0  0  0
  140.6530   78.8980  221.2640 C   0  0  0  0  0  0  0  0  0  0  0  0
  139.6830   73.7440  222.3380 N   0  0  0  0  0  0  0  0  0  0  0  0
  140.1700   72.4910  222.4870 C   0  0  0  0  0  0  0  0  0  0  0  0
  139.4360   71.4730  223.2290 C   0  0  0  0  0  0  0  0  0  0  0  0
  139.6210   71.3190  224.5290 C   0  0  0  0  0  0  0  0  0  0  0  0
  139.8710   70.0460  225.1600 C   0  0  0  0  0  0  0  0  0  0  0  0
  140.8750   69.8300  226.0610 C   0  0  0  0  0  0  0  0  0  0  0  0
  141.0220   68.5750  226.6020 C   0  0  0  0  0  0  0  0  0  0  0  0
  140.1910   67.5220  226.2670 C   0  0  0  0  0  0  0  0  0  0  0  0
  139.2150   67.7570  225.3810 N   0  0  0  0  0  0  0  0  0  0  0  0
  139.0590   68.9630  224.8500 C   0  0  0  0  0  0  0  0  0  0  0  0
  141.3600   72.1840  221.9350 N   0  0  0  0  0  0  0  0  0  0  0  0
  142.1010   73.0640  221.2350 C   0  0  0  0  0  0  0  0  0  0  0  0
  143.3200   72.7400  220.6740 C   0  0  0  0  0  0  0  0  0  0  0  0
  144.0948   75.7081  219.2626 H   0  0  0  0  0  0  0  0  0  0  0  0
  141.9074   76.3432  220.2521 H   0  0  0  0  0  0  0  0  0  0  0  0
  139.0694   77.3701  222.7203 H   0  0  0  0  0  0  0  0  0  0  0  0
  140.3126   76.2901  223.4568 H   0  0  0  0  0  0  0  0  0  0  0  0
  142.0045   77.4579  221.8261 H   0  0  0  0  0  0  0  0  0  0  0  0
  140.7475   78.5637  224.2451 H   0  0  0  0  0  0  0  0  0  0  0  0
  142.3946   77.7893  223.9031 H   0  0  0  0  0  0  0  0  0  0  0  0
  141.8654   80.4159  224.3284 H   0  0  0  0  0  0  0  0  0  0  0  0
  143.3388   79.6026  223.5456 H   0  0  0  0  0  0  0  0  0  0  0  0
  141.2020   81.2437  222.3939 H   0  0  0  0  0  0  0  0  0  0  0  0
  143.0261   81.1274  222.1038 H   0  0  0  0  0  0  0  0  0  0  0  0
  141.6534   80.4795  220.1523 H   0  0  0  0  0  0  0  0  0  0  0  0
  142.7539   79.2173  220.7297 H   0  0  0  0  0  0  0  0  0  0  0  0
  139.8084   79.4872  221.6507 H   0  0  0  0  0  0  0  0  0  0  0  0
  140.3012   78.4008  220.3480 H   0  0  0  0  0  0  0  0  0  0  0  0
  138.7202   70.8257  222.7012 H   0  0  0  0  0  0  0  0  0  0  0  0
  139.5820   72.2142  225.1670 H   0  0  0  0  0  0  0  0  0  0  0  0
  141.5540   70.6463  226.3485 H   0  0  0  0  0  0  0  0  0  0  0  0
  141.8302   68.4021  227.3279 H   0  0  0  0  0  0  0  0  0  0  0  0
  140.3270   66.5257  226.7129 H   0  0  0  0  0  0  0  0  0  0  0  0
  138.2440   69.1127  224.1266 H   0  0  0  0  0  0  0  0  0  0  0  0
  143.7259   71.7241  220.7893 H   0  0  0  0  0  0  0  0  0  0  0  0
  1  2  3  0
  2  3  1  0
  3  4  2  0
  4  5  1  0
  5  6  2  0
  6  7  1  0
  7  8  1  0
  8  9  1  0
  9 10  1  0
 10 11  1  0
 11 12  1  0
 12 13  1  0
 13 14  1  0
 14 15  1  0
  7 16  2  0
 16 17  1  0
 17 18  1  0
 18 19  2  0
 19 20  1  0
 20 21  2  0
 21 22  1  0
 22 23  2  0
 23 24  1  0
 24 25  2  0
 17 26  2  0
 26 27  1  0
 27 28  2  0
 28  3  1  0
 27  6  1  0
 15 10  1  0
 25 20  1  0
  4 29  1  0
  5 30  1  0
  9 31  1  0
  9 32  1  0
 10 33  1  0
 11 34  1  0
 11 35  1  0
 12 36  1  0
 12 37  1  0
 13 38  1  0
 13 39  1  0
 14 40  1  0
 14 41  1  0
 15 42  1  0
 15 43  1  0
 18 44  1  0
 19 45  1  0
 21 46  1  0
 22 47  1  0
 23 48  1  0
 25 49  1  0
 28 50  1  0
M  END
>  <smiles>  (44) 
N#Cc1ccc2c(OCC3CCCCC3)nc(/C=C/c3cccnc3)nc2c1

>  <score_type>  (44) 
oracle

>  <origin>  (44) 
autodockgpu

>  <m_score__min__energy>  (44) 
-9.4900000000000002

>  <m_primary>  (44) 
energy

>  <rmsd>  (44) 
7.534504784804113

>  <m_score__min__rmsd>  (44) 
7.534504784804113

>  <meeko>  (44) 
{"free_energy": -9.39, "intermolecular_energy": -11.48, "internal_energy": -1.02, "cluster_size": 35, "cluster_id": 1, "rank_in_cluster": 11}

>  <energy>  (44) 
-8.49

>  <cluster_rmsd>  (44) 
0.43

>  <cluster>  (44) 
2

$$$$

     RDKit          3D

 50 53  0  0  0  0  0  0  0  0999 V2000
  146.3090   73.0480  218.7940 N   0  0  0  0  0  0  0  0  0  0  0  0
  145.2940   73.3290  219.2850 C   0  0  0  0  0  0  0  0  0  0  0  0
  144.0320   73.6880  219.8710 C   0  0  0  0  0  0  0  0  0  0  0  0
  143.4780   74.9250  219.6840 C   0  0  0  0  0  0  0  0  0  0  0  0
  142.2670   75.2850  220.2400 C   0  0  0  0  0  0  0  0  0  0  0  0
  141.6200   74.3370  221.0080 C   0  0  0  0  0  0  0  0  0  0  0  0
  140.3920   74.6550  221.5920 C   0  0  0  0  0  0  0  0  0  0  0  0
  139.8870   75.9250  221.3620 O   0  0  0  0  0  0  0  0  0  0  0  0
  139.9290   76.8460  222.4320 C   0  0  0  0  0  0  0  0  0  0  0  0
  141.0340   77.8870  222.2030 C   0  0  0  0  0  0  0  0  0  0  0  0
  141.5220   78.4000  223.5030 C   0  0  0  0  0  0  0  0  0  0  0  0
  142.1980   79.7210  223.4860 C   0  0  0  0  0  0  0  0  0  0  0  0
  142.0400   80.5460  222.2670 C   0  0  0  0  0  0  0  0  0  0  0  0
  141.8230   79.8030  220.9810 C   0  0  0  0  0  0  0  0  0  0  0  0
  140.5960   78.9110  221.2080 C   0  0  0  0  0  0  0  0  0  0  0  0
  139.7400   73.7350  222.3510 N   0  0  0  0  0  0  0  0  0  0  0  0
  140.2670   72.5050  222.5520 C   0  0  0  0  0  0  0  0  0  0  0  0
  139.5810   71.5070  223.3620 C   0  0  0  0  0  0  0  0  0  0  0  0
  139.9150   71.3190  224.6280 C   0  0  0  0  0  0  0  0  0  0  0  0
  139.9800   70.0220  225.2580 C   0  0  0  0  0  0  0  0  0  0  0  0
  140.7930   69.7340  226.3170 C   0  0  0  0  0  0  0  0  0  0  0  0
  140.7740   68.4630  226.8410 C   0  0  0  0  0  0  0  0  0  0  0  0
  139.9630   67.4650  226.3340 C   0  0  0  0  0  0  0  0  0  0  0  0
  139.1750   67.7710  225.2960 N   0  0  0  0  0  0  0  0  0  0  0  0
  139.1810   68.9940  224.7790 C   0  0  0  0  0  0  0  0  0  0  0  0
  141.4520   72.2040  221.9860 N   0  0  0  0  0  0  0  0  0  0  0  0
  142.1500   73.0670  221.2230 C   0  0  0  0  0  0  0  0  0  0  0  0
  143.3640   72.7480  220.6480 C   0  0  0  0  0  0  0  0  0  0  0  0
  144.0174   75.6595  219.0680 H   0  0  0  0  0  0  0  0  0  0  0  0
  141.8359   76.2840  220.0783 H   0  0  0  0  0  0  0  0  0  0  0  0
  138.9586   77.3587  222.5065 H   0  0  0  0  0  0  0  0  0  0  0  0
  140.1422   76.3001  223.3629 H   0  0  0  0  0  0  0  0  0  0  0  0
  141.9181   77.4288  221.7358 H   0  0  0  0  0  0  0  0  0  0  0  0
  140.6563   78.4771  224.1773 H   0  0  0  0  0  0  0  0  0  0  0  0
  142.2928   77.6846  223.8256 H   0  0  0  0  0  0  0  0  0  0  0  0
  141.8070   80.3038  224.3330 H   0  0  0  0  0  0  0  0  0  0  0  0
  143.2724   79.4904  223.5351 H   0  0  0  0  0  0  0  0  0  0  0  0
  141.1751   81.2080  222.4209 H   0  0  0  0  0  0  0  0  0  0  0  0
  142.9991   81.0702  222.1430 H   0  0  0  0  0  0  0  0  0  0  0  0
  141.6349   80.5093  220.1589 H   0  0  0  0  0  0  0  0  0  0  0  0
  142.7068   79.2088  220.7057 H   0  0  0  0  0  0  0  0  0  0  0  0
  139.7580   79.5019  221.6063 H   0  0  0  0  0  0  0  0  0  0  0  0
  140.2439   78.4509  220.2729 H   0  0  0  0  0  0  0  0  0  0  0  0
  138.7768   70.9034  222.9160 H   0  0  0  0  0  0  0  0  0  0  0  0
  140.1574   72.2029  225.2363 H   0  0  0  0  0  0  0  0  0  0  0  0
  141.4514   70.5053  226.7432 H   0  0  0  0  0  0  0  0  0  0  0  0
  141.4280   68.2319  227.6948 H   0  0  0  0  0  0  0  0  0  0  0  0
  139.9651   66.4544  226.7684 H   0  0  0  0  0  0  0  0  0  0  0  0
  138.5179   69.2030  223.9265 H   0  0  0  0  0  0  0  0  0  0  0  0
  143.8023   71.7513  220.8044 H   0  0  0  0  0  0  0  0  0  0  0  0
  1  2  3  0
  2  3  1  0
  3  4  2  0
  4  5  1  0
  5  6  2  0
  6  7  1  0
  7  8  1  0
  8  9  1  0
  9 10  1  0
 10 11  1  0
 11 12  1  0
 12 13  1  0
 13 14  1  0
 14 15  1  0
  7 16  2  0
 16 17  1  0
 17 18  1  0
 18 19  2  0
 19 20  1  0
 20 21  2  0
 21 22  1  0
 22 23  2  0
 23 24  1  0
 24 25  2  0
 17 26  2  0
 26 27  1  0
 27 28  2  0
 28  3  1  0
 27  6  1  0
 15 10  1  0
 25 20  1  0
  4 29  1  0
  5 30  1  0
  9 31  1  0
  9 32  1  0
 10 33  1  0
 11 34  1  0
 11 35  1  0
 12 36  1  0
 12 37  1  0
 13 38  1  0
 13 39  1  0
 14 40  1  0
 14 41  1  0
 15 42  1  0
 15 43  1  0
 18 44  1  0
 19 45  1  0
 21 46  1  0
 22 47  1  0
 23 48  1  0
 25 49  1  0
 28 50  1  0
M  END
>  <smiles>  (45) 
N#Cc1ccc2c(OCC3CCCCC3)nc(/C=C/c3cccnc3)nc2c1

>  <score_type>  (45) 
oracle

>  <origin>  (45) 
autodockgpu

>  <m_score__min__energy>  (45) 
-9.4900000000000002

>  <m_primary>  (45) 
energy

>  <rmsd>  (45) 
7.546672187330393

>  <m_score__min__rmsd>  (45) 
7.546672187330393

>  <meeko>  (45) 
{"free_energy": -9.49, "intermolecular_energy": -11.58, "internal_energy": -1.01, "cluster_size": 35, "cluster_id": 1, "rank_in_cluster": 1}

>  <energy>  (45) 
-8.45

>  <cluster_rmsd>  (45) 
0.46

>  <cluster>  (45) 
2

$$$$

     RDKit          3D

 50 53  0  0  0  0  0  0  0  0999 V2000
  146.3240   73.0240  218.9600 N   0  0  0  0  0  0  0  0  0  0  0  0
  145.3100   73.3440  219.4290 C   0  0  0  0  0  0  0  0  0  0  0  0
  144.0460   73.7340  219.9880 C   0  0  0  0  0  0  0  0  0  0  0  0
  143.5570   75.0040  219.8480 C   0  0  0  0  0  0  0  0  0  0  0  0
  142.3440   75.3930  220.3800 C   0  0  0  0  0  0  0  0  0  0  0  0
  141.6240   74.4390  221.0730 C   0  0  0  0  0  0  0  0  0  0  0  0
  140.3920   74.7860  221.6290 C   0  0  0  0  0  0  0  0  0  0  0  0
  139.9560   76.0890  221.4500 O   0  0  0  0  0  0  0  0  0  0  0  0
  140.0830   76.9740  222.5430 C   0  0  0  0  0  0  0  0  0  0  0  0
  141.1470   78.0420  222.2500 C   0  0  0  0  0  0  0  0  0  0  0  0
  141.6880   78.5780  223.5190 C   0  0  0  0  0  0  0  0  0  0  0  0
  142.3270   79.9160  223.4590 C   0  0  0  0  0  0  0  0  0  0  0  0
  142.0850   80.7250  222.2440 C   0  0  0  0  0  0  0  0  0  0  0  0
  141.8220   79.9670  220.9760 C   0  0  0  0  0  0  0  0  0  0  0  0
  140.6330   79.0450  221.2720 C   0  0  0  0  0  0  0  0  0  0  0  0
  139.6690   73.8600  222.3140 N   0  0  0  0  0  0  0  0  0  0  0  0
  140.1300   72.5970  222.4670 C   0  0  0  0  0  0  0  0  0  0  0  0
  139.3690   71.5930  223.1990 C   0  0  0  0  0  0  0  0  0  0  0  0
  139.9830   70.6770  223.9270 C   0  0  0  0  0  0  0  0  0  0  0  0
  140.2900   70.8360  225.3280 C   0  0  0  0  0  0  0  0  0  0  0  0
  139.8140   70.0110  226.3070 C   0  0  0  0  0  0  0  0  0  0  0  0
  140.1710   70.2550  227.6120 C   0  0  0  0  0  0  0  0  0  0  0  0
  140.9930   71.3070  227.9700 C   0  0  0  0  0  0  0  0  0  0  0  0
  141.4470   72.1030  226.9940 N   0  0  0  0  0  0  0  0  0  0  0  0
  141.1120   71.8800  225.7290 C   0  0  0  0  0  0  0  0  0  0  0  0
  141.3210   72.2690  221.9280 N   0  0  0  0  0  0  0  0  0  0  0  0
  142.0860   73.1350  221.2380 C   0  0  0  0  0  0  0  0  0  0  0  0
  143.3050   72.7880  220.6900 C   0  0  0  0  0  0  0  0  0  0  0  0
  144.1524   75.7424  219.2910 H   0  0  0  0  0  0  0  0  0  0  0  0
  141.9667   76.4190  220.2574 H   0  0  0  0  0  0  0  0  0  0  0  0
  139.1162   77.4664  222.7242 H   0  0  0  0  0  0  0  0  0  0  0  0
  140.3892   76.4011  223.4307 H   0  0  0  0  0  0  0  0  0  0  0  0
  142.0176   77.6028  221.7409 H   0  0  0  0  0  0  0  0  0  0  0  0
  140.8567   78.6376  224.2369 H   0  0  0  0  0  0  0  0  0  0  0  0
  142.4935   77.8857  223.8050 H   0  0  0  0  0  0  0  0  0  0  0  0
  141.9639   80.4955  224.3206 H   0  0  0  0  0  0  0  0  0  0  0  0
  143.4084   79.7148  223.4560 H   0  0  0  0  0  0  0  0  0  0  0  0
  141.2120   81.3656  222.4375 H   0  0  0  0  0  0  0  0  0  0  0  0
  143.0229   81.2718  222.0669 H   0  0  0  0  0  0  0  0  0  0  0  0
  141.5729   80.6617  220.1604 H   0  0  0  0  0  0  0  0  0  0  0  0
  142.7060   79.3944  220.6588 H   0  0  0  0  0  0  0  0  0  0  0  0
  139.8009   79.6172  221.7081 H   0  0  0  0  0  0  0  0  0  0  0  0
  140.2468   78.5676  220.3593 H   0  0  0  0  0  0  0  0  0  0  0  0
  138.2703   71.5976  223.1450 H   0  0  0  0  0  0  0  0  0  0  0  0
  140.2775   69.7377  223.4360 H   0  0  0  0  0  0  0  0  0  0  0  0
  139.1563   69.1659  226.0556 H   0  0  0  0  0  0  0  0  0  0  0  0
  139.7887   69.5890  228.3996 H   0  0  0  0  0  0  0  0  0  0  0  0
  141.2649   71.4841  229.0211 H   0  0  0  0  0  0  0  0  0  0  0  0
  141.5066   72.5582  224.9581 H   0  0  0  0  0  0  0  0  0  0  0  0
  143.6902   71.7644  220.8082 H   0  0  0  0  0  0  0  0  0  0  0  0
  1  2  3  0
  2  3  1  0
  3  4  2  0
  4  5  1  0
  5  6  2  0
  6  7  1  0
  7  8  1  0
  8  9  1  0
  9 10  1  0
 10 11  1  0
 11 12  1  0
 12 13  1  0
 13 14  1  0
 14 15  1  0
  7 16  2  0
 16 17  1  0
 17 18  1  0
 18 19  2  0
 19 20  1  0
 20 21  2  0
 21 22  1  0
 22 23  2  0
 23 24  1  0
 24 25  2  0
 17 26  2  0
 26 27  1  0
 27 28  2  0
 28  3  1  0
 27  6  1  0
 15 10  1  0
 25 20  1  0
  4 29  1  0
  5 30  1  0
  9 31  1  0
  9 32  1  0
 10 33  1  0
 11 34  1  0
 11 35  1  0
 12 36  1  0
 12 37  1  0
 13 38  1  0
 13 39  1  0
 14 40  1  0
 14 41  1  0
 15 42  1  0
 15 43  1  0
 18 44  1  0
 19 45  1  0
 21 46  1  0
 22 47  1  0
 23 48  1  0
 25 49  1  0
 28 50  1  0
M  END
>  <smiles>  (46) 
N#Cc1ccc2c(OCC3CCCCC3)nc(/C=C/c3cccnc3)nc2c1

>  <score_type>  (46) 
oracle

>  <origin>  (46) 
autodockgpu

>  <m_score__min__energy>  (46) 
-9.4900000000000002

>  <m_primary>  (46) 
energy

>  <rmsd>  (46) 
7.476464027456019

>  <m_score__min__rmsd>  (46) 
7.476464027456019

>  <meeko>  (46) 
{"free_energy": -9.36, "intermolecular_energy": -11.44, "internal_energy": -1.13, "cluster_size": 35, "cluster_id": 1, "rank_in_cluster": 16}

>  <energy>  (46) 
-8.38

>  <cluster_rmsd>  (46) 
0.75

>  <cluster>  (46) 
2

$$$$

     RDKit          3D

 50 53  0  0  0  0  0  0  0  0999 V2000
  146.3020   73.0300  218.7470 N   0  0  0  0  0  0  0  0  0  0  0  0
  145.3090   73.3610  219.2510 C   0  0  0  0  0  0  0  0  0  0  0  0
  144.0700   73.7700  219.8530 C   0  0  0  0  0  0  0  0  0  0  0  0
  143.5840   75.0410  219.7080 C   0  0  0  0  0  0  0  0  0  0  0  0
  142.3960   75.4490  220.2790 C   0  0  0  0  0  0  0  0  0  0  0  0
  141.6980   74.5130  221.0180 C   0  0  0  0  0  0  0  0  0  0  0  0
  140.4900   74.8790  221.6160 C   0  0  0  0  0  0  0  0  0  0  0  0
  140.0560   76.1810  221.4290 O   0  0  0  0  0  0  0  0  0  0  0  0
  140.1430   77.0610  222.5310 C   0  0  0  0  0  0  0  0  0  0  0  0
  141.1980   78.1450  222.2720 C   0  0  0  0  0  0  0  0  0  0  0  0
  141.7480   78.6320  223.5570 C   0  0  0  0  0  0  0  0  0  0  0  0
  142.3790   79.9750  223.5450 C   0  0  0  0  0  0  0  0  0  0  0  0
  142.1220   80.8320  222.3660 C   0  0  0  0  0  0  0  0  0  0  0  0
  141.8520   80.1240  221.0710 C   0  0  0  0  0  0  0  0  0  0  0  0
  140.6700   79.1840  221.3400 C   0  0  0  0  0  0  0  0  0  0  0  0
  139.7900   73.9710  222.3460 N   0  0  0  0  0  0  0  0  0  0  0  0
  140.2490   72.7080  222.5050 C   0  0  0  0  0  0  0  0  0  0  0  0
  139.5100   71.7230  223.2850 C   0  0  0  0  0  0  0  0  0  0  0  0
  140.1480   70.8310  224.0240 C   0  0  0  0  0  0  0  0  0  0  0  0
  140.2940   70.9290  225.4560 C   0  0  0  0  0  0  0  0  0  0  0  0
  141.0360   71.8920  226.0770 C   0  0  0  0  0  0  0  0  0  0  0  0
  141.1070   71.8910  227.4510 C   0  0  0  0  0  0  0  0  0  0  0  0
  140.4550   70.9500  228.2250 C   0  0  0  0  0  0  0  0  0  0  0  0
  139.7340   70.0160  227.5940 N   0  0  0  0  0  0  0  0  0  0  0  0
  139.6550   70.0030  226.2690 C   0  0  0  0  0  0  0  0  0  0  0  0
  141.4150   72.3610  221.9260 N   0  0  0  0  0  0  0  0  0  0  0  0
  142.1580   73.2090  221.1900 C   0  0  0  0  0  0  0  0  0  0  0  0
  143.3510   72.8430  220.6010 C   0  0  0  0  0  0  0  0  0  0  0  0
  144.1620   75.7644  219.1141 H   0  0  0  0  0  0  0  0  0  0  0  0
  142.0207   76.4751  220.1514 H   0  0  0  0  0  0  0  0  0  0  0  0
  139.1651   77.5386  222.6908 H   0  0  0  0  0  0  0  0  0  0  0  0
  140.4350   76.4865  223.4225 H   0  0  0  0  0  0  0  0  0  0  0  0
  142.0660   77.7316  221.7375 H   0  0  0  0  0  0  0  0  0  0  0  0
  140.9232   78.6576  224.2844 H   0  0  0  0  0  0  0  0  0  0  0  0
  142.5597   77.9332  223.8077 H   0  0  0  0  0  0  0  0  0  0  0  0
  142.0207   80.5170  224.4326 H   0  0  0  0  0  0  0  0  0  0  0  0
  143.4613   79.7798  223.5234 H   0  0  0  0  0  0  0  0  0  0  0  0
  141.2473   81.4593  222.5928 H   0  0  0  0  0  0  0  0  0  0  0  0
  143.0550   81.3915  222.2034 H   0  0  0  0  0  0  0  0  0  0  0  0
  141.5922   80.8494  220.2860 H   0  0  0  0  0  0  0  0  0  0  0  0
  142.7362   79.5694  220.7236 H   0  0  0  0  0  0  0  0  0  0  0  0
  139.8390   79.7335  221.8063 H   0  0  0  0  0  0  0  0  0  0  0  0
  140.2780   78.7418  220.4122 H   0  0  0  0  0  0  0  0  0  0  0  0
  138.4103   71.7216  223.2587 H   0  0  0  0  0  0  0  0  0  0  0  0
  140.5939   69.9627  223.5168 H   0  0  0  0  0  0  0  0  0  0  0  0
  141.5675   72.6550  225.4894 H   0  0  0  0  0  0  0  0  0  0  0  0
  141.7043   72.6673  227.9515 H   0  0  0  0  0  0  0  0  0  0  0  0
  140.5263   70.9682  229.3225 H   0  0  0  0  0  0  0  0  0  0  0  0
  139.0517   69.2175  225.7904 H   0  0  0  0  0  0  0  0  0  0  0  0
  143.7334   71.8188  220.7228 H   0  0  0  0  0  0  0  0  0  0  0  0
  1  2  3  0
  2  3  1  0
  3  4  2  0
  4  5  1  0
  5  6  2  0
  6  7  1  0
  7  8  1  0
  8  9  1  0
  9 10  1  0
 10 11  1  0
 11 12  1  0
 12 13  1  0
 13 14  1  0
 14 15  1  0
  7 16  2  0
 16 17  1  0
 17 18  1  0
 18 19  2  0
 19 20  1  0
 20 21  2  0
 21 22  1  0
 22 23  2  0
 23 24  1  0
 24 25  2  0
 17 26  2  0
 26 27  1  0
 27 28  2  0
 28  3  1  0
 27  6  1  0
 15 10  1  0
 25 20  1  0
  4 29  1  0
  5 30  1  0
  9 31  1  0
  9 32  1  0
 10 33  1  0
 11 34  1  0
 11 35  1  0
 12 36  1  0
 12 37  1  0
 13 38  1  0
 13 39  1  0
 14 40  1  0
 14 41  1  0
 15 42  1  0
 15 43  1  0
 18 44  1  0
 19 45  1  0
 21 46  1  0
 22 47  1  0
 23 48  1  0
 25 49  1  0
 28 50  1  0
M  END
>  <smiles>  (47) 
N#Cc1ccc2c(OCC3CCCCC3)nc(/C=C/c3cccnc3)nc2c1

>  <score_type>  (47) 
oracle

>  <origin>  (47) 
autodockgpu

>  <m_score__min__energy>  (47) 
-9.4900000000000002

>  <m_primary>  (47) 
energy

>  <rmsd>  (47) 
7.437405108985407

>  <m_score__min__rmsd>  (47) 
7.437405108985407

>  <meeko>  (47) 
{"free_energy": -9.42, "intermolecular_energy": -11.51, "internal_energy": -1.08, "cluster_size": 35, "cluster_id": 1, "rank_in_cluster": 4}

>  <energy>  (47) 
-8.37

>  <cluster_rmsd>  (47) 
0.74

>  <cluster>  (47) 
2

$$$$

     RDKit          3D

 50 53  0  0  0  0  0  0  0  0999 V2000
  146.6680   73.4030  219.3060 N   0  0  0  0  0  0  0  0  0  0  0  0
  145.5890   73.3330  219.7320 C   0  0  0  0  0  0  0  0  0  0  0  0
  144.2630   73.2580  220.2790 C   0  0  0  0  0  0  0  0  0  0  0  0
  143.7120   72.0680  220.6710 C   0  0  0  0  0  0  0  0  0  0  0  0
  142.4400   71.9780  221.1980 C   0  0  0  0  0  0  0  0  0  0  0  0
  141.7250   73.1530  221.3200 C   0  0  0  0  0  0  0  0  0  0  0  0
  140.4330   73.1140  221.8480 C   0  0  0  0  0  0  0  0  0  0  0  0
  139.9370   71.8760  222.2250 O   0  0  0  0  0  0  0  0  0  0  0  0
  139.3110   71.7820  223.4880 C   0  0  0  0  0  0  0  0  0  0  0  0
  140.0720   70.8060  224.3960 C   0  0  0  0  0  0  0  0  0  0  0  0
  139.2690   69.5820  224.6090 C   0  0  0  0  0  0  0  0  0  0  0  0
  139.5920   68.7740  225.8110 C   0  0  0  0  0  0  0  0  0  0  0  0
  140.4380   69.4110  226.8450 C   0  0  0  0  0  0  0  0  0  0  0  0
  141.4030   70.4580  226.3690 C   0  0  0  0  0  0  0  0  0  0  0  0
  140.5620   71.5010  225.6230 C   0  0  0  0  0  0  0  0  0  0  0  0
  139.7140   74.2600  221.9750 N   0  0  0  0  0  0  0  0  0  0  0  0
  140.2340   75.4500  221.5940 C   0  0  0  0  0  0  0  0  0  0  0  0
  139.4760   76.6880  221.7240 C   0  0  0  0  0  0  0  0  0  0  0  0
  139.7190   77.5270  222.7160 C   0  0  0  0  0  0  0  0  0  0  0  0
  140.7920   78.4920  222.7090 C   0  0  0  0  0  0  0  0  0  0  0  0
  141.4560   78.8950  223.8330 C   0  0  0  0  0  0  0  0  0  0  0  0
  142.4650   79.8210  223.7110 C   0  0  0  0  0  0  0  0  0  0  0  0
  142.8310   80.3610  222.4920 C   0  0  0  0  0  0  0  0  0  0  0  0
  142.1660   79.9510  221.4050 N   0  0  0  0  0  0  0  0  0  0  0  0
  141.1900   79.0570  221.5060 C   0  0  0  0  0  0  0  0  0  0  0  0
  141.4810   75.4820  221.0850 N   0  0  0  0  0  0  0  0  0  0  0  0
  142.2480   74.3850  220.9330 C   0  0  0  0  0  0  0  0  0  0  0  0
  143.5250   74.4290  220.4100 C   0  0  0  0  0  0  0  0  0  0  0  0
  144.3058   71.1485  220.5618 H   0  0  0  0  0  0  0  0  0  0  0  0
  142.0140   71.0122  221.5075 H   0  0  0  0  0  0  0  0  0  0  0  0
  139.2950   72.7761  223.9586 H   0  0  0  0  0  0  0  0  0  0  0  0
  138.2849   71.4108  223.3489 H   0  0  0  0  0  0  0  0  0  0  0  0
  140.9930   70.4508  223.9106 H   0  0  0  0  0  0  0  0  0  0  0  0
  138.2140   69.8843  224.6842 H   0  0  0  0  0  0  0  0  0  0  0  0
  139.5005   68.9316  223.7526 H   0  0  0  0  0  0  0  0  0  0  0  0
  138.6408   68.4942  226.2875 H   0  0  0  0  0  0  0  0  0  0  0  0
  140.1897   67.9308  225.4345 H   0  0  0  0  0  0  0  0  0  0  0  0
  139.7692   69.8824  227.5802 H   0  0  0  0  0  0  0  0  0  0  0  0
  141.0630   68.6012  227.2493 H   0  0  0  0  0  0  0  0  0  0  0  0
  141.9162   70.9218  227.2243 H   0  0  0  0  0  0  0  0  0  0  0  0
  142.1778   70.0257  225.7188 H   0  0  0  0  0  0  0  0  0  0  0  0
  139.7155   71.8294  226.2440 H   0  0  0  0  0  0  0  0  0  0  0  0
  141.1456   72.4011  225.3796 H   0  0  0  0  0  0  0  0  0  0  0  0
  138.6934   76.9267  220.9888 H   0  0  0  0  0  0  0  0  0  0  0  0
  139.0646   77.4873  223.5993 H   0  0  0  0  0  0  0  0  0  0  0  0
  141.1880   78.4858  224.8183 H   0  0  0  0  0  0  0  0  0  0  0  0
  143.0004   80.1439  224.6160 H   0  0  0  0  0  0  0  0  0  0  0  0
  143.6406   81.1019  222.4179 H   0  0  0  0  0  0  0  0  0  0  0  0
  140.6694   78.7479  220.5876 H   0  0  0  0  0  0  0  0  0  0  0  0
  143.9584   75.3903  220.0970 H   0  0  0  0  0  0  0  0  0  0  0  0
  1  2  3  0
  2  3  1  0
  3  4  2  0
  4  5  1  0
  5  6  2  0
  6  7  1  0
  7  8  1  0
  8  9  1  0
  9 10  1  0
 10 11  1  0
 11 12  1  0
 12 13  1  0
 13 14  1  0
 14 15  1  0
  7 16  2  0
 16 17  1  0
 17 18  1  0
 18 19  2  0
 19 20  1  0
 20 21  2  0
 21 22  1  0
 22 23  2  0
 23 24  1  0
 24 25  2  0
 17 26  2  0
 26 27  1  0
 27 28  2  0
 28  3  1  0
 27  6  1  0
 15 10  1  0
 25 20  1  0
  4 29  1  0
  5 30  1  0
  9 31  1  0
  9 32  1  0
 10 33  1  0
 11 34  1  0
 11 35  1  0
 12 36  1  0
 12 37  1  0
 13 38  1  0
 13 39  1  0
 14 40  1  0
 14 41  1  0
 15 42  1  0
 15 43  1  0
 18 44  1  0
 19 45  1  0
 21 46  1  0
 22 47  1  0
 23 48  1  0
 25 49  1  0
 28 50  1  0
M  END
>  <smiles>  (48) 
N#Cc1ccc2c(OCC3CCCCC3)nc(/C=C/c3cccnc3)nc2c1

>  <score_type>  (48) 
oracle

>  <origin>  (48) 
autodockgpu

>  <m_score__min__energy>  (48) 
-9.4900000000000002

>  <m_primary>  (48) 
energy

>  <rmsd>  (48) 
8.054495238371912

>  <m_score__min__rmsd>  (48) 
8.054495238371912

>  <meeko>  (48) 
{"free_energy": -8.53, "intermolecular_energy": -10.62, "internal_energy": -1.07, "cluster_size": 14, "cluster_id": 2, "rank_in_cluster": 6}

>  <energy>  (48) 
-8.28

>  <cluster_rmsd>  (48) 
0.62

>  <cluster>  (48) 
2

$$$$

     RDKit          3D

 50 53  0  0  0  0  0  0  0  0999 V2000
  146.3170   73.0150  218.7240 N   0  0  0  0  0  0  0  0  0  0  0  0
  145.3280   73.3500  219.2360 C   0  0  0  0  0  0  0  0  0  0  0  0
  144.1000   73.7740  219.8480 C   0  0  0  0  0  0  0  0  0  0  0  0
  143.6580   75.0660  219.7560 C   0  0  0  0  0  0  0  0  0  0  0  0
  142.4800   75.4890  220.3390 C   0  0  0  0  0  0  0  0  0  0  0  0
  141.7460   74.5460  221.0320 C   0  0  0  0  0  0  0  0  0  0  0  0
  140.5480   74.9270  221.6380 C   0  0  0  0  0  0  0  0  0  0  0  0
  140.1590   76.2500  221.5070 O   0  0  0  0  0  0  0  0  0  0  0  0
  140.2570   77.0750  222.6490 C   0  0  0  0  0  0  0  0  0  0  0  0
  141.2880   78.1890  222.4220 C   0  0  0  0  0  0  0  0  0  0  0  0
  141.8150   78.6640  223.7210 C   0  0  0  0  0  0  0  0  0  0  0  0
  142.4130   80.0220  223.7410 C   0  0  0  0  0  0  0  0  0  0  0  0
  142.1440   80.8960  222.5780 C   0  0  0  0  0  0  0  0  0  0  0  0
  141.9020   80.2080  221.2660 C   0  0  0  0  0  0  0  0  0  0  0  0
  140.7410   79.2350  221.5070 C   0  0  0  0  0  0  0  0  0  0  0  0
  139.8120   74.0120  222.3250 N   0  0  0  0  0  0  0  0  0  0  0  0
  140.2270   72.7290  222.4310 C   0  0  0  0  0  0  0  0  0  0  0  0
  139.4500   71.7370  223.1630 C   0  0  0  0  0  0  0  0  0  0  0  0
  140.0510   70.7980  223.8740 C   0  0  0  0  0  0  0  0  0  0  0  0
  140.2640   70.8800  225.2990 C   0  0  0  0  0  0  0  0  0  0  0  0
  139.7000   70.0220  226.2000 C   0  0  0  0  0  0  0  0  0  0  0  0
  139.9720   70.1930  227.5370 C   0  0  0  0  0  0  0  0  0  0  0  0
  140.7940   71.2020  228.0030 C   0  0  0  0  0  0  0  0  0  0  0  0
  141.3340   72.0310  227.1010 N   0  0  0  0  0  0  0  0  0  0  0  0
  141.0830   71.8790  225.8070 C   0  0  0  0  0  0  0  0  0  0  0  0
  141.3840   72.3680  221.8440 N   0  0  0  0  0  0  0  0  0  0  0  0
  142.1600   73.2210  221.1490 C   0  0  0  0  0  0  0  0  0  0  0  0
  143.3450   72.8410  220.5510 C   0  0  0  0  0  0  0  0  0  0  0  0
  144.2636   75.7944  219.1969 H   0  0  0  0  0  0  0  0  0  0  0  0
  142.1406   76.5320  220.2552 H   0  0  0  0  0  0  0  0  0  0  0  0
  139.2753   77.5269  222.8541 H   0  0  0  0  0  0  0  0  0  0  0  0
  140.5789   76.4618  223.5036 H   0  0  0  0  0  0  0  0  0  0  0  0
  142.1703   77.8068  221.8878 H   0  0  0  0  0  0  0  0  0  0  0  0
  140.9837   78.6552  224.4413 H   0  0  0  0  0  0  0  0  0  0  0  0
  142.6416   77.9805  223.9651 H   0  0  0  0  0  0  0  0  0  0  0  0
  142.0350   80.5370  224.6365 H   0  0  0  0  0  0  0  0  0  0  0  0
  143.4999   79.8537  223.7240 H   0  0  0  0  0  0  0  0  0  0  0  0
  141.2521   81.4965  222.8102 H   0  0  0  0  0  0  0  0  0  0  0  0
  143.0639   81.4818  222.4346 H   0  0  0  0  0  0  0  0  0  0  0  0
  141.6310   80.9426  220.4934 H   0  0  0  0  0  0  0  0  0  0  0  0
  142.8021   79.6823  220.9146 H   0  0  0  0  0  0  0  0  0  0  0  0
  139.8940   79.7548  221.9785 H   0  0  0  0  0  0  0  0  0  0  0  0
  140.3658   78.8030  220.5675 H   0  0  0  0  0  0  0  0  0  0  0  0
  138.3512   71.7697  223.1236 H   0  0  0  0  0  0  0  0  0  0  0  0
  140.4099   69.9010  223.3481 H   0  0  0  0  0  0  0  0  0  0  0  0
  139.0403   69.2092  225.8622 H   0  0  0  0  0  0  0  0  0  0  0  0
  139.5188   69.5014  228.2625 H   0  0  0  0  0  0  0  0  0  0  0  0
  140.9974   71.3197  229.0776 H   0  0  0  0  0  0  0  0  0  0  0  0
  141.5483   72.5814  225.0998 H   0  0  0  0  0  0  0  0  0  0  0  0
  143.6921   71.8002  220.6305 H   0  0  0  0  0  0  0  0  0  0  0  0
  1  2  3  0
  2  3  1  0
  3  4  2  0
  4  5  1  0
  5  6  2  0
  6  7  1  0
  7  8  1  0
  8  9  1  0
  9 10  1  0
 10 11  1  0
 11 12  1  0
 12 13  1  0
 13 14  1  0
 14 15  1  0
  7 16  2  0
 16 17  1  0
 17 18  1  0
 18 19  2  0
 19 20  1  0
 20 21  2  0
 21 22  1  0
 22 23  2  0
 23 24  1  0
 24 25  2  0
 17 26  2  0
 26 27  1  0
 27 28  2  0
 28  3  1  0
 27  6  1  0
 15 10  1  0
 25 20  1  0
  4 29  1  0
  5 30  1  0
  9 31  1  0
  9 32  1  0
 10 33  1  0
 11 34  1  0
 11 35  1  0
 12 36  1  0
 12 37  1  0
 13 38  1  0
 13 39  1  0
 14 40  1  0
 14 41  1  0
 15 42  1  0
 15 43  1  0
 18 44  1  0
 19 45  1  0
 21 46  1  0
 22 47  1  0
 23 48  1  0
 25 49  1  0
 28 50  1  0
M  END
>  <smiles>  (49) 
N#Cc1ccc2c(OCC3CCCCC3)nc(/C=C/c3cccnc3)nc2c1

>  <score_type>  (49) 
oracle

>  <origin>  (49) 
autodockgpu

>  <m_score__min__energy>  (49) 
-9.4900000000000002

>  <m_primary>  (49) 
energy

>  <rmsd>  (49) 
7.430915498903836

>  <m_score__min__rmsd>  (49) 
7.430915498903836

>  <meeko>  (49) 
{"free_energy": -9.4, "intermolecular_energy": -11.49, "internal_energy": -1.07, "cluster_size": 35, "cluster_id": 1, "rank_in_cluster": 8}

>  <energy>  (49) 
-8.24

>  <cluster_rmsd>  (49) 
0.84

>  <cluster>  (49) 
2

$$$$

     RDKit          3D

 50 53  0  0  0  0  0  0  0  0999 V2000
  146.3240   73.0420  218.7670 N   0  0  0  0  0  0  0  0  0  0  0  0
  145.3100   73.3730  219.2310 C   0  0  0  0  0  0  0  0  0  0  0  0
  144.0700   73.7970  219.8170 C   0  0  0  0  0  0  0  0  0  0  0  0
  143.5720   75.0560  219.6170 C   0  0  0  0  0  0  0  0  0  0  0  0
  142.3820   75.4790  220.1730 C   0  0  0  0  0  0  0  0  0  0  0  0
  141.6940   74.5720  220.9550 C   0  0  0  0  0  0  0  0  0  0  0  0
  140.4850   74.9530  221.5390 C   0  0  0  0  0  0  0  0  0  0  0  0
  140.0390   76.2420  221.2950 O   0  0  0  0  0  0  0  0  0  0  0  0
  139.5180   76.9690  222.3890 C   0  0  0  0  0  0  0  0  0  0  0  0
  140.5110   78.0490  222.8400 C   0  0  0  0  0  0  0  0  0  0  0  0
  139.7820   79.1890  223.4370 C   0  0  0  0  0  0  0  0  0  0  0  0
  140.4920   80.4920  223.4680 C   0  0  0  0  0  0  0  0  0  0  0  0
  141.7020   80.6210  222.6260 C   0  0  0  0  0  0  0  0  0  0  0  0
  142.4710   79.3600  222.3610 C   0  0  0  0  0  0  0  0  0  0  0  0
  141.4700   78.3760  221.7430 C   0  0  0  0  0  0  0  0  0  0  0  0
  139.7950   74.0730  222.3110 N   0  0  0  0  0  0  0  0  0  0  0  0
  140.2650   72.8230  222.5260 C   0  0  0  0  0  0  0  0  0  0  0  0
  139.5370   71.8680  223.3510 C   0  0  0  0  0  0  0  0  0  0  0  0
  140.1790   70.9220  224.0150 C   0  0  0  0  0  0  0  0  0  0  0  0
  140.3290   70.9070  225.4510 C   0  0  0  0  0  0  0  0  0  0  0  0
  139.7810   69.9520  226.2600 C   0  0  0  0  0  0  0  0  0  0  0  0
  139.9870   70.0360  227.6170 C   0  0  0  0  0  0  0  0  0  0  0  0
  140.7270   71.0520  228.1920 C   0  0  0  0  0  0  0  0  0  0  0  0
  141.2530   71.9760  227.3790 N   0  0  0  0  0  0  0  0  0  0  0  0
  141.0640   71.9090  226.0670 C   0  0  0  0  0  0  0  0  0  0  0  0
  141.4320   72.4600  221.9590 N   0  0  0  0  0  0  0  0  0  0  0  0
  142.1660   73.2810  221.1830 C   0  0  0  0  0  0  0  0  0  0  0  0
  143.3610   72.8990  220.6080 C   0  0  0  0  0  0  0  0  0  0  0  0
  144.1418   75.7571  218.9894 H   0  0  0  0  0  0  0  0  0  0  0  0
  141.9978   76.4952  220.0007 H   0  0  0  0  0  0  0  0  0  0  0  0
  138.5743   77.4479  222.0887 H   0  0  0  0  0  0  0  0  0  0  0  0
  139.3429   76.2759  223.2251 H   0  0  0  0  0  0  0  0  0  0  0  0
  141.1562   77.6781  223.6500 H   0  0  0  0  0  0  0  0  0  0  0  0
  138.8541   79.3287  222.8629 H   0  0  0  0  0  0  0  0  0  0  0  0
  139.6330   78.9160  224.4921 H   0  0  0  0  0  0  0  0  0  0  0  0
  139.7795   81.2653  223.1448 H   0  0  0  0  0  0  0  0  0  0  0  0
  140.8528   80.5947  224.5020 H   0  0  0  0  0  0  0  0  0  0  0  0
  141.3908   81.0330  221.6547 H   0  0  0  0  0  0  0  0  0  0  0  0
  142.3868   81.2649  223.1973 H   0  0  0  0  0  0  0  0  0  0  0  0
  143.2964   79.5558  221.6607 H   0  0  0  0  0  0  0  0  0  0  0  0
  142.9144   78.9572  223.2836 H   0  0  0  0  0  0  0  0  0  0  0  0
  140.9435   78.8422  220.8971 H   0  0  0  0  0  0  0  0  0  0  0  0
  141.9675   77.4765  221.3513 H   0  0  0  0  0  0  0  0  0  0  0  0
  138.4413   71.9348  223.4222 H   0  0  0  0  0  0  0  0  0  0  0  0
  140.6253   70.0976  223.4394 H   0  0  0  0  0  0  0  0  0  0  0  0
  139.1859   69.1310  225.8336 H   0  0  0  0  0  0  0  0  0  0  0  0
  139.5469   69.2667  228.2686 H   0  0  0  0  0  0  0  0  0  0  0  0
  140.8784   71.0995  229.2805 H   0  0  0  0  0  0  0  0  0  0  0  0
  141.5138   72.6890  225.4351 H   0  0  0  0  0  0  0  0  0  0  0  0
  143.7526   71.8848  220.7752 H   0  0  0  0  0  0  0  0  0  0  0  0
  1  2  3  0
  2  3  1  0
  3  4  2  0
  4  5  1  0
  5  6  2  0
  6  7  1  0
  7  8  1  0
  8  9  1  0
  9 10  1  0
 10 11  1  0
 11 12  1  0
 12 13  1  0
 13 14  1  0
 14 15  1  0
  7 16  2  0
 16 17  1  0
 17 18  1  0
 18 19  2  0
 19 20  1  0
 20 21  2  0
 21 22  1  0
 22 23  2  0
 23 24  1  0
 24 25  2  0
 17 26  2  0
 26 27  1  0
 27 28  2  0
 28  3  1  0
 27  6  1  0
 15 10  1  0
 25 20  1  0
  4 29  1  0
  5 30  1  0
  9 31  1  0
  9 32  1  0
 10 33  1  0
 11 34  1  0
 11 35  1  0
 12 36  1  0
 12 37  1  0
 13 38  1  0
 13 39  1  0
 14 40  1  0
 14 41  1  0
 15 42  1  0
 15 43  1  0
 18 44  1  0
 19 45  1  0
 21 46  1  0
 22 47  1  0
 23 48  1  0
 25 49  1  0
 28 50  1  0
M  END
>  <smiles>  (50) 
N#Cc1ccc2c(OCC3CCCCC3)nc(/C=C/c3cccnc3)nc2c1

>  <score_type>  (50) 
oracle

>  <origin>  (50) 
autodockgpu

>  <m_score__min__energy>  (50) 
-9.4900000000000002

>  <m_primary>  (50) 
energy

>  <rmsd>  (50) 
7.392260487849147

>  <m_score__min__rmsd>  (50) 
7.392260487849147

>  <meeko>  (50) 
{"free_energy": -9.15, "intermolecular_energy": -11.24, "internal_energy": -1.07, "cluster_size": 35, "cluster_id": 1, "rank_in_cluster": 22}

>  <energy>  (50) 
-7.35

>  <cluster_rmsd>  (50) 
0.0

>  <cluster>  (50) 
3

$$$$
