
     RDKit          3D

 42 44  0  0  0  0  0  0  0  0999 V2000
  138.5050   68.6960  222.7790 C   0  0  0  0  0  0  0  0  0  0  0  0
  138.3810   69.9750  223.3310 O   0  0  0  0  0  0  0  0  0  0  0  0
  139.1880   70.3940  224.3490 C   0  0  0  0  0  0  0  0  0  0  0  0
  139.2070   69.5950  225.4990 C   0  0  0  0  0  0  0  0  0  0  0  0
  139.9860   69.9360  226.5770 C   0  0  0  0  0  0  0  0  0  0  0  0
  140.7350   71.0820  226.4720 C   0  0  0  0  0  0  0  0  0  0  0  0
  140.7140   71.8620  225.3410 C   0  0  0  0  0  0  0  0  0  0  0  0
  139.9270   71.5380  224.2250 C   0  0  0  0  0  0  0  0  0  0  0  0
  139.9770   72.4170  223.1420 N   0  0  0  0  0  0  0  0  0  0  0  0
  140.8030   72.4270  222.0150 C   0  0  0  0  0  0  0  0  0  0  0  0
  141.6780   71.5720  221.8570 O   0  0  0  0  0  0  0  0  0  0  0  0
  140.7040   73.4570  220.9190 C   0  0  0  0  0  0  0  0  0  0  0  0
  140.7790   74.8140  221.3870 N   0  0  0  0  0  0  0  0  0  0  0  0
  139.6920   75.4970  221.9680 C   0  0  0  0  0  0  0  0  0  0  0  0
  138.5380   74.9710  222.1220 O   0  0  0  0  0  0  0  0  0  0  0  0
  139.8800   76.8750  222.4200 C   0  0  0  0  0  0  0  0  0  0  0  0
  138.8060   77.6840  222.7320 C   0  0  0  0  0  0  0  0  0  0  0  0
  138.9310   78.9830  223.1610 C   0  0  0  0  0  0  0  0  0  0  0  0
  140.2280   79.4730  223.2740 C   0  0  0  0  0  0  0  0  0  0  0  0
  140.3850   80.7860  223.7060 C   0  0  0  0  0  0  0  0  0  0  0  0
  141.6780   81.2780  223.8200 C   0  0  0  0  0  0  0  0  0  0  0  0
  142.7840   80.5110  223.5220 C   0  0  0  0  0  0  0  0  0  0  0  0
  142.5820   79.2100  223.0950 C   0  0  0  0  0  0  0  0  0  0  0  0
  141.3190   78.6720  222.9650 C   0  0  0  0  0  0  0  0  0  0  0  0
  141.1060   77.4030  222.5500 N   0  0  0  0  0  0  0  0  0  0  0  0
  138.5770   67.9533  223.5872 H   0  0  0  0  0  0  0  0  0  0  0  0
  137.6238   68.4777  222.1578 H   0  0  0  0  0  0  0  0  0  0  0  0
  139.4117   68.6511  222.1578 H   0  0  0  0  0  0  0  0  0  0  0  0
  138.5912   68.6844  225.5391 H   0  0  0  0  0  0  0  0  0  0  0  0
  140.0091   69.3173  227.4862 H   0  0  0  0  0  0  0  0  0  0  0  0
  141.3701   71.3844  227.3177 H   0  0  0  0  0  0  0  0  0  0  0  0
  141.3342   72.7699  225.3092 H   0  0  0  0  0  0  0  0  0  0  0  0
  139.2780   73.2330  223.1710 H   0  0  0  0  0  0  0  0  0  0  0  0
  141.5282   73.2889  220.2102 H   0  0  0  0  0  0  0  0  0  0  0  0
  139.7151   73.3339  220.4533 H   0  0  0  0  0  0  0  0  0  0  0  0
  141.6870   75.3110  221.2880 H   0  0  0  0  0  0  0  0  0  0  0  0
  137.7938   77.2653  222.6315 H   0  0  0  0  0  0  0  0  0  0  0  0
  138.0539   79.6016  223.4019 H   0  0  0  0  0  0  0  0  0  0  0  0
  139.5143   81.4129  223.9489 H   0  0  0  0  0  0  0  0  0  0  0  0
  141.8249   82.3140  224.1593 H   0  0  0  0  0  0  0  0  0  0  0  0
  143.7996   80.9218  223.6209 H   0  0  0  0  0  0  0  0  0  0  0  0
  143.4551   78.5866  222.8521 H   0  0  0  0  0  0  0  0  0  0  0  0
  1  2  1  0
  2  3  1  0
  3  4  2  0
  4  5  1  0
  5  6  2  0
  6  7  1  0
  7  8  2  0
  8  9  1  0
  9 10  1  0
 10 11  2  0
 10 12  1  0
 12 13  1  0
 13 14  1  0
 14 15  2  0
 14 16  1  0
 16 17  2  0
 17 18  1  0
 18 19  2  0
 19 20  1  0
 20 21  2  0
 21 22  1  0
 22 23  2  0
 23 24  1  0
 24 25  2  0
  8  3  1  0
 25 16  1  0
 24 19  1  0
  1 26  1  0
  1 27  1  0
  1 28  1  0
  4 29  1  0
  5 30  1  0
  6 31  1  0
  7 32  1  0
  9 33  1  0
 12 34  1  0
 12 35  1  0
 13 36  1  0
 17 37  1  0
 18 38  1  0
 20 39  1  0
 21 40  1  0
 22 41  1  0
 23 42  1  0
M  END
>  <smiles>  (1) 
COc1ccccc1NC(=O)CNC(=O)c1ccc2ccccc2n1

>  <score_type>  (1) 
oracle

>  <origin>  (1) 
autodockgpu

>  <m_score__min__energy>  (1) 
-8.6500000000000004

>  <m_primary>  (1) 
energy

>  <rmsd>  (1) 
8.5784395790769

>  <m_score__min__rmsd>  (1) 
8.5784395790769

>  <meeko>  (1) 
{"free_energy": -7.42, "intermolecular_energy": -8.91, "internal_energy": -2.07, "cluster_size": 32, "cluster_id": 2, "rank_in_cluster": 7}

>  <energy>  (1) 
-8.65

>  <cluster_rmsd>  (1) 
0.0

>  <cluster>  (1) 
1

$$$$

     RDKit          3D

 42 44  0  0  0  0  0  0  0  0999 V2000
  142.1470   78.4430  219.1040 C   0  0  0  0  0  0  0  0  0  0  0  0
  141.1770   78.9330  219.9850 O   0  0  0  0  0  0  0  0  0  0  0  0
  141.4270   79.0590  221.3210 C   0  0  0  0  0  0  0  0  0  0  0  0
  141.7390   80.3460  221.7780 C   0  0  0  0  0  0  0  0  0  0  0  0
  142.0090   80.5730  223.1050 C   0  0  0  0  0  0  0  0  0  0  0  0
  141.9580   79.4900  223.9480 C   0  0  0  0  0  0  0  0  0  0  0  0
  141.6520   78.2300  223.4960 C   0  0  0  0  0  0  0  0  0  0  0  0
  141.3710   77.9690  222.1460 C   0  0  0  0  0  0  0  0  0  0  0  0
  141.0890   76.6460  221.8040 N   0  0  0  0  0  0  0  0  0  0  0  0
  139.8680   75.9940  221.6180 C   0  0  0  0  0  0  0  0  0  0  0  0
  138.7970   76.5890  221.7700 O   0  0  0  0  0  0  0  0  0  0  0  0
  139.7480   74.5430  221.2270 C   0  0  0  0  0  0  0  0  0  0  0  0
  139.6450   73.6470  222.3460 N   0  0  0  0  0  0  0  0  0  0  0  0
  140.4360   72.4880  222.4900 C   0  0  0  0  0  0  0  0  0  0  0  0
  141.3110   72.1280  221.6310 O   0  0  0  0  0  0  0  0  0  0  0  0
  140.2570   71.6490  223.6730 C   0  0  0  0  0  0  0  0  0  0  0  0
  139.5640   70.4580  223.6140 C   0  0  0  0  0  0  0  0  0  0  0  0
  139.3690   69.6350  224.6980 C   0  0  0  0  0  0  0  0  0  0  0  0
  139.9160   70.0630  225.9030 C   0  0  0  0  0  0  0  0  0  0  0  0
  139.7340   69.2510  227.0170 C   0  0  0  0  0  0  0  0  0  0  0  0
  140.2790   69.6750  228.2210 C   0  0  0  0  0  0  0  0  0  0  0  0
  140.9800   70.8560  228.3330 C   0  0  0  0  0  0  0  0  0  0  0  0
  141.1370   71.6350  227.2000 C   0  0  0  0  0  0  0  0  0  0  0  0
  140.6160   71.2600  225.9790 C   0  0  0  0  0  0  0  0  0  0  0  0
  140.7610   72.0090  224.8630 N   0  0  0  0  0  0  0  0  0  0  0  0
  142.9842   78.0201  219.6787 H   0  0  0  0  0  0  0  0  0  0  0  0
  141.7048   77.6601  218.4703 H   0  0  0  0  0  0  0  0  0  0  0  0
  142.5147   79.2635  218.4703 H   0  0  0  0  0  0  0  0  0  0  0  0
  141.7680   81.1839  221.0659 H   0  0  0  0  0  0  0  0  0  0  0  0
  142.2554   81.5785  223.4767 H   0  0  0  0  0  0  0  0  0  0  0  0
  142.1686   79.6364  225.0177 H   0  0  0  0  0  0  0  0  0  0  0  0
  141.6263   77.3982  224.2154 H   0  0  0  0  0  0  0  0  0  0  0  0
  141.9440   76.0070  221.6700 H   0  0  0  0  0  0  0  0  0  0  0  0
  138.8489   74.4249  220.6043 H   0  0  0  0  0  0  0  0  0  0  0  0
  140.6705   74.2789  220.6892 H   0  0  0  0  0  0  0  0  0  0  0  0
  138.9480   73.8710  223.0830 H   0  0  0  0  0  0  0  0  0  0  0  0
  139.1438   70.1493  222.6455 H   0  0  0  0  0  0  0  0  0  0  0  0
  138.8113   68.6904  224.6167 H   0  0  0  0  0  0  0  0  0  0  0  0
  139.1771   68.3050  226.9465 H   0  0  0  0  0  0  0  0  0  0  0  0
  140.1470   69.0478  229.1150 H   0  0  0  0  0  0  0  0  0  0  0  0
  141.4038   71.1714  229.2978 H   0  0  0  0  0  0  0  0  0  0  0  0
  141.6935   72.5809  227.2753 H   0  0  0  0  0  0  0  0  0  0  0  0
  1  2  1  0
  2  3  1  0
  3  4  2  0
  4  5  1  0
  5  6  2  0
  6  7  1  0
  7  8  2  0
  8  9  1  0
  9 10  1  0
 10 11  2  0
 10 12  1  0
 12 13  1  0
 13 14  1  0
 14 15  2  0
 14 16  1  0
 16 17  2  0
 17 18  1  0
 18 19  2  0
 19 20  1  0
 20 21  2  0
 21 22  1  0
 22 23  2  0
 23 24  1  0
 24 25  2  0
  8  3  1  0
 25 16  1  0
 24 19  1  0
  1 26  1  0
  1 27  1  0
  1 28  1  0
  4 29  1  0
  5 30  1  0
  6 31  1  0
  7 32  1  0
  9 33  1  0
 12 34  1  0
 12 35  1  0
 13 36  1  0
 17 37  1  0
 18 38  1  0
 20 39  1  0
 21 40  1  0
 22 41  1  0
 23 42  1  0
M  END
>  <smiles>  (2) 
COc1ccccc1NC(=O)CNC(=O)c1ccc2ccccc2n1

>  <score_type>  (2) 
oracle

>  <origin>  (2) 
autodockgpu

>  <m_score__min__energy>  (2) 
-8.6500000000000004

>  <m_primary>  (2) 
energy

>  <rmsd>  (2) 
3.3078295132512237

>  <m_score__min__rmsd>  (2) 
3.3078295132512237

>  <meeko>  (2) 
{"free_energy": -8.55, "intermolecular_energy": -10.04, "internal_energy": -1.07, "cluster_size": 16, "cluster_id": 1, "rank_in_cluster": 8}

>  <energy>  (2) 
-8.63

>  <cluster_rmsd>  (2) 
0.18

>  <cluster>  (2) 
1

$$$$

     RDKit          3D

 42 44  0  0  0  0  0  0  0  0999 V2000
  138.8380   68.4670  223.6960 C   0  0  0  0  0  0  0  0  0  0  0  0
  138.5430   68.6440  225.0510 O   0  0  0  0  0  0  0  0  0  0  0  0
  139.3760   69.3420  225.8770 C   0  0  0  0  0  0  0  0  0  0  0  0
  139.9000   68.6420  226.9710 C   0  0  0  0  0  0  0  0  0  0  0  0
  140.7460   69.2600  227.8590 C   0  0  0  0  0  0  0  0  0  0  0  0
  141.0460   70.5790  227.6230 C   0  0  0  0  0  0  0  0  0  0  0  0
  140.5300   71.2620  226.5490 C   0  0  0  0  0  0  0  0  0  0  0  0
  139.6650   70.6560  225.6250 C   0  0  0  0  0  0  0  0  0  0  0  0
  139.1930   71.4560  224.5840 N   0  0  0  0  0  0  0  0  0  0  0  0
  139.7800   71.8040  223.3660 C   0  0  0  0  0  0  0  0  0  0  0  0
  140.9080   71.4050  223.0630 O   0  0  0  0  0  0  0  0  0  0  0  0
  139.1090   72.6770  222.3360 C   0  0  0  0  0  0  0  0  0  0  0  0
  139.5990   74.0280  222.3110 N   0  0  0  0  0  0  0  0  0  0  0  0
  140.4950   74.5130  221.3360 C   0  0  0  0  0  0  0  0  0  0  0  0
  140.9570   73.7890  220.3900 O   0  0  0  0  0  0  0  0  0  0  0  0
  140.9240   75.9090  221.3990 C   0  0  0  0  0  0  0  0  0  0  0  0
  141.4660   76.5460  220.3020 C   0  0  0  0  0  0  0  0  0  0  0  0
  141.8830   77.8560  220.3110 C   0  0  0  0  0  0  0  0  0  0  0  0
  141.7340   78.5420  221.5110 C   0  0  0  0  0  0  0  0  0  0  0  0
  142.1480   79.8690  221.5500 C   0  0  0  0  0  0  0  0  0  0  0  0
  142.0010   80.5570  222.7470 C   0  0  0  0  0  0  0  0  0  0  0  0
  141.4650   79.9670  223.8710 C   0  0  0  0  0  0  0  0  0  0  0  0
  141.0670   78.6440  223.7890 C   0  0  0  0  0  0  0  0  0  0  0  0
  141.1900   77.9150  222.6240 C   0  0  0  0  0  0  0  0  0  0  0  0
  140.8050   76.6230  222.5280 N   0  0  0  0  0  0  0  0  0  0  0  0
  139.7773   67.9034  223.5958 H   0  0  0  0  0  0  0  0  0  0  0  0
  138.0223   67.9090  223.2130 H   0  0  0  0  0  0  0  0  0  0  0  0
  138.9465   69.4493  223.2130 H   0  0  0  0  0  0  0  0  0  0  0  0
  139.6311   67.5859  227.1206 H   0  0  0  0  0  0  0  0  0  0  0  0
  141.1651   68.7217  228.7219 H   0  0  0  0  0  0  0  0  0  0  0  0
  141.7202   71.1046  228.3153 H   0  0  0  0  0  0  0  0  0  0  0  0
  140.8036   72.3181  226.4086 H   0  0  0  0  0  0  0  0  0  0  0  0
  138.2220   71.8930  224.7360 H   0  0  0  0  0  0  0  0  0  0  0  0
  139.2723   72.2307  221.3440 H   0  0  0  0  0  0  0  0  0  0  0  0
  138.0437   72.7281  222.6052 H   0  0  0  0  0  0  0  0  0  0  0  0
  139.2730   74.6750  223.0560 H   0  0  0  0  0  0  0  0  0  0  0  0
  141.5704   75.9740  219.3682 H   0  0  0  0  0  0  0  0  0  0  0  0
  142.3109   78.3350  219.4180 H   0  0  0  0  0  0  0  0  0  0  0  0
  142.5774   80.3570  220.6626 H   0  0  0  0  0  0  0  0  0  0  0  0
  142.3230   81.6075  222.7998 H   0  0  0  0  0  0  0  0  0  0  0  0
  141.3563   80.5324  224.8083 H   0  0  0  0  0  0  0  0  0  0  0  0
  140.6398   78.1592  224.6792 H   0  0  0  0  0  0  0  0  0  0  0  0
  1  2  1  0
  2  3  1  0
  3  4  2  0
  4  5  1  0
  5  6  2  0
  6  7  1  0
  7  8  2  0
  8  9  1  0
  9 10  1  0
 10 11  2  0
 10 12  1  0
 12 13  1  0
 13 14  1  0
 14 15  2  0
 14 16  1  0
 16 17  2  0
 17 18  1  0
 18 19  2  0
 19 20  1  0
 20 21  2  0
 21 22  1  0
 22 23  2  0
 23 24  1  0
 24 25  2  0
  8  3  1  0
 25 16  1  0
 24 19  1  0
  1 26  1  0
  1 27  1  0
  1 28  1  0
  4 29  1  0
  5 30  1  0
  6 31  1  0
  7 32  1  0
  9 33  1  0
 12 34  1  0
 12 35  1  0
 13 36  1  0
 17 37  1  0
 18 38  1  0
 20 39  1  0
 21 40  1  0
 22 41  1  0
 23 42  1  0
M  END
>  <smiles>  (3) 
COc1ccccc1NC(=O)CNC(=O)c1ccc2ccccc2n1

>  <score_type>  (3) 
oracle

>  <origin>  (3) 
autodockgpu

>  <m_score__min__energy>  (3) 
-8.6500000000000004

>  <m_primary>  (3) 
energy

>  <rmsd>  (3) 
8.721215768882907

>  <m_score__min__rmsd>  (3) 
8.721215768882907

>  <meeko>  (3) 
{"free_energy": -8.07, "intermolecular_energy": -9.56, "internal_energy": -1.3, "cluster_size": 32, "cluster_id": 2, "rank_in_cluster": 4}

>  <energy>  (3) 
-8.61

>  <cluster_rmsd>  (3) 
0.43

>  <cluster>  (3) 
1

$$$$

     RDKit          3D

 42 44  0  0  0  0  0  0  0  0999 V2000
  142.5940   79.3050  217.8720 C   0  0  0  0  0  0  0  0  0  0  0  0
  141.5830   78.8900  218.7450 O   0  0  0  0  0  0  0  0  0  0  0  0
  141.6260   79.1890  220.0760 C   0  0  0  0  0  0  0  0  0  0  0  0
  141.9120   80.5190  220.4090 C   0  0  0  0  0  0  0  0  0  0  0  0
  141.9800   80.9150  221.7220 C   0  0  0  0  0  0  0  0  0  0  0  0
  141.7560   79.9550  222.6780 C   0  0  0  0  0  0  0  0  0  0  0  0
  141.4750   78.6510  222.3480 C   0  0  0  0  0  0  0  0  0  0  0  0
  141.3990   78.2190  221.0150 C   0  0  0  0  0  0  0  0  0  0  0  0
  141.1220   76.8670  220.8050 N   0  0  0  0  0  0  0  0  0  0  0  0
  140.4590   75.9380  221.6090 C   0  0  0  0  0  0  0  0  0  0  0  0
  140.0160   76.2540  222.7170 O   0  0  0  0  0  0  0  0  0  0  0  0
  140.2310   74.5020  221.2100 C   0  0  0  0  0  0  0  0  0  0  0  0
  140.0360   73.6140  222.3240 N   0  0  0  0  0  0  0  0  0  0  0  0
  140.4700   72.2730  222.3350 C   0  0  0  0  0  0  0  0  0  0  0  0
  141.0700   71.7250  221.3490 O   0  0  0  0  0  0  0  0  0  0  0  0
  140.2290   71.4590  223.5240 C   0  0  0  0  0  0  0  0  0  0  0  0
  139.5650   70.2520  223.4490 C   0  0  0  0  0  0  0  0  0  0  0  0
  139.3150   69.4510  224.5380 C   0  0  0  0  0  0  0  0  0  0  0  0
  139.7730   69.9190  225.7650 C   0  0  0  0  0  0  0  0  0  0  0  0
  139.5330   69.1290  226.8850 C   0  0  0  0  0  0  0  0  0  0  0  0
  139.9880   69.5930  228.1110 C   0  0  0  0  0  0  0  0  0  0  0  0
  140.6570   70.7910  228.2400 C   0  0  0  0  0  0  0  0  0  0  0  0
  140.8730   71.5460  227.1010 C   0  0  0  0  0  0  0  0  0  0  0  0
  140.4430   71.1310  225.8580 C   0  0  0  0  0  0  0  0  0  0  0  0
  140.6470   71.8570  224.7350 N   0  0  0  0  0  0  0  0  0  0  0  0
  143.4578   79.6596  218.4534 H   0  0  0  0  0  0  0  0  0  0  0  0
  142.9007   78.4600  217.2380 H   0  0  0  0  0  0  0  0  0  0  0  0
  142.2186   80.1218  217.2380 H   0  0  0  0  0  0  0  0  0  0  0  0
  142.0841   81.2547  219.6096 H   0  0  0  0  0  0  0  0  0  0  0  0
  142.2042   81.9564  221.9962 H   0  0  0  0  0  0  0  0  0  0  0  0
  141.8029   80.2384  223.7398 H   0  0  0  0  0  0  0  0  0  0  0  0
  141.3042   77.9226  223.1544 H   0  0  0  0  0  0  0  0  0  0  0  0
  141.4840   76.4560  219.8790 H   0  0  0  0  0  0  0  0  0  0  0  0
  139.3371   74.4575  220.5705 H   0  0  0  0  0  0  0  0  0  0  0  0
  141.1393   74.1665  220.6881 H   0  0  0  0  0  0  0  0  0  0  0  0
  139.5470   73.9880  223.1620 H   0  0  0  0  0  0  0  0  0  0  0  0
  139.2162   69.9116  222.4629 H   0  0  0  0  0  0  0  0  0  0  0  0
  138.7823   68.4932  224.4441 H   0  0  0  0  0  0  0  0  0  0  0  0
  139.0010   68.1698  226.8014 H   0  0  0  0  0  0  0  0  0  0  0  0
  139.8088   68.9845  229.0097 H   0  0  0  0  0  0  0  0  0  0  0  0
  141.0098   71.1377  229.2225 H   0  0  0  0  0  0  0  0  0  0  0  0
  141.4034   72.5056  227.1894 H   0  0  0  0  0  0  0  0  0  0  0  0
  1  2  1  0
  2  3  1  0
  3  4  2  0
  4  5  1  0
  5  6  2  0
  6  7  1  0
  7  8  2  0
  8  9  1  0
  9 10  1  0
 10 11  2  0
 10 12  1  0
 12 13  1  0
 13 14  1  0
 14 15  2  0
 14 16  1  0
 16 17  2  0
 17 18  1  0
 18 19  2  0
 19 20  1  0
 20 21  2  0
 21 22  1  0
 22 23  2  0
 23 24  1  0
 24 25  2  0
  8  3  1  0
 25 16  1  0
 24 19  1  0
  1 26  1  0
  1 27  1  0
  1 28  1  0
  4 29  1  0
  5 30  1  0
  6 31  1  0
  7 32  1  0
  9 33  1  0
 12 34  1  0
 12 35  1  0
 13 36  1  0
 17 37  1  0
 18 38  1  0
 20 39  1  0
 21 40  1  0
 22 41  1  0
 23 42  1  0
M  END
>  <smiles>  (4) 
COc1ccccc1NC(=O)CNC(=O)c1ccc2ccccc2n1

>  <score_type>  (4) 
oracle

>  <origin>  (4) 
autodockgpu

>  <m_score__min__energy>  (4) 
-8.6500000000000004

>  <m_primary>  (4) 
energy

>  <rmsd>  (4) 
2.987390479074458

>  <m_score__min__rmsd>  (4) 
2.987390479074458

>  <meeko>  (4) 
{"free_energy": -7.75, "intermolecular_energy": -9.24, "internal_energy": -1.53, "cluster_size": 16, "cluster_id": 1, "rank_in_cluster": 15}

>  <energy>  (4) 
-8.58

>  <cluster_rmsd>  (4) 
0.62

>  <cluster>  (4) 
1

$$$$

     RDKit          3D

 42 44  0  0  0  0  0  0  0  0999 V2000
  137.2570   71.4340  222.9840 C   0  0  0  0  0  0  0  0  0  0  0  0
  138.2220   70.4800  223.3270 O   0  0  0  0  0  0  0  0  0  0  0  0
  139.1500   70.7240  224.2980 C   0  0  0  0  0  0  0  0  0  0  0  0
  139.0940   69.9050  225.4330 C   0  0  0  0  0  0  0  0  0  0  0  0
  139.9840   70.0750  226.4650 C   0  0  0  0  0  0  0  0  0  0  0  0
  140.9160   71.0740  226.3300 C   0  0  0  0  0  0  0  0  0  0  0  0
  140.9680   71.8750  225.2150 C   0  0  0  0  0  0  0  0  0  0  0  0
  140.0720   71.7230  224.1450 C   0  0  0  0  0  0  0  0  0  0  0  0
  140.2120   72.6070  223.0740 N   0  0  0  0  0  0  0  0  0  0  0  0
  141.0490   72.5570  221.9570 C   0  0  0  0  0  0  0  0  0  0  0  0
  141.8470   71.6300  221.7980 O   0  0  0  0  0  0  0  0  0  0  0  0
  141.0550   73.6050  220.8730 C   0  0  0  0  0  0  0  0  0  0  0  0
  141.1010   74.9540  221.3690 N   0  0  0  0  0  0  0  0  0  0  0  0
  139.9740   75.6350  221.8720 C   0  0  0  0  0  0  0  0  0  0  0  0
  138.8080   75.1150  221.9250 O   0  0  0  0  0  0  0  0  0  0  0  0
  140.1330   77.0040  222.3610 C   0  0  0  0  0  0  0  0  0  0  0  0
  139.0440   77.7710  222.7220 C   0  0  0  0  0  0  0  0  0  0  0  0
  139.1420   79.0610  223.1870 C   0  0  0  0  0  0  0  0  0  0  0  0
  140.4270   79.5850  223.2840 C   0  0  0  0  0  0  0  0  0  0  0  0
  140.5560   80.8890  223.7510 C   0  0  0  0  0  0  0  0  0  0  0  0
  141.8360   81.4160  223.8490 C   0  0  0  0  0  0  0  0  0  0  0  0
  142.9560   80.6910  223.5010 C   0  0  0  0  0  0  0  0  0  0  0  0
  142.7820   79.3980  223.0400 C   0  0  0  0  0  0  0  0  0  0  0  0
  141.5320   78.8260  222.9250 C   0  0  0  0  0  0  0  0  0  0  0  0
  141.3460   77.5640  222.4770 N   0  0  0  0  0  0  0  0  0  0  0  0
  136.8235   71.8626  223.8996 H   0  0  0  0  0  0  0  0  0  0  0  0
  137.7260   72.2333  222.3914 H   0  0  0  0  0  0  0  0  0  0  0  0
  136.4631   70.9559  222.3914 H   0  0  0  0  0  0  0  0  0  0  0  0
  138.3290   69.1173  225.4984 H   0  0  0  0  0  0  0  0  0  0  0  0
  139.9515   69.4381  227.3613 H   0  0  0  0  0  0  0  0  0  0  0  0
  141.6431   71.2380  227.1390 H   0  0  0  0  0  0  0  0  0  0  0  0
  141.7361   72.6604  225.1589 H   0  0  0  0  0  0  0  0  0  0  0  0
  139.5880   73.4810  223.1070 H   0  0  0  0  0  0  0  0  0  0  0  0
  141.9363   73.4397  220.2359 H   0  0  0  0  0  0  0  0  0  0  0  0
  140.1097   73.4993  220.3205 H   0  0  0  0  0  0  0  0  0  0  0  0
  142.0160   75.4460  221.3510 H   0  0  0  0  0  0  0  0  0  0  0  0
  138.0422   77.3255  222.6327 H   0  0  0  0  0  0  0  0  0  0  0  0
  138.2537   79.6463  223.4668 H   0  0  0  0  0  0  0  0  0  0  0  0
  139.6736   81.4821  224.0330 H   0  0  0  0  0  0  0  0  0  0  0  0
  141.9611   82.4453  224.2161 H   0  0  0  0  0  0  0  0  0  0  0  0
  143.9613   81.1289  223.5876 H   0  0  0  0  0  0  0  0  0  0  0  0
  143.6667   78.8088  222.7568 H   0  0  0  0  0  0  0  0  0  0  0  0
  1  2  1  0
  2  3  1  0
  3  4  2  0
  4  5  1  0
  5  6  2  0
  6  7  1  0
  7  8  2  0
  8  9  1  0
  9 10  1  0
 10 11  2  0
 10 12  1  0
 12 13  1  0
 13 14  1  0
 14 15  2  0
 14 16  1  0
 16 17  2  0
 17 18  1  0
 18 19  2  0
 19 20  1  0
 20 21  2  0
 21 22  1  0
 22 23  2  0
 23 24  1  0
 24 25  2  0
  8  3  1  0
 25 16  1  0
 24 19  1  0
  1 26  1  0
  1 27  1  0
  1 28  1  0
  4 29  1  0
  5 30  1  0
  6 31  1  0
  7 32  1  0
  9 33  1  0
 12 34  1  0
 12 35  1  0
 13 36  1  0
 17 37  1  0
 18 38  1  0
 20 39  1  0
 21 40  1  0
 22 41  1  0
 23 42  1  0
M  END
>  <smiles>  (5) 
COc1ccccc1NC(=O)CNC(=O)c1ccc2ccccc2n1

>  <score_type>  (5) 
oracle

>  <origin>  (5) 
autodockgpu

>  <m_score__min__energy>  (5) 
-8.6500000000000004

>  <m_primary>  (5) 
energy

>  <rmsd>  (5) 
8.64008272773192

>  <m_score__min__rmsd>  (5) 
8.64008272773192

>  <meeko>  (5) 
{"free_energy": -7.41, "intermolecular_energy": -8.9, "internal_energy": -2.12, "cluster_size": 32, "cluster_id": 2, "rank_in_cluster": 10}

>  <energy>  (5) 
-8.58

>  <cluster_rmsd>  (5) 
0.12

>  <cluster>  (5) 
1

$$$$

     RDKit          3D

 42 44  0  0  0  0  0  0  0  0999 V2000
  140.9270   71.9110  227.8910 C   0  0  0  0  0  0  0  0  0  0  0  0
  140.3250   71.3430  226.7630 O   0  0  0  0  0  0  0  0  0  0  0  0
  140.2070   69.9900  226.6240 C   0  0  0  0  0  0  0  0  0  0  0  0
  141.0700   69.2060  227.3990 C   0  0  0  0  0  0  0  0  0  0  0  0
  141.0290   67.8350  227.3260 C   0  0  0  0  0  0  0  0  0  0  0  0
  140.1130   67.2810  226.4660 C   0  0  0  0  0  0  0  0  0  0  0  0
  139.2680   68.0540  225.7070 C   0  0  0  0  0  0  0  0  0  0  0  0
  139.2880   69.4570  225.7620 C   0  0  0  0  0  0  0  0  0  0  0  0
  138.3930   70.1330  224.9320 N   0  0  0  0  0  0  0  0  0  0  0  0
  138.6190   70.9430  223.8170 C   0  0  0  0  0  0  0  0  0  0  0  0
  139.7640   71.1780  223.4200 O   0  0  0  0  0  0  0  0  0  0  0  0
  137.5160   71.5880  223.0180 C   0  0  0  0  0  0  0  0  0  0  0  0
  136.5330   72.2610  223.8220 N   0  0  0  0  0  0  0  0  0  0  0  0
  135.5010   71.5920  224.5110 C   0  0  0  0  0  0  0  0  0  0  0  0
  135.3440   70.3240  224.4740 O   0  0  0  0  0  0  0  0  0  0  0  0
  134.5580   72.3730  225.3090 C   0  0  0  0  0  0  0  0  0  0  0  0
  133.5490   71.7670  226.0290 C   0  0  0  0  0  0  0  0  0  0  0  0
  132.6390   72.4570  226.7940 C   0  0  0  0  0  0  0  0  0  0  0  0
  132.7780   73.8410  226.8180 C   0  0  0  0  0  0  0  0  0  0  0  0
  131.8700   74.5660  227.5830 C   0  0  0  0  0  0  0  0  0  0  0  0
  132.0050   75.9470  227.6090 C   0  0  0  0  0  0  0  0  0  0  0  0
  132.9960   76.6000  226.9080 C   0  0  0  0  0  0  0  0  0  0  0  0
  133.8770   75.8410  226.1590 C   0  0  0  0  0  0  0  0  0  0  0  0
  133.7880   74.4660  226.0990 C   0  0  0  0  0  0  0  0  0  0  0  0
  134.6410   73.7100  225.3720 N   0  0  0  0  0  0  0  0  0  0  0  0
  140.4766   71.4860  228.8001 H   0  0  0  0  0  0  0  0  0  0  0  0
  142.0052   71.6935  227.8799 H   0  0  0  0  0  0  0  0  0  0  0  0
  140.7725   73.0000  227.8799 H   0  0  0  0  0  0  0  0  0  0  0  0
  141.7890   69.6934  228.0739 H   0  0  0  0  0  0  0  0  0  0  0  0
  141.7009   67.2079  227.9304 H   0  0  0  0  0  0  0  0  0  0  0  0
  140.0540   66.1858  226.3823 H   0  0  0  0  0  0  0  0  0  0  0  0
  138.5527   67.5578  225.0345 H   0  0  0  0  0  0  0  0  0  0  0  0
  137.3530   70.0340  225.1900 H   0  0  0  0  0  0  0  0  0  0  0  0
  137.9670   72.3228  222.3349 H   0  0  0  0  0  0  0  0  0  0  0  0
  136.9939   70.7805  222.4838 H   0  0  0  0  0  0  0  0  0  0  0  0
  136.5920   73.2960  223.8930 H   0  0  0  0  0  0  0  0  0  0  0  0
  133.4683   70.6707  225.9886 H   0  0  0  0  0  0  0  0  0  0  0  0
  131.8450   71.9434  227.3560 H   0  0  0  0  0  0  0  0  0  0  0  0
  131.0722   74.0618  228.1480 H   0  0  0  0  0  0  0  0  0  0  0  0
  131.2983   76.5396  228.2084 H   0  0  0  0  0  0  0  0  0  0  0  0
  133.0839   77.6959  226.9433 H   0  0  0  0  0  0  0  0  0  0  0  0
  134.6724   76.3493  225.5943 H   0  0  0  0  0  0  0  0  0  0  0  0
  1  2  1  0
  2  3  1  0
  3  4  2  0
  4  5  1  0
  5  6  2  0
  6  7  1  0
  7  8  2  0
  8  9  1  0
  9 10  1  0
 10 11  2  0
 10 12  1  0
 12 13  1  0
 13 14  1  0
 14 15  2  0
 14 16  1  0
 16 17  2  0
 17 18  1  0
 18 19  2  0
 19 20  1  0
 20 21  2  0
 21 22  1  0
 22 23  2  0
 23 24  1  0
 24 25  2  0
  8  3  1  0
 25 16  1  0
 24 19  1  0
  1 26  1  0
  1 27  1  0
  1 28  1  0
  4 29  1  0
  5 30  1  0
  6 31  1  0
  7 32  1  0
  9 33  1  0
 12 34  1  0
 12 35  1  0
 13 36  1  0
 17 37  1  0
 18 38  1  0
 20 39  1  0
 21 40  1  0
 22 41  1  0
 23 42  1  0
M  END
>  <smiles>  (6) 
COc1ccccc1NC(=O)CNC(=O)c1ccc2ccccc2n1

>  <score_type>  (6) 
oracle

>  <origin>  (6) 
autodockgpu

>  <m_score__min__energy>  (6) 
-8.6500000000000004

>  <m_primary>  (6) 
energy

>  <rmsd>  (6) 
8.489647680166586

>  <m_score__min__rmsd>  (6) 
8.489647680166586

>  <meeko>  (6) 
{"free_energy": -7.22, "intermolecular_energy": -8.72, "internal_energy": -2.05, "cluster_size": 2, "cluster_id": 3, "rank_in_cluster": 1}

>  <energy>  (6) 
-8.58

>  <cluster_rmsd>  (6) 
0.54

>  <cluster>  (6) 
1

$$$$

     RDKit          3D

 42 44  0  0  0  0  0  0  0  0999 V2000
  138.8170   69.3190  222.2360 C   0  0  0  0  0  0  0  0  0  0  0  0
  138.3420   70.0240  223.3470 O   0  0  0  0  0  0  0  0  0  0  0  0
  139.1810   70.4300  224.3440 C   0  0  0  0  0  0  0  0  0  0  0  0
  139.2190   69.6270  225.4920 C   0  0  0  0  0  0  0  0  0  0  0  0
  140.0290   69.9560  226.5510 C   0  0  0  0  0  0  0  0  0  0  0  0
  140.7890   71.0930  226.4290 C   0  0  0  0  0  0  0  0  0  0  0  0
  140.7490   71.8770  225.3010 C   0  0  0  0  0  0  0  0  0  0  0  0
  139.9300   71.5660  224.2050 C   0  0  0  0  0  0  0  0  0  0  0  0
  139.9630   72.4470  223.1230 N   0  0  0  0  0  0  0  0  0  0  0  0
  140.7480   72.4410  221.9680 C   0  0  0  0  0  0  0  0  0  0  0  0
  141.5960   71.5650  221.7770 O   0  0  0  0  0  0  0  0  0  0  0  0
  140.6360   73.4770  220.8780 C   0  0  0  0  0  0  0  0  0  0  0  0
  140.7210   74.8310  221.3530 N   0  0  0  0  0  0  0  0  0  0  0  0
  139.6440   75.5120  221.9580 C   0  0  0  0  0  0  0  0  0  0  0  0
  138.4930   74.9850  222.1300 O   0  0  0  0  0  0  0  0  0  0  0  0
  139.8410   76.8860  222.4140 C   0  0  0  0  0  0  0  0  0  0  0  0
  138.7730   77.6980  222.7380 C   0  0  0  0  0  0  0  0  0  0  0  0
  138.9060   78.9950  223.1720 C   0  0  0  0  0  0  0  0  0  0  0  0
  140.2060   79.4790  223.2770 C   0  0  0  0  0  0  0  0  0  0  0  0
  140.3710   80.7900  223.7130 C   0  0  0  0  0  0  0  0  0  0  0  0
  141.6670   81.2770  223.8190 C   0  0  0  0  0  0  0  0  0  0  0  0
  142.7670   80.5070  223.5080 C   0  0  0  0  0  0  0  0  0  0  0  0
  142.5570   79.2090  223.0780 C   0  0  0  0  0  0  0  0  0  0  0  0
  141.2910   78.6760  222.9550 C   0  0  0  0  0  0  0  0  0  0  0  0
  141.0700   77.4090  222.5360 N   0  0  0  0  0  0  0  0  0  0  0  0
  139.4017   68.4512  222.5750 H   0  0  0  0  0  0  0  0  0  0  0  0
  137.9665   68.9739  221.6297 H   0  0  0  0  0  0  0  0  0  0  0  0
  139.4562   69.9776  221.6297 H   0  0  0  0  0  0  0  0  0  0  0  0
  138.5934   68.7238  225.5453 H   0  0  0  0  0  0  0  0  0  0  0  0
  140.0673   69.3352  227.4582 H   0  0  0  0  0  0  0  0  0  0  0  0
  141.4495   71.3850  227.2588 H   0  0  0  0  0  0  0  0  0  0  0  0
  141.3794   72.7773  225.2559 H   0  0  0  0  0  0  0  0  0  0  0  0
  139.2860   73.2790  223.1800 H   0  0  0  0  0  0  0  0  0  0  0  0
  141.4498   73.3108  220.1568 H   0  0  0  0  0  0  0  0  0  0  0  0
  139.6407   73.3586  220.4248 H   0  0  0  0  0  0  0  0  0  0  0  0
  141.6260   75.3280  221.2400 H   0  0  0  0  0  0  0  0  0  0  0  0
  137.7584   77.2836  222.6435 H   0  0  0  0  0  0  0  0  0  0  0  0
  138.0332   79.6159  223.4224 H   0  0  0  0  0  0  0  0  0  0  0  0
  139.5045   81.4190  223.9651 H   0  0  0  0  0  0  0  0  0  0  0  0
  141.8208   82.3107  224.1623 H   0  0  0  0  0  0  0  0  0  0  0  0
  143.7849   80.9138  223.5993 H   0  0  0  0  0  0  0  0  0  0  0  0
  143.4260   78.5832  222.8266 H   0  0  0  0  0  0  0  0  0  0  0  0
  1  2  1  0
  2  3  1  0
  3  4  2  0
  4  5  1  0
  5  6  2  0
  6  7  1  0
  7  8  2  0
  8  9  1  0
  9 10  1  0
 10 11  2  0
 10 12  1  0
 12 13  1  0
 13 14  1  0
 14 15  2  0
 14 16  1  0
 16 17  2  0
 17 18  1  0
 18 19  2  0
 19 20  1  0
 20 21  2  0
 21 22  1  0
 22 23  2  0
 23 24  1  0
 24 25  2  0
  8  3  1  0
 25 16  1  0
 24 19  1  0
  1 26  1  0
  1 27  1  0
  1 28  1  0
  4 29  1  0
  5 30  1  0
  6 31  1  0
  7 32  1  0
  9 33  1  0
 12 34  1  0
 12 35  1  0
 13 36  1  0
 17 37  1  0
 18 38  1  0
 20 39  1  0
 21 40  1  0
 22 41  1  0
 23 42  1  0
M  END
>  <smiles>  (7) 
COc1ccccc1NC(=O)CNC(=O)c1ccc2ccccc2n1

>  <score_type>  (7) 
oracle

>  <origin>  (7) 
autodockgpu

>  <m_score__min__energy>  (7) 
-8.6500000000000004

>  <m_primary>  (7) 
energy

>  <rmsd>  (7) 
8.567629611680255

>  <m_score__min__rmsd>  (7) 
8.567629611680255

>  <meeko>  (7) 
{"free_energy": -7.35, "intermolecular_energy": -8.84, "internal_energy": -2.1, "cluster_size": 32, "cluster_id": 2, "rank_in_cluster": 30}

>  <energy>  (7) 
-8.56

>  <cluster_rmsd>  (7) 
0.17

>  <cluster>  (7) 
1

$$$$

     RDKit          3D

 42 44  0  0  0  0  0  0  0  0999 V2000
  138.8690   69.3460  222.1800 C   0  0  0  0  0  0  0  0  0  0  0  0
  138.3640   69.9360  223.3430 O   0  0  0  0  0  0  0  0  0  0  0  0
  139.1900   70.3650  224.3410 C   0  0  0  0  0  0  0  0  0  0  0  0
  139.2480   69.5650  225.4900 C   0  0  0  0  0  0  0  0  0  0  0  0
  140.0490   69.9150  226.5490 C   0  0  0  0  0  0  0  0  0  0  0  0
  140.7780   71.0720  226.4270 C   0  0  0  0  0  0  0  0  0  0  0  0
  140.7190   71.8540  225.2980 C   0  0  0  0  0  0  0  0  0  0  0  0
  139.9100   71.5200  224.2010 C   0  0  0  0  0  0  0  0  0  0  0  0
  139.9210   72.4000  223.1180 N   0  0  0  0  0  0  0  0  0  0  0  0
  140.8040   72.5080  222.0420 C   0  0  0  0  0  0  0  0  0  0  0  0
  141.7810   71.7610  221.9400 O   0  0  0  0  0  0  0  0  0  0  0  0
  140.6510   73.5220  220.9360 C   0  0  0  0  0  0  0  0  0  0  0  0
  140.7390   74.8860  221.3820 N   0  0  0  0  0  0  0  0  0  0  0  0
  139.6810   75.5660  222.0180 C   0  0  0  0  0  0  0  0  0  0  0  0
  138.5440   75.0300  222.2480 O   0  0  0  0  0  0  0  0  0  0  0  0
  139.8800   76.9510  222.4400 C   0  0  0  0  0  0  0  0  0  0  0  0
  138.8130   77.7780  222.7240 C   0  0  0  0  0  0  0  0  0  0  0  0
  138.9490   79.0860  223.1250 C   0  0  0  0  0  0  0  0  0  0  0  0
  140.2500   79.5640  223.2380 C   0  0  0  0  0  0  0  0  0  0  0  0
  140.4170   80.8850  223.6410 C   0  0  0  0  0  0  0  0  0  0  0  0
  141.7150   81.3650  223.7550 C   0  0  0  0  0  0  0  0  0  0  0  0
  142.8150   80.5800  223.4840 C   0  0  0  0  0  0  0  0  0  0  0  0
  142.6020   79.2720  223.0850 C   0  0  0  0  0  0  0  0  0  0  0  0
  141.3340   78.7440  222.9570 C   0  0  0  0  0  0  0  0  0  0  0  0
  141.1110   77.4690  222.5690 N   0  0  0  0  0  0  0  0  0  0  0  0
  139.5622   68.5361  222.4510 H   0  0  0  0  0  0  0  0  0  0  0  0
  138.0387   68.9349  221.5871 H   0  0  0  0  0  0  0  0  0  0  0  0
  139.4033   70.1030  221.5871 H   0  0  0  0  0  0  0  0  0  0  0  0
  138.6452   68.6465  225.5442 H   0  0  0  0  0  0  0  0  0  0  0  0
  140.1042   69.2951  227.4560 H   0  0  0  0  0  0  0  0  0  0  0  0
  141.4288   71.3825  227.2576 H   0  0  0  0  0  0  0  0  0  0  0  0
  141.3252   72.7708  225.2530 H   0  0  0  0  0  0  0  0  0  0  0  0
  139.1310   73.1290  223.1030 H   0  0  0  0  0  0  0  0  0  0  0  0
  141.4442   73.3480  220.1940 H   0  0  0  0  0  0  0  0  0  0  0  0
  139.6436   73.3872  220.5154 H   0  0  0  0  0  0  0  0  0  0  0  0
  141.6340   75.3910  221.2220 H   0  0  0  0  0  0  0  0  0  0  0  0
  137.7971   77.3682  222.6241 H   0  0  0  0  0  0  0  0  0  0  0  0
  138.0769   79.7195  223.3443 H   0  0  0  0  0  0  0  0  0  0  0  0
  139.5513   81.5267  223.8616 H   0  0  0  0  0  0  0  0  0  0  0  0
  141.8705   82.4067  224.0723 H   0  0  0  0  0  0  0  0  0  0  0  0
  143.8342   80.9821  223.5821 H   0  0  0  0  0  0  0  0  0  0  0  0
  143.4702   78.6340  222.8632 H   0  0  0  0  0  0  0  0  0  0  0  0
  1  2  1  0
  2  3  1  0
  3  4  2  0
  4  5  1  0
  5  6  2  0
  6  7  1  0
  7  8  2  0
  8  9  1  0
  9 10  1  0
 10 11  2  0
 10 12  1  0
 12 13  1  0
 13 14  1  0
 14 15  2  0
 14 16  1  0
 16 17  2  0
 17 18  1  0
 18 19  2  0
 19 20  1  0
 20 21  2  0
 21 22  1  0
 22 23  2  0
 23 24  1  0
 24 25  2  0
  8  3  1  0
 25 16  1  0
 24 19  1  0
  1 26  1  0
  1 27  1  0
  1 28  1  0
  4 29  1  0
  5 30  1  0
  6 31  1  0
  7 32  1  0
  9 33  1  0
 12 34  1  0
 12 35  1  0
 13 36  1  0
 17 37  1  0
 18 38  1  0
 20 39  1  0
 21 40  1  0
 22 41  1  0
 23 42  1  0
M  END
>  <smiles>  (8) 
COc1ccccc1NC(=O)CNC(=O)c1ccc2ccccc2n1

>  <score_type>  (8) 
oracle

>  <origin>  (8) 
autodockgpu

>  <m_score__min__energy>  (8) 
-8.6500000000000004

>  <m_primary>  (8) 
energy

>  <rmsd>  (8) 
8.620345080404999

>  <m_score__min__rmsd>  (8) 
8.620345080404999

>  <meeko>  (8) 
{"free_energy": -7.38, "intermolecular_energy": -8.88, "internal_energy": -2.08, "cluster_size": 32, "cluster_id": 2, "rank_in_cluster": 19}

>  <energy>  (8) 
-8.55

>  <cluster_rmsd>  (8) 
0.5

>  <cluster>  (8) 
1

$$$$

     RDKit          3D

 42 44  0  0  0  0  0  0  0  0999 V2000
  138.8860   69.2960  222.1950 C   0  0  0  0  0  0  0  0  0  0  0  0
  138.3710   69.9140  223.3390 O   0  0  0  0  0  0  0  0  0  0  0  0
  139.1860   70.3390  224.3470 C   0  0  0  0  0  0  0  0  0  0  0  0
  139.2180   69.5450  225.5010 C   0  0  0  0  0  0  0  0  0  0  0  0
  140.0060   69.8920  226.5700 C   0  0  0  0  0  0  0  0  0  0  0  0
  140.7500   71.0410  226.4530 C   0  0  0  0  0  0  0  0  0  0  0  0
  140.7160   71.8170  225.3200 C   0  0  0  0  0  0  0  0  0  0  0  0
  139.9200   71.4860  224.2120 C   0  0  0  0  0  0  0  0  0  0  0  0
  139.9570   72.3610  223.1260 N   0  0  0  0  0  0  0  0  0  0  0  0
  140.8280   72.4230  222.0360 C   0  0  0  0  0  0  0  0  0  0  0  0
  141.7670   71.6290  221.9230 O   0  0  0  0  0  0  0  0  0  0  0  0
  140.7080   73.4380  220.9280 C   0  0  0  0  0  0  0  0  0  0  0  0
  140.7850   74.8010  221.3780 N   0  0  0  0  0  0  0  0  0  0  0  0
  139.7070   75.4860  221.9740 C   0  0  0  0  0  0  0  0  0  0  0  0
  138.5590   74.9550  222.1600 O   0  0  0  0  0  0  0  0  0  0  0  0
  139.8960   76.8700  222.4050 C   0  0  0  0  0  0  0  0  0  0  0  0
  138.8230   77.6870  222.6950 C   0  0  0  0  0  0  0  0  0  0  0  0
  138.9500   78.9930  223.1040 C   0  0  0  0  0  0  0  0  0  0  0  0
  140.2480   79.4800  223.2190 C   0  0  0  0  0  0  0  0  0  0  0  0
  140.4060   80.8000  223.6310 C   0  0  0  0  0  0  0  0  0  0  0  0
  141.7000   81.2890  223.7460 C   0  0  0  0  0  0  0  0  0  0  0  0
  142.8050   80.5130  223.4690 C   0  0  0  0  0  0  0  0  0  0  0  0
  142.6020   79.2060  223.0620 C   0  0  0  0  0  0  0  0  0  0  0  0
  141.3380   78.6700  222.9310 C   0  0  0  0  0  0  0  0  0  0  0  0
  141.1230   77.3950  222.5350 N   0  0  0  0  0  0  0  0  0  0  0  0
  139.5641   68.4823  222.4916 H   0  0  0  0  0  0  0  0  0  0  0  0
  138.0595   68.8849  221.5968 H   0  0  0  0  0  0  0  0  0  0  0  0
  139.4395   70.0348  221.5968 H   0  0  0  0  0  0  0  0  0  0  0  0
  138.6047   68.6332  225.5509 H   0  0  0  0  0  0  0  0  0  0  0  0
  140.0403   69.2766  227.4811 H   0  0  0  0  0  0  0  0  0  0  0  0
  141.3920   71.3487  227.2915 H   0  0  0  0  0  0  0  0  0  0  0  0
  141.3324   72.7272  225.2796 H   0  0  0  0  0  0  0  0  0  0  0  0
  139.2020   73.1270  223.1190 H   0  0  0  0  0  0  0  0  0  0  0  0
  141.5218   73.2639  220.2087 H   0  0  0  0  0  0  0  0  0  0  0  0
  139.7128   73.3051  220.4786 H   0  0  0  0  0  0  0  0  0  0  0  0
  141.6870   75.3020  221.2530 H   0  0  0  0  0  0  0  0  0  0  0  0
  137.8101   77.2703  222.5933 H   0  0  0  0  0  0  0  0  0  0  0  0
  138.0735   79.6187  223.3281 H   0  0  0  0  0  0  0  0  0  0  0  0
  139.5358   81.4336  223.8576 H   0  0  0  0  0  0  0  0  0  0  0  0
  141.8485   82.3300  224.0688 H   0  0  0  0  0  0  0  0  0  0  0  0
  143.8213   80.9218  223.5688 H   0  0  0  0  0  0  0  0  0  0  0  0
  143.4748   78.5758  222.8362 H   0  0  0  0  0  0  0  0  0  0  0  0
  1  2  1  0
  2  3  1  0
  3  4  2  0
  4  5  1  0
  5  6  2  0
  6  7  1  0
  7  8  2  0
  8  9  1  0
  9 10  1  0
 10 11  2  0
 10 12  1  0
 12 13  1  0
 13 14  1  0
 14 15  2  0
 14 16  1  0
 16 17  2  0
 17 18  1  0
 18 19  2  0
 19 20  1  0
 20 21  2  0
 21 22  1  0
 22 23  2  0
 23 24  1  0
 24 25  2  0
  8  3  1  0
 25 16  1  0
 24 19  1  0
  1 26  1  0
  1 27  1  0
  1 28  1  0
  4 29  1  0
  5 30  1  0
  6 31  1  0
  7 32  1  0
  9 33  1  0
 12 34  1  0
 12 35  1  0
 13 36  1  0
 17 37  1  0
 18 38  1  0
 20 39  1  0
 21 40  1  0
 22 41  1  0
 23 42  1  0
M  END
>  <smiles>  (9) 
COc1ccccc1NC(=O)CNC(=O)c1ccc2ccccc2n1

>  <score_type>  (9) 
oracle

>  <origin>  (9) 
autodockgpu

>  <m_score__min__energy>  (9) 
-8.6500000000000004

>  <m_primary>  (9) 
energy

>  <rmsd>  (9) 
8.5924543663492

>  <m_score__min__rmsd>  (9) 
8.5924543663492

>  <meeko>  (9) 
{"free_energy": -7.39, "intermolecular_energy": -8.88, "internal_energy": -2.09, "cluster_size": 32, "cluster_id": 2, "rank_in_cluster": 15}

>  <energy>  (9) 
-8.55

>  <cluster_rmsd>  (9) 
0.15

>  <cluster>  (9) 
1

$$$$

     RDKit          3D

 42 44  0  0  0  0  0  0  0  0999 V2000
  138.6940   69.7470  222.0790 C   0  0  0  0  0  0  0  0  0  0  0  0
  138.2500   70.3050  223.2830 O   0  0  0  0  0  0  0  0  0  0  0  0
  139.1190   70.6060  224.2910 C   0  0  0  0  0  0  0  0  0  0  0  0
  139.0640   69.7900  225.4280 C   0  0  0  0  0  0  0  0  0  0  0  0
  139.8970   70.0170  226.4950 C   0  0  0  0  0  0  0  0  0  0  0  0
  140.7730   71.0690  226.3940 C   0  0  0  0  0  0  0  0  0  0  0  0
  140.8240   71.8670  225.2770 C   0  0  0  0  0  0  0  0  0  0  0  0
  139.9860   71.6590  224.1710 C   0  0  0  0  0  0  0  0  0  0  0  0
  140.1190   72.5450  223.1020 N   0  0  0  0  0  0  0  0  0  0  0  0
  141.0150   72.5500  222.0310 C   0  0  0  0  0  0  0  0  0  0  0  0
  141.8850   71.6820  221.9210 O   0  0  0  0  0  0  0  0  0  0  0  0
  141.0040   73.5910  220.9390 C   0  0  0  0  0  0  0  0  0  0  0  0
  141.0590   74.9430  221.4250 N   0  0  0  0  0  0  0  0  0  0  0  0
  139.9400   75.6340  221.9310 C   0  0  0  0  0  0  0  0  0  0  0  0
  138.7710   75.1200  221.9950 O   0  0  0  0  0  0  0  0  0  0  0  0
  140.1080   77.0050  222.4090 C   0  0  0  0  0  0  0  0  0  0  0  0
  139.0260   77.7820  222.7670 C   0  0  0  0  0  0  0  0  0  0  0  0
  139.1330   79.0740  223.2220 C   0  0  0  0  0  0  0  0  0  0  0  0
  140.4210   79.5910  223.3120 C   0  0  0  0  0  0  0  0  0  0  0  0
  140.5600   80.8980  223.7680 C   0  0  0  0  0  0  0  0  0  0  0  0
  141.8440   81.4170  223.8590 C   0  0  0  0  0  0  0  0  0  0  0  0
  142.9590   80.6820  223.5150 C   0  0  0  0  0  0  0  0  0  0  0  0
  142.7750   79.3870  223.0650 C   0  0  0  0  0  0  0  0  0  0  0  0
  141.5210   78.8220  222.9560 C   0  0  0  0  0  0  0  0  0  0  0  0
  141.3250   77.5580  222.5180 N   0  0  0  0  0  0  0  0  0  0  0  0
  139.3659   68.9025  222.2920 H   0  0  0  0  0  0  0  0  0  0  0  0
  137.8297   69.3907  221.4993 H   0  0  0  0  0  0  0  0  0  0  0  0
  139.2353   70.5091  221.4993 H   0  0  0  0  0  0  0  0  0  0  0  0
  138.3453   68.9581  225.4663 H   0  0  0  0  0  0  0  0  0  0  0  0
  139.8640   69.3827  227.3931 H   0  0  0  0  0  0  0  0  0  0  0  0
  141.4540   71.2792  227.2319 H   0  0  0  0  0  0  0  0  0  0  0  0
  141.5458   72.6966  225.2487 H   0  0  0  0  0  0  0  0  0  0  0  0
  139.4330   73.3730  223.0950 H   0  0  0  0  0  0  0  0  0  0  0  0
  141.8747   73.4206  220.2887 H   0  0  0  0  0  0  0  0  0  0  0  0
  140.0499   73.4822  220.4025 H   0  0  0  0  0  0  0  0  0  0  0  0
  141.9770   75.4300  221.3980 H   0  0  0  0  0  0  0  0  0  0  0  0
  138.0210   77.3426  222.6835 H   0  0  0  0  0  0  0  0  0  0  0  0
  138.2489   79.6667  223.4997 H   0  0  0  0  0  0  0  0  0  0  0  0
  139.6823   81.4995  224.0469 H   0  0  0  0  0  0  0  0  0  0  0  0
  141.9766   82.4485  224.2173 H   0  0  0  0  0  0  0  0  0  0  0  0
  143.9674   81.1139  223.5963 H   0  0  0  0  0  0  0  0  0  0  0  0
  143.6552   78.7894  222.7856 H   0  0  0  0  0  0  0  0  0  0  0  0
  1  2  1  0
  2  3  1  0
  3  4  2  0
  4  5  1  0
  5  6  2  0
  6  7  1  0
  7  8  2  0
  8  9  1  0
  9 10  1  0
 10 11  2  0
 10 12  1  0
 12 13  1  0
 13 14  1  0
 14 15  2  0
 14 16  1  0
 16 17  2  0
 17 18  1  0
 18 19  2  0
 19 20  1  0
 20 21  2  0
 21 22  1  0
 22 23  2  0
 23 24  1  0
 24 25  2  0
  8  3  1  0
 25 16  1  0
 24 19  1  0
  1 26  1  0
  1 27  1  0
  1 28  1  0
  4 29  1  0
  5 30  1  0
  6 31  1  0
  7 32  1  0
  9 33  1  0
 12 34  1  0
 12 35  1  0
 13 36  1  0
 17 37  1  0
 18 38  1  0
 20 39  1  0
 21 40  1  0
 22 41  1  0
 23 42  1  0
M  END
>  <smiles>  (10) 
COc1ccccc1NC(=O)CNC(=O)c1ccc2ccccc2n1

>  <score_type>  (10) 
oracle

>  <origin>  (10) 
autodockgpu

>  <m_score__min__energy>  (10) 
-8.6500000000000004

>  <m_primary>  (10) 
energy

>  <rmsd>  (10) 
8.650720177025201

>  <m_score__min__rmsd>  (10) 
8.650720177025201

>  <meeko>  (10) 
{"free_energy": -7.38, "intermolecular_energy": -8.87, "internal_energy": -2.12, "cluster_size": 32, "cluster_id": 2, "rank_in_cluster": 24}

>  <energy>  (10) 
-8.48

>  <cluster_rmsd>  (10) 
0.7

>  <cluster>  (10) 
1

$$$$

     RDKit          3D

 42 44  0  0  0  0  0  0  0  0999 V2000
  138.8570   69.3610  222.1780 C   0  0  0  0  0  0  0  0  0  0  0  0
  138.3530   69.9320  223.3510 O   0  0  0  0  0  0  0  0  0  0  0  0
  139.1820   70.3630  224.3460 C   0  0  0  0  0  0  0  0  0  0  0  0
  139.2460   69.5660  225.4950 C   0  0  0  0  0  0  0  0  0  0  0  0
  140.0500   69.9190  226.5510 C   0  0  0  0  0  0  0  0  0  0  0  0
  140.7760   71.0770  226.4240 C   0  0  0  0  0  0  0  0  0  0  0  0
  140.7120   71.8570  225.2950 C   0  0  0  0  0  0  0  0  0  0  0  0
  139.9000   71.5200  224.2010 C   0  0  0  0  0  0  0  0  0  0  0  0
  139.9050   72.3980  223.1170 N   0  0  0  0  0  0  0  0  0  0  0  0
  140.7980   72.5240  222.0510 C   0  0  0  0  0  0  0  0  0  0  0  0
  141.7920   71.7970  221.9620 O   0  0  0  0  0  0  0  0  0  0  0  0
  140.6380   73.5320  220.9420 C   0  0  0  0  0  0  0  0  0  0  0  0
  140.7370   74.8980  221.3790 N   0  0  0  0  0  0  0  0  0  0  0  0
  139.6930   75.5830  222.0330 C   0  0  0  0  0  0  0  0  0  0  0  0
  138.5600   75.0500  222.2890 O   0  0  0  0  0  0  0  0  0  0  0  0
  139.9020   76.9690  222.4450 C   0  0  0  0  0  0  0  0  0  0  0  0
  138.8420   77.8030  222.7350 C   0  0  0  0  0  0  0  0  0  0  0  0
  138.9880   79.1130  223.1260 C   0  0  0  0  0  0  0  0  0  0  0  0
  140.2920   79.5860  223.2220 C   0  0  0  0  0  0  0  0  0  0  0  0
  140.4700   80.9080  223.6150 C   0  0  0  0  0  0  0  0  0  0  0  0
  141.7710   81.3830  223.7120 C   0  0  0  0  0  0  0  0  0  0  0  0
  142.8640   80.5910  223.4340 C   0  0  0  0  0  0  0  0  0  0  0  0
  142.6420   79.2820  223.0460 C   0  0  0  0  0  0  0  0  0  0  0  0
  141.3700   78.7590  222.9340 C   0  0  0  0  0  0  0  0  0  0  0  0
  141.1370   77.4820  222.5560 N   0  0  0  0  0  0  0  0  0  0  0  0
  139.5647   68.5592  222.4352 H   0  0  0  0  0  0  0  0  0  0  0  0
  138.0280   68.9430  221.5881 H   0  0  0  0  0  0  0  0  0  0  0  0
  139.3747   70.1317  221.5881 H   0  0  0  0  0  0  0  0  0  0  0  0
  138.6453   68.6463  225.5528 H   0  0  0  0  0  0  0  0  0  0  0  0
  140.1096   69.3008  227.4589 H   0  0  0  0  0  0  0  0  0  0  0  0
  141.4292   71.3901  227.2518 H   0  0  0  0  0  0  0  0  0  0  0  0
  141.3164   72.7748  225.2469 H   0  0  0  0  0  0  0  0  0  0  0  0
  139.1000   73.1100  223.0910 H   0  0  0  0  0  0  0  0  0  0  0  0
  141.4224   73.3502  220.1926 H   0  0  0  0  0  0  0  0  0  0  0  0
  139.6254   73.3996  220.5332 H   0  0  0  0  0  0  0  0  0  0  0  0
  141.6280   75.4000  221.1990 H   0  0  0  0  0  0  0  0  0  0  0  0
  137.8232   77.3973  222.6486 H   0  0  0  0  0  0  0  0  0  0  0  0
  138.1210   79.7517  223.3505 H   0  0  0  0  0  0  0  0  0  0  0  0
  139.6097   81.5551  223.8412 H   0  0  0  0  0  0  0  0  0  0  0  0
  141.9347   82.4260  224.0210 H   0  0  0  0  0  0  0  0  0  0  0  0
  143.8859   80.9893  223.5184 H   0  0  0  0  0  0  0  0  0  0  0  0
  143.5052   78.6387  222.8200 H   0  0  0  0  0  0  0  0  0  0  0  0
  1  2  1  0
  2  3  1  0
  3  4  2  0
  4  5  1  0
  5  6  2  0
  6  7  1  0
  7  8  2  0
  8  9  1  0
  9 10  1  0
 10 11  2  0
 10 12  1  0
 12 13  1  0
 13 14  1  0
 14 15  2  0
 14 16  1  0
 16 17  2  0
 17 18  1  0
 18 19  2  0
 19 20  1  0
 20 21  2  0
 21 22  1  0
 22 23  2  0
 23 24  1  0
 24 25  2  0
  8  3  1  0
 25 16  1  0
 24 19  1  0
  1 26  1  0
  1 27  1  0
  1 28  1  0
  4 29  1  0
  5 30  1  0
  6 31  1  0
  7 32  1  0
  9 33  1  0
 12 34  1  0
 12 35  1  0
 13 36  1  0
 17 37  1  0
 18 38  1  0
 20 39  1  0
 21 40  1  0
 22 41  1  0
 23 42  1  0
M  END
>  <smiles>  (11) 
COc1ccccc1NC(=O)CNC(=O)c1ccc2ccccc2n1

>  <score_type>  (11) 
oracle

>  <origin>  (11) 
autodockgpu

>  <m_score__min__energy>  (11) 
-8.6500000000000004

>  <m_primary>  (11) 
energy

>  <rmsd>  (11) 
8.635679791619376

>  <m_score__min__rmsd>  (11) 
8.635679791619376

>  <meeko>  (11) 
{"free_energy": -7.37, "intermolecular_energy": -8.86, "internal_energy": -2.08, "cluster_size": 32, "cluster_id": 2, "rank_in_cluster": 28}

>  <energy>  (11) 
-8.35

>  <cluster_rmsd>  (11) 
0.24

>  <cluster>  (11) 
1

$$$$

     RDKit          3D

 42 44  0  0  0  0  0  0  0  0999 V2000
  142.1910   77.9210  219.1930 C   0  0  0  0  0  0  0  0  0  0  0  0
  141.3330   78.7750  219.8930 O   0  0  0  0  0  0  0  0  0  0  0  0
  141.4610   78.9670  221.2380 C   0  0  0  0  0  0  0  0  0  0  0  0
  141.6970   80.2810  221.6620 C   0  0  0  0  0  0  0  0  0  0  0  0
  141.8430   80.5720  222.9960 C   0  0  0  0  0  0  0  0  0  0  0  0
  141.7480   79.5260  223.8800 C   0  0  0  0  0  0  0  0  0  0  0  0
  141.5160   78.2380  223.4600 C   0  0  0  0  0  0  0  0  0  0  0  0
  141.3630   77.9110  222.1040 C   0  0  0  0  0  0  0  0  0  0  0  0
  141.1470   76.5670  221.8000 N   0  0  0  0  0  0  0  0  0  0  0  0
  139.9670   75.8740  221.5220 C   0  0  0  0  0  0  0  0  0  0  0  0
  138.8730   76.4450  221.5350 O   0  0  0  0  0  0  0  0  0  0  0  0
  139.9210   74.4040  221.1910 C   0  0  0  0  0  0  0  0  0  0  0  0
  139.8390   73.5510  222.3460 N   0  0  0  0  0  0  0  0  0  0  0  0
  140.3440   72.2350  222.3780 C   0  0  0  0  0  0  0  0  0  0  0  0
  140.9130   71.6800  221.3770 O   0  0  0  0  0  0  0  0  0  0  0  0
  140.2160   71.4560  223.6080 C   0  0  0  0  0  0  0  0  0  0  0  0
  139.5920   70.2250  223.6210 C   0  0  0  0  0  0  0  0  0  0  0  0
  139.4490   69.4560  224.7510 C   0  0  0  0  0  0  0  0  0  0  0  0
  139.9740   69.9830  225.9260 C   0  0  0  0  0  0  0  0  0  0  0  0
  139.8420   69.2260  227.0860 C   0  0  0  0  0  0  0  0  0  0  0  0
  140.3650   69.7480  228.2600 C   0  0  0  0  0  0  0  0  0  0  0  0
  140.9980   70.9720  228.3010 C   0  0  0  0  0  0  0  0  0  0  0  0
  141.1060   71.6930  227.1250 C   0  0  0  0  0  0  0  0  0  0  0  0
  140.6050   71.2190  225.9300 C   0  0  0  0  0  0  0  0  0  0  0  0
  140.7030   71.9110  224.7720 N   0  0  0  0  0  0  0  0  0  0  0  0
  142.7839   77.3308  219.9072 H   0  0  0  0  0  0  0  0  0  0  0  0
  141.5984   77.2436  218.5605 H   0  0  0  0  0  0  0  0  0  0  0  0
  142.8656   78.5168  218.5605 H   0  0  0  0  0  0  0  0  0  0  0  0
  141.7661   81.0885  220.9183 H   0  0  0  0  0  0  0  0  0  0  0  0
  142.0282   81.5997  223.3417 H   0  0  0  0  0  0  0  0  0  0  0  0
  141.8609   79.7245  224.9560 H   0  0  0  0  0  0  0  0  0  0  0  0
  141.4481   77.4374  224.2113 H   0  0  0  0  0  0  0  0  0  0  0  0
  142.0260   75.9470  221.7840 H   0  0  0  0  0  0  0  0  0  0  0  0
  139.0398   74.2182  220.5594 H   0  0  0  0  0  0  0  0  0  0  0  0
  140.8643   74.1612  220.6798 H   0  0  0  0  0  0  0  0  0  0  0  0
  139.3810   73.9320  223.1970 H   0  0  0  0  0  0  0  0  0  0  0  0
  139.1867   69.8380  222.6745 H   0  0  0  0  0  0  0  0  0  0  0  0
  138.9469   68.4775  224.7274 H   0  0  0  0  0  0  0  0  0  0  0  0
  139.3401   68.2472  227.0726 H   0  0  0  0  0  0  0  0  0  0  0  0
  140.2716   69.1661  229.1888 H   0  0  0  0  0  0  0  0  0  0  0  0
  141.4064   71.3651  229.2437 H   0  0  0  0  0  0  0  0  0  0  0  0
  141.6059   72.6727  227.1433 H   0  0  0  0  0  0  0  0  0  0  0  0
  1  2  1  0
  2  3  1  0
  3  4  2  0
  4  5  1  0
  5  6  2  0
  6  7  1  0
  7  8  2  0
  8  9  1  0
  9 10  1  0
 10 11  2  0
 10 12  1  0
 12 13  1  0
 13 14  1  0
 14 15  2  0
 14 16  1  0
 16 17  2  0
 17 18  1  0
 18 19  2  0
 19 20  1  0
 20 21  2  0
 21 22  1  0
 22 23  2  0
 23 24  1  0
 24 25  2  0
  8  3  1  0
 25 16  1  0
 24 19  1  0
  1 26  1  0
  1 27  1  0
  1 28  1  0
  4 29  1  0
  5 30  1  0
  6 31  1  0
  7 32  1  0
  9 33  1  0
 12 34  1  0
 12 35  1  0
 13 36  1  0
 17 37  1  0
 18 38  1  0
 20 39  1  0
 21 40  1  0
 22 41  1  0
 23 42  1  0
M  END
>  <smiles>  (12) 
COc1ccccc1NC(=O)CNC(=O)c1ccc2ccccc2n1

>  <score_type>  (12) 
oracle

>  <origin>  (12) 
autodockgpu

>  <m_score__min__energy>  (12) 
-8.6500000000000004

>  <m_primary>  (12) 
energy

>  <rmsd>  (12) 
3.247328719707978

>  <m_score__min__rmsd>  (12) 
3.247328719707978

>  <meeko>  (12) 
{"free_energy": -8.58, "intermolecular_energy": -10.07, "internal_energy": -1.09, "cluster_size": 16, "cluster_id": 1, "rank_in_cluster": 4}

>  <energy>  (12) 
-8.34

>  <cluster_rmsd>  (12) 
1.18

>  <cluster>  (12) 
1

$$$$

     RDKit          3D

 42 44  0  0  0  0  0  0  0  0999 V2000
  142.1900   79.7720  218.9940 C   0  0  0  0  0  0  0  0  0  0  0  0
  141.2510   79.3670  219.9490 O   0  0  0  0  0  0  0  0  0  0  0  0
  141.5070   79.4650  221.2860 C   0  0  0  0  0  0  0  0  0  0  0  0
  141.7310   80.7540  221.7860 C   0  0  0  0  0  0  0  0  0  0  0  0
  142.0000   80.9530  223.1170 C   0  0  0  0  0  0  0  0  0  0  0  0
  142.0380   79.8410  223.9220 C   0  0  0  0  0  0  0  0  0  0  0  0
  141.8180   78.5780  223.4270 C   0  0  0  0  0  0  0  0  0  0  0  0
  141.5410   78.3450  222.0720 C   0  0  0  0  0  0  0  0  0  0  0  0
  141.3510   77.0180  221.6850 N   0  0  0  0  0  0  0  0  0  0  0  0
  140.2360   76.1860  221.8040 C   0  0  0  0  0  0  0  0  0  0  0  0
  139.1960   76.5840  222.3360 O   0  0  0  0  0  0  0  0  0  0  0  0
  140.2010   74.7620  221.3080 C   0  0  0  0  0  0  0  0  0  0  0  0
  139.9680   73.7920  222.3430 N   0  0  0  0  0  0  0  0  0  0  0  0
  140.5920   72.5290  222.3800 C   0  0  0  0  0  0  0  0  0  0  0  0
  141.4170   72.1310  221.4890 O   0  0  0  0  0  0  0  0  0  0  0  0
  140.2900   71.6200  223.4840 C   0  0  0  0  0  0  0  0  0  0  0  0
  139.5810   70.4540  223.2850 C   0  0  0  0  0  0  0  0  0  0  0  0
  139.2730   69.5680  224.2900 C   0  0  0  0  0  0  0  0  0  0  0  0
  139.7190   69.9030  225.5640 C   0  0  0  0  0  0  0  0  0  0  0  0
  139.4210   69.0250  226.6010 C   0  0  0  0  0  0  0  0  0  0  0  0
  139.8640   69.3560  227.8750 C   0  0  0  0  0  0  0  0  0  0  0  0
  140.5760   70.5090  228.1270 C   0  0  0  0  0  0  0  0  0  0  0  0
  140.8490   71.3550  227.0660 C   0  0  0  0  0  0  0  0  0  0  0  0
  140.4330   71.0730  225.7810 C   0  0  0  0  0  0  0  0  0  0  0  0
  140.6930   71.8890  224.7350 N   0  0  0  0  0  0  0  0  0  0  0  0
  143.0860   80.1585  219.5017 H   0  0  0  0  0  0  0  0  0  0  0  0
  142.4668   78.9133  218.3648 H   0  0  0  0  0  0  0  0  0  0  0  0
  141.7554   80.5627  218.3648 H   0  0  0  0  0  0  0  0  0  0  0  0
  141.6909   81.6164  221.1043 H   0  0  0  0  0  0  0  0  0  0  0  0
  142.1776   81.9603  223.5218 H   0  0  0  0  0  0  0  0  0  0  0  0
  142.2507   79.9649  224.9941 H   0  0  0  0  0  0  0  0  0  0  0  0
  141.8605   77.7217  224.1162 H   0  0  0  0  0  0  0  0  0  0  0  0
  142.2000   76.5400  221.2300 H   0  0  0  0  0  0  0  0  0  0  0  0
  139.3965   74.6741  220.5630 H   0  0  0  0  0  0  0  0  0  0  0  0
  141.1930   74.5461  220.8845 H   0  0  0  0  0  0  0  0  0  0  0  0
  139.3010   74.0430  223.1000 H   0  0  0  0  0  0  0  0  0  0  0  0
  139.2429   70.2197  222.2648 H   0  0  0  0  0  0  0  0  0  0  0  0
  138.7055   68.6456  224.0973 H   0  0  0  0  0  0  0  0  0  0  0  0
  138.8540   68.1003  226.4183 H   0  0  0  0  0  0  0  0  0  0  0  0
  139.6394   68.6760  228.7100 H   0  0  0  0  0  0  0  0  0  0  0  0
  140.9182   70.7504  229.1442 H   0  0  0  0  0  0  0  0  0  0  0  0
  141.4145   72.2798  227.2528 H   0  0  0  0  0  0  0  0  0  0  0  0
  1  2  1  0
  2  3  1  0
  3  4  2  0
  4  5  1  0
  5  6  2  0
  6  7  1  0
  7  8  2  0
  8  9  1  0
  9 10  1  0
 10 11  2  0
 10 12  1  0
 12 13  1  0
 13 14  1  0
 14 15  2  0
 14 16  1  0
 16 17  2  0
 17 18  1  0
 18 19  2  0
 19 20  1  0
 20 21  2  0
 21 22  1  0
 22 23  2  0
 23 24  1  0
 24 25  2  0
  8  3  1  0
 25 16  1  0
 24 19  1  0
  1 26  1  0
  1 27  1  0
  1 28  1  0
  4 29  1  0
  5 30  1  0
  6 31  1  0
  7 32  1  0
  9 33  1  0
 12 34  1  0
 12 35  1  0
 13 36  1  0
 17 37  1  0
 18 38  1  0
 20 39  1  0
 21 40  1  0
 22 41  1  0
 23 42  1  0
M  END
>  <smiles>  (13) 
COc1ccccc1NC(=O)CNC(=O)c1ccc2ccccc2n1

>  <score_type>  (13) 
oracle

>  <origin>  (13) 
autodockgpu

>  <m_score__min__energy>  (13) 
-8.6500000000000004

>  <m_primary>  (13) 
energy

>  <rmsd>  (13) 
3.4227211149276187

>  <m_score__min__rmsd>  (13) 
3.4227211149276187

>  <meeko>  (13) 
{"free_energy": -8.65, "intermolecular_energy": -10.14, "internal_energy": -1.16, "cluster_size": 16, "cluster_id": 1, "rank_in_cluster": 1}

>  <energy>  (13) 
-8.32

>  <cluster_rmsd>  (13) 
0.3

>  <cluster>  (13) 
1

$$$$

     RDKit          3D

 42 44  0  0  0  0  0  0  0  0999 V2000
  138.8290   68.3240  223.3310 C   0  0  0  0  0  0  0  0  0  0  0  0
  138.4690   68.7040  224.6280 O   0  0  0  0  0  0  0  0  0  0  0  0
  139.3360   69.3760  225.4400 C   0  0  0  0  0  0  0  0  0  0  0  0
  139.8750   68.6520  226.5120 C   0  0  0  0  0  0  0  0  0  0  0  0
  140.7540   69.2430  227.3850 C   0  0  0  0  0  0  0  0  0  0  0  0
  141.0730   70.5590  227.1590 C   0  0  0  0  0  0  0  0  0  0  0  0
  140.5430   71.2650  226.1060 C   0  0  0  0  0  0  0  0  0  0  0  0
  139.6430   70.6870  225.1980 C   0  0  0  0  0  0  0  0  0  0  0  0
  139.1590   71.5090  224.1790 N   0  0  0  0  0  0  0  0  0  0  0  0
  139.7740   71.9720  223.0140 C   0  0  0  0  0  0  0  0  0  0  0  0
  140.9430   71.6790  222.7490 O   0  0  0  0  0  0  0  0  0  0  0  0
  139.0860   72.8510  222.0010 C   0  0  0  0  0  0  0  0  0  0  0  0
  139.1370   74.2520  222.3180 N   0  0  0  0  0  0  0  0  0  0  0  0
  140.2170   75.0900  221.9720 C   0  0  0  0  0  0  0  0  0  0  0  0
  141.2530   74.6730  221.3510 O   0  0  0  0  0  0  0  0  0  0  0  0
  140.1620   76.5050  222.3350 C   0  0  0  0  0  0  0  0  0  0  0  0
  138.9610   77.1730  222.4500 C   0  0  0  0  0  0  0  0  0  0  0  0
  138.8580   78.5010  222.7890 C   0  0  0  0  0  0  0  0  0  0  0  0
  140.0540   79.1730  223.0200 C   0  0  0  0  0  0  0  0  0  0  0  0
  139.9800   80.5190  223.3630 C   0  0  0  0  0  0  0  0  0  0  0  0
  141.1720   81.1930  223.5940 C   0  0  0  0  0  0  0  0  0  0  0  0
  142.3970   80.5700  223.4930 C   0  0  0  0  0  0  0  0  0  0  0  0
  142.4250   79.2310  223.1480 C   0  0  0  0  0  0  0  0  0  0  0  0
  141.2710   78.5150  222.9080 C   0  0  0  0  0  0  0  0  0  0  0  0
  141.2810   77.2050  222.5700 N   0  0  0  0  0  0  0  0  0  0  0  0
  139.5848   67.5262  223.3791 H   0  0  0  0  0  0  0  0  0  0  0  0
  137.9406   67.9558  222.7969 H   0  0  0  0  0  0  0  0  0  0  0  0
  139.2447   69.1912  222.7969 H   0  0  0  0  0  0  0  0  0  0  0  0
  139.5907   67.5991  226.6553 H   0  0  0  0  0  0  0  0  0  0  0  0
  141.1846   68.6857  228.2300 H   0  0  0  0  0  0  0  0  0  0  0  0
  141.7735   71.0631  227.8410 H   0  0  0  0  0  0  0  0  0  0  0  0
  140.8337   72.3172  225.9706 H   0  0  0  0  0  0  0  0  0  0  0  0
  138.1510   71.8620  224.3050 H   0  0  0  0  0  0  0  0  0  0  0  0
  139.5693   72.6986  221.0247 H   0  0  0  0  0  0  0  0  0  0  0  0
  138.0245   72.5625  221.9953 H   0  0  0  0  0  0  0  0  0  0  0  0
  138.3310   74.6620  222.8300 H   0  0  0  0  0  0  0  0  0  0  0  0
  138.0341   76.6119  222.2599 H   0  0  0  0  0  0  0  0  0  0  0  0
  137.8837   79.0047  222.8730 H   0  0  0  0  0  0  0  0  0  0  0  0
  139.0106   81.0319  223.4484 H   0  0  0  0  0  0  0  0  0  0  0  0
  141.1372   82.2582  223.8663 H   0  0  0  0  0  0  0  0  0  0  0  0
  143.3287   81.1235  223.6819 H   0  0  0  0  0  0  0  0  0  0  0  0
  143.3964   78.7221  223.0625 H   0  0  0  0  0  0  0  0  0  0  0  0
  1  2  1  0
  2  3  1  0
  3  4  2  0
  4  5  1  0
  5  6  2  0
  6  7  1  0
  7  8  2  0
  8  9  1  0
  9 10  1  0
 10 11  2  0
 10 12  1  0
 12 13  1  0
 13 14  1  0
 14 15  2  0
 14 16  1  0
 16 17  2  0
 17 18  1  0
 18 19  2  0
 19 20  1  0
 20 21  2  0
 21 22  1  0
 22 23  2  0
 23 24  1  0
 24 25  2  0
  8  3  1  0
 25 16  1  0
 24 19  1  0
  1 26  1  0
  1 27  1  0
  1 28  1  0
  4 29  1  0
  5 30  1  0
  6 31  1  0
  7 32  1  0
  9 33  1  0
 12 34  1  0
 12 35  1  0
 13 36  1  0
 17 37  1  0
 18 38  1  0
 20 39  1  0
 21 40  1  0
 22 41  1  0
 23 42  1  0
M  END
>  <smiles>  (14) 
COc1ccccc1NC(=O)CNC(=O)c1ccc2ccccc2n1

>  <score_type>  (14) 
oracle

>  <origin>  (14) 
autodockgpu

>  <m_score__min__energy>  (14) 
-8.6500000000000004

>  <m_primary>  (14) 
energy

>  <rmsd>  (14) 
8.683411619168716

>  <m_score__min__rmsd>  (14) 
8.683411619168716

>  <meeko>  (14) 
{"free_energy": -8.25, "intermolecular_energy": -9.74, "internal_energy": -1.05, "cluster_size": 32, "cluster_id": 2, "rank_in_cluster": 1}

>  <energy>  (14) 
-8.32

>  <cluster_rmsd>  (14) 
0.29

>  <cluster>  (14) 
1

$$$$

     RDKit          3D

 42 44  0  0  0  0  0  0  0  0999 V2000
  138.8250   67.7540  223.4840 C   0  0  0  0  0  0  0  0  0  0  0  0
  138.9830   67.3990  224.8270 O   0  0  0  0  0  0  0  0  0  0  0  0
  139.5770   68.2420  225.7220 C   0  0  0  0  0  0  0  0  0  0  0  0
  140.4840   67.6620  226.6190 C   0  0  0  0  0  0  0  0  0  0  0  0
  141.1280   68.4280  227.5580 C   0  0  0  0  0  0  0  0  0  0  0  0
  140.8430   69.7720  227.5730 C   0  0  0  0  0  0  0  0  0  0  0  0
  139.9530   70.3360  226.6920 C   0  0  0  0  0  0  0  0  0  0  0  0
  139.2800   69.5780  225.7220 C   0  0  0  0  0  0  0  0  0  0  0  0
  138.3890   70.2600  224.8930 N   0  0  0  0  0  0  0  0  0  0  0  0
  138.6210   71.1220  223.8200 C   0  0  0  0  0  0  0  0  0  0  0  0
  139.7690   71.4080  223.4670 O   0  0  0  0  0  0  0  0  0  0  0  0
  137.5220   71.7660  223.0140 C   0  0  0  0  0  0  0  0  0  0  0  0
  136.5340   72.4390  223.8120 N   0  0  0  0  0  0  0  0  0  0  0  0
  135.5020   71.7680  224.5000 C   0  0  0  0  0  0  0  0  0  0  0  0
  135.3490   70.5000  224.4660 O   0  0  0  0  0  0  0  0  0  0  0  0
  134.5540   72.5490  225.2930 C   0  0  0  0  0  0  0  0  0  0  0  0
  133.4990   71.9500  225.9500 C   0  0  0  0  0  0  0  0  0  0  0  0
  132.5830   72.6400  226.7070 C   0  0  0  0  0  0  0  0  0  0  0  0
  132.7630   74.0170  226.7900 C   0  0  0  0  0  0  0  0  0  0  0  0
  131.8500   74.7410  227.5490 C   0  0  0  0  0  0  0  0  0  0  0  0
  132.0270   76.1150  227.6330 C   0  0  0  0  0  0  0  0  0  0  0  0
  133.0640   76.7620  226.9960 C   0  0  0  0  0  0  0  0  0  0  0  0
  133.9490   76.0030  226.2510 C   0  0  0  0  0  0  0  0  0  0  0  0
  133.8190   74.6340  226.1340 C   0  0  0  0  0  0  0  0  0  0  0  0
  134.6760   73.8790  225.4100 N   0  0  0  0  0  0  0  0  0  0  0  0
  138.3785   68.7572  223.4200 H   0  0  0  0  0  0  0  0  0  0  0  0
  139.8066   67.7572  222.9877 H   0  0  0  0  0  0  0  0  0  0  0  0
  138.1656   67.0268  222.9877 H   0  0  0  0  0  0  0  0  0  0  0  0
  140.6819   66.5811  226.5699 H   0  0  0  0  0  0  0  0  0  0  0  0
  141.8418   67.9850  228.2682 H   0  0  0  0  0  0  0  0  0  0  0  0
  141.3424   70.4153  228.3124 H   0  0  0  0  0  0  0  0  0  0  0  0
  139.7615   71.4177  226.7488 H   0  0  0  0  0  0  0  0  0  0  0  0
  137.3460   70.1180  225.1150 H   0  0  0  0  0  0  0  0  0  0  0  0
  137.9765   72.5006  222.3330 H   0  0  0  0  0  0  0  0  0  0  0  0
  137.0034   70.9579  222.4773 H   0  0  0  0  0  0  0  0  0  0  0  0
  136.5900   73.4740  223.8810 H   0  0  0  0  0  0  0  0  0  0  0  0
  133.3848   70.8594  225.8630 H   0  0  0  0  0  0  0  0  0  0  0  0
  131.7529   72.1315  227.2193 H   0  0  0  0  0  0  0  0  0  0  0  0
  131.0164   74.2420  228.0649 H   0  0  0  0  0  0  0  0  0  0  0  0
  131.3160   76.7073  228.2277 H   0  0  0  0  0  0  0  0  0  0  0  0
  133.1847   77.8523  227.0777 H   0  0  0  0  0  0  0  0  0  0  0  0
  134.7812   76.5058  225.7365 H   0  0  0  0  0  0  0  0  0  0  0  0
  1  2  1  0
  2  3  1  0
  3  4  2  0
  4  5  1  0
  5  6  2  0
  6  7  1  0
  7  8  2  0
  8  9  1  0
  9 10  1  0
 10 11  2  0
 10 12  1  0
 12 13  1  0
 13 14  1  0
 14 15  2  0
 14 16  1  0
 16 17  2  0
 17 18  1  0
 18 19  2  0
 19 20  1  0
 20 21  2  0
 21 22  1  0
 22 23  2  0
 23 24  1  0
 24 25  2  0
  8  3  1  0
 25 16  1  0
 24 19  1  0
  1 26  1  0
  1 27  1  0
  1 28  1  0
  4 29  1  0
  5 30  1  0
  6 31  1  0
  7 32  1  0
  9 33  1  0
 12 34  1  0
 12 35  1  0
 13 36  1  0
 17 37  1  0
 18 38  1  0
 20 39  1  0
 21 40  1  0
 22 41  1  0
 23 42  1  0
M  END
>  <smiles>  (15) 
COc1ccccc1NC(=O)CNC(=O)c1ccc2ccccc2n1

>  <score_type>  (15) 
oracle

>  <origin>  (15) 
autodockgpu

>  <m_score__min__energy>  (15) 
-8.6500000000000004

>  <m_primary>  (15) 
energy

>  <rmsd>  (15) 
8.328348085069825

>  <m_score__min__rmsd>  (15) 
8.328348085069825

>  <meeko>  (15) 
{"free_energy": -7.19, "intermolecular_energy": -8.68, "internal_energy": -2.08, "cluster_size": 2, "cluster_id": 3, "rank_in_cluster": 2}

>  <energy>  (15) 
-7.75

>  <cluster_rmsd>  (15) 
0.75

>  <cluster>  (15) 
1

$$$$

     RDKit          3D

 42 44  0  0  0  0  0  0  0  0999 V2000
  141.8520   78.7620  219.1650 C   0  0  0  0  0  0  0  0  0  0  0  0
  140.8930   79.0350  220.1460 O   0  0  0  0  0  0  0  0  0  0  0  0
  141.2310   79.1320  221.4650 C   0  0  0  0  0  0  0  0  0  0  0  0
  141.4900   80.4200  221.9500 C   0  0  0  0  0  0  0  0  0  0  0  0
  141.8400   80.6180  223.2620 C   0  0  0  0  0  0  0  0  0  0  0  0
  141.9230   79.5060  224.0630 C   0  0  0  0  0  0  0  0  0  0  0  0
  141.6680   78.2430  223.5840 C   0  0  0  0  0  0  0  0  0  0  0  0
  141.3080   78.0120  222.2470 C   0  0  0  0  0  0  0  0  0  0  0  0
  141.0890   76.6850  221.8740 N   0  0  0  0  0  0  0  0  0  0  0  0
  139.9010   75.9800  221.6720 C   0  0  0  0  0  0  0  0  0  0  0  0
  138.8030   76.5180  221.8380 O   0  0  0  0  0  0  0  0  0  0  0  0
  139.8510   74.5340  221.2460 C   0  0  0  0  0  0  0  0  0  0  0  0
  139.6950   73.6120  222.3380 N   0  0  0  0  0  0  0  0  0  0  0  0
  140.4620   72.4380  222.4800 C   0  0  0  0  0  0  0  0  0  0  0  0
  141.3620   72.0860  221.6440 O   0  0  0  0  0  0  0  0  0  0  0  0
  140.2280   71.5740  223.6360 C   0  0  0  0  0  0  0  0  0  0  0  0
  139.5160   70.3980  223.5230 C   0  0  0  0  0  0  0  0  0  0  0  0
  139.2700   69.5520  224.5780 C   0  0  0  0  0  0  0  0  0  0  0  0
  139.7850   69.9390  225.8110 C   0  0  0  0  0  0  0  0  0  0  0  0
  139.5510   69.1020  226.8970 C   0  0  0  0  0  0  0  0  0  0  0  0
  140.0640   69.4850  228.1290 C   0  0  0  0  0  0  0  0  0  0  0  0
  140.7830   70.6490  228.2950 C   0  0  0  0  0  0  0  0  0  0  0  0
  140.9910   71.4530  227.1880 C   0  0  0  0  0  0  0  0  0  0  0  0
  140.5050   71.1190  225.9410 C   0  0  0  0  0  0  0  0  0  0  0  0
  140.7000   71.8930  224.8500 N   0  0  0  0  0  0  0  0  0  0  0  0
  142.8029   78.4913  219.6471 H   0  0  0  0  0  0  0  0  0  0  0  0
  141.5077   77.9262  218.5382 H   0  0  0  0  0  0  0  0  0  0  0  0
  141.9995   79.6538  218.5382 H   0  0  0  0  0  0  0  0  0  0  0  0
  141.4120   81.2825  221.2717 H   0  0  0  0  0  0  0  0  0  0  0  0
  142.0453   81.6246  223.6552 H   0  0  0  0  0  0  0  0  0  0  0  0
  142.2020   79.6295  225.1199 H   0  0  0  0  0  0  0  0  0  0  0  0
  141.7486   77.3867  224.2697 H   0  0  0  0  0  0  0  0  0  0  0  0
  141.9740   76.0920  221.7240 H   0  0  0  0  0  0  0  0  0  0  0  0
  139.0020   74.4042  220.5587 H   0  0  0  0  0  0  0  0  0  0  0  0
  140.8165   74.3067  220.7705 H   0  0  0  0  0  0  0  0  0  0  0  0
  138.9750   73.8290  223.0560 H   0  0  0  0  0  0  0  0  0  0  0  0
  139.1232   70.1218  222.5333 H   0  0  0  0  0  0  0  0  0  0  0  0
  138.6978   68.6208  224.4542 H   0  0  0  0  0  0  0  0  0  0  0  0
  138.9794   68.1690  226.7837 H   0  0  0  0  0  0  0  0  0  0  0  0
  139.8908   68.8379  229.0015 H   0  0  0  0  0  0  0  0  0  0  0  0
  141.1809   70.9314  229.2809 H   0  0  0  0  0  0  0  0  0  0  0  0
  141.5610   72.3864  227.3060 H   0  0  0  0  0  0  0  0  0  0  0  0
  1  2  1  0
  2  3  1  0
  3  4  2  0
  4  5  1  0
  5  6  2  0
  6  7  1  0
  7  8  2  0
  8  9  1  0
  9 10  1  0
 10 11  2  0
 10 12  1  0
 12 13  1  0
 13 14  1  0
 14 15  2  0
 14 16  1  0
 16 17  2  0
 17 18  1  0
 18 19  2  0
 19 20  1  0
 20 21  2  0
 21 22  1  0
 22 23  2  0
 23 24  1  0
 24 25  2  0
  8  3  1  0
 25 16  1  0
 24 19  1  0
  1 26  1  0
  1 27  1  0
  1 28  1  0
  4 29  1  0
  5 30  1  0
  6 31  1  0
  7 32  1  0
  9 33  1  0
 12 34  1  0
 12 35  1  0
 13 36  1  0
 17 37  1  0
 18 38  1  0
 20 39  1  0
 21 40  1  0
 22 41  1  0
 23 42  1  0
M  END
>  <smiles>  (16) 
COc1ccccc1NC(=O)CNC(=O)c1ccc2ccccc2n1

>  <score_type>  (16) 
oracle

>  <origin>  (16) 
autodockgpu

>  <m_score__min__energy>  (16) 
-8.6500000000000004

>  <m_primary>  (16) 
energy

>  <rmsd>  (16) 
3.3409132393669405

>  <m_score__min__rmsd>  (16) 
3.3409132393669405

>  <meeko>  (16) 
{"free_energy": -8.61, "intermolecular_energy": -10.1, "internal_energy": -1.07, "cluster_size": 16, "cluster_id": 1, "rank_in_cluster": 3}

>  <energy>  (16) 
-7.62

>  <cluster_rmsd>  (16) 
0.95

>  <cluster>  (16) 
1

$$$$

     RDKit          3D

 42 44  0  0  0  0  0  0  0  0999 V2000
  142.1960   79.0590  219.0000 C   0  0  0  0  0  0  0  0  0  0  0  0
  141.2120   79.4320  219.9210 O   0  0  0  0  0  0  0  0  0  0  0  0
  141.4850   79.5300  221.2550 C   0  0  0  0  0  0  0  0  0  0  0  0
  141.6980   80.8210  221.7560 C   0  0  0  0  0  0  0  0  0  0  0  0
  141.9820   81.0190  223.0840 C   0  0  0  0  0  0  0  0  0  0  0  0
  142.0470   79.9060  223.8850 C   0  0  0  0  0  0  0  0  0  0  0  0
  141.8380   78.6410  223.3900 C   0  0  0  0  0  0  0  0  0  0  0  0
  141.5450   78.4080  222.0370 C   0  0  0  0  0  0  0  0  0  0  0  0
  141.3680   77.0790  221.6490 N   0  0  0  0  0  0  0  0  0  0  0  0
  140.2880   76.2140  221.8310 C   0  0  0  0  0  0  0  0  0  0  0  0
  139.2740   76.5770  222.4350 O   0  0  0  0  0  0  0  0  0  0  0  0
  140.2610   74.7950  221.3230 C   0  0  0  0  0  0  0  0  0  0  0  0
  140.0110   73.8160  222.3460 N   0  0  0  0  0  0  0  0  0  0  0  0
  140.6110   72.5410  222.3650 C   0  0  0  0  0  0  0  0  0  0  0  0
  141.4250   72.1380  221.4670 O   0  0  0  0  0  0  0  0  0  0  0  0
  140.2940   71.6240  223.4590 C   0  0  0  0  0  0  0  0  0  0  0  0
  139.5900   70.4570  223.2400 C   0  0  0  0  0  0  0  0  0  0  0  0
  139.2700   69.5640  224.2350 C   0  0  0  0  0  0  0  0  0  0  0  0
  139.6950   69.8910  225.5180 C   0  0  0  0  0  0  0  0  0  0  0  0
  139.3830   69.0060  226.5450 C   0  0  0  0  0  0  0  0  0  0  0  0
  139.8060   69.3290  227.8270 C   0  0  0  0  0  0  0  0  0  0  0  0
  140.5120   70.4820  228.0970 C   0  0  0  0  0  0  0  0  0  0  0  0
  140.8000   71.3350  227.0470 C   0  0  0  0  0  0  0  0  0  0  0  0
  140.4040   71.0610  225.7540 C   0  0  0  0  0  0  0  0  0  0  0  0
  140.6780   71.8850  224.7170 N   0  0  0  0  0  0  0  0  0  0  0  0
  143.0927   78.7191  219.5389 H   0  0  0  0  0  0  0  0  0  0  0  0
  141.8163   78.2424  218.3683 H   0  0  0  0  0  0  0  0  0  0  0  0
  142.4530   79.9221  218.3683 H   0  0  0  0  0  0  0  0  0  0  0  0
  141.6370   81.6849  221.0778 H   0  0  0  0  0  0  0  0  0  0  0  0
  142.1505   82.0275  223.4897 H   0  0  0  0  0  0  0  0  0  0  0  0
  142.2730   80.0303  224.9543 H   0  0  0  0  0  0  0  0  0  0  0  0
  141.9024   77.7836  224.0760 H   0  0  0  0  0  0  0  0  0  0  0  0
  142.1990   76.6310  221.1340 H   0  0  0  0  0  0  0  0  0  0  0  0
  139.4688   74.7135  220.5642 H   0  0  0  0  0  0  0  0  0  0  0  0
  141.2598   74.5825  220.9141 H   0  0  0  0  0  0  0  0  0  0  0  0
  139.3510   74.0700  223.1080 H   0  0  0  0  0  0  0  0  0  0  0  0
  139.2674   70.2292  222.2133 H   0  0  0  0  0  0  0  0  0  0  0  0
  138.7084   68.6412  224.0276 H   0  0  0  0  0  0  0  0  0  0  0  0
  138.8202   68.0817  226.3478 H   0  0  0  0  0  0  0  0  0  0  0  0
  139.5704   68.6430  228.6540 H   0  0  0  0  0  0  0  0  0  0  0  0
  140.8378   70.7175  229.1209 H   0  0  0  0  0  0  0  0  0  0  0  0
  141.3614   72.2592  227.2487 H   0  0  0  0  0  0  0  0  0  0  0  0
  1  2  1  0
  2  3  1  0
  3  4  2  0
  4  5  1  0
  5  6  2  0
  6  7  1  0
  7  8  2  0
  8  9  1  0
  9 10  1  0
 10 11  2  0
 10 12  1  0
 12 13  1  0
 13 14  1  0
 14 15  2  0
 14 16  1  0
 16 17  2  0
 17 18  1  0
 18 19  2  0
 19 20  1  0
 20 21  2  0
 21 22  1  0
 22 23  2  0
 23 24  1  0
 24 25  2  0
  8  3  1  0
 25 16  1  0
 24 19  1  0
  1 26  1  0
  1 27  1  0
  1 28  1  0
  4 29  1  0
  5 30  1  0
  6 31  1  0
  7 32  1  0
  9 33  1  0
 12 34  1  0
 12 35  1  0
 13 36  1  0
 17 37  1  0
 18 38  1  0
 20 39  1  0
 21 40  1  0
 22 41  1  0
 23 42  1  0
M  END
>  <smiles>  (17) 
COc1ccccc1NC(=O)CNC(=O)c1ccc2ccccc2n1

>  <score_type>  (17) 
oracle

>  <origin>  (17) 
autodockgpu

>  <m_score__min__energy>  (17) 
-8.6500000000000004

>  <m_primary>  (17) 
energy

>  <rmsd>  (17) 
3.435343701536799

>  <m_score__min__rmsd>  (17) 
3.435343701536799

>  <meeko>  (17) 
{"free_energy": -8.55, "intermolecular_energy": -10.04, "internal_energy": -1.21, "cluster_size": 16, "cluster_id": 1, "rank_in_cluster": 9}

>  <energy>  (17) 
-8.25

>  <cluster_rmsd>  (17) 
0.0

>  <cluster>  (17) 
2

$$$$

     RDKit          3D

 42 44  0  0  0  0  0  0  0  0999 V2000
  137.2030   70.7300  222.9830 C   0  0  0  0  0  0  0  0  0  0  0  0
  138.3270   69.9780  223.3390 O   0  0  0  0  0  0  0  0  0  0  0  0
  139.1690   70.3840  224.3340 C   0  0  0  0  0  0  0  0  0  0  0  0
  139.2080   69.5850  225.4830 C   0  0  0  0  0  0  0  0  0  0  0  0
  140.0220   69.9130  226.5390 C   0  0  0  0  0  0  0  0  0  0  0  0
  140.7850   71.0480  226.4120 C   0  0  0  0  0  0  0  0  0  0  0  0
  140.7440   71.8290  225.2830 C   0  0  0  0  0  0  0  0  0  0  0  0
  139.9220   71.5170  224.1890 C   0  0  0  0  0  0  0  0  0  0  0  0
  139.9550   72.3950  223.1050 N   0  0  0  0  0  0  0  0  0  0  0  0
  140.8200   72.4590  222.0110 C   0  0  0  0  0  0  0  0  0  0  0  0
  141.7560   71.6640  221.8900 O   0  0  0  0  0  0  0  0  0  0  0  0
  140.6960   73.4780  220.9070 C   0  0  0  0  0  0  0  0  0  0  0  0
  140.7810   74.8390  221.3610 N   0  0  0  0  0  0  0  0  0  0  0  0
  139.7090   75.5270  221.9640 C   0  0  0  0  0  0  0  0  0  0  0  0
  138.5590   75.0010  222.1530 O   0  0  0  0  0  0  0  0  0  0  0  0
  139.9060   76.9090  222.3980 C   0  0  0  0  0  0  0  0  0  0  0  0
  138.8380   77.7300  222.6960 C   0  0  0  0  0  0  0  0  0  0  0  0
  138.9730   79.0340  223.1090 C   0  0  0  0  0  0  0  0  0  0  0  0
  140.2730   79.5150  223.2180 C   0  0  0  0  0  0  0  0  0  0  0  0
  140.4390   80.8330  223.6330 C   0  0  0  0  0  0  0  0  0  0  0  0
  141.7360   81.3160  223.7430 C   0  0  0  0  0  0  0  0  0  0  0  0
  142.8360   80.5370  223.4570 C   0  0  0  0  0  0  0  0  0  0  0  0
  142.6250   79.2320  223.0470 C   0  0  0  0  0  0  0  0  0  0  0  0
  141.3580   78.7020  222.9220 C   0  0  0  0  0  0  0  0  0  0  0  0
  141.1360   77.4290  222.5230 N   0  0  0  0  0  0  0  0  0  0  0  0
  136.6889   71.0740  223.8926 H   0  0  0  0  0  0  0  0  0  0  0  0
  137.5174   71.6003  222.3882 H   0  0  0  0  0  0  0  0  0  0  0  0
  136.5186   70.1073  222.3882 H   0  0  0  0  0  0  0  0  0  0  0  0
  138.5793   68.6842  225.5404 H   0  0  0  0  0  0  0  0  0  0  0  0
  140.0613   69.2937  227.4472 H   0  0  0  0  0  0  0  0  0  0  0  0
  141.4487   71.3402  227.2392 H   0  0  0  0  0  0  0  0  0  0  0  0
  141.3758   72.7281  225.2346 H   0  0  0  0  0  0  0  0  0  0  0  0
  139.2020   73.1630  223.1050 H   0  0  0  0  0  0  0  0  0  0  0  0
  141.5042   73.3034  220.1816 H   0  0  0  0  0  0  0  0  0  0  0  0
  139.6973   73.3501  220.4639 H   0  0  0  0  0  0  0  0  0  0  0  0
  141.6850   75.3370  221.2330 H   0  0  0  0  0  0  0  0  0  0  0  0
  137.8227   77.3184  222.5977 H   0  0  0  0  0  0  0  0  0  0  0  0
  138.1005   79.6625  223.3406 H   0  0  0  0  0  0  0  0  0  0  0  0
  139.5728   81.4698  223.8657 H   0  0  0  0  0  0  0  0  0  0  0  0
  141.8906   82.3551  224.0693 H   0  0  0  0  0  0  0  0  0  0  0  0
  143.8545   80.9414  223.5520 H   0  0  0  0  0  0  0  0  0  0  0  0
  143.4937   78.5988  222.8139 H   0  0  0  0  0  0  0  0  0  0  0  0
  1  2  1  0
  2  3  1  0
  3  4  2  0
  4  5  1  0
  5  6  2  0
  6  7  1  0
  7  8  2  0
  8  9  1  0
  9 10  1  0
 10 11  2  0
 10 12  1  0
 12 13  1  0
 13 14  1  0
 14 15  2  0
 14 16  1  0
 16 17  2  0
 17 18  1  0
 18 19  2  0
 19 20  1  0
 20 21  2  0
 21 22  1  0
 22 23  2  0
 23 24  1  0
 24 25  2  0
  8  3  1  0
 25 16  1  0
 24 19  1  0
  1 26  1  0
  1 27  1  0
  1 28  1  0
  4 29  1  0
  5 30  1  0
  6 31  1  0
  7 32  1  0
  9 33  1  0
 12 34  1  0
 12 35  1  0
 13 36  1  0
 17 37  1  0
 18 38  1  0
 20 39  1  0
 21 40  1  0
 22 41  1  0
 23 42  1  0
M  END
>  <smiles>  (18) 
COc1ccccc1NC(=O)CNC(=O)c1ccc2ccccc2n1

>  <score_type>  (18) 
oracle

>  <origin>  (18) 
autodockgpu

>  <m_score__min__energy>  (18) 
-8.6500000000000004

>  <m_primary>  (18) 
energy

>  <rmsd>  (18) 
8.60197524359054

>  <m_score__min__rmsd>  (18) 
8.60197524359054

>  <meeko>  (18) 
{"free_energy": -7.4, "intermolecular_energy": -8.89, "internal_energy": -2.07, "cluster_size": 32, "cluster_id": 2, "rank_in_cluster": 13}

>  <energy>  (18) 
-8.15

>  <cluster_rmsd>  (18) 
1.13

>  <cluster>  (18) 
2

$$$$

     RDKit          3D

 42 44  0  0  0  0  0  0  0  0999 V2000
  138.7030   69.8140  222.0780 C   0  0  0  0  0  0  0  0  0  0  0  0
  138.2900   70.3900  223.2840 O   0  0  0  0  0  0  0  0  0  0  0  0
  139.1790   70.6660  224.2820 C   0  0  0  0  0  0  0  0  0  0  0  0
  139.1170   69.8490  225.4170 C   0  0  0  0  0  0  0  0  0  0  0  0
  139.9680   70.0510  226.4750 C   0  0  0  0  0  0  0  0  0  0  0  0
  140.8710   71.0800  226.3650 C   0  0  0  0  0  0  0  0  0  0  0  0
  140.9290   71.8800  225.2490 C   0  0  0  0  0  0  0  0  0  0  0  0
  140.0720   71.6960  224.1540 C   0  0  0  0  0  0  0  0  0  0  0  0
  140.2160   72.5810  223.0840 N   0  0  0  0  0  0  0  0  0  0  0  0
  141.0810   72.5530  221.9900 C   0  0  0  0  0  0  0  0  0  0  0  0
  141.9090   71.6470  221.8530 O   0  0  0  0  0  0  0  0  0  0  0  0
  141.0870   73.5980  220.9030 C   0  0  0  0  0  0  0  0  0  0  0  0
  141.1310   74.9480  221.3960 N   0  0  0  0  0  0  0  0  0  0  0  0
  140.0030   75.6320  221.8930 C   0  0  0  0  0  0  0  0  0  0  0  0
  138.8370   75.1130  221.9410 O   0  0  0  0  0  0  0  0  0  0  0  0
  140.1610   77.0010  222.3790 C   0  0  0  0  0  0  0  0  0  0  0  0
  139.0720   77.7650  222.7480 C   0  0  0  0  0  0  0  0  0  0  0  0
  139.1700   79.0550  223.2120 C   0  0  0  0  0  0  0  0  0  0  0  0
  140.4530   79.5840  223.2980 C   0  0  0  0  0  0  0  0  0  0  0  0
  140.5810   80.8890  223.7630 C   0  0  0  0  0  0  0  0  0  0  0  0
  141.8610   81.4200  223.8510 C   0  0  0  0  0  0  0  0  0  0  0  0
  142.9800   80.6990  223.4960 C   0  0  0  0  0  0  0  0  0  0  0  0
  142.8070   79.4050  223.0370 C   0  0  0  0  0  0  0  0  0  0  0  0
  141.5580   78.8290  222.9310 C   0  0  0  0  0  0  0  0  0  0  0  0
  141.3730   77.5660  222.4860 N   0  0  0  0  0  0  0  0  0  0  0  0
  139.3323   68.9364  222.2874 H   0  0  0  0  0  0  0  0  0  0  0  0
  137.8209   69.5030  221.4991 H   0  0  0  0  0  0  0  0  0  0  0  0
  139.2807   70.5497  221.4991 H   0  0  0  0  0  0  0  0  0  0  0  0
  138.3778   69.0357  225.4616 H   0  0  0  0  0  0  0  0  0  0  0  0
  139.9284   69.4160  227.3724 H   0  0  0  0  0  0  0  0  0  0  0  0
  141.5682   71.2694  227.1945 H   0  0  0  0  0  0  0  0  0  0  0  0
  141.6715   72.6908  225.2134 H   0  0  0  0  0  0  0  0  0  0  0  0
  139.5660   73.4380  223.0990 H   0  0  0  0  0  0  0  0  0  0  0  0
  141.9692   73.4320  220.2673 H   0  0  0  0  0  0  0  0  0  0  0  0
  140.1427   73.4898  220.3493 H   0  0  0  0  0  0  0  0  0  0  0  0
  142.0470   75.4390  221.3810 H   0  0  0  0  0  0  0  0  0  0  0  0
  138.0708   77.3167  222.6662 H   0  0  0  0  0  0  0  0  0  0  0  0
  138.2820   79.6371  223.4996 H   0  0  0  0  0  0  0  0  0  0  0  0
  139.6988   81.4796  224.0509 H   0  0  0  0  0  0  0  0  0  0  0  0
  141.9856   82.4501  224.2161 H   0  0  0  0  0  0  0  0  0  0  0  0
  143.9845   81.1403  223.5753 H   0  0  0  0  0  0  0  0  0  0  0  0
  143.6916   78.8184  222.7481 H   0  0  0  0  0  0  0  0  0  0  0  0
  1  2  1  0
  2  3  1  0
  3  4  2  0
  4  5  1  0
  5  6  2  0
  6  7  1  0
  7  8  2  0
  8  9  1  0
  9 10  1  0
 10 11  2  0
 10 12  1  0
 12 13  1  0
 13 14  1  0
 14 15  2  0
 14 16  1  0
 16 17  2  0
 17 18  1  0
 18 19  2  0
 19 20  1  0
 20 21  2  0
 21 22  1  0
 22 23  2  0
 23 24  1  0
 24 25  2  0
  8  3  1  0
 25 16  1  0
 24 19  1  0
  1 26  1  0
  1 27  1  0
  1 28  1  0
  4 29  1  0
  5 30  1  0
  6 31  1  0
  7 32  1  0
  9 33  1  0
 12 34  1  0
 12 35  1  0
 13 36  1  0
 17 37  1  0
 18 38  1  0
 20 39  1  0
 21 40  1  0
 22 41  1  0
 23 42  1  0
M  END
>  <smiles>  (19) 
COc1ccccc1NC(=O)CNC(=O)c1ccc2ccccc2n1

>  <score_type>  (19) 
oracle

>  <origin>  (19) 
autodockgpu

>  <m_score__min__energy>  (19) 
-8.6500000000000004

>  <m_primary>  (19) 
energy

>  <rmsd>  (19) 
8.649602081220259

>  <m_score__min__rmsd>  (19) 
8.649602081220259

>  <meeko>  (19) 
{"free_energy": -7.38, "intermolecular_energy": -8.88, "internal_energy": -2.12, "cluster_size": 32, "cluster_id": 2, "rank_in_cluster": 20}

>  <energy>  (19) 
-8.08

>  <cluster_rmsd>  (19) 
1.15

>  <cluster>  (19) 
2

$$$$

     RDKit          3D

 42 44  0  0  0  0  0  0  0  0999 V2000
  142.1580   79.2330  218.9850 C   0  0  0  0  0  0  0  0  0  0  0  0
  141.1500   79.4110  219.9380 O   0  0  0  0  0  0  0  0  0  0  0  0
  141.4370   79.5080  221.2690 C   0  0  0  0  0  0  0  0  0  0  0  0
  141.6500   80.7980  221.7700 C   0  0  0  0  0  0  0  0  0  0  0  0
  141.9480   80.9960  223.0950 C   0  0  0  0  0  0  0  0  0  0  0  0
  142.0260   79.8810  223.8930 C   0  0  0  0  0  0  0  0  0  0  0  0
  141.8160   78.6170  223.3980 C   0  0  0  0  0  0  0  0  0  0  0  0
  141.5100   78.3850  222.0480 C   0  0  0  0  0  0  0  0  0  0  0  0
  141.3340   77.0560  221.6600 N   0  0  0  0  0  0  0  0  0  0  0  0
  140.2480   76.1950  221.8280 C   0  0  0  0  0  0  0  0  0  0  0  0
  139.2260   76.5620  222.4150 O   0  0  0  0  0  0  0  0  0  0  0  0
  140.2230   74.7750  221.3210 C   0  0  0  0  0  0  0  0  0  0  0  0
  139.9720   73.7980  222.3450 N   0  0  0  0  0  0  0  0  0  0  0  0
  140.6050   72.5390  222.3900 C   0  0  0  0  0  0  0  0  0  0  0  0
  141.4530   72.1510  221.5170 O   0  0  0  0  0  0  0  0  0  0  0  0
  140.2840   71.6220  223.4830 C   0  0  0  0  0  0  0  0  0  0  0  0
  139.5570   70.4690  223.2660 C   0  0  0  0  0  0  0  0  0  0  0  0
  139.2310   69.5770  224.2590 C   0  0  0  0  0  0  0  0  0  0  0  0
  139.6760   69.8890  225.5390 C   0  0  0  0  0  0  0  0  0  0  0  0
  139.3600   69.0040  226.5650 C   0  0  0  0  0  0  0  0  0  0  0  0
  139.8030   69.3130  227.8430 C   0  0  0  0  0  0  0  0  0  0  0  0
  140.5320   70.4510  228.1120 C   0  0  0  0  0  0  0  0  0  0  0  0
  140.8240   71.3050  227.0630 C   0  0  0  0  0  0  0  0  0  0  0  0
  140.4090   71.0450  225.7730 C   0  0  0  0  0  0  0  0  0  0  0  0
  140.6860   71.8690  224.7380 N   0  0  0  0  0  0  0  0  0  0  0  0
  143.1182   79.0634  219.4942 H   0  0  0  0  0  0  0  0  0  0  0  0
  141.9181   78.3633  218.3556 H   0  0  0  0  0  0  0  0  0  0  0  0
  142.2305   80.1322  218.3556 H   0  0  0  0  0  0  0  0  0  0  0  0
  141.5777   81.6627  221.0939 H   0  0  0  0  0  0  0  0  0  0  0  0
  142.1171   82.0045  223.5004 H   0  0  0  0  0  0  0  0  0  0  0  0
  142.2636   80.0038  224.9600 H   0  0  0  0  0  0  0  0  0  0  0  0
  141.8901   77.7586  224.0819 H   0  0  0  0  0  0  0  0  0  0  0  0
  142.1700   76.6030  221.1580 H   0  0  0  0  0  0  0  0  0  0  0  0
  139.4321   74.6919  220.5610 H   0  0  0  0  0  0  0  0  0  0  0  0
  141.2224   74.5626  220.9134 H   0  0  0  0  0  0  0  0  0  0  0  0
  139.2860   74.0390  223.0880 H   0  0  0  0  0  0  0  0  0  0  0  0
  139.2200   70.2522  222.2416 H   0  0  0  0  0  0  0  0  0  0  0  0
  138.6499   68.6661  224.0528 H   0  0  0  0  0  0  0  0  0  0  0  0
  138.7789   68.0907  226.3697 H   0  0  0  0  0  0  0  0  0  0  0  0
  139.5643   68.6268  228.6689 H   0  0  0  0  0  0  0  0  0  0  0  0
  140.8728   70.6747  229.1337 H   0  0  0  0  0  0  0  0  0  0  0  0
  141.4040   72.2179  227.2634 H   0  0  0  0  0  0  0  0  0  0  0  0
  1  2  1  0
  2  3  1  0
  3  4  2  0
  4  5  1  0
  5  6  2  0
  6  7  1  0
  7  8  2  0
  8  9  1  0
  9 10  1  0
 10 11  2  0
 10 12  1  0
 12 13  1  0
 13 14  1  0
 14 15  2  0
 14 16  1  0
 16 17  2  0
 17 18  1  0
 18 19  2  0
 19 20  1  0
 20 21  2  0
 21 22  1  0
 22 23  2  0
 23 24  1  0
 24 25  2  0
  8  3  1  0
 25 16  1  0
 24 19  1  0
  1 26  1  0
  1 27  1  0
  1 28  1  0
  4 29  1  0
  5 30  1  0
  6 31  1  0
  7 32  1  0
  9 33  1  0
 12 34  1  0
 12 35  1  0
 13 36  1  0
 17 37  1  0
 18 38  1  0
 20 39  1  0
 21 40  1  0
 22 41  1  0
 23 42  1  0
M  END
>  <smiles>  (20) 
COc1ccccc1NC(=O)CNC(=O)c1ccc2ccccc2n1

>  <score_type>  (20) 
oracle

>  <origin>  (20) 
autodockgpu

>  <m_score__min__energy>  (20) 
-8.6500000000000004

>  <m_primary>  (20) 
energy

>  <rmsd>  (20) 
3.4267480884939023

>  <m_score__min__rmsd>  (20) 
3.4267480884939023

>  <meeko>  (20) 
{"free_energy": -8.58, "intermolecular_energy": -10.07, "internal_energy": -1.2, "cluster_size": 16, "cluster_id": 1, "rank_in_cluster": 5}

>  <energy>  (20) 
-8.07

>  <cluster_rmsd>  (20) 
1.06

>  <cluster>  (20) 
2

$$$$

     RDKit          3D

 42 44  0  0  0  0  0  0  0  0999 V2000
  138.7020   69.7410  222.0700 C   0  0  0  0  0  0  0  0  0  0  0  0
  138.2810   70.3270  223.2690 O   0  0  0  0  0  0  0  0  0  0  0  0
  139.1630   70.6110  224.2710 C   0  0  0  0  0  0  0  0  0  0  0  0
  139.1010   69.7930  225.4070 C   0  0  0  0  0  0  0  0  0  0  0  0
  139.9460   70.0030  226.4690 C   0  0  0  0  0  0  0  0  0  0  0  0
  140.8410   71.0390  226.3620 C   0  0  0  0  0  0  0  0  0  0  0  0
  140.8990   71.8380  225.2460 C   0  0  0  0  0  0  0  0  0  0  0  0
  140.0480   71.6470  224.1460 C   0  0  0  0  0  0  0  0  0  0  0  0
  140.1900   72.5320  223.0770 N   0  0  0  0  0  0  0  0  0  0  0  0
  141.0510   72.5010  221.9780 C   0  0  0  0  0  0  0  0  0  0  0  0
  141.8740   71.5920  221.8370 O   0  0  0  0  0  0  0  0  0  0  0  0
  141.0560   73.5480  220.8930 C   0  0  0  0  0  0  0  0  0  0  0  0
  141.0980   74.8970  221.3870 N   0  0  0  0  0  0  0  0  0  0  0  0
  139.9680   75.5790  221.8820 C   0  0  0  0  0  0  0  0  0  0  0  0
  138.8020   75.0590  221.9280 O   0  0  0  0  0  0  0  0  0  0  0  0
  140.1240   76.9490  222.3700 C   0  0  0  0  0  0  0  0  0  0  0  0
  139.0340   77.7090  222.7410 C   0  0  0  0  0  0  0  0  0  0  0  0
  139.1290   78.9990  223.2060 C   0  0  0  0  0  0  0  0  0  0  0  0
  140.4110   79.5310  223.2910 C   0  0  0  0  0  0  0  0  0  0  0  0
  140.5370   80.8360  223.7570 C   0  0  0  0  0  0  0  0  0  0  0  0
  141.8160   81.3700  223.8430 C   0  0  0  0  0  0  0  0  0  0  0  0
  142.9360   80.6520  223.4850 C   0  0  0  0  0  0  0  0  0  0  0  0
  142.7660   79.3580  223.0250 C   0  0  0  0  0  0  0  0  0  0  0  0
  141.5180   78.7790  222.9210 C   0  0  0  0  0  0  0  0  0  0  0  0
  141.3340   77.5160  222.4740 N   0  0  0  0  0  0  0  0  0  0  0  0
  139.3308   68.8658  222.2906 H   0  0  0  0  0  0  0  0  0  0  0  0
  137.8237   69.4243  221.4885 H   0  0  0  0  0  0  0  0  0  0  0  0
  139.2825   70.4723  221.4885 H   0  0  0  0  0  0  0  0  0  0  0  0
  138.3678   68.9740  225.4486 H   0  0  0  0  0  0  0  0  0  0  0  0
  139.9076   69.3686  227.3668 H   0  0  0  0  0  0  0  0  0  0  0  0
  141.5323   71.2350  227.1949 H   0  0  0  0  0  0  0  0  0  0  0  0
  141.6361   72.6538  225.2133 H   0  0  0  0  0  0  0  0  0  0  0  0
  139.5450   73.3920  223.0950 H   0  0  0  0  0  0  0  0  0  0  0  0
  141.9386   73.3841  220.2573 H   0  0  0  0  0  0  0  0  0  0  0  0
  140.1116   73.4394  220.3396 H   0  0  0  0  0  0  0  0  0  0  0  0
  142.0130   75.3890  221.3730 H   0  0  0  0  0  0  0  0  0  0  0  0
  138.0340   77.2579  222.6603 H   0  0  0  0  0  0  0  0  0  0  0  0
  138.2399   79.5786  223.4950 H   0  0  0  0  0  0  0  0  0  0  0  0
  139.6540   81.4243  224.0472 H   0  0  0  0  0  0  0  0  0  0  0  0
  141.9389   82.4000  224.2090 H   0  0  0  0  0  0  0  0  0  0  0  0
  143.9395   81.0959  223.5628 H   0  0  0  0  0  0  0  0  0  0  0  0
  143.6516   78.7741  222.7338 H   0  0  0  0  0  0  0  0  0  0  0  0
  1  2  1  0
  2  3  1  0
  3  4  2  0
  4  5  1  0
  5  6  2  0
  6  7  1  0
  7  8  2  0
  8  9  1  0
  9 10  1  0
 10 11  2  0
 10 12  1  0
 12 13  1  0
 13 14  1  0
 14 15  2  0
 14 16  1  0
 16 17  2  0
 17 18  1  0
 18 19  2  0
 19 20  1  0
 20 21  2  0
 21 22  1  0
 22 23  2  0
 23 24  1  0
 24 25  2  0
  8  3  1  0
 25 16  1  0
 24 19  1  0
  1 26  1  0
  1 27  1  0
  1 28  1  0
  4 29  1  0
  5 30  1  0
  6 31  1  0
  7 32  1  0
  9 33  1  0
 12 34  1  0
 12 35  1  0
 13 36  1  0
 17 37  1  0
 18 38  1  0
 20 39  1  0
 21 40  1  0
 22 41  1  0
 23 42  1  0
M  END
>  <smiles>  (21) 
COc1ccccc1NC(=O)CNC(=O)c1ccc2ccccc2n1

>  <score_type>  (21) 
oracle

>  <origin>  (21) 
autodockgpu

>  <m_score__min__energy>  (21) 
-8.6500000000000004

>  <m_primary>  (21) 
energy

>  <rmsd>  (21) 
8.625137801280918

>  <m_score__min__rmsd>  (21) 
8.625137801280918

>  <meeko>  (21) 
{"free_energy": -7.38, "intermolecular_energy": -8.87, "internal_energy": -2.12, "cluster_size": 32, "cluster_id": 2, "rank_in_cluster": 23}

>  <energy>  (21) 
-8.05

>  <cluster_rmsd>  (21) 
1.15

>  <cluster>  (21) 
2

$$$$

     RDKit          3D

 42 44  0  0  0  0  0  0  0  0999 V2000
  142.1420   80.4720  218.9820 C   0  0  0  0  0  0  0  0  0  0  0  0
  141.7860   79.3950  219.8020 O   0  0  0  0  0  0  0  0  0  0  0  0
  141.7590   79.5140  221.1610 C   0  0  0  0  0  0  0  0  0  0  0  0
  141.9520   80.8010  221.6790 C   0  0  0  0  0  0  0  0  0  0  0  0
  141.9440   81.0210  223.0350 C   0  0  0  0  0  0  0  0  0  0  0  0
  141.7420   79.9300  223.8440 C   0  0  0  0  0  0  0  0  0  0  0  0
  141.5530   78.6690  223.3330 C   0  0  0  0  0  0  0  0  0  0  0  0
  141.5550   78.4160  221.9520 C   0  0  0  0  0  0  0  0  0  0  0  0
  141.3680   77.0920  221.5530 N   0  0  0  0  0  0  0  0  0  0  0  0
  140.3830   76.1670  221.9020 C   0  0  0  0  0  0  0  0  0  0  0  0
  139.4870   76.4570  222.7000 O   0  0  0  0  0  0  0  0  0  0  0  0
  140.3240   74.7640  221.3530 C   0  0  0  0  0  0  0  0  0  0  0  0
  140.0400   73.7630  222.3450 N   0  0  0  0  0  0  0  0  0  0  0  0
  140.6300   72.4830  222.3510 C   0  0  0  0  0  0  0  0  0  0  0  0
  141.4670   72.0950  221.4660 O   0  0  0  0  0  0  0  0  0  0  0  0
  140.2770   71.5430  223.4130 C   0  0  0  0  0  0  0  0  0  0  0  0
  139.5410   70.4050  223.1530 C   0  0  0  0  0  0  0  0  0  0  0  0
  139.1850   69.4920  224.1170 C   0  0  0  0  0  0  0  0  0  0  0  0
  139.6080   69.7670  225.4130 C   0  0  0  0  0  0  0  0  0  0  0  0
  139.2610   68.8600  226.4100 C   0  0  0  0  0  0  0  0  0  0  0  0
  139.6820   69.1320  227.7040 C   0  0  0  0  0  0  0  0  0  0  0  0
  140.4190   70.2550  228.0160 C   0  0  0  0  0  0  0  0  0  0  0  0
  140.7410   71.1310  226.9950 C   0  0  0  0  0  0  0  0  0  0  0  0
  140.3490   70.9080  225.6910 C   0  0  0  0  0  0  0  0  0  0  0  0
  140.6560   71.7540  224.6820 N   0  0  0  0  0  0  0  0  0  0  0  0
  142.4259   81.3310  219.6077 H   0  0  0  0  0  0  0  0  0  0  0  0
  142.9927   80.1838  218.3469 H   0  0  0  0  0  0  0  0  0  0  0  0
  141.2871   80.7476  218.3469 H   0  0  0  0  0  0  0  0  0  0  0  0
  142.1118   81.6452  220.9922 H   0  0  0  0  0  0  0  0  0  0  0  0
  142.0929   82.0270  223.4543 H   0  0  0  0  0  0  0  0  0  0  0  0
  141.7312   80.0701  224.9350 H   0  0  0  0  0  0  0  0  0  0  0  0
  141.3951   77.8309  224.0278 H   0  0  0  0  0  0  0  0  0  0  0  0
  142.1050   76.7030  220.8740 H   0  0  0  0  0  0  0  0  0  0  0  0
  139.5367   74.7249  220.5858 H   0  0  0  0  0  0  0  0  0  0  0  0
  141.3207   74.5375  220.9463 H   0  0  0  0  0  0  0  0  0  0  0  0
  139.3610   74.0040  223.0950 H   0  0  0  0  0  0  0  0  0  0  0  0
  139.2216   70.2182  222.1171 H   0  0  0  0  0  0  0  0  0  0  0  0
  138.5979   68.5934  223.8766 H   0  0  0  0  0  0  0  0  0  0  0  0
  138.6735   67.9589  226.1802 H   0  0  0  0  0  0  0  0  0  0  0  0
  139.4191   68.4284  228.5076 H   0  0  0  0  0  0  0  0  0  0  0  0
  140.7423   70.4490  229.0494 H   0  0  0  0  0  0  0  0  0  0  0  0
  141.3268   72.0320  227.2296 H   0  0  0  0  0  0  0  0  0  0  0  0
  1  2  1  0
  2  3  1  0
  3  4  2  0
  4  5  1  0
  5  6  2  0
  6  7  1  0
  7  8  2  0
  8  9  1  0
  9 10  1  0
 10 11  2  0
 10 12  1  0
 12 13  1  0
 13 14  1  0
 14 15  2  0
 14 16  1  0
 16 17  2  0
 17 18  1  0
 18 19  2  0
 19 20  1  0
 20 21  2  0
 21 22  1  0
 22 23  2  0
 23 24  1  0
 24 25  2  0
  8  3  1  0
 25 16  1  0
 24 19  1  0
  1 26  1  0
  1 27  1  0
  1 28  1  0
  4 29  1  0
  5 30  1  0
  6 31  1  0
  7 32  1  0
  9 33  1  0
 12 34  1  0
 12 35  1  0
 13 36  1  0
 17 37  1  0
 18 38  1  0
 20 39  1  0
 21 40  1  0
 22 41  1  0
 23 42  1  0
M  END
>  <smiles>  (22) 
COc1ccccc1NC(=O)CNC(=O)c1ccc2ccccc2n1

>  <score_type>  (22) 
oracle

>  <origin>  (22) 
autodockgpu

>  <m_score__min__energy>  (22) 
-8.6500000000000004

>  <m_primary>  (22) 
energy

>  <rmsd>  (22) 
3.3996595019766644

>  <m_score__min__rmsd>  (22) 
3.3996595019766644

>  <meeko>  (22) 
{"free_energy": -8.32, "intermolecular_energy": -9.81, "internal_energy": -1.31, "cluster_size": 16, "cluster_id": 1, "rank_in_cluster": 14}

>  <energy>  (22) 
-7.43

>  <cluster_rmsd>  (22) 
1.48

>  <cluster>  (22) 
2

$$$$

     RDKit          3D

 42 44  0  0  0  0  0  0  0  0999 V2000
  138.7260   69.7750  222.0850 C   0  0  0  0  0  0  0  0  0  0  0  0
  138.3010   70.3550  223.2850 O   0  0  0  0  0  0  0  0  0  0  0  0
  139.1820   70.6450  224.2870 C   0  0  0  0  0  0  0  0  0  0  0  0
  139.1220   69.8310  225.4250 C   0  0  0  0  0  0  0  0  0  0  0  0
  139.9660   70.0470  226.4870 C   0  0  0  0  0  0  0  0  0  0  0  0
  140.8570   71.0860  226.3770 C   0  0  0  0  0  0  0  0  0  0  0  0
  140.9120   71.8820  225.2590 C   0  0  0  0  0  0  0  0  0  0  0  0
  140.0630   71.6840  224.1590 C   0  0  0  0  0  0  0  0  0  0  0  0
  140.2030   72.5660  223.0870 N   0  0  0  0  0  0  0  0  0  0  0  0
  141.0650   72.5360  221.9900 C   0  0  0  0  0  0  0  0  0  0  0  0
  141.8930   71.6310  221.8530 O   0  0  0  0  0  0  0  0  0  0  0  0
  141.0660   73.5790  220.9010 C   0  0  0  0  0  0  0  0  0  0  0  0
  141.1070   74.9300  221.3910 N   0  0  0  0  0  0  0  0  0  0  0  0
  139.9760   75.6130  221.8830 C   0  0  0  0  0  0  0  0  0  0  0  0
  138.8110   75.0920  221.9300 O   0  0  0  0  0  0  0  0  0  0  0  0
  140.1300   76.9840  222.3660 C   0  0  0  0  0  0  0  0  0  0  0  0
  139.0390   77.7480  222.7250 C   0  0  0  0  0  0  0  0  0  0  0  0
  139.1330   79.0400  223.1850 C   0  0  0  0  0  0  0  0  0  0  0  0
  140.4150   79.5700  223.2790 C   0  0  0  0  0  0  0  0  0  0  0  0
  140.5400   80.8760  223.7410 C   0  0  0  0  0  0  0  0  0  0  0  0
  141.8190   81.4080  223.8360 C   0  0  0  0  0  0  0  0  0  0  0  0
  142.9410   80.6860  223.4910 C   0  0  0  0  0  0  0  0  0  0  0  0
  142.7710   79.3910  223.0350 C   0  0  0  0  0  0  0  0  0  0  0  0
  141.5230   78.8140  222.9220 C   0  0  0  0  0  0  0  0  0  0  0  0
  141.3410   77.5490  222.4790 N   0  0  0  0  0  0  0  0  0  0  0  0
  139.3632   68.9054  222.3035 H   0  0  0  0  0  0  0  0  0  0  0  0
  137.8500   69.4509  221.5040 H   0  0  0  0  0  0  0  0  0  0  0  0
  139.2990   70.5126  221.5040 H   0  0  0  0  0  0  0  0  0  0  0  0
  138.3912   69.0100  225.4689 H   0  0  0  0  0  0  0  0  0  0  0  0
  139.9297   69.4150  227.3866 H   0  0  0  0  0  0  0  0  0  0  0  0
  141.5475   71.2869  227.2093 H   0  0  0  0  0  0  0  0  0  0  0  0
  141.6452   72.7013  225.2246 H   0  0  0  0  0  0  0  0  0  0  0  0
  139.5520   73.4230  223.1020 H   0  0  0  0  0  0  0  0  0  0  0  0
  141.9475   73.4143  220.2640 H   0  0  0  0  0  0  0  0  0  0  0  0
  140.1209   73.4670  220.3495 H   0  0  0  0  0  0  0  0  0  0  0  0
  142.0220   75.4230  221.3760 H   0  0  0  0  0  0  0  0  0  0  0  0
  138.0387   77.2986  222.6384 H   0  0  0  0  0  0  0  0  0  0  0  0
  138.2426   79.6228  223.4635 H   0  0  0  0  0  0  0  0  0  0  0  0
  139.6558   81.4672  224.0215 H   0  0  0  0  0  0  0  0  0  0  0  0
  141.9407   82.4394  224.1985 H   0  0  0  0  0  0  0  0  0  0  0  0
  143.9449   81.1276  223.5759 H   0  0  0  0  0  0  0  0  0  0  0  0
  143.6576   78.8037  222.7541 H   0  0  0  0  0  0  0  0  0  0  0  0
  1  2  1  0
  2  3  1  0
  3  4  2  0
  4  5  1  0
  5  6  2  0
  6  7  1  0
  7  8  2  0
  8  9  1  0
  9 10  1  0
 10 11  2  0
 10 12  1  0
 12 13  1  0
 13 14  1  0
 14 15  2  0
 14 16  1  0
 16 17  2  0
 17 18  1  0
 18 19  2  0
 19 20  1  0
 20 21  2  0
 21 22  1  0
 22 23  2  0
 23 24  1  0
 24 25  2  0
  8  3  1  0
 25 16  1  0
 24 19  1  0
  1 26  1  0
  1 27  1  0
  1 28  1  0
  4 29  1  0
  5 30  1  0
  6 31  1  0
  7 32  1  0
  9 33  1  0
 12 34  1  0
 12 35  1  0
 13 36  1  0
 17 37  1  0
 18 38  1  0
 20 39  1  0
 21 40  1  0
 22 41  1  0
 23 42  1  0
M  END
>  <smiles>  (23) 
COc1ccccc1NC(=O)CNC(=O)c1ccc2ccccc2n1

>  <score_type>  (23) 
oracle

>  <origin>  (23) 
autodockgpu

>  <m_score__min__energy>  (23) 
-8.6500000000000004

>  <m_primary>  (23) 
energy

>  <rmsd>  (23) 
8.641825763862643

>  <m_score__min__rmsd>  (23) 
8.641825763862643

>  <meeko>  (23) 
{"free_energy": -7.4, "intermolecular_energy": -8.89, "internal_energy": -2.12, "cluster_size": 32, "cluster_id": 2, "rank_in_cluster": 12}

>  <energy>  (23) 
-7.42

>  <cluster_rmsd>  (23) 
1.38

>  <cluster>  (23) 
2

$$$$

     RDKit          3D

 42 44  0  0  0  0  0  0  0  0999 V2000
  138.6160   69.8260  222.0700 C   0  0  0  0  0  0  0  0  0  0  0  0
  138.2160   70.4190  223.2720 O   0  0  0  0  0  0  0  0  0  0  0  0
  139.1100   70.6830  224.2690 C   0  0  0  0  0  0  0  0  0  0  0  0
  139.0380   69.8650  225.4040 C   0  0  0  0  0  0  0  0  0  0  0  0
  139.8940   70.0560  226.4600 C   0  0  0  0  0  0  0  0  0  0  0  0
  140.8100   71.0720  226.3490 C   0  0  0  0  0  0  0  0  0  0  0  0
  140.8780   71.8720  225.2340 C   0  0  0  0  0  0  0  0  0  0  0  0
  140.0160   71.7000  224.1400 C   0  0  0  0  0  0  0  0  0  0  0  0
  140.1700   72.5840  223.0710 N   0  0  0  0  0  0  0  0  0  0  0  0
  141.0230   72.5360  221.9660 C   0  0  0  0  0  0  0  0  0  0  0  0
  141.8250   71.6100  221.8170 O   0  0  0  0  0  0  0  0  0  0  0  0
  141.0430   73.5840  220.8820 C   0  0  0  0  0  0  0  0  0  0  0  0
  141.0900   74.9320  221.3780 N   0  0  0  0  0  0  0  0  0  0  0  0
  139.9610   75.6210  221.8680 C   0  0  0  0  0  0  0  0  0  0  0  0
  138.7920   75.1080  221.9060 O   0  0  0  0  0  0  0  0  0  0  0  0
  140.1230   76.9890  222.3580 C   0  0  0  0  0  0  0  0  0  0  0  0
  139.0360   77.7530  222.7320 C   0  0  0  0  0  0  0  0  0  0  0  0
  139.1370   79.0420  223.1990 C   0  0  0  0  0  0  0  0  0  0  0  0
  140.4210   79.5680  223.2850 C   0  0  0  0  0  0  0  0  0  0  0  0
  140.5520   80.8710  223.7540 C   0  0  0  0  0  0  0  0  0  0  0  0
  141.8330   81.4000  223.8400 C   0  0  0  0  0  0  0  0  0  0  0  0
  142.9510   80.6780  223.4800 C   0  0  0  0  0  0  0  0  0  0  0  0
  142.7740   79.3860  223.0180 C   0  0  0  0  0  0  0  0  0  0  0  0
  141.5240   78.8120  222.9130 C   0  0  0  0  0  0  0  0  0  0  0  0
  141.3360   77.5510  222.4640 N   0  0  0  0  0  0  0  0  0  0  0  0
  139.2192   68.9317  222.2853 H   0  0  0  0  0  0  0  0  0  0  0  0
  137.7271   69.5377  221.4897 H   0  0  0  0  0  0  0  0  0  0  0  0
  139.2163   70.5422  221.4897 H   0  0  0  0  0  0  0  0  0  0  0  0
  138.2880   69.0616  225.4495 H   0  0  0  0  0  0  0  0  0  0  0  0
  139.8477   69.4215  227.3574 H   0  0  0  0  0  0  0  0  0  0  0  0
  141.5108   71.2512  227.1777 H   0  0  0  0  0  0  0  0  0  0  0  0
  141.6317   72.6724  225.1977 H   0  0  0  0  0  0  0  0  0  0  0  0
  139.5430   73.4570  223.0950 H   0  0  0  0  0  0  0  0  0  0  0  0
  141.9294   73.4151  220.2529 H   0  0  0  0  0  0  0  0  0  0  0  0
  140.1023   73.4821  220.3211 H   0  0  0  0  0  0  0  0  0  0  0  0
  142.0080   75.4190  221.3710 H   0  0  0  0  0  0  0  0  0  0  0  0
  138.0341   77.3060  222.6520 H   0  0  0  0  0  0  0  0  0  0  0  0
  138.2505   79.6252  223.4888 H   0  0  0  0  0  0  0  0  0  0  0  0
  139.6715   81.4618  224.0466 H   0  0  0  0  0  0  0  0  0  0  0  0
  141.9599   82.4290  224.2075 H   0  0  0  0  0  0  0  0  0  0  0  0
  143.9565   81.1173  223.5580 H   0  0  0  0  0  0  0  0  0  0  0  0
  143.6568   78.7986  222.7255 H   0  0  0  0  0  0  0  0  0  0  0  0
  1  2  1  0
  2  3  1  0
  3  4  2  0
  4  5  1  0
  5  6  2  0
  6  7  1  0
  7  8  2  0
  8  9  1  0
  9 10  1  0
 10 11  2  0
 10 12  1  0
 12 13  1  0
 13 14  1  0
 14 15  2  0
 14 16  1  0
 16 17  2  0
 17 18  1  0
 18 19  2  0
 19 20  1  0
 20 21  2  0
 21 22  1  0
 22 23  2  0
 23 24  1  0
 24 25  2  0
  8  3  1  0
 25 16  1  0
 24 19  1  0
  1 26  1  0
  1 27  1  0
  1 28  1  0
  4 29  1  0
  5 30  1  0
  6 31  1  0
  7 32  1  0
  9 33  1  0
 12 34  1  0
 12 35  1  0
 13 36  1  0
 17 37  1  0
 18 38  1  0
 20 39  1  0
 21 40  1  0
 22 41  1  0
 23 42  1  0
M  END
>  <smiles>  (24) 
COc1ccccc1NC(=O)CNC(=O)c1ccc2ccccc2n1

>  <score_type>  (24) 
oracle

>  <origin>  (24) 
autodockgpu

>  <m_score__min__energy>  (24) 
-8.6500000000000004

>  <m_primary>  (24) 
energy

>  <rmsd>  (24) 
8.635670563741327

>  <m_score__min__rmsd>  (24) 
8.635670563741327

>  <meeko>  (24) 
{"free_energy": -7.38, "intermolecular_energy": -8.87, "internal_energy": -2.12, "cluster_size": 32, "cluster_id": 2, "rank_in_cluster": 25}

>  <energy>  (24) 
-7.42

>  <cluster_rmsd>  (24) 
1.56

>  <cluster>  (24) 
2

$$$$

     RDKit          3D

 42 44  0  0  0  0  0  0  0  0999 V2000
  137.5760   69.0560  224.5700 C   0  0  0  0  0  0  0  0  0  0  0  0
  138.8430   68.6420  224.9950 O   0  0  0  0  0  0  0  0  0  0  0  0
  139.5780   69.3860  225.8720 C   0  0  0  0  0  0  0  0  0  0  0  0
  140.0920   68.7100  226.9860 C   0  0  0  0  0  0  0  0  0  0  0  0
  140.8410   69.3740  227.9250 C   0  0  0  0  0  0  0  0  0  0  0  0
  141.0580   70.7140  227.7210 C   0  0  0  0  0  0  0  0  0  0  0  0
  140.5530   71.3740  226.6260 C   0  0  0  0  0  0  0  0  0  0  0  0
  139.7850   70.7210  225.6500 C   0  0  0  0  0  0  0  0  0  0  0  0
  139.3130   71.5000  224.5930 N   0  0  0  0  0  0  0  0  0  0  0  0
  139.9290   71.8840  223.4000 C   0  0  0  0  0  0  0  0  0  0  0  0
  141.0870   71.5450  223.1420 O   0  0  0  0  0  0  0  0  0  0  0  0
  139.2550   72.7250  222.3470 C   0  0  0  0  0  0  0  0  0  0  0  0
  139.7190   74.0850  222.3050 N   0  0  0  0  0  0  0  0  0  0  0  0
  140.6670   74.5550  221.3740 C   0  0  0  0  0  0  0  0  0  0  0  0
  141.2050   73.8090  220.4860 O   0  0  0  0  0  0  0  0  0  0  0  0
  141.0640   75.9610  221.4130 C   0  0  0  0  0  0  0  0  0  0  0  0
  141.4610   76.6300  220.2730 C   0  0  0  0  0  0  0  0  0  0  0  0
  141.8410   77.9510  220.2590 C   0  0  0  0  0  0  0  0  0  0  0  0
  141.8120   78.6140  221.4810 C   0  0  0  0  0  0  0  0  0  0  0  0
  142.1940   79.9520  221.4970 C   0  0  0  0  0  0  0  0  0  0  0  0
  142.1660   80.6170  222.7150 C   0  0  0  0  0  0  0  0  0  0  0  0
  141.7770   79.9940  223.8820 C   0  0  0  0  0  0  0  0  0  0  0  0
  141.4070   78.6620  223.8220 C   0  0  0  0  0  0  0  0  0  0  0  0
  141.4160   77.9550  222.6370 C   0  0  0  0  0  0  0  0  0  0  0  0
  141.0560   76.6540  222.5610 N   0  0  0  0  0  0  0  0  0  0  0  0
  136.9445   69.2624  225.4467 H   0  0  0  0  0  0  0  0  0  0  0  0
  137.6726   69.9693  223.9646 H   0  0  0  0  0  0  0  0  0  0  0  0
  137.1147   68.2619  223.9646 H   0  0  0  0  0  0  0  0  0  0  0  0
  139.8931   67.6352  227.1095 H   0  0  0  0  0  0  0  0  0  0  0  0
  141.2501   68.8543  228.8040 H   0  0  0  0  0  0  0  0  0  0  0  0
  141.6535   71.2762  228.4553 H   0  0  0  0  0  0  0  0  0  0  0  0
  140.7575   72.4487  226.5112 H   0  0  0  0  0  0  0  0  0  0  0  0
  138.3160   71.8860  224.7080 H   0  0  0  0  0  0  0  0  0  0  0  0
  139.4402   72.2651  221.3651 H   0  0  0  0  0  0  0  0  0  0  0  0
  138.1853   72.7595  222.6012 H   0  0  0  0  0  0  0  0  0  0  0  0
  139.3320   74.7510  223.0030 H   0  0  0  0  0  0  0  0  0  0  0  0
  141.4741   76.0755  219.3231 H   0  0  0  0  0  0  0  0  0  0  0  0
  142.1510   78.4558  219.3322 H   0  0  0  0  0  0  0  0  0  0  0  0
  142.5074   80.4651  220.5759 H   0  0  0  0  0  0  0  0  0  0  0  0
  142.4638   81.6753  222.7505 H   0  0  0  0  0  0  0  0  0  0  0  0
  141.7612   80.5416  224.8359 H   0  0  0  0  0  0  0  0  0  0  0  0
  141.0967   78.1519  224.7458 H   0  0  0  0  0  0  0  0  0  0  0  0
  1  2  1  0
  2  3  1  0
  3  4  2  0
  4  5  1  0
  5  6  2  0
  6  7  1  0
  7  8  2  0
  8  9  1  0
  9 10  1  0
 10 11  2  0
 10 12  1  0
 12 13  1  0
 13 14  1  0
 14 15  2  0
 14 16  1  0
 16 17  2  0
 17 18  1  0
 18 19  2  0
 19 20  1  0
 20 21  2  0
 21 22  1  0
 22 23  2  0
 23 24  1  0
 24 25  2  0
  8  3  1  0
 25 16  1  0
 24 19  1  0
  1 26  1  0
  1 27  1  0
  1 28  1  0
  4 29  1  0
  5 30  1  0
  6 31  1  0
  7 32  1  0
  9 33  1  0
 12 34  1  0
 12 35  1  0
 13 36  1  0
 17 37  1  0
 18 38  1  0
 20 39  1  0
 21 40  1  0
 22 41  1  0
 23 42  1  0
M  END
>  <smiles>  (25) 
COc1ccccc1NC(=O)CNC(=O)c1ccc2ccccc2n1

>  <score_type>  (25) 
oracle

>  <origin>  (25) 
autodockgpu

>  <m_score__min__energy>  (25) 
-8.6500000000000004

>  <m_primary>  (25) 
energy

>  <rmsd>  (25) 
8.760113139853736

>  <m_score__min__rmsd>  (25) 
8.760113139853736

>  <meeko>  (25) 
{"free_energy": -8.15, "intermolecular_energy": -9.65, "internal_energy": -1.18, "cluster_size": 32, "cluster_id": 2, "rank_in_cluster": 2}

>  <energy>  (25) 
-7.41

>  <cluster_rmsd>  (25) 
1.56

>  <cluster>  (25) 
2

$$$$

     RDKit          3D

 42 44  0  0  0  0  0  0  0  0999 V2000
  138.6020   69.8680  222.0530 C   0  0  0  0  0  0  0  0  0  0  0  0
  138.2170   70.4670  223.2570 O   0  0  0  0  0  0  0  0  0  0  0  0
  139.1200   70.7080  224.2530 C   0  0  0  0  0  0  0  0  0  0  0  0
  139.0360   69.8860  225.3840 C   0  0  0  0  0  0  0  0  0  0  0  0
  139.8980   70.0550  226.4390 C   0  0  0  0  0  0  0  0  0  0  0  0
  140.8330   71.0540  226.3300 C   0  0  0  0  0  0  0  0  0  0  0  0
  140.9130   71.8580  225.2180 C   0  0  0  0  0  0  0  0  0  0  0  0
  140.0450   71.7080  224.1260 C   0  0  0  0  0  0  0  0  0  0  0  0
  140.2130   72.5940  223.0610 N   0  0  0  0  0  0  0  0  0  0  0  0
  141.0600   72.5350  221.9530 C   0  0  0  0  0  0  0  0  0  0  0  0
  141.8440   71.5950  221.7970 O   0  0  0  0  0  0  0  0  0  0  0  0
  141.0970   73.5880  220.8740 C   0  0  0  0  0  0  0  0  0  0  0  0
  141.1410   74.9340  221.3770 N   0  0  0  0  0  0  0  0  0  0  0  0
  140.0080   75.6210  221.8590 C   0  0  0  0  0  0  0  0  0  0  0  0
  138.8380   75.1090  221.8830 O   0  0  0  0  0  0  0  0  0  0  0  0
  140.1660   76.9860  222.3570 C   0  0  0  0  0  0  0  0  0  0  0  0
  139.0770   77.7470  222.7320 C   0  0  0  0  0  0  0  0  0  0  0  0
  139.1740   79.0330  223.2060 C   0  0  0  0  0  0  0  0  0  0  0  0
  140.4570   79.5610  223.2980 C   0  0  0  0  0  0  0  0  0  0  0  0
  140.5840   80.8620  223.7740 C   0  0  0  0  0  0  0  0  0  0  0  0
  141.8640   81.3930  223.8670 C   0  0  0  0  0  0  0  0  0  0  0  0
  142.9840   80.6750  223.5070 C   0  0  0  0  0  0  0  0  0  0  0  0
  142.8110   79.3850  223.0370 C   0  0  0  0  0  0  0  0  0  0  0  0
  141.5620   78.8090  222.9250 C   0  0  0  0  0  0  0  0  0  0  0  0
  141.3770   77.5500  222.4690 N   0  0  0  0  0  0  0  0  0  0  0  0
  139.1856   68.9601  222.2653 H   0  0  0  0  0  0  0  0  0  0  0  0
  137.7061   69.6008  221.4734 H   0  0  0  0  0  0  0  0  0  0  0  0
  139.2171   70.5721  221.4734 H   0  0  0  0  0  0  0  0  0  0  0  0
  138.2712   69.0966  225.4273 H   0  0  0  0  0  0  0  0  0  0  0  0
  139.8418   69.4171  227.3334 H   0  0  0  0  0  0  0  0  0  0  0  0
  141.5395   71.2160  227.1574 H   0  0  0  0  0  0  0  0  0  0  0  0
  141.6819   72.6439  225.1832 H   0  0  0  0  0  0  0  0  0  0  0  0
  139.6030   73.4790  223.0910 H   0  0  0  0  0  0  0  0  0  0  0  0
  141.9911   73.4196  220.2558 H   0  0  0  0  0  0  0  0  0  0  0  0
  140.1635   73.4912  220.3002 H   0  0  0  0  0  0  0  0  0  0  0  0
  142.0600   75.4200  221.3810 H   0  0  0  0  0  0  0  0  0  0  0  0
  138.0760   77.2990  222.6466 H   0  0  0  0  0  0  0  0  0  0  0  0
  138.2856   79.6129  223.4967 H   0  0  0  0  0  0  0  0  0  0  0  0
  139.7014   81.4497  224.0665 H   0  0  0  0  0  0  0  0  0  0  0  0
  141.9879   82.4203  224.2402 H   0  0  0  0  0  0  0  0  0  0  0  0
  143.9884   81.1155  223.5910 H   0  0  0  0  0  0  0  0  0  0  0  0
  143.6959   78.8010  222.7438 H   0  0  0  0  0  0  0  0  0  0  0  0
  1  2  1  0
  2  3  1  0
  3  4  2  0
  4  5  1  0
  5  6  2  0
  6  7  1  0
  7  8  2  0
  8  9  1  0
  9 10  1  0
 10 11  2  0
 10 12  1  0
 12 13  1  0
 13 14  1  0
 14 15  2  0
 14 16  1  0
 16 17  2  0
 17 18  1  0
 18 19  2  0
 19 20  1  0
 20 21  2  0
 21 22  1  0
 22 23  2  0
 23 24  1  0
 24 25  2  0
  8  3  1  0
 25 16  1  0
 24 19  1  0
  1 26  1  0
  1 27  1  0
  1 28  1  0
  4 29  1  0
  5 30  1  0
  6 31  1  0
  7 32  1  0
  9 33  1  0
 12 34  1  0
 12 35  1  0
 13 36  1  0
 17 37  1  0
 18 38  1  0
 20 39  1  0
 21 40  1  0
 22 41  1  0
 23 42  1  0
M  END
>  <smiles>  (26) 
COc1ccccc1NC(=O)CNC(=O)c1ccc2ccccc2n1

>  <score_type>  (26) 
oracle

>  <origin>  (26) 
autodockgpu

>  <m_score__min__energy>  (26) 
-8.6500000000000004

>  <m_primary>  (26) 
energy

>  <rmsd>  (26) 
8.63345999096895

>  <m_score__min__rmsd>  (26) 
8.63345999096895

>  <meeko>  (26) 
{"free_energy": -7.36, "intermolecular_energy": -8.85, "internal_energy": -2.12, "cluster_size": 32, "cluster_id": 2, "rank_in_cluster": 29}

>  <energy>  (26) 
-7.41

>  <cluster_rmsd>  (26) 
1.56

>  <cluster>  (26) 
2

$$$$

     RDKit          3D

 42 44  0  0  0  0  0  0  0  0999 V2000
  138.6800   69.7430  222.1170 C   0  0  0  0  0  0  0  0  0  0  0  0
  138.2890   70.4020  223.2870 O   0  0  0  0  0  0  0  0  0  0  0  0
  139.1820   70.6740  224.2830 C   0  0  0  0  0  0  0  0  0  0  0  0
  139.1200   69.8560  225.4180 C   0  0  0  0  0  0  0  0  0  0  0  0
  139.9750   70.0550  226.4740 C   0  0  0  0  0  0  0  0  0  0  0  0
  140.8810   71.0810  226.3620 C   0  0  0  0  0  0  0  0  0  0  0  0
  140.9390   71.8810  225.2460 C   0  0  0  0  0  0  0  0  0  0  0  0
  140.0780   71.7010  224.1530 C   0  0  0  0  0  0  0  0  0  0  0  0
  140.2210   72.5860  223.0840 N   0  0  0  0  0  0  0  0  0  0  0  0
  141.0760   72.5490  221.9800 C   0  0  0  0  0  0  0  0  0  0  0  0
  141.8900   71.6330  221.8330 O   0  0  0  0  0  0  0  0  0  0  0  0
  141.0830   73.5960  220.8950 C   0  0  0  0  0  0  0  0  0  0  0  0
  141.1220   74.9450  221.3910 N   0  0  0  0  0  0  0  0  0  0  0  0
  139.9910   75.6250  221.8870 C   0  0  0  0  0  0  0  0  0  0  0  0
  138.8260   75.1020  221.9320 O   0  0  0  0  0  0  0  0  0  0  0  0
  140.1440   76.9940  222.3760 C   0  0  0  0  0  0  0  0  0  0  0  0
  139.0530   77.7530  222.7460 C   0  0  0  0  0  0  0  0  0  0  0  0
  139.1450   79.0430  223.2120 C   0  0  0  0  0  0  0  0  0  0  0  0
  140.4270   79.5760  223.3000 C   0  0  0  0  0  0  0  0  0  0  0  0
  140.5500   80.8800  223.7680 C   0  0  0  0  0  0  0  0  0  0  0  0
  141.8280   81.4160  223.8560 C   0  0  0  0  0  0  0  0  0  0  0  0
  142.9500   80.7000  223.5000 C   0  0  0  0  0  0  0  0  0  0  0  0
  142.7820   79.4060  223.0390 C   0  0  0  0  0  0  0  0  0  0  0  0
  141.5350   78.8250  222.9320 C   0  0  0  0  0  0  0  0  0  0  0  0
  141.3540   77.5620  222.4840 N   0  0  0  0  0  0  0  0  0  0  0  0
  139.2252   68.8241  222.3785 H   0  0  0  0  0  0  0  0  0  0  0  0
  137.7887   69.4850  221.5262 H   0  0  0  0  0  0  0  0  0  0  0  0
  139.3336   70.4016  221.5262 H   0  0  0  0  0  0  0  0  0  0  0  0
  138.3782   69.0451  225.4641 H   0  0  0  0  0  0  0  0  0  0  0  0
  139.9359   69.4198  227.3712 H   0  0  0  0  0  0  0  0  0  0  0  0
  141.5808   71.2680  227.1898 H   0  0  0  0  0  0  0  0  0  0  0  0
  141.6848   72.6887  225.2085 H   0  0  0  0  0  0  0  0  0  0  0  0
  139.5830   73.4510  223.1070 H   0  0  0  0  0  0  0  0  0  0  0  0
  141.9677   73.4335  220.2619 H   0  0  0  0  0  0  0  0  0  0  0  0
  140.1409   73.4865  220.3378 H   0  0  0  0  0  0  0  0  0  0  0  0
  142.0370   75.4390  221.3780 H   0  0  0  0  0  0  0  0  0  0  0  0
  138.0537   77.3007  222.6635 H   0  0  0  0  0  0  0  0  0  0  0  0
  138.2546   79.6215  223.4993 H   0  0  0  0  0  0  0  0  0  0  0  0
  139.6657   81.4663  224.0583 H   0  0  0  0  0  0  0  0  0  0  0  0
  141.9486   82.4463  224.2220 H   0  0  0  0  0  0  0  0  0  0  0  0
  143.9527   81.1451  223.5801 H   0  0  0  0  0  0  0  0  0  0  0  0
  143.6689   78.8233  222.7493 H   0  0  0  0  0  0  0  0  0  0  0  0
  1  2  1  0
  2  3  1  0
  3  4  2  0
  4  5  1  0
  5  6  2  0
  6  7  1  0
  7  8  2  0
  8  9  1  0
  9 10  1  0
 10 11  2  0
 10 12  1  0
 12 13  1  0
 13 14  1  0
 14 15  2  0
 14 16  1  0
 16 17  2  0
 17 18  1  0
 18 19  2  0
 19 20  1  0
 20 21  2  0
 21 22  1  0
 22 23  2  0
 23 24  1  0
 24 25  2  0
  8  3  1  0
 25 16  1  0
 24 19  1  0
  1 26  1  0
  1 27  1  0
  1 28  1  0
  4 29  1  0
  5 30  1  0
  6 31  1  0
  7 32  1  0
  9 33  1  0
 12 34  1  0
 12 35  1  0
 13 36  1  0
 17 37  1  0
 18 38  1  0
 20 39  1  0
 21 40  1  0
 22 41  1  0
 23 42  1  0
M  END
>  <smiles>  (27) 
COc1ccccc1NC(=O)CNC(=O)c1ccc2ccccc2n1

>  <score_type>  (27) 
oracle

>  <origin>  (27) 
autodockgpu

>  <m_score__min__energy>  (27) 
-8.6500000000000004

>  <m_primary>  (27) 
energy

>  <rmsd>  (27) 
8.64298667693278

>  <m_score__min__rmsd>  (27) 
8.64298667693278

>  <meeko>  (27) 
{"free_energy": -7.38, "intermolecular_energy": -8.88, "internal_energy": -2.12, "cluster_size": 32, "cluster_id": 2, "rank_in_cluster": 21}

>  <energy>  (27) 
-7.4

>  <cluster_rmsd>  (27) 
1.56

>  <cluster>  (27) 
2

$$$$

     RDKit          3D

 42 44  0  0  0  0  0  0  0  0999 V2000
  138.4890   69.9810  222.0340 C   0  0  0  0  0  0  0  0  0  0  0  0
  138.1320   70.5930  223.2400 O   0  0  0  0  0  0  0  0  0  0  0  0
  139.0420   70.7780  224.2400 C   0  0  0  0  0  0  0  0  0  0  0  0
  138.9100   69.9530  225.3650 C   0  0  0  0  0  0  0  0  0  0  0  0
  139.7750   70.0680  226.4240 C   0  0  0  0  0  0  0  0  0  0  0  0
  140.7620   71.0170  226.3270 C   0  0  0  0  0  0  0  0  0  0  0  0
  140.8890   71.8240  225.2220 C   0  0  0  0  0  0  0  0  0  0  0  0
  140.0190   71.7290  224.1250 C   0  0  0  0  0  0  0  0  0  0  0  0
  140.2380   72.6130  223.0680 N   0  0  0  0  0  0  0  0  0  0  0  0
  141.0650   72.5060  221.9480 C   0  0  0  0  0  0  0  0  0  0  0  0
  141.7750   71.5120  221.7710 O   0  0  0  0  0  0  0  0  0  0  0  0
  141.1650   73.5660  220.8810 C   0  0  0  0  0  0  0  0  0  0  0  0
  141.1900   74.9080  221.3960 N   0  0  0  0  0  0  0  0  0  0  0  0
  140.0410   75.5890  221.8480 C   0  0  0  0  0  0  0  0  0  0  0  0
  138.8720   75.0730  221.8330 O   0  0  0  0  0  0  0  0  0  0  0  0
  140.1790   76.9500  222.3620 C   0  0  0  0  0  0  0  0  0  0  0  0
  139.0810   77.6890  222.7510 C   0  0  0  0  0  0  0  0  0  0  0  0
  139.1600   78.9710  223.2400 C   0  0  0  0  0  0  0  0  0  0  0  0
  140.4350   79.5180  223.3320 C   0  0  0  0  0  0  0  0  0  0  0  0
  140.5440   80.8150  223.8240 C   0  0  0  0  0  0  0  0  0  0  0  0
  141.8160   81.3650  223.9170 C   0  0  0  0  0  0  0  0  0  0  0  0
  142.9450   80.6690  223.5420 C   0  0  0  0  0  0  0  0  0  0  0  0
  142.7900   79.3820  223.0570 C   0  0  0  0  0  0  0  0  0  0  0  0
  141.5500   78.7880  222.9450 C   0  0  0  0  0  0  0  0  0  0  0  0
  141.3830   77.5320  222.4740 N   0  0  0  0  0  0  0  0  0  0  0  0
  139.0331   69.0482  222.2432 H   0  0  0  0  0  0  0  0  0  0  0  0
  137.5815   69.7542  221.4552 H   0  0  0  0  0  0  0  0  0  0  0  0
  139.1331   70.6593  221.4552 H   0  0  0  0  0  0  0  0  0  0  0  0
  138.1042   69.2050  225.3996 H   0  0  0  0  0  0  0  0  0  0  0  0
  139.6814   69.4269  227.3129 H   0  0  0  0  0  0  0  0  0  0  0  0
  141.4724   71.1350  227.1585 H   0  0  0  0  0  0  0  0  0  0  0  0
  141.6986   72.5683  225.1965 H   0  0  0  0  0  0  0  0  0  0  0  0
  139.6950   73.5410  223.1170 H   0  0  0  0  0  0  0  0  0  0  0  0
  142.0896   73.3966  220.3096 H   0  0  0  0  0  0  0  0  0  0  0  0
  140.2627   73.4790  220.2579 H   0  0  0  0  0  0  0  0  0  0  0  0
  142.1060   75.3960  221.4310 H   0  0  0  0  0  0  0  0  0  0  0  0
  138.0867   77.2264  222.6650 H   0  0  0  0  0  0  0  0  0  0  0  0
  138.2641   79.5333  223.5419 H   0  0  0  0  0  0  0  0  0  0  0  0
  139.6538   81.3849  224.1287 H   0  0  0  0  0  0  0  0  0  0  0  0
  141.9259   82.3894  224.3025 H   0  0  0  0  0  0  0  0  0  0  0  0
  143.9428   81.1243  223.6260 H   0  0  0  0  0  0  0  0  0  0  0  0
  143.6823   78.8158  222.7517 H   0  0  0  0  0  0  0  0  0  0  0  0
  1  2  1  0
  2  3  1  0
  3  4  2  0
  4  5  1  0
  5  6  2  0
  6  7  1  0
  7  8  2  0
  8  9  1  0
  9 10  1  0
 10 11  2  0
 10 12  1  0
 12 13  1  0
 13 14  1  0
 14 15  2  0
 14 16  1  0
 16 17  2  0
 17 18  1  0
 18 19  2  0
 19 20  1  0
 20 21  2  0
 21 22  1  0
 22 23  2  0
 23 24  1  0
 24 25  2  0
  8  3  1  0
 25 16  1  0
 24 19  1  0
  1 26  1  0
  1 27  1  0
  1 28  1  0
  4 29  1  0
  5 30  1  0
  6 31  1  0
  7 32  1  0
  9 33  1  0
 12 34  1  0
 12 35  1  0
 13 36  1  0
 17 37  1  0
 18 38  1  0
 20 39  1  0
 21 40  1  0
 22 41  1  0
 23 42  1  0
M  END
>  <smiles>  (28) 
COc1ccccc1NC(=O)CNC(=O)c1ccc2ccccc2n1

>  <score_type>  (28) 
oracle

>  <origin>  (28) 
autodockgpu

>  <m_score__min__energy>  (28) 
-8.6500000000000004

>  <m_primary>  (28) 
energy

>  <rmsd>  (28) 
8.614759513821975

>  <m_score__min__rmsd>  (28) 
8.614759513821975

>  <meeko>  (28) 
{"free_energy": -7.27, "intermolecular_energy": -8.76, "internal_energy": -2.13, "cluster_size": 32, "cluster_id": 2, "rank_in_cluster": 31}

>  <energy>  (28) 
-7.4

>  <cluster_rmsd>  (28) 
1.52

>  <cluster>  (28) 
2

$$$$

     RDKit          3D

 42 44  0  0  0  0  0  0  0  0999 V2000
  142.2220   77.8890  219.1840 C   0  0  0  0  0  0  0  0  0  0  0  0
  141.3340   78.7100  219.8860 O   0  0  0  0  0  0  0  0  0  0  0  0
  141.4720   78.9250  221.2270 C   0  0  0  0  0  0  0  0  0  0  0  0
  141.7290   80.2430  221.6250 C   0  0  0  0  0  0  0  0  0  0  0  0
  141.8870   80.5570  222.9520 C   0  0  0  0  0  0  0  0  0  0  0  0
  141.7800   79.5280  223.8560 C   0  0  0  0  0  0  0  0  0  0  0  0
  141.5270   78.2370  223.4620 C   0  0  0  0  0  0  0  0  0  0  0  0
  141.3620   77.8870  222.1130 C   0  0  0  0  0  0  0  0  0  0  0  0
  141.1250   76.5410  221.8350 N   0  0  0  0  0  0  0  0  0  0  0  0
  139.9650   75.8900  221.4090 C   0  0  0  0  0  0  0  0  0  0  0  0
  138.9130   76.5090  221.2320 O   0  0  0  0  0  0  0  0  0  0  0  0
  139.8930   74.4090  221.1360 C   0  0  0  0  0  0  0  0  0  0  0  0
  139.8610   73.6000  222.3240 N   0  0  0  0  0  0  0  0  0  0  0  0
  140.2500   72.2450  222.3530 C   0  0  0  0  0  0  0  0  0  0  0  0
  140.6590   71.6130  221.3200 O   0  0  0  0  0  0  0  0  0  0  0  0
  140.1870   71.5160  223.6180 C   0  0  0  0  0  0  0  0  0  0  0  0
  139.6210   70.2600  223.6990 C   0  0  0  0  0  0  0  0  0  0  0  0
  139.5400   69.5350  224.8640 C   0  0  0  0  0  0  0  0  0  0  0  0
  140.0670   70.1360  226.0020 C   0  0  0  0  0  0  0  0  0  0  0  0
  139.9970   69.4250  227.1960 C   0  0  0  0  0  0  0  0  0  0  0  0
  140.5230   70.0220  228.3340 C   0  0  0  0  0  0  0  0  0  0  0  0
  141.0990   71.2740  228.3060 C   0  0  0  0  0  0  0  0  0  0  0  0
  141.1470   71.9460  227.0980 C   0  0  0  0  0  0  0  0  0  0  0  0
  140.6400   71.3990  225.9370 C   0  0  0  0  0  0  0  0  0  0  0  0
  140.6800   72.0430  224.7490 N   0  0  0  0  0  0  0  0  0  0  0  0
  142.8371   77.3203  219.8969 H   0  0  0  0  0  0  0  0  0  0  0  0
  141.6540   77.1910  218.5515 H   0  0  0  0  0  0  0  0  0  0  0  0
  142.8734   78.5099  218.5515 H   0  0  0  0  0  0  0  0  0  0  0  0
  141.8051   81.0354  220.8658 H   0  0  0  0  0  0  0  0  0  0  0  0
  142.0905   81.5879  223.2774 H   0  0  0  0  0  0  0  0  0  0  0  0
  141.9006   79.7447  224.9277 H   0  0  0  0  0  0  0  0  0  0  0  0
  141.4512   77.4518  224.2286 H   0  0  0  0  0  0  0  0  0  0  0  0
  141.9620   75.8810  221.9790 H   0  0  0  0  0  0  0  0  0  0  0  0
  138.9811   74.2076  220.5548 H   0  0  0  0  0  0  0  0  0  0  0  0
  140.8090   74.1394  220.5899 H   0  0  0  0  0  0  0  0  0  0  0  0
  139.5310   74.0440  223.2030 H   0  0  0  0  0  0  0  0  0  0  0  0
  139.2120   69.8143  222.7803 H   0  0  0  0  0  0  0  0  0  0  0  0
  139.0835   68.5347  224.8945 H   0  0  0  0  0  0  0  0  0  0  0  0
  139.5409   68.4249  227.2370 H   0  0  0  0  0  0  0  0  0  0  0  0
  140.4786   69.4780  229.2891 H   0  0  0  0  0  0  0  0  0  0  0  0
  141.5097   71.7268  229.2204 H   0  0  0  0  0  0  0  0  0  0  0  0
  141.6030   72.9464  227.0617 H   0  0  0  0  0  0  0  0  0  0  0  0
  1  2  1  0
  2  3  1  0
  3  4  2  0
  4  5  1  0
  5  6  2  0
  6  7  1  0
  7  8  2  0
  8  9  1  0
  9 10  1  0
 10 11  2  0
 10 12  1  0
 12 13  1  0
 13 14  1  0
 14 15  2  0
 14 16  1  0
 16 17  2  0
 17 18  1  0
 18 19  2  0
 19 20  1  0
 20 21  2  0
 21 22  1  0
 22 23  2  0
 23 24  1  0
 24 25  2  0
  8  3  1  0
 25 16  1  0
 24 19  1  0
  1 26  1  0
  1 27  1  0
  1 28  1  0
  4 29  1  0
  5 30  1  0
  6 31  1  0
  7 32  1  0
  9 33  1  0
 12 34  1  0
 12 35  1  0
 13 36  1  0
 17 37  1  0
 18 38  1  0
 20 39  1  0
 21 40  1  0
 22 41  1  0
 23 42  1  0
M  END
>  <smiles>  (29) 
COc1ccccc1NC(=O)CNC(=O)c1ccc2ccccc2n1

>  <score_type>  (29) 
oracle

>  <origin>  (29) 
autodockgpu

>  <m_score__min__energy>  (29) 
-8.6500000000000004

>  <m_primary>  (29) 
energy

>  <rmsd>  (29) 
3.2594722767212536

>  <m_score__min__rmsd>  (29) 
3.2594722767212536

>  <meeko>  (29) 
{"free_energy": -8.48, "intermolecular_energy": -9.97, "internal_energy": -1.12, "cluster_size": 16, "cluster_id": 1, "rank_in_cluster": 10}

>  <energy>  (29) 
-7.4

>  <cluster_rmsd>  (29) 
1.49

>  <cluster>  (29) 
2

$$$$

     RDKit          3D

 42 44  0  0  0  0  0  0  0  0999 V2000
  138.3210   69.0570  222.6470 C   0  0  0  0  0  0  0  0  0  0  0  0
  138.3190   70.3150  223.2570 O   0  0  0  0  0  0  0  0  0  0  0  0
  139.1830   70.6170  224.2700 C   0  0  0  0  0  0  0  0  0  0  0  0
  139.1190   69.8020  225.4080 C   0  0  0  0  0  0  0  0  0  0  0  0
  139.9460   70.0290  226.4800 C   0  0  0  0  0  0  0  0  0  0  0  0
  140.8250   71.0790  226.3820 C   0  0  0  0  0  0  0  0  0  0  0  0
  140.8850   71.8760  225.2640 C   0  0  0  0  0  0  0  0  0  0  0  0
  140.0530   71.6670  224.1540 C   0  0  0  0  0  0  0  0  0  0  0  0
  140.1950   72.5510  223.0840 N   0  0  0  0  0  0  0  0  0  0  0  0
  141.0570   72.5200  221.9860 C   0  0  0  0  0  0  0  0  0  0  0  0
  141.8820   71.6130  221.8470 O   0  0  0  0  0  0  0  0  0  0  0  0
  141.0620   73.5660  220.8990 C   0  0  0  0  0  0  0  0  0  0  0  0
  141.1050   74.9150  221.3920 N   0  0  0  0  0  0  0  0  0  0  0  0
  139.9750   75.6000  221.8850 C   0  0  0  0  0  0  0  0  0  0  0  0
  138.8080   75.0810  221.9310 O   0  0  0  0  0  0  0  0  0  0  0  0
  140.1320   76.9690  222.3710 C   0  0  0  0  0  0  0  0  0  0  0  0
  139.0420   77.7350  222.7330 C   0  0  0  0  0  0  0  0  0  0  0  0
  139.1380   79.0250  223.1960 C   0  0  0  0  0  0  0  0  0  0  0  0
  140.4210   79.5530  223.2890 C   0  0  0  0  0  0  0  0  0  0  0  0
  140.5490   80.8580  223.7540 C   0  0  0  0  0  0  0  0  0  0  0  0
  141.8280   81.3880  223.8480 C   0  0  0  0  0  0  0  0  0  0  0  0
  142.9490   80.6650  223.5000 C   0  0  0  0  0  0  0  0  0  0  0  0
  142.7770   79.3710  223.0410 C   0  0  0  0  0  0  0  0  0  0  0  0
  141.5280   78.7960  222.9290 C   0  0  0  0  0  0  0  0  0  0  0  0
  141.3440   77.5330  222.4840 N   0  0  0  0  0  0  0  0  0  0  0  0
  138.3222   68.2746  223.4202 H   0  0  0  0  0  0  0  0  0  0  0  0
  137.4230   68.9519  222.0204 H   0  0  0  0  0  0  0  0  0  0  0  0
  139.2193   68.9547  222.0204 H   0  0  0  0  0  0  0  0  0  0  0  0
  138.3985   68.9715  225.4428 H   0  0  0  0  0  0  0  0  0  0  0  0
  139.9061   69.3966  227.3791 H   0  0  0  0  0  0  0  0  0  0  0  0
  141.5016   71.2887  227.2236 H   0  0  0  0  0  0  0  0  0  0  0  0
  141.6085   72.7042  225.2387 H   0  0  0  0  0  0  0  0  0  0  0  0
  139.5480   73.4100  223.1010 H   0  0  0  0  0  0  0  0  0  0  0  0
  141.9442   73.4010  220.2630 H   0  0  0  0  0  0  0  0  0  0  0  0
  140.1176   73.4573  220.3456 H   0  0  0  0  0  0  0  0  0  0  0  0
  142.0210   75.4070  221.3790 H   0  0  0  0  0  0  0  0  0  0  0  0
  138.0409   77.2876  222.6459 H   0  0  0  0  0  0  0  0  0  0  0  0
  138.2488   79.6081  223.4776 H   0  0  0  0  0  0  0  0  0  0  0  0
  139.6661   81.4497  224.0376 H   0  0  0  0  0  0  0  0  0  0  0  0
  141.9514   82.4186  224.2121 H   0  0  0  0  0  0  0  0  0  0  0  0
  143.9535   81.1051  223.5849 H   0  0  0  0  0  0  0  0  0  0  0  0
  143.6624   78.7834  222.7570 H   0  0  0  0  0  0  0  0  0  0  0  0
  1  2  1  0
  2  3  1  0
  3  4  2  0
  4  5  1  0
  5  6  2  0
  6  7  1  0
  7  8  2  0
  8  9  1  0
  9 10  1  0
 10 11  2  0
 10 12  1  0
 12 13  1  0
 13 14  1  0
 14 15  2  0
 14 16  1  0
 16 17  2  0
 17 18  1  0
 18 19  2  0
 19 20  1  0
 20 21  2  0
 21 22  1  0
 22 23  2  0
 23 24  1  0
 24 25  2  0
  8  3  1  0
 25 16  1  0
 24 19  1  0
  1 26  1  0
  1 27  1  0
  1 28  1  0
  4 29  1  0
  5 30  1  0
  6 31  1  0
  7 32  1  0
  9 33  1  0
 12 34  1  0
 12 35  1  0
 13 36  1  0
 17 37  1  0
 18 38  1  0
 20 39  1  0
 21 40  1  0
 22 41  1  0
 23 42  1  0
M  END
>  <smiles>  (30) 
COc1ccccc1NC(=O)CNC(=O)c1ccc2ccccc2n1

>  <score_type>  (30) 
oracle

>  <origin>  (30) 
autodockgpu

>  <m_score__min__energy>  (30) 
-8.6500000000000004

>  <m_primary>  (30) 
energy

>  <rmsd>  (30) 
8.633845194446527

>  <m_score__min__rmsd>  (30) 
8.633845194446527

>  <meeko>  (30) 
{"free_energy": -7.43, "intermolecular_energy": -8.92, "internal_energy": -2.08, "cluster_size": 32, "cluster_id": 2, "rank_in_cluster": 6}

>  <energy>  (30) 
-7.39

>  <cluster_rmsd>  (30) 
1.56

>  <cluster>  (30) 
2

$$$$

     RDKit          3D

 42 44  0  0  0  0  0  0  0  0999 V2000
  138.6980   69.6900  222.1080 C   0  0  0  0  0  0  0  0  0  0  0  0
  138.2690   70.3150  223.2840 O   0  0  0  0  0  0  0  0  0  0  0  0
  139.1420   70.6120  224.2900 C   0  0  0  0  0  0  0  0  0  0  0  0
  139.0830   69.7970  225.4280 C   0  0  0  0  0  0  0  0  0  0  0  0
  139.9190   70.0200  226.4940 C   0  0  0  0  0  0  0  0  0  0  0  0
  140.8010   71.0670  226.3900 C   0  0  0  0  0  0  0  0  0  0  0  0
  140.8560   71.8640  225.2730 C   0  0  0  0  0  0  0  0  0  0  0  0
  140.0140   71.6590  224.1680 C   0  0  0  0  0  0  0  0  0  0  0  0
  140.1520   72.5440  223.0980 N   0  0  0  0  0  0  0  0  0  0  0  0
  141.0310   72.5310  222.0140 C   0  0  0  0  0  0  0  0  0  0  0  0
  141.8800   71.6430  221.8900 O   0  0  0  0  0  0  0  0  0  0  0  0
  141.0270   73.5730  220.9240 C   0  0  0  0  0  0  0  0  0  0  0  0
  141.0790   74.9240  221.4120 N   0  0  0  0  0  0  0  0  0  0  0  0
  139.9570   75.6110  221.9190 C   0  0  0  0  0  0  0  0  0  0  0  0
  138.7900   75.0940  221.9810 O   0  0  0  0  0  0  0  0  0  0  0  0
  140.1220   76.9820  222.3990 C   0  0  0  0  0  0  0  0  0  0  0  0
  139.0380   77.7520  222.7690 C   0  0  0  0  0  0  0  0  0  0  0  0
  139.1420   79.0430  223.2260 C   0  0  0  0  0  0  0  0  0  0  0  0
  140.4280   79.5680  223.3060 C   0  0  0  0  0  0  0  0  0  0  0  0
  140.5630   80.8740  223.7650 C   0  0  0  0  0  0  0  0  0  0  0  0
  141.8450   81.4000  223.8450 C   0  0  0  0  0  0  0  0  0  0  0  0
  142.9610   80.6730  223.4880 C   0  0  0  0  0  0  0  0  0  0  0  0
  142.7810   79.3780  223.0360 C   0  0  0  0  0  0  0  0  0  0  0  0
  141.5290   78.8060  222.9370 C   0  0  0  0  0  0  0  0  0  0  0  0
  141.3370   77.5420  222.4980 N   0  0  0  0  0  0  0  0  0  0  0  0
  139.3037   68.8075  222.3617 H   0  0  0  0  0  0  0  0  0  0  0  0
  137.8233   69.3773  221.5189 H   0  0  0  0  0  0  0  0  0  0  0  0
  139.3043   70.3938  221.5189 H   0  0  0  0  0  0  0  0  0  0  0  0
  138.3592   68.9696  225.4679 H   0  0  0  0  0  0  0  0  0  0  0  0
  139.8837   69.3869  227.3929 H   0  0  0  0  0  0  0  0  0  0  0  0
  141.4844   71.2738  227.2268 H   0  0  0  0  0  0  0  0  0  0  0  0
  141.5827   72.6892  225.2429 H   0  0  0  0  0  0  0  0  0  0  0  0
  139.4840   73.3860  223.1020 H   0  0  0  0  0  0  0  0  0  0  0  0
  141.9018   73.4034  220.2790 H   0  0  0  0  0  0  0  0  0  0  0  0
  140.0762   73.4650  220.3814 H   0  0  0  0  0  0  0  0  0  0  0  0
  141.9950   75.4140  221.3860 H   0  0  0  0  0  0  0  0  0  0  0  0
  138.0349   77.3069  222.6937 H   0  0  0  0  0  0  0  0  0  0  0  0
  138.2570   79.6298  223.5131 H   0  0  0  0  0  0  0  0  0  0  0  0
  139.6844   81.4693  224.0545 H   0  0  0  0  0  0  0  0  0  0  0  0
  141.9751   82.4312  224.2052 H   0  0  0  0  0  0  0  0  0  0  0  0
  143.9674   81.1110  223.5607 H   0  0  0  0  0  0  0  0  0  0  0  0
  143.6622   78.7865  222.7468 H   0  0  0  0  0  0  0  0  0  0  0  0
  1  2  1  0
  2  3  1  0
  3  4  2  0
  4  5  1  0
  5  6  2  0
  6  7  1  0
  7  8  2  0
  8  9  1  0
  9 10  1  0
 10 11  2  0
 10 12  1  0
 12 13  1  0
 13 14  1  0
 14 15  2  0
 14 16  1  0
 16 17  2  0
 17 18  1  0
 18 19  2  0
 19 20  1  0
 20 21  2  0
 21 22  1  0
 22 23  2  0
 23 24  1  0
 24 25  2  0
  8  3  1  0
 25 16  1  0
 24 19  1  0
  1 26  1  0
  1 27  1  0
  1 28  1  0
  4 29  1  0
  5 30  1  0
  6 31  1  0
  7 32  1  0
  9 33  1  0
 12 34  1  0
 12 35  1  0
 13 36  1  0
 17 37  1  0
 18 38  1  0
 20 39  1  0
 21 40  1  0
 22 41  1  0
 23 42  1  0
M  END
>  <smiles>  (31) 
COc1ccccc1NC(=O)CNC(=O)c1ccc2ccccc2n1

>  <score_type>  (31) 
oracle

>  <origin>  (31) 
autodockgpu

>  <m_score__min__energy>  (31) 
-8.6500000000000004

>  <m_primary>  (31) 
energy

>  <rmsd>  (31) 
8.642893022432435

>  <m_score__min__rmsd>  (31) 
8.642893022432435

>  <meeko>  (31) 
{"free_energy": -7.38, "intermolecular_energy": -8.87, "internal_energy": -2.12, "cluster_size": 32, "cluster_id": 2, "rank_in_cluster": 22}

>  <energy>  (31) 
-7.39

>  <cluster_rmsd>  (31) 
1.4

>  <cluster>  (31) 
2

$$$$

     RDKit          3D

 42 44  0  0  0  0  0  0  0  0999 V2000
  142.5530   78.8190  218.1650 C   0  0  0  0  0  0  0  0  0  0  0  0
  141.6260   78.2230  219.0260 O   0  0  0  0  0  0  0  0  0  0  0  0
  141.5770   78.5430  220.3520 C   0  0  0  0  0  0  0  0  0  0  0  0
  141.8220   79.8830  220.6800 C   0  0  0  0  0  0  0  0  0  0  0  0
  141.7980   80.3000  221.9870 C   0  0  0  0  0  0  0  0  0  0  0  0
  141.5270   79.3520  222.9430 C   0  0  0  0  0  0  0  0  0  0  0  0
  141.2880   78.0390  222.6170 C   0  0  0  0  0  0  0  0  0  0  0  0
  141.3050   77.5850  221.2900 C   0  0  0  0  0  0  0  0  0  0  0  0
  141.0620   76.2260  221.0850 N   0  0  0  0  0  0  0  0  0  0  0  0
  140.2250   75.3380  221.7640 C   0  0  0  0  0  0  0  0  0  0  0  0
  139.5530   75.7070  222.7310 O   0  0  0  0  0  0  0  0  0  0  0  0
  140.0710   73.8860  221.3900 C   0  0  0  0  0  0  0  0  0  0  0  0
  139.9720   73.0020  222.5200 N   0  0  0  0  0  0  0  0  0  0  0  0
  140.0330   71.5980  222.4170 C   0  0  0  0  0  0  0  0  0  0  0  0
  140.1730   70.9840  221.3050 O   0  0  0  0  0  0  0  0  0  0  0  0
  139.9310   70.7920  223.6320 C   0  0  0  0  0  0  0  0  0  0  0  0
  139.3720   69.5310  223.6160 C   0  0  0  0  0  0  0  0  0  0  0  0
  139.2550   68.7360  224.7310 C   0  0  0  0  0  0  0  0  0  0  0  0
  139.7390   69.2680  225.9210 C   0  0  0  0  0  0  0  0  0  0  0  0
  139.6330   68.4850  227.0670 C   0  0  0  0  0  0  0  0  0  0  0  0
  140.1140   69.0130  228.2570 C   0  0  0  0  0  0  0  0  0  0  0  0
  140.6820   70.2670  228.3260 C   0  0  0  0  0  0  0  0  0  0  0  0
  140.7670   71.0130  227.1630 C   0  0  0  0  0  0  0  0  0  0  0  0
  140.3050   70.5350  225.9540 C   0  0  0  0  0  0  0  0  0  0  0  0
  140.3810   71.2510  224.8100 N   0  0  0  0  0  0  0  0  0  0  0  0
  143.3331   79.3206  218.7565 H   0  0  0  0  0  0  0  0  0  0  0  0
  143.0132   78.0471  217.5306 H   0  0  0  0  0  0  0  0  0  0  0  0
  142.0418   79.5581  217.5306 H   0  0  0  0  0  0  0  0  0  0  0  0
  142.0359   80.6084  219.8812 H   0  0  0  0  0  0  0  0  0  0  0  0
  141.9878   81.3492  222.2576 H   0  0  0  0  0  0  0  0  0  0  0  0
  141.5005   79.6528  224.0007 H   0  0  0  0  0  0  0  0  0  0  0  0
  141.0765   77.3206  223.4227 H   0  0  0  0  0  0  0  0  0  0  0  0
  141.6140   75.7700  220.2820 H   0  0  0  0  0  0  0  0  0  0  0  0
  139.1586   73.7788  220.7850 H   0  0  0  0  0  0  0  0  0  0  0  0
  140.9786   73.5997  220.8383 H   0  0  0  0  0  0  0  0  0  0  0  0
  139.8490   73.4300  223.4590 H   0  0  0  0  0  0  0  0  0  0  0  0
  138.9992   69.1401  222.6578 H   0  0  0  0  0  0  0  0  0  0  0  0
  138.8034   67.7341  224.6845 H   0  0  0  0  0  0  0  0  0  0  0  0
  139.1833   67.4818  227.0307 H   0  0  0  0  0  0  0  0  0  0  0  0
  140.0395   68.4113  229.1748 H   0  0  0  0  0  0  0  0  0  0  0  0
  141.0579   70.6646  229.2803 H   0  0  0  0  0  0  0  0  0  0  0  0
  141.2161   72.0163  227.2039 H   0  0  0  0  0  0  0  0  0  0  0  0
  1  2  1  0
  2  3  1  0
  3  4  2  0
  4  5  1  0
  5  6  2  0
  6  7  1  0
  7  8  2  0
  8  9  1  0
  9 10  1  0
 10 11  2  0
 10 12  1  0
 12 13  1  0
 13 14  1  0
 14 15  2  0
 14 16  1  0
 16 17  2  0
 17 18  1  0
 18 19  2  0
 19 20  1  0
 20 21  2  0
 21 22  1  0
 22 23  2  0
 23 24  1  0
 24 25  2  0
  8  3  1  0
 25 16  1  0
 24 19  1  0
  1 26  1  0
  1 27  1  0
  1 28  1  0
  4 29  1  0
  5 30  1  0
  6 31  1  0
  7 32  1  0
  9 33  1  0
 12 34  1  0
 12 35  1  0
 13 36  1  0
 17 37  1  0
 18 38  1  0
 20 39  1  0
 21 40  1  0
 22 41  1  0
 23 42  1  0
M  END
>  <smiles>  (32) 
COc1ccccc1NC(=O)CNC(=O)c1ccc2ccccc2n1

>  <score_type>  (32) 
oracle

>  <origin>  (32) 
autodockgpu

>  <m_score__min__energy>  (32) 
-8.6500000000000004

>  <m_primary>  (32) 
energy

>  <rmsd>  (32) 
2.7851141036991702

>  <m_score__min__rmsd>  (32) 
2.7851141036991702

>  <meeko>  (32) 
{"free_energy": -7.62, "intermolecular_energy": -9.11, "internal_energy": -1.57, "cluster_size": 16, "cluster_id": 1, "rank_in_cluster": 16}

>  <energy>  (32) 
-7.39

>  <cluster_rmsd>  (32) 
1.48

>  <cluster>  (32) 
2

$$$$

     RDKit          3D

 42 44  0  0  0  0  0  0  0  0999 V2000
  137.2010   71.3290  222.9990 C   0  0  0  0  0  0  0  0  0  0  0  0
  138.2420   70.4420  223.2920 O   0  0  0  0  0  0  0  0  0  0  0  0
  139.1440   70.7040  224.2810 C   0  0  0  0  0  0  0  0  0  0  0  0
  139.0810   69.8860  225.4170 C   0  0  0  0  0  0  0  0  0  0  0  0
  139.9460   70.0750  226.4660 C   0  0  0  0  0  0  0  0  0  0  0  0
  140.8620   71.0910  226.3480 C   0  0  0  0  0  0  0  0  0  0  0  0
  140.9210   71.8910  225.2330 C   0  0  0  0  0  0  0  0  0  0  0  0
  140.0500   71.7210  224.1450 C   0  0  0  0  0  0  0  0  0  0  0  0
  140.1960   72.6050  223.0760 N   0  0  0  0  0  0  0  0  0  0  0  0
  141.0340   72.5540  221.9600 C   0  0  0  0  0  0  0  0  0  0  0  0
  141.8290   71.6230  221.8010 O   0  0  0  0  0  0  0  0  0  0  0  0
  141.0470   73.6030  220.8780 C   0  0  0  0  0  0  0  0  0  0  0  0
  141.0910   74.9510  221.3750 N   0  0  0  0  0  0  0  0  0  0  0  0
  139.9630   75.6330  221.8750 C   0  0  0  0  0  0  0  0  0  0  0  0
  138.7970   75.1140  221.9220 O   0  0  0  0  0  0  0  0  0  0  0  0
  140.1210   77.0010  222.3660 C   0  0  0  0  0  0  0  0  0  0  0  0
  139.0320   77.7660  222.7290 C   0  0  0  0  0  0  0  0  0  0  0  0
  139.1300   79.0550  223.1970 C   0  0  0  0  0  0  0  0  0  0  0  0
  140.4140   79.5810  223.2930 C   0  0  0  0  0  0  0  0  0  0  0  0
  140.5420   80.8840  223.7630 C   0  0  0  0  0  0  0  0  0  0  0  0
  141.8220   81.4120  223.8600 C   0  0  0  0  0  0  0  0  0  0  0  0
  142.9420   80.6880  223.5110 C   0  0  0  0  0  0  0  0  0  0  0  0
  142.7690   79.3960  223.0480 C   0  0  0  0  0  0  0  0  0  0  0  0
  141.5190   78.8230  222.9320 C   0  0  0  0  0  0  0  0  0  0  0  0
  141.3340   77.5620  222.4820 N   0  0  0  0  0  0  0  0  0  0  0  0
  136.7627   71.7024  223.9363 H   0  0  0  0  0  0  0  0  0  0  0  0
  137.5933   72.1747  222.4151 H   0  0  0  0  0  0  0  0  0  0  0  0
  136.4283   70.8074  222.4151 H   0  0  0  0  0  0  0  0  0  0  0  0
  138.3302   69.0837  225.4687 H   0  0  0  0  0  0  0  0  0  0  0  0
  139.9070   69.4395  227.3630 H   0  0  0  0  0  0  0  0  0  0  0  0
  141.5697   71.2696  227.1710 H   0  0  0  0  0  0  0  0  0  0  0  0
  141.6751   72.6908  225.1911 H   0  0  0  0  0  0  0  0  0  0  0  0
  139.5750   73.4820  223.1090 H   0  0  0  0  0  0  0  0  0  0  0  0
  141.9319   73.4377  220.2459 H   0  0  0  0  0  0  0  0  0  0  0  0
  140.1046   73.4986  220.3204 H   0  0  0  0  0  0  0  0  0  0  0  0
  142.0070   75.4420  221.3610 H   0  0  0  0  0  0  0  0  0  0  0  0
  138.0304   77.3203  222.6391 H   0  0  0  0  0  0  0  0  0  0  0  0
  138.2415   79.6385  223.4801 H   0  0  0  0  0  0  0  0  0  0  0  0
  139.6594   81.4754  224.0479 H   0  0  0  0  0  0  0  0  0  0  0  0
  141.9467   82.4414  224.2272 H   0  0  0  0  0  0  0  0  0  0  0  0
  143.9471   81.1263  223.5984 H   0  0  0  0  0  0  0  0  0  0  0  0
  143.6541   78.8079  222.7639 H   0  0  0  0  0  0  0  0  0  0  0  0
  1  2  1  0
  2  3  1  0
  3  4  2  0
  4  5  1  0
  5  6  2  0
  6  7  1  0
  7  8  2  0
  8  9  1  0
  9 10  1  0
 10 11  2  0
 10 12  1  0
 12 13  1  0
 13 14  1  0
 14 15  2  0
 14 16  1  0
 16 17  2  0
 17 18  1  0
 18 19  2  0
 19 20  1  0
 20 21  2  0
 21 22  1  0
 22 23  2  0
 23 24  1  0
 24 25  2  0
  8  3  1  0
 25 16  1  0
 24 19  1  0
  1 26  1  0
  1 27  1  0
  1 28  1  0
  4 29  1  0
  5 30  1  0
  6 31  1  0
  7 32  1  0
  9 33  1  0
 12 34  1  0
 12 35  1  0
 13 36  1  0
 17 37  1  0
 18 38  1  0
 20 39  1  0
 21 40  1  0
 22 41  1  0
 23 42  1  0
M  END
>  <smiles>  (33) 
COc1ccccc1NC(=O)CNC(=O)c1ccc2ccccc2n1

>  <score_type>  (33) 
oracle

>  <origin>  (33) 
autodockgpu

>  <m_score__min__energy>  (33) 
-8.6500000000000004

>  <m_primary>  (33) 
energy

>  <rmsd>  (33) 
8.6363492831019

>  <m_score__min__rmsd>  (33) 
8.6363492831019

>  <meeko>  (33) 
{"free_energy": -7.41, "intermolecular_energy": -8.9, "internal_energy": -2.12, "cluster_size": 32, "cluster_id": 2, "rank_in_cluster": 9}

>  <energy>  (33) 
-7.39

>  <cluster_rmsd>  (33) 
1.53

>  <cluster>  (33) 
2

$$$$

     RDKit          3D

 42 44  0  0  0  0  0  0  0  0999 V2000
  137.1920   71.4650  222.9530 C   0  0  0  0  0  0  0  0  0  0  0  0
  138.1620   70.5120  223.2820 O   0  0  0  0  0  0  0  0  0  0  0  0
  139.0770   70.7380  224.2690 C   0  0  0  0  0  0  0  0  0  0  0  0
  138.9880   69.9190  225.4020 C   0  0  0  0  0  0  0  0  0  0  0  0
  139.8620   70.0730  226.4490 C   0  0  0  0  0  0  0  0  0  0  0  0
  140.8130   71.0560  226.3320 C   0  0  0  0  0  0  0  0  0  0  0  0
  140.8970   71.8580  225.2190 C   0  0  0  0  0  0  0  0  0  0  0  0
  140.0180   71.7230  224.1340 C   0  0  0  0  0  0  0  0  0  0  0  0
  140.1920   72.6050  223.0670 N   0  0  0  0  0  0  0  0  0  0  0  0
  141.0440   72.5410  221.9630 C   0  0  0  0  0  0  0  0  0  0  0  0
  141.8260   71.5980  221.8130 O   0  0  0  0  0  0  0  0  0  0  0  0
  141.0870   73.5900  220.8810 C   0  0  0  0  0  0  0  0  0  0  0  0
  141.1240   74.9380  221.3800 N   0  0  0  0  0  0  0  0  0  0  0  0
  139.9860   75.6240  221.8520 C   0  0  0  0  0  0  0  0  0  0  0  0
  138.8170   75.1080  221.8710 O   0  0  0  0  0  0  0  0  0  0  0  0
  140.1370   76.9910  222.3480 C   0  0  0  0  0  0  0  0  0  0  0  0
  139.0440   77.7470  222.7190 C   0  0  0  0  0  0  0  0  0  0  0  0
  139.1350   79.0350  223.1910 C   0  0  0  0  0  0  0  0  0  0  0  0
  140.4150   79.5690  223.2830 C   0  0  0  0  0  0  0  0  0  0  0  0
  140.5370   80.8720  223.7560 C   0  0  0  0  0  0  0  0  0  0  0  0
  141.8130   81.4090  223.8490 C   0  0  0  0  0  0  0  0  0  0  0  0
  142.9370   80.6950  223.4910 C   0  0  0  0  0  0  0  0  0  0  0  0
  142.7710   79.4030  223.0240 C   0  0  0  0  0  0  0  0  0  0  0  0
  141.5250   78.8220  222.9130 C   0  0  0  0  0  0  0  0  0  0  0  0
  141.3460   77.5600  222.4590 N   0  0  0  0  0  0  0  0  0  0  0  0
  136.7638   71.8857  223.8748 H   0  0  0  0  0  0  0  0  0  0  0  0
  137.6542   72.2700  222.3628 H   0  0  0  0  0  0  0  0  0  0  0  0
  136.3953   70.9886  222.3628 H   0  0  0  0  0  0  0  0  0  0  0  0
  138.2091   69.1439  225.4531 H   0  0  0  0  0  0  0  0  0  0  0  0
  139.8029   69.4359  227.3438 H   0  0  0  0  0  0  0  0  0  0  0  0
  141.5291   71.2063  227.1534 H   0  0  0  0  0  0  0  0  0  0  0  0
  141.6788   72.6307  225.1776 H   0  0  0  0  0  0  0  0  0  0  0  0
  139.5840   73.4920  223.0930 H   0  0  0  0  0  0  0  0  0  0  0  0
  141.9863   73.4216  220.2703 H   0  0  0  0  0  0  0  0  0  0  0  0
  140.1583   73.4890  220.3002 H   0  0  0  0  0  0  0  0  0  0  0  0
  142.0410   75.4260  221.3890 H   0  0  0  0  0  0  0  0  0  0  0  0
  138.0452   77.2944  222.6324 H   0  0  0  0  0  0  0  0  0  0  0  0
  138.2437   79.6113  223.4800 H   0  0  0  0  0  0  0  0  0  0  0  0
  139.6516   81.4566  224.0464 H   0  0  0  0  0  0  0  0  0  0  0  0
  141.9318   82.4376  224.2203 H   0  0  0  0  0  0  0  0  0  0  0  0
  143.9392   81.1407  223.5744 H   0  0  0  0  0  0  0  0  0  0  0  0
  143.6587   78.8224  222.7328 H   0  0  0  0  0  0  0  0  0  0  0  0
  1  2  1  0
  2  3  1  0
  3  4  2  0
  4  5  1  0
  5  6  2  0
  6  7  1  0
  7  8  2  0
  8  9  1  0
  9 10  1  0
 10 11  2  0
 10 12  1  0
 12 13  1  0
 13 14  1  0
 14 15  2  0
 14 16  1  0
 16 17  2  0
 17 18  1  0
 18 19  2  0
 19 20  1  0
 20 21  2  0
 21 22  1  0
 22 23  2  0
 23 24  1  0
 24 25  2  0
  8  3  1  0
 25 16  1  0
 24 19  1  0
  1 26  1  0
  1 27  1  0
  1 28  1  0
  4 29  1  0
  5 30  1  0
  6 31  1  0
  7 32  1  0
  9 33  1  0
 12 34  1  0
 12 35  1  0
 13 36  1  0
 17 37  1  0
 18 38  1  0
 20 39  1  0
 21 40  1  0
 22 41  1  0
 23 42  1  0
M  END
>  <smiles>  (34) 
COc1ccccc1NC(=O)CNC(=O)c1ccc2ccccc2n1

>  <score_type>  (34) 
oracle

>  <origin>  (34) 
autodockgpu

>  <m_score__min__energy>  (34) 
-8.6500000000000004

>  <m_primary>  (34) 
energy

>  <rmsd>  (34) 
8.636758501893267

>  <m_score__min__rmsd>  (34) 
8.636758501893267

>  <meeko>  (34) 
{"free_energy": -7.39, "intermolecular_energy": -8.89, "internal_energy": -2.12, "cluster_size": 32, "cluster_id": 2, "rank_in_cluster": 14}

>  <energy>  (34) 
-7.39

>  <cluster_rmsd>  (34) 
1.41

>  <cluster>  (34) 
2

$$$$

     RDKit          3D

 42 44  0  0  0  0  0  0  0  0999 V2000
  138.6710   69.7490  222.1020 C   0  0  0  0  0  0  0  0  0  0  0  0
  138.2500   70.3010  223.3160 O   0  0  0  0  0  0  0  0  0  0  0  0
  139.1370   70.5960  224.3100 C   0  0  0  0  0  0  0  0  0  0  0  0
  139.0940   69.7800  225.4480 C   0  0  0  0  0  0  0  0  0  0  0  0
  139.9460   70.0000  226.5020 C   0  0  0  0  0  0  0  0  0  0  0  0
  140.8280   71.0460  226.3870 C   0  0  0  0  0  0  0  0  0  0  0  0
  140.8670   71.8440  225.2690 C   0  0  0  0  0  0  0  0  0  0  0  0
  140.0100   71.6420  224.1770 C   0  0  0  0  0  0  0  0  0  0  0  0
  140.1330   72.5280  223.1060 N   0  0  0  0  0  0  0  0  0  0  0  0
  141.0300   72.5430  222.0360 C   0  0  0  0  0  0  0  0  0  0  0  0
  141.9110   71.6850  221.9290 O   0  0  0  0  0  0  0  0  0  0  0  0
  141.0060   73.5810  220.9420 C   0  0  0  0  0  0  0  0  0  0  0  0
  141.0630   74.9340  221.4240 N   0  0  0  0  0  0  0  0  0  0  0  0
  139.9470   75.6240  221.9390 C   0  0  0  0  0  0  0  0  0  0  0  0
  138.7810   75.1080  222.0150 O   0  0  0  0  0  0  0  0  0  0  0  0
  140.1180   76.9960  222.4120 C   0  0  0  0  0  0  0  0  0  0  0  0
  139.0360   77.7780  222.7620 C   0  0  0  0  0  0  0  0  0  0  0  0
  139.1450   79.0720  223.2120 C   0  0  0  0  0  0  0  0  0  0  0  0
  140.4340   79.5850  223.3050 C   0  0  0  0  0  0  0  0  0  0  0  0
  140.5740   80.8940  223.7570 C   0  0  0  0  0  0  0  0  0  0  0  0
  141.8600   81.4100  223.8510 C   0  0  0  0  0  0  0  0  0  0  0  0
  142.9730   80.6700  223.5140 C   0  0  0  0  0  0  0  0  0  0  0  0
  142.7880   79.3740  223.0680 C   0  0  0  0  0  0  0  0  0  0  0  0
  141.5330   78.8120  222.9570 C   0  0  0  0  0  0  0  0  0  0  0  0
  141.3360   77.5470  222.5230 N   0  0  0  0  0  0  0  0  0  0  0  0
  139.3274   68.8884  222.2985 H   0  0  0  0  0  0  0  0  0  0  0  0
  137.7943   69.4175  221.5263 H   0  0  0  0  0  0  0  0  0  0  0  0
  139.2226   70.5069  221.5263 H   0  0  0  0  0  0  0  0  0  0  0  0
  138.3695   68.9538  225.4977 H   0  0  0  0  0  0  0  0  0  0  0  0
  139.9230   69.3654  227.4002 H   0  0  0  0  0  0  0  0  0  0  0  0
  141.5237   71.2512  227.2140 H   0  0  0  0  0  0  0  0  0  0  0  0
  141.5942   72.6684  225.2290 H   0  0  0  0  0  0  0  0  0  0  0  0
  139.4350   73.3460  223.0960 H   0  0  0  0  0  0  0  0  0  0  0  0
  141.8706   73.4108  220.2835 H   0  0  0  0  0  0  0  0  0  0  0  0
  140.0468   73.4689  220.4153 H   0  0  0  0  0  0  0  0  0  0  0  0
  141.9800   75.4230  221.3870 H   0  0  0  0  0  0  0  0  0  0  0  0
  138.0301   77.3412  222.6760 H   0  0  0  0  0  0  0  0  0  0  0  0
  138.2617   79.6686  223.4835 H   0  0  0  0  0  0  0  0  0  0  0  0
  139.6967   81.4987  224.0302 H   0  0  0  0  0  0  0  0  0  0  0  0
  141.9947   82.4425  224.2058 H   0  0  0  0  0  0  0  0  0  0  0  0
  143.9824   81.0992  223.5977 H   0  0  0  0  0  0  0  0  0  0  0  0
  143.6678   78.7734  222.7936 H   0  0  0  0  0  0  0  0  0  0  0  0
  1  2  1  0
  2  3  1  0
  3  4  2  0
  4  5  1  0
  5  6  2  0
  6  7  1  0
  7  8  2  0
  8  9  1  0
  9 10  1  0
 10 11  2  0
 10 12  1  0
 12 13  1  0
 13 14  1  0
 14 15  2  0
 14 16  1  0
 16 17  2  0
 17 18  1  0
 18 19  2  0
 19 20  1  0
 20 21  2  0
 21 22  1  0
 22 23  2  0
 23 24  1  0
 24 25  2  0
  8  3  1  0
 25 16  1  0
 24 19  1  0
  1 26  1  0
  1 27  1  0
  1 28  1  0
  4 29  1  0
  5 30  1  0
  6 31  1  0
  7 32  1  0
  9 33  1  0
 12 34  1  0
 12 35  1  0
 13 36  1  0
 17 37  1  0
 18 38  1  0
 20 39  1  0
 21 40  1  0
 22 41  1  0
 23 42  1  0
M  END
>  <smiles>  (35) 
COc1ccccc1NC(=O)CNC(=O)c1ccc2ccccc2n1

>  <score_type>  (35) 
oracle

>  <origin>  (35) 
autodockgpu

>  <m_score__min__energy>  (35) 
-8.6500000000000004

>  <m_primary>  (35) 
energy

>  <rmsd>  (35) 
8.651050292211504

>  <m_score__min__rmsd>  (35) 
8.651050292211504

>  <meeko>  (35) 
{"free_energy": -7.37, "intermolecular_energy": -8.86, "internal_energy": -2.12, "cluster_size": 32, "cluster_id": 2, "rank_in_cluster": 27}

>  <energy>  (35) 
-7.38

>  <cluster_rmsd>  (35) 
1.41

>  <cluster>  (35) 
2

$$$$

     RDKit          3D

 42 44  0  0  0  0  0  0  0  0999 V2000
  142.0350   80.4820  218.9690 C   0  0  0  0  0  0  0  0  0  0  0  0
  141.8430   79.3720  219.7980 O   0  0  0  0  0  0  0  0  0  0  0  0
  141.7990   79.4960  221.1570 C   0  0  0  0  0  0  0  0  0  0  0  0
  141.9750   80.7880  221.6710 C   0  0  0  0  0  0  0  0  0  0  0  0
  141.9500   81.0130  223.0250 C   0  0  0  0  0  0  0  0  0  0  0  0
  141.7470   79.9250  223.8370 C   0  0  0  0  0  0  0  0  0  0  0  0
  141.5750   78.6600  223.3290 C   0  0  0  0  0  0  0  0  0  0  0  0
  141.5950   78.4000  221.9500 C   0  0  0  0  0  0  0  0  0  0  0  0
  141.4250   77.0730  221.5550 N   0  0  0  0  0  0  0  0  0  0  0  0
  140.4370   76.1440  221.8890 C   0  0  0  0  0  0  0  0  0  0  0  0
  139.5230   76.4340  222.6650 O   0  0  0  0  0  0  0  0  0  0  0  0
  140.3980   74.7370  221.3470 C   0  0  0  0  0  0  0  0  0  0  0  0
  140.1060   73.7400  222.3410 N   0  0  0  0  0  0  0  0  0  0  0  0
  140.6850   72.4550  222.3460 C   0  0  0  0  0  0  0  0  0  0  0  0
  141.5170   72.0590  221.4610 O   0  0  0  0  0  0  0  0  0  0  0  0
  140.3250   71.5190  223.4100 C   0  0  0  0  0  0  0  0  0  0  0  0
  139.5980   70.3760  223.1490 C   0  0  0  0  0  0  0  0  0  0  0  0
  139.2370   69.4670  224.1140 C   0  0  0  0  0  0  0  0  0  0  0  0
  139.6450   69.7510  225.4130 C   0  0  0  0  0  0  0  0  0  0  0  0
  139.2920   68.8480  226.4100 C   0  0  0  0  0  0  0  0  0  0  0  0
  139.6970   69.1280  227.7080 C   0  0  0  0  0  0  0  0  0  0  0  0
  140.4260   70.2560  228.0210 C   0  0  0  0  0  0  0  0  0  0  0  0
  140.7540   71.1280  226.9990 C   0  0  0  0  0  0  0  0  0  0  0  0
  140.3770   70.8970  225.6920 C   0  0  0  0  0  0  0  0  0  0  0  0
  140.6910   71.7390  224.6820 N   0  0  0  0  0  0  0  0  0  0  0  0
  142.1901   81.3787  219.5869 H   0  0  0  0  0  0  0  0  0  0  0  0
  142.9180   80.3171  218.3340 H   0  0  0  0  0  0  0  0  0  0  0  0
  141.1479   80.6232  218.3340 H   0  0  0  0  0  0  0  0  0  0  0  0
  142.1349   81.6306  220.9822 H   0  0  0  0  0  0  0  0  0  0  0  0
  142.0868   82.0219  223.4414 H   0  0  0  0  0  0  0  0  0  0  0  0
  141.7212   80.0702  224.9271 H   0  0  0  0  0  0  0  0  0  0  0  0
  141.4165   77.8238  224.0259 H   0  0  0  0  0  0  0  0  0  0  0  0
  142.1780   76.6840  220.8940 H   0  0  0  0  0  0  0  0  0  0  0  0
  139.6234   74.6870  220.5676 H   0  0  0  0  0  0  0  0  0  0  0  0
  141.4025   74.5160  220.9571 H   0  0  0  0  0  0  0  0  0  0  0  0
  139.4310   73.9870  223.0910 H   0  0  0  0  0  0  0  0  0  0  0  0
  139.2903   70.1816  222.1110 H   0  0  0  0  0  0  0  0  0  0  0  0
  138.6570   68.5641  223.8724 H   0  0  0  0  0  0  0  0  0  0  0  0
  138.7117   67.9428  226.1780 H   0  0  0  0  0  0  0  0  0  0  0  0
  139.4278   68.4278  228.5125 H   0  0  0  0  0  0  0  0  0  0  0  0
  140.7384   70.4569  229.0564 H   0  0  0  0  0  0  0  0  0  0  0  0
  141.3329   72.0330  227.2352 H   0  0  0  0  0  0  0  0  0  0  0  0
  1  2  1  0
  2  3  1  0
  3  4  2  0
  4  5  1  0
  5  6  2  0
  6  7  1  0
  7  8  2  0
  8  9  1  0
  9 10  1  0
 10 11  2  0
 10 12  1  0
 12 13  1  0
 13 14  1  0
 14 15  2  0
 14 16  1  0
 16 17  2  0
 17 18  1  0
 18 19  2  0
 19 20  1  0
 20 21  2  0
 21 22  1  0
 22 23  2  0
 23 24  1  0
 24 25  2  0
  8  3  1  0
 25 16  1  0
 24 19  1  0
  1 26  1  0
  1 27  1  0
  1 28  1  0
  4 29  1  0
  5 30  1  0
  6 31  1  0
  7 32  1  0
  9 33  1  0
 12 34  1  0
 12 35  1  0
 13 36  1  0
 17 37  1  0
 18 38  1  0
 20 39  1  0
 21 40  1  0
 22 41  1  0
 23 42  1  0
M  END
>  <smiles>  (36) 
COc1ccccc1NC(=O)CNC(=O)c1ccc2ccccc2n1

>  <score_type>  (36) 
oracle

>  <origin>  (36) 
autodockgpu

>  <m_score__min__energy>  (36) 
-8.6500000000000004

>  <m_primary>  (36) 
energy

>  <rmsd>  (36) 
3.4026407275029538

>  <m_score__min__rmsd>  (36) 
3.4026407275029538

>  <meeko>  (36) 
{"free_energy": -8.32, "intermolecular_energy": -9.81, "internal_energy": -1.32, "cluster_size": 16, "cluster_id": 1, "rank_in_cluster": 13}

>  <energy>  (36) 
-7.38

>  <cluster_rmsd>  (36) 
1.53

>  <cluster>  (36) 
2

$$$$

     RDKit          3D

 42 44  0  0  0  0  0  0  0  0999 V2000
  137.2320   71.3990  223.0270 C   0  0  0  0  0  0  0  0  0  0  0  0
  138.2240   70.4670  223.3480 O   0  0  0  0  0  0  0  0  0  0  0  0
  139.1500   70.7170  224.3190 C   0  0  0  0  0  0  0  0  0  0  0  0
  139.0990   69.9000  225.4560 C   0  0  0  0  0  0  0  0  0  0  0  0
  139.9870   70.0780  226.4870 C   0  0  0  0  0  0  0  0  0  0  0  0
  140.9130   71.0820  226.3510 C   0  0  0  0  0  0  0  0  0  0  0  0
  140.9600   71.8810  225.2340 C   0  0  0  0  0  0  0  0  0  0  0  0
  140.0660   71.7220  224.1640 C   0  0  0  0  0  0  0  0  0  0  0  0
  140.2020   72.6040  223.0920 N   0  0  0  0  0  0  0  0  0  0  0  0
  141.0420   72.5600  221.9780 C   0  0  0  0  0  0  0  0  0  0  0  0
  141.8490   71.6400  221.8230 O   0  0  0  0  0  0  0  0  0  0  0  0
  141.0420   73.6050  220.8910 C   0  0  0  0  0  0  0  0  0  0  0  0
  141.0890   74.9550  221.3830 N   0  0  0  0  0  0  0  0  0  0  0  0
  139.9640   75.6380  221.8880 C   0  0  0  0  0  0  0  0  0  0  0  0
  138.7980   75.1180  221.9450 O   0  0  0  0  0  0  0  0  0  0  0  0
  140.1240   77.0080  222.3730 C   0  0  0  0  0  0  0  0  0  0  0  0
  139.0350   77.7800  222.7230 C   0  0  0  0  0  0  0  0  0  0  0  0
  139.1340   79.0710  223.1840 C   0  0  0  0  0  0  0  0  0  0  0  0
  140.4200   79.5910  223.2880 C   0  0  0  0  0  0  0  0  0  0  0  0
  140.5500   80.8970  223.7520 C   0  0  0  0  0  0  0  0  0  0  0  0
  141.8320   81.4190  223.8570 C   0  0  0  0  0  0  0  0  0  0  0  0
  142.9520   80.6890  223.5210 C   0  0  0  0  0  0  0  0  0  0  0  0
  142.7760   79.3950  223.0630 C   0  0  0  0  0  0  0  0  0  0  0  0
  141.5250   78.8270  222.9400 C   0  0  0  0  0  0  0  0  0  0  0  0
  141.3380   77.5640  222.4960 N   0  0  0  0  0  0  0  0  0  0  0  0
  136.7984   71.8064  223.9522 H   0  0  0  0  0  0  0  0  0  0  0  0
  137.6736   72.2164  222.4381 H   0  0  0  0  0  0  0  0  0  0  0  0
  136.4437   70.9073  222.4381 H   0  0  0  0  0  0  0  0  0  0  0  0
  138.3391   69.1075  225.5230 H   0  0  0  0  0  0  0  0  0  0  0  0
  139.9579   69.4428  227.3846 H   0  0  0  0  0  0  0  0  0  0  0  0
  141.6388   71.2520  227.1599 H   0  0  0  0  0  0  0  0  0  0  0  0
  141.7233   72.6710  225.1767 H   0  0  0  0  0  0  0  0  0  0  0  0
  139.5680   73.4730  223.1210 H   0  0  0  0  0  0  0  0  0  0  0  0
  141.9206   73.4388  220.2503 H   0  0  0  0  0  0  0  0  0  0  0  0
  140.0943   73.4969  220.3431 H   0  0  0  0  0  0  0  0  0  0  0  0
  142.0040   75.4470  221.3620 H   0  0  0  0  0  0  0  0  0  0  0  0
  138.0324   77.3377  222.6278 H   0  0  0  0  0  0  0  0  0  0  0  0
  138.2457   79.6602  223.4556 H   0  0  0  0  0  0  0  0  0  0  0  0
  139.6679   81.4944  224.0258 H   0  0  0  0  0  0  0  0  0  0  0  0
  141.9583   82.4495  224.2204 H   0  0  0  0  0  0  0  0  0  0  0  0
  143.9583   81.1232  223.6144 H   0  0  0  0  0  0  0  0  0  0  0  0
  143.6605   78.8014  222.7887 H   0  0  0  0  0  0  0  0  0  0  0  0
  1  2  1  0
  2  3  1  0
  3  4  2  0
  4  5  1  0
  5  6  2  0
  6  7  1  0
  7  8  2  0
  8  9  1  0
  9 10  1  0
 10 11  2  0
 10 12  1  0
 12 13  1  0
 13 14  1  0
 14 15  2  0
 14 16  1  0
 16 17  2  0
 17 18  1  0
 18 19  2  0
 19 20  1  0
 20 21  2  0
 21 22  1  0
 22 23  2  0
 23 24  1  0
 24 25  2  0
  8  3  1  0
 25 16  1  0
 24 19  1  0
  1 26  1  0
  1 27  1  0
  1 28  1  0
  4 29  1  0
  5 30  1  0
  6 31  1  0
  7 32  1  0
  9 33  1  0
 12 34  1  0
 12 35  1  0
 13 36  1  0
 17 37  1  0
 18 38  1  0
 20 39  1  0
 21 40  1  0
 22 41  1  0
 23 42  1  0
M  END
>  <smiles>  (37) 
COc1ccccc1NC(=O)CNC(=O)c1ccc2ccccc2n1

>  <score_type>  (37) 
oracle

>  <origin>  (37) 
autodockgpu

>  <m_score__min__energy>  (37) 
-8.6500000000000004

>  <m_primary>  (37) 
energy

>  <rmsd>  (37) 
8.643050001483312

>  <m_score__min__rmsd>  (37) 
8.643050001483312

>  <meeko>  (37) 
{"free_energy": -7.42, "intermolecular_energy": -8.91, "internal_energy": -2.12, "cluster_size": 32, "cluster_id": 2, "rank_in_cluster": 8}

>  <energy>  (37) 
-7.38

>  <cluster_rmsd>  (37) 
1.53

>  <cluster>  (37) 
2

$$$$

     RDKit          3D

 42 44  0  0  0  0  0  0  0  0999 V2000
  137.2020   71.4540  223.0720 C   0  0  0  0  0  0  0  0  0  0  0  0
  138.1870   70.5040  223.3600 O   0  0  0  0  0  0  0  0  0  0  0  0
  139.1330   70.7280  224.3180 C   0  0  0  0  0  0  0  0  0  0  0  0
  139.0780   69.9090  225.4530 C   0  0  0  0  0  0  0  0  0  0  0  0
  139.9850   70.0600  226.4720 C   0  0  0  0  0  0  0  0  0  0  0  0
  140.9350   71.0410  226.3250 C   0  0  0  0  0  0  0  0  0  0  0  0
  140.9860   71.8420  225.2100 C   0  0  0  0  0  0  0  0  0  0  0  0
  140.0720   71.7090  224.1530 C   0  0  0  0  0  0  0  0  0  0  0  0
  140.2150   72.5910  223.0810 N   0  0  0  0  0  0  0  0  0  0  0  0
  141.0580   72.5430  221.9690 C   0  0  0  0  0  0  0  0  0  0  0  0
  141.8610   71.6190  221.8160 O   0  0  0  0  0  0  0  0  0  0  0  0
  141.0660   73.5890  220.8830 C   0  0  0  0  0  0  0  0  0  0  0  0
  141.1060   74.9390  221.3760 N   0  0  0  0  0  0  0  0  0  0  0  0
  139.9760   75.6180  221.8760 C   0  0  0  0  0  0  0  0  0  0  0  0
  138.8110   75.0940  221.9270 O   0  0  0  0  0  0  0  0  0  0  0  0
  140.1290   76.9880  222.3620 C   0  0  0  0  0  0  0  0  0  0  0  0
  139.0370   77.7500  222.7250 C   0  0  0  0  0  0  0  0  0  0  0  0
  139.1300   79.0400  223.1880 C   0  0  0  0  0  0  0  0  0  0  0  0
  140.4120   79.5720  223.2800 C   0  0  0  0  0  0  0  0  0  0  0  0
  140.5360   80.8770  223.7450 C   0  0  0  0  0  0  0  0  0  0  0  0
  141.8140   81.4110  223.8380 C   0  0  0  0  0  0  0  0  0  0  0  0
  142.9360   80.6910  223.4890 C   0  0  0  0  0  0  0  0  0  0  0  0
  142.7680   79.3970  223.0300 C   0  0  0  0  0  0  0  0  0  0  0  0
  141.5200   78.8180  222.9190 C   0  0  0  0  0  0  0  0  0  0  0  0
  141.3390   77.5540  222.4730 N   0  0  0  0  0  0  0  0  0  0  0  0
  136.7900   71.8514  224.0114 H   0  0  0  0  0  0  0  0  0  0  0  0
  137.6441   72.2754  222.4891 H   0  0  0  0  0  0  0  0  0  0  0  0
  136.3971   70.9825  222.4891 H   0  0  0  0  0  0  0  0  0  0  0  0
  138.2990   69.1360  225.5285 H   0  0  0  0  0  0  0  0  0  0  0  0
  139.9525   69.4227  227.3680 H   0  0  0  0  0  0  0  0  0  0  0  0
  141.6768   71.1897  227.1235 H   0  0  0  0  0  0  0  0  0  0  0  0
  141.7683   72.6124  225.1434 H   0  0  0  0  0  0  0  0  0  0  0  0
  139.5860   73.4630  223.1090 H   0  0  0  0  0  0  0  0  0  0  0  0
  141.9507   73.4248  220.2502 H   0  0  0  0  0  0  0  0  0  0  0  0
  140.1233   73.4796  220.3267 H   0  0  0  0  0  0  0  0  0  0  0  0
  142.0190   75.4340  221.3590 H   0  0  0  0  0  0  0  0  0  0  0  0
  138.0372   77.2996  222.6388 H   0  0  0  0  0  0  0  0  0  0  0  0
  138.2394   79.6205  223.4705 H   0  0  0  0  0  0  0  0  0  0  0  0
  139.6515   81.4659  224.0294 H   0  0  0  0  0  0  0  0  0  0  0  0
  141.9350   82.4420  224.2020 H   0  0  0  0  0  0  0  0  0  0  0  0
  143.9394   81.1339  223.5733 H   0  0  0  0  0  0  0  0  0  0  0  0
  143.6551   78.8122  222.7451 H   0  0  0  0  0  0  0  0  0  0  0  0
  1  2  1  0
  2  3  1  0
  3  4  2  0
  4  5  1  0
  5  6  2  0
  6  7  1  0
  7  8  2  0
  8  9  1  0
  9 10  1  0
 10 11  2  0
 10 12  1  0
 12 13  1  0
 13 14  1  0
 14 15  2  0
 14 16  1  0
 16 17  2  0
 17 18  1  0
 18 19  2  0
 19 20  1  0
 20 21  2  0
 21 22  1  0
 22 23  2  0
 23 24  1  0
 24 25  2  0
  8  3  1  0
 25 16  1  0
 24 19  1  0
  1 26  1  0
  1 27  1  0
  1 28  1  0
  4 29  1  0
  5 30  1  0
  6 31  1  0
  7 32  1  0
  9 33  1  0
 12 34  1  0
 12 35  1  0
 13 36  1  0
 17 37  1  0
 18 38  1  0
 20 39  1  0
 21 40  1  0
 22 41  1  0
 23 42  1  0
M  END
>  <smiles>  (38) 
COc1ccccc1NC(=O)CNC(=O)c1ccc2ccccc2n1

>  <score_type>  (38) 
oracle

>  <origin>  (38) 
autodockgpu

>  <m_score__min__energy>  (38) 
-8.6500000000000004

>  <m_primary>  (38) 
energy

>  <rmsd>  (38) 
8.638479337512473

>  <m_score__min__rmsd>  (38) 
8.638479337512473

>  <meeko>  (38) 
{"free_energy": -7.4, "intermolecular_energy": -8.89, "internal_energy": -2.12, "cluster_size": 32, "cluster_id": 2, "rank_in_cluster": 11}

>  <energy>  (38) 
-7.38

>  <cluster_rmsd>  (38) 
1.5

>  <cluster>  (38) 
2

$$$$

     RDKit          3D

 42 44  0  0  0  0  0  0  0  0999 V2000
  142.1610   78.8650  219.0230 C   0  0  0  0  0  0  0  0  0  0  0  0
  141.2010   79.3210  219.9320 O   0  0  0  0  0  0  0  0  0  0  0  0
  141.4740   79.4230  221.2650 C   0  0  0  0  0  0  0  0  0  0  0  0
  141.7000   80.7140  221.7600 C   0  0  0  0  0  0  0  0  0  0  0  0
  141.9850   80.9160  223.0870 C   0  0  0  0  0  0  0  0  0  0  0  0
  142.0370   79.8060  223.8930 C   0  0  0  0  0  0  0  0  0  0  0  0
  141.8140   78.5410  223.4050 C   0  0  0  0  0  0  0  0  0  0  0  0
  141.5200   78.3050  222.0530 C   0  0  0  0  0  0  0  0  0  0  0  0
  141.3290   76.9760  221.6720 N   0  0  0  0  0  0  0  0  0  0  0  0
  140.2150   76.1440  221.7980 C   0  0  0  0  0  0  0  0  0  0  0  0
  139.1760   76.5440  222.3320 O   0  0  0  0  0  0  0  0  0  0  0  0
  140.1780   74.7190  221.3070 C   0  0  0  0  0  0  0  0  0  0  0  0
  139.9390   73.7540  222.3450 N   0  0  0  0  0  0  0  0  0  0  0  0
  140.6060   72.5140  222.4230 C   0  0  0  0  0  0  0  0  0  0  0  0
  141.4800   72.1360  221.5700 O   0  0  0  0  0  0  0  0  0  0  0  0
  140.2940   71.6090  223.5270 C   0  0  0  0  0  0  0  0  0  0  0  0
  139.5730   70.4490  223.3270 C   0  0  0  0  0  0  0  0  0  0  0  0
  139.2560   69.5670  224.3310 C   0  0  0  0  0  0  0  0  0  0  0  0
  139.7040   69.8970  225.6060 C   0  0  0  0  0  0  0  0  0  0  0  0
  139.3960   69.0210  226.6430 C   0  0  0  0  0  0  0  0  0  0  0  0
  139.8420   69.3470  227.9160 C   0  0  0  0  0  0  0  0  0  0  0  0
  140.5660   70.4930  228.1690 C   0  0  0  0  0  0  0  0  0  0  0  0
  140.8490   71.3360  227.1090 C   0  0  0  0  0  0  0  0  0  0  0  0
  140.4310   71.0590  225.8240 C   0  0  0  0  0  0  0  0  0  0  0  0
  140.7000   71.8720  224.7780 N   0  0  0  0  0  0  0  0  0  0  0  0
  143.0216   78.4562  219.5728 H   0  0  0  0  0  0  0  0  0  0  0  0
  141.7229   78.0788  218.3906 H   0  0  0  0  0  0  0  0  0  0  0  0
  142.4936   79.7013  218.3906 H   0  0  0  0  0  0  0  0  0  0  0  0
  141.6484   81.5751  221.0775 H   0  0  0  0  0  0  0  0  0  0  0  0
  142.1642   81.9246  223.4879 H   0  0  0  0  0  0  0  0  0  0  0  0
  142.2641   79.9331  224.9618 H   0  0  0  0  0  0  0  0  0  0  0  0
  141.8676   77.6865  224.0956 H   0  0  0  0  0  0  0  0  0  0  0  0
  142.1760   76.4960  221.2160 H   0  0  0  0  0  0  0  0  0  0  0  0
  139.3758   74.6304  220.5596 H   0  0  0  0  0  0  0  0  0  0  0  0
  141.1706   74.4988  220.8872 H   0  0  0  0  0  0  0  0  0  0  0  0
  139.2340   73.9880  223.0720 H   0  0  0  0  0  0  0  0  0  0  0  0
  139.2334   70.2181  222.3065 H   0  0  0  0  0  0  0  0  0  0  0  0
  138.6797   68.6503  224.1376 H   0  0  0  0  0  0  0  0  0  0  0  0
  138.8192   68.1024  226.4598 H   0  0  0  0  0  0  0  0  0  0  0  0
  139.6104   68.6690  228.7507 H   0  0  0  0  0  0  0  0  0  0  0  0
  140.9094   70.7307  229.1866 H   0  0  0  0  0  0  0  0  0  0  0  0
  141.4245   72.2545  227.2966 H   0  0  0  0  0  0  0  0  0  0  0  0
  1  2  1  0
  2  3  1  0
  3  4  2  0
  4  5  1  0
  5  6  2  0
  6  7  1  0
  7  8  2  0
  8  9  1  0
  9 10  1  0
 10 11  2  0
 10 12  1  0
 12 13  1  0
 13 14  1  0
 14 15  2  0
 14 16  1  0
 16 17  2  0
 17 18  1  0
 18 19  2  0
 19 20  1  0
 20 21  2  0
 21 22  1  0
 22 23  2  0
 23 24  1  0
 24 25  2  0
  8  3  1  0
 25 16  1  0
 24 19  1  0
  1 26  1  0
  1 27  1  0
  1 28  1  0
  4 29  1  0
  5 30  1  0
  6 31  1  0
  7 32  1  0
  9 33  1  0
 12 34  1  0
 12 35  1  0
 13 36  1  0
 17 37  1  0
 18 38  1  0
 20 39  1  0
 21 40  1  0
 22 41  1  0
 23 42  1  0
M  END
>  <smiles>  (39) 
COc1ccccc1NC(=O)CNC(=O)c1ccc2ccccc2n1

>  <score_type>  (39) 
oracle

>  <origin>  (39) 
autodockgpu

>  <m_score__min__energy>  (39) 
-8.6500000000000004

>  <m_primary>  (39) 
energy

>  <rmsd>  (39) 
3.4024744421717736

>  <m_score__min__rmsd>  (39) 
3.4024744421717736

>  <meeko>  (39) 
{"free_energy": -8.63, "intermolecular_energy": -10.12, "internal_energy": -1.17, "cluster_size": 16, "cluster_id": 1, "rank_in_cluster": 2}

>  <energy>  (39) 
-7.38

>  <cluster_rmsd>  (39) 
1.51

>  <cluster>  (39) 
2

$$$$

     RDKit          3D

 42 44  0  0  0  0  0  0  0  0999 V2000
  138.6610   69.8260  222.0950 C   0  0  0  0  0  0  0  0  0  0  0  0
  138.2640   70.4080  223.3040 O   0  0  0  0  0  0  0  0  0  0  0  0
  139.1640   70.6790  224.2930 C   0  0  0  0  0  0  0  0  0  0  0  0
  139.1060   69.8620  225.4300 C   0  0  0  0  0  0  0  0  0  0  0  0
  139.9680   70.0590  226.4800 C   0  0  0  0  0  0  0  0  0  0  0  0
  140.8770   71.0810  226.3610 C   0  0  0  0  0  0  0  0  0  0  0  0
  140.9310   71.8800  225.2450 C   0  0  0  0  0  0  0  0  0  0  0  0
  140.0630   71.7020  224.1570 C   0  0  0  0  0  0  0  0  0  0  0  0
  140.2030   72.5850  223.0860 N   0  0  0  0  0  0  0  0  0  0  0  0
  141.0600   72.5510  221.9840 C   0  0  0  0  0  0  0  0  0  0  0  0
  141.8800   71.6400  221.8410 O   0  0  0  0  0  0  0  0  0  0  0  0
  141.0630   73.5960  220.8970 C   0  0  0  0  0  0  0  0  0  0  0  0
  141.1130   74.9460  221.3890 N   0  0  0  0  0  0  0  0  0  0  0  0
  139.9890   75.6330  221.8910 C   0  0  0  0  0  0  0  0  0  0  0  0
  138.8220   75.1170  221.9460 O   0  0  0  0  0  0  0  0  0  0  0  0
  140.1530   77.0020  222.3760 C   0  0  0  0  0  0  0  0  0  0  0  0
  139.0680   77.7730  222.7390 C   0  0  0  0  0  0  0  0  0  0  0  0
  139.1710   79.0640  223.2010 C   0  0  0  0  0  0  0  0  0  0  0  0
  140.4570   79.5850  223.2920 C   0  0  0  0  0  0  0  0  0  0  0  0
  140.5910   80.8900  223.7560 C   0  0  0  0  0  0  0  0  0  0  0  0
  141.8730   81.4130  223.8480 C   0  0  0  0  0  0  0  0  0  0  0  0
  142.9900   80.6850  223.4990 C   0  0  0  0  0  0  0  0  0  0  0  0
  142.8110   79.3910  223.0420 C   0  0  0  0  0  0  0  0  0  0  0  0
  141.5590   78.8220  222.9310 C   0  0  0  0  0  0  0  0  0  0  0  0
  141.3680   77.5600  222.4870 N   0  0  0  0  0  0  0  0  0  0  0  0
  139.2700   68.9332  222.3003 H   0  0  0  0  0  0  0  0  0  0  0  0
  137.7706   69.5375  221.5171 H   0  0  0  0  0  0  0  0  0  0  0  0
  139.2545   70.5497  221.5171 H   0  0  0  0  0  0  0  0  0  0  0  0
  138.3615   69.0539  225.4817 H   0  0  0  0  0  0  0  0  0  0  0  0
  139.9320   69.4251  227.3783 H   0  0  0  0  0  0  0  0  0  0  0  0
  141.5832   71.2655  227.1840 H   0  0  0  0  0  0  0  0  0  0  0  0
  141.6789   72.6855  225.2029 H   0  0  0  0  0  0  0  0  0  0  0  0
  139.5590   73.4470  223.1060 H   0  0  0  0  0  0  0  0  0  0  0  0
  141.9415   73.4276  220.2567 H   0  0  0  0  0  0  0  0  0  0  0  0
  140.1153   73.4901  220.3487 H   0  0  0  0  0  0  0  0  0  0  0  0
  142.0300   75.4350  221.3700 H   0  0  0  0  0  0  0  0  0  0  0  0
  138.0646   77.3303  222.6541 H   0  0  0  0  0  0  0  0  0  0  0  0
  138.2852   79.6520  223.4830 H   0  0  0  0  0  0  0  0  0  0  0  0
  139.7113   81.4863  224.0400 H   0  0  0  0  0  0  0  0  0  0  0  0
  142.0021   82.4431  224.2117 H   0  0  0  0  0  0  0  0  0  0  0  0
  143.9967   81.1207  223.5814 H   0  0  0  0  0  0  0  0  0  0  0  0
  143.6934   78.7984  222.7588 H   0  0  0  0  0  0  0  0  0  0  0  0
  1  2  1  0
  2  3  1  0
  3  4  2  0
  4  5  1  0
  5  6  2  0
  6  7  1  0
  7  8  2  0
  8  9  1  0
  9 10  1  0
 10 11  2  0
 10 12  1  0
 12 13  1  0
 13 14  1  0
 14 15  2  0
 14 16  1  0
 16 17  2  0
 17 18  1  0
 18 19  2  0
 19 20  1  0
 20 21  2  0
 21 22  1  0
 22 23  2  0
 23 24  1  0
 24 25  2  0
  8  3  1  0
 25 16  1  0
 24 19  1  0
  1 26  1  0
  1 27  1  0
  1 28  1  0
  4 29  1  0
  5 30  1  0
  6 31  1  0
  7 32  1  0
  9 33  1  0
 12 34  1  0
 12 35  1  0
 13 36  1  0
 17 37  1  0
 18 38  1  0
 20 39  1  0
 21 40  1  0
 22 41  1  0
 23 42  1  0
M  END
>  <smiles>  (40) 
COc1ccccc1NC(=O)CNC(=O)c1ccc2ccccc2n1

>  <score_type>  (40) 
oracle

>  <origin>  (40) 
autodockgpu

>  <m_score__min__energy>  (40) 
-8.6500000000000004

>  <m_primary>  (40) 
energy

>  <rmsd>  (40) 
8.64706549631805

>  <m_score__min__rmsd>  (40) 
8.64706549631805

>  <meeko>  (40) 
{"free_energy": -7.39, "intermolecular_energy": -8.88, "internal_energy": -2.12, "cluster_size": 32, "cluster_id": 2, "rank_in_cluster": 17}

>  <energy>  (40) 
-7.38

>  <cluster_rmsd>  (40) 
1.5

>  <cluster>  (40) 
2

$$$$

     RDKit          3D

 42 44  0  0  0  0  0  0  0  0999 V2000
  137.7410   68.9640  224.5450 C   0  0  0  0  0  0  0  0  0  0  0  0
  139.0260   68.6140  224.9750 O   0  0  0  0  0  0  0  0  0  0  0  0
  139.7030   69.3740  225.8850 C   0  0  0  0  0  0  0  0  0  0  0  0
  140.2160   68.7010  227.0010 C   0  0  0  0  0  0  0  0  0  0  0  0
  140.9090   69.3800  227.9720 C   0  0  0  0  0  0  0  0  0  0  0  0
  141.0730   70.7320  227.7960 C   0  0  0  0  0  0  0  0  0  0  0  0
  140.5690   71.3880  226.6990 C   0  0  0  0  0  0  0  0  0  0  0  0
  139.8570   70.7200  225.6910 C   0  0  0  0  0  0  0  0  0  0  0  0
  139.3810   71.4960  224.6340 N   0  0  0  0  0  0  0  0  0  0  0  0
  139.9550   71.8020  223.3980 C   0  0  0  0  0  0  0  0  0  0  0  0
  141.0740   71.3790  223.0920 O   0  0  0  0  0  0  0  0  0  0  0  0
  139.2820   72.6540  222.3530 C   0  0  0  0  0  0  0  0  0  0  0  0
  139.7460   74.0140  222.3260 N   0  0  0  0  0  0  0  0  0  0  0  0
  140.6200   74.5180  221.3420 C   0  0  0  0  0  0  0  0  0  0  0  0
  141.0850   73.8050  220.3890 O   0  0  0  0  0  0  0  0  0  0  0  0
  141.0230   75.9220  221.4020 C   0  0  0  0  0  0  0  0  0  0  0  0
  141.5580   76.5660  220.3060 C   0  0  0  0  0  0  0  0  0  0  0  0
  141.9510   77.8830  220.3130 C   0  0  0  0  0  0  0  0  0  0  0  0
  141.7840   78.5700  221.5110 C   0  0  0  0  0  0  0  0  0  0  0  0
  142.1740   79.9050  221.5470 C   0  0  0  0  0  0  0  0  0  0  0  0
  142.0090   80.5930  222.7410 C   0  0  0  0  0  0  0  0  0  0  0  0
  141.4790   79.9960  223.8650 C   0  0  0  0  0  0  0  0  0  0  0  0
  141.1050   78.6660  223.7850 C   0  0  0  0  0  0  0  0  0  0  0  0
  141.2470   77.9360  222.6230 C   0  0  0  0  0  0  0  0  0  0  0  0
  140.8860   76.6370  222.5290 N   0  0  0  0  0  0  0  0  0  0  0  0
  137.0969   69.1394  225.4193 H   0  0  0  0  0  0  0  0  0  0  0  0
  137.7941   69.8804  223.9389 H   0  0  0  0  0  0  0  0  0  0  0  0
  137.3220   68.1472  223.9389 H   0  0  0  0  0  0  0  0  0  0  0  0
  140.0619   67.6164  227.1005 H   0  0  0  0  0  0  0  0  0  0  0  0
  141.3157   68.8631  228.8537 H   0  0  0  0  0  0  0  0  0  0  0  0
  141.6239   71.3065  228.5553 H   0  0  0  0  0  0  0  0  0  0  0  0
  140.7289   72.4725  226.6079 H   0  0  0  0  0  0  0  0  0  0  0  0
  138.4190   71.9500  224.7870 H   0  0  0  0  0  0  0  0  0  0  0  0
  139.4683   72.2044  221.3665 H   0  0  0  0  0  0  0  0  0  0  0  0
  138.2120   72.6857  222.6062 H   0  0  0  0  0  0  0  0  0  0  0  0
  139.4150   74.6540  223.0760 H   0  0  0  0  0  0  0  0  0  0  0  0
  141.6768   75.9936  219.3742 H   0  0  0  0  0  0  0  0  0  0  0  0
  142.3743   78.3671  219.4205 H   0  0  0  0  0  0  0  0  0  0  0  0
  142.5984   80.3981  220.6600 H   0  0  0  0  0  0  0  0  0  0  0  0
  142.3111   81.6495  222.7922 H   0  0  0  0  0  0  0  0  0  0  0  0
  141.3567   80.5617  224.8004 H   0  0  0  0  0  0  0  0  0  0  0  0
  140.6819   78.1763  224.6745 H   0  0  0  0  0  0  0  0  0  0  0  0
  1  2  1  0
  2  3  1  0
  3  4  2  0
  4  5  1  0
  5  6  2  0
  6  7  1  0
  7  8  2  0
  8  9  1  0
  9 10  1  0
 10 11  2  0
 10 12  1  0
 12 13  1  0
 13 14  1  0
 14 15  2  0
 14 16  1  0
 16 17  2  0
 17 18  1  0
 18 19  2  0
 19 20  1  0
 20 21  2  0
 21 22  1  0
 22 23  2  0
 23 24  1  0
 24 25  2  0
  8  3  1  0
 25 16  1  0
 24 19  1  0
  1 26  1  0
  1 27  1  0
  1 28  1  0
  4 29  1  0
  5 30  1  0
  6 31  1  0
  7 32  1  0
  9 33  1  0
 12 34  1  0
 12 35  1  0
 13 36  1  0
 17 37  1  0
 18 38  1  0
 20 39  1  0
 21 40  1  0
 22 41  1  0
 23 42  1  0
M  END
>  <smiles>  (41) 
COc1ccccc1NC(=O)CNC(=O)c1ccc2ccccc2n1

>  <score_type>  (41) 
oracle

>  <origin>  (41) 
autodockgpu

>  <m_score__min__energy>  (41) 
-8.6500000000000004

>  <m_primary>  (41) 
energy

>  <rmsd>  (41) 
8.757334059097545

>  <m_score__min__rmsd>  (41) 
8.757334059097545

>  <meeko>  (41) 
{"free_energy": -8.05, "intermolecular_energy": -9.54, "internal_energy": -1.24, "cluster_size": 32, "cluster_id": 2, "rank_in_cluster": 5}

>  <energy>  (41) 
-7.38

>  <cluster_rmsd>  (41) 
1.52

>  <cluster>  (41) 
2

$$$$

     RDKit          3D

 42 44  0  0  0  0  0  0  0  0999 V2000
  142.1730   79.2170  218.9540 C   0  0  0  0  0  0  0  0  0  0  0  0
  141.1850   79.5250  219.8950 O   0  0  0  0  0  0  0  0  0  0  0  0
  141.4700   79.6040  221.2270 C   0  0  0  0  0  0  0  0  0  0  0  0
  141.6800   80.8890  221.7450 C   0  0  0  0  0  0  0  0  0  0  0  0
  141.9760   81.0690  223.0740 C   0  0  0  0  0  0  0  0  0  0  0  0
  142.0540   79.9440  223.8570 C   0  0  0  0  0  0  0  0  0  0  0  0
  141.8460   78.6860  223.3450 C   0  0  0  0  0  0  0  0  0  0  0  0
  141.5420   78.4720  221.9920 C   0  0  0  0  0  0  0  0  0  0  0  0
  141.3690   77.1480  221.5860 N   0  0  0  0  0  0  0  0  0  0  0  0
  140.3820   76.2170  221.9150 C   0  0  0  0  0  0  0  0  0  0  0  0
  139.4700   76.5020  222.6970 O   0  0  0  0  0  0  0  0  0  0  0  0
  140.3390   74.8150  221.3610 C   0  0  0  0  0  0  0  0  0  0  0  0
  140.0420   73.8110  222.3460 N   0  0  0  0  0  0  0  0  0  0  0  0
  140.6490   72.5390  222.3660 C   0  0  0  0  0  0  0  0  0  0  0  0
  141.5140   72.1630  221.5040 O   0  0  0  0  0  0  0  0  0  0  0  0
  140.2810   71.5940  223.4190 C   0  0  0  0  0  0  0  0  0  0  0  0
  139.5230   70.4730  223.1490 C   0  0  0  0  0  0  0  0  0  0  0  0
  139.1530   69.5570  224.1040 C   0  0  0  0  0  0  0  0  0  0  0  0
  139.5850   69.8080  225.4010 C   0  0  0  0  0  0  0  0  0  0  0  0
  139.2240   68.8970  226.3890 C   0  0  0  0  0  0  0  0  0  0  0  0
  139.6540   69.1460  227.6850 C   0  0  0  0  0  0  0  0  0  0  0  0
  140.4140   70.2500  228.0070 C   0  0  0  0  0  0  0  0  0  0  0  0
  140.7500   71.1310  226.9940 C   0  0  0  0  0  0  0  0  0  0  0  0
  140.3490   70.9310  225.6890 C   0  0  0  0  0  0  0  0  0  0  0  0
  140.6700   71.7830  224.6890 N   0  0  0  0  0  0  0  0  0  0  0  0
  143.0981   78.9286  219.4746 H   0  0  0  0  0  0  0  0  0  0  0  0
  141.8317   78.3826  218.3237 H   0  0  0  0  0  0  0  0  0  0  0  0
  142.3663   80.0975  218.3237 H   0  0  0  0  0  0  0  0  0  0  0  0
  141.6070   81.7625  221.0804 H   0  0  0  0  0  0  0  0  0  0  0  0
  142.1435   82.0721  223.4933 H   0  0  0  0  0  0  0  0  0  0  0  0
  142.2900   80.0529  224.9258 H   0  0  0  0  0  0  0  0  0  0  0  0
  141.9202   77.8187  224.0175 H   0  0  0  0  0  0  0  0  0  0  0  0
  142.1200   76.7630  220.9190 H   0  0  0  0  0  0  0  0  0  0  0  0
  139.5654   74.7742  220.5800 H   0  0  0  0  0  0  0  0  0  0  0  0
  141.3433   74.5937  220.9706 H   0  0  0  0  0  0  0  0  0  0  0  0
  139.3410   74.0420  223.0770 H   0  0  0  0  0  0  0  0  0  0  0  0
  139.1970   70.3034  222.1122 H   0  0  0  0  0  0  0  0  0  0  0  0
  138.5476   68.6728  223.8555 H   0  0  0  0  0  0  0  0  0  0  0  0
  138.6186   68.0099  226.1511 H   0  0  0  0  0  0  0  0  0  0  0  0
  139.3792   68.4389  228.4815 H   0  0  0  0  0  0  0  0  0  0  0  0
  140.7445   70.4260  229.0413 H   0  0  0  0  0  0  0  0  0  0  0  0
  141.3548   72.0172  227.2365 H   0  0  0  0  0  0  0  0  0  0  0  0
  1  2  1  0
  2  3  1  0
  3  4  2  0
  4  5  1  0
  5  6  2  0
  6  7  1  0
  7  8  2  0
  8  9  1  0
  9 10  1  0
 10 11  2  0
 10 12  1  0
 12 13  1  0
 13 14  1  0
 14 15  2  0
 14 16  1  0
 16 17  2  0
 17 18  1  0
 18 19  2  0
 19 20  1  0
 20 21  2  0
 21 22  1  0
 22 23  2  0
 23 24  1  0
 24 25  2  0
  8  3  1  0
 25 16  1  0
 24 19  1  0
  1 26  1  0
  1 27  1  0
  1 28  1  0
  4 29  1  0
  5 30  1  0
  6 31  1  0
  7 32  1  0
  9 33  1  0
 12 34  1  0
 12 35  1  0
 13 36  1  0
 17 37  1  0
 18 38  1  0
 20 39  1  0
 21 40  1  0
 22 41  1  0
 23 42  1  0
M  END
>  <smiles>  (42) 
COc1ccccc1NC(=O)CNC(=O)c1ccc2ccccc2n1

>  <score_type>  (42) 
oracle

>  <origin>  (42) 
autodockgpu

>  <m_score__min__energy>  (42) 
-8.6500000000000004

>  <m_primary>  (42) 
energy

>  <rmsd>  (42) 
3.450416612384763

>  <m_score__min__rmsd>  (42) 
3.450416612384763

>  <meeko>  (42) 
{"free_energy": -8.35, "intermolecular_energy": -9.84, "internal_energy": -1.3, "cluster_size": 16, "cluster_id": 1, "rank_in_cluster": 11}

>  <energy>  (42) 
-7.37

>  <cluster_rmsd>  (42) 
1.5

>  <cluster>  (42) 
2

$$$$

     RDKit          3D

 42 44  0  0  0  0  0  0  0  0999 V2000
  142.1590   78.9930  219.0300 C   0  0  0  0  0  0  0  0  0  0  0  0
  141.2010   79.4340  219.9490 O   0  0  0  0  0  0  0  0  0  0  0  0
  141.4800   79.5200  221.2820 C   0  0  0  0  0  0  0  0  0  0  0  0
  141.7070   80.8050  221.7910 C   0  0  0  0  0  0  0  0  0  0  0  0
  141.9990   80.9920  223.1200 C   0  0  0  0  0  0  0  0  0  0  0  0
  142.0550   79.8720  223.9120 C   0  0  0  0  0  0  0  0  0  0  0  0
  141.8320   78.6130  223.4090 C   0  0  0  0  0  0  0  0  0  0  0  0
  141.5320   78.3920  222.0560 C   0  0  0  0  0  0  0  0  0  0  0  0
  141.3400   77.0680  221.6600 N   0  0  0  0  0  0  0  0  0  0  0  0
  140.2540   76.2100  221.8450 C   0  0  0  0  0  0  0  0  0  0  0  0
  139.2490   76.5760  222.4600 O   0  0  0  0  0  0  0  0  0  0  0  0
  140.2110   74.7950  221.3260 C   0  0  0  0  0  0  0  0  0  0  0  0
  139.9610   73.8110  222.3440 N   0  0  0  0  0  0  0  0  0  0  0  0
  140.6360   72.5760  222.4140 C   0  0  0  0  0  0  0  0  0  0  0  0
  141.5290   72.2190  221.5720 O   0  0  0  0  0  0  0  0  0  0  0  0
  140.3110   71.6500  223.4970 C   0  0  0  0  0  0  0  0  0  0  0  0
  139.5740   70.5060  223.2700 C   0  0  0  0  0  0  0  0  0  0  0  0
  139.2430   69.6060  224.2550 C   0  0  0  0  0  0  0  0  0  0  0  0
  139.6950   69.9000  225.5370 C   0  0  0  0  0  0  0  0  0  0  0  0
  139.3740   69.0060  226.5530 C   0  0  0  0  0  0  0  0  0  0  0  0
  139.8240   69.2970  227.8340 C   0  0  0  0  0  0  0  0  0  0  0  0
  140.5640   70.4250  228.1130 C   0  0  0  0  0  0  0  0  0  0  0  0
  140.8590   71.2880  227.0730 C   0  0  0  0  0  0  0  0  0  0  0  0
  140.4380   71.0470  225.7810 C   0  0  0  0  0  0  0  0  0  0  0  0
  140.7190   71.8800  224.7540 N   0  0  0  0  0  0  0  0  0  0  0  0
  143.0290   78.5925  219.5710 H   0  0  0  0  0  0  0  0  0  0  0  0
  141.7251   78.2040  218.3982 H   0  0  0  0  0  0  0  0  0  0  0  0
  142.4762   79.8357  218.3982 H   0  0  0  0  0  0  0  0  0  0  0  0
  141.6508   81.6740  221.1189 H   0  0  0  0  0  0  0  0  0  0  0  0
  142.1801   81.9957  223.5320 H   0  0  0  0  0  0  0  0  0  0  0  0
  142.2853   79.9860  224.9816 H   0  0  0  0  0  0  0  0  0  0  0  0
  141.8905   77.7503  224.0889 H   0  0  0  0  0  0  0  0  0  0  0  0
  142.1630   76.6160  221.1340 H   0  0  0  0  0  0  0  0  0  0  0  0
  139.4120   74.7259  220.5731 H   0  0  0  0  0  0  0  0  0  0  0  0
  141.2044   74.5771  220.9068 H   0  0  0  0  0  0  0  0  0  0  0  0
  139.2400   74.0290  223.0610 H   0  0  0  0  0  0  0  0  0  0  0  0
  139.2324   70.3028  222.2443 H   0  0  0  0  0  0  0  0  0  0  0  0
  138.6529   68.7027  224.0409 H   0  0  0  0  0  0  0  0  0  0  0  0
  138.7843   68.1001  226.3489 H   0  0  0  0  0  0  0  0  0  0  0  0
  139.5816   68.6039  228.6531 H   0  0  0  0  0  0  0  0  0  0  0  0
  140.9111   70.6339  229.1357 H   0  0  0  0  0  0  0  0  0  0  0  0
  141.4470   72.1938  227.2821 H   0  0  0  0  0  0  0  0  0  0  0  0
  1  2  1  0
  2  3  1  0
  3  4  2  0
  4  5  1  0
  5  6  2  0
  6  7  1  0
  7  8  2  0
  8  9  1  0
  9 10  1  0
 10 11  2  0
 10 12  1  0
 12 13  1  0
 13 14  1  0
 14 15  2  0
 14 16  1  0
 16 17  2  0
 17 18  1  0
 18 19  2  0
 19 20  1  0
 20 21  2  0
 21 22  1  0
 22 23  2  0
 23 24  1  0
 24 25  2  0
  8  3  1  0
 25 16  1  0
 24 19  1  0
  1 26  1  0
  1 27  1  0
  1 28  1  0
  4 29  1  0
  5 30  1  0
  6 31  1  0
  7 32  1  0
  9 33  1  0
 12 34  1  0
 12 35  1  0
 13 36  1  0
 17 37  1  0
 18 38  1  0
 20 39  1  0
 21 40  1  0
 22 41  1  0
 23 42  1  0
M  END
>  <smiles>  (43) 
COc1ccccc1NC(=O)CNC(=O)c1ccc2ccccc2n1

>  <score_type>  (43) 
oracle

>  <origin>  (43) 
autodockgpu

>  <m_score__min__energy>  (43) 
-8.6500000000000004

>  <m_primary>  (43) 
energy

>  <rmsd>  (43) 
3.4409372294091485

>  <m_score__min__rmsd>  (43) 
3.4409372294091485

>  <meeko>  (43) 
{"free_energy": -8.56, "intermolecular_energy": -10.05, "internal_energy": -1.19, "cluster_size": 16, "cluster_id": 1, "rank_in_cluster": 7}

>  <energy>  (43) 
-7.37

>  <cluster_rmsd>  (43) 
1.5

>  <cluster>  (43) 
2

$$$$

     RDKit          3D

 42 44  0  0  0  0  0  0  0  0999 V2000
  141.9120   79.7160  218.9720 C   0  0  0  0  0  0  0  0  0  0  0  0
  141.5760   78.7080  219.8820 O   0  0  0  0  0  0  0  0  0  0  0  0
  141.5950   78.9280  221.2290 C   0  0  0  0  0  0  0  0  0  0  0  0
  141.8100   80.2490  221.6420 C   0  0  0  0  0  0  0  0  0  0  0  0
  141.8490   80.5690  222.9760 C   0  0  0  0  0  0  0  0  0  0  0  0
  141.6700   79.5440  223.8720 C   0  0  0  0  0  0  0  0  0  0  0  0
  141.4590   78.2500  223.4630 C   0  0  0  0  0  0  0  0  0  0  0  0
  141.4130   77.8940  222.1060 C   0  0  0  0  0  0  0  0  0  0  0  0
  141.2080   76.5450  221.8140 N   0  0  0  0  0  0  0  0  0  0  0  0
  140.0430   75.8530  221.4770 C   0  0  0  0  0  0  0  0  0  0  0  0
  138.9540   76.4300  221.4110 O   0  0  0  0  0  0  0  0  0  0  0  0
  140.0080   74.3770  221.1710 C   0  0  0  0  0  0  0  0  0  0  0  0
  139.8980   73.5450  222.3380 N   0  0  0  0  0  0  0  0  0  0  0  0
  140.3580   72.2140  222.3910 C   0  0  0  0  0  0  0  0  0  0  0  0
  140.9080   71.6250  221.3990 O   0  0  0  0  0  0  0  0  0  0  0  0
  140.2040   71.4580  223.6330 C   0  0  0  0  0  0  0  0  0  0  0  0
  139.5530   70.2420  223.6610 C   0  0  0  0  0  0  0  0  0  0  0  0
  139.3840   69.4950  224.8020 C   0  0  0  0  0  0  0  0  0  0  0  0
  139.9130   70.0290  225.9720 C   0  0  0  0  0  0  0  0  0  0  0  0
  139.7560   69.2940  227.1430 C   0  0  0  0  0  0  0  0  0  0  0  0
  140.2820   69.8240  228.3130 C   0  0  0  0  0  0  0  0  0  0  0  0
  140.9420   71.0340  228.3390 C   0  0  0  0  0  0  0  0  0  0  0  0
  141.0740   71.7330  227.1520 C   0  0  0  0  0  0  0  0  0  0  0  0
  140.5710   71.2510  225.9610 C   0  0  0  0  0  0  0  0  0  0  0  0
  140.6930   71.9210  224.7930 N   0  0  0  0  0  0  0  0  0  0  0  0
  142.2134   80.6202  219.5212 H   0  0  0  0  0  0  0  0  0  0  0  0
  142.7455   79.3762  218.3396 H   0  0  0  0  0  0  0  0  0  0  0  0
  141.0413   79.9442  218.3396 H   0  0  0  0  0  0  0  0  0  0  0  0
  141.9491   81.0386  220.8889 H   0  0  0  0  0  0  0  0  0  0  0  0
  142.0165   81.6026  223.3131 H   0  0  0  0  0  0  0  0  0  0  0  0
  141.6964   79.7658  224.9491 H   0  0  0  0  0  0  0  0  0  0  0  0
  141.3216   77.4672  224.2235 H   0  0  0  0  0  0  0  0  0  0  0  0
  142.0820   75.9200  221.8650 H   0  0  0  0  0  0  0  0  0  0  0  0
  139.1435   74.1781  220.5205 H   0  0  0  0  0  0  0  0  0  0  0  0
  140.9644   74.1271  220.6884 H   0  0  0  0  0  0  0  0  0  0  0  0
  139.4530   73.9540  223.1840 H   0  0  0  0  0  0  0  0  0  0  0  0
  139.1466   69.8485  222.7176 H   0  0  0  0  0  0  0  0  0  0  0  0
  138.8594   68.5282  224.7905 H   0  0  0  0  0  0  0  0  0  0  0  0
  139.2330   68.3263  227.1415 H   0  0  0  0  0  0  0  0  0  0  0  0
  140.1685   69.2599  229.2505 H   0  0  0  0  0  0  0  0  0  0  0  0
  141.3527   71.4332  229.2781 H   0  0  0  0  0  0  0  0  0  0  0  0
  141.5954   72.7016  227.1581 H   0  0  0  0  0  0  0  0  0  0  0  0
  1  2  1  0
  2  3  1  0
  3  4  2  0
  4  5  1  0
  5  6  2  0
  6  7  1  0
  7  8  2  0
  8  9  1  0
  9 10  1  0
 10 11  2  0
 10 12  1  0
 12 13  1  0
 13 14  1  0
 14 15  2  0
 14 16  1  0
 16 17  2  0
 17 18  1  0
 18 19  2  0
 19 20  1  0
 20 21  2  0
 21 22  1  0
 22 23  2  0
 23 24  1  0
 24 25  2  0
  8  3  1  0
 25 16  1  0
 24 19  1  0
  1 26  1  0
  1 27  1  0
  1 28  1  0
  4 29  1  0
  5 30  1  0
  6 31  1  0
  7 32  1  0
  9 33  1  0
 12 34  1  0
 12 35  1  0
 13 36  1  0
 17 37  1  0
 18 38  1  0
 20 39  1  0
 21 40  1  0
 22 41  1  0
 23 42  1  0
M  END
>  <smiles>  (44) 
COc1ccccc1NC(=O)CNC(=O)c1ccc2ccccc2n1

>  <score_type>  (44) 
oracle

>  <origin>  (44) 
autodockgpu

>  <m_score__min__energy>  (44) 
-8.6500000000000004

>  <m_primary>  (44) 
energy

>  <rmsd>  (44) 
3.2544488751686083

>  <m_score__min__rmsd>  (44) 
3.2544488751686083

>  <meeko>  (44) 
{"free_energy": -8.58, "intermolecular_energy": -10.07, "internal_energy": -1.06, "cluster_size": 16, "cluster_id": 1, "rank_in_cluster": 6}

>  <energy>  (44) 
-7.37

>  <cluster_rmsd>  (44) 
1.41

>  <cluster>  (44) 
2

$$$$

     RDKit          3D

 42 44  0  0  0  0  0  0  0  0999 V2000
  137.1630   70.7760  223.0550 C   0  0  0  0  0  0  0  0  0  0  0  0
  138.2760   70.0000  223.3960 O   0  0  0  0  0  0  0  0  0  0  0  0
  139.1390   70.3860  224.3800 C   0  0  0  0  0  0  0  0  0  0  0  0
  139.1740   69.5860  225.5290 C   0  0  0  0  0  0  0  0  0  0  0  0
  140.0080   69.8950  226.5750 C   0  0  0  0  0  0  0  0  0  0  0  0
  140.7940   71.0120  226.4390 C   0  0  0  0  0  0  0  0  0  0  0  0
  140.7580   71.7950  225.3100 C   0  0  0  0  0  0  0  0  0  0  0  0
  139.9160   71.5020  224.2260 C   0  0  0  0  0  0  0  0  0  0  0  0
  139.9550   72.3790  223.1410 N   0  0  0  0  0  0  0  0  0  0  0  0
  140.8200   72.4340  222.0470 C   0  0  0  0  0  0  0  0  0  0  0  0
  141.7500   71.6310  221.9260 O   0  0  0  0  0  0  0  0  0  0  0  0
  140.7040   73.4540  220.9420 C   0  0  0  0  0  0  0  0  0  0  0  0
  140.7840   74.8150  221.3980 N   0  0  0  0  0  0  0  0  0  0  0  0
  139.7060   75.5000  221.9940 C   0  0  0  0  0  0  0  0  0  0  0  0
  138.5570   74.9720  222.1770 O   0  0  0  0  0  0  0  0  0  0  0  0
  139.8980   76.8820  222.4310 C   0  0  0  0  0  0  0  0  0  0  0  0
  138.8260   77.6980  222.7330 C   0  0  0  0  0  0  0  0  0  0  0  0
  138.9560   79.0020  223.1470 C   0  0  0  0  0  0  0  0  0  0  0  0
  140.2540   79.4890  223.2550 C   0  0  0  0  0  0  0  0  0  0  0  0
  140.4150   80.8060  223.6710 C   0  0  0  0  0  0  0  0  0  0  0  0
  141.7090   81.2960  223.7800 C   0  0  0  0  0  0  0  0  0  0  0  0
  142.8130   80.5220  223.4900 C   0  0  0  0  0  0  0  0  0  0  0  0
  142.6070   79.2170  223.0780 C   0  0  0  0  0  0  0  0  0  0  0  0
  141.3420   78.6810  222.9550 C   0  0  0  0  0  0  0  0  0  0  0  0
  141.1250   77.4080  222.5540 N   0  0  0  0  0  0  0  0  0  0  0  0
  136.6639   71.1240  223.9714 H   0  0  0  0  0  0  0  0  0  0  0  0
  137.4886   71.6438  222.4627 H   0  0  0  0  0  0  0  0  0  0  0  0
  136.4613   70.1703  222.4627 H   0  0  0  0  0  0  0  0  0  0  0  0
  138.5257   68.6997  225.5942 H   0  0  0  0  0  0  0  0  0  0  0  0
  140.0447   69.2744  227.4825 H   0  0  0  0  0  0  0  0  0  0  0  0
  141.4734   71.2889  227.2586 H   0  0  0  0  0  0  0  0  0  0  0  0
  141.4098   72.6794  225.2542 H   0  0  0  0  0  0  0  0  0  0  0  0
  139.2090   73.1530  223.1410 H   0  0  0  0  0  0  0  0  0  0  0  0
  141.5183   73.2807  220.2231 H   0  0  0  0  0  0  0  0  0  0  0  0
  139.7093   73.3254  220.4904 H   0  0  0  0  0  0  0  0  0  0  0  0
  141.6870   75.3140  221.2750 H   0  0  0  0  0  0  0  0  0  0  0  0
  137.8124   77.2816  222.6370 H   0  0  0  0  0  0  0  0  0  0  0  0
  138.0810   79.6264  223.3802 H   0  0  0  0  0  0  0  0  0  0  0  0
  139.5460   81.4383  223.9058 H   0  0  0  0  0  0  0  0  0  0  0  0
  141.8588   82.3351  224.1082 H   0  0  0  0  0  0  0  0  0  0  0  0
  143.8299   80.9309  223.5837 H   0  0  0  0  0  0  0  0  0  0  0  0
  143.4781   78.5883  222.8415 H   0  0  0  0  0  0  0  0  0  0  0  0
  1  2  1  0
  2  3  1  0
  3  4  2  0
  4  5  1  0
  5  6  2  0
  6  7  1  0
  7  8  2  0
  8  9  1  0
  9 10  1  0
 10 11  2  0
 10 12  1  0
 12 13  1  0
 13 14  1  0
 14 15  2  0
 14 16  1  0
 16 17  2  0
 17 18  1  0
 18 19  2  0
 19 20  1  0
 20 21  2  0
 21 22  1  0
 22 23  2  0
 23 24  1  0
 24 25  2  0
  8  3  1  0
 25 16  1  0
 24 19  1  0
  1 26  1  0
  1 27  1  0
  1 28  1  0
  4 29  1  0
  5 30  1  0
  6 31  1  0
  7 32  1  0
  9 33  1  0
 12 34  1  0
 12 35  1  0
 13 36  1  0
 17 37  1  0
 18 38  1  0
 20 39  1  0
 21 40  1  0
 22 41  1  0
 23 42  1  0
M  END
>  <smiles>  (45) 
COc1ccccc1NC(=O)CNC(=O)c1ccc2ccccc2n1

>  <score_type>  (45) 
oracle

>  <origin>  (45) 
autodockgpu

>  <m_score__min__energy>  (45) 
-8.6500000000000004

>  <m_primary>  (45) 
energy

>  <rmsd>  (45) 
8.595020935603744

>  <m_score__min__rmsd>  (45) 
8.595020935603744

>  <meeko>  (45) 
{"free_energy": -7.39, "intermolecular_energy": -8.88, "internal_energy": -2.08, "cluster_size": 32, "cluster_id": 2, "rank_in_cluster": 16}

>  <energy>  (45) 
-7.36

>  <cluster_rmsd>  (45) 
1.54

>  <cluster>  (45) 
2

$$$$

     RDKit          3D

 42 44  0  0  0  0  0  0  0  0999 V2000
  136.9290   71.3150  223.5330 C   0  0  0  0  0  0  0  0  0  0  0  0
  137.8920   70.3140  223.6960 O   0  0  0  0  0  0  0  0  0  0  0  0
  138.9790   70.4960  224.5010 C   0  0  0  0  0  0  0  0  0  0  0  0
  139.0630   69.6720  225.6310 C   0  0  0  0  0  0  0  0  0  0  0  0
  140.1180   69.7830  226.5030 C   0  0  0  0  0  0  0  0  0  0  0  0
  141.0720   70.7280  226.2150 C   0  0  0  0  0  0  0  0  0  0  0  0
  140.9860   71.5340  225.1060 C   0  0  0  0  0  0  0  0  0  0  0  0
  139.9190   71.4420  224.1980 C   0  0  0  0  0  0  0  0  0  0  0  0
  139.9330   72.3250  223.1170 N   0  0  0  0  0  0  0  0  0  0  0  0
  140.8310   72.4510  222.0560 C   0  0  0  0  0  0  0  0  0  0  0  0
  141.8220   71.7200  221.9680 O   0  0  0  0  0  0  0  0  0  0  0  0
  140.6800   73.4640  220.9500 C   0  0  0  0  0  0  0  0  0  0  0  0
  140.7700   74.8280  221.3960 N   0  0  0  0  0  0  0  0  0  0  0  0
  139.7130   75.5090  222.0330 C   0  0  0  0  0  0  0  0  0  0  0  0
  138.5750   74.9750  222.2640 O   0  0  0  0  0  0  0  0  0  0  0  0
  139.9130   76.8940  222.4550 C   0  0  0  0  0  0  0  0  0  0  0  0
  138.8480   77.7210  222.7450 C   0  0  0  0  0  0  0  0  0  0  0  0
  138.9850   79.0290  223.1460 C   0  0  0  0  0  0  0  0  0  0  0  0
  140.2870   79.5070  223.2520 C   0  0  0  0  0  0  0  0  0  0  0  0
  140.4560   80.8280  223.6550 C   0  0  0  0  0  0  0  0  0  0  0  0
  141.7540   81.3090  223.7620 C   0  0  0  0  0  0  0  0  0  0  0  0
  142.8520   80.5230  223.4850 C   0  0  0  0  0  0  0  0  0  0  0  0
  142.6390   79.2160  223.0860 C   0  0  0  0  0  0  0  0  0  0  0  0
  141.3700   78.6880  222.9640 C   0  0  0  0  0  0  0  0  0  0  0  0
  141.1450   77.4120  222.5770 N   0  0  0  0  0  0  0  0  0  0  0  0
  136.5927   71.6645  224.5203 H   0  0  0  0  0  0  0  0  0  0  0  0
  137.3657   72.1566  222.9753 H   0  0  0  0  0  0  0  0  0  0  0  0
  136.0712   70.9112  222.9753 H   0  0  0  0  0  0  0  0  0  0  0  0
  138.2754   68.9281  225.8217 H   0  0  0  0  0  0  0  0  0  0  0  0
  140.1956   69.1425  227.3939 H   0  0  0  0  0  0  0  0  0  0  0  0
  141.9308   70.8429  226.8927 H   0  0  0  0  0  0  0  0  0  0  0  0
  141.7782   72.2750  224.9235 H   0  0  0  0  0  0  0  0  0  0  0  0
  139.1310   73.0410  223.0910 H   0  0  0  0  0  0  0  0  0  0  0  0
  141.4732   73.2886  220.2084 H   0  0  0  0  0  0  0  0  0  0  0  0
  139.6727   73.3305  220.5287 H   0  0  0  0  0  0  0  0  0  0  0  0
  141.6640   75.3320  221.2350 H   0  0  0  0  0  0  0  0  0  0  0  0
  137.8317   77.3110  222.6501 H   0  0  0  0  0  0  0  0  0  0  0  0
  138.1138   79.6620  223.3704 H   0  0  0  0  0  0  0  0  0  0  0  0
  139.5911   81.4691  223.8810 H   0  0  0  0  0  0  0  0  0  0  0  0
  141.9112   82.3508  224.0780 H   0  0  0  0  0  0  0  0  0  0  0  0
  143.8716   80.9250  223.5789 H   0  0  0  0  0  0  0  0  0  0  0  0
  143.5065   78.5788  222.8593 H   0  0  0  0  0  0  0  0  0  0  0  0
  1  2  1  0
  2  3  1  0
  3  4  2  0
  4  5  1  0
  5  6  2  0
  6  7  1  0
  7  8  2  0
  8  9  1  0
  9 10  1  0
 10 11  2  0
 10 12  1  0
 12 13  1  0
 13 14  1  0
 14 15  2  0
 14 16  1  0
 16 17  2  0
 17 18  1  0
 18 19  2  0
 19 20  1  0
 20 21  2  0
 21 22  1  0
 22 23  2  0
 23 24  1  0
 24 25  2  0
  8  3  1  0
 25 16  1  0
 24 19  1  0
  1 26  1  0
  1 27  1  0
  1 28  1  0
  4 29  1  0
  5 30  1  0
  6 31  1  0
  7 32  1  0
  9 33  1  0
 12 34  1  0
 12 35  1  0
 13 36  1  0
 17 37  1  0
 18 38  1  0
 20 39  1  0
 21 40  1  0
 22 41  1  0
 23 42  1  0
M  END
>  <smiles>  (46) 
COc1ccccc1NC(=O)CNC(=O)c1ccc2ccccc2n1

>  <score_type>  (46) 
oracle

>  <origin>  (46) 
autodockgpu

>  <m_score__min__energy>  (46) 
-8.6500000000000004

>  <m_primary>  (46) 
energy

>  <rmsd>  (46) 
8.603620931251221

>  <m_score__min__rmsd>  (46) 
8.603620931251221

>  <meeko>  (46) 
{"free_energy": -7.37, "intermolecular_energy": -8.87, "internal_energy": -2.08, "cluster_size": 32, "cluster_id": 2, "rank_in_cluster": 26}

>  <energy>  (46) 
-7.35

>  <cluster_rmsd>  (46) 
1.41

>  <cluster>  (46) 
2

$$$$

     RDKit          3D

 42 44  0  0  0  0  0  0  0  0999 V2000
  137.2160   71.0880  223.0540 C   0  0  0  0  0  0  0  0  0  0  0  0
  138.2720   70.2380  223.3990 O   0  0  0  0  0  0  0  0  0  0  0  0
  139.1630   70.5710  224.3780 C   0  0  0  0  0  0  0  0  0  0  0  0
  139.1460   69.7790  225.5330 C   0  0  0  0  0  0  0  0  0  0  0  0
  140.0030   70.0380  226.5740 C   0  0  0  0  0  0  0  0  0  0  0  0
  140.8650   71.0970  226.4270 C   0  0  0  0  0  0  0  0  0  0  0  0
  140.8790   71.8710  225.2930 C   0  0  0  0  0  0  0  0  0  0  0  0
  140.0140   71.6300  224.2130 C   0  0  0  0  0  0  0  0  0  0  0  0
  140.1110   72.4940  223.1220 N   0  0  0  0  0  0  0  0  0  0  0  0
  140.7900   72.3570  221.9100 C   0  0  0  0  0  0  0  0  0  0  0  0
  141.4600   71.3500  221.6630 O   0  0  0  0  0  0  0  0  0  0  0  0
  140.7700   73.3990  220.8200 C   0  0  0  0  0  0  0  0  0  0  0  0
  140.8310   74.7500  221.3070 N   0  0  0  0  0  0  0  0  0  0  0  0
  139.7300   75.4230  221.8740 C   0  0  0  0  0  0  0  0  0  0  0  0
  138.5740   74.8920  221.9990 O   0  0  0  0  0  0  0  0  0  0  0  0
  139.9030   76.7950  222.3470 C   0  0  0  0  0  0  0  0  0  0  0  0
  138.8230   77.5780  222.7000 C   0  0  0  0  0  0  0  0  0  0  0  0
  138.9350   78.8720  223.1500 C   0  0  0  0  0  0  0  0  0  0  0  0
  140.2250   79.3840  223.2410 C   0  0  0  0  0  0  0  0  0  0  0  0
  140.3690   80.6910  223.6930 C   0  0  0  0  0  0  0  0  0  0  0  0
  141.6550   81.2050  223.7850 C   0  0  0  0  0  0  0  0  0  0  0  0
  142.7670   80.4640  223.4460 C   0  0  0  0  0  0  0  0  0  0  0  0
  142.5790   79.1680  222.9990 C   0  0  0  0  0  0  0  0  0  0  0  0
  141.3220   78.6090  222.8900 C   0  0  0  0  0  0  0  0  0  0  0  0
  141.1220   77.3440  222.4570 N   0  0  0  0  0  0  0  0  0  0  0  0
  136.7399   71.4712  223.9686 H   0  0  0  0  0  0  0  0  0  0  0  0
  137.6020   71.9303  222.4610 H   0  0  0  0  0  0  0  0  0  0  0  0
  136.4757   70.5310  222.4610 H   0  0  0  0  0  0  0  0  0  0  0  0
  138.4382   68.9402  225.6070 H   0  0  0  0  0  0  0  0  0  0  0  0
  139.9993   69.4237  227.4865 H   0  0  0  0  0  0  0  0  0  0  0  0
  141.5652   71.3322  227.2422 H   0  0  0  0  0  0  0  0  0  0  0  0
  141.5909   72.7071  225.2282 H   0  0  0  0  0  0  0  0  0  0  0  0
  139.5910   73.4300  223.2220 H   0  0  0  0  0  0  0  0  0  0  0  0
  141.6345   73.2285  220.1615 H   0  0  0  0  0  0  0  0  0  0  0  0
  139.8108   73.2919  220.2923 H   0  0  0  0  0  0  0  0  0  0  0  0
  141.7380   75.2510  221.2330 H   0  0  0  0  0  0  0  0  0  0  0  0
  137.8164   77.1424  222.6166 H   0  0  0  0  0  0  0  0  0  0  0  0
  138.0529   79.4697  223.4231 H   0  0  0  0  0  0  0  0  0  0  0  0
  139.4933   81.2971  223.9683 H   0  0  0  0  0  0  0  0  0  0  0  0
  141.7913   82.2372  224.1400 H   0  0  0  0  0  0  0  0  0  0  0  0
  143.7771   80.8917  223.5287 H   0  0  0  0  0  0  0  0  0  0  0  0
  143.4570   78.5658  222.7225 H   0  0  0  0  0  0  0  0  0  0  0  0
  1  2  1  0
  2  3  1  0
  3  4  2  0
  4  5  1  0
  5  6  2  0
  6  7  1  0
  7  8  2  0
  8  9  1  0
  9 10  1  0
 10 11  2  0
 10 12  1  0
 12 13  1  0
 13 14  1  0
 14 15  2  0
 14 16  1  0
 16 17  2  0
 17 18  1  0
 18 19  2  0
 19 20  1  0
 20 21  2  0
 21 22  1  0
 22 23  2  0
 23 24  1  0
 24 25  2  0
  8  3  1  0
 25 16  1  0
 24 19  1  0
  1 26  1  0
  1 27  1  0
  1 28  1  0
  4 29  1  0
  5 30  1  0
  6 31  1  0
  7 32  1  0
  9 33  1  0
 12 34  1  0
 12 35  1  0
 13 36  1  0
 17 37  1  0
 18 38  1  0
 20 39  1  0
 21 40  1  0
 22 41  1  0
 23 42  1  0
M  END
>  <smiles>  (47) 
COc1ccccc1NC(=O)CNC(=O)c1ccc2ccccc2n1

>  <score_type>  (47) 
oracle

>  <origin>  (47) 
autodockgpu

>  <m_score__min__energy>  (47) 
-8.6500000000000004

>  <m_primary>  (47) 
energy

>  <rmsd>  (47) 
8.532636248089263

>  <m_score__min__rmsd>  (47) 
8.532636248089263

>  <meeko>  (47) 
{"free_energy": -7.2, "intermolecular_energy": -8.7, "internal_energy": -2.11, "cluster_size": 32, "cluster_id": 2, "rank_in_cluster": 32}

>  <energy>  (47) 
-7.27

>  <cluster_rmsd>  (47) 
1.56

>  <cluster>  (47) 
2

$$$$

     RDKit          3D

 42 44  0  0  0  0  0  0  0  0999 V2000
  137.3590   69.2050  224.6090 C   0  0  0  0  0  0  0  0  0  0  0  0
  138.6030   68.7020  225.0050 O   0  0  0  0  0  0  0  0  0  0  0  0
  139.4200   69.4020  225.8450 C   0  0  0  0  0  0  0  0  0  0  0  0
  139.9120   68.7080  226.9580 C   0  0  0  0  0  0  0  0  0  0  0  0
  140.7380   69.3280  227.8620 C   0  0  0  0  0  0  0  0  0  0  0  0
  141.0540   70.6430  227.6230 C   0  0  0  0  0  0  0  0  0  0  0  0
  140.5700   71.3200  226.5290 C   0  0  0  0  0  0  0  0  0  0  0  0
  139.7240   70.7110  225.5890 C   0  0  0  0  0  0  0  0  0  0  0  0
  139.2840   71.5050  224.5290 N   0  0  0  0  0  0  0  0  0  0  0  0
  139.9240   71.8810  223.3470 C   0  0  0  0  0  0  0  0  0  0  0  0
  141.0780   71.5190  223.1030 O   0  0  0  0  0  0  0  0  0  0  0  0
  139.2820   72.7420  222.2880 C   0  0  0  0  0  0  0  0  0  0  0  0
  139.7610   74.0970  222.2740 N   0  0  0  0  0  0  0  0  0  0  0  0
  140.5320   74.6390  221.2250 C   0  0  0  0  0  0  0  0  0  0  0  0
  140.8810   73.9670  220.1950 O   0  0  0  0  0  0  0  0  0  0  0  0
  140.9590   76.0340  221.3060 C   0  0  0  0  0  0  0  0  0  0  0  0
  141.3650   76.7300  220.1860 C   0  0  0  0  0  0  0  0  0  0  0  0
  141.7740   78.0420  220.2110 C   0  0  0  0  0  0  0  0  0  0  0  0
  141.7650   78.6670  221.4530 C   0  0  0  0  0  0  0  0  0  0  0  0
  142.1760   79.9950  221.5090 C   0  0  0  0  0  0  0  0  0  0  0  0
  142.1680   80.6210  222.7470 C   0  0  0  0  0  0  0  0  0  0  0  0
  141.7720   79.9710  223.8960 C   0  0  0  0  0  0  0  0  0  0  0  0
  141.3720   78.6500  223.7960 C   0  0  0  0  0  0  0  0  0  0  0  0
  141.3600   77.9810  222.5900 C   0  0  0  0  0  0  0  0  0  0  0  0
  140.9710   76.6900  222.4760 N   0  0  0  0  0  0  0  0  0  0  0  0
  136.7608   69.4469  225.4999 H   0  0  0  0  0  0  0  0  0  0  0  0
  137.5057   70.1145  224.0079 H   0  0  0  0  0  0  0  0  0  0  0  0
  136.8324   68.4492  224.0079 H   0  0  0  0  0  0  0  0  0  0  0  0
  139.6333   67.6547  227.1091 H   0  0  0  0  0  0  0  0  0  0  0  0
  141.1301   68.7945  228.7404 H   0  0  0  0  0  0  0  0  0  0  0  0
  141.7139   71.1700  228.3279 H   0  0  0  0  0  0  0  0  0  0  0  0
  140.8548   72.3728  226.3856 H   0  0  0  0  0  0  0  0  0  0  0  0
  138.2930   71.9110  224.6320 H   0  0  0  0  0  0  0  0  0  0  0  0
  139.4850   72.2921  221.3050 H   0  0  0  0  0  0  0  0  0  0  0  0
  138.2070   72.7843  222.5173 H   0  0  0  0  0  0  0  0  0  0  0  0
  139.5220   74.7030  223.0830 H   0  0  0  0  0  0  0  0  0  0  0  0
  141.3612   76.2056  219.2190 H   0  0  0  0  0  0  0  0  0  0  0  0
  142.0910   78.5685  219.2987 H   0  0  0  0  0  0  0  0  0  0  0  0
  142.4962   80.5302  220.6029 H   0  0  0  0  0  0  0  0  0  0  0  0
  142.4884   81.6712  222.8138 H   0  0  0  0  0  0  0  0  0  0  0  0
  141.7739   80.4885  224.8667 H   0  0  0  0  0  0  0  0  0  0  0  0
  141.0543   78.1180  224.7049 H   0  0  0  0  0  0  0  0  0  0  0  0
  1  2  1  0
  2  3  1  0
  3  4  2  0
  4  5  1  0
  5  6  2  0
  6  7  1  0
  7  8  2  0
  8  9  1  0
  9 10  1  0
 10 11  2  0
 10 12  1  0
 12 13  1  0
 13 14  1  0
 14 15  2  0
 14 16  1  0
 16 17  2  0
 17 18  1  0
 18 19  2  0
 19 20  1  0
 20 21  2  0
 21 22  1  0
 22 23  2  0
 23 24  1  0
 24 25  2  0
  8  3  1  0
 25 16  1  0
 24 19  1  0
  1 26  1  0
  1 27  1  0
  1 28  1  0
  4 29  1  0
  5 30  1  0
  6 31  1  0
  7 32  1  0
  9 33  1  0
 12 34  1  0
 12 35  1  0
 13 36  1  0
 17 37  1  0
 18 38  1  0
 20 39  1  0
 21 40  1  0
 22 41  1  0
 23 42  1  0
M  END
>  <smiles>  (48) 
COc1ccccc1NC(=O)CNC(=O)c1ccc2ccccc2n1

>  <score_type>  (48) 
oracle

>  <origin>  (48) 
autodockgpu

>  <m_score__min__energy>  (48) 
-8.6500000000000004

>  <m_primary>  (48) 
energy

>  <rmsd>  (48) 
8.76588053185201

>  <m_score__min__rmsd>  (48) 
8.76588053185201

>  <meeko>  (48) 
{"free_energy": -8.08, "intermolecular_energy": -9.57, "internal_energy": -1.23, "cluster_size": 32, "cluster_id": 2, "rank_in_cluster": 3}

>  <energy>  (48) 
-7.2

>  <cluster_rmsd>  (48) 
1.5

>  <cluster>  (48) 
2

$$$$

     RDKit          3D

 42 44  0  0  0  0  0  0  0  0999 V2000
  137.9120   79.6020  223.0790 C   0  0  0  0  0  0  0  0  0  0  0  0
  138.9970   79.2940  222.2520 O   0  0  0  0  0  0  0  0  0  0  0  0
  140.2790   79.5790  222.6240 C   0  0  0  0  0  0  0  0  0  0  0  0
  140.5080   80.8600  223.1430 C   0  0  0  0  0  0  0  0  0  0  0  0
  141.7650   81.2410  223.5420 C   0  0  0  0  0  0  0  0  0  0  0  0
  142.7720   80.3170  223.4070 C   0  0  0  0  0  0  0  0  0  0  0  0
  142.5440   79.0620  222.8980 C   0  0  0  0  0  0  0  0  0  0  0  0
  141.2690   78.6450  222.4840 C   0  0  0  0  0  0  0  0  0  0  0  0
  141.1650   77.3520  221.9680 N   0  0  0  0  0  0  0  0  0  0  0  0
  140.1450   76.4050  222.0860 C   0  0  0  0  0  0  0  0  0  0  0  0
  139.1280   76.6400  222.7440 O   0  0  0  0  0  0  0  0  0  0  0  0
  140.1920   75.0440  221.4380 C   0  0  0  0  0  0  0  0  0  0  0  0
  139.9250   73.9610  222.3440 N   0  0  0  0  0  0  0  0  0  0  0  0
  140.6400   72.7460  222.3360 C   0  0  0  0  0  0  0  0  0  0  0  0
  141.5860   72.4970  221.5130 O   0  0  0  0  0  0  0  0  0  0  0  0
  140.2930   71.7110  223.3080 C   0  0  0  0  0  0  0  0  0  0  0  0
  139.5720   70.5920  222.9440 C   0  0  0  0  0  0  0  0  0  0  0  0
  139.2230   69.5930  223.8210 C   0  0  0  0  0  0  0  0  0  0  0  0
  139.6360   69.7570  225.1390 C   0  0  0  0  0  0  0  0  0  0  0  0
  139.2940   68.7610  226.0490 C   0  0  0  0  0  0  0  0  0  0  0  0
  139.7050   68.9220  227.3650 C   0  0  0  0  0  0  0  0  0  0  0  0
  140.4270   70.0210  227.7800 C   0  0  0  0  0  0  0  0  0  0  0  0
  140.7430   70.9880  226.8420 C   0  0  0  0  0  0  0  0  0  0  0  0
  140.3610   70.8770  225.5210 C   0  0  0  0  0  0  0  0  0  0  0  0
  140.6630   71.8130  224.5930 N   0  0  0  0  0  0  0  0  0  0  0  0
  138.2175   79.5153  224.1322 H   0  0  0  0  0  0  0  0  0  0  0  0
  137.5778   80.6305  222.8776 H   0  0  0  0  0  0  0  0  0  0  0  0
  137.0873   78.9025  222.8776 H   0  0  0  0  0  0  0  0  0  0  0  0
  139.6712   81.5684  223.2318 H   0  0  0  0  0  0  0  0  0  0  0  0
  141.9574   82.2433  223.9523 H   0  0  0  0  0  0  0  0  0  0  0  0
  143.7918   80.5903  223.7158 H   0  0  0  0  0  0  0  0  0  0  0  0
  143.3874   78.3611  222.8119 H   0  0  0  0  0  0  0  0  0  0  0  0
  142.0070   77.0110  221.3930 H   0  0  0  0  0  0  0  0  0  0  0  0
  139.4418   75.0166  220.6340 H   0  0  0  0  0  0  0  0  0  0  0  0
  141.2164   74.9029  221.0629 H   0  0  0  0  0  0  0  0  0  0  0  0
  139.1630   74.0870  223.0390 H   0  0  0  0  0  0  0  0  0  0  0  0
  139.2594   70.4942  221.8939 H   0  0  0  0  0  0  0  0  0  0  0  0
  138.6486   68.7121  223.4983 H   0  0  0  0  0  0  0  0  0  0  0  0
  138.7183   67.8774  225.7363 H   0  0  0  0  0  0  0  0  0  0  0  0
  139.4461   68.1470  228.1014 H   0  0  0  0  0  0  0  0  0  0  0  0
  140.7432   70.1262  228.8283 H   0  0  0  0  0  0  0  0  0  0  0  0
  141.3160   71.8718  227.1592 H   0  0  0  0  0  0  0  0  0  0  0  0
  1  2  1  0
  2  3  1  0
  3  4  2  0
  4  5  1  0
  5  6  2  0
  6  7  1  0
  7  8  2  0
  8  9  1  0
  9 10  1  0
 10 11  2  0
 10 12  1  0
 12 13  1  0
 13 14  1  0
 14 15  2  0
 14 16  1  0
 16 17  2  0
 17 18  1  0
 18 19  2  0
 19 20  1  0
 20 21  2  0
 21 22  1  0
 22 23  2  0
 23 24  1  0
 24 25  2  0
  8  3  1  0
 25 16  1  0
 24 19  1  0
  1 26  1  0
  1 27  1  0
  1 28  1  0
  4 29  1  0
  5 30  1  0
  6 31  1  0
  7 32  1  0
  9 33  1  0
 12 34  1  0
 12 35  1  0
 13 36  1  0
 17 37  1  0
 18 38  1  0
 20 39  1  0
 21 40  1  0
 22 41  1  0
 23 42  1  0
M  END
>  <smiles>  (49) 
COc1ccccc1NC(=O)CNC(=O)c1ccc2ccccc2n1

>  <score_type>  (49) 
oracle

>  <origin>  (49) 
autodockgpu

>  <m_score__min__energy>  (49) 
-8.6500000000000004

>  <m_primary>  (49) 
energy

>  <rmsd>  (49) 
3.522111022657

>  <m_score__min__rmsd>  (49) 
3.522111022657

>  <meeko>  (49) 
{"free_energy": -8.34, "intermolecular_energy": -9.83, "internal_energy": -1.15, "cluster_size": 16, "cluster_id": 1, "rank_in_cluster": 12}

>  <energy>  (49) 
-7.22

>  <cluster_rmsd>  (49) 
0.0

>  <cluster>  (49) 
3

$$$$

     RDKit          3D

 42 44  0  0  0  0  0  0  0  0999 V2000
  138.9160   69.3400  222.1740 C   0  0  0  0  0  0  0  0  0  0  0  0
  138.4010   69.9320  223.3320 O   0  0  0  0  0  0  0  0  0  0  0  0
  139.2200   70.3620  224.3360 C   0  0  0  0  0  0  0  0  0  0  0  0
  139.2680   69.5640  225.4860 C   0  0  0  0  0  0  0  0  0  0  0  0
  140.0600   69.9160  226.5510 C   0  0  0  0  0  0  0  0  0  0  0  0
  140.7910   71.0720  226.4330 C   0  0  0  0  0  0  0  0  0  0  0  0
  140.7410   71.8520  225.3030 C   0  0  0  0  0  0  0  0  0  0  0  0
  139.9410   71.5170  224.2000 C   0  0  0  0  0  0  0  0  0  0  0  0
  139.9610   72.3950  223.1160 N   0  0  0  0  0  0  0  0  0  0  0  0
  140.8380   72.4850  222.0330 C   0  0  0  0  0  0  0  0  0  0  0  0
  141.7990   71.7190  221.9240 O   0  0  0  0  0  0  0  0  0  0  0  0
  140.6960   73.5000  220.9270 C   0  0  0  0  0  0  0  0  0  0  0  0
  140.7860   74.8630  221.3740 N   0  0  0  0  0  0  0  0  0  0  0  0
  139.7250   75.5480  222.0000 C   0  0  0  0  0  0  0  0  0  0  0  0
  138.5830   75.0180  222.2180 O   0  0  0  0  0  0  0  0  0  0  0  0
  139.9260   76.9320  222.4250 C   0  0  0  0  0  0  0  0  0  0  0  0
  138.8610   77.7540  222.7310 C   0  0  0  0  0  0  0  0  0  0  0  0
  138.9990   79.0600  223.1360 C   0  0  0  0  0  0  0  0  0  0  0  0
  140.3000   79.5430  223.2290 C   0  0  0  0  0  0  0  0  0  0  0  0
  140.4700   80.8630  223.6350 C   0  0  0  0  0  0  0  0  0  0  0  0
  141.7670   81.3470  223.7290 C   0  0  0  0  0  0  0  0  0  0  0  0
  142.8650   80.5670  223.4350 C   0  0  0  0  0  0  0  0  0  0  0  0
  142.6510   79.2600  223.0330 C   0  0  0  0  0  0  0  0  0  0  0  0
  141.3820   78.7280  222.9240 C   0  0  0  0  0  0  0  0  0  0  0  0
  141.1570   77.4540  222.5340 N   0  0  0  0  0  0  0  0  0  0  0  0
  139.6145   68.5371  222.4522 H   0  0  0  0  0  0  0  0  0  0  0  0
  138.0916   68.9192  221.5796 H   0  0  0  0  0  0  0  0  0  0  0  0
  139.4469   70.0982  221.5796 H   0  0  0  0  0  0  0  0  0  0  0  0
  138.6648   68.6455  225.5365 H   0  0  0  0  0  0  0  0  0  0  0  0
  140.1067   69.2981  227.4599 H   0  0  0  0  0  0  0  0  0  0  0  0
  141.4360   71.3831  227.2680 H   0  0  0  0  0  0  0  0  0  0  0  0
  141.3477   72.7686  225.2617 H   0  0  0  0  0  0  0  0  0  0  0  0
  139.1850   73.1400  223.1060 H   0  0  0  0  0  0  0  0  0  0  0  0
  141.4934   73.3235  220.1902 H   0  0  0  0  0  0  0  0  0  0  0  0
  139.6908   73.3692  220.4999 H   0  0  0  0  0  0  0  0  0  0  0  0
  141.6840   75.3640  221.2240 H   0  0  0  0  0  0  0  0  0  0  0  0
  137.8450   77.3411  222.6461 H   0  0  0  0  0  0  0  0  0  0  0  0
  138.1283   79.6888  223.3736 H   0  0  0  0  0  0  0  0  0  0  0  0
  139.6060   81.5008  223.8732 H   0  0  0  0  0  0  0  0  0  0  0  0
  141.9243   82.3877  224.0488 H   0  0  0  0  0  0  0  0  0  0  0  0
  143.8841   80.9726  223.5177 H   0  0  0  0  0  0  0  0  0  0  0  0
  143.5178   78.6265  222.7933 H   0  0  0  0  0  0  0  0  0  0  0  0
  1  2  1  0
  2  3  1  0
  3  4  2  0
  4  5  1  0
  5  6  2  0
  6  7  1  0
  7  8  2  0
  8  9  1  0
  9 10  1  0
 10 11  2  0
 10 12  1  0
 12 13  1  0
 13 14  1  0
 14 15  2  0
 14 16  1  0
 16 17  2  0
 17 18  1  0
 18 19  2  0
 19 20  1  0
 20 21  2  0
 21 22  1  0
 22 23  2  0
 23 24  1  0
 24 25  2  0
  8  3  1  0
 25 16  1  0
 24 19  1  0
  1 26  1  0
  1 27  1  0
  1 28  1  0
  4 29  1  0
  5 30  1  0
  6 31  1  0
  7 32  1  0
  9 33  1  0
 12 34  1  0
 12 35  1  0
 13 36  1  0
 17 37  1  0
 18 38  1  0
 20 39  1  0
 21 40  1  0
 22 41  1  0
 23 42  1  0
M  END
>  <smiles>  (50) 
COc1ccccc1NC(=O)CNC(=O)c1ccc2ccccc2n1

>  <score_type>  (50) 
oracle

>  <origin>  (50) 
autodockgpu

>  <m_score__min__energy>  (50) 
-8.6500000000000004

>  <m_primary>  (50) 
energy

>  <rmsd>  (50) 
8.619868114594567

>  <m_score__min__rmsd>  (50) 
8.619868114594567

>  <meeko>  (50) 
{"free_energy": -7.39, "intermolecular_energy": -8.88, "internal_energy": -2.09, "cluster_size": 32, "cluster_id": 2, "rank_in_cluster": 18}

>  <energy>  (50) 
-7.19

>  <cluster_rmsd>  (50) 
1.04

>  <cluster>  (50) 
3

$$$$
