
     RDKit          3D

 53 56  0  0  0  0  0  0  0  0999 V2000
  140.5380   72.9220  222.6330 O   0  0  0  0  0  0  0  0  0  0  0  0
  140.4610   71.6920  222.8810 C   0  0  0  0  0  0  0  0  0  0  0  0
  140.3170   70.7780  221.7390 N   0  0  0  0  0  0  0  0  0  0  0  0
  140.2820   71.4120  220.4770 C   0  0  0  0  0  0  0  0  0  0  0  0
  141.4830   71.7900  219.7510 C   0  0  0  0  0  0  0  0  0  0  0  0
  141.4460   71.3060  218.5140 O   0  0  0  0  0  0  0  0  0  0  0  0
  142.6220   72.5140  220.0370 N   0  0  0  0  0  0  0  0  0  0  0  0
  144.0340   72.1350  220.2310 C   0  0  0  0  0  0  0  0  0  0  0  0
  144.6910   73.0600  219.1920 C   0  0  2  0  0  0  0  0  0  0  0  0
  146.0530   73.1370  219.3370 O   0  0  0  0  0  0  0  0  0  0  0  0
  143.9550   74.3450  219.4890 C   0  0  2  0  0  0  0  0  0  0  0  0
  144.7930   75.1810  220.2190 O   0  0  0  0  0  0  0  0  0  0  0  0
  142.6970   73.9630  220.2430 C   0  0  1  0  0  0  0  0  0  0  0  0
  141.5290   74.7760  219.8680 C   0  0  0  0  0  0  0  0  0  0  0  0
  140.9920   75.3910  221.1790 C   0  0  0  0  0  0  0  0  0  0  0  0
  141.4360   76.8100  221.2380 C   0  0  0  0  0  0  0  0  0  0  0  0
  141.7100   77.2080  219.8220 C   0  0  0  0  0  0  0  0  0  0  0  0
  141.7760   75.9450  218.9870 C   0  0  0  0  0  0  0  0  0  0  0  0
  140.5070   71.1410  224.2250 C   0  0  0  0  0  0  0  0  0  0  0  0
  140.8210   72.0100  225.2480 C   0  0  0  0  0  0  0  0  0  0  0  0
  140.8730   71.5190  226.5360 C   0  0  0  0  0  0  0  0  0  0  0  0
  140.6110   70.1750  226.7810 C   0  0  0  0  0  0  0  0  0  0  0  0
  140.6580   69.6630  228.0680 C   0  0  0  0  0  0  0  0  0  0  0  0
  140.3900   68.3190  228.2620 C   0  0  0  0  0  0  0  0  0  0  0  0
  140.4240   67.7670  229.5130 F   0  0  0  0  0  0  0  0  0  0  0  0
  140.0780   67.4780  227.2160 C   0  0  0  0  0  0  0  0  0  0  0  0
  140.0330   67.9930  225.9390 C   0  0  0  0  0  0  0  0  0  0  0  0
  140.2980   69.3300  225.7350 C   0  0  0  0  0  0  0  0  0  0  0  0
  140.2530   69.8300  224.4830 N   0  0  0  0  0  0  0  0  0  0  0  0
  140.2600   69.8000  222.0200 H   0  0  0  0  0  0  0  0  0  0  0  0
  139.7257   70.7349  219.8122 H   0  0  0  0  0  0  0  0  0  0  0  0
  139.8600   72.3947  220.7343 H   0  0  0  0  0  0  0  0  0  0  0  0
  144.3808   72.3531  221.2519 H   0  0  0  0  0  0  0  0  0  0  0  0
  144.2521   71.0639  220.1082 H   0  0  0  0  0  0  0  0  0  0  0  0
  144.6070   72.7327  218.1452 H   0  0  0  0  0  0  0  0  0  0  0  0
  146.3350   74.0530  219.1680 H   0  0  0  0  0  0  0  0  0  0  0  0
  143.6693   74.8966  218.5812 H   0  0  0  0  0  0  0  0  0  0  0  0
  145.7110   74.8840  220.0940 H   0  0  0  0  0  0  0  0  0  0  0  0
  142.7149   74.1853  221.3202 H   0  0  0  0  0  0  0  0  0  0  0  0
  140.8673   74.0917  219.3167 H   0  0  0  0  0  0  0  0  0  0  0  0
  139.8931   75.3431  221.1909 H   0  0  0  0  0  0  0  0  0  0  0  0
  141.3756   74.8346  222.0469 H   0  0  0  0  0  0  0  0  0  0  0  0
  140.6447   77.4419  221.6677 H   0  0  0  0  0  0  0  0  0  0  0  0
  142.3261   76.9307  221.8730 H   0  0  0  0  0  0  0  0  0  0  0  0
  140.9025   77.8577  219.4536 H   0  0  0  0  0  0  0  0  0  0  0  0
  142.6589   77.7605  219.7563 H   0  0  0  0  0  0  0  0  0  0  0  0
  141.0097   75.9824  218.1987 H   0  0  0  0  0  0  0  0  0  0  0  0
  142.7676   75.8576  218.5190 H   0  0  0  0  0  0  0  0  0  0  0  0
  141.0255   73.0710  225.0419 H   0  0  0  0  0  0  0  0  0  0  0  0
  141.1220   72.1911  227.3704 H   0  0  0  0  0  0  0  0  0  0  0  0
  140.9040   70.3133  228.9204 H   0  0  0  0  0  0  0  0  0  0  0  0
  139.8684   66.4135  227.3975 H   0  0  0  0  0  0  0  0  0  0  0  0
  139.7871   67.3413  225.0877 H   0  0  0  0  0  0  0  0  0  0  0  0
  1  2  2  0
  2  3  1  0
  3  4  1  0
  4  5  1  0
  5  6  2  0
  5  7  1  0
  7  8  1  0
  8  9  1  0
  9 10  1  0
  9 11  1  0
 11 12  1  0
 11 13  1  0
 13 14  1  0
 14 15  1  0
 15 16  1  0
 16 17  1  0
 17 18  1  0
  2 19  1  0
 19 20  2  0
 20 21  1  0
 21 22  2  0
 22 23  1  0
 23 24  2  0
 24 25  1  0
 24 26  1  0
 26 27  2  0
 27 28  1  0
 28 29  2  0
 13  7  1  0
 18 14  1  0
 29 19  1  0
 28 22  1  0
  3 30  1  0
  4 31  1  0
  4 32  1  0
  8 33  1  0
  8 34  1  0
  9 35  1  6
 10 36  1  0
 11 37  1  6
 12 38  1  0
 13 39  1  1
 14 40  1  0
 15 41  1  0
 15 42  1  0
 16 43  1  0
 16 44  1  0
 17 45  1  0
 17 46  1  0
 18 47  1  0
 18 48  1  0
 20 49  1  0
 21 50  1  0
 23 51  1  0
 26 52  1  0
 27 53  1  0
M  END
>  <smiles>  (1) 
O=C(NCC(=O)N1C[C@H](O)[C@H](O)[C@H]1C1CCCC1)c1ccc2cc(F)ccc2n1

>  <score_type>  (1) 
oracle

>  <origin>  (1) 
autodockgpu

>  <m_score__min__energy>  (1) 
-8.3100000000000005

>  <m_primary>  (1) 
energy

>  <rmsd>  (1) 
4.062901597256168

>  <m_score__min__rmsd>  (1) 
4.062901597256168

>  <meeko>  (1) 
{"free_energy": -7.33, "intermolecular_energy": -9.42, "internal_energy": -3.22, "cluster_size": 26, "cluster_id": 1, "rank_in_cluster": 21}

>  <energy>  (1) 
-8.31

>  <cluster_rmsd>  (1) 
0.0

>  <cluster>  (1) 
1

$$$$

     RDKit          3D

 53 56  0  0  0  0  0  0  0  0999 V2000
  139.7090   73.3500  222.7060 O   0  0  0  0  0  0  0  0  0  0  0  0
  140.1990   72.1920  222.7170 C   0  0  0  0  0  0  0  0  0  0  0  0
  140.9290   71.7540  221.5200 N   0  0  0  0  0  0  0  0  0  0  0  0
  140.9910   72.7110  220.4830 C   0  0  0  0  0  0  0  0  0  0  0  0
  141.9840   73.7710  220.4450 C   0  0  0  0  0  0  0  0  0  0  0  0
  141.4850   74.8920  220.9530 O   0  0  0  0  0  0  0  0  0  0  0  0
  143.2910   73.8830  220.0160 N   0  0  0  0  0  0  0  0  0  0  0  0
  144.4230   74.7250  220.4470 C   0  0  0  0  0  0  0  0  0  0  0  0
  145.4660   73.6270  220.7240 C   0  0  2  0  0  0  0  0  0  0  0  0
  146.7340   74.1280  220.8760 O   0  0  0  0  0  0  0  0  0  0  0  0
  145.2720   72.7730  219.4930 C   0  0  2  0  0  0  0  0  0  0  0  0
  146.3140   73.0230  218.6070 O   0  0  0  0  0  0  0  0  0  0  0  0
  143.9120   73.1270  218.9250 C   0  0  1  0  0  0  0  0  0  0  0  0
  143.1880   71.9630  218.3920 C   0  0  0  0  0  0  0  0  0  0  0  0
  143.9140   71.5630  217.0870 C   0  0  0  0  0  0  0  0  0  0  0  0
  144.7620   70.3760  217.3790 C   0  0  0  0  0  0  0  0  0  0  0  0
  144.1610   69.7360  218.5890 C   0  0  0  0  0  0  0  0  0  0  0  0
  143.2000   70.7270  219.2130 C   0  0  0  0  0  0  0  0  0  0  0  0
  140.0770   71.2810  223.8430 C   0  0  0  0  0  0  0  0  0  0  0  0
  139.3650   70.1190  223.6340 C   0  0  0  0  0  0  0  0  0  0  0  0
  139.2290   69.2330  224.6820 C   0  0  0  0  0  0  0  0  0  0  0  0
  139.8050   69.5190  225.9160 C   0  0  0  0  0  0  0  0  0  0  0  0
  139.6800   68.6410  226.9820 C   0  0  0  0  0  0  0  0  0  0  0  0
  140.2700   68.9690  228.1900 C   0  0  0  0  0  0  0  0  0  0  0  0
  140.1750   68.1360  229.2700 F   0  0  0  0  0  0  0  0  0  0  0  0
  140.9760   70.1400  228.3640 C   0  0  0  0  0  0  0  0  0  0  0  0
  141.0970   71.0090  227.3010 C   0  0  0  0  0  0  0  0  0  0  0  0
  140.5120   70.6910  226.0930 C   0  0  0  0  0  0  0  0  0  0  0  0
  140.6330   71.5450  225.0560 N   0  0  0  0  0  0  0  0  0  0  0  0
  141.2950   70.8060  221.6040 H   0  0  0  0  0  0  0  0  0  0  0  0
  141.1201   72.1408  219.5512 H   0  0  0  0  0  0  0  0  0  0  0  0
  140.0657   73.2811  220.6530 H   0  0  0  0  0  0  0  0  0  0  0  0
  144.7505   75.4107  219.6516 H   0  0  0  0  0  0  0  0  0  0  0  0
  144.2123   75.3947  221.2938 H   0  0  0  0  0  0  0  0  0  0  0  0
  145.3394   73.0784  221.6690 H   0  0  0  0  0  0  0  0  0  0  0  0
  147.0240   74.5090  220.0280 H   0  0  0  0  0  0  0  0  0  0  0  0
  145.2934   71.6949  219.7101 H   0  0  0  0  0  0  0  0  0  0  0  0
  146.5910   73.9500  218.7100 H   0  0  0  0  0  0  0  0  0  0  0  0
  143.9347   73.7408  218.0125 H   0  0  0  0  0  0  0  0  0  0  0  0
  142.1398   72.2875  218.3147 H   0  0  0  0  0  0  0  0  0  0  0  0
  143.1760   71.3128  216.3107 H   0  0  0  0  0  0  0  0  0  0  0  0
  144.5339   72.3958  216.7235 H   0  0  0  0  0  0  0  0  0  0  0  0
  144.7491   69.6774  216.5294 H   0  0  0  0  0  0  0  0  0  0  0  0
  145.8113   70.6591  217.5488 H   0  0  0  0  0  0  0  0  0  0  0  0
  143.6201   68.8232  218.2989 H   0  0  0  0  0  0  0  0  0  0  0  0
  144.9477   69.4618  219.3073 H   0  0  0  0  0  0  0  0  0  0  0  0
  142.1895   70.2933  219.2432 H   0  0  0  0  0  0  0  0  0  0  0  0
  143.5198   70.9627  220.2388 H   0  0  0  0  0  0  0  0  0  0  0  0
  138.9156   69.9035  222.6534 H   0  0  0  0  0  0  0  0  0  0  0  0
  138.6646   68.2992  224.5423 H   0  0  0  0  0  0  0  0  0  0  0  0
  139.1215   67.7001  226.8693 H   0  0  0  0  0  0  0  0  0  0  0  0
  141.4352   70.3770  229.3351 H   0  0  0  0  0  0  0  0  0  0  0  0
  141.6561   71.9494  227.4152 H   0  0  0  0  0  0  0  0  0  0  0  0
  1  2  2  0
  2  3  1  0
  3  4  1  0
  4  5  1  0
  5  6  2  0
  5  7  1  0
  7  8  1  0
  8  9  1  0
  9 10  1  0
  9 11  1  0
 11 12  1  0
 11 13  1  0
 13 14  1  0
 14 15  1  0
 15 16  1  0
 16 17  1  0
 17 18  1  0
  2 19  1  0
 19 20  2  0
 20 21  1  0
 21 22  2  0
 22 23  1  0
 23 24  2  0
 24 25  1  0
 24 26  1  0
 26 27  2  0
 27 28  1  0
 28 29  2  0
 13  7  1  0
 18 14  1  0
 29 19  1  0
 28 22  1  0
  3 30  1  0
  4 31  1  0
  4 32  1  0
  8 33  1  0
  8 34  1  0
  9 35  1  1
 10 36  1  0
 11 37  1  1
 12 38  1  0
 13 39  1  6
 14 40  1  0
 15 41  1  0
 15 42  1  0
 16 43  1  0
 16 44  1  0
 17 45  1  0
 17 46  1  0
 18 47  1  0
 18 48  1  0
 20 49  1  0
 21 50  1  0
 23 51  1  0
 26 52  1  0
 27 53  1  0
M  END
>  <smiles>  (2) 
O=C(NCC(=O)N1C[C@H](O)[C@H](O)[C@H]1C1CCCC1)c1ccc2cc(F)ccc2n1

>  <score_type>  (2) 
oracle

>  <origin>  (2) 
autodockgpu

>  <m_score__min__energy>  (2) 
-8.3100000000000005

>  <m_primary>  (2) 
energy

>  <rmsd>  (2) 
3.651167345933032

>  <m_score__min__rmsd>  (2) 
3.651167345933032

>  <meeko>  (2) 
{"free_energy": -8.25, "intermolecular_energy": -10.34, "internal_energy": -2.51, "cluster_size": 26, "cluster_id": 1, "rank_in_cluster": 3}

>  <energy>  (2) 
-8.28

>  <cluster_rmsd>  (2) 
0.41

>  <cluster>  (2) 
1

$$$$

     RDKit          3D

 53 56  0  0  0  0  0  0  0  0999 V2000
  140.0150   73.3560  222.6980 O   0  0  0  0  0  0  0  0  0  0  0  0
  140.2550   72.1230  222.6310 C   0  0  0  0  0  0  0  0  0  0  0  0
  140.6440   71.5780  221.3230 N   0  0  0  0  0  0  0  0  0  0  0  0
  140.7020   72.5300  220.2810 C   0  0  0  0  0  0  0  0  0  0  0  0
  141.6770   73.6070  220.2490 C   0  0  0  0  0  0  0  0  0  0  0  0
  141.1250   74.7420  220.6610 O   0  0  0  0  0  0  0  0  0  0  0  0
  143.0070   73.7230  219.9000 N   0  0  0  0  0  0  0  0  0  0  0  0
  144.0380   74.7380  220.1880 C   0  0  0  0  0  0  0  0  0  0  0  0
  145.1210   73.8330  220.8020 C   0  0  2  0  0  0  0  0  0  0  0  0
  146.3350   74.4620  220.9150 O   0  0  0  0  0  0  0  0  0  0  0  0
  145.0950   72.6930  219.8110 C   0  0  2  0  0  0  0  0  0  0  0  0
  146.1940   72.8100  218.9670 O   0  0  0  0  0  0  0  0  0  0  0  0
  143.7720   72.7810  219.0780 C   0  0  1  0  0  0  0  0  0  0  0  0
  143.1760   71.4660  218.7990 C   0  0  0  0  0  0  0  0  0  0  0  0
  143.9390   70.8940  217.5830 C   0  0  0  0  0  0  0  0  0  0  0  0
  144.9100   69.8840  218.0830 C   0  0  0  0  0  0  0  0  0  0  0  0
  144.3840   69.4360  219.4080 C   0  0  0  0  0  0  0  0  0  0  0  0
  143.3220   70.4240  219.8470 C   0  0  0  0  0  0  0  0  0  0  0  0
  140.1640   71.2270  223.7710 C   0  0  0  0  0  0  0  0  0  0  0  0
  139.5490   70.0100  223.5650 C   0  0  0  0  0  0  0  0  0  0  0  0
  139.4460   69.1360  224.6270 C   0  0  0  0  0  0  0  0  0  0  0  0
  139.9580   69.4880  225.8720 C   0  0  0  0  0  0  0  0  0  0  0  0
  139.8640   68.6240  226.9520 C   0  0  0  0  0  0  0  0  0  0  0  0
  140.3870   69.0180  228.1710 C   0  0  0  0  0  0  0  0  0  0  0  0
  140.3200   68.2010  229.2640 F   0  0  0  0  0  0  0  0  0  0  0  0
  140.9960   70.2420  228.3420 C   0  0  0  0  0  0  0  0  0  0  0  0
  141.0870   71.0980  227.2650 C   0  0  0  0  0  0  0  0  0  0  0  0
  140.5680   70.7140  226.0470 C   0  0  0  0  0  0  0  0  0  0  0  0
  140.6580   71.5550  224.9960 N   0  0  0  0  0  0  0  0  0  0  0  0
  140.8200   70.5740  221.3500 H   0  0  0  0  0  0  0  0  0  0  0  0
  140.8524   71.9568  219.3543 H   0  0  0  0  0  0  0  0  0  0  0  0
  139.7649   73.0848  220.4361 H   0  0  0  0  0  0  0  0  0  0  0  0
  144.3902   75.2364  219.2728 H   0  0  0  0  0  0  0  0  0  0  0  0
  143.7087   75.5722  220.8249 H   0  0  0  0  0  0  0  0  0  0  0  0
  144.9456   73.5209  221.8421 H   0  0  0  0  0  0  0  0  0  0  0  0
  146.6860   74.6280  220.0220 H   0  0  0  0  0  0  0  0  0  0  0  0
  145.1674   71.7053  220.2898 H   0  0  0  0  0  0  0  0  0  0  0  0
  146.4010   73.7540  218.8590 H   0  0  0  0  0  0  0  0  0  0  0  0
  143.8372   73.1550  218.0456 H   0  0  0  0  0  0  0  0  0  0  0  0
  142.0992   71.6577  218.6818 H   0  0  0  0  0  0  0  0  0  0  0  0
  143.2311   70.4190  216.8879 H   0  0  0  0  0  0  0  0  0  0  0  0
  144.4657   71.6989  217.0493 H   0  0  0  0  0  0  0  0  0  0  0  0
  144.9709   69.0339  217.3876 H   0  0  0  0  0  0  0  0  0  0  0  0
  145.9229   70.3040  218.1701 H   0  0  0  0  0  0  0  0  0  0  0  0
  143.9446   68.4318  219.3153 H   0  0  0  0  0  0  0  0  0  0  0  0
  145.1968   69.3938  220.1480 H   0  0  0  0  0  0  0  0  0  0  0  0
  142.3642   69.9007  219.9842 H   0  0  0  0  0  0  0  0  0  0  0  0
  143.6154   70.8899  220.7993 H   0  0  0  0  0  0  0  0  0  0  0  0
  139.1495   69.7423  222.5757 H   0  0  0  0  0  0  0  0  0  0  0  0
  138.9585   68.1595  224.4896 H   0  0  0  0  0  0  0  0  0  0  0  0
  139.3817   67.6415  226.8418 H   0  0  0  0  0  0  0  0  0  0  0  0
  141.4031   70.5316  229.3220 H   0  0  0  0  0  0  0  0  0  0  0  0
  141.5701   72.0799  227.3768 H   0  0  0  0  0  0  0  0  0  0  0  0
  1  2  2  0
  2  3  1  0
  3  4  1  0
  4  5  1  0
  5  6  2  0
  5  7  1  0
  7  8  1  0
  8  9  1  0
  9 10  1  0
  9 11  1  0
 11 12  1  0
 11 13  1  0
 13 14  1  0
 14 15  1  0
 15 16  1  0
 16 17  1  0
 17 18  1  0
  2 19  1  0
 19 20  2  0
 20 21  1  0
 21 22  2  0
 22 23  1  0
 23 24  2  0
 24 25  1  0
 24 26  1  0
 26 27  2  0
 27 28  1  0
 28 29  2  0
 13  7  1  0
 18 14  1  0
 29 19  1  0
 28 22  1  0
  3 30  1  0
  4 31  1  0
  4 32  1  0
  8 33  1  0
  8 34  1  0
  9 35  1  1
 10 36  1  0
 11 37  1  1
 12 38  1  0
 13 39  1  6
 14 40  1  0
 15 41  1  0
 15 42  1  0
 16 43  1  0
 16 44  1  0
 17 45  1  0
 17 46  1  0
 18 47  1  0
 18 48  1  0
 20 49  1  0
 21 50  1  0
 23 51  1  0
 26 52  1  0
 27 53  1  0
M  END
>  <smiles>  (3) 
O=C(NCC(=O)N1C[C@H](O)[C@H](O)[C@H]1C1CCCC1)c1ccc2cc(F)ccc2n1

>  <score_type>  (3) 
oracle

>  <origin>  (3) 
autodockgpu

>  <m_score__min__energy>  (3) 
-8.3100000000000005

>  <m_primary>  (3) 
energy

>  <rmsd>  (3) 
3.600597797223472

>  <m_score__min__rmsd>  (3) 
3.600597797223472

>  <meeko>  (3) 
{"free_energy": -8.28, "intermolecular_energy": -10.37, "internal_energy": -2.59, "cluster_size": 26, "cluster_id": 1, "rank_in_cluster": 2}

>  <energy>  (3) 
-8.25

>  <cluster_rmsd>  (3) 
0.14

>  <cluster>  (3) 
1

$$$$

     RDKit          3D

 53 56  0  0  0  0  0  0  0  0999 V2000
  141.3830   72.6660  221.9220 O   0  0  0  0  0  0  0  0  0  0  0  0
  140.3520   72.5670  222.6350 C   0  0  0  0  0  0  0  0  0  0  0  0
  139.2340   73.4740  222.3380 N   0  0  0  0  0  0  0  0  0  0  0  0
  139.4640   74.3620  221.2630 C   0  0  0  0  0  0  0  0  0  0  0  0
  139.6990   75.7830  221.4510 C   0  0  0  0  0  0  0  0  0  0  0  0
  138.8730   76.2710  222.3700 O   0  0  0  0  0  0  0  0  0  0  0  0
  140.5570   76.7200  220.9130 N   0  0  0  0  0  0  0  0  0  0  0  0
  141.1350   76.9010  219.5680 C   0  0  0  0  0  0  0  0  0  0  0  0
  140.6890   78.3480  219.2920 C   0  0  2  0  0  0  0  0  0  0  0  0
  141.3270   78.9020  218.2120 O   0  0  0  0  0  0  0  0  0  0  0  0
  141.0360   78.9820  220.6190 C   0  0  2  0  0  0  0  0  0  0  0  0
  142.2130   79.7080  220.4720 O   0  0  0  0  0  0  0  0  0  0  0  0
  141.1570   77.8530  221.6240 C   0  0  1  0  0  0  0  0  0  0  0  0
  140.6210   78.1990  222.9490 C   0  0  0  0  0  0  0  0  0  0  0  0
  141.8130   78.7400  223.7700 C   0  0  0  0  0  0  0  0  0  0  0  0
  141.7130   80.2240  223.8030 C   0  0  0  0  0  0  0  0  0  0  0  0
  140.2750   80.5400  223.5420 C   0  0  0  0  0  0  0  0  0  0  0  0
  139.6120   79.2870  223.0050 C   0  0  0  0  0  0  0  0  0  0  0  0
  140.2180   71.6130  223.7230 C   0  0  0  0  0  0  0  0  0  0  0  0
  139.6050   70.4130  223.4320 C   0  0  0  0  0  0  0  0  0  0  0  0
  139.4610   69.4860  224.4420 C   0  0  0  0  0  0  0  0  0  0  0  0
  139.9320   69.7680  225.7210 C   0  0  0  0  0  0  0  0  0  0  0  0
  139.7970   68.8490  226.7500 C   0  0  0  0  0  0  0  0  0  0  0  0
  140.2810   69.1760  228.0050 C   0  0  0  0  0  0  0  0  0  0  0  0
  140.1720   68.3020  229.0510 F   0  0  0  0  0  0  0  0  0  0  0  0
  140.8900   70.3850  228.2600 C   0  0  0  0  0  0  0  0  0  0  0  0
  141.0210   71.2950  227.2330 C   0  0  0  0  0  0  0  0  0  0  0  0
  140.5420   70.9790  225.9800 C   0  0  0  0  0  0  0  0  0  0  0  0
  140.6720   71.8730  224.9780 N   0  0  0  0  0  0  0  0  0  0  0  0
  138.4370   73.3340  222.9570 H   0  0  0  0  0  0  0  0  0  0  0  0
  140.3473   73.9755  220.7335 H   0  0  0  0  0  0  0  0  0  0  0  0
  138.4839   74.3637  220.7635 H   0  0  0  0  0  0  0  0  0  0  0  0
  142.2307   76.8038  219.5758 H   0  0  0  0  0  0  0  0  0  0  0  0
  140.8162   76.1619  218.8182 H   0  0  0  0  0  0  0  0  0  0  0  0
  139.6350   78.4728  219.0031 H   0  0  0  0  0  0  0  0  0  0  0  0
  141.5630   79.8230  218.4260 H   0  0  0  0  0  0  0  0  0  0  0  0
  140.2700   79.6881  220.9721 H   0  0  0  0  0  0  0  0  0  0  0  0
  142.7660   79.2690  219.8040 H   0  0  0  0  0  0  0  0  0  0  0  0
  142.1862   77.6034  221.9215 H   0  0  0  0  0  0  0  0  0  0  0  0
  140.1280   77.2834  223.3076 H   0  0  0  0  0  0  0  0  0  0  0  0
  141.7729   78.3403  224.7940 H   0  0  0  0  0  0  0  0  0  0  0  0
  142.7641   78.4313  223.3116 H   0  0  0  0  0  0  0  0  0  0  0  0
  142.0168   80.6068  224.7885 H   0  0  0  0  0  0  0  0  0  0  0  0
  142.3726   80.6914  223.0571 H   0  0  0  0  0  0  0  0  0  0  0  0
  139.7851   80.8507  224.4766 H   0  0  0  0  0  0  0  0  0  0  0  0
  140.1892   81.3605  222.8144 H   0  0  0  0  0  0  0  0  0  0  0  0
  138.7863   78.9918  223.6692 H   0  0  0  0  0  0  0  0  0  0  0  0
  139.2114   79.4778  221.9985 H   0  0  0  0  0  0  0  0  0  0  0  0
  139.2390   70.2000  222.4168 H   0  0  0  0  0  0  0  0  0  0  0  0
  138.9730   68.5218  224.2368 H   0  0  0  0  0  0  0  0  0  0  0  0
  139.3137   67.8769  226.5724 H   0  0  0  0  0  0  0  0  0  0  0  0
  141.2656   70.6204  229.2667 H   0  0  0  0  0  0  0  0  0  0  0  0
  141.5045   72.2666  227.4123 H   0  0  0  0  0  0  0  0  0  0  0  0
  1  2  2  0
  2  3  1  0
  3  4  1  0
  4  5  1  0
  5  6  2  0
  5  7  1  0
  7  8  1  0
  8  9  1  0
  9 10  1  0
  9 11  1  0
 11 12  1  0
 11 13  1  0
 13 14  1  0
 14 15  1  0
 15 16  1  0
 16 17  1  0
 17 18  1  0
  2 19  1  0
 19 20  2  0
 20 21  1  0
 21 22  2  0
 22 23  1  0
 23 24  2  0
 24 25  1  0
 24 26  1  0
 26 27  2  0
 27 28  1  0
 28 29  2  0
 13  7  1  0
 18 14  1  0
 29 19  1  0
 28 22  1  0
  3 30  1  0
  4 31  1  0
  4 32  1  0
  8 33  1  0
  8 34  1  0
  9 35  1  6
 10 36  1  0
 11 37  1  1
 12 38  1  0
 13 39  1  1
 14 40  1  0
 15 41  1  0
 15 42  1  0
 16 43  1  0
 16 44  1  0
 17 45  1  0
 17 46  1  0
 18 47  1  0
 18 48  1  0
 20 49  1  0
 21 50  1  0
 23 51  1  0
 26 52  1  0
 27 53  1  0
M  END
>  <smiles>  (4) 
O=C(NCC(=O)N1C[C@H](O)[C@H](O)[C@H]1C1CCCC1)c1ccc2cc(F)ccc2n1

>  <score_type>  (4) 
oracle

>  <origin>  (4) 
autodockgpu

>  <m_score__min__energy>  (4) 
-8.3100000000000005

>  <m_primary>  (4) 
energy

>  <rmsd>  (4) 
2.606369562893871

>  <m_score__min__rmsd>  (4) 
2.606369562893871

>  <meeko>  (4) 
{"free_energy": -7.87, "intermolecular_energy": -9.96, "internal_energy": -2.54, "cluster_size": 17, "cluster_id": 2, "rank_in_cluster": 10}

>  <energy>  (4) 
-8.04

>  <cluster_rmsd>  (4) 
1.06

>  <cluster>  (4) 
1

$$$$

     RDKit          3D

 53 56  0  0  0  0  0  0  0  0999 V2000
  140.6680   72.9530  222.6540 O   0  0  0  0  0  0  0  0  0  0  0  0
  140.4970   71.7310  222.8990 C   0  0  0  0  0  0  0  0  0  0  0  0
  140.2660   70.8380  221.7560 N   0  0  0  0  0  0  0  0  0  0  0  0
  140.2650   71.4780  220.4960 C   0  0  0  0  0  0  0  0  0  0  0  0
  141.4840   71.8030  219.7760 C   0  0  0  0  0  0  0  0  0  0  0  0
  141.4690   71.2510  218.5680 O   0  0  0  0  0  0  0  0  0  0  0  0
  142.6240   72.5340  220.0450 N   0  0  0  0  0  0  0  0  0  0  0  0
  144.0410   72.1610  220.2150 C   0  0  0  0  0  0  0  0  0  0  0  0
  144.6760   73.0920  219.1670 C   0  0  2  0  0  0  0  0  0  0  0  0
  146.0400   73.1760  219.2900 O   0  0  0  0  0  0  0  0  0  0  0  0
  143.9380   74.3730  219.4810 C   0  0  2  0  0  0  0  0  0  0  0  0
  144.7840   75.2110  220.1980 O   0  0  0  0  0  0  0  0  0  0  0  0
  142.6940   73.9820  220.2540 C   0  0  1  0  0  0  0  0  0  0  0  0
  141.5160   74.7890  219.9000 C   0  0  0  0  0  0  0  0  0  0  0  0
  141.0070   75.4120  221.2200 C   0  0  0  0  0  0  0  0  0  0  0  0
  141.4490   76.8310  221.2590 C   0  0  0  0  0  0  0  0  0  0  0  0
  141.6900   77.2210  219.8360 C   0  0  0  0  0  0  0  0  0  0  0  0
  141.7410   75.9540  219.0070 C   0  0  0  0  0  0  0  0  0  0  0  0
  140.5170   71.1720  224.2400 C   0  0  0  0  0  0  0  0  0  0  0  0
  140.7930   72.0390  225.2760 C   0  0  0  0  0  0  0  0  0  0  0  0
  140.8200   71.5400  226.5620 C   0  0  0  0  0  0  0  0  0  0  0  0
  140.5700   70.1910  226.7920 C   0  0  0  0  0  0  0  0  0  0  0  0
  140.5930   69.6710  228.0770 C   0  0  0  0  0  0  0  0  0  0  0  0
  140.3390   68.3220  228.2560 C   0  0  0  0  0  0  0  0  0  0  0  0
  140.3490   67.7630  229.5030 F   0  0  0  0  0  0  0  0  0  0  0  0
  140.0650   67.4840  227.1970 C   0  0  0  0  0  0  0  0  0  0  0  0
  140.0440   68.0070  225.9220 C   0  0  0  0  0  0  0  0  0  0  0  0
  140.2960   69.3490  225.7340 C   0  0  0  0  0  0  0  0  0  0  0  0
  140.2760   69.8560  224.4830 N   0  0  0  0  0  0  0  0  0  0  0  0
  140.1350   69.8650  222.0340 H   0  0  0  0  0  0  0  0  0  0  0  0
  139.6805   70.8297  219.8266 H   0  0  0  0  0  0  0  0  0  0  0  0
  139.8879   72.4781  220.7559 H   0  0  0  0  0  0  0  0  0  0  0  0
  144.4036   72.3784  221.2305 H   0  0  0  0  0  0  0  0  0  0  0  0
  144.2623   71.0912  220.0863 H   0  0  0  0  0  0  0  0  0  0  0  0
  144.5764   72.7671  218.1208 H   0  0  0  0  0  0  0  0  0  0  0  0
  146.3130   74.0950  219.1230 H   0  0  0  0  0  0  0  0  0  0  0  0
  143.6338   74.9264  218.5803 H   0  0  0  0  0  0  0  0  0  0  0  0
  145.6950   74.8840  220.1050 H   0  0  0  0  0  0  0  0  0  0  0  0
  142.7276   74.2017  221.3313 H   0  0  0  0  0  0  0  0  0  0  0  0
  140.8439   74.0997  219.3679 H   0  0  0  0  0  0  0  0  0  0  0  0
  139.9088   75.3620  221.2572 H   0  0  0  0  0  0  0  0  0  0  0  0
  141.4111   74.8621  222.0828 H   0  0  0  0  0  0  0  0  0  0  0  0
  140.6664   77.4641  221.7025 H   0  0  0  0  0  0  0  0  0  0  0  0
  142.3534   76.9570  221.8724 H   0  0  0  0  0  0  0  0  0  0  0  0
  140.8726   77.8664  219.4820 H   0  0  0  0  0  0  0  0  0  0  0  0
  142.6357   77.7755  219.7461 H   0  0  0  0  0  0  0  0  0  0  0  0
  140.9577   75.9852  218.2354 H   0  0  0  0  0  0  0  0  0  0  0  0
  142.7224   75.8663  218.5180 H   0  0  0  0  0  0  0  0  0  0  0  0
  140.9872   73.1041  225.0816 H   0  0  0  0  0  0  0  0  0  0  0  0
  141.0395   72.2097  227.4065 H   0  0  0  0  0  0  0  0  0  0  0  0
  140.8093   70.3190  228.9392 H   0  0  0  0  0  0  0  0  0  0  0  0
  139.8663   66.4154  227.3664 H   0  0  0  0  0  0  0  0  0  0  0  0
  139.8277   67.3580  225.0606 H   0  0  0  0  0  0  0  0  0  0  0  0
  1  2  2  0
  2  3  1  0
  3  4  1  0
  4  5  1  0
  5  6  2  0
  5  7  1  0
  7  8  1  0
  8  9  1  0
  9 10  1  0
  9 11  1  0
 11 12  1  0
 11 13  1  0
 13 14  1  0
 14 15  1  0
 15 16  1  0
 16 17  1  0
 17 18  1  0
  2 19  1  0
 19 20  2  0
 20 21  1  0
 21 22  2  0
 22 23  1  0
 23 24  2  0
 24 25  1  0
 24 26  1  0
 26 27  2  0
 27 28  1  0
 28 29  2  0
 13  7  1  0
 18 14  1  0
 29 19  1  0
 28 22  1  0
  3 30  1  0
  4 31  1  0
  4 32  1  0
  8 33  1  0
  8 34  1  0
  9 35  1  6
 10 36  1  0
 11 37  1  6
 12 38  1  0
 13 39  1  1
 14 40  1  0
 15 41  1  0
 15 42  1  0
 16 43  1  0
 16 44  1  0
 17 45  1  0
 17 46  1  0
 18 47  1  0
 18 48  1  0
 20 49  1  0
 21 50  1  0
 23 51  1  0
 26 52  1  0
 27 53  1  0
M  END
>  <smiles>  (5) 
O=C(NCC(=O)N1C[C@H](O)[C@H](O)[C@H]1C1CCCC1)c1ccc2cc(F)ccc2n1

>  <score_type>  (5) 
oracle

>  <origin>  (5) 
autodockgpu

>  <m_score__min__energy>  (5) 
-8.3100000000000005

>  <m_primary>  (5) 
energy

>  <rmsd>  (5) 
4.0520146764843545

>  <m_score__min__rmsd>  (5) 
4.0520146764843545

>  <meeko>  (5) 
{"free_energy": -7.27, "intermolecular_energy": -9.35, "internal_energy": -3.23, "cluster_size": 26, "cluster_id": 1, "rank_in_cluster": 24}

>  <energy>  (5) 
-8.0

>  <cluster_rmsd>  (5) 
1.06

>  <cluster>  (5) 
1

$$$$

     RDKit          3D

 53 56  0  0  0  0  0  0  0  0999 V2000
  141.2090   71.9690  221.7170 O   0  0  0  0  0  0  0  0  0  0  0  0
  140.2860   72.0390  222.5690 C   0  0  0  0  0  0  0  0  0  0  0  0
  139.2590   73.0710  222.3710 N   0  0  0  0  0  0  0  0  0  0  0  0
  139.4410   73.8730  221.2220 C   0  0  0  0  0  0  0  0  0  0  0  0
  140.5590   74.7880  221.0670 C   0  0  0  0  0  0  0  0  0  0  0  0
  140.9180   75.2830  222.2460 O   0  0  0  0  0  0  0  0  0  0  0  0
  141.3160   75.2500  220.0100 N   0  0  0  0  0  0  0  0  0  0  0  0
  141.1470   76.3690  219.0640 C   0  0  0  0  0  0  0  0  0  0  0  0
  142.4890   77.0900  219.2810 C   0  0  2  0  0  0  0  0  0  0  0  0
  142.7460   78.0320  218.3170 O   0  0  0  0  0  0  0  0  0  0  0  0
  143.4240   75.9030  219.2620 C   0  0  2  0  0  0  0  0  0  0  0  0
  144.0670   75.8610  218.0300 O   0  0  0  0  0  0  0  0  0  0  0  0
  142.5770   74.6760  219.5320 C   0  0  1  0  0  0  0  0  0  0  0  0
  143.2510   73.6840  220.3840 C   0  0  0  0  0  0  0  0  0  0  0  0
  143.4240   72.4170  219.5170 C   0  0  0  0  0  0  0  0  0  0  0  0
  144.8370   72.3640  219.0560 C   0  0  0  0  0  0  0  0  0  0  0  0
  145.6130   73.1900  220.0310 C   0  0  0  0  0  0  0  0  0  0  0  0
  144.6260   74.0090  220.8380 C   0  0  0  0  0  0  0  0  0  0  0  0
  140.1920   71.1600  223.7220 C   0  0  0  0  0  0  0  0  0  0  0  0
  139.5840   69.9380  223.5290 C   0  0  0  0  0  0  0  0  0  0  0  0
  139.4770   69.0790  224.6040 C   0  0  0  0  0  0  0  0  0  0  0  0
  139.9780   69.4520  225.8470 C   0  0  0  0  0  0  0  0  0  0  0  0
  139.8810   68.6040  226.9390 C   0  0  0  0  0  0  0  0  0  0  0  0
  140.3930   69.0200  228.1550 C   0  0  0  0  0  0  0  0  0  0  0  0
  140.3220   68.2190  229.2610 F   0  0  0  0  0  0  0  0  0  0  0  0
  140.9960   70.2490  228.3120 C   0  0  0  0  0  0  0  0  0  0  0  0
  141.0900   71.0890  227.2230 C   0  0  0  0  0  0  0  0  0  0  0  0
  140.5820   70.6830  226.0070 C   0  0  0  0  0  0  0  0  0  0  0  0
  140.6750   71.5090  224.9440 N   0  0  0  0  0  0  0  0  0  0  0  0
  138.5470   73.0650  223.1000 H   0  0  0  0  0  0  0  0  0  0  0  0
  139.4983   73.1770  220.3721 H   0  0  0  0  0  0  0  0  0  0  0  0
  138.5942   74.5704  221.3029 H   0  0  0  0  0  0  0  0  0  0  0  0
  141.0332   76.0169  218.0281 H   0  0  0  0  0  0  0  0  0  0  0  0
  140.2518   76.9875  219.2255 H   0  0  0  0  0  0  0  0  0  0  0  0
  142.5596   77.6965  220.1960 H   0  0  0  0  0  0  0  0  0  0  0  0
  143.6940   78.0050  218.0970 H   0  0  0  0  0  0  0  0  0  0  0  0
  144.2115   75.9630  220.0276 H   0  0  0  0  0  0  0  0  0  0  0  0
  144.4510   76.7360  217.8510 H   0  0  0  0  0  0  0  0  0  0  0  0
  142.3878   74.0400  218.6547 H   0  0  0  0  0  0  0  0  0  0  0  0
  142.6245   73.6050  221.2847 H   0  0  0  0  0  0  0  0  0  0  0  0
  143.1923   71.5222  220.1134 H   0  0  0  0  0  0  0  0  0  0  0  0
  142.7419   72.4485  218.6545 H   0  0  0  0  0  0  0  0  0  0  0  0
  145.2019   71.3263  219.0569 H   0  0  0  0  0  0  0  0  0  0  0  0
  144.9430   72.7429  218.0288 H   0  0  0  0  0  0  0  0  0  0  0  0
  146.1898   72.5345  220.7001 H   0  0  0  0  0  0  0  0  0  0  0  0
  146.3147   73.8502  219.5003 H   0  0  0  0  0  0  0  0  0  0  0  0
  144.7299   73.7661  221.9058 H   0  0  0  0  0  0  0  0  0  0  0  0
  144.8237   75.0814  220.6933 H   0  0  0  0  0  0  0  0  0  0  0  0
  139.1930   69.6540  222.5408 H   0  0  0  0  0  0  0  0  0  0  0  0
  138.9950   68.0983  224.4777 H   0  0  0  0  0  0  0  0  0  0  0  0
  139.4051   67.6172  226.8405 H   0  0  0  0  0  0  0  0  0  0  0  0
  141.3958   70.5548  229.2901 H   0  0  0  0  0  0  0  0  0  0  0  0
  141.5665   72.0754  227.3233 H   0  0  0  0  0  0  0  0  0  0  0  0
  1  2  2  0
  2  3  1  0
  3  4  1  0
  4  5  1  0
  5  6  2  0
  5  7  1  0
  7  8  1  0
  8  9  1  0
  9 10  1  0
  9 11  1  0
 11 12  1  0
 11 13  1  0
 13 14  1  0
 14 15  1  0
 15 16  1  0
 16 17  1  0
 17 18  1  0
  2 19  1  0
 19 20  2  0
 20 21  1  0
 21 22  2  0
 22 23  1  0
 23 24  2  0
 24 25  1  0
 24 26  1  0
 26 27  2  0
 27 28  1  0
 28 29  2  0
 13  7  1  0
 18 14  1  0
 29 19  1  0
 28 22  1  0
  3 30  1  0
  4 31  1  0
  4 32  1  0
  8 33  1  0
  8 34  1  0
  9 35  1  1
 10 36  1  0
 11 37  1  1
 12 38  1  0
 13 39  1  6
 14 40  1  0
 15 41  1  0
 15 42  1  0
 16 43  1  0
 16 44  1  0
 17 45  1  0
 17 46  1  0
 18 47  1  0
 18 48  1  0
 20 49  1  0
 21 50  1  0
 23 51  1  0
 26 52  1  0
 27 53  1  0
M  END
>  <smiles>  (6) 
O=C(NCC(=O)N1C[C@H](O)[C@H](O)[C@H]1C1CCCC1)c1ccc2cc(F)ccc2n1

>  <score_type>  (6) 
oracle

>  <origin>  (6) 
autodockgpu

>  <m_score__min__energy>  (6) 
-8.3100000000000005

>  <m_primary>  (6) 
energy

>  <rmsd>  (6) 
2.1922760491174658

>  <m_score__min__rmsd>  (6) 
2.1922760491174658

>  <meeko>  (6) 
{"free_energy": -7.81, "intermolecular_energy": -9.9, "internal_energy": -2.9, "cluster_size": 17, "cluster_id": 2, "rank_in_cluster": 12}

>  <energy>  (6) 
-7.99

>  <cluster_rmsd>  (6) 
1.13

>  <cluster>  (6) 
1

$$$$

     RDKit          3D

 53 56  0  0  0  0  0  0  0  0999 V2000
  141.4070   72.6030  221.5980 O   0  0  0  0  0  0  0  0  0  0  0  0
  140.4770   72.6880  222.4400 C   0  0  0  0  0  0  0  0  0  0  0  0
  139.5690   73.8390  222.3310 N   0  0  0  0  0  0  0  0  0  0  0  0
  139.8630   74.7250  221.2710 C   0  0  0  0  0  0  0  0  0  0  0  0
  140.7090   75.8950  221.4320 C   0  0  0  0  0  0  0  0  0  0  0  0
  140.7840   76.2390  222.7120 O   0  0  0  0  0  0  0  0  0  0  0  0
  141.4360   76.7100  220.5880 N   0  0  0  0  0  0  0  0  0  0  0  0
  142.1090   76.4780  219.2960 C   0  0  0  0  0  0  0  0  0  0  0  0
  141.4390   77.5810  218.4580 C   0  0  2  0  0  0  0  0  0  0  0  0
  142.0760   77.7990  217.2630 O   0  0  0  0  0  0  0  0  0  0  0  0
  141.5260   78.7330  219.4330 C   0  0  2  0  0  0  0  0  0  0  0  0
  142.5600   79.5740  219.0400 O   0  0  0  0  0  0  0  0  0  0  0  0
  141.7430   78.1270  220.8050 C   0  0  1  0  0  0  0  0  0  0  0  0
  141.0170   78.8350  221.8710 C   0  0  0  0  0  0  0  0  0  0  0  0
  142.0280   79.0340  223.0230 C   0  0  0  0  0  0  0  0  0  0  0  0
  142.5010   80.4440  222.9810 C   0  0  0  0  0  0  0  0  0  0  0  0
  141.4400   81.2060  222.2540 C   0  0  0  0  0  0  0  0  0  0  0  0
  140.5360   80.2050  221.5640 C   0  0  0  0  0  0  0  0  0  0  0  0
  140.2620   71.7160  223.4980 C   0  0  0  0  0  0  0  0  0  0  0  0
  139.5650   70.5740  223.1670 C   0  0  0  0  0  0  0  0  0  0  0  0
  139.3430   69.6310  224.1490 C   0  0  0  0  0  0  0  0  0  0  0  0
  139.8190   69.8410  225.4390 C   0  0  0  0  0  0  0  0  0  0  0  0
  139.6070   68.9060  226.4390 C   0  0  0  0  0  0  0  0  0  0  0  0
  140.0990   69.1600  227.7070 C   0  0  0  0  0  0  0  0  0  0  0  0
  139.9160   68.2670  228.7260 F   0  0  0  0  0  0  0  0  0  0  0  0
  140.7930   70.3130  228.0030 C   0  0  0  0  0  0  0  0  0  0  0  0
  141.0010   71.2400  227.0050 C   0  0  0  0  0  0  0  0  0  0  0  0
  140.5140   70.9950  225.7380 C   0  0  0  0  0  0  0  0  0  0  0  0
  140.7200   71.9060  224.7640 N   0  0  0  0  0  0  0  0  0  0  0  0
  138.8430   73.8390  223.0470 H   0  0  0  0  0  0  0  0  0  0  0  0
  140.3353   74.1145  220.4873 H   0  0  0  0  0  0  0  0  0  0  0  0
  138.8808   75.1857  221.0891 H   0  0  0  0  0  0  0  0  0  0  0  0
  143.1971   76.6219  219.3686 H   0  0  0  0  0  0  0  0  0  0  0  0
  142.0101   75.4592  218.8932 H   0  0  0  0  0  0  0  0  0  0  0  0
  140.4159   77.3628  218.1178 H   0  0  0  0  0  0  0  0  0  0  0  0
  142.3870   78.7220  217.2370 H   0  0  0  0  0  0  0  0  0  0  0  0
  140.6128   79.3457  219.4577 H   0  0  0  0  0  0  0  0  0  0  0  0
  143.2520   79.0370  218.6180 H   0  0  0  0  0  0  0  0  0  0  0  0
  142.7638   78.2301  221.2017 H   0  0  0  0  0  0  0  0  0  0  0  0
  140.1281   78.2190  222.0718 H   0  0  0  0  0  0  0  0  0  0  0  0
  141.5391   78.8328  223.9876 H   0  0  0  0  0  0  0  0  0  0  0  0
  142.8763   78.3428  222.9107 H   0  0  0  0  0  0  0  0  0  0  0  0
  142.6249   80.8373  224.0008 H   0  0  0  0  0  0  0  0  0  0  0  0
  143.4769   80.5298  222.4808 H   0  0  0  0  0  0  0  0  0  0  0  0
  140.8565   81.8067  222.9672 H   0  0  0  0  0  0  0  0  0  0  0  0
  141.8935   81.8842  221.5162 H   0  0  0  0  0  0  0  0  0  0  0  0
  139.5051   80.3252  221.9285 H   0  0  0  0  0  0  0  0  0  0  0  0
  140.5539   80.3725  220.4770 H   0  0  0  0  0  0  0  0  0  0  0  0
  139.1942   70.4181  222.1432 H   0  0  0  0  0  0  0  0  0  0  0  0
  138.7885   68.7112  223.9115 H   0  0  0  0  0  0  0  0  0  0  0  0
  139.0567   67.9771  226.2284 H   0  0  0  0  0  0  0  0  0  0  0  0
  141.1747   70.4905  229.0193 H   0  0  0  0  0  0  0  0  0  0  0  0
  141.5513   72.1685  227.2171 H   0  0  0  0  0  0  0  0  0  0  0  0
  1  2  2  0
  2  3  1  0
  3  4  1  0
  4  5  1  0
  5  6  2  0
  5  7  1  0
  7  8  1  0
  8  9  1  0
  9 10  1  0
  9 11  1  0
 11 12  1  0
 11 13  1  0
 13 14  1  0
 14 15  1  0
 15 16  1  0
 16 17  1  0
 17 18  1  0
  2 19  1  0
 19 20  2  0
 20 21  1  0
 21 22  2  0
 22 23  1  0
 23 24  2  0
 24 25  1  0
 24 26  1  0
 26 27  2  0
 27 28  1  0
 28 29  2  0
 13  7  1  0
 18 14  1  0
 29 19  1  0
 28 22  1  0
  3 30  1  0
  4 31  1  0
  4 32  1  0
  8 33  1  0
  8 34  1  0
  9 35  1  6
 10 36  1  0
 11 37  1  1
 12 38  1  0
 13 39  1  1
 14 40  1  0
 15 41  1  0
 15 42  1  0
 16 43  1  0
 16 44  1  0
 17 45  1  0
 17 46  1  0
 18 47  1  0
 18 48  1  0
 20 49  1  0
 21 50  1  0
 23 51  1  0
 26 52  1  0
 27 53  1  0
M  END
>  <smiles>  (7) 
O=C(NCC(=O)N1C[C@H](O)[C@H](O)[C@H]1C1CCCC1)c1ccc2cc(F)ccc2n1

>  <score_type>  (7) 
oracle

>  <origin>  (7) 
autodockgpu

>  <m_score__min__energy>  (7) 
-8.3100000000000005

>  <m_primary>  (7) 
energy

>  <rmsd>  (7) 
2.4148775750554416

>  <m_score__min__rmsd>  (7) 
2.4148775750554416

>  <meeko>  (7) 
{"free_energy": -8.04, "intermolecular_energy": -10.13, "internal_energy": -2.58, "cluster_size": 17, "cluster_id": 2, "rank_in_cluster": 5}

>  <energy>  (7) 
-7.86

>  <cluster_rmsd>  (7) 
1.95

>  <cluster>  (7) 
1

$$$$

     RDKit          3D

 53 56  0  0  0  0  0  0  0  0999 V2000
  139.1030   70.8360  221.5230 O   0  0  0  0  0  0  0  0  0  0  0  0
  139.4350   71.3060  222.6410 C   0  0  0  0  0  0  0  0  0  0  0  0
  139.6890   72.7520  222.7180 N   0  0  0  0  0  0  0  0  0  0  0  0
  139.5240   73.4470  221.4990 C   0  0  0  0  0  0  0  0  0  0  0  0
  140.5550   73.5030  220.4770 C   0  0  0  0  0  0  0  0  0  0  0  0
  140.7980   72.2880  219.9980 O   0  0  0  0  0  0  0  0  0  0  0  0
  141.3200   74.4960  219.9010 N   0  0  0  0  0  0  0  0  0  0  0  0
  140.9890   75.8050  219.3070 C   0  0  0  0  0  0  0  0  0  0  0  0
  141.9150   76.7050  220.1440 C   0  0  2  0  0  0  0  0  0  0  0  0
  142.0370   77.9690  219.6240 O   0  0  0  0  0  0  0  0  0  0  0  0
  143.1820   75.8840  220.1000 C   0  0  2  0  0  0  0  0  0  0  0  0
  144.0560   76.4610  219.1860 O   0  0  0  0  0  0  0  0  0  0  0  0
  142.7740   74.4740  219.7210 C   0  0  1  0  0  0  0  0  0  0  0  0
  143.5420   73.4390  220.4310 C   0  0  0  0  0  0  0  0  0  0  0  0
  143.7990   72.3120  219.4050 C   0  0  0  0  0  0  0  0  0  0  0  0
  145.2020   72.4350  218.9270 C   0  0  0  0  0  0  0  0  0  0  0  0
  145.9290   73.1900  219.9940 C   0  0  0  0  0  0  0  0  0  0  0  0
  144.8960   73.8150  220.9100 C   0  0  0  0  0  0  0  0  0  0  0  0
  139.5780   70.4990  223.8400 C   0  0  0  0  0  0  0  0  0  0  0  0
  139.0920   69.2100  223.7880 C   0  0  0  0  0  0  0  0  0  0  0  0
  139.2100   68.4160  224.9100 C   0  0  0  0  0  0  0  0  0  0  0  0
  139.8120   68.9190  226.0600 C   0  0  0  0  0  0  0  0  0  0  0  0
  139.9410   68.1380  227.1970 C   0  0  0  0  0  0  0  0  0  0  0  0
  140.5460   68.6820  228.3170 C   0  0  0  0  0  0  0  0  0  0  0  0
  140.6960   67.9510  229.4620 F   0  0  0  0  0  0  0  0  0  0  0  0
  141.0210   69.9750  228.3330 C   0  0  0  0  0  0  0  0  0  0  0  0
  140.8910   70.7480  227.1990 C   0  0  0  0  0  0  0  0  0  0  0  0
  140.2890   70.2140  226.0800 C   0  0  0  0  0  0  0  0  0  0  0  0
  140.1620   70.9740  224.9720 N   0  0  0  0  0  0  0  0  0  0  0  0
  139.9540   73.0570  223.6540 H   0  0  0  0  0  0  0  0  0  0  0  0
  138.6404   73.0054  221.0150 H   0  0  0  0  0  0  0  0  0  0  0  0
  139.4956   74.4917  221.8421 H   0  0  0  0  0  0  0  0  0  0  0  0
  141.2370   75.8442  218.2360 H   0  0  0  0  0  0  0  0  0  0  0  0
  139.9231   76.0756  219.3344 H   0  0  0  0  0  0  0  0  0  0  0  0
  141.5659   76.9269  221.1633 H   0  0  0  0  0  0  0  0  0  0  0  0
  142.9750   78.2290  219.6500 H   0  0  0  0  0  0  0  0  0  0  0  0
  143.7086   75.8526  221.0653 H   0  0  0  0  0  0  0  0  0  0  0  0
  144.1230   77.4120  219.3800 H   0  0  0  0  0  0  0  0  0  0  0  0
  143.0169   74.1823  218.6886 H   0  0  0  0  0  0  0  0  0  0  0  0
  142.9418   73.1936  221.3196 H   0  0  0  0  0  0  0  0  0  0  0  0
  143.6522   71.3321  219.8827 H   0  0  0  0  0  0  0  0  0  0  0  0
  143.0993   72.3979  218.5606 H   0  0  0  0  0  0  0  0  0  0  0  0
  145.6489   71.4393  218.7895 H   0  0  0  0  0  0  0  0  0  0  0  0
  145.2564   72.9502  217.9566 H   0  0  0  0  0  0  0  0  0  0  0  0
  146.5697   72.5035  220.5669 H   0  0  0  0  0  0  0  0  0  0  0  0
  146.5647   73.9683  219.5466 H   0  0  0  0  0  0  0  0  0  0  0  0
  145.0407   73.4465  221.9363 H   0  0  0  0  0  0  0  0  0  0  0  0
  145.0042   74.9097  220.9035 H   0  0  0  0  0  0  0  0  0  0  0  0
  138.6207   68.8232  222.8724 H   0  0  0  0  0  0  0  0  0  0  0  0
  138.8281   67.3845  224.8959 H   0  0  0  0  0  0  0  0  0  0  0  0
  139.5689   67.1029  227.2096 H   0  0  0  0  0  0  0  0  0  0  0  0
  141.4966   70.3843  229.2365 H   0  0  0  0  0  0  0  0  0  0  0  0
  141.2647   71.7825  227.1873 H   0  0  0  0  0  0  0  0  0  0  0  0
  1  2  2  0
  2  3  1  0
  3  4  1  0
  4  5  1  0
  5  6  2  0
  5  7  1  0
  7  8  1  0
  8  9  1  0
  9 10  1  0
  9 11  1  0
 11 12  1  0
 11 13  1  0
 13 14  1  0
 14 15  1  0
 15 16  1  0
 16 17  1  0
 17 18  1  0
  2 19  1  0
 19 20  2  0
 20 21  1  0
 21 22  2  0
 22 23  1  0
 23 24  2  0
 24 25  1  0
 24 26  1  0
 26 27  2  0
 27 28  1  0
 28 29  2  0
 13  7  1  0
 18 14  1  0
 29 19  1  0
 28 22  1  0
  3 30  1  0
  4 31  1  0
  4 32  1  0
  8 33  1  0
  8 34  1  0
  9 35  1  1
 10 36  1  0
 11 37  1  1
 12 38  1  0
 13 39  1  6
 14 40  1  0
 15 41  1  0
 15 42  1  0
 16 43  1  0
 16 44  1  0
 17 45  1  0
 17 46  1  0
 18 47  1  0
 18 48  1  0
 20 49  1  0
 21 50  1  0
 23 51  1  0
 26 52  1  0
 27 53  1  0
M  END
>  <smiles>  (8) 
O=C(NCC(=O)N1C[C@H](O)[C@H](O)[C@H]1C1CCCC1)c1ccc2cc(F)ccc2n1

>  <score_type>  (8) 
oracle

>  <origin>  (8) 
autodockgpu

>  <m_score__min__energy>  (8) 
-8.3100000000000005

>  <m_primary>  (8) 
energy

>  <rmsd>  (8) 
2.404034649790138

>  <m_score__min__rmsd>  (8) 
2.404034649790138

>  <meeko>  (8) 
{"free_energy": -7.39, "intermolecular_energy": -9.48, "internal_energy": -2.87, "cluster_size": 5, "cluster_id": 3, "rank_in_cluster": 4}

>  <energy>  (8) 
-7.82

>  <cluster_rmsd>  (8) 
1.92

>  <cluster>  (8) 
1

$$$$

     RDKit          3D

 53 56  0  0  0  0  0  0  0  0999 V2000
  141.4110   72.4480  221.0320 O   0  0  0  0  0  0  0  0  0  0  0  0
  140.6540   72.7530  221.9890 C   0  0  0  0  0  0  0  0  0  0  0  0
  140.0690   74.1010  221.9860 N   0  0  0  0  0  0  0  0  0  0  0  0
  140.4390   74.9040  220.8830 C   0  0  0  0  0  0  0  0  0  0  0  0
  141.1630   76.1550  221.0260 C   0  0  0  0  0  0  0  0  0  0  0  0
  141.0480   76.6170  222.2660 O   0  0  0  0  0  0  0  0  0  0  0  0
  141.9240   76.9550  220.1970 N   0  0  0  0  0  0  0  0  0  0  0  0
  142.8150   76.6640  219.0580 C   0  0  0  0  0  0  0  0  0  0  0  0
  142.1740   77.5740  217.9960 C   0  0  2  0  0  0  0  0  0  0  0  0
  142.9660   77.7340  216.8870 O   0  0  0  0  0  0  0  0  0  0  0  0
  141.9810   78.8300  218.8150 C   0  0  2  0  0  0  0  0  0  0  0  0
  142.9700   79.7440  218.4700 O   0  0  0  0  0  0  0  0  0  0  0  0
  142.0400   78.4140  220.2710 C   0  0  1  0  0  0  0  0  0  0  0  0
  141.0840   79.1410  221.1200 C   0  0  0  0  0  0  0  0  0  0  0  0
  141.7740   79.3240  222.4900 C   0  0  0  0  0  0  0  0  0  0  0  0
  142.2710   80.7240  222.5710 C   0  0  0  0  0  0  0  0  0  0  0  0
  141.4450   81.5050  221.6000 C   0  0  0  0  0  0  0  0  0  0  0  0
  140.7250   80.5190  220.7020 C   0  0  0  0  0  0  0  0  0  0  0  0
  140.3370   71.8470  223.0790 C   0  0  0  0  0  0  0  0  0  0  0  0
  139.5870   70.7320  222.7700 C   0  0  0  0  0  0  0  0  0  0  0  0
  139.2680   69.8520  223.7830 C   0  0  0  0  0  0  0  0  0  0  0  0
  139.7010   70.0970  225.0820 C   0  0  0  0  0  0  0  0  0  0  0  0
  139.3910   69.2250  226.1140 C   0  0  0  0  0  0  0  0  0  0  0  0
  139.8440   69.5110  227.3900 C   0  0  0  0  0  0  0  0  0  0  0  0
  139.5640   68.6810  228.4400 F   0  0  0  0  0  0  0  0  0  0  0  0
  140.5920   70.6360  227.6640 C   0  0  0  0  0  0  0  0  0  0  0  0
  140.8980   71.5000  226.6340 C   0  0  0  0  0  0  0  0  0  0  0  0
  140.4510   71.2220  225.3600 C   0  0  0  0  0  0  0  0  0  0  0  0
  140.7520   72.0720  224.3550 N   0  0  0  0  0  0  0  0  0  0  0  0
  139.4690   74.2730  222.7920 H   0  0  0  0  0  0  0  0  0  0  0  0
  141.0603   74.2657  220.2376 H   0  0  0  0  0  0  0  0  0  0  0  0
  139.4594   75.2548  220.5261 H   0  0  0  0  0  0  0  0  0  0  0  0
  143.8564   76.9491  219.2683 H   0  0  0  0  0  0  0  0  0  0  0  0
  142.8900   75.6020  218.7813 H   0  0  0  0  0  0  0  0  0  0  0  0
  141.2470   77.1931  217.5425 H   0  0  0  0  0  0  0  0  0  0  0  0
  143.2500   78.6640  216.8360 H   0  0  0  0  0  0  0  0  0  0  0  0
  141.0155   79.3225  218.6271 H   0  0  0  0  0  0  0  0  0  0  0  0
  143.6530   79.2810  217.9540 H   0  0  0  0  0  0  0  0  0  0  0  0
  142.9675   78.6879  220.7951 H   0  0  0  0  0  0  0  0  0  0  0  0
  140.1606   78.5439  221.0898 H   0  0  0  0  0  0  0  0  0  0  0  0
  141.0529   79.1365  223.2992 H   0  0  0  0  0  0  0  0  0  0  0  0
  142.6088   78.6154  222.5952 H   0  0  0  0  0  0  0  0  0  0  0  0
  142.1406   81.1187  223.5894 H   0  0  0  0  0  0  0  0  0  0  0  0
  143.3433   80.7878  222.3342 H   0  0  0  0  0  0  0  0  0  0  0  0
  140.7122   82.1202  222.1428 H   0  0  0  0  0  0  0  0  0  0  0  0
  142.0843   82.1714  221.0023 H   0  0  0  0  0  0  0  0  0  0  0  0
  139.6381   80.6616  220.7930 H   0  0  0  0  0  0  0  0  0  0  0  0
  141.0216   80.6813  219.6552 H   0  0  0  0  0  0  0  0  0  0  0  0
  139.2507   70.5485  221.7389 H   0  0  0  0  0  0  0  0  0  0  0  0
  138.6703   68.9551  223.5633 H   0  0  0  0  0  0  0  0  0  0  0  0
  138.7949   68.3207  225.9219 H   0  0  0  0  0  0  0  0  0  0  0  0
  140.9390   70.8410  228.6875 H   0  0  0  0  0  0  0  0  0  0  0  0
  141.4941   72.4040  226.8274 H   0  0  0  0  0  0  0  0  0  0  0  0
  1  2  2  0
  2  3  1  0
  3  4  1  0
  4  5  1  0
  5  6  2  0
  5  7  1  0
  7  8  1  0
  8  9  1  0
  9 10  1  0
  9 11  1  0
 11 12  1  0
 11 13  1  0
 13 14  1  0
 14 15  1  0
 15 16  1  0
 16 17  1  0
 17 18  1  0
  2 19  1  0
 19 20  2  0
 20 21  1  0
 21 22  2  0
 22 23  1  0
 23 24  2  0
 24 25  1  0
 24 26  1  0
 26 27  2  0
 27 28  1  0
 28 29  2  0
 13  7  1  0
 18 14  1  0
 29 19  1  0
 28 22  1  0
  3 30  1  0
  4 31  1  0
  4 32  1  0
  8 33  1  0
  8 34  1  0
  9 35  1  6
 10 36  1  0
 11 37  1  6
 12 38  1  0
 13 39  1  1
 14 40  1  0
 15 41  1  0
 15 42  1  0
 16 43  1  0
 16 44  1  0
 17 45  1  0
 17 46  1  0
 18 47  1  0
 18 48  1  0
 20 49  1  0
 21 50  1  0
 23 51  1  0
 26 52  1  0
 27 53  1  0
M  END
>  <smiles>  (9) 
O=C(NCC(=O)N1C[C@H](O)[C@H](O)[C@H]1C1CCCC1)c1ccc2cc(F)ccc2n1

>  <score_type>  (9) 
oracle

>  <origin>  (9) 
autodockgpu

>  <m_score__min__energy>  (9) 
-8.3100000000000005

>  <m_primary>  (9) 
energy

>  <rmsd>  (9) 
2.596996283849093

>  <m_score__min__rmsd>  (9) 
2.596996283849093

>  <meeko>  (9) 
{"free_energy": -7.87, "intermolecular_energy": -9.96, "internal_energy": -2.49, "cluster_size": 17, "cluster_id": 2, "rank_in_cluster": 9}

>  <energy>  (9) 
-7.8

>  <cluster_rmsd>  (9) 
1.93

>  <cluster>  (9) 
1

$$$$

     RDKit          3D

 53 56  0  0  0  0  0  0  0  0999 V2000
  134.0020   69.3850  226.5270 O   0  0  0  0  0  0  0  0  0  0  0  0
  134.3330   70.5010  226.0510 C   0  0  0  0  0  0  0  0  0  0  0  0
  135.4120   70.5190  225.0540 N   0  0  0  0  0  0  0  0  0  0  0  0
  135.9550   69.2510  224.7480 C   0  0  0  0  0  0  0  0  0  0  0  0
  137.1400   69.0770  223.9250 C   0  0  0  0  0  0  0  0  0  0  0  0
  136.9290   68.1470  223.0010 O   0  0  0  0  0  0  0  0  0  0  0  0
  138.4000   69.6380  223.8800 N   0  0  0  0  0  0  0  0  0  0  0  0
  139.0770   70.5150  222.9060 C   0  0  0  0  0  0  0  0  0  0  0  0
  139.4880   71.6650  223.8410 C   0  0  2  0  0  0  0  0  0  0  0  0
  140.3970   72.5170  223.2660 O   0  0  0  0  0  0  0  0  0  0  0  0
  140.0260   70.8690  225.0070 C   0  0  2  0  0  0  0  0  0  0  0  0
  141.4160   70.8980  224.9650 O   0  0  0  0  0  0  0  0  0  0  0  0
  139.4590   69.4690  224.8790 C   0  0  1  0  0  0  0  0  0  0  0  0
  139.0980   68.8710  226.1730 C   0  0  0  0  0  0  0  0  0  0  0  0
  139.9070   67.5590  226.2830 C   0  0  0  0  0  0  0  0  0  0  0  0
  141.0610   67.8040  227.1890 C   0  0  0  0  0  0  0  0  0  0  0  0
  140.6700   68.9740  228.0350 C   0  0  0  0  0  0  0  0  0  0  0  0
  139.4660   69.6320  227.3940 C   0  0  0  0  0  0  0  0  0  0  0  0
  133.7070   71.7540  226.4380 C   0  0  0  0  0  0  0  0  0  0  0  0
  132.5490   71.6720  227.1820 C   0  0  0  0  0  0  0  0  0  0  0  0
  131.9290   72.8430  227.5640 C   0  0  0  0  0  0  0  0  0  0  0  0
  132.4720   74.0710  227.2010 C   0  0  0  0  0  0  0  0  0  0  0  0
  131.8640   75.2590  227.5760 C   0  0  0  0  0  0  0  0  0  0  0  0
  132.4420   76.4560  227.1910 C   0  0  0  0  0  0  0  0  0  0  0  0
  131.8800   77.6540  227.5370 F   0  0  0  0  0  0  0  0  0  0  0  0
  133.6010   76.5010  226.4470 C   0  0  0  0  0  0  0  0  0  0  0  0
  134.2020   75.3170  226.0770 C   0  0  0  0  0  0  0  0  0  0  0  0
  133.6330   74.1200  226.4560 C   0  0  0  0  0  0  0  0  0  0  0  0
  134.2240   72.9630  226.0910 N   0  0  0  0  0  0  0  0  0  0  0  0
  135.6230   71.4580  224.7170 H   0  0  0  0  0  0  0  0  0  0  0  0
  136.1845   68.7780  225.7142 H   0  0  0  0  0  0  0  0  0  0  0  0
  135.1729   68.8259  224.1018 H   0  0  0  0  0  0  0  0  0  0  0  0
  139.9500   70.0249  222.4503 H   0  0  0  0  0  0  0  0  0  0  0  0
  138.4667   70.8114  222.0402 H   0  0  0  0  0  0  0  0  0  0  0  0
  138.6841   72.3644  224.1141 H   0  0  0  0  0  0  0  0  0  0  0  0
  141.2380   72.0410  223.1430 H   0  0  0  0  0  0  0  0  0  0  0  0
  139.7298   71.2826  225.9823 H   0  0  0  0  0  0  0  0  0  0  0  0
  141.7010   71.8200  224.8400 H   0  0  0  0  0  0  0  0  0  0  0  0
  140.1751   68.7068  224.5381 H   0  0  0  0  0  0  0  0  0  0  0  0
  138.0007   68.7954  226.1585 H   0  0  0  0  0  0  0  0  0  0  0  0
  139.2711   66.7620  226.6959 H   0  0  0  0  0  0  0  0  0  0  0  0
  140.2612   67.2446  225.2902 H   0  0  0  0  0  0  0  0  0  0  0  0
  141.2488   66.9215  227.8182 H   0  0  0  0  0  0  0  0  0  0  0  0
  141.9849   68.0011  226.6255 H   0  0  0  0  0  0  0  0  0  0  0  0
  140.4135   68.6327  229.0488 H   0  0  0  0  0  0  0  0  0  0  0  0
  141.5030   69.6887  228.1080 H   0  0  0  0  0  0  0  0  0  0  0  0
  138.6227   69.6279  228.1003 H   0  0  0  0  0  0  0  0  0  0  0  0
  139.7060   70.6720  227.1280 H   0  0  0  0  0  0  0  0  0  0  0  0
  132.1295   70.6951  227.4643 H   0  0  0  0  0  0  0  0  0  0  0  0
  131.0032   72.8059  228.1569 H   0  0  0  0  0  0  0  0  0  0  0  0
  130.9379   75.2504  228.1695 H   0  0  0  0  0  0  0  0  0  0  0  0
  134.0394   77.4661  226.1532 H   0  0  0  0  0  0  0  0  0  0  0  0
  135.1284   75.3272  225.4839 H   0  0  0  0  0  0  0  0  0  0  0  0
  1  2  2  0
  2  3  1  0
  3  4  1  0
  4  5  1  0
  5  6  2  0
  5  7  1  0
  7  8  1  0
  8  9  1  0
  9 10  1  0
  9 11  1  0
 11 12  1  0
 11 13  1  0
 13 14  1  0
 14 15  1  0
 15 16  1  0
 16 17  1  0
 17 18  1  0
  2 19  1  0
 19 20  2  0
 20 21  1  0
 21 22  2  0
 22 23  1  0
 23 24  2  0
 24 25  1  0
 24 26  1  0
 26 27  2  0
 27 28  1  0
 28 29  2  0
 13  7  1  0
 18 14  1  0
 29 19  1  0
 28 22  1  0
  3 30  1  0
  4 31  1  0
  4 32  1  0
  8 33  1  0
  8 34  1  0
  9 35  1  1
 10 36  1  0
 11 37  1  1
 12 38  1  0
 13 39  1  6
 14 40  1  0
 15 41  1  0
 15 42  1  0
 16 43  1  0
 16 44  1  0
 17 45  1  0
 17 46  1  0
 18 47  1  0
 18 48  1  0
 20 49  1  0
 21 50  1  0
 23 51  1  0
 26 52  1  0
 27 53  1  0
M  END
>  <smiles>  (10) 
O=C(NCC(=O)N1C[C@H](O)[C@H](O)[C@H]1C1CCCC1)c1ccc2cc(F)ccc2n1

>  <score_type>  (10) 
oracle

>  <origin>  (10) 
autodockgpu

>  <m_score__min__energy>  (10) 
-8.3100000000000005

>  <m_primary>  (10) 
energy

>  <rmsd>  (10) 
8.493962352622393

>  <m_score__min__rmsd>  (10) 
8.493962352622393

>  <meeko>  (10) 
{"free_energy": -7.29, "intermolecular_energy": -9.38, "internal_energy": -3.01, "cluster_size": 1, "cluster_id": 4, "rank_in_cluster": 1}

>  <energy>  (10) 
-7.73

>  <cluster_rmsd>  (10) 
2.0

>  <cluster>  (10) 
1

$$$$

     RDKit          3D

 53 56  0  0  0  0  0  0  0  0999 V2000
  141.1190   71.8480  221.5160 O   0  0  0  0  0  0  0  0  0  0  0  0
  140.2880   72.0530  222.4380 C   0  0  0  0  0  0  0  0  0  0  0  0
  139.3950   73.2110  222.2990 N   0  0  0  0  0  0  0  0  0  0  0  0
  139.5850   73.9660  221.1200 C   0  0  0  0  0  0  0  0  0  0  0  0
  140.8330   74.6430  220.8100 C   0  0  0  0  0  0  0  0  0  0  0  0
  141.3290   75.2210  221.8980 O   0  0  0  0  0  0  0  0  0  0  0  0
  141.6040   74.8210  219.6790 N   0  0  0  0  0  0  0  0  0  0  0  0
  141.4700   75.6930  218.4960 C   0  0  0  0  0  0  0  0  0  0  0  0
  142.8350   76.4010  218.5470 C   0  0  2  0  0  0  0  0  0  0  0  0
  143.1210   77.0840  217.3920 O   0  0  0  0  0  0  0  0  0  0  0  0
  143.7310   75.2140  218.8130 C   0  0  2  0  0  0  0  0  0  0  0  0
  144.3710   74.8640  217.6300 O   0  0  0  0  0  0  0  0  0  0  0  0
  142.8450   74.1120  219.3570 C   0  0  1  0  0  0  0  0  0  0  0  0
  143.4870   73.3260  220.4210 C   0  0  0  0  0  0  0  0  0  0  0  0
  143.7110   71.9120  219.8390 C   0  0  0  0  0  0  0  0  0  0  0  0
  145.1440   71.7920  219.4600 C   0  0  0  0  0  0  0  0  0  0  0  0
  145.8670   72.8130  220.2790 C   0  0  0  0  0  0  0  0  0  0  0  0
  144.8370   73.7610  220.8590 C   0  0  0  0  0  0  0  0  0  0  0  0
  140.1740   71.2100  223.6160 C   0  0  0  0  0  0  0  0  0  0  0  0
  139.5430   69.9940  223.4570 C   0  0  0  0  0  0  0  0  0  0  0  0
  139.4170   69.1690  224.5550 C   0  0  0  0  0  0  0  0  0  0  0  0
  139.9220   69.5690  225.7890 C   0  0  0  0  0  0  0  0  0  0  0  0
  139.8060   68.7550  226.9050 C   0  0  0  0  0  0  0  0  0  0  0  0
  140.3220   69.1970  228.1100 C   0  0  0  0  0  0  0  0  0  0  0  0
  140.2320   68.4290  229.2380 F   0  0  0  0  0  0  0  0  0  0  0  0
  140.9470   70.4180  228.2330 C   0  0  0  0  0  0  0  0  0  0  0  0
  141.0600   71.2240  227.1210 C   0  0  0  0  0  0  0  0  0  0  0  0
  140.5480   70.7930  225.9150 C   0  0  0  0  0  0  0  0  0  0  0  0
  140.6600   71.5850  224.8290 N   0  0  0  0  0  0  0  0  0  0  0  0
  138.7510   73.3110  223.0840 H   0  0  0  0  0  0  0  0  0  0  0  0
  139.3979   73.2760  220.2840 H   0  0  0  0  0  0  0  0  0  0  0  0
  138.9079   74.8161  221.2897 H   0  0  0  0  0  0  0  0  0  0  0  0
  141.3432   75.1123  217.5704 H   0  0  0  0  0  0  0  0  0  0  0  0
  140.5957   76.3605  218.5028 H   0  0  0  0  0  0  0  0  0  0  0  0
  142.9268   77.2019  219.2954 H   0  0  0  0  0  0  0  0  0  0  0  0
  144.0610   76.9500  217.1730 H   0  0  0  0  0  0  0  0  0  0  0  0
  144.5207   75.4270  219.5485 H   0  0  0  0  0  0  0  0  0  0  0  0
  144.7960   75.6580  217.2620 H   0  0  0  0  0  0  0  0  0  0  0  0
  142.6345   73.2948  218.6514 H   0  0  0  0  0  0  0  0  0  0  0  0
  142.8199   73.4204  221.2905 H   0  0  0  0  0  0  0  0  0  0  0  0
  143.4601   71.1533  220.5949 H   0  0  0  0  0  0  0  0  0  0  0  0
  143.0690   71.7549  218.9597 H   0  0  0  0  0  0  0  0  0  0  0  0
  145.5177   70.7829  219.6882 H   0  0  0  0  0  0  0  0  0  0  0  0
  145.2937   71.9561  218.3827 H   0  0  0  0  0  0  0  0  0  0  0  0
  146.4183   72.3176  221.0918 H   0  0  0  0  0  0  0  0  0  0  0  0
  146.5862   73.3643  219.6555 H   0  0  0  0  0  0  0  0  0  0  0  0
  144.8936   73.7415  221.9574 H   0  0  0  0  0  0  0  0  0  0  0  0
  145.0320   74.7852  220.5082 H   0  0  0  0  0  0  0  0  0  0  0  0
  139.1490   69.6890  222.4763 H   0  0  0  0  0  0  0  0  0  0  0  0
  138.9171   68.1942  224.4555 H   0  0  0  0  0  0  0  0  0  0  0  0
  139.3122   67.7746  226.8337 H   0  0  0  0  0  0  0  0  0  0  0  0
  141.3495   70.7446  229.2032 H   0  0  0  0  0  0  0  0  0  0  0  0
  141.5548   72.2037  227.1946 H   0  0  0  0  0  0  0  0  0  0  0  0
  1  2  2  0
  2  3  1  0
  3  4  1  0
  4  5  1  0
  5  6  2  0
  5  7  1  0
  7  8  1  0
  8  9  1  0
  9 10  1  0
  9 11  1  0
 11 12  1  0
 11 13  1  0
 13 14  1  0
 14 15  1  0
 15 16  1  0
 16 17  1  0
 17 18  1  0
  2 19  1  0
 19 20  2  0
 20 21  1  0
 21 22  2  0
 22 23  1  0
 23 24  2  0
 24 25  1  0
 24 26  1  0
 26 27  2  0
 27 28  1  0
 28 29  2  0
 13  7  1  0
 18 14  1  0
 29 19  1  0
 28 22  1  0
  3 30  1  0
  4 31  1  0
  4 32  1  0
  8 33  1  0
  8 34  1  0
  9 35  1  1
 10 36  1  0
 11 37  1  1
 12 38  1  0
 13 39  1  6
 14 40  1  0
 15 41  1  0
 15 42  1  0
 16 43  1  0
 16 44  1  0
 17 45  1  0
 17 46  1  0
 18 47  1  0
 18 48  1  0
 20 49  1  0
 21 50  1  0
 23 51  1  0
 26 52  1  0
 27 53  1  0
M  END
>  <smiles>  (11) 
O=C(NCC(=O)N1C[C@H](O)[C@H](O)[C@H]1C1CCCC1)c1ccc2cc(F)ccc2n1

>  <score_type>  (11) 
oracle

>  <origin>  (11) 
autodockgpu

>  <m_score__min__energy>  (11) 
-8.3100000000000005

>  <m_primary>  (11) 
energy

>  <rmsd>  (11) 
2.222999935839339

>  <m_score__min__rmsd>  (11) 
2.222999935839339

>  <meeko>  (11) 
{"free_energy": -7.82, "intermolecular_energy": -9.91, "internal_energy": -2.92, "cluster_size": 26, "cluster_id": 1, "rank_in_cluster": 8}

>  <energy>  (11) 
-7.72

>  <cluster_rmsd>  (11) 
1.97

>  <cluster>  (11) 
1

$$$$

     RDKit          3D

 53 56  0  0  0  0  0  0  0  0999 V2000
  141.1240   71.9970  221.5000 O   0  0  0  0  0  0  0  0  0  0  0  0
  140.2970   72.1920  222.4270 C   0  0  0  0  0  0  0  0  0  0  0  0
  139.4050   73.3540  222.3050 N   0  0  0  0  0  0  0  0  0  0  0  0
  139.5930   74.1230  221.1340 C   0  0  0  0  0  0  0  0  0  0  0  0
  140.8580   74.7520  220.7980 C   0  0  0  0  0  0  0  0  0  0  0  0
  141.3850   75.3320  221.8710 O   0  0  0  0  0  0  0  0  0  0  0  0
  141.6210   74.8850  219.6560 N   0  0  0  0  0  0  0  0  0  0  0  0
  141.4670   75.6930  218.4310 C   0  0  0  0  0  0  0  0  0  0  0  0
  142.8200   76.4260  218.4390 C   0  0  2  0  0  0  0  0  0  0  0  0
  143.0900   77.0530  217.2490 O   0  0  0  0  0  0  0  0  0  0  0  0
  143.7380   75.2700  218.7600 C   0  0  2  0  0  0  0  0  0  0  0  0
  144.3780   74.8700  217.5930 O   0  0  0  0  0  0  0  0  0  0  0  0
  142.8730   74.1810  219.3640 C   0  0  1  0  0  0  0  0  0  0  0  0
  143.5330   73.4620  220.4640 C   0  0  0  0  0  0  0  0  0  0  0  0
  143.7510   72.0160  219.9640 C   0  0  0  0  0  0  0  0  0  0  0  0
  145.1790   71.8760  219.5710 C   0  0  0  0  0  0  0  0  0  0  0  0
  145.9120   72.9450  220.3180 C   0  0  0  0  0  0  0  0  0  0  0  0
  144.8880   73.9240  220.8550 C   0  0  0  0  0  0  0  0  0  0  0  0
  140.1860   71.3360  223.5950 C   0  0  0  0  0  0  0  0  0  0  0  0
  139.5600   70.1190  223.4230 C   0  0  0  0  0  0  0  0  0  0  0  0
  139.4380   69.2820  224.5120 C   0  0  0  0  0  0  0  0  0  0  0  0
  139.9410   69.6700  225.7500 C   0  0  0  0  0  0  0  0  0  0  0  0
  139.8280   68.8430  226.8560 C   0  0  0  0  0  0  0  0  0  0  0  0
  140.3430   69.2720  228.0670 C   0  0  0  0  0  0  0  0  0  0  0  0
  140.2560   68.4920  229.1860 F   0  0  0  0  0  0  0  0  0  0  0  0
  140.9640   70.4950  228.2040 C   0  0  0  0  0  0  0  0  0  0  0  0
  141.0740   71.3130  227.1000 C   0  0  0  0  0  0  0  0  0  0  0  0
  140.5630   70.8940  225.8900 C   0  0  0  0  0  0  0  0  0  0  0  0
  140.6720   71.6990  224.8120 N   0  0  0  0  0  0  0  0  0  0  0  0
  138.7660   73.4460  223.0940 H   0  0  0  0  0  0  0  0  0  0  0  0
  139.3518   73.4576  220.2919 H   0  0  0  0  0  0  0  0  0  0  0  0
  138.9589   74.9979  221.3399 H   0  0  0  0  0  0  0  0  0  0  0  0
  141.3464   75.0638  217.5368 H   0  0  0  0  0  0  0  0  0  0  0  0
  140.5813   76.3449  218.4082 H   0  0  0  0  0  0  0  0  0  0  0  0
  142.9000   77.2655  219.1453 H   0  0  0  0  0  0  0  0  0  0  0  0
  144.0310   76.9260  217.0340 H   0  0  0  0  0  0  0  0  0  0  0  0
  144.5272   75.5348  219.4790 H   0  0  0  0  0  0  0  0  0  0  0  0
  144.7950   75.6500  217.1870 H   0  0  0  0  0  0  0  0  0  0  0  0
  142.6739   73.3253  218.7021 H   0  0  0  0  0  0  0  0  0  0  0  0
  142.8794   73.6082  221.3366 H   0  0  0  0  0  0  0  0  0  0  0  0
  143.5133   71.3033  220.7675 H   0  0  0  0  0  0  0  0  0  0  0  0
  143.0960   71.8055  219.1057 H   0  0  0  0  0  0  0  0  0  0  0  0
  145.5585   70.8826  219.8524 H   0  0  0  0  0  0  0  0  0  0  0  0
  145.3123   71.9767  218.4838 H   0  0  0  0  0  0  0  0  0  0  0  0
  146.4757   72.4994  221.1509 H   0  0  0  0  0  0  0  0  0  0  0  0
  146.6216   73.4591  219.6531 H   0  0  0  0  0  0  0  0  0  0  0  0
  144.9606   73.9704  221.9516 H   0  0  0  0  0  0  0  0  0  0  0  0
  145.0753   74.9255  220.4403 H   0  0  0  0  0  0  0  0  0  0  0  0
  139.1669   69.8228  222.4392 H   0  0  0  0  0  0  0  0  0  0  0  0
  138.9424   68.3062  224.4019 H   0  0  0  0  0  0  0  0  0  0  0  0
  139.3373   67.8620  226.7730 H   0  0  0  0  0  0  0  0  0  0  0  0
  141.3650   70.8128  229.1778 H   0  0  0  0  0  0  0  0  0  0  0  0
  141.5661   72.2932  227.1838 H   0  0  0  0  0  0  0  0  0  0  0  0
  1  2  2  0
  2  3  1  0
  3  4  1  0
  4  5  1  0
  5  6  2  0
  5  7  1  0
  7  8  1  0
  8  9  1  0
  9 10  1  0
  9 11  1  0
 11 12  1  0
 11 13  1  0
 13 14  1  0
 14 15  1  0
 15 16  1  0
 16 17  1  0
 17 18  1  0
  2 19  1  0
 19 20  2  0
 20 21  1  0
 21 22  2  0
 22 23  1  0
 23 24  2  0
 24 25  1  0
 24 26  1  0
 26 27  2  0
 27 28  1  0
 28 29  2  0
 13  7  1  0
 18 14  1  0
 29 19  1  0
 28 22  1  0
  3 30  1  0
  4 31  1  0
  4 32  1  0
  8 33  1  0
  8 34  1  0
  9 35  1  1
 10 36  1  0
 11 37  1  1
 12 38  1  0
 13 39  1  6
 14 40  1  0
 15 41  1  0
 15 42  1  0
 16 43  1  0
 16 44  1  0
 17 45  1  0
 17 46  1  0
 18 47  1  0
 18 48  1  0
 20 49  1  0
 21 50  1  0
 23 51  1  0
 26 52  1  0
 27 53  1  0
M  END
>  <smiles>  (12) 
O=C(NCC(=O)N1C[C@H](O)[C@H](O)[C@H]1C1CCCC1)c1ccc2cc(F)ccc2n1

>  <score_type>  (12) 
oracle

>  <origin>  (12) 
autodockgpu

>  <m_score__min__energy>  (12) 
-8.3100000000000005

>  <m_primary>  (12) 
energy

>  <rmsd>  (12) 
2.2175490372682174

>  <m_score__min__rmsd>  (12) 
2.2175490372682174

>  <meeko>  (12) 
{"free_energy": -7.86, "intermolecular_energy": -9.95, "internal_energy": -2.9, "cluster_size": 26, "cluster_id": 1, "rank_in_cluster": 7}

>  <energy>  (12) 
-7.69

>  <cluster_rmsd>  (12) 
1.9

>  <cluster>  (12) 
1

$$$$

     RDKit          3D

 53 56  0  0  0  0  0  0  0  0999 V2000
  140.6640   73.0080  222.7110 O   0  0  0  0  0  0  0  0  0  0  0  0
  140.4880   71.7850  222.9430 C   0  0  0  0  0  0  0  0  0  0  0  0
  140.2070   70.9120  221.7950 N   0  0  0  0  0  0  0  0  0  0  0  0
  140.1710   71.5720  220.5460 C   0  0  0  0  0  0  0  0  0  0  0  0
  141.3690   72.0010  219.8450 C   0  0  0  0  0  0  0  0  0  0  0  0
  141.3170   71.6310  218.5710 O   0  0  0  0  0  0  0  0  0  0  0  0
  142.5180   72.6860  220.1840 N   0  0  0  0  0  0  0  0  0  0  0  0
  143.9070   72.2580  220.4370 C   0  0  0  0  0  0  0  0  0  0  0  0
  144.6390   73.1650  219.4320 C   0  0  2  0  0  0  0  0  0  0  0  0
  145.9950   73.1950  219.6350 O   0  0  0  0  0  0  0  0  0  0  0  0
  143.9340   74.4730  219.7060 C   0  0  2  0  0  0  0  0  0  0  0  0
  144.7680   75.2770  220.4750 O   0  0  0  0  0  0  0  0  0  0  0  0
  142.6330   74.1300  220.4020 C   0  0  1  0  0  0  0  0  0  0  0  0
  141.5100   74.9830  219.9830 C   0  0  0  0  0  0  0  0  0  0  0  0
  140.7100   75.3050  221.2650 C   0  0  0  0  0  0  0  0  0  0  0  0
  141.0570   76.6880  221.6890 C   0  0  0  0  0  0  0  0  0  0  0  0
  141.5620   77.3740  220.4600 C   0  0  0  0  0  0  0  0  0  0  0  0
  141.8490   76.3130  219.4170 C   0  0  0  0  0  0  0  0  0  0  0  0
  140.5470   71.2050  224.2740 C   0  0  0  0  0  0  0  0  0  0  0  0
  140.9820   72.0220  225.2950 C   0  0  0  0  0  0  0  0  0  0  0  0
  141.0510   71.5020  226.5710 C   0  0  0  0  0  0  0  0  0  0  0  0
  140.6830   70.1810  226.8060 C   0  0  0  0  0  0  0  0  0  0  0  0
  140.7450   69.6400  228.0810 C   0  0  0  0  0  0  0  0  0  0  0  0
  140.3690   68.3210  228.2650 C   0  0  0  0  0  0  0  0  0  0  0  0
  140.4120   67.7430  229.5040 F   0  0  0  0  0  0  0  0  0  0  0  0
  139.9380   67.5320  227.2220 C   0  0  0  0  0  0  0  0  0  0  0  0
  139.8780   68.0750  225.9560 C   0  0  0  0  0  0  0  0  0  0  0  0
  140.2510   69.3880  225.7630 C   0  0  0  0  0  0  0  0  0  0  0  0
  140.1920   69.9150  224.5220 N   0  0  0  0  0  0  0  0  0  0  0  0
  140.0760   69.9370  222.0620 H   0  0  0  0  0  0  0  0  0  0  0  0
  139.6442   70.8932  219.8592 H   0  0  0  0  0  0  0  0  0  0  0  0
  139.7173   72.5363  220.8186 H   0  0  0  0  0  0  0  0  0  0  0  0
  144.2164   72.4600  221.4731 H   0  0  0  0  0  0  0  0  0  0  0  0
  144.0941   71.1806  220.3180 H   0  0  0  0  0  0  0  0  0  0  0  0
  144.5892   72.8458  218.3805 H   0  0  0  0  0  0  0  0  0  0  0  0
  146.3110   74.1080  219.5070 H   0  0  0  0  0  0  0  0  0  0  0  0
  143.7055   75.0388  218.7908 H   0  0  0  0  0  0  0  0  0  0  0  0
  145.6680   75.2280  220.1100 H   0  0  0  0  0  0  0  0  0  0  0  0
  142.6125   74.3467  221.4802 H   0  0  0  0  0  0  0  0  0  0  0  0
  140.9982   74.4166  219.1910 H   0  0  0  0  0  0  0  0  0  0  0  0
  139.6316   75.2374  221.0588 H   0  0  0  0  0  0  0  0  0  0  0  0
  140.9593   74.5878  222.0609 H   0  0  0  0  0  0  0  0  0  0  0  0
  140.1671   77.2044  222.0781 H   0  0  0  0  0  0  0  0  0  0  0  0
  141.8085   76.6896  222.4923 H   0  0  0  0  0  0  0  0  0  0  0  0
  140.8005   78.0724  220.0826 H   0  0  0  0  0  0  0  0  0  0  0  0
  142.4752   77.9434  220.6877 H   0  0  0  0  0  0  0  0  0  0  0  0
  141.2387   76.5003  218.5212 H   0  0  0  0  0  0  0  0  0  0  0  0
  142.9126   76.3408  219.1379 H   0  0  0  0  0  0  0  0  0  0  0  0
  141.2679   73.0656  225.0970 H   0  0  0  0  0  0  0  0  0  0  0  0
  141.3973   72.1324  227.4033 H   0  0  0  0  0  0  0  0  0  0  0  0
  141.0870   70.2484  228.9312 H   0  0  0  0  0  0  0  0  0  0  0  0
  139.6464   66.4857  227.3959 H   0  0  0  0  0  0  0  0  0  0  0  0
  139.5353   67.4654  225.1069 H   0  0  0  0  0  0  0  0  0  0  0  0
  1  2  2  0
  2  3  1  0
  3  4  1  0
  4  5  1  0
  5  6  2  0
  5  7  1  0
  7  8  1  0
  8  9  1  0
  9 10  1  0
  9 11  1  0
 11 12  1  0
 11 13  1  0
 13 14  1  0
 14 15  1  0
 15 16  1  0
 16 17  1  0
 17 18  1  0
  2 19  1  0
 19 20  2  0
 20 21  1  0
 21 22  2  0
 22 23  1  0
 23 24  2  0
 24 25  1  0
 24 26  1  0
 26 27  2  0
 27 28  1  0
 28 29  2  0
 13  7  1  0
 18 14  1  0
 29 19  1  0
 28 22  1  0
  3 30  1  0
  4 31  1  0
  4 32  1  0
  8 33  1  0
  8 34  1  0
  9 35  1  6
 10 36  1  0
 11 37  1  6
 12 38  1  0
 13 39  1  1
 14 40  1  0
 15 41  1  0
 15 42  1  0
 16 43  1  0
 16 44  1  0
 17 45  1  0
 17 46  1  0
 18 47  1  0
 18 48  1  0
 20 49  1  0
 21 50  1  0
 23 51  1  0
 26 52  1  0
 27 53  1  0
M  END
>  <smiles>  (13) 
O=C(NCC(=O)N1C[C@H](O)[C@H](O)[C@H]1C1CCCC1)c1ccc2cc(F)ccc2n1

>  <score_type>  (13) 
oracle

>  <origin>  (13) 
autodockgpu

>  <m_score__min__energy>  (13) 
-8.3100000000000005

>  <m_primary>  (13) 
energy

>  <rmsd>  (13) 
4.019152803653554

>  <m_score__min__rmsd>  (13) 
4.019152803653554

>  <meeko>  (13) 
{"free_energy": -7.43, "intermolecular_energy": -9.52, "internal_energy": -3.17, "cluster_size": 26, "cluster_id": 1, "rank_in_cluster": 19}

>  <energy>  (13) 
-7.68

>  <cluster_rmsd>  (13) 
1.64

>  <cluster>  (13) 
1

$$$$

     RDKit          3D

 53 56  0  0  0  0  0  0  0  0999 V2000
  140.9030   71.9050  221.3450 O   0  0  0  0  0  0  0  0  0  0  0  0
  140.1710   72.1820  222.3290 C   0  0  0  0  0  0  0  0  0  0  0  0
  139.3910   73.4250  222.2640 N   0  0  0  0  0  0  0  0  0  0  0  0
  139.5640   74.1710  221.0770 C   0  0  0  0  0  0  0  0  0  0  0  0
  140.8090   74.8380  220.7390 C   0  0  0  0  0  0  0  0  0  0  0  0
  141.2960   75.4730  221.8000 O   0  0  0  0  0  0  0  0  0  0  0  0
  141.5850   74.9650  219.6040 N   0  0  0  0  0  0  0  0  0  0  0  0
  141.4390   75.7580  218.3690 C   0  0  0  0  0  0  0  0  0  0  0  0
  142.7860   76.5020  218.3850 C   0  0  2  0  0  0  0  0  0  0  0  0
  143.0650   77.1180  217.1900 O   0  0  0  0  0  0  0  0  0  0  0  0
  143.7090   75.3570  218.7300 C   0  0  2  0  0  0  0  0  0  0  0  0
  144.3670   74.9500  217.5750 O   0  0  0  0  0  0  0  0  0  0  0  0
  142.8460   74.2680  219.3360 C   0  0  1  0  0  0  0  0  0  0  0  0
  143.4980   73.5660  220.4520 C   0  0  0  0  0  0  0  0  0  0  0  0
  143.7130   72.1110  219.9800 C   0  0  0  0  0  0  0  0  0  0  0  0
  145.1420   71.9570  219.5950 C   0  0  0  0  0  0  0  0  0  0  0  0
  145.8760   73.0370  220.3240 C   0  0  0  0  0  0  0  0  0  0  0  0
  144.8540   74.0310  220.8390 C   0  0  0  0  0  0  0  0  0  0  0  0
  140.0640   71.3410  223.5100 C   0  0  0  0  0  0  0  0  0  0  0  0
  139.5480   70.0760  223.3330 C   0  0  0  0  0  0  0  0  0  0  0  0
  139.4320   69.2520  224.4340 C   0  0  0  0  0  0  0  0  0  0  0  0
  139.8340   69.7030  225.6870 C   0  0  0  0  0  0  0  0  0  0  0  0
  139.7260   68.8910  226.8050 C   0  0  0  0  0  0  0  0  0  0  0  0
  140.1380   69.3840  228.0310 C   0  0  0  0  0  0  0  0  0  0  0  0
  140.0520   68.6210  229.1620 F   0  0  0  0  0  0  0  0  0  0  0  0
  140.6510   70.6560  228.1720 C   0  0  0  0  0  0  0  0  0  0  0  0
  140.7560   71.4590  227.0570 C   0  0  0  0  0  0  0  0  0  0  0  0
  140.3480   70.9760  225.8310 C   0  0  0  0  0  0  0  0  0  0  0  0
  140.4520   71.7660  224.7430 N   0  0  0  0  0  0  0  0  0  0  0  0
  138.8240   73.5810  223.0980 H   0  0  0  0  0  0  0  0  0  0  0  0
  139.3572   73.4767  220.2493 H   0  0  0  0  0  0  0  0  0  0  0  0
  138.8957   75.0266  221.2541 H   0  0  0  0  0  0  0  0  0  0  0  0
  141.3340   75.1182  217.4804 H   0  0  0  0  0  0  0  0  0  0  0  0
  140.5484   76.4023  218.3286 H   0  0  0  0  0  0  0  0  0  0  0  0
  142.8513   77.3499  219.0827 H   0  0  0  0  0  0  0  0  0  0  0  0
  144.0100   76.9980  216.9900 H   0  0  0  0  0  0  0  0  0  0  0  0
  144.4872   75.6357  219.4558 H   0  0  0  0  0  0  0  0  0  0  0  0
  144.7800   75.7290  217.1640 H   0  0  0  0  0  0  0  0  0  0  0  0
  142.6623   73.4029  218.6819 H   0  0  0  0  0  0  0  0  0  0  0  0
  142.8409   73.7294  221.3189 H   0  0  0  0  0  0  0  0  0  0  0  0
  143.4693   71.4144  220.7957 H   0  0  0  0  0  0  0  0  0  0  0  0
  143.0609   71.8879  219.1227 H   0  0  0  0  0  0  0  0  0  0  0  0
  145.5161   70.9677  219.8971 H   0  0  0  0  0  0  0  0  0  0  0  0
  145.2800   72.0356  218.5065 H   0  0  0  0  0  0  0  0  0  0  0  0
  146.4349   72.6051  221.1673 H   0  0  0  0  0  0  0  0  0  0  0  0
  146.5897   73.5356  219.6517 H   0  0  0  0  0  0  0  0  0  0  0  0
  144.9231   74.0983  221.9348 H   0  0  0  0  0  0  0  0  0  0  0  0
  145.0467   75.0237  220.4062 H   0  0  0  0  0  0  0  0  0  0  0  0
  139.2355   69.7305  222.3365 H   0  0  0  0  0  0  0  0  0  0  0  0
  139.0214   68.2378  224.3206 H   0  0  0  0  0  0  0  0  0  0  0  0
  139.3199   67.8723  226.7195 H   0  0  0  0  0  0  0  0  0  0  0  0
  140.9711   71.0237  229.1581 H   0  0  0  0  0  0  0  0  0  0  0  0
  141.1621   72.4776  227.1440 H   0  0  0  0  0  0  0  0  0  0  0  0
  1  2  2  0
  2  3  1  0
  3  4  1  0
  4  5  1  0
  5  6  2  0
  5  7  1  0
  7  8  1  0
  8  9  1  0
  9 10  1  0
  9 11  1  0
 11 12  1  0
 11 13  1  0
 13 14  1  0
 14 15  1  0
 15 16  1  0
 16 17  1  0
 17 18  1  0
  2 19  1  0
 19 20  2  0
 20 21  1  0
 21 22  2  0
 22 23  1  0
 23 24  2  0
 24 25  1  0
 24 26  1  0
 26 27  2  0
 27 28  1  0
 28 29  2  0
 13  7  1  0
 18 14  1  0
 29 19  1  0
 28 22  1  0
  3 30  1  0
  4 31  1  0
  4 32  1  0
  8 33  1  0
  8 34  1  0
  9 35  1  1
 10 36  1  0
 11 37  1  1
 12 38  1  0
 13 39  1  6
 14 40  1  0
 15 41  1  0
 15 42  1  0
 16 43  1  0
 16 44  1  0
 17 45  1  0
 17 46  1  0
 18 47  1  0
 18 48  1  0
 20 49  1  0
 21 50  1  0
 23 51  1  0
 26 52  1  0
 27 53  1  0
M  END
>  <smiles>  (14) 
O=C(NCC(=O)N1C[C@H](O)[C@H](O)[C@H]1C1CCCC1)c1ccc2cc(F)ccc2n1

>  <score_type>  (14) 
oracle

>  <origin>  (14) 
autodockgpu

>  <m_score__min__energy>  (14) 
-8.3100000000000005

>  <m_primary>  (14) 
energy

>  <rmsd>  (14) 
2.175268817181441

>  <m_score__min__rmsd>  (14) 
2.175268817181441

>  <meeko>  (14) 
{"free_energy": -7.73, "intermolecular_energy": -9.82, "internal_energy": -2.97, "cluster_size": 26, "cluster_id": 1, "rank_in_cluster": 10}

>  <energy>  (14) 
-7.65

>  <cluster_rmsd>  (14) 
1.65

>  <cluster>  (14) 
1

$$$$

     RDKit          3D

 53 56  0  0  0  0  0  0  0  0999 V2000
  140.1480   71.6830  221.1370 O   0  0  0  0  0  0  0  0  0  0  0  0
  139.9470   72.1100  222.3030 C   0  0  0  0  0  0  0  0  0  0  0  0
  139.6610   73.5420  222.4590 N   0  0  0  0  0  0  0  0  0  0  0  0
  139.6460   74.2780  221.2530 C   0  0  0  0  0  0  0  0  0  0  0  0
  140.7610   75.0990  220.8160 C   0  0  0  0  0  0  0  0  0  0  0  0
  141.0720   75.9920  221.7490 O   0  0  0  0  0  0  0  0  0  0  0  0
  141.5530   75.1670  219.6880 N   0  0  0  0  0  0  0  0  0  0  0  0
  141.4760   75.9670  218.4500 C   0  0  0  0  0  0  0  0  0  0  0  0
  142.8730   76.6110  218.4770 C   0  0  2  0  0  0  0  0  0  0  0  0
  143.2060   77.2030  217.2850 O   0  0  0  0  0  0  0  0  0  0  0  0
  143.7070   75.4020  218.8310 C   0  0  2  0  0  0  0  0  0  0  0  0
  144.3440   74.9470  217.6820 O   0  0  0  0  0  0  0  0  0  0  0  0
  142.7620   74.3800  219.4300 C   0  0  1  0  0  0  0  0  0  0  0  0
  143.3530   73.6340  220.5520 C   0  0  0  0  0  0  0  0  0  0  0  0
  143.3180   72.1440  220.1450 C   0  0  0  0  0  0  0  0  0  0  0  0
  144.6870   71.7540  219.7100 C   0  0  0  0  0  0  0  0  0  0  0  0
  145.6120   72.7370  220.3530 C   0  0  0  0  0  0  0  0  0  0  0  0
  144.7810   73.8990  220.8600 C   0  0  0  0  0  0  0  0  0  0  0  0
  139.9860   71.2630  223.4830 C   0  0  0  0  0  0  0  0  0  0  0  0
  139.5010   69.9800  223.3500 C   0  0  0  0  0  0  0  0  0  0  0  0
  139.5230   69.1500  224.4520 C   0  0  0  0  0  0  0  0  0  0  0  0
  140.0280   69.6130  225.6630 C   0  0  0  0  0  0  0  0  0  0  0  0
  140.0590   68.7950  226.7810 C   0  0  0  0  0  0  0  0  0  0  0  0
  140.5700   69.3000  227.9650 C   0  0  0  0  0  0  0  0  0  0  0  0
  140.6220   68.5320  229.0940 F   0  0  0  0  0  0  0  0  0  0  0  0
  141.0470   70.5890  228.0620 C   0  0  0  0  0  0  0  0  0  0  0  0
  141.0140   71.3980  226.9470 C   0  0  0  0  0  0  0  0  0  0  0  0
  140.5070   70.9030  225.7640 C   0  0  0  0  0  0  0  0  0  0  0  0
  140.4750   71.6990  224.6750 N   0  0  0  0  0  0  0  0  0  0  0  0
  139.5100   73.8110  223.4320 H   0  0  0  0  0  0  0  0  0  0  0  0
  139.4772   73.5438  220.4515 H   0  0  0  0  0  0  0  0  0  0  0  0
  138.8819   75.0394  221.4683 H   0  0  0  0  0  0  0  0  0  0  0  0
  141.3325   75.3350  217.5612 H   0  0  0  0  0  0  0  0  0  0  0  0
  140.6351   76.6744  218.4010 H   0  0  0  0  0  0  0  0  0  0  0  0
  142.9941   77.4530  219.1744 H   0  0  0  0  0  0  0  0  0  0  0  0
  143.3210   76.5090  216.6110 H   0  0  0  0  0  0  0  0  0  0  0  0
  144.4969   75.6238  219.5637 H   0  0  0  0  0  0  0  0  0  0  0  0
  144.8030   75.6960  217.2650 H   0  0  0  0  0  0  0  0  0  0  0  0
  142.5204   73.5303  218.7745 H   0  0  0  0  0  0  0  0  0  0  0  0
  142.7723   73.9353  221.4363 H   0  0  0  0  0  0  0  0  0  0  0  0
  143.0099   71.5295  221.0038 H   0  0  0  0  0  0  0  0  0  0  0  0
  142.5983   71.9877  219.3279 H   0  0  0  0  0  0  0  0  0  0  0  0
  144.9195   70.7326  220.0456 H   0  0  0  0  0  0  0  0  0  0  0  0
  144.7827   71.7637  218.6142 H   0  0  0  0  0  0  0  0  0  0  0  0
  146.1386   72.2601  221.1928 H   0  0  0  0  0  0  0  0  0  0  0  0
  146.3597   73.0896  219.6273 H   0  0  0  0  0  0  0  0  0  0  0  0
  144.9122   74.0011  221.9474 H   0  0  0  0  0  0  0  0  0  0  0  0
  145.1028   74.8307  220.3717 H   0  0  0  0  0  0  0  0  0  0  0  0
  139.1052   69.6255  222.3869 H   0  0  0  0  0  0  0  0  0  0  0  0
  139.1410   68.1215  224.3731 H   0  0  0  0  0  0  0  0  0  0  0  0
  139.6841   67.7621  226.7290 H   0  0  0  0  0  0  0  0  0  0  0  0
  141.4478   70.9663  229.0144 H   0  0  0  0  0  0  0  0  0  0  0  0
  141.3892   72.4307  227.0002 H   0  0  0  0  0  0  0  0  0  0  0  0
  1  2  2  0
  2  3  1  0
  3  4  1  0
  4  5  1  0
  5  6  2  0
  5  7  1  0
  7  8  1  0
  8  9  1  0
  9 10  1  0
  9 11  1  0
 11 12  1  0
 11 13  1  0
 13 14  1  0
 14 15  1  0
 15 16  1  0
 16 17  1  0
 17 18  1  0
  2 19  1  0
 19 20  2  0
 20 21  1  0
 21 22  2  0
 22 23  1  0
 23 24  2  0
 24 25  1  0
 24 26  1  0
 26 27  2  0
 27 28  1  0
 28 29  2  0
 13  7  1  0
 18 14  1  0
 29 19  1  0
 28 22  1  0
  3 30  1  0
  4 31  1  0
  4 32  1  0
  8 33  1  0
  8 34  1  0
  9 35  1  1
 10 36  1  0
 11 37  1  1
 12 38  1  0
 13 39  1  6
 14 40  1  0
 15 41  1  0
 15 42  1  0
 16 43  1  0
 16 44  1  0
 17 45  1  0
 17 46  1  0
 18 47  1  0
 18 48  1  0
 20 49  1  0
 21 50  1  0
 23 51  1  0
 26 52  1  0
 27 53  1  0
M  END
>  <smiles>  (15) 
O=C(NCC(=O)N1C[C@H](O)[C@H](O)[C@H]1C1CCCC1)c1ccc2cc(F)ccc2n1

>  <score_type>  (15) 
oracle

>  <origin>  (15) 
autodockgpu

>  <m_score__min__energy>  (15) 
-8.3100000000000005

>  <m_primary>  (15) 
energy

>  <rmsd>  (15) 
2.1655651940984657

>  <m_score__min__rmsd>  (15) 
2.1655651940984657

>  <meeko>  (15) 
{"free_energy": -7.34, "intermolecular_energy": -9.43, "internal_energy": -3.2, "cluster_size": 5, "cluster_id": 3, "rank_in_cluster": 5}

>  <energy>  (15) 
-7.64

>  <cluster_rmsd>  (15) 
1.95

>  <cluster>  (15) 
1

$$$$

     RDKit          3D

 53 56  0  0  0  0  0  0  0  0999 V2000
  141.0720   72.0360  221.2420 O   0  0  0  0  0  0  0  0  0  0  0  0
  140.4740   72.3950  222.2880 C   0  0  0  0  0  0  0  0  0  0  0  0
  139.9480   73.7660  222.3310 N   0  0  0  0  0  0  0  0  0  0  0  0
  140.1860   74.5270  221.1640 C   0  0  0  0  0  0  0  0  0  0  0  0
  140.0650   75.9740  221.1280 C   0  0  0  0  0  0  0  0  0  0  0  0
  138.9630   76.3630  221.7600 O   0  0  0  0  0  0  0  0  0  0  0  0
  140.8080   77.0130  220.6050 N   0  0  0  0  0  0  0  0  0  0  0  0
  141.2440   77.3500  219.2370 C   0  0  0  0  0  0  0  0  0  0  0  0
  140.6830   78.7790  219.1350 C   0  0  2  0  0  0  0  0  0  0  0  0
  141.1810   79.4680  218.0580 O   0  0  0  0  0  0  0  0  0  0  0  0
  141.1140   79.3200  220.4790 C   0  0  2  0  0  0  0  0  0  0  0  0
  142.2230   80.1380  220.2960 O   0  0  0  0  0  0  0  0  0  0  0  0
  141.3990   78.1210  221.3610 C   0  0  1  0  0  0  0  0  0  0  0  0
  140.9700   78.3120  222.7550 C   0  0  0  0  0  0  0  0  0  0  0  0
  142.1200   79.0640  223.4620 C   0  0  0  0  0  0  0  0  0  0  0  0
  141.7300   80.4940  223.5830 C   0  0  0  0  0  0  0  0  0  0  0  0
  140.2360   80.5150  223.5030 C   0  0  0  0  0  0  0  0  0  0  0  0
  139.7780   79.1680  222.9810 C   0  0  0  0  0  0  0  0  0  0  0  0
  140.2820   71.5280  223.4390 C   0  0  0  0  0  0  0  0  0  0  0  0
  139.6500   70.3230  223.2180 C   0  0  0  0  0  0  0  0  0  0  0  0
  139.4520   69.4780  224.2890 C   0  0  0  0  0  0  0  0  0  0  0  0
  139.8880   69.8460  225.5580 C   0  0  0  0  0  0  0  0  0  0  0  0
  139.6980   69.0100  226.6470 C   0  0  0  0  0  0  0  0  0  0  0  0
  140.1480   69.4200  227.8900 C   0  0  0  0  0  0  0  0  0  0  0  0
  139.9850   68.6300  228.9940 F   0  0  0  0  0  0  0  0  0  0  0  0
  140.7780   70.6310  228.0760 C   0  0  0  0  0  0  0  0  0  0  0  0
  140.9640   71.4590  226.9890 C   0  0  0  0  0  0  0  0  0  0  0  0
  140.5180   71.0590  225.7470 C   0  0  0  0  0  0  0  0  0  0  0  0
  140.7010   71.8720  224.6860 N   0  0  0  0  0  0  0  0  0  0  0  0
  139.4780   73.9820  223.2100 H   0  0  0  0  0  0  0  0  0  0  0  0
  141.2186   74.3010  220.8594 H   0  0  0  0  0  0  0  0  0  0  0  0
  139.3465   74.2187  220.5236 H   0  0  0  0  0  0  0  0  0  0  0  0
  142.3395   77.3315  219.1395 H   0  0  0  0  0  0  0  0  0  0  0  0
  140.9036   76.6569  218.4536 H   0  0  0  0  0  0  0  0  0  0  0  0
  139.6007   78.8524  218.9527 H   0  0  0  0  0  0  0  0  0  0  0  0
  142.1300   79.6320  218.2020 H   0  0  0  0  0  0  0  0  0  0  0  0
  140.3424   79.9374  220.9622 H   0  0  0  0  0  0  0  0  0  0  0  0
  142.7400   79.7950  219.5480 H   0  0  0  0  0  0  0  0  0  0  0  0
  142.4655   77.9216  221.5423 H   0  0  0  0  0  0  0  0  0  0  0  0
  140.7186   77.3051  223.1196 H   0  0  0  0  0  0  0  0  0  0  0  0
  142.2859   78.6367  224.4620 H   0  0  0  0  0  0  0  0  0  0  0  0
  143.0503   78.9700  222.8826 H   0  0  0  0  0  0  0  0  0  0  0  0
  142.0682   80.9035  224.5463 H   0  0  0  0  0  0  0  0  0  0  0  0
  142.1873   81.1076  222.7928 H   0  0  0  0  0  0  0  0  0  0  0  0
  139.8108   80.6929  224.5018 H   0  0  0  0  0  0  0  0  0  0  0  0
  139.8996   81.3199  222.8329 H   0  0  0  0  0  0  0  0  0  0  0  0
  139.1152   78.6916  223.7184 H   0  0  0  0  0  0  0  0  0  0  0  0
  139.2284   79.3001  222.0374 H   0  0  0  0  0  0  0  0  0  0  0  0
  139.3113   70.0421  222.2098 H   0  0  0  0  0  0  0  0  0  0  0  0
  138.9486   68.5114  224.1401 H   0  0  0  0  0  0  0  0  0  0  0  0
  139.1983   68.0376  226.5255 H   0  0  0  0  0  0  0  0  0  0  0  0
  141.1268   70.9324  229.0748 H   0  0  0  0  0  0  0  0  0  0  0  0
  141.4642   72.4310  227.1117 H   0  0  0  0  0  0  0  0  0  0  0  0
  1  2  2  0
  2  3  1  0
  3  4  1  0
  4  5  1  0
  5  6  2  0
  5  7  1  0
  7  8  1  0
  8  9  1  0
  9 10  1  0
  9 11  1  0
 11 12  1  0
 11 13  1  0
 13 14  1  0
 14 15  1  0
 15 16  1  0
 16 17  1  0
 17 18  1  0
  2 19  1  0
 19 20  2  0
 20 21  1  0
 21 22  2  0
 22 23  1  0
 23 24  2  0
 24 25  1  0
 24 26  1  0
 26 27  2  0
 27 28  1  0
 28 29  2  0
 13  7  1  0
 18 14  1  0
 29 19  1  0
 28 22  1  0
  3 30  1  0
  4 31  1  0
  4 32  1  0
  8 33  1  0
  8 34  1  0
  9 35  1  1
 10 36  1  0
 11 37  1  1
 12 38  1  0
 13 39  1  1
 14 40  1  0
 15 41  1  0
 15 42  1  0
 16 43  1  0
 16 44  1  0
 17 45  1  0
 17 46  1  0
 18 47  1  0
 18 48  1  0
 20 49  1  0
 21 50  1  0
 23 51  1  0
 26 52  1  0
 27 53  1  0
M  END
>  <smiles>  (16) 
O=C(NCC(=O)N1C[C@H](O)[C@H](O)[C@H]1C1CCCC1)c1ccc2cc(F)ccc2n1

>  <score_type>  (16) 
oracle

>  <origin>  (16) 
autodockgpu

>  <m_score__min__energy>  (16) 
-8.3100000000000005

>  <m_primary>  (16) 
energy

>  <rmsd>  (16) 
2.7147937916110982

>  <m_score__min__rmsd>  (16) 
2.7147937916110982

>  <meeko>  (16) 
{"free_energy": -7.65, "intermolecular_energy": -9.74, "internal_energy": -2.66, "cluster_size": 17, "cluster_id": 2, "rank_in_cluster": 14}

>  <energy>  (16) 
-7.6

>  <cluster_rmsd>  (16) 
1.65

>  <cluster>  (16) 
1

$$$$

     RDKit          3D

 53 56  0  0  0  0  0  0  0  0999 V2000
  139.3600   70.8360  221.4740 O   0  0  0  0  0  0  0  0  0  0  0  0
  139.6240   71.2990  222.6140 C   0  0  0  0  0  0  0  0  0  0  0  0
  139.8580   72.7450  222.7190 N   0  0  0  0  0  0  0  0  0  0  0  0
  139.7530   73.4520  221.5000 C   0  0  0  0  0  0  0  0  0  0  0  0
  140.4670   74.6890  221.2410 C   0  0  0  0  0  0  0  0  0  0  0  0
  140.4750   75.4550  222.3270 O   0  0  0  0  0  0  0  0  0  0  0  0
  141.1240   75.2420  220.1600 N   0  0  0  0  0  0  0  0  0  0  0  0
  140.7240   76.2220  219.1330 C   0  0  0  0  0  0  0  0  0  0  0  0
  141.8550   77.2510  219.3090 C   0  0  2  0  0  0  0  0  0  0  0  0
  141.9100   78.1580  218.2810 O   0  0  0  0  0  0  0  0  0  0  0  0
  143.0410   76.3180  219.3860 C   0  0  2  0  0  0  0  0  0  0  0  0
  143.7080   76.3420  218.1670 O   0  0  0  0  0  0  0  0  0  0  0  0
  142.4960   74.9480  219.7370 C   0  0  1  0  0  0  0  0  0  0  0  0
  143.3600   74.2030  220.6660 C   0  0  0  0  0  0  0  0  0  0  0  0
  143.0680   72.7050  220.4200 C   0  0  0  0  0  0  0  0  0  0  0  0
  144.1780   72.1490  219.6000 C   0  0  0  0  0  0  0  0  0  0  0  0
  145.3430   73.0600  219.8230 C   0  0  0  0  0  0  0  0  0  0  0  0
  144.8260   74.3290  220.4710 C   0  0  0  0  0  0  0  0  0  0  0  0
  139.7090   70.4800  223.8110 C   0  0  0  0  0  0  0  0  0  0  0  0
  139.1710   69.2120  223.7420 C   0  0  0  0  0  0  0  0  0  0  0  0
  139.2340   68.4090  224.8620 C   0  0  0  0  0  0  0  0  0  0  0  0
  139.8320   68.8810  226.0260 C   0  0  0  0  0  0  0  0  0  0  0  0
  139.9050   68.0900  227.1620 C   0  0  0  0  0  0  0  0  0  0  0  0
  140.5080   68.6040  228.2970 C   0  0  0  0  0  0  0  0  0  0  0  0
  140.6050   67.8610  229.4410 F   0  0  0  0  0  0  0  0  0  0  0  0
  141.0360   69.8760  228.3300 C   0  0  0  0  0  0  0  0  0  0  0  0
  140.9610   70.6590  227.1980 C   0  0  0  0  0  0  0  0  0  0  0  0
  140.3610   70.1550  226.0630 C   0  0  0  0  0  0  0  0  0  0  0  0
  140.2890   70.9260  224.9580 N   0  0  0  0  0  0  0  0  0  0  0  0
  140.0670   73.0440  223.6720 H   0  0  0  0  0  0  0  0  0  0  0  0
  140.0678   72.7498  220.7140 H   0  0  0  0  0  0  0  0  0  0  0  0
  138.7109   73.8023  221.5371 H   0  0  0  0  0  0  0  0  0  0  0  0
  140.7227   75.7823  218.1247 H   0  0  0  0  0  0  0  0  0  0  0  0
  139.7054   76.6231  219.2404 H   0  0  0  0  0  0  0  0  0  0  0  0
  141.7586   77.9190  220.1776 H   0  0  0  0  0  0  0  0  0  0  0  0
  142.8430   78.3130  218.0500 H   0  0  0  0  0  0  0  0  0  0  0  0
  143.7723   76.6142  220.1525 H   0  0  0  0  0  0  0  0  0  0  0  0
  143.0870   76.6390  217.4800 H   0  0  0  0  0  0  0  0  0  0  0  0
  142.4832   74.2266  218.9067 H   0  0  0  0  0  0  0  0  0  0  0  0
  143.1315   74.6110  221.6617 H   0  0  0  0  0  0  0  0  0  0  0  0
  143.0111   72.1730  221.3811 H   0  0  0  0  0  0  0  0  0  0  0  0
  142.1082   72.5836  219.8965 H   0  0  0  0  0  0  0  0  0  0  0  0
  144.4220   71.1276  219.9273 H   0  0  0  0  0  0  0  0  0  0  0  0
  143.9063   72.0912  218.5357 H   0  0  0  0  0  0  0  0  0  0  0  0
  146.0756   72.5745  220.4845 H   0  0  0  0  0  0  0  0  0  0  0  0
  145.8361   73.2917  218.8674 H   0  0  0  0  0  0  0  0  0  0  0  0
  145.3174   74.4738  221.4444 H   0  0  0  0  0  0  0  0  0  0  0  0
  145.0446   75.1936  219.8270 H   0  0  0  0  0  0  0  0  0  0  0  0
  138.7025   68.8493  222.8152 H   0  0  0  0  0  0  0  0  0  0  0  0
  138.8108   67.3940  224.8346 H   0  0  0  0  0  0  0  0  0  0  0  0
  139.4907   67.0710  227.1615 H   0  0  0  0  0  0  0  0  0  0  0  0
  141.5099   70.2607  229.2451 H   0  0  0  0  0  0  0  0  0  0  0  0
  141.3763   71.6776  227.1999 H   0  0  0  0  0  0  0  0  0  0  0  0
  1  2  2  0
  2  3  1  0
  3  4  1  0
  4  5  1  0
  5  6  2  0
  5  7  1  0
  7  8  1  0
  8  9  1  0
  9 10  1  0
  9 11  1  0
 11 12  1  0
 11 13  1  0
 13 14  1  0
 14 15  1  0
 15 16  1  0
 16 17  1  0
 17 18  1  0
  2 19  1  0
 19 20  2  0
 20 21  1  0
 21 22  2  0
 22 23  1  0
 23 24  2  0
 24 25  1  0
 24 26  1  0
 26 27  2  0
 27 28  1  0
 28 29  2  0
 13  7  1  0
 18 14  1  0
 29 19  1  0
 28 22  1  0
  3 30  1  0
  4 31  1  0
  4 32  1  0
  8 33  1  0
  8 34  1  0
  9 35  1  1
 10 36  1  0
 11 37  1  1
 12 38  1  0
 13 39  1  6
 14 40  1  0
 15 41  1  0
 15 42  1  0
 16 43  1  0
 16 44  1  0
 17 45  1  0
 17 46  1  0
 18 47  1  0
 18 48  1  0
 20 49  1  0
 21 50  1  0
 23 51  1  0
 26 52  1  0
 27 53  1  0
M  END
>  <smiles>  (17) 
O=C(NCC(=O)N1C[C@H](O)[C@H](O)[C@H]1C1CCCC1)c1ccc2cc(F)ccc2n1

>  <score_type>  (17) 
oracle

>  <origin>  (17) 
autodockgpu

>  <m_score__min__energy>  (17) 
-8.3100000000000005

>  <m_primary>  (17) 
energy

>  <rmsd>  (17) 
2.014627917549174

>  <m_score__min__rmsd>  (17) 
2.014627917549174

>  <meeko>  (17) 
{"free_energy": -7.1, "intermolecular_energy": -9.19, "internal_energy": -3.15, "cluster_size": 17, "cluster_id": 2, "rank_in_cluster": 17}

>  <energy>  (17) 
-7.57

>  <cluster_rmsd>  (17) 
1.95

>  <cluster>  (17) 
1

$$$$

     RDKit          3D

 53 56  0  0  0  0  0  0  0  0999 V2000
  140.2580   73.6840  222.3430 O   0  0  0  0  0  0  0  0  0  0  0  0
  140.2690   72.4300  222.2500 C   0  0  0  0  0  0  0  0  0  0  0  0
  140.3770   71.8530  220.9030 N   0  0  0  0  0  0  0  0  0  0  0  0
  140.4570   72.8010  219.8580 C   0  0  0  0  0  0  0  0  0  0  0  0
  141.5600   72.8430  218.9140 C   0  0  0  0  0  0  0  0  0  0  0  0
  141.1550   72.4470  217.7120 O   0  0  0  0  0  0  0  0  0  0  0  0
  142.8940   73.1890  218.9700 N   0  0  0  0  0  0  0  0  0  0  0  0
  143.6040   74.3830  219.4660 C   0  0  0  0  0  0  0  0  0  0  0  0
  144.5770   73.7100  220.4510 C   0  0  2  0  0  0  0  0  0  0  0  0
  145.5760   74.5530  220.8680 O   0  0  0  0  0  0  0  0  0  0  0  0
  145.0470   72.5550  219.5980 C   0  0  2  0  0  0  0  0  0  0  0  0
  146.3180   72.8450  219.1150 O   0  0  0  0  0  0  0  0  0  0  0  0
  144.0200   72.3790  218.4980 C   0  0  1  0  0  0  0  0  0  0  0  0
  143.7640   70.9680  218.1660 C   0  0  0  0  0  0  0  0  0  0  0  0
  145.1250   70.3690  217.7470 C   0  0  0  0  0  0  0  0  0  0  0  0
  145.6480   69.5730  218.8890 C   0  0  0  0  0  0  0  0  0  0  0  0
  144.4540   69.2160  219.7160 C   0  0  0  0  0  0  0  0  0  0  0  0
  143.3000   70.0900  219.2700 C   0  0  0  0  0  0  0  0  0  0  0  0
  140.1810   71.5410  223.3950 C   0  0  0  0  0  0  0  0  0  0  0  0
  139.6050   70.3060  223.1860 C   0  0  0  0  0  0  0  0  0  0  0  0
  139.5040   69.4370  224.2530 C   0  0  0  0  0  0  0  0  0  0  0  0
  139.9800   69.8130  225.5050 C   0  0  0  0  0  0  0  0  0  0  0  0
  139.8890   68.9550  226.5890 C   0  0  0  0  0  0  0  0  0  0  0  0
  140.3760   69.3730  227.8160 C   0  0  0  0  0  0  0  0  0  0  0  0
  140.3090   68.5620  228.9140 F   0  0  0  0  0  0  0  0  0  0  0  0
  140.9460   70.6150  227.9890 C   0  0  0  0  0  0  0  0  0  0  0  0
  141.0350   71.4650  226.9070 C   0  0  0  0  0  0  0  0  0  0  0  0
  140.5520   71.0560  225.6820 C   0  0  0  0  0  0  0  0  0  0  0  0
  140.6400   71.8920  224.6260 N   0  0  0  0  0  0  0  0  0  0  0  0
  140.3790   70.8330  220.9090 H   0  0  0  0  0  0  0  0  0  0  0  0
  139.5467   72.6661  219.2554 H   0  0  0  0  0  0  0  0  0  0  0  0
  140.6095   73.7354  220.4181 H   0  0  0  0  0  0  0  0  0  0  0  0
  144.1355   74.9089  218.6592 H   0  0  0  0  0  0  0  0  0  0  0  0
  142.9614   75.1622  219.9018 H   0  0  0  0  0  0  0  0  0  0  0  0
  144.1418   73.4031  221.4135 H   0  0  0  0  0  0  0  0  0  0  0  0
  146.1570   74.7490  220.1120 H   0  0  0  0  0  0  0  0  0  0  0  0
  145.1292   71.6118  220.1580 H   0  0  0  0  0  0  0  0  0  0  0  0
  146.3930   73.8080  219.0000 H   0  0  0  0  0  0  0  0  0  0  0  0
  144.3394   72.7285  217.5051 H   0  0  0  0  0  0  0  0  0  0  0  0
  142.9626   70.9900  217.4128 H   0  0  0  0  0  0  0  0  0  0  0  0
  144.9926   69.7197  216.8690 H   0  0  0  0  0  0  0  0  0  0  0  0
  145.8310   71.1709  217.4851 H   0  0  0  0  0  0  0  0  0  0  0  0
  146.1480   68.6633  218.5250 H   0  0  0  0  0  0  0  0  0  0  0  0
  146.3900   70.1389  219.4715 H   0  0  0  0  0  0  0  0  0  0  0  0
  144.1995   68.1563  219.5669 H   0  0  0  0  0  0  0  0  0  0  0  0
  144.6656   69.3764  220.7835 H   0  0  0  0  0  0  0  0  0  0  0  0
  142.4723   69.4576  218.9165 H   0  0  0  0  0  0  0  0  0  0  0  0
  142.9480   70.7032  220.1126 H   0  0  0  0  0  0  0  0  0  0  0  0
  139.2342   70.0198  222.1907 H   0  0  0  0  0  0  0  0  0  0  0  0
  139.0468   68.4463  224.1136 H   0  0  0  0  0  0  0  0  0  0  0  0
  139.4374   67.9583  226.4768 H   0  0  0  0  0  0  0  0  0  0  0  0
  141.3242   70.9238  228.9747 H   0  0  0  0  0  0  0  0  0  0  0  0
  141.4876   72.4612  227.0201 H   0  0  0  0  0  0  0  0  0  0  0  0
  1  2  2  0
  2  3  1  0
  3  4  1  0
  4  5  1  0
  5  6  2  0
  5  7  1  0
  7  8  1  0
  8  9  1  0
  9 10  1  0
  9 11  1  0
 11 12  1  0
 11 13  1  0
 13 14  1  0
 14 15  1  0
 15 16  1  0
 16 17  1  0
 17 18  1  0
  2 19  1  0
 19 20  2  0
 20 21  1  0
 21 22  2  0
 22 23  1  0
 23 24  2  0
 24 25  1  0
 24 26  1  0
 26 27  2  0
 27 28  1  0
 28 29  2  0
 13  7  1  0
 18 14  1  0
 29 19  1  0
 28 22  1  0
  3 30  1  0
  4 31  1  0
  4 32  1  0
  8 33  1  0
  8 34  1  0
  9 35  1  1
 10 36  1  0
 11 37  1  1
 12 38  1  0
 13 39  1  6
 14 40  1  0
 15 41  1  0
 15 42  1  0
 16 43  1  0
 16 44  1  0
 17 45  1  0
 17 46  1  0
 18 47  1  0
 18 48  1  0
 20 49  1  0
 21 50  1  0
 23 51  1  0
 26 52  1  0
 27 53  1  0
M  END
>  <smiles>  (18) 
O=C(NCC(=O)N1C[C@H](O)[C@H](O)[C@H]1C1CCCC1)c1ccc2cc(F)ccc2n1

>  <score_type>  (18) 
oracle

>  <origin>  (18) 
autodockgpu

>  <m_score__min__energy>  (18) 
-8.3100000000000005

>  <m_primary>  (18) 
energy

>  <rmsd>  (18) 
3.6995421887270235

>  <m_score__min__rmsd>  (18) 
3.6995421887270235

>  <meeko>  (18) 
{"free_energy": -8.0, "intermolecular_energy": -10.09, "internal_energy": -2.65, "cluster_size": 26, "cluster_id": 1, "rank_in_cluster": 5}

>  <energy>  (18) 
-7.47

>  <cluster_rmsd>  (18) 
1.65

>  <cluster>  (18) 
1

$$$$

     RDKit          3D

 53 56  0  0  0  0  0  0  0  0999 V2000
  141.3820   72.5950  221.5940 O   0  0  0  0  0  0  0  0  0  0  0  0
  140.4480   72.6550  222.4340 C   0  0  0  0  0  0  0  0  0  0  0  0
  139.5200   73.7900  222.3340 N   0  0  0  0  0  0  0  0  0  0  0  0
  139.8000   74.6920  221.2840 C   0  0  0  0  0  0  0  0  0  0  0  0
  140.6670   75.8470  221.4450 C   0  0  0  0  0  0  0  0  0  0  0  0
  140.7270   76.2050  222.7230 O   0  0  0  0  0  0  0  0  0  0  0  0
  141.4230   76.6380  220.6040 N   0  0  0  0  0  0  0  0  0  0  0  0
  142.1640   76.3630  219.3590 C   0  0  0  0  0  0  0  0  0  0  0  0
  141.5220   77.4190  218.4420 C   0  0  2  0  0  0  0  0  0  0  0  0
  142.2150   77.5970  217.2720 O   0  0  0  0  0  0  0  0  0  0  0  0
  141.5420   78.6110  219.3700 C   0  0  2  0  0  0  0  0  0  0  0  0
  142.5830   79.4520  218.9930 O   0  0  0  0  0  0  0  0  0  0  0  0
  141.6990   78.0670  220.7760 C   0  0  1  0  0  0  0  0  0  0  0  0
  140.9100   78.8070  221.7740 C   0  0  0  0  0  0  0  0  0  0  0  0
  141.7770   78.8650  223.0520 C   0  0  0  0  0  0  0  0  0  0  0  0
  142.3820   80.2210  223.1370 C   0  0  0  0  0  0  0  0  0  0  0  0
  141.5020   81.1100  222.3180 C   0  0  0  0  0  0  0  0  0  0  0  0
  140.6050   80.2290  221.4720 C   0  0  0  0  0  0  0  0  0  0  0  0
  140.2480   71.6680  223.4810 C   0  0  0  0  0  0  0  0  0  0  0  0
  139.5740   70.5160  223.1370 C   0  0  0  0  0  0  0  0  0  0  0  0
  139.3670   69.5590  224.1080 C   0  0  0  0  0  0  0  0  0  0  0  0
  139.8340   69.7660  225.4020 C   0  0  0  0  0  0  0  0  0  0  0  0
  139.6360   68.8170  226.3930 C   0  0  0  0  0  0  0  0  0  0  0  0
  140.1190   69.0690  227.6650 C   0  0  0  0  0  0  0  0  0  0  0  0
  139.9490   68.1630  228.6750 F   0  0  0  0  0  0  0  0  0  0  0  0
  140.7890   70.2320  227.9750 C   0  0  0  0  0  0  0  0  0  0  0  0
  140.9840   71.1730  226.9860 C   0  0  0  0  0  0  0  0  0  0  0  0
  140.5060   70.9310  225.7160 C   0  0  0  0  0  0  0  0  0  0  0  0
  140.6980   71.8550  224.7520 N   0  0  0  0  0  0  0  0  0  0  0  0
  138.7920   73.7700  223.0480 H   0  0  0  0  0  0  0  0  0  0  0  0
  140.2432   74.0901  220.4770 H   0  0  0  0  0  0  0  0  0  0  0  0
  138.8204   75.1701  221.1365 H   0  0  0  0  0  0  0  0  0  0  0  0
  143.2449   76.5274  219.4801 H   0  0  0  0  0  0  0  0  0  0  0  0
  142.1002   75.3267  218.9956 H   0  0  0  0  0  0  0  0  0  0  0  0
  140.5209   77.1702  218.0601 H   0  0  0  0  0  0  0  0  0  0  0  0
  142.5070   78.5240  217.2180 H   0  0  0  0  0  0  0  0  0  0  0  0
  140.6193   79.2081  219.3236 H   0  0  0  0  0  0  0  0  0  0  0  0
  143.3030   78.9090  218.6280 H   0  0  0  0  0  0  0  0  0  0  0  0
  142.6969   78.2036  221.2182 H   0  0  0  0  0  0  0  0  0  0  0  0
  139.9483   78.2763  221.8327 H   0  0  0  0  0  0  0  0  0  0  0  0
  141.1502   78.6800  223.9368 H   0  0  0  0  0  0  0  0  0  0  0  0
  142.5641   78.0975  223.0144 H   0  0  0  0  0  0  0  0  0  0  0  0
  142.4079   80.5644  224.1817 H   0  0  0  0  0  0  0  0  0  0  0  0
  143.4187   80.2263  222.7692 H   0  0  0  0  0  0  0  0  0  0  0  0
  140.8897   81.7410  222.9790 H   0  0  0  0  0  0  0  0  0  0  0  0
  142.1104   81.7644  221.6765 H   0  0  0  0  0  0  0  0  0  0  0  0
  139.5513   80.4394  221.7075 H   0  0  0  0  0  0  0  0  0  0  0  0
  140.7807   80.4310  220.4051 H   0  0  0  0  0  0  0  0  0  0  0  0
  139.2093   70.3634  222.1105 H   0  0  0  0  0  0  0  0  0  0  0  0
  138.8319   68.6307  223.8591 H   0  0  0  0  0  0  0  0  0  0  0  0
  139.1041   67.8799  226.1720 H   0  0  0  0  0  0  0  0  0  0  0  0
  141.1624   70.4072  228.9948 H   0  0  0  0  0  0  0  0  0  0  0  0
  141.5167   72.1092  227.2088 H   0  0  0  0  0  0  0  0  0  0  0  0
  1  2  2  0
  2  3  1  0
  3  4  1  0
  4  5  1  0
  5  6  2  0
  5  7  1  0
  7  8  1  0
  8  9  1  0
  9 10  1  0
  9 11  1  0
 11 12  1  0
 11 13  1  0
 13 14  1  0
 14 15  1  0
 15 16  1  0
 16 17  1  0
 17 18  1  0
  2 19  1  0
 19 20  2  0
 20 21  1  0
 21 22  2  0
 22 23  1  0
 23 24  2  0
 24 25  1  0
 24 26  1  0
 26 27  2  0
 27 28  1  0
 28 29  2  0
 13  7  1  0
 18 14  1  0
 29 19  1  0
 28 22  1  0
  3 30  1  0
  4 31  1  0
  4 32  1  0
  8 33  1  0
  8 34  1  0
  9 35  1  6
 10 36  1  0
 11 37  1  1
 12 38  1  0
 13 39  1  1
 14 40  1  0
 15 41  1  0
 15 42  1  0
 16 43  1  0
 16 44  1  0
 17 45  1  0
 17 46  1  0
 18 47  1  0
 18 48  1  0
 20 49  1  0
 21 50  1  0
 23 51  1  0
 26 52  1  0
 27 53  1  0
M  END
>  <smiles>  (19) 
O=C(NCC(=O)N1C[C@H](O)[C@H](O)[C@H]1C1CCCC1)c1ccc2cc(F)ccc2n1

>  <score_type>  (19) 
oracle

>  <origin>  (19) 
autodockgpu

>  <m_score__min__energy>  (19) 
-8.3100000000000005

>  <m_primary>  (19) 
energy

>  <rmsd>  (19) 
2.364581684263146

>  <m_score__min__rmsd>  (19) 
2.364581684263146

>  <meeko>  (19) 
{"free_energy": -8.09, "intermolecular_energy": -10.18, "internal_energy": -2.57, "cluster_size": 17, "cluster_id": 2, "rank_in_cluster": 3}

>  <energy>  (19) 
-7.43

>  <cluster_rmsd>  (19) 
1.66

>  <cluster>  (19) 
1

$$$$

     RDKit          3D

 53 56  0  0  0  0  0  0  0  0999 V2000
  140.3490   72.9620  222.6570 O   0  0  0  0  0  0  0  0  0  0  0  0
  140.4010   71.7280  222.8940 C   0  0  0  0  0  0  0  0  0  0  0  0
  140.3590   70.8150  221.7430 N   0  0  0  0  0  0  0  0  0  0  0  0
  140.2640   71.4530  220.4860 C   0  0  0  0  0  0  0  0  0  0  0  0
  141.4190   71.9790  219.7790 C   0  0  0  0  0  0  0  0  0  0  0  0
  141.3250   71.7160  218.4800 O   0  0  0  0  0  0  0  0  0  0  0  0
  142.5610   72.6700  220.1310 N   0  0  0  0  0  0  0  0  0  0  0  0
  143.9540   72.2530  220.3780 C   0  0  0  0  0  0  0  0  0  0  0  0
  144.6770   73.1840  219.3880 C   0  0  2  0  0  0  0  0  0  0  0  0
  146.0330   73.2250  219.5940 O   0  0  0  0  0  0  0  0  0  0  0  0
  143.9590   74.4800  219.6820 C   0  0  2  0  0  0  0  0  0  0  0  0
  144.7830   75.2790  220.4660 O   0  0  0  0  0  0  0  0  0  0  0  0
  142.6600   74.1120  220.3720 C   0  0  1  0  0  0  0  0  0  0  0  0
  141.5290   74.9600  219.9650 C   0  0  0  0  0  0  0  0  0  0  0  0
  141.2390   75.8960  221.1590 C   0  0  0  0  0  0  0  0  0  0  0  0
  141.8130   77.2320  220.8470 C   0  0  0  0  0  0  0  0  0  0  0  0
  141.9190   77.2890  219.3560 C   0  0  0  0  0  0  0  0  0  0  0  0
  141.7540   75.8810  218.8220 C   0  0  0  0  0  0  0  0  0  0  0  0
  140.4980   71.1730  224.2330 C   0  0  0  0  0  0  0  0  0  0  0  0
  140.7880   72.0510  225.2560 C   0  0  0  0  0  0  0  0  0  0  0  0
  140.8880   71.5560  226.5400 C   0  0  0  0  0  0  0  0  0  0  0  0
  140.6960   70.1990  226.7810 C   0  0  0  0  0  0  0  0  0  0  0  0
  140.7930   69.6820  228.0630 C   0  0  0  0  0  0  0  0  0  0  0  0
  140.5940   68.3250  228.2540 C   0  0  0  0  0  0  0  0  0  0  0  0
  140.6780   67.7690  229.5000 F   0  0  0  0  0  0  0  0  0  0  0  0
  140.3050   67.4760  227.2080 C   0  0  0  0  0  0  0  0  0  0  0  0
  140.2100   67.9950  225.9350 C   0  0  0  0  0  0  0  0  0  0  0  0
  140.4070   69.3460  225.7350 C   0  0  0  0  0  0  0  0  0  0  0  0
  140.3140   69.8490  224.4870 N   0  0  0  0  0  0  0  0  0  0  0  0
  140.4050   69.8340  222.0150 H   0  0  0  0  0  0  0  0  0  0  0  0
  139.8007   70.7209  219.8082 H   0  0  0  0  0  0  0  0  0  0  0  0
  139.7249   72.3758  220.7465 H   0  0  0  0  0  0  0  0  0  0  0  0
  144.2607   72.4416  221.4174 H   0  0  0  0  0  0  0  0  0  0  0  0
  144.1526   71.1797  220.2419 H   0  0  0  0  0  0  0  0  0  0  0  0
  144.6308   72.8813  218.3315 H   0  0  0  0  0  0  0  0  0  0  0  0
  146.3390   74.1420  219.4800 H   0  0  0  0  0  0  0  0  0  0  0  0
  143.7265   75.0582  218.7755 H   0  0  0  0  0  0  0  0  0  0  0  0
  145.6850   75.2400  220.1050 H   0  0  0  0  0  0  0  0  0  0  0  0
  142.6355   74.3110  221.4536 H   0  0  0  0  0  0  0  0  0  0  0  0
  140.7377   74.2583  219.6626 H   0  0  0  0  0  0  0  0  0  0  0  0
  140.1529   75.9826  221.3100 H   0  0  0  0  0  0  0  0  0  0  0  0
  141.6887   75.4926  222.0782 H   0  0  0  0  0  0  0  0  0  0  0  0
  141.1507   78.0294  221.2152 H   0  0  0  0  0  0  0  0  0  0  0  0
  142.7910   77.3763  221.3293 H   0  0  0  0  0  0  0  0  0  0  0  0
  141.1287   77.9375  218.9499 H   0  0  0  0  0  0  0  0  0  0  0  0
  142.8948   77.6996  219.0572 H   0  0  0  0  0  0  0  0  0  0  0  0
  140.8913   75.8426  218.1407 H   0  0  0  0  0  0  0  0  0  0  0  0
  142.6583   75.5810  218.2722 H   0  0  0  0  0  0  0  0  0  0  0  0
  140.9363   73.1219  225.0530 H   0  0  0  0  0  0  0  0  0  0  0  0
  141.1197   72.2348  227.3740 H   0  0  0  0  0  0  0  0  0  0  0  0
  141.0242   70.3386  228.9147 H   0  0  0  0  0  0  0  0  0  0  0  0
  140.1526   66.4013  227.3862 H   0  0  0  0  0  0  0  0  0  0  0  0
  139.9788   67.3370  225.0844 H   0  0  0  0  0  0  0  0  0  0  0  0
  1  2  2  0
  2  3  1  0
  3  4  1  0
  4  5  1  0
  5  6  2  0
  5  7  1  0
  7  8  1  0
  8  9  1  0
  9 10  1  0
  9 11  1  0
 11 12  1  0
 11 13  1  0
 13 14  1  0
 14 15  1  0
 15 16  1  0
 16 17  1  0
 17 18  1  0
  2 19  1  0
 19 20  2  0
 20 21  1  0
 21 22  2  0
 22 23  1  0
 23 24  2  0
 24 25  1  0
 24 26  1  0
 26 27  2  0
 27 28  1  0
 28 29  2  0
 13  7  1  0
 18 14  1  0
 29 19  1  0
 28 22  1  0
  3 30  1  0
  4 31  1  0
  4 32  1  0
  8 33  1  0
  8 34  1  0
  9 35  1  6
 10 36  1  0
 11 37  1  6
 12 38  1  0
 13 39  1  1
 14 40  1  0
 15 41  1  0
 15 42  1  0
 16 43  1  0
 16 44  1  0
 17 45  1  0
 17 46  1  0
 18 47  1  0
 18 48  1  0
 20 49  1  0
 21 50  1  0
 23 51  1  0
 26 52  1  0
 27 53  1  0
M  END
>  <smiles>  (20) 
O=C(NCC(=O)N1C[C@H](O)[C@H](O)[C@H]1C1CCCC1)c1ccc2cc(F)ccc2n1

>  <score_type>  (20) 
oracle

>  <origin>  (20) 
autodockgpu

>  <m_score__min__energy>  (20) 
-8.3100000000000005

>  <m_primary>  (20) 
energy

>  <rmsd>  (20) 
4.03413243738891

>  <m_score__min__rmsd>  (20) 
4.03413243738891

>  <meeko>  (20) 
{"free_energy": -7.29, "intermolecular_energy": -9.38, "internal_energy": -3.2, "cluster_size": 26, "cluster_id": 1, "rank_in_cluster": 23}

>  <energy>  (20) 
-7.43

>  <cluster_rmsd>  (20) 
1.09

>  <cluster>  (20) 
1

$$$$

     RDKit          3D

 53 56  0  0  0  0  0  0  0  0999 V2000
  141.4220   72.6660  221.5690 O   0  0  0  0  0  0  0  0  0  0  0  0
  140.4740   72.7230  222.3930 C   0  0  0  0  0  0  0  0  0  0  0  0
  139.5510   73.8610  222.2860 N   0  0  0  0  0  0  0  0  0  0  0  0
  139.8510   74.7690  221.2460 C   0  0  0  0  0  0  0  0  0  0  0  0
  140.7490   75.8980  221.4180 C   0  0  0  0  0  0  0  0  0  0  0  0
  140.8620   76.2070  222.7050 O   0  0  0  0  0  0  0  0  0  0  0  0
  141.4940   76.7030  220.5800 N   0  0  0  0  0  0  0  0  0  0  0  0
  142.2440   76.4410  219.3380 C   0  0  0  0  0  0  0  0  0  0  0  0
  141.5870   77.4850  218.4180 C   0  0  2  0  0  0  0  0  0  0  0  0
  142.2810   77.6750  217.2500 O   0  0  0  0  0  0  0  0  0  0  0  0
  141.5810   78.6770  219.3460 C   0  0  2  0  0  0  0  0  0  0  0  0
  142.6080   79.5370  218.9730 O   0  0  0  0  0  0  0  0  0  0  0  0
  141.7420   78.1370  220.7530 C   0  0  1  0  0  0  0  0  0  0  0  0
  140.9360   78.8620  221.7470 C   0  0  0  0  0  0  0  0  0  0  0  0
  141.7810   78.9040  223.0400 C   0  0  0  0  0  0  0  0  0  0  0  0
  142.3830   80.2590  223.1530 C   0  0  0  0  0  0  0  0  0  0  0  0
  141.5150   81.1580  222.3320 C   0  0  0  0  0  0  0  0  0  0  0  0
  140.6340   80.2870  221.4590 C   0  0  0  0  0  0  0  0  0  0  0  0
  140.2550   71.7310  223.4310 C   0  0  0  0  0  0  0  0  0  0  0  0
  139.5620   70.5940  223.0740 C   0  0  0  0  0  0  0  0  0  0  0  0
  139.3350   69.6320  224.0370 C   0  0  0  0  0  0  0  0  0  0  0  0
  139.8040   69.8180  225.3330 C   0  0  0  0  0  0  0  0  0  0  0  0
  139.5870   68.8630  226.3140 C   0  0  0  0  0  0  0  0  0  0  0  0
  140.0710   69.0940  227.5900 C   0  0  0  0  0  0  0  0  0  0  0  0
  139.8830   68.1820  228.5910 F   0  0  0  0  0  0  0  0  0  0  0  0
  140.7610   70.2420  227.9120 C   0  0  0  0  0  0  0  0  0  0  0  0
  140.9740   71.1890  226.9330 C   0  0  0  0  0  0  0  0  0  0  0  0
  140.4950   70.9670  225.6590 C   0  0  0  0  0  0  0  0  0  0  0  0
  140.7050   71.8970  224.7040 N   0  0  0  0  0  0  0  0  0  0  0  0
  138.8110   73.8380  222.9870 H   0  0  0  0  0  0  0  0  0  0  0  0
  140.2748   74.1659  220.4295 H   0  0  0  0  0  0  0  0  0  0  0  0
  138.8839   75.2749  221.1088 H   0  0  0  0  0  0  0  0  0  0  0  0
  143.3214   76.6246  219.4630 H   0  0  0  0  0  0  0  0  0  0  0  0
  142.1996   75.4036  218.9748 H   0  0  0  0  0  0  0  0  0  0  0  0
  140.5922   77.2182  218.0317 H   0  0  0  0  0  0  0  0  0  0  0  0
  142.6660   78.5690  217.2570 H   0  0  0  0  0  0  0  0  0  0  0  0
  140.6474   79.2565  219.2956 H   0  0  0  0  0  0  0  0  0  0  0  0
  143.3440   79.0070  218.6230 H   0  0  0  0  0  0  0  0  0  0  0  0
  142.7350   78.2929  221.1999 H   0  0  0  0  0  0  0  0  0  0  0  0
  139.9743   78.3292  221.7826 H   0  0  0  0  0  0  0  0  0  0  0  0
  141.1395   78.7069  223.9115 H   0  0  0  0  0  0  0  0  0  0  0  0
  142.5695   78.1377  223.0057 H   0  0  0  0  0  0  0  0  0  0  0  0
  142.3918   80.5883  224.2025 H   0  0  0  0  0  0  0  0  0  0  0  0
  143.4255   80.2703  222.8021 H   0  0  0  0  0  0  0  0  0  0  0  0
  140.8905   81.7786  222.9915 H   0  0  0  0  0  0  0  0  0  0  0  0
  142.1326   81.8226  221.7100 H   0  0  0  0  0  0  0  0  0  0  0  0
  139.5761   80.4927  221.6792 H   0  0  0  0  0  0  0  0  0  0  0  0
  140.8276   80.5035  220.3980 H   0  0  0  0  0  0  0  0  0  0  0  0
  139.1983   70.4567  222.0450 H   0  0  0  0  0  0  0  0  0  0  0  0
  138.7822   68.7166  223.7791 H   0  0  0  0  0  0  0  0  0  0  0  0
  139.0396   67.9374  226.0824 H   0  0  0  0  0  0  0  0  0  0  0  0
  141.1360   70.4005  228.9339 H   0  0  0  0  0  0  0  0  0  0  0  0
  141.5215   72.1141  227.1662 H   0  0  0  0  0  0  0  0  0  0  0  0
  1  2  2  0
  2  3  1  0
  3  4  1  0
  4  5  1  0
  5  6  2  0
  5  7  1  0
  7  8  1  0
  8  9  1  0
  9 10  1  0
  9 11  1  0
 11 12  1  0
 11 13  1  0
 13 14  1  0
 14 15  1  0
 15 16  1  0
 16 17  1  0
 17 18  1  0
  2 19  1  0
 19 20  2  0
 20 21  1  0
 21 22  2  0
 22 23  1  0
 23 24  2  0
 24 25  1  0
 24 26  1  0
 26 27  2  0
 27 28  1  0
 28 29  2  0
 13  7  1  0
 18 14  1  0
 29 19  1  0
 28 22  1  0
  3 30  1  0
  4 31  1  0
  4 32  1  0
  8 33  1  0
  8 34  1  0
  9 35  1  6
 10 36  1  0
 11 37  1  1
 12 38  1  0
 13 39  1  1
 14 40  1  0
 15 41  1  0
 15 42  1  0
 16 43  1  0
 16 44  1  0
 17 45  1  0
 17 46  1  0
 18 47  1  0
 18 48  1  0
 20 49  1  0
 21 50  1  0
 23 51  1  0
 26 52  1  0
 27 53  1  0
M  END
>  <smiles>  (21) 
O=C(NCC(=O)N1C[C@H](O)[C@H](O)[C@H]1C1CCCC1)c1ccc2cc(F)ccc2n1

>  <score_type>  (21) 
oracle

>  <origin>  (21) 
autodockgpu

>  <m_score__min__energy>  (21) 
-8.3100000000000005

>  <m_primary>  (21) 
energy

>  <rmsd>  (21) 
2.4159002067522377

>  <m_score__min__rmsd>  (21) 
2.4159002067522377

>  <meeko>  (21) 
{"free_energy": -8.07, "intermolecular_energy": -10.16, "internal_energy": -2.57, "cluster_size": 17, "cluster_id": 2, "rank_in_cluster": 4}

>  <energy>  (21) 
-7.33

>  <cluster_rmsd>  (21) 
1.65

>  <cluster>  (21) 
1

$$$$

     RDKit          3D

 53 56  0  0  0  0  0  0  0  0999 V2000
  141.1380   72.0130  221.3230 O   0  0  0  0  0  0  0  0  0  0  0  0
  140.5050   72.3940  222.3400 C   0  0  0  0  0  0  0  0  0  0  0  0
  139.9730   73.7630  222.3340 N   0  0  0  0  0  0  0  0  0  0  0  0
  140.2450   74.4970  221.1580 C   0  0  0  0  0  0  0  0  0  0  0  0
  140.0810   75.9380  221.0710 C   0  0  0  0  0  0  0  0  0  0  0  0
  138.8740   76.2930  221.4980 O   0  0  0  0  0  0  0  0  0  0  0  0
  140.8650   76.9970  220.6610 N   0  0  0  0  0  0  0  0  0  0  0  0
  141.4530   77.3700  219.3600 C   0  0  0  0  0  0  0  0  0  0  0  0
  140.8860   78.7940  219.2240 C   0  0  2  0  0  0  0  0  0  0  0  0
  141.4960   79.5130  218.2270 O   0  0  0  0  0  0  0  0  0  0  0  0
  141.1490   79.3100  220.6190 C   0  0  2  0  0  0  0  0  0  0  0  0
  142.2590   80.1450  220.5850 O   0  0  0  0  0  0  0  0  0  0  0  0
  141.3470   78.0950  221.5030 C   0  0  1  0  0  0  0  0  0  0  0  0
  140.7550   78.2500  222.8410 C   0  0  0  0  0  0  0  0  0  0  0  0
  141.8150   78.9750  223.7010 C   0  0  0  0  0  0  0  0  0  0  0  0
  141.4160   80.4030  223.8150 C   0  0  0  0  0  0  0  0  0  0  0  0
  139.9430   80.4350  223.5590 C   0  0  0  0  0  0  0  0  0  0  0  0
  139.5470   79.1060  222.9480 C   0  0  0  0  0  0  0  0  0  0  0  0
  140.2810   71.5540  223.5050 C   0  0  0  0  0  0  0  0  0  0  0  0
  139.6030   70.3710  223.3020 C   0  0  0  0  0  0  0  0  0  0  0  0
  139.3720   69.5500  224.3870 C   0  0  0  0  0  0  0  0  0  0  0  0
  139.8210   69.9210  225.6500 C   0  0  0  0  0  0  0  0  0  0  0  0
  139.6000   69.1110  226.7520 C   0  0  0  0  0  0  0  0  0  0  0  0
  140.0650   69.5230  227.9890 C   0  0  0  0  0  0  0  0  0  0  0  0
  139.8720   68.7580  229.1050 F   0  0  0  0  0  0  0  0  0  0  0  0
  140.7400   70.7120  228.1550 C   0  0  0  0  0  0  0  0  0  0  0  0
  140.9580   71.5140  227.0560 C   0  0  0  0  0  0  0  0  0  0  0  0
  140.4980   71.1120  225.8200 C   0  0  0  0  0  0  0  0  0  0  0  0
  140.7120   71.9010  224.7470 N   0  0  0  0  0  0  0  0  0  0  0  0
  139.4740   73.9980  223.1920 H   0  0  0  0  0  0  0  0  0  0  0  0
  141.2980   74.2960  220.9116 H   0  0  0  0  0  0  0  0  0  0  0  0
  139.4481   74.1431  220.4874 H   0  0  0  0  0  0  0  0  0  0  0  0
  142.5526   77.3673  219.3908 H   0  0  0  0  0  0  0  0  0  0  0  0
  141.2172   76.6907  218.5276 H   0  0  0  0  0  0  0  0  0  0  0  0
  139.8311   78.8580  218.9190 H   0  0  0  0  0  0  0  0  0  0  0  0
  141.6680   80.4150  218.5520 H   0  0  0  0  0  0  0  0  0  0  0  0
  140.3171   79.9072  221.0207 H   0  0  0  0  0  0  0  0  0  0  0  0
  142.8620   79.8290  219.8910 H   0  0  0  0  0  0  0  0  0  0  0  0
  142.3880   77.9046  221.8032 H   0  0  0  0  0  0  0  0  0  0  0  0
  140.4588   77.2349  223.1442 H   0  0  0  0  0  0  0  0  0  0  0  0
  141.8598   78.5190  224.7010 H   0  0  0  0  0  0  0  0  0  0  0  0
  142.8076   78.8917  223.2344 H   0  0  0  0  0  0  0  0  0  0  0  0
  141.6382   80.7837  224.8228 H   0  0  0  0  0  0  0  0  0  0  0  0
  141.9651   81.0354  223.1019 H   0  0  0  0  0  0  0  0  0  0  0  0
  139.4026   80.5872  224.5049 H   0  0  0  0  0  0  0  0  0  0  0  0
  139.6906   81.2604  222.8771 H   0  0  0  0  0  0  0  0  0  0  0  0
  138.8000   78.6130  223.5875 H   0  0  0  0  0  0  0  0  0  0  0  0
  139.1138   79.2677  221.9499 H   0  0  0  0  0  0  0  0  0  0  0  0
  139.2540   70.0878  222.2980 H   0  0  0  0  0  0  0  0  0  0  0  0
  138.8321   68.6011  224.2527 H   0  0  0  0  0  0  0  0  0  0  0  0
  139.0639   68.1564  226.6458 H   0  0  0  0  0  0  0  0  0  0  0  0
  141.0993   71.0165  229.1491 H   0  0  0  0  0  0  0  0  0  0  0  0
  141.4950   72.4679  227.1640 H   0  0  0  0  0  0  0  0  0  0  0  0
  1  2  2  0
  2  3  1  0
  3  4  1  0
  4  5  1  0
  5  6  2  0
  5  7  1  0
  7  8  1  0
  8  9  1  0
  9 10  1  0
  9 11  1  0
 11 12  1  0
 11 13  1  0
 13 14  1  0
 14 15  1  0
 15 16  1  0
 16 17  1  0
 17 18  1  0
  2 19  1  0
 19 20  2  0
 20 21  1  0
 21 22  2  0
 22 23  1  0
 23 24  2  0
 24 25  1  0
 24 26  1  0
 26 27  2  0
 27 28  1  0
 28 29  2  0
 13  7  1  0
 18 14  1  0
 29 19  1  0
 28 22  1  0
  3 30  1  0
  4 31  1  0
  4 32  1  0
  8 33  1  0
  8 34  1  0
  9 35  1  6
 10 36  1  0
 11 37  1  1
 12 38  1  0
 13 39  1  1
 14 40  1  0
 15 41  1  0
 15 42  1  0
 16 43  1  0
 16 44  1  0
 17 45  1  0
 17 46  1  0
 18 47  1  0
 18 48  1  0
 20 49  1  0
 21 50  1  0
 23 51  1  0
 26 52  1  0
 27 53  1  0
M  END
>  <smiles>  (22) 
O=C(NCC(=O)N1C[C@H](O)[C@H](O)[C@H]1C1CCCC1)c1ccc2cc(F)ccc2n1

>  <score_type>  (22) 
oracle

>  <origin>  (22) 
autodockgpu

>  <m_score__min__energy>  (22) 
-8.3100000000000005

>  <m_primary>  (22) 
energy

>  <rmsd>  (22) 
2.800251049412646

>  <m_score__min__rmsd>  (22) 
2.800251049412646

>  <meeko>  (22) 
{"free_energy": -7.63, "intermolecular_energy": -9.72, "internal_energy": -2.73, "cluster_size": 17, "cluster_id": 2, "rank_in_cluster": 15}

>  <energy>  (22) 
-7.33

>  <cluster_rmsd>  (22) 
0.96

>  <cluster>  (22) 
1

$$$$

     RDKit          3D

 53 56  0  0  0  0  0  0  0  0999 V2000
  140.4210   71.9240  221.0890 O   0  0  0  0  0  0  0  0  0  0  0  0
  140.0340   72.3030  222.2240 C   0  0  0  0  0  0  0  0  0  0  0  0
  139.5660   73.6900  222.3500 N   0  0  0  0  0  0  0  0  0  0  0  0
  139.6090   74.4400  221.1530 C   0  0  0  0  0  0  0  0  0  0  0  0
  140.7900   75.1630  220.7170 C   0  0  0  0  0  0  0  0  0  0  0  0
  141.1860   76.0130  221.6580 O   0  0  0  0  0  0  0  0  0  0  0  0
  141.5780   75.1740  219.5840 N   0  0  0  0  0  0  0  0  0  0  0  0
  141.4780   75.8840  218.2950 C   0  0  0  0  0  0  0  0  0  0  0  0
  142.8580   76.5650  218.2720 C   0  0  2  0  0  0  0  0  0  0  0  0
  143.1730   77.0820  217.0400 O   0  0  0  0  0  0  0  0  0  0  0  0
  143.7240   75.4050  218.7050 C   0  0  2  0  0  0  0  0  0  0  0  0
  144.3690   74.8880  217.5870 O   0  0  0  0  0  0  0  0  0  0  0  0
  142.8070   74.4020  219.3760 C   0  0  1  0  0  0  0  0  0  0  0  0
  143.4180   73.7510  220.5450 C   0  0  0  0  0  0  0  0  0  0  0  0
  143.4100   72.2340  220.2470 C   0  0  0  0  0  0  0  0  0  0  0  0
  144.7830   71.8400  219.8310 C   0  0  0  0  0  0  0  0  0  0  0  0
  145.6930   72.8840  220.3940 C   0  0  0  0  0  0  0  0  0  0  0  0
  144.8430   74.0630  220.8210 C   0  0  0  0  0  0  0  0  0  0  0  0
  140.0310   71.4470  223.3970 C   0  0  0  0  0  0  0  0  0  0  0  0
  139.5360   70.1700  223.2390 C   0  0  0  0  0  0  0  0  0  0  0  0
  139.5180   69.3310  224.3340 C   0  0  0  0  0  0  0  0  0  0  0  0
  139.9940   69.7770  225.5630 C   0  0  0  0  0  0  0  0  0  0  0  0
  139.9850   68.9500  226.6750 C   0  0  0  0  0  0  0  0  0  0  0  0
  140.4690   69.4390  227.8760 C   0  0  0  0  0  0  0  0  0  0  0  0
  140.4810   68.6600  228.9990 F   0  0  0  0  0  0  0  0  0  0  0  0
  140.9580   70.7210  227.9980 C   0  0  0  0  0  0  0  0  0  0  0  0
  140.9650   71.5400  226.8890 C   0  0  0  0  0  0  0  0  0  0  0  0
  140.4850   71.0610  225.6880 C   0  0  0  0  0  0  0  0  0  0  0  0
  140.4930   71.8670  224.6060 N   0  0  0  0  0  0  0  0  0  0  0  0
  139.2710   73.9230  223.2980 H   0  0  0  0  0  0  0  0  0  0  0  0
  139.3693   73.7343  220.3440 H   0  0  0  0  0  0  0  0  0  0  0  0
  138.9181   75.2642  221.3838 H   0  0  0  0  0  0  0  0  0  0  0  0
  141.3495   75.1886  217.4524 H   0  0  0  0  0  0  0  0  0  0  0  0
  140.6187   76.5643  218.2007 H   0  0  0  0  0  0  0  0  0  0  0  0
  142.9585   77.4561  218.9091 H   0  0  0  0  0  0  0  0  0  0  0  0
  144.1130   76.9050  216.8580 H   0  0  0  0  0  0  0  0  0  0  0  0
  144.5094   75.6974  219.4175 H   0  0  0  0  0  0  0  0  0  0  0  0
  144.8320   75.6130  217.1340 H   0  0  0  0  0  0  0  0  0  0  0  0
  142.5875   73.5033  218.7809 H   0  0  0  0  0  0  0  0  0  0  0  0
  142.8367   74.1051  221.4091 H   0  0  0  0  0  0  0  0  0  0  0  0
  143.1195   71.6776  221.1504 H   0  0  0  0  0  0  0  0  0  0  0  0
  142.6884   72.0051  219.4489 H   0  0  0  0  0  0  0  0  0  0  0  0
  145.0375   70.8501  220.2376 H   0  0  0  0  0  0  0  0  0  0  0  0
  144.8714   71.7725  218.7366 H   0  0  0  0  0  0  0  0  0  0  0  0
  146.2337   72.4794  221.2623 H   0  0  0  0  0  0  0  0  0  0  0  0
  146.4298   73.1967  219.6394 H   0  0  0  0  0  0  0  0  0  0  0  0
  144.9795   74.2466  221.8969 H   0  0  0  0  0  0  0  0  0  0  0  0
  145.1435   74.9618  220.2626 H   0  0  0  0  0  0  0  0  0  0  0  0
  139.1638   69.8279  222.2620 H   0  0  0  0  0  0  0  0  0  0  0  0
  139.1267   68.3077  224.2353 H   0  0  0  0  0  0  0  0  0  0  0  0
  139.5997   67.9221  226.6044 H   0  0  0  0  0  0  0  0  0  0  0  0
  141.3367   71.0853  228.9644 H   0  0  0  0  0  0  0  0  0  0  0  0
  141.3505   72.5677  226.9615 H   0  0  0  0  0  0  0  0  0  0  0  0
  1  2  2  0
  2  3  1  0
  3  4  1  0
  4  5  1  0
  5  6  2  0
  5  7  1  0
  7  8  1  0
  8  9  1  0
  9 10  1  0
  9 11  1  0
 11 12  1  0
 11 13  1  0
 13 14  1  0
 14 15  1  0
 15 16  1  0
 16 17  1  0
 17 18  1  0
  2 19  1  0
 19 20  2  0
 20 21  1  0
 21 22  2  0
 22 23  1  0
 23 24  2  0
 24 25  1  0
 24 26  1  0
 26 27  2  0
 27 28  1  0
 28 29  2  0
 13  7  1  0
 18 14  1  0
 29 19  1  0
 28 22  1  0
  3 30  1  0
  4 31  1  0
  4 32  1  0
  8 33  1  0
  8 34  1  0
  9 35  1  1
 10 36  1  0
 11 37  1  1
 12 38  1  0
 13 39  1  6
 14 40  1  0
 15 41  1  0
 15 42  1  0
 16 43  1  0
 16 44  1  0
 17 45  1  0
 17 46  1  0
 18 47  1  0
 18 48  1  0
 20 49  1  0
 21 50  1  0
 23 51  1  0
 26 52  1  0
 27 53  1  0
M  END
>  <smiles>  (23) 
O=C(NCC(=O)N1C[C@H](O)[C@H](O)[C@H]1C1CCCC1)c1ccc2cc(F)ccc2n1

>  <score_type>  (23) 
oracle

>  <origin>  (23) 
autodockgpu

>  <m_score__min__energy>  (23) 
-8.3100000000000005

>  <m_primary>  (23) 
energy

>  <rmsd>  (23) 
2.167369529690335

>  <m_score__min__rmsd>  (23) 
2.167369529690335

>  <meeko>  (23) 
{"free_energy": -7.51, "intermolecular_energy": -9.6, "internal_energy": -3.08, "cluster_size": 5, "cluster_id": 3, "rank_in_cluster": 3}

>  <energy>  (23) 
-7.29

>  <cluster_rmsd>  (23) 
1.68

>  <cluster>  (23) 
1

$$$$

     RDKit          3D

 53 56  0  0  0  0  0  0  0  0999 V2000
  139.9370   72.9560  222.7470 O   0  0  0  0  0  0  0  0  0  0  0  0
  140.2450   71.7520  222.9400 C   0  0  0  0  0  0  0  0  0  0  0  0
  140.4120   70.8970  221.7570 N   0  0  0  0  0  0  0  0  0  0  0  0
  140.2030   71.5500  220.5220 C   0  0  0  0  0  0  0  0  0  0  0  0
  141.2650   72.2220  219.7940 C   0  0  0  0  0  0  0  0  0  0  0  0
  140.9900   72.2520  218.4950 O   0  0  0  0  0  0  0  0  0  0  0  0
  142.4630   72.8220  220.1280 N   0  0  0  0  0  0  0  0  0  0  0  0
  143.8310   72.3030  220.3150 C   0  0  0  0  0  0  0  0  0  0  0  0
  144.5850   73.2140  219.3300 C   0  0  2  0  0  0  0  0  0  0  0  0
  145.9470   73.1560  219.4910 O   0  0  0  0  0  0  0  0  0  0  0  0
  143.9680   74.5460  219.6870 C   0  0  2  0  0  0  0  0  0  0  0  0
  144.8700   75.2620  220.4660 O   0  0  0  0  0  0  0  0  0  0  0  0
  142.6690   74.2460  220.4090 C   0  0  1  0  0  0  0  0  0  0  0  0
  141.5870   75.1810  220.0650 C   0  0  0  0  0  0  0  0  0  0  0  0
  140.7240   75.3290  221.3390 C   0  0  0  0  0  0  0  0  0  0  0  0
  141.0730   76.6230  221.9840 C   0  0  0  0  0  0  0  0  0  0  0  0
  141.6570   77.4720  220.9010 C   0  0  0  0  0  0  0  0  0  0  0  0
  141.9810   76.5720  219.7250 C   0  0  0  0  0  0  0  0  0  0  0  0
  140.4380   71.1770  224.2610 C   0  0  0  0  0  0  0  0  0  0  0  0
  140.7730   72.0440  225.2790 C   0  0  0  0  0  0  0  0  0  0  0  0
  140.9650   71.5300  226.5440 C   0  0  0  0  0  0  0  0  0  0  0  0
  140.8170   70.1660  226.7730 C   0  0  0  0  0  0  0  0  0  0  0  0
  141.0040   69.6300  228.0370 C   0  0  0  0  0  0  0  0  0  0  0  0
  140.8460   68.2660  228.2160 C   0  0  0  0  0  0  0  0  0  0  0  0
  141.0200   67.6920  229.4440 F   0  0  0  0  0  0  0  0  0  0  0  0
  140.5090   67.4280  227.1750 C   0  0  0  0  0  0  0  0  0  0  0  0
  140.3240   67.9670  225.9200 C   0  0  0  0  0  0  0  0  0  0  0  0
  140.4790   69.3240  225.7330 C   0  0  0  0  0  0  0  0  0  0  0  0
  140.2970   69.8460  224.5020 N   0  0  0  0  0  0  0  0  0  0  0  0
  140.6600   69.9370  221.9950 H   0  0  0  0  0  0  0  0  0  0  0  0
  139.8033   70.7861  219.8389 H   0  0  0  0  0  0  0  0  0  0  0  0
  139.5723   72.3987  220.8252 H   0  0  0  0  0  0  0  0  0  0  0  0
  144.1827   72.4363  221.3487 H   0  0  0  0  0  0  0  0  0  0  0  0
  143.9503   71.2236  220.1397 H   0  0  0  0  0  0  0  0  0  0  0  0
  144.4846   72.9492  218.2671 H   0  0  0  0  0  0  0  0  0  0  0  0
  146.3150   74.0480  219.3680 H   0  0  0  0  0  0  0  0  0  0  0  0
  143.7475   75.1673  218.8064 H   0  0  0  0  0  0  0  0  0  0  0  0
  145.7720   74.9950  220.2180 H   0  0  0  0  0  0  0  0  0  0  0  0
  142.6924   74.4121  221.4961 H   0  0  0  0  0  0  0  0  0  0  0  0
  141.1097   74.7533  219.1710 H   0  0  0  0  0  0  0  0  0  0  0  0
  139.6574   75.3218  221.0701 H   0  0  0  0  0  0  0  0  0  0  0  0
  140.9161   74.4944  222.0293 H   0  0  0  0  0  0  0  0  0  0  0  0
  140.1729   77.0987  222.4005 H   0  0  0  0  0  0  0  0  0  0  0  0
  141.7795   76.4839  222.8155 H   0  0  0  0  0  0  0  0  0  0  0  0
  140.9305   78.2392  220.5951 H   0  0  0  0  0  0  0  0  0  0  0  0
  142.5667   77.9763  221.2588 H   0  0  0  0  0  0  0  0  0  0  0  0
  141.4240   76.9078  218.8378 H   0  0  0  0  0  0  0  0  0  0  0  0
  143.0586   76.6132  219.5082 H   0  0  0  0  0  0  0  0  0  0  0  0
  140.8846   73.1213  225.0866 H   0  0  0  0  0  0  0  0  0  0  0  0
  141.2357   72.1998  227.3735 H   0  0  0  0  0  0  0  0  0  0  0  0
  141.2736   70.2775  228.8844 H   0  0  0  0  0  0  0  0  0  0  0  0
  140.3897   66.3474  227.3429 H   0  0  0  0  0  0  0  0  0  0  0  0
  140.0545   67.3187  225.0732 H   0  0  0  0  0  0  0  0  0  0  0  0
  1  2  2  0
  2  3  1  0
  3  4  1  0
  4  5  1  0
  5  6  2  0
  5  7  1  0
  7  8  1  0
  8  9  1  0
  9 10  1  0
  9 11  1  0
 11 12  1  0
 11 13  1  0
 13 14  1  0
 14 15  1  0
 15 16  1  0
 16 17  1  0
 17 18  1  0
  2 19  1  0
 19 20  2  0
 20 21  1  0
 21 22  2  0
 22 23  1  0
 23 24  2  0
 24 25  1  0
 24 26  1  0
 26 27  2  0
 27 28  1  0
 28 29  2  0
 13  7  1  0
 18 14  1  0
 29 19  1  0
 28 22  1  0
  3 30  1  0
  4 31  1  0
  4 32  1  0
  8 33  1  0
  8 34  1  0
  9 35  1  6
 10 36  1  0
 11 37  1  6
 12 38  1  0
 13 39  1  1
 14 40  1  0
 15 41  1  0
 15 42  1  0
 16 43  1  0
 16 44  1  0
 17 45  1  0
 17 46  1  0
 18 47  1  0
 18 48  1  0
 20 49  1  0
 21 50  1  0
 23 51  1  0
 26 52  1  0
 27 53  1  0
M  END
>  <smiles>  (24) 
O=C(NCC(=O)N1C[C@H](O)[C@H](O)[C@H]1C1CCCC1)c1ccc2cc(F)ccc2n1

>  <score_type>  (24) 
oracle

>  <origin>  (24) 
autodockgpu

>  <m_score__min__energy>  (24) 
-8.3100000000000005

>  <m_primary>  (24) 
energy

>  <rmsd>  (24) 
3.9722184981972877

>  <m_score__min__rmsd>  (24) 
3.9722184981972877

>  <meeko>  (24) 
{"free_energy": -7.6, "intermolecular_energy": -9.68, "internal_energy": -3.14, "cluster_size": 26, "cluster_id": 1, "rank_in_cluster": 16}

>  <energy>  (24) 
-7.27

>  <cluster_rmsd>  (24) 
1.65

>  <cluster>  (24) 
1

$$$$

     RDKit          3D

 53 56  0  0  0  0  0  0  0  0999 V2000
  139.6110   70.7950  221.4390 O   0  0  0  0  0  0  0  0  0  0  0  0
  139.7410   71.2750  222.5940 C   0  0  0  0  0  0  0  0  0  0  0  0
  139.8380   72.7370  222.7130 N   0  0  0  0  0  0  0  0  0  0  0  0
  139.7720   73.4350  221.4860 C   0  0  0  0  0  0  0  0  0  0  0  0
  140.6150   74.5780  221.1820 C   0  0  0  0  0  0  0  0  0  0  0  0
  140.6700   75.4020  222.2220 O   0  0  0  0  0  0  0  0  0  0  0  0
  141.3540   74.9970  220.0940 N   0  0  0  0  0  0  0  0  0  0  0  0
  141.1830   76.0940  219.1230 C   0  0  0  0  0  0  0  0  0  0  0  0
  142.5430   76.7930  219.2870 C   0  0  2  0  0  0  0  0  0  0  0  0
  142.7940   77.7050  218.2920 O   0  0  0  0  0  0  0  0  0  0  0  0
  143.4550   75.5880  219.2770 C   0  0  2  0  0  0  0  0  0  0  0  0
  144.0650   75.5010  218.0310 O   0  0  0  0  0  0  0  0  0  0  0  0
  142.5910   74.3860  219.6010 C   0  0  1  0  0  0  0  0  0  0  0  0
  143.2670   73.4030  220.4620 C   0  0  0  0  0  0  0  0  0  0  0  0
  143.3810   72.1060  219.6300 C   0  0  0  0  0  0  0  0  0  0  0  0
  144.7770   72.0030  219.1270 C   0  0  0  0  0  0  0  0  0  0  0  0
  145.6040   72.8380  220.0510 C   0  0  0  0  0  0  0  0  0  0  0  0
  144.6650   73.7060  220.8620 C   0  0  0  0  0  0  0  0  0  0  0  0
  139.7980   70.4630  223.7980 C   0  0  0  0  0  0  0  0  0  0  0  0
  139.2370   69.2060  223.7330 C   0  0  0  0  0  0  0  0  0  0  0  0
  139.2740   68.4090  224.8580 C   0  0  0  0  0  0  0  0  0  0  0  0
  139.8690   68.8790  226.0250 C   0  0  0  0  0  0  0  0  0  0  0  0
  139.9170   68.0940  227.1670 C   0  0  0  0  0  0  0  0  0  0  0  0
  140.5190   68.6040  228.3040 C   0  0  0  0  0  0  0  0  0  0  0  0
  140.5910   67.8680  229.4540 F   0  0  0  0  0  0  0  0  0  0  0  0
  141.0700   69.8660  228.3340 C   0  0  0  0  0  0  0  0  0  0  0  0
  141.0210   70.6430  227.1960 C   0  0  0  0  0  0  0  0  0  0  0  0
  140.4230   70.1430  226.0580 C   0  0  0  0  0  0  0  0  0  0  0  0
  140.3750   70.9060  224.9470 N   0  0  0  0  0  0  0  0  0  0  0  0
  139.9420   73.0490  223.6780 H   0  0  0  0  0  0  0  0  0  0  0  0
  139.9757   72.6907  220.7021 H   0  0  0  0  0  0  0  0  0  0  0  0
  138.7791   73.9039  221.5516 H   0  0  0  0  0  0  0  0  0  0  0  0
  141.0360   75.7173  218.1000 H   0  0  0  0  0  0  0  0  0  0  0  0
  140.3044   76.7344  219.2903 H   0  0  0  0  0  0  0  0  0  0  0  0
  142.6479   77.4216  220.1836 H   0  0  0  0  0  0  0  0  0  0  0  0
  142.9160   77.2260  217.4530 H   0  0  0  0  0  0  0  0  0  0  0  0
  144.2632   75.6523  220.0204 H   0  0  0  0  0  0  0  0  0  0  0  0
  144.4630   76.3620  217.8210 H   0  0  0  0  0  0  0  0  0  0  0  0
  142.3672   73.7312  218.7459 H   0  0  0  0  0  0  0  0  0  0  0  0
  142.6677   73.3677  221.3837 H   0  0  0  0  0  0  0  0  0  0  0  0
  143.1466   71.2360  220.2610 H   0  0  0  0  0  0  0  0  0  0  0  0
  142.6727   72.1285  218.7887 H   0  0  0  0  0  0  0  0  0  0  0  0
  145.1161   70.9568  219.1488 H   0  0  0  0  0  0  0  0  0  0  0  0
  144.8592   72.3479  218.0857 H   0  0  0  0  0  0  0  0  0  0  0  0
  146.1854   72.1885  220.7219 H   0  0  0  0  0  0  0  0  0  0  0  0
  146.3044   73.4634  219.4781 H   0  0  0  0  0  0  0  0  0  0  0  0
  144.7974   73.4933  221.9331 H   0  0  0  0  0  0  0  0  0  0  0  0
  144.8846   74.7679  220.6773 H   0  0  0  0  0  0  0  0  0  0  0  0
  138.7700   68.8462  222.8043 H   0  0  0  0  0  0  0  0  0  0  0  0
  138.8331   67.4015  224.8329 H   0  0  0  0  0  0  0  0  0  0  0  0
  139.4839   67.0829  227.1692 H   0  0  0  0  0  0  0  0  0  0  0  0
  141.5417   70.2480  229.2514 H   0  0  0  0  0  0  0  0  0  0  0  0
  141.4553   71.6536  227.1957 H   0  0  0  0  0  0  0  0  0  0  0  0
  1  2  2  0
  2  3  1  0
  3  4  1  0
  4  5  1  0
  5  6  2  0
  5  7  1  0
  7  8  1  0
  8  9  1  0
  9 10  1  0
  9 11  1  0
 11 12  1  0
 11 13  1  0
 13 14  1  0
 14 15  1  0
 15 16  1  0
 16 17  1  0
 17 18  1  0
  2 19  1  0
 19 20  2  0
 20 21  1  0
 21 22  2  0
 22 23  1  0
 23 24  2  0
 24 25  1  0
 24 26  1  0
 26 27  2  0
 27 28  1  0
 28 29  2  0
 13  7  1  0
 18 14  1  0
 29 19  1  0
 28 22  1  0
  3 30  1  0
  4 31  1  0
  4 32  1  0
  8 33  1  0
  8 34  1  0
  9 35  1  1
 10 36  1  0
 11 37  1  1
 12 38  1  0
 13 39  1  6
 14 40  1  0
 15 41  1  0
 15 42  1  0
 16 43  1  0
 16 44  1  0
 17 45  1  0
 17 46  1  0
 18 47  1  0
 18 48  1  0
 20 49  1  0
 21 50  1  0
 23 51  1  0
 26 52  1  0
 27 53  1  0
M  END
>  <smiles>  (25) 
O=C(NCC(=O)N1C[C@H](O)[C@H](O)[C@H]1C1CCCC1)c1ccc2cc(F)ccc2n1

>  <score_type>  (25) 
oracle

>  <origin>  (25) 
autodockgpu

>  <m_score__min__energy>  (25) 
-8.3100000000000005

>  <m_primary>  (25) 
energy

>  <rmsd>  (25) 
2.2046559776251033

>  <m_score__min__rmsd>  (25) 
2.2046559776251033

>  <meeko>  (25) 
{"free_energy": -7.53, "intermolecular_energy": -9.62, "internal_energy": -3.11, "cluster_size": 5, "cluster_id": 3, "rank_in_cluster": 2}

>  <energy>  (25) 
-7.25

>  <cluster_rmsd>  (25) 
1.06

>  <cluster>  (25) 
1

$$$$

     RDKit          3D

 53 56  0  0  0  0  0  0  0  0999 V2000
  139.3830   71.4720  221.0190 O   0  0  0  0  0  0  0  0  0  0  0  0
  139.9530   71.8760  222.0650 C   0  0  0  0  0  0  0  0  0  0  0  0
  140.6300   73.1790  222.0060 N   0  0  0  0  0  0  0  0  0  0  0  0
  140.5530   73.8290  220.7540 C   0  0  0  0  0  0  0  0  0  0  0  0
  141.4890   73.5750  219.6740 C   0  0  0  0  0  0  0  0  0  0  0  0
  140.8510   73.1020  218.6100 O   0  0  0  0  0  0  0  0  0  0  0  0
  142.8520   73.7060  219.4980 N   0  0  0  0  0  0  0  0  0  0  0  0
  143.8170   74.7610  219.8620 C   0  0  0  0  0  0  0  0  0  0  0  0
  144.8240   73.9180  220.6640 C   0  0  2  0  0  0  0  0  0  0  0  0
  146.0010   74.5830  220.9010 O   0  0  0  0  0  0  0  0  0  0  0  0
  144.9520   72.7260  219.7440 C   0  0  2  0  0  0  0  0  0  0  0  0
  146.1510   72.8270  219.0470 O   0  0  0  0  0  0  0  0  0  0  0  0
  143.7370   72.7420  218.8380 C   0  0  1  0  0  0  0  0  0  0  0  0
  143.2070   71.3990  218.5570 C   0  0  0  0  0  0  0  0  0  0  0  0
  144.2770   70.6830  217.7030 C   0  0  0  0  0  0  0  0  0  0  0  0
  145.0230   69.7490  218.5880 C   0  0  0  0  0  0  0  0  0  0  0  0
  144.1130   69.4690  219.7410 C   0  0  0  0  0  0  0  0  0  0  0  0
  143.0020   70.4990  219.7200 C   0  0  0  0  0  0  0  0  0  0  0  0
  139.9740   71.1240  223.3080 C   0  0  0  0  0  0  0  0  0  0  0  0
  139.4260   69.8590  223.2840 C   0  0  0  0  0  0  0  0  0  0  0  0
  139.4290   69.1190  224.4480 C   0  0  0  0  0  0  0  0  0  0  0  0
  139.9770   69.6500  225.6110 C   0  0  0  0  0  0  0  0  0  0  0  0
  139.9900   68.9220  226.7910 C   0  0  0  0  0  0  0  0  0  0  0  0
  140.5450   69.4930  227.9220 C   0  0  0  0  0  0  0  0  0  0  0  0
  140.5820   68.8140  229.1080 F   0  0  0  0  0  0  0  0  0  0  0  0
  141.0850   70.7610  227.9100 C   0  0  0  0  0  0  0  0  0  0  0  0
  141.0700   71.4800  226.7350 C   0  0  0  0  0  0  0  0  0  0  0  0
  140.5180   70.9200  225.6020 C   0  0  0  0  0  0  0  0  0  0  0  0
  140.5050   71.6280  224.4540 N   0  0  0  0  0  0  0  0  0  0  0  0
  141.0680   73.4370  222.8900 H   0  0  0  0  0  0  0  0  0  0  0  0
  139.5558   73.5963  220.3522 H   0  0  0  0  0  0  0  0  0  0  0  0
  140.8063   74.8641  221.0268 H   0  0  0  0  0  0  0  0  0  0  0  0
  144.2793   75.2182  218.9747 H   0  0  0  0  0  0  0  0  0  0  0  0
  143.3907   75.6197  220.4013 H   0  0  0  0  0  0  0  0  0  0  0  0
  144.5163   73.6576  221.6875 H   0  0  0  0  0  0  0  0  0  0  0  0
  146.4660   74.7080  220.0550 H   0  0  0  0  0  0  0  0  0  0  0  0
  144.9784   71.7674  220.2829 H   0  0  0  0  0  0  0  0  0  0  0  0
  146.3550   73.7690  218.9170 H   0  0  0  0  0  0  0  0  0  0  0  0
  143.9331   73.0627  217.8042 H   0  0  0  0  0  0  0  0  0  0  0  0
  142.2198   71.5679  218.1021 H   0  0  0  0  0  0  0  0  0  0  0  0
  143.7919   70.1208  216.8915 H   0  0  0  0  0  0  0  0  0  0  0  0
  144.9640   71.4174  217.2573 H   0  0  0  0  0  0  0  0  0  0  0  0
  145.2591   68.8184  218.0511 H   0  0  0  0  0  0  0  0  0  0  0  0
  145.9782   70.1813  218.9208 H   0  0  0  0  0  0  0  0  0  0  0  0
  143.6879   68.4591  219.6446 H   0  0  0  0  0  0  0  0  0  0  0  0
  144.6683   69.5245  220.6889 H   0  0  0  0  0  0  0  0  0  0  0  0
  142.0298   69.9925  219.6289 H   0  0  0  0  0  0  0  0  0  0  0  0
  143.0157   71.0831  220.6520 H   0  0  0  0  0  0  0  0  0  0  0  0
  138.9963   69.4494  222.3579 H   0  0  0  0  0  0  0  0  0  0  0  0
  138.9973   68.1073  224.4566 H   0  0  0  0  0  0  0  0  0  0  0  0
  139.5661   67.9076  226.8271 H   0  0  0  0  0  0  0  0  0  0  0  0
  141.5208   71.1918  228.8235 H   0  0  0  0  0  0  0  0  0  0  0  0
  141.4954   72.4938  226.7007 H   0  0  0  0  0  0  0  0  0  0  0  0
  1  2  2  0
  2  3  1  0
  3  4  1  0
  4  5  1  0
  5  6  2  0
  5  7  1  0
  7  8  1  0
  8  9  1  0
  9 10  1  0
  9 11  1  0
 11 12  1  0
 11 13  1  0
 13 14  1  0
 14 15  1  0
 15 16  1  0
 16 17  1  0
 17 18  1  0
  2 19  1  0
 19 20  2  0
 20 21  1  0
 21 22  2  0
 22 23  1  0
 23 24  2  0
 24 25  1  0
 24 26  1  0
 26 27  2  0
 27 28  1  0
 28 29  2  0
 13  7  1  0
 18 14  1  0
 29 19  1  0
 28 22  1  0
  3 30  1  0
  4 31  1  0
  4 32  1  0
  8 33  1  0
  8 34  1  0
  9 35  1  1
 10 36  1  0
 11 37  1  1
 12 38  1  0
 13 39  1  6
 14 40  1  0
 15 41  1  0
 15 42  1  0
 16 43  1  0
 16 44  1  0
 17 45  1  0
 17 46  1  0
 18 47  1  0
 18 48  1  0
 20 49  1  0
 21 50  1  0
 23 51  1  0
 26 52  1  0
 27 53  1  0
M  END
>  <smiles>  (26) 
O=C(NCC(=O)N1C[C@H](O)[C@H](O)[C@H]1C1CCCC1)c1ccc2cc(F)ccc2n1

>  <score_type>  (26) 
oracle

>  <origin>  (26) 
autodockgpu

>  <m_score__min__energy>  (26) 
-8.3100000000000005

>  <m_primary>  (26) 
energy

>  <rmsd>  (26) 
3.4716410420224495

>  <m_score__min__rmsd>  (26) 
3.4716410420224495

>  <meeko>  (26) 
{"free_energy": -7.24, "intermolecular_energy": -9.33, "internal_energy": -3.13, "cluster_size": 26, "cluster_id": 1, "rank_in_cluster": 26}

>  <energy>  (26) 
-7.24

>  <cluster_rmsd>  (26) 
1.11

>  <cluster>  (26) 
1

$$$$

     RDKit          3D

 53 56  0  0  0  0  0  0  0  0999 V2000
  141.3200   72.5420  220.9730 O   0  0  0  0  0  0  0  0  0  0  0  0
  140.5840   72.8140  221.9550 C   0  0  0  0  0  0  0  0  0  0  0  0
  139.9830   74.1540  222.0000 N   0  0  0  0  0  0  0  0  0  0  0  0
  140.3160   74.9880  220.9100 C   0  0  0  0  0  0  0  0  0  0  0  0
  141.1240   76.1870  221.0510 C   0  0  0  0  0  0  0  0  0  0  0  0
  141.0680   76.6370  222.3000 O   0  0  0  0  0  0  0  0  0  0  0  0
  141.9140   76.9490  220.2140 N   0  0  0  0  0  0  0  0  0  0  0  0
  142.8410   76.6080  219.1190 C   0  0  0  0  0  0  0  0  0  0  0  0
  142.2390   77.4720  217.9980 C   0  0  2  0  0  0  0  0  0  0  0  0
  143.0690   77.5820  216.9100 O   0  0  0  0  0  0  0  0  0  0  0  0
  142.0240   78.7620  218.7550 C   0  0  2  0  0  0  0  0  0  0  0  0
  143.0270   79.6580  218.4040 O   0  0  0  0  0  0  0  0  0  0  0  0
  142.0340   78.4090  220.2290 C   0  0  1  0  0  0  0  0  0  0  0  0
  141.0520   79.1750  221.0130 C   0  0  0  0  0  0  0  0  0  0  0  0
  141.6840   79.3880  222.4070 C   0  0  0  0  0  0  0  0  0  0  0  0
  142.1990   80.7820  222.4700 C   0  0  0  0  0  0  0  0  0  0  0  0
  141.4290   81.5460  221.4420 C   0  0  0  0  0  0  0  0  0  0  0  0
  140.7340   80.5460  220.5400 C   0  0  0  0  0  0  0  0  0  0  0  0
  140.3040   71.8770  223.0300 C   0  0  0  0  0  0  0  0  0  0  0  0
  139.6200   70.7280  222.6980 C   0  0  0  0  0  0  0  0  0  0  0  0
  139.3370   69.8180  223.6960 C   0  0  0  0  0  0  0  0  0  0  0  0
  139.7430   70.0690  225.0030 C   0  0  0  0  0  0  0  0  0  0  0  0
  139.4690   69.1670  226.0190 C   0  0  0  0  0  0  0  0  0  0  0  0
  139.8920   69.4600  227.3040 C   0  0  0  0  0  0  0  0  0  0  0  0
  139.6470   68.6020  228.3400 F   0  0  0  0  0  0  0  0  0  0  0  0
  140.5750   70.6190  227.6010 C   0  0  0  0  0  0  0  0  0  0  0  0
  140.8450   71.5120  226.5860 C   0  0  0  0  0  0  0  0  0  0  0  0
  140.4270   71.2290  225.3030 C   0  0  0  0  0  0  0  0  0  0  0  0
  140.6920   72.1060  224.3140 N   0  0  0  0  0  0  0  0  0  0  0  0
  139.4010   74.2990  222.8250 H   0  0  0  0  0  0  0  0  0  0  0  0
  140.8460   74.3480  220.1892 H   0  0  0  0  0  0  0  0  0  0  0  0
  139.3352   75.4122  220.6489 H   0  0  0  0  0  0  0  0  0  0  0  0
  143.8757   76.9001  219.3514 H   0  0  0  0  0  0  0  0  0  0  0  0
  142.9215   75.5349  218.8909 H   0  0  0  0  0  0  0  0  0  0  0  0
  141.3262   77.0742  217.5304 H   0  0  0  0  0  0  0  0  0  0  0  0
  143.7140   78.2920  217.0790 H   0  0  0  0  0  0  0  0  0  0  0  0
  141.0670   79.2479  218.5142 H   0  0  0  0  0  0  0  0  0  0  0  0
  143.2540   79.5180  217.4680 H   0  0  0  0  0  0  0  0  0  0  0  0
  142.9450   78.7021  220.7714 H   0  0  0  0  0  0  0  0  0  0  0  0
  140.1213   78.5912  220.9582 H   0  0  0  0  0  0  0  0  0  0  0  0
  140.9250   79.2348  223.1883 H   0  0  0  0  0  0  0  0  0  0  0  0
  142.5020   78.6707  222.5694 H   0  0  0  0  0  0  0  0  0  0  0  0
  142.0305   81.2080  223.4700 H   0  0  0  0  0  0  0  0  0  0  0  0
  143.2815   80.8233  222.2791 H   0  0  0  0  0  0  0  0  0  0  0  0
  140.6826   82.1867  221.9343 H   0  0  0  0  0  0  0  0  0  0  0  0
  142.1047   82.1855  220.8551 H   0  0  0  0  0  0  0  0  0  0  0  0
  139.6465   80.7073  220.5775 H   0  0  0  0  0  0  0  0  0  0  0  0
  141.0793   80.6738  219.5035 H   0  0  0  0  0  0  0  0  0  0  0  0
  139.3065   70.5402  221.6605 H   0  0  0  0  0  0  0  0  0  0  0  0
  138.7902   68.8937  223.4582 H   0  0  0  0  0  0  0  0  0  0  0  0
  138.9249   68.2346  225.8079 H   0  0  0  0  0  0  0  0  0  0  0  0
  140.8995   70.8284  228.6310 H   0  0  0  0  0  0  0  0  0  0  0  0
  141.3900   72.4436  226.7982 H   0  0  0  0  0  0  0  0  0  0  0  0
  1  2  2  0
  2  3  1  0
  3  4  1  0
  4  5  1  0
  5  6  2  0
  5  7  1  0
  7  8  1  0
  8  9  1  0
  9 10  1  0
  9 11  1  0
 11 12  1  0
 11 13  1  0
 13 14  1  0
 14 15  1  0
 15 16  1  0
 16 17  1  0
 17 18  1  0
  2 19  1  0
 19 20  2  0
 20 21  1  0
 21 22  2  0
 22 23  1  0
 23 24  2  0
 24 25  1  0
 24 26  1  0
 26 27  2  0
 27 28  1  0
 28 29  2  0
 13  7  1  0
 18 14  1  0
 29 19  1  0
 28 22  1  0
  3 30  1  0
  4 31  1  0
  4 32  1  0
  8 33  1  0
  8 34  1  0
  9 35  1  6
 10 36  1  0
 11 37  1  6
 12 38  1  0
 13 39  1  1
 14 40  1  0
 15 41  1  0
 15 42  1  0
 16 43  1  0
 16 44  1  0
 17 45  1  0
 17 46  1  0
 18 47  1  0
 18 48  1  0
 20 49  1  0
 21 50  1  0
 23 51  1  0
 26 52  1  0
 27 53  1  0
M  END
>  <smiles>  (27) 
O=C(NCC(=O)N1C[C@H](O)[C@H](O)[C@H]1C1CCCC1)c1ccc2cc(F)ccc2n1

>  <score_type>  (27) 
oracle

>  <origin>  (27) 
autodockgpu

>  <m_score__min__energy>  (27) 
-8.3100000000000005

>  <m_primary>  (27) 
energy

>  <rmsd>  (27) 
2.5628619110680724

>  <m_score__min__rmsd>  (27) 
2.5628619110680724

>  <meeko>  (27) 
{"free_energy": -7.96, "intermolecular_energy": -10.05, "internal_energy": -2.54, "cluster_size": 17, "cluster_id": 2, "rank_in_cluster": 6}

>  <energy>  (27) 
-8.15

>  <cluster_rmsd>  (27) 
0.0

>  <cluster>  (27) 
2

$$$$

     RDKit          3D

 53 56  0  0  0  0  0  0  0  0999 V2000
  140.2980   73.3840  222.3210 O   0  0  0  0  0  0  0  0  0  0  0  0
  140.0820   72.1450  222.2980 C   0  0  0  0  0  0  0  0  0  0  0  0
  139.8220   71.5270  220.9910 N   0  0  0  0  0  0  0  0  0  0  0  0
  139.8480   72.4220  219.8980 C   0  0  0  0  0  0  0  0  0  0  0  0
  141.0820   72.9010  219.2990 C   0  0  0  0  0  0  0  0  0  0  0  0
  140.9780   72.9150  217.9750 O   0  0  0  0  0  0  0  0  0  0  0  0
  142.3050   73.3330  219.7710 N   0  0  0  0  0  0  0  0  0  0  0  0
  143.5810   72.6430  220.0390 C   0  0  0  0  0  0  0  0  0  0  0  0
  144.5220   73.5090  219.1830 C   0  0  2  0  0  0  0  0  0  0  0  0
  145.8470   73.2790  219.4540 O   0  0  0  0  0  0  0  0  0  0  0  0
  144.0320   74.8840  219.5730 C   0  0  2  0  0  0  0  0  0  0  0  0
  144.9360   75.4420  220.4700 O   0  0  0  0  0  0  0  0  0  0  0  0
  142.6470   74.7030  220.1610 C   0  0  1  0  0  0  0  0  0  0  0  0
  141.7160   75.7800  219.7900 C   0  0  0  0  0  0  0  0  0  0  0  0
  140.6960   75.8870  220.9460 C   0  0  0  0  0  0  0  0  0  0  0  0
  141.0670   77.0620  221.7790 C   0  0  0  0  0  0  0  0  0  0  0  0
  141.8750   77.9510  220.8890 C   0  0  0  0  0  0  0  0  0  0  0  0
  142.2810   77.1480  219.6700 C   0  0  0  0  0  0  0  0  0  0  0  0
  140.0780   71.3100  223.4880 C   0  0  0  0  0  0  0  0  0  0  0  0
  139.5440   70.0460  223.3640 C   0  0  0  0  0  0  0  0  0  0  0  0
  139.5230   69.2280  224.4750 C   0  0  0  0  0  0  0  0  0  0  0  0
  140.0360   69.6830  225.6850 C   0  0  0  0  0  0  0  0  0  0  0  0
  140.0250   68.8770  226.8130 C   0  0  0  0  0  0  0  0  0  0  0  0
  140.5460   69.3740  227.9950 C   0  0  0  0  0  0  0  0  0  0  0  0
  140.5580   68.6170  229.1330 F   0  0  0  0  0  0  0  0  0  0  0  0
  141.0730   70.6440  228.0830 C   0  0  0  0  0  0  0  0  0  0  0  0
  141.0820   71.4420  226.9590 C   0  0  0  0  0  0  0  0  0  0  0  0
  140.5650   70.9550  225.7770 C   0  0  0  0  0  0  0  0  0  0  0  0
  140.5740   71.7400  224.6790 N   0  0  0  0  0  0  0  0  0  0  0  0
  139.6570   70.5220  221.0540 H   0  0  0  0  0  0  0  0  0  0  0  0
  139.2893   71.9291  219.0888 H   0  0  0  0  0  0  0  0  0  0  0  0
  139.4532   73.3411  220.3556 H   0  0  0  0  0  0  0  0  0  0  0  0
  143.8494   72.6760  221.1053 H   0  0  0  0  0  0  0  0  0  0  0  0
  143.5906   71.5683  219.8045 H   0  0  0  0  0  0  0  0  0  0  0  0
  144.4898   73.3168  218.1004 H   0  0  0  0  0  0  0  0  0  0  0  0
  146.3240   74.1280  219.4330 H   0  0  0  0  0  0  0  0  0  0  0  0
  143.9653   75.5754  218.7200 H   0  0  0  0  0  0  0  0  0  0  0  0
  145.8370   75.2640  220.1520 H   0  0  0  0  0  0  0  0  0  0  0  0
  142.5896   74.8040  221.2548 H   0  0  0  0  0  0  0  0  0  0  0  0
  141.3344   75.5008  218.7968 H   0  0  0  0  0  0  0  0  0  0  0  0
  139.6832   76.0229  220.5388 H   0  0  0  0  0  0  0  0  0  0  0  0
  140.7082   74.9694  221.5526 H   0  0  0  0  0  0  0  0  0  0  0  0
  140.1644   77.5858  222.1268 H   0  0  0  0  0  0  0  0  0  0  0  0
  141.6319   76.7625  222.6741 H   0  0  0  0  0  0  0  0  0  0  0  0
  141.2725   78.8183  220.5811 H   0  0  0  0  0  0  0  0  0  0  0  0
  142.7661   78.3162  221.4205 H   0  0  0  0  0  0  0  0  0  0  0  0
  141.8909   77.6311  218.7620 H   0  0  0  0  0  0  0  0  0  0  0  0
  143.3778   77.0956  219.6045 H   0  0  0  0  0  0  0  0  0  0  0  0
  139.1434   69.6968  222.4009 H   0  0  0  0  0  0  0  0  0  0  0  0
  139.1001   68.2150  224.4036 H   0  0  0  0  0  0  0  0  0  0  0  0
  139.6092   67.8596  226.7693 H   0  0  0  0  0  0  0  0  0  0  0  0
  141.4801   71.0153  229.0351 H   0  0  0  0  0  0  0  0  0  0  0  0
  141.4983   72.4592  227.0046 H   0  0  0  0  0  0  0  0  0  0  0  0
  1  2  2  0
  2  3  1  0
  3  4  1  0
  4  5  1  0
  5  6  2  0
  5  7  1  0
  7  8  1  0
  8  9  1  0
  9 10  1  0
  9 11  1  0
 11 12  1  0
 11 13  1  0
 13 14  1  0
 14 15  1  0
 15 16  1  0
 16 17  1  0
 17 18  1  0
  2 19  1  0
 19 20  2  0
 20 21  1  0
 21 22  2  0
 22 23  1  0
 23 24  2  0
 24 25  1  0
 24 26  1  0
 26 27  2  0
 27 28  1  0
 28 29  2  0
 13  7  1  0
 18 14  1  0
 29 19  1  0
 28 22  1  0
  3 30  1  0
  4 31  1  0
  4 32  1  0
  8 33  1  0
  8 34  1  0
  9 35  1  6
 10 36  1  0
 11 37  1  6
 12 38  1  0
 13 39  1  1
 14 40  1  0
 15 41  1  0
 15 42  1  0
 16 43  1  0
 16 44  1  0
 17 45  1  0
 17 46  1  0
 18 47  1  0
 18 48  1  0
 20 49  1  0
 21 50  1  0
 23 51  1  0
 26 52  1  0
 27 53  1  0
M  END
>  <smiles>  (28) 
O=C(NCC(=O)N1C[C@H](O)[C@H](O)[C@H]1C1CCCC1)c1ccc2cc(F)ccc2n1

>  <score_type>  (28) 
oracle

>  <origin>  (28) 
autodockgpu

>  <m_score__min__energy>  (28) 
-8.3100000000000005

>  <m_primary>  (28) 
energy

>  <rmsd>  (28) 
3.0417768332222357

>  <m_score__min__rmsd>  (28) 
3.0417768332222357

>  <meeko>  (28) 
{"free_energy": -7.68, "intermolecular_energy": -9.76, "internal_energy": -2.84, "cluster_size": 26, "cluster_id": 1, "rank_in_cluster": 13}

>  <energy>  (28) 
-8.14

>  <cluster_rmsd>  (28) 
0.09

>  <cluster>  (28) 
2

$$$$

     RDKit          3D

 53 56  0  0  0  0  0  0  0  0999 V2000
  141.0780   71.7810  221.4730 O   0  0  0  0  0  0  0  0  0  0  0  0
  140.2780   72.0110  222.4160 C   0  0  0  0  0  0  0  0  0  0  0  0
  139.4070   73.1890  222.2920 N   0  0  0  0  0  0  0  0  0  0  0  0
  139.5810   73.9300  221.1020 C   0  0  0  0  0  0  0  0  0  0  0  0
  140.8030   74.6530  220.7950 C   0  0  0  0  0  0  0  0  0  0  0  0
  141.2630   75.2670  221.8800 O   0  0  0  0  0  0  0  0  0  0  0  0
  141.5780   74.8470  219.6700 N   0  0  0  0  0  0  0  0  0  0  0  0
  141.4470   75.7320  218.4970 C   0  0  0  0  0  0  0  0  0  0  0  0
  142.8090   76.4440  218.5620 C   0  0  2  0  0  0  0  0  0  0  0  0
  143.0980   77.1410  217.4160 O   0  0  0  0  0  0  0  0  0  0  0  0
  143.7080   75.2570  218.8180 C   0  0  2  0  0  0  0  0  0  0  0  0
  144.3550   74.9230  217.6340 O   0  0  0  0  0  0  0  0  0  0  0  0
  142.8230   74.1450  219.3450 C   0  0  1  0  0  0  0  0  0  0  0  0
  143.4630   73.3490  220.4040 C   0  0  0  0  0  0  0  0  0  0  0  0
  143.6920   71.9420  219.8070 C   0  0  0  0  0  0  0  0  0  0  0  0
  145.1270   71.8290  219.4310 C   0  0  0  0  0  0  0  0  0  0  0  0
  145.8450   72.8420  220.2640 C   0  0  0  0  0  0  0  0  0  0  0  0
  144.8110   73.7820  220.8510 C   0  0  0  0  0  0  0  0  0  0  0  0
  140.1780   71.1800  223.6040 C   0  0  0  0  0  0  0  0  0  0  0  0
  139.5650   69.9540  223.4600 C   0  0  0  0  0  0  0  0  0  0  0  0
  139.4530   69.1410  224.5690 C   0  0  0  0  0  0  0  0  0  0  0  0
  139.9540   69.5620  225.7960 C   0  0  0  0  0  0  0  0  0  0  0  0
  139.8520   68.7590  226.9220 C   0  0  0  0  0  0  0  0  0  0  0  0
  140.3650   69.2210  228.1210 C   0  0  0  0  0  0  0  0  0  0  0  0
  140.2880   68.4660  229.2580 F   0  0  0  0  0  0  0  0  0  0  0  0
  140.9730   70.4530  228.2290 C   0  0  0  0  0  0  0  0  0  0  0  0
  141.0720   71.2470  227.1060 C   0  0  0  0  0  0  0  0  0  0  0  0
  140.5630   70.7950  225.9070 C   0  0  0  0  0  0  0  0  0  0  0  0
  140.6620   71.5760  224.8120 N   0  0  0  0  0  0  0  0  0  0  0  0
  138.7890   73.3090  223.0940 H   0  0  0  0  0  0  0  0  0  0  0  0
  139.4339   73.2179  220.2766 H   0  0  0  0  0  0  0  0  0  0  0  0
  138.8669   74.7539  221.2478 H   0  0  0  0  0  0  0  0  0  0  0  0
  141.3264   75.1616  217.5642 H   0  0  0  0  0  0  0  0  0  0  0  0
  140.5705   76.3966  218.5078 H   0  0  0  0  0  0  0  0  0  0  0  0
  142.8944   77.2367  219.3199 H   0  0  0  0  0  0  0  0  0  0  0  0
  144.0400   77.0130  217.2010 H   0  0  0  0  0  0  0  0  0  0  0  0
  144.4935   75.4643  219.5596 H   0  0  0  0  0  0  0  0  0  0  0  0
  144.7770   75.7230  217.2760 H   0  0  0  0  0  0  0  0  0  0  0  0
  142.6187   73.3353  218.6290 H   0  0  0  0  0  0  0  0  0  0  0  0
  142.7930   73.4329  221.2724 H   0  0  0  0  0  0  0  0  0  0  0  0
  143.4404   71.1744  220.5537 H   0  0  0  0  0  0  0  0  0  0  0  0
  143.0532   71.7935  218.9239 H   0  0  0  0  0  0  0  0  0  0  0  0
  145.5020   70.8181  219.6488 H   0  0  0  0  0  0  0  0  0  0  0  0
  145.2800   72.0056  218.3561 H   0  0  0  0  0  0  0  0  0  0  0  0
  146.3942   72.3385  221.0733 H   0  0  0  0  0  0  0  0  0  0  0  0
  146.5654   73.4015  219.6493 H   0  0  0  0  0  0  0  0  0  0  0  0
  144.8641   73.7509  221.9493 H   0  0  0  0  0  0  0  0  0  0  0  0
  145.0051   74.8103  220.5118 H   0  0  0  0  0  0  0  0  0  0  0  0
  139.1742   69.6313  222.4837 H   0  0  0  0  0  0  0  0  0  0  0  0
  138.9666   68.1582  224.4825 H   0  0  0  0  0  0  0  0  0  0  0  0
  139.3713   67.7714  226.8629 H   0  0  0  0  0  0  0  0  0  0  0  0
  141.3725   70.7971  229.1944 H   0  0  0  0  0  0  0  0  0  0  0  0
  141.5537   72.2341  227.1663 H   0  0  0  0  0  0  0  0  0  0  0  0
  1  2  2  0
  2  3  1  0
  3  4  1  0
  4  5  1  0
  5  6  2  0
  5  7  1  0
  7  8  1  0
  8  9  1  0
  9 10  1  0
  9 11  1  0
 11 12  1  0
 11 13  1  0
 13 14  1  0
 14 15  1  0
 15 16  1  0
 16 17  1  0
 17 18  1  0
  2 19  1  0
 19 20  2  0
 20 21  1  0
 21 22  2  0
 22 23  1  0
 23 24  2  0
 24 25  1  0
 24 26  1  0
 26 27  2  0
 27 28  1  0
 28 29  2  0
 13  7  1  0
 18 14  1  0
 29 19  1  0
 28 22  1  0
  3 30  1  0
  4 31  1  0
  4 32  1  0
  8 33  1  0
  8 34  1  0
  9 35  1  1
 10 36  1  0
 11 37  1  1
 12 38  1  0
 13 39  1  6
 14 40  1  0
 15 41  1  0
 15 42  1  0
 16 43  1  0
 16 44  1  0
 17 45  1  0
 17 46  1  0
 18 47  1  0
 18 48  1  0
 20 49  1  0
 21 50  1  0
 23 51  1  0
 26 52  1  0
 27 53  1  0
M  END
>  <smiles>  (29) 
O=C(NCC(=O)N1C[C@H](O)[C@H](O)[C@H]1C1CCCC1)c1ccc2cc(F)ccc2n1

>  <score_type>  (29) 
oracle

>  <origin>  (29) 
autodockgpu

>  <m_score__min__energy>  (29) 
-8.3100000000000005

>  <m_primary>  (29) 
energy

>  <rmsd>  (29) 
2.2067385982674916

>  <m_score__min__rmsd>  (29) 
2.2067385982674916

>  <meeko>  (29) 
{"free_energy": -7.8, "intermolecular_energy": -9.89, "internal_energy": -2.94, "cluster_size": 26, "cluster_id": 1, "rank_in_cluster": 9}

>  <energy>  (29) 
-8.09

>  <cluster_rmsd>  (29) 
0.12

>  <cluster>  (29) 
2

$$$$

     RDKit          3D

 53 56  0  0  0  0  0  0  0  0999 V2000
  138.9080   71.9710  221.3190 O   0  0  0  0  0  0  0  0  0  0  0  0
  139.7820   72.1500  222.2050 C   0  0  0  0  0  0  0  0  0  0  0  0
  140.7450   73.2410  221.9950 N   0  0  0  0  0  0  0  0  0  0  0  0
  140.5620   73.9680  220.7980 C   0  0  0  0  0  0  0  0  0  0  0  0
  141.4680   73.8660  219.6670 C   0  0  0  0  0  0  0  0  0  0  0  0
  140.7860   73.6810  218.5420 O   0  0  0  0  0  0  0  0  0  0  0  0
  142.8360   73.9150  219.4920 N   0  0  0  0  0  0  0  0  0  0  0  0
  143.8660   74.9000  219.8730 C   0  0  0  0  0  0  0  0  0  0  0  0
  144.8180   73.9820  220.6580 C   0  0  2  0  0  0  0  0  0  0  0  0
  146.0340   74.5680  220.9050 O   0  0  0  0  0  0  0  0  0  0  0  0
  144.8710   72.8010  219.7170 C   0  0  2  0  0  0  0  0  0  0  0  0
  146.0730   72.8380  219.0210 O   0  0  0  0  0  0  0  0  0  0  0  0
  143.6590   72.9090  218.8140 C   0  0  1  0  0  0  0  0  0  0  0  0
  143.0460   71.6060  218.5100 C   0  0  0  0  0  0  0  0  0  0  0  0
  144.0670   70.8410  217.6380 C   0  0  0  0  0  0  0  0  0  0  0  0
  144.7560   69.8460  218.5030 C   0  0  0  0  0  0  0  0  0  0  0  0
  143.8340   69.6020  219.6550 C   0  0  0  0  0  0  0  0  0  0  0  0
  142.7890   70.6990  219.6570 C   0  0  0  0  0  0  0  0  0  0  0  0
  139.8830   71.3400  223.4070 C   0  0  0  0  0  0  0  0  0  0  0  0
  139.4560   70.0320  223.3180 C   0  0  0  0  0  0  0  0  0  0  0  0
  139.5370   69.2360  224.4420 C   0  0  0  0  0  0  0  0  0  0  0  0
  140.0430   69.7550  225.6300 C   0  0  0  0  0  0  0  0  0  0  0  0
  140.1330   68.9720  226.7690 C   0  0  0  0  0  0  0  0  0  0  0  0
  140.6420   69.5330  227.9280 C   0  0  0  0  0  0  0  0  0  0  0  0
  140.7510   68.8000  229.0760 F   0  0  0  0  0  0  0  0  0  0  0  0
  141.0610   70.8440  227.9800 C   0  0  0  0  0  0  0  0  0  0  0  0
  140.9690   71.6190  226.8440 C   0  0  0  0  0  0  0  0  0  0  0  0
  140.4630   71.0690  225.6860 C   0  0  0  0  0  0  0  0  0  0  0  0
  140.3740   71.8310  224.5760 N   0  0  0  0  0  0  0  0  0  0  0  0
  141.4210   73.3230  222.7540 H   0  0  0  0  0  0  0  0  0  0  0  0
  139.5695   73.6834  220.4186 H   0  0  0  0  0  0  0  0  0  0  0  0
  140.7441   74.9991  221.1352 H   0  0  0  0  0  0  0  0  0  0  0  0
  144.3557   75.3427  218.9931 H   0  0  0  0  0  0  0  0  0  0  0  0
  143.4950   75.7741  220.4283 H   0  0  0  0  0  0  0  0  0  0  0  0
  144.4949   73.7229  221.6771 H   0  0  0  0  0  0  0  0  0  0  0  0
  146.5060   74.6780  220.0600 H   0  0  0  0  0  0  0  0  0  0  0  0
  144.8378   71.8332  220.2387 H   0  0  0  0  0  0  0  0  0  0  0  0
  146.3380   73.7670  218.9100 H   0  0  0  0  0  0  0  0  0  0  0  0
  143.8739   73.2354  217.7857 H   0  0  0  0  0  0  0  0  0  0  0  0
  142.0699   71.8442  218.0621 H   0  0  0  0  0  0  0  0  0  0  0  0
  143.5455   70.3253  216.8182 H   0  0  0  0  0  0  0  0  0  0  0  0
  144.7969   71.5394  217.2028 H   0  0  0  0  0  0  0  0  0  0  0  0
  144.9318   68.9125  217.9484 H   0  0  0  0  0  0  0  0  0  0  0  0
  145.7373   70.2119  218.8395 H   0  0  0  0  0  0  0  0  0  0  0  0
  143.3468   68.6222  219.5425 H   0  0  0  0  0  0  0  0  0  0  0  0
  144.3947   69.6058  220.6014 H   0  0  0  0  0  0  0  0  0  0  0  0
  141.7870   70.2554  219.5604 H   0  0  0  0  0  0  0  0  0  0  0  0
  142.8415   71.2638  220.5995 H   0  0  0  0  0  0  0  0  0  0  0  0
  139.0599   69.6324  222.3728 H   0  0  0  0  0  0  0  0  0  0  0  0
  139.2011   68.1894  224.3991 H   0  0  0  0  0  0  0  0  0  0  0  0
  139.8055   67.9220  226.7530 H   0  0  0  0  0  0  0  0  0  0  0  0
  141.4626   71.2657  228.9132 H   0  0  0  0  0  0  0  0  0  0  0  0
  141.2970   72.6688  226.8614 H   0  0  0  0  0  0  0  0  0  0  0  0
  1  2  2  0
  2  3  1  0
  3  4  1  0
  4  5  1  0
  5  6  2  0
  5  7  1  0
  7  8  1  0
  8  9  1  0
  9 10  1  0
  9 11  1  0
 11 12  1  0
 11 13  1  0
 13 14  1  0
 14 15  1  0
 15 16  1  0
 16 17  1  0
 17 18  1  0
  2 19  1  0
 19 20  2  0
 20 21  1  0
 21 22  2  0
 22 23  1  0
 23 24  2  0
 24 25  1  0
 24 26  1  0
 26 27  2  0
 27 28  1  0
 28 29  2  0
 13  7  1  0
 18 14  1  0
 29 19  1  0
 28 22  1  0
  3 30  1  0
  4 31  1  0
  4 32  1  0
  8 33  1  0
  8 34  1  0
  9 35  1  1
 10 36  1  0
 11 37  1  1
 12 38  1  0
 13 39  1  6
 14 40  1  0
 15 41  1  0
 15 42  1  0
 16 43  1  0
 16 44  1  0
 17 45  1  0
 17 46  1  0
 18 47  1  0
 18 48  1  0
 20 49  1  0
 21 50  1  0
 23 51  1  0
 26 52  1  0
 27 53  1  0
M  END
>  <smiles>  (30) 
O=C(NCC(=O)N1C[C@H](O)[C@H](O)[C@H]1C1CCCC1)c1ccc2cc(F)ccc2n1

>  <score_type>  (30) 
oracle

>  <origin>  (30) 
autodockgpu

>  <m_score__min__energy>  (30) 
-8.3100000000000005

>  <m_primary>  (30) 
energy

>  <rmsd>  (30) 
3.4430323162367227

>  <m_score__min__rmsd>  (30) 
3.4430323162367227

>  <meeko>  (30) 
{"free_energy": -7.25, "intermolecular_energy": -9.33, "internal_energy": -3.01, "cluster_size": 26, "cluster_id": 1, "rank_in_cluster": 25}

>  <energy>  (30) 
-8.07

>  <cluster_rmsd>  (30) 
0.11

>  <cluster>  (30) 
2

$$$$

     RDKit          3D

 53 56  0  0  0  0  0  0  0  0999 V2000
  140.0790   72.9900  222.8090 O   0  0  0  0  0  0  0  0  0  0  0  0
  140.2830   71.7640  223.0060 C   0  0  0  0  0  0  0  0  0  0  0  0
  140.3540   70.8920  221.8260 N   0  0  0  0  0  0  0  0  0  0  0  0
  140.1810   71.5540  220.5900 C   0  0  0  0  0  0  0  0  0  0  0  0
  141.2850   72.1320  219.8430 C   0  0  0  0  0  0  0  0  0  0  0  0
  141.0720   72.0140  218.5370 O   0  0  0  0  0  0  0  0  0  0  0  0
  142.4720   72.7590  220.1640 N   0  0  0  0  0  0  0  0  0  0  0  0
  143.8510   72.2690  220.3490 C   0  0  0  0  0  0  0  0  0  0  0  0
  144.5820   73.1840  219.3510 C   0  0  2  0  0  0  0  0  0  0  0  0
  145.9450   73.1550  219.5060 O   0  0  0  0  0  0  0  0  0  0  0  0
  143.9400   74.5070  219.6980 C   0  0  2  0  0  0  0  0  0  0  0  0
  144.8320   75.2490  220.4650 O   0  0  0  0  0  0  0  0  0  0  0  0
  142.6510   74.1890  220.4290 C   0  0  1  0  0  0  0  0  0  0  0  0
  141.5490   75.0990  220.0830 C   0  0  0  0  0  0  0  0  0  0  0  0
  140.7180   75.2830  221.3730 C   0  0  0  0  0  0  0  0  0  0  0  0
  141.0690   76.6030  221.9620 C   0  0  0  0  0  0  0  0  0  0  0  0
  141.6130   77.4190  220.8330 C   0  0  0  0  0  0  0  0  0  0  0  0
  141.9170   76.4810  219.6820 C   0  0  0  0  0  0  0  0  0  0  0  0
  140.4470   71.1810  224.3270 C   0  0  0  0  0  0  0  0  0  0  0  0
  140.7310   72.0460  225.3620 C   0  0  0  0  0  0  0  0  0  0  0  0
  140.8940   71.5250  226.6290 C   0  0  0  0  0  0  0  0  0  0  0  0
  140.7700   70.1550  226.8410 C   0  0  0  0  0  0  0  0  0  0  0  0
  140.9310   69.6120  228.1060 C   0  0  0  0  0  0  0  0  0  0  0  0
  140.7990   68.2440  228.2670 C   0  0  0  0  0  0  0  0  0  0  0  0
  140.9470   67.6620  229.4950 F   0  0  0  0  0  0  0  0  0  0  0  0
  140.5140   67.4080  227.2090 C   0  0  0  0  0  0  0  0  0  0  0  0
  140.3560   67.9540  225.9530 C   0  0  0  0  0  0  0  0  0  0  0  0
  140.4850   69.3160  225.7830 C   0  0  0  0  0  0  0  0  0  0  0  0
  140.3310   69.8450  224.5520 N   0  0  0  0  0  0  0  0  0  0  0  0
  140.5200   69.9150  222.0660 H   0  0  0  0  0  0  0  0  0  0  0  0
  139.7094   70.8225  219.9173 H   0  0  0  0  0  0  0  0  0  0  0  0
  139.6266   72.4533  220.8965 H   0  0  0  0  0  0  0  0  0  0  0  0
  144.2053   72.4199  221.3794 H   0  0  0  0  0  0  0  0  0  0  0  0
  143.9906   71.1904  220.1841 H   0  0  0  0  0  0  0  0  0  0  0  0
  144.4822   72.9062  218.2913 H   0  0  0  0  0  0  0  0  0  0  0  0
  146.2930   74.0560  219.3880 H   0  0  0  0  0  0  0  0  0  0  0  0
  143.7024   75.1148  218.8125 H   0  0  0  0  0  0  0  0  0  0  0  0
  145.7300   75.1020  220.1220 H   0  0  0  0  0  0  0  0  0  0  0  0
  142.6765   74.3668  221.5142 H   0  0  0  0  0  0  0  0  0  0  0  0
  141.0526   74.6337  219.2187 H   0  0  0  0  0  0  0  0  0  0  0  0
  139.6449   75.2549  221.1329 H   0  0  0  0  0  0  0  0  0  0  0  0
  140.9374   74.4756  222.0871 H   0  0  0  0  0  0  0  0  0  0  0  0
  140.1750   77.0834  222.3863 H   0  0  0  0  0  0  0  0  0  0  0  0
  141.7995   76.5017  222.7782 H   0  0  0  0  0  0  0  0  0  0  0  0
  140.8687   78.1658  220.5195 H   0  0  0  0  0  0  0  0  0  0  0  0
  142.5255   77.9466  221.1475 H   0  0  0  0  0  0  0  0  0  0  0  0
  141.3328   76.7779  218.7985 H   0  0  0  0  0  0  0  0  0  0  0  0
  142.9879   76.5265  219.4347 H   0  0  0  0  0  0  0  0  0  0  0  0
  140.8255   73.1270  225.1818 H   0  0  0  0  0  0  0  0  0  0  0  0
  141.1222   72.1931  227.4726 H   0  0  0  0  0  0  0  0  0  0  0  0
  141.1597   70.2573  228.9670 H   0  0  0  0  0  0  0  0  0  0  0  0
  140.4143   66.3236  227.3641 H   0  0  0  0  0  0  0  0  0  0  0  0
  140.1286   67.3075  225.0926 H   0  0  0  0  0  0  0  0  0  0  0  0
  1  2  2  0
  2  3  1  0
  3  4  1  0
  4  5  1  0
  5  6  2  0
  5  7  1  0
  7  8  1  0
  8  9  1  0
  9 10  1  0
  9 11  1  0
 11 12  1  0
 11 13  1  0
 13 14  1  0
 14 15  1  0
 15 16  1  0
 16 17  1  0
 17 18  1  0
  2 19  1  0
 19 20  2  0
 20 21  1  0
 21 22  2  0
 22 23  1  0
 23 24  2  0
 24 25  1  0
 24 26  1  0
 26 27  2  0
 27 28  1  0
 28 29  2  0
 13  7  1  0
 18 14  1  0
 29 19  1  0
 28 22  1  0
  3 30  1  0
  4 31  1  0
  4 32  1  0
  8 33  1  0
  8 34  1  0
  9 35  1  6
 10 36  1  0
 11 37  1  6
 12 38  1  0
 13 39  1  1
 14 40  1  0
 15 41  1  0
 15 42  1  0
 16 43  1  0
 16 44  1  0
 17 45  1  0
 17 46  1  0
 18 47  1  0
 18 48  1  0
 20 49  1  0
 21 50  1  0
 23 51  1  0
 26 52  1  0
 27 53  1  0
M  END
>  <smiles>  (31) 
O=C(NCC(=O)N1C[C@H](O)[C@H](O)[C@H]1C1CCCC1)c1ccc2cc(F)ccc2n1

>  <score_type>  (31) 
oracle

>  <origin>  (31) 
autodockgpu

>  <m_score__min__energy>  (31) 
-8.3100000000000005

>  <m_primary>  (31) 
energy

>  <rmsd>  (31) 
3.987033166604846

>  <m_score__min__rmsd>  (31) 
3.987033166604846

>  <meeko>  (31) 
{"free_energy": -7.65, "intermolecular_energy": -9.74, "internal_energy": -3.14, "cluster_size": 26, "cluster_id": 1, "rank_in_cluster": 14}

>  <energy>  (31) 
-8.04

>  <cluster_rmsd>  (31) 
0.11

>  <cluster>  (31) 
2

$$$$

     RDKit          3D

 53 56  0  0  0  0  0  0  0  0999 V2000
  141.4730   72.6080  221.6530 O   0  0  0  0  0  0  0  0  0  0  0  0
  140.5130   72.6660  222.4620 C   0  0  0  0  0  0  0  0  0  0  0  0
  139.5690   73.7830  222.3150 N   0  0  0  0  0  0  0  0  0  0  0  0
  139.8660   74.6710  221.2570 C   0  0  0  0  0  0  0  0  0  0  0  0
  140.6600   75.8740  221.4370 C   0  0  0  0  0  0  0  0  0  0  0  0
  140.6280   76.2640  222.7070 O   0  0  0  0  0  0  0  0  0  0  0  0
  141.4210   76.6860  220.6200 N   0  0  0  0  0  0  0  0  0  0  0  0
  142.1500   76.4460  219.3610 C   0  0  0  0  0  0  0  0  0  0  0  0
  141.5160   77.5420  218.4870 C   0  0  2  0  0  0  0  0  0  0  0  0
  142.2050   77.7530  217.3190 O   0  0  0  0  0  0  0  0  0  0  0  0
  141.5590   78.7000  219.4570 C   0  0  2  0  0  0  0  0  0  0  0  0
  142.6080   79.5410  219.1040 O   0  0  0  0  0  0  0  0  0  0  0  0
  141.7170   78.1040  220.8420 C   0  0  1  0  0  0  0  0  0  0  0  0
  140.9450   78.8180  221.8710 C   0  0  0  0  0  0  0  0  0  0  0  0
  141.8260   78.8310  223.1400 C   0  0  0  0  0  0  0  0  0  0  0  0
  142.4410   80.1800  223.2590 C   0  0  0  0  0  0  0  0  0  0  0  0
  141.5570   81.0990  222.4780 C   0  0  0  0  0  0  0  0  0  0  0  0
  140.6450   80.2490  221.6160 C   0  0  0  0  0  0  0  0  0  0  0  0
  140.2970   71.6940  223.5210 C   0  0  0  0  0  0  0  0  0  0  0  0
  139.5940   70.5550  223.1920 C   0  0  0  0  0  0  0  0  0  0  0  0
  139.3710   69.6120  224.1740 C   0  0  0  0  0  0  0  0  0  0  0  0
  139.8530   69.8200  225.4620 C   0  0  0  0  0  0  0  0  0  0  0  0
  139.6400   68.8850  226.4630 C   0  0  0  0  0  0  0  0  0  0  0  0
  140.1390   69.1360  227.7290 C   0  0  0  0  0  0  0  0  0  0  0  0
  139.9540   68.2440  228.7490 F   0  0  0  0  0  0  0  0  0  0  0  0
  140.8390   70.2860  228.0230 C   0  0  0  0  0  0  0  0  0  0  0  0
  141.0480   71.2120  227.0250 C   0  0  0  0  0  0  0  0  0  0  0  0
  140.5550   70.9710  225.7600 C   0  0  0  0  0  0  0  0  0  0  0  0
  140.7610   71.8810  224.7860 N   0  0  0  0  0  0  0  0  0  0  0  0
  138.8200   73.7610  223.0060 H   0  0  0  0  0  0  0  0  0  0  0  0
  140.3890   74.0729  220.4963 H   0  0  0  0  0  0  0  0  0  0  0  0
  138.8739   75.0914  221.0356 H   0  0  0  0  0  0  0  0  0  0  0  0
  143.2337   76.5920  219.4802 H   0  0  0  0  0  0  0  0  0  0  0  0
  142.0702   75.4242  218.9614 H   0  0  0  0  0  0  0  0  0  0  0  0
  140.5091   77.3202  218.1036 H   0  0  0  0  0  0  0  0  0  0  0  0
  142.4860   78.6850  217.2850 H   0  0  0  0  0  0  0  0  0  0  0  0
  140.6443   79.3107  219.4375 H   0  0  0  0  0  0  0  0  0  0  0  0
  143.3190   79.0020  218.7170 H   0  0  0  0  0  0  0  0  0  0  0  0
  142.7190   78.2115  221.2829 H   0  0  0  0  0  0  0  0  0  0  0  0
  139.9806   78.2917  221.9248 H   0  0  0  0  0  0  0  0  0  0  0  0
  141.2077   78.6232  224.0258 H   0  0  0  0  0  0  0  0  0  0  0  0
  142.6072   78.0597  223.0706 H   0  0  0  0  0  0  0  0  0  0  0  0
  142.4816   80.4912  224.3133 H   0  0  0  0  0  0  0  0  0  0  0  0
  143.4733   80.1901  222.8791 H   0  0  0  0  0  0  0  0  0  0  0  0
  140.9562   81.7129  223.1652 H   0  0  0  0  0  0  0  0  0  0  0  0
  142.1618   81.7696  221.8498 H   0  0  0  0  0  0  0  0  0  0  0  0
  139.5953   80.4579  221.8701 H   0  0  0  0  0  0  0  0  0  0  0  0
  140.8095   80.4824  220.5537 H   0  0  0  0  0  0  0  0  0  0  0  0
  139.2191   70.4013  222.1693 H   0  0  0  0  0  0  0  0  0  0  0  0
  138.8115   68.6948  223.9381 H   0  0  0  0  0  0  0  0  0  0  0  0
  139.0837   67.9592  226.2545 H   0  0  0  0  0  0  0  0  0  0  0  0
  141.2246   70.4616  229.0381 H   0  0  0  0  0  0  0  0  0  0  0  0
  141.6043   72.1373  227.2356 H   0  0  0  0  0  0  0  0  0  0  0  0
  1  2  2  0
  2  3  1  0
  3  4  1  0
  4  5  1  0
  5  6  2  0
  5  7  1  0
  7  8  1  0
  8  9  1  0
  9 10  1  0
  9 11  1  0
 11 12  1  0
 11 13  1  0
 13 14  1  0
 14 15  1  0
 15 16  1  0
 16 17  1  0
 17 18  1  0
  2 19  1  0
 19 20  2  0
 20 21  1  0
 21 22  2  0
 22 23  1  0
 23 24  2  0
 24 25  1  0
 24 26  1  0
 26 27  2  0
 27 28  1  0
 28 29  2  0
 13  7  1  0
 18 14  1  0
 29 19  1  0
 28 22  1  0
  3 30  1  0
  4 31  1  0
  4 32  1  0
  8 33  1  0
  8 34  1  0
  9 35  1  6
 10 36  1  0
 11 37  1  1
 12 38  1  0
 13 39  1  1
 14 40  1  0
 15 41  1  0
 15 42  1  0
 16 43  1  0
 16 44  1  0
 17 45  1  0
 17 46  1  0
 18 47  1  0
 18 48  1  0
 20 49  1  0
 21 50  1  0
 23 51  1  0
 26 52  1  0
 27 53  1  0
M  END
>  <smiles>  (32) 
O=C(NCC(=O)N1C[C@H](O)[C@H](O)[C@H]1C1CCCC1)c1ccc2cc(F)ccc2n1

>  <score_type>  (32) 
oracle

>  <origin>  (32) 
autodockgpu

>  <m_score__min__energy>  (32) 
-8.3100000000000005

>  <m_primary>  (32) 
energy

>  <rmsd>  (32) 
2.4174820890435806

>  <m_score__min__rmsd>  (32) 
2.4174820890435806

>  <meeko>  (32) 
{"free_energy": -8.14, "intermolecular_energy": -10.22, "internal_energy": -2.52, "cluster_size": 17, "cluster_id": 2, "rank_in_cluster": 2}

>  <energy>  (32) 
-7.96

>  <cluster_rmsd>  (32) 
0.71

>  <cluster>  (32) 
2

$$$$

     RDKit          3D

 53 56  0  0  0  0  0  0  0  0999 V2000
  139.9340   73.3990  222.7000 O   0  0  0  0  0  0  0  0  0  0  0  0
  140.3050   72.1990  222.6510 C   0  0  0  0  0  0  0  0  0  0  0  0
  140.8700   71.7160  221.3840 N   0  0  0  0  0  0  0  0  0  0  0  0
  140.9270   72.6840  220.3560 C   0  0  0  0  0  0  0  0  0  0  0  0
  141.9090   73.7530  220.3320 C   0  0  0  0  0  0  0  0  0  0  0  0
  141.3840   74.8740  220.8140 O   0  0  0  0  0  0  0  0  0  0  0  0
  143.2260   73.8750  219.9370 N   0  0  0  0  0  0  0  0  0  0  0  0
  144.3410   74.7220  220.3990 C   0  0  0  0  0  0  0  0  0  0  0  0
  145.3830   73.6300  220.6980 C   0  0  2  0  0  0  0  0  0  0  0  0
  146.6440   74.1380  220.8830 O   0  0  0  0  0  0  0  0  0  0  0  0
  145.2260   72.7790  219.4600 C   0  0  2  0  0  0  0  0  0  0  0  0
  146.2880   73.0390  218.6010 O   0  0  0  0  0  0  0  0  0  0  0  0
  143.8790   73.1270  218.8590 C   0  0  1  0  0  0  0  0  0  0  0  0
  143.1750   71.9610  218.3030 C   0  0  0  0  0  0  0  0  0  0  0  0
  143.9310   71.5750  217.0120 C   0  0  0  0  0  0  0  0  0  0  0  0
  144.7830   70.3930  217.3130 C   0  0  0  0  0  0  0  0  0  0  0  0
  144.1630   69.7400  218.5070 C   0  0  0  0  0  0  0  0  0  0  0  0
  143.1800   70.7190  219.1170 C   0  0  0  0  0  0  0  0  0  0  0  0
  140.2020   71.2810  223.7740 C   0  0  0  0  0  0  0  0  0  0  0  0
  139.5950   70.0670  223.5360 C   0  0  0  0  0  0  0  0  0  0  0  0
  139.4800   69.1730  224.5810 C   0  0  0  0  0  0  0  0  0  0  0  0
  139.9730   69.5040  225.8390 C   0  0  0  0  0  0  0  0  0  0  0  0
  139.8680   68.6200  226.9010 C   0  0  0  0  0  0  0  0  0  0  0  0
  140.3720   68.9940  228.1350 C   0  0  0  0  0  0  0  0  0  0  0  0
  140.2920   68.1560  229.2120 F   0  0  0  0  0  0  0  0  0  0  0  0
  140.9740   70.2170  228.3370 C   0  0  0  0  0  0  0  0  0  0  0  0
  141.0760   71.0920  227.2770 C   0  0  0  0  0  0  0  0  0  0  0  0
  140.5760   70.7280  226.0450 C   0  0  0  0  0  0  0  0  0  0  0  0
  140.6780   71.5890  225.0100 N   0  0  0  0  0  0  0  0  0  0  0  0
  141.1470   70.7350  221.4220 H   0  0  0  0  0  0  0  0  0  0  0  0
  141.0652   72.1240  219.4194 H   0  0  0  0  0  0  0  0  0  0  0  0
  139.9957   73.2436  220.5279 H   0  0  0  0  0  0  0  0  0  0  0  0
  144.6840   75.4126  219.6145 H   0  0  0  0  0  0  0  0  0  0  0  0
  144.1050   75.3873  221.2426 H   0  0  0  0  0  0  0  0  0  0  0  0
  145.2355   73.0778  221.6378 H   0  0  0  0  0  0  0  0  0  0  0  0
  146.9540   74.5240  220.0440 H   0  0  0  0  0  0  0  0  0  0  0  0
  145.2492   71.7003  219.6744 H   0  0  0  0  0  0  0  0  0  0  0  0
  146.5570   73.9670  218.7140 H   0  0  0  0  0  0  0  0  0  0  0  0
  143.9215   73.7442  217.9495 H   0  0  0  0  0  0  0  0  0  0  0  0
  142.1262   72.2781  218.2052 H   0  0  0  0  0  0  0  0  0  0  0  0
  143.2112   71.3239  216.2190 H   0  0  0  0  0  0  0  0  0  0  0  0
  144.5517   72.4152  216.6674 H   0  0  0  0  0  0  0  0  0  0  0  0
  144.7929   69.6999  216.4588 H   0  0  0  0  0  0  0  0  0  0  0  0
  145.8264   70.6834  217.5054 H   0  0  0  0  0  0  0  0  0  0  0  0
  143.6365   68.8241  218.2005 H   0  0  0  0  0  0  0  0  0  0  0  0
  144.9372   69.4684  219.2397 H   0  0  0  0  0  0  0  0  0  0  0  0
  142.1729   70.2766  219.1229 H   0  0  0  0  0  0  0  0  0  0  0  0
  143.4756   70.9506  220.1509 H   0  0  0  0  0  0  0  0  0  0  0  0
  139.2110   69.8163  222.5361 H   0  0  0  0  0  0  0  0  0  0  0  0
  138.9980   68.1976  224.4190 H   0  0  0  0  0  0  0  0  0  0  0  0
  139.3921   67.6375  226.7658 H   0  0  0  0  0  0  0  0  0  0  0  0
  141.3665   70.4903  229.3276 H   0  0  0  0  0  0  0  0  0  0  0  0
  141.5530   72.0738  227.4131 H   0  0  0  0  0  0  0  0  0  0  0  0
  1  2  2  0
  2  3  1  0
  3  4  1  0
  4  5  1  0
  5  6  2  0
  5  7  1  0
  7  8  1  0
  8  9  1  0
  9 10  1  0
  9 11  1  0
 11 12  1  0
 11 13  1  0
 13 14  1  0
 14 15  1  0
 15 16  1  0
 16 17  1  0
 17 18  1  0
  2 19  1  0
 19 20  2  0
 20 21  1  0
 21 22  2  0
 22 23  1  0
 23 24  2  0
 24 25  1  0
 24 26  1  0
 26 27  2  0
 27 28  1  0
 28 29  2  0
 13  7  1  0
 18 14  1  0
 29 19  1  0
 28 22  1  0
  3 30  1  0
  4 31  1  0
  4 32  1  0
  8 33  1  0
  8 34  1  0
  9 35  1  1
 10 36  1  0
 11 37  1  1
 12 38  1  0
 13 39  1  6
 14 40  1  0
 15 41  1  0
 15 42  1  0
 16 43  1  0
 16 44  1  0
 17 45  1  0
 17 46  1  0
 18 47  1  0
 18 48  1  0
 20 49  1  0
 21 50  1  0
 23 51  1  0
 26 52  1  0
 27 53  1  0
M  END
>  <smiles>  (33) 
O=C(NCC(=O)N1C[C@H](O)[C@H](O)[C@H]1C1CCCC1)c1ccc2cc(F)ccc2n1

>  <score_type>  (33) 
oracle

>  <origin>  (33) 
autodockgpu

>  <m_score__min__energy>  (33) 
-8.3100000000000005

>  <m_primary>  (33) 
energy

>  <rmsd>  (33) 
3.6221575786274807

>  <m_score__min__rmsd>  (33) 
3.6221575786274807

>  <meeko>  (33) 
{"free_energy": -8.31, "intermolecular_energy": -10.4, "internal_energy": -2.53, "cluster_size": 26, "cluster_id": 1, "rank_in_cluster": 1}

>  <energy>  (33) 
-7.94

>  <cluster_rmsd>  (33) 
0.49

>  <cluster>  (33) 
2

$$$$

     RDKit          3D

 53 56  0  0  0  0  0  0  0  0999 V2000
  140.4740   71.1450  221.3600 O   0  0  0  0  0  0  0  0  0  0  0  0
  140.0570   71.5790  222.4650 C   0  0  0  0  0  0  0  0  0  0  0  0
  139.5950   72.9730  222.5130 N   0  0  0  0  0  0  0  0  0  0  0  0
  139.6790   73.6670  221.2850 C   0  0  0  0  0  0  0  0  0  0  0  0
  140.7990   74.5250  220.9390 C   0  0  0  0  0  0  0  0  0  0  0  0
  141.1470   75.2730  221.9810 O   0  0  0  0  0  0  0  0  0  0  0  0
  141.5650   74.7400  219.8120 N   0  0  0  0  0  0  0  0  0  0  0  0
  141.4200   75.6400  218.6530 C   0  0  0  0  0  0  0  0  0  0  0  0
  142.7780   76.3620  218.7200 C   0  0  2  0  0  0  0  0  0  0  0  0
  143.0550   77.0760  217.5810 O   0  0  0  0  0  0  0  0  0  0  0  0
  143.6870   75.1780  218.9530 C   0  0  2  0  0  0  0  0  0  0  0  0
  144.3280   74.8650  217.7600 O   0  0  0  0  0  0  0  0  0  0  0  0
  142.8130   74.0520  219.4700 C   0  0  1  0  0  0  0  0  0  0  0  0
  143.4660   73.2460  220.5130 C   0  0  0  0  0  0  0  0  0  0  0  0
  143.6120   71.8220  219.9310 C   0  0  0  0  0  0  0  0  0  0  0  0
  145.0240   71.6460  219.4970 C   0  0  0  0  0  0  0  0  0  0  0  0
  145.8170   72.6410  220.2820 C   0  0  0  0  0  0  0  0  0  0  0  0
  144.8480   73.6300  220.8960 C   0  0  0  0  0  0  0  0  0  0  0  0
  140.0120   70.7770  223.6760 C   0  0  0  0  0  0  0  0  0  0  0  0
  139.3950   69.5470  223.5900 C   0  0  0  0  0  0  0  0  0  0  0  0
  139.3340   68.7610  224.7220 C   0  0  0  0  0  0  0  0  0  0  0  0
  139.8900   69.2120  225.9150 C   0  0  0  0  0  0  0  0  0  0  0  0
  139.8400   68.4370  227.0630 C   0  0  0  0  0  0  0  0  0  0  0  0
  140.4070   68.9290  228.2260 C   0  0  0  0  0  0  0  0  0  0  0  0
  140.3830   68.2010  229.3830 F   0  0  0  0  0  0  0  0  0  0  0  0
  141.0170   70.1630  228.2760 C   0  0  0  0  0  0  0  0  0  0  0  0
  141.0640   70.9300  227.1310 C   0  0  0  0  0  0  0  0  0  0  0  0
  140.5020   70.4480  225.9680 C   0  0  0  0  0  0  0  0  0  0  0  0
  140.5500   71.2020  224.8500 N   0  0  0  0  0  0  0  0  0  0  0  0
  139.2730   73.2510  223.4400 H   0  0  0  0  0  0  0  0  0  0  0  0
  139.6302   72.8995  220.4985 H   0  0  0  0  0  0  0  0  0  0  0  0
  138.8636   74.3981  221.3878 H   0  0  0  0  0  0  0  0  0  0  0  0
  141.2980   75.0820  217.7129 H   0  0  0  0  0  0  0  0  0  0  0  0
  140.5385   76.2976  218.6784 H   0  0  0  0  0  0  0  0  0  0  0  0
  142.8620   77.1446  219.4884 H   0  0  0  0  0  0  0  0  0  0  0  0
  143.9940   76.9540  217.3550 H   0  0  0  0  0  0  0  0  0  0  0  0
  144.4761   75.3806  219.6921 H   0  0  0  0  0  0  0  0  0  0  0  0
  144.7330   75.6750  217.4050 H   0  0  0  0  0  0  0  0  0  0  0  0
  142.6094   73.2507  218.7444 H   0  0  0  0  0  0  0  0  0  0  0  0
  142.8377   73.3702  221.4073 H   0  0  0  0  0  0  0  0  0  0  0  0
  143.3622   71.0767  220.7005 H   0  0  0  0  0  0  0  0  0  0  0  0
  142.9301   71.6855  219.0787 H   0  0  0  0  0  0  0  0  0  0  0  0
  145.3675   70.6241  219.7153 H   0  0  0  0  0  0  0  0  0  0  0  0
  145.1375   71.8009  218.4139 H   0  0  0  0  0  0  0  0  0  0  0  0
  146.3798   72.1277  221.0756 H   0  0  0  0  0  0  0  0  0  0  0  0
  146.5324   73.1616  219.6284 H   0  0  0  0  0  0  0  0  0  0  0  0
  144.9465   73.6126  221.9914 H   0  0  0  0  0  0  0  0  0  0  0  0
  145.0686   74.6444  220.5323 H   0  0  0  0  0  0  0  0  0  0  0  0
  138.9613   69.2003  222.6404 H   0  0  0  0  0  0  0  0  0  0  0  0
  138.8452   67.7764  224.6814 H   0  0  0  0  0  0  0  0  0  0  0  0
  139.3582   67.4482  227.0501 H   0  0  0  0  0  0  0  0  0  0  0  0
  141.4593   70.5305  229.2137 H   0  0  0  0  0  0  0  0  0  0  0  0
  141.5461   71.9186  227.1454 H   0  0  0  0  0  0  0  0  0  0  0  0
  1  2  2  0
  2  3  1  0
  3  4  1  0
  4  5  1  0
  5  6  2  0
  5  7  1  0
  7  8  1  0
  8  9  1  0
  9 10  1  0
  9 11  1  0
 11 12  1  0
 11 13  1  0
 13 14  1  0
 14 15  1  0
 15 16  1  0
 16 17  1  0
 17 18  1  0
  2 19  1  0
 19 20  2  0
 20 21  1  0
 21 22  2  0
 22 23  1  0
 23 24  2  0
 24 25  1  0
 24 26  1  0
 26 27  2  0
 27 28  1  0
 28 29  2  0
 13  7  1  0
 18 14  1  0
 29 19  1  0
 28 22  1  0
  3 30  1  0
  4 31  1  0
  4 32  1  0
  8 33  1  0
  8 34  1  0
  9 35  1  1
 10 36  1  0
 11 37  1  1
 12 38  1  0
 13 39  1  6
 14 40  1  0
 15 41  1  0
 15 42  1  0
 16 43  1  0
 16 44  1  0
 17 45  1  0
 17 46  1  0
 18 47  1  0
 18 48  1  0
 20 49  1  0
 21 50  1  0
 23 51  1  0
 26 52  1  0
 27 53  1  0
M  END
>  <smiles>  (34) 
O=C(NCC(=O)N1C[C@H](O)[C@H](O)[C@H]1C1CCCC1)c1ccc2cc(F)ccc2n1

>  <score_type>  (34) 
oracle

>  <origin>  (34) 
autodockgpu

>  <m_score__min__energy>  (34) 
-8.3100000000000005

>  <m_primary>  (34) 
energy

>  <rmsd>  (34) 
2.2017993049938105

>  <m_score__min__rmsd>  (34) 
2.2017993049938105

>  <meeko>  (34) 
{"free_energy": -7.69, "intermolecular_energy": -9.78, "internal_energy": -2.98, "cluster_size": 26, "cluster_id": 1, "rank_in_cluster": 12}

>  <energy>  (34) 
-7.89

>  <cluster_rmsd>  (34) 
0.53

>  <cluster>  (34) 
2

$$$$

     RDKit          3D

 53 56  0  0  0  0  0  0  0  0999 V2000
  139.6250   70.9280  221.3300 O   0  0  0  0  0  0  0  0  0  0  0  0
  140.0930   71.3250  222.4280 C   0  0  0  0  0  0  0  0  0  0  0  0
  140.7660   72.6310  222.4440 N   0  0  0  0  0  0  0  0  0  0  0  0
  140.8030   73.2920  221.1960 C   0  0  0  0  0  0  0  0  0  0  0  0
  141.8510   74.2290  220.8300 C   0  0  0  0  0  0  0  0  0  0  0  0
  141.5000   75.4670  221.1600 O   0  0  0  0  0  0  0  0  0  0  0  0
  143.0940   74.1370  220.2370 N   0  0  0  0  0  0  0  0  0  0  0  0
  144.3410   74.9100  220.3880 C   0  0  0  0  0  0  0  0  0  0  0  0
  145.3130   73.7620  220.7120 C   0  0  2  0  0  0  0  0  0  0  0  0
  146.6290   74.1430  220.6290 O   0  0  0  0  0  0  0  0  0  0  0  0
  144.8840   72.7580  219.6680 C   0  0  2  0  0  0  0  0  0  0  0  0
  145.8150   72.7620  218.6350 O   0  0  0  0  0  0  0  0  0  0  0  0
  143.4950   73.1650  219.2160 C   0  0  1  0  0  0  0  0  0  0  0  0
  142.6080   72.0180  218.9680 C   0  0  0  0  0  0  0  0  0  0  0  0
  143.0920   71.3750  217.6490 C   0  0  0  0  0  0  0  0  0  0  0  0
  143.8790   70.1600  217.9900 C   0  0  0  0  0  0  0  0  0  0  0  0
  143.4230   69.7520  219.3540 C   0  0  0  0  0  0  0  0  0  0  0  0
  142.6500   70.9090  219.9540 C   0  0  0  0  0  0  0  0  0  0  0  0
  140.0010   70.5620  223.6610 C   0  0  0  0  0  0  0  0  0  0  0  0
  139.2920   69.3800  223.6140 C   0  0  0  0  0  0  0  0  0  0  0  0
  139.1850   68.6320  224.7680 C   0  0  0  0  0  0  0  0  0  0  0  0
  139.7850   69.0720  225.9430 C   0  0  0  0  0  0  0  0  0  0  0  0
  139.6890   68.3340  227.1130 C   0  0  0  0  0  0  0  0  0  0  0  0
  140.3030   68.8130  228.2570 C   0  0  0  0  0  0  0  0  0  0  0  0
  140.2370   68.1210  229.4340 F   0  0  0  0  0  0  0  0  0  0  0  0
  141.0050   69.9990  228.2680 C   0  0  0  0  0  0  0  0  0  0  0  0
  141.0980   70.7280  227.1020 C   0  0  0  0  0  0  0  0  0  0  0  0
  140.4890   70.2590  225.9570 C   0  0  0  0  0  0  0  0  0  0  0  0
  140.5810   70.9770  224.8180 N   0  0  0  0  0  0  0  0  0  0  0  0
  141.1190   72.8820  223.3670 H   0  0  0  0  0  0  0  0  0  0  0  0
  140.8245   72.4996  220.4334 H   0  0  0  0  0  0  0  0  0  0  0  0
  139.9293   73.9560  221.2716 H   0  0  0  0  0  0  0  0  0  0  0  0
  144.6161   75.4309  219.4590 H   0  0  0  0  0  0  0  0  0  0  0  0
  144.3042   75.7173  221.1342 H   0  0  0  0  0  0  0  0  0  0  0  0
  145.2669   73.3778  221.7417 H   0  0  0  0  0  0  0  0  0  0  0  0
  146.8340   74.3620  219.7030 H   0  0  0  0  0  0  0  0  0  0  0  0
  144.8428   71.7283  220.0528 H   0  0  0  0  0  0  0  0  0  0  0  0
  146.1820   73.6590  218.5540 H   0  0  0  0  0  0  0  0  0  0  0  0
  143.4474   73.6292  218.2199 H   0  0  0  0  0  0  0  0  0  0  0  0
  141.5890   72.4317  218.9905 H   0  0  0  0  0  0  0  0  0  0  0  0
  142.2263   71.0971  217.0298 H   0  0  0  0  0  0  0  0  0  0  0  0
  143.7129   72.0855  217.0836 H   0  0  0  0  0  0  0  0  0  0  0  0
  143.6806   69.3582  217.2635 H   0  0  0  0  0  0  0  0  0  0  0  0
  144.9609   70.3572  217.9658 H   0  0  0  0  0  0  0  0  0  0  0  0
  142.7740   68.8668  219.2815 H   0  0  0  0  0  0  0  0  0  0  0  0
  144.2869   69.5002  219.9867 H   0  0  0  0  0  0  0  0  0  0  0  0
  141.6256   70.5860  220.1911 H   0  0  0  0  0  0  0  0  0  0  0  0
  143.1416   71.2482  220.8777 H   0  0  0  0  0  0  0  0  0  0  0  0
  138.8229   69.0417  222.6783 H   0  0  0  0  0  0  0  0  0  0  0  0
  138.6241   67.6858  224.7589 H   0  0  0  0  0  0  0  0  0  0  0  0
  139.1344   67.3842  227.1315 H   0  0  0  0  0  0  0  0  0  0  0  0
  141.4829   70.3576  229.1916 H   0  0  0  0  0  0  0  0  0  0  0  0
  141.6540   71.6770  227.0848 H   0  0  0  0  0  0  0  0  0  0  0  0
  1  2  2  0
  2  3  1  0
  3  4  1  0
  4  5  1  0
  5  6  2  0
  5  7  1  0
  7  8  1  0
  8  9  1  0
  9 10  1  0
  9 11  1  0
 11 12  1  0
 11 13  1  0
 13 14  1  0
 14 15  1  0
 15 16  1  0
 16 17  1  0
 17 18  1  0
  2 19  1  0
 19 20  2  0
 20 21  1  0
 21 22  2  0
 22 23  1  0
 23 24  2  0
 24 25  1  0
 24 26  1  0
 26 27  2  0
 27 28  1  0
 28 29  2  0
 13  7  1  0
 18 14  1  0
 29 19  1  0
 28 22  1  0
  3 30  1  0
  4 31  1  0
  4 32  1  0
  8 33  1  0
  8 34  1  0
  9 35  1  1
 10 36  1  0
 11 37  1  1
 12 38  1  0
 13 39  1  6
 14 40  1  0
 15 41  1  0
 15 42  1  0
 16 43  1  0
 16 44  1  0
 17 45  1  0
 17 46  1  0
 18 47  1  0
 18 48  1  0
 20 49  1  0
 21 50  1  0
 23 51  1  0
 26 52  1  0
 27 53  1  0
M  END
>  <smiles>  (35) 
O=C(NCC(=O)N1C[C@H](O)[C@H](O)[C@H]1C1CCCC1)c1ccc2cc(F)ccc2n1

>  <score_type>  (35) 
oracle

>  <origin>  (35) 
autodockgpu

>  <m_score__min__energy>  (35) 
-8.3100000000000005

>  <m_primary>  (35) 
energy

>  <rmsd>  (35) 
3.4254590968687553

>  <m_score__min__rmsd>  (35) 
3.4254590968687553

>  <meeko>  (35) 
{"free_energy": -7.33, "intermolecular_energy": -9.41, "internal_energy": -3.05, "cluster_size": 26, "cluster_id": 1, "rank_in_cluster": 22}

>  <energy>  (35) 
-7.87

>  <cluster_rmsd>  (35) 
0.64

>  <cluster>  (35) 
2

$$$$

     RDKit          3D

 53 56  0  0  0  0  0  0  0  0999 V2000
  141.3930   72.5310  221.5440 O   0  0  0  0  0  0  0  0  0  0  0  0
  140.4980   72.6550  222.4180 C   0  0  0  0  0  0  0  0  0  0  0  0
  139.6360   73.8430  222.3410 N   0  0  0  0  0  0  0  0  0  0  0  0
  139.9270   74.7160  221.2680 C   0  0  0  0  0  0  0  0  0  0  0  0
  140.7050   75.9320  221.4300 C   0  0  0  0  0  0  0  0  0  0  0  0
  140.6640   76.3430  222.6920 O   0  0  0  0  0  0  0  0  0  0  0  0
  141.4580   76.7390  220.6010 N   0  0  0  0  0  0  0  0  0  0  0  0
  142.1980   76.4860  219.3510 C   0  0  0  0  0  0  0  0  0  0  0  0
  141.5510   77.5540  218.4520 C   0  0  2  0  0  0  0  0  0  0  0  0
  142.2430   77.7530  217.2830 O   0  0  0  0  0  0  0  0  0  0  0  0
  141.5680   78.7320  219.3980 C   0  0  2  0  0  0  0  0  0  0  0  0
  142.6060   79.5820  219.0340 O   0  0  0  0  0  0  0  0  0  0  0  0
  141.7280   78.1660  220.7950 C   0  0  1  0  0  0  0  0  0  0  0  0
  140.9370   78.8880  221.8050 C   0  0  0  0  0  0  0  0  0  0  0  0
  141.8160   78.9550  223.0740 C   0  0  0  0  0  0  0  0  0  0  0  0
  142.3990   80.3210  223.1590 C   0  0  0  0  0  0  0  0  0  0  0  0
  141.4940   81.1980  222.3540 C   0  0  0  0  0  0  0  0  0  0  0  0
  140.6040   80.3050  221.5130 C   0  0  0  0  0  0  0  0  0  0  0  0
  140.2810   71.6940  223.4860 C   0  0  0  0  0  0  0  0  0  0  0  0
  139.5850   70.5480  223.1650 C   0  0  0  0  0  0  0  0  0  0  0  0
  139.3610   69.6150  224.1560 C   0  0  0  0  0  0  0  0  0  0  0  0
  139.8350   69.8380  225.4440 C   0  0  0  0  0  0  0  0  0  0  0  0
  139.6210   68.9130  226.4540 C   0  0  0  0  0  0  0  0  0  0  0  0
  140.1110   69.1800  227.7200 C   0  0  0  0  0  0  0  0  0  0  0  0
  139.9260   68.2970  228.7480 F   0  0  0  0  0  0  0  0  0  0  0  0
  140.8040   70.3360  228.0060 C   0  0  0  0  0  0  0  0  0  0  0  0
  141.0140   71.2530  226.9990 C   0  0  0  0  0  0  0  0  0  0  0  0
  140.5290   70.9960  225.7340 C   0  0  0  0  0  0  0  0  0  0  0  0
  140.7370   71.8970  224.7510 N   0  0  0  0  0  0  0  0  0  0  0  0
  138.9370   73.8740  223.0820 H   0  0  0  0  0  0  0  0  0  0  0  0
  140.4611   74.1110  220.5205 H   0  0  0  0  0  0  0  0  0  0  0  0
  138.9308   75.1198  221.0345 H   0  0  0  0  0  0  0  0  0  0  0  0
  143.2785   76.6522  219.4730 H   0  0  0  0  0  0  0  0  0  0  0  0
  142.1373   75.4553  218.9715 H   0  0  0  0  0  0  0  0  0  0  0  0
  140.5501   77.3075  218.0681 H   0  0  0  0  0  0  0  0  0  0  0  0
  142.6290   78.6470  217.2960 H   0  0  0  0  0  0  0  0  0  0  0  0
  140.6437   79.3272  219.3610 H   0  0  0  0  0  0  0  0  0  0  0  0
  143.3280   79.0480  218.6620 H   0  0  0  0  0  0  0  0  0  0  0  0
  142.7257   78.2987  221.2388 H   0  0  0  0  0  0  0  0  0  0  0  0
  139.9853   78.3405  221.8714 H   0  0  0  0  0  0  0  0  0  0  0  0
  141.2017   78.7555  223.9644 H   0  0  0  0  0  0  0  0  0  0  0  0
  142.6155   78.2011  223.0248 H   0  0  0  0  0  0  0  0  0  0  0  0
  142.4309   80.6600  224.2050 H   0  0  0  0  0  0  0  0  0  0  0  0
  143.4313   80.3461  222.7800 H   0  0  0  0  0  0  0  0  0  0  0  0
  140.8775   81.8143  223.0249 H   0  0  0  0  0  0  0  0  0  0  0  0
  142.0834   81.8666  221.7094 H   0  0  0  0  0  0  0  0  0  0  0  0
  139.5492   80.4956  221.7602 H   0  0  0  0  0  0  0  0  0  0  0  0
  140.7651   80.5149  220.4453 H   0  0  0  0  0  0  0  0  0  0  0  0
  139.2167   70.3815  222.1419 H   0  0  0  0  0  0  0  0  0  0  0  0
  138.8064   68.6930  223.9270 H   0  0  0  0  0  0  0  0  0  0  0  0
  139.0707   67.9821  226.2523 H   0  0  0  0  0  0  0  0  0  0  0  0
  141.1833   70.5238  229.0213 H   0  0  0  0  0  0  0  0  0  0  0  0
  141.5645   72.1832  227.2028 H   0  0  0  0  0  0  0  0  0  0  0  0
  1  2  2  0
  2  3  1  0
  3  4  1  0
  4  5  1  0
  5  6  2  0
  5  7  1  0
  7  8  1  0
  8  9  1  0
  9 10  1  0
  9 11  1  0
 11 12  1  0
 11 13  1  0
 13 14  1  0
 14 15  1  0
 15 16  1  0
 16 17  1  0
 17 18  1  0
  2 19  1  0
 19 20  2  0
 20 21  1  0
 21 22  2  0
 22 23  1  0
 23 24  2  0
 24 25  1  0
 24 26  1  0
 26 27  2  0
 27 28  1  0
 28 29  2  0
 13  7  1  0
 18 14  1  0
 29 19  1  0
 28 22  1  0
  3 30  1  0
  4 31  1  0
  4 32  1  0
  8 33  1  0
  8 34  1  0
  9 35  1  6
 10 36  1  0
 11 37  1  1
 12 38  1  0
 13 39  1  1
 14 40  1  0
 15 41  1  0
 15 42  1  0
 16 43  1  0
 16 44  1  0
 17 45  1  0
 17 46  1  0
 18 47  1  0
 18 48  1  0
 20 49  1  0
 21 50  1  0
 23 51  1  0
 26 52  1  0
 27 53  1  0
M  END
>  <smiles>  (36) 
O=C(NCC(=O)N1C[C@H](O)[C@H](O)[C@H]1C1CCCC1)c1ccc2cc(F)ccc2n1

>  <score_type>  (36) 
oracle

>  <origin>  (36) 
autodockgpu

>  <m_score__min__energy>  (36) 
-8.3100000000000005

>  <m_primary>  (36) 
energy

>  <rmsd>  (36) 
2.4290360189594877

>  <m_score__min__rmsd>  (36) 
2.4290360189594877

>  <meeko>  (36) 
{"free_energy": -8.15, "intermolecular_energy": -10.24, "internal_energy": -2.51, "cluster_size": 17, "cluster_id": 2, "rank_in_cluster": 1}

>  <energy>  (36) 
-7.87

>  <cluster_rmsd>  (36) 
1.01

>  <cluster>  (36) 
2

$$$$

     RDKit          3D

 53 56  0  0  0  0  0  0  0  0999 V2000
  141.0450   71.8290  221.4970 O   0  0  0  0  0  0  0  0  0  0  0  0
  140.2580   72.0640  222.4500 C   0  0  0  0  0  0  0  0  0  0  0  0
  139.4140   73.2630  222.3510 N   0  0  0  0  0  0  0  0  0  0  0  0
  139.5960   74.0180  221.1700 C   0  0  0  0  0  0  0  0  0  0  0  0
  140.8470   74.6780  220.8400 C   0  0  0  0  0  0  0  0  0  0  0  0
  141.3570   75.2670  221.9170 O   0  0  0  0  0  0  0  0  0  0  0  0
  141.6110   74.8330  219.7010 N   0  0  0  0  0  0  0  0  0  0  0  0
  141.4360   75.6310  218.4730 C   0  0  0  0  0  0  0  0  0  0  0  0
  142.7640   76.4090  218.4850 C   0  0  2  0  0  0  0  0  0  0  0  0
  143.0180   77.0410  217.2940 O   0  0  0  0  0  0  0  0  0  0  0  0
  143.7180   75.2850  218.8150 C   0  0  2  0  0  0  0  0  0  0  0  0
  144.3770   74.9040  217.6520 O   0  0  0  0  0  0  0  0  0  0  0  0
  142.8870   74.1710  219.4180 C   0  0  1  0  0  0  0  0  0  0  0  0
  143.5650   73.4770  220.5240 C   0  0  0  0  0  0  0  0  0  0  0  0
  143.7370   72.0090  220.0720 C   0  0  0  0  0  0  0  0  0  0  0  0
  145.1480   71.8220  219.6410 C   0  0  0  0  0  0  0  0  0  0  0  0
  145.9270   72.9010  220.3240 C   0  0  0  0  0  0  0  0  0  0  0  0
  144.9420   73.9230  220.8550 C   0  0  0  0  0  0  0  0  0  0  0  0
  140.1490   71.2190  223.6270 C   0  0  0  0  0  0  0  0  0  0  0  0
  139.5200   70.0030  223.4680 C   0  0  0  0  0  0  0  0  0  0  0  0
  139.3990   69.1760  224.5650 C   0  0  0  0  0  0  0  0  0  0  0  0
  139.9070   69.5740  225.7980 C   0  0  0  0  0  0  0  0  0  0  0  0
  139.7950   68.7580  226.9120 C   0  0  0  0  0  0  0  0  0  0  0  0
  140.3150   69.1970  228.1170 C   0  0  0  0  0  0  0  0  0  0  0  0
  140.2300   68.4270  229.2440 F   0  0  0  0  0  0  0  0  0  0  0  0
  140.9390   70.4190  228.2400 C   0  0  0  0  0  0  0  0  0  0  0  0
  141.0480   71.2270  227.1290 C   0  0  0  0  0  0  0  0  0  0  0  0
  140.5320   70.7980  225.9240 C   0  0  0  0  0  0  0  0  0  0  0  0
  140.6390   71.5920  224.8390 N   0  0  0  0  0  0  0  0  0  0  0  0
  138.8060   73.3870  223.1600 H   0  0  0  0  0  0  0  0  0  0  0  0
  139.3855   73.3323  220.3360 H   0  0  0  0  0  0  0  0  0  0  0  0
  138.9344   74.8775  221.3531 H   0  0  0  0  0  0  0  0  0  0  0  0
  141.3408   74.9952  217.5804 H   0  0  0  0  0  0  0  0  0  0  0  0
  140.5291   76.2528  218.4437 H   0  0  0  0  0  0  0  0  0  0  0  0
  142.8135   77.2532  219.1885 H   0  0  0  0  0  0  0  0  0  0  0  0
  143.1920   76.3670  216.6130 H   0  0  0  0  0  0  0  0  0  0  0  0
  144.4943   75.5769  219.5376 H   0  0  0  0  0  0  0  0  0  0  0  0
  144.7740   75.6950  217.2480 H   0  0  0  0  0  0  0  0  0  0  0  0
  142.7199   73.3072  218.7577 H   0  0  0  0  0  0  0  0  0  0  0  0
  142.9417   73.6687  221.4099 H   0  0  0  0  0  0  0  0  0  0  0  0
  143.5096   71.3320  220.9086 H   0  0  0  0  0  0  0  0  0  0  0  0
  143.0513   71.7823  219.2423 H   0  0  0  0  0  0  0  0  0  0  0  0
  145.5146   70.8314  219.9481 H   0  0  0  0  0  0  0  0  0  0  0  0
  145.2490   71.8790  218.5471 H   0  0  0  0  0  0  0  0  0  0  0  0
  146.5069   72.4739  221.1555 H   0  0  0  0  0  0  0  0  0  0  0  0
  146.6260   73.3737  219.6184 H   0  0  0  0  0  0  0  0  0  0  0  0
  145.0506   74.0089  221.9462 H   0  0  0  0  0  0  0  0  0  0  0  0
  145.1375   74.9038  220.3969 H   0  0  0  0  0  0  0  0  0  0  0  0
  139.1234   69.6989  222.4881 H   0  0  0  0  0  0  0  0  0  0  0  0
  138.9004   68.2006  224.4653 H   0  0  0  0  0  0  0  0  0  0  0  0
  139.3011   67.7778  226.8399 H   0  0  0  0  0  0  0  0  0  0  0  0
  141.3438   70.7446  229.2096 H   0  0  0  0  0  0  0  0  0  0  0  0
  141.5428   72.2067  227.2026 H   0  0  0  0  0  0  0  0  0  0  0  0
  1  2  2  0
  2  3  1  0
  3  4  1  0
  4  5  1  0
  5  6  2  0
  5  7  1  0
  7  8  1  0
  8  9  1  0
  9 10  1  0
  9 11  1  0
 11 12  1  0
 11 13  1  0
 13 14  1  0
 14 15  1  0
 15 16  1  0
 16 17  1  0
 17 18  1  0
  2 19  1  0
 19 20  2  0
 20 21  1  0
 21 22  2  0
 22 23  1  0
 23 24  2  0
 24 25  1  0
 24 26  1  0
 26 27  2  0
 27 28  1  0
 28 29  2  0
 13  7  1  0
 18 14  1  0
 29 19  1  0
 28 22  1  0
  3 30  1  0
  4 31  1  0
  4 32  1  0
  8 33  1  0
  8 34  1  0
  9 35  1  1
 10 36  1  0
 11 37  1  1
 12 38  1  0
 13 39  1  6
 14 40  1  0
 15 41  1  0
 15 42  1  0
 16 43  1  0
 16 44  1  0
 17 45  1  0
 17 46  1  0
 18 47  1  0
 18 48  1  0
 20 49  1  0
 21 50  1  0
 23 51  1  0
 26 52  1  0
 27 53  1  0
M  END
>  <smiles>  (37) 
O=C(NCC(=O)N1C[C@H](O)[C@H](O)[C@H]1C1CCCC1)c1ccc2cc(F)ccc2n1

>  <score_type>  (37) 
oracle

>  <origin>  (37) 
autodockgpu

>  <m_score__min__energy>  (37) 
-8.3100000000000005

>  <m_primary>  (37) 
energy

>  <rmsd>  (37) 
2.1992051476829166

>  <m_score__min__rmsd>  (37) 
2.1992051476829166

>  <meeko>  (37) 
{"free_energy": -7.72, "intermolecular_energy": -9.81, "internal_energy": -3.01, "cluster_size": 26, "cluster_id": 1, "rank_in_cluster": 11}

>  <energy>  (37) 
-7.82

>  <cluster_rmsd>  (37) 
0.98

>  <cluster>  (37) 
2

$$$$

     RDKit          3D

 53 56  0  0  0  0  0  0  0  0999 V2000
  140.6530   71.3510  221.3710 O   0  0  0  0  0  0  0  0  0  0  0  0
  140.1420   71.7390  222.4520 C   0  0  0  0  0  0  0  0  0  0  0  0
  139.5760   73.0950  222.4850 N   0  0  0  0  0  0  0  0  0  0  0  0
  139.6790   73.8080  221.2700 C   0  0  0  0  0  0  0  0  0  0  0  0
  140.8360   74.6140  220.9240 C   0  0  0  0  0  0  0  0  0  0  0  0
  141.2440   75.3150  221.9770 O   0  0  0  0  0  0  0  0  0  0  0  0
  141.5930   74.8170  219.7880 N   0  0  0  0  0  0  0  0  0  0  0  0
  141.4320   75.6970  218.6150 C   0  0  0  0  0  0  0  0  0  0  0  0
  142.7840   76.4310  218.6600 C   0  0  2  0  0  0  0  0  0  0  0  0
  143.0460   77.1280  217.5080 O   0  0  0  0  0  0  0  0  0  0  0  0
  143.7050   75.2580  218.9060 C   0  0  2  0  0  0  0  0  0  0  0  0
  144.3400   74.9310  217.7140 O   0  0  0  0  0  0  0  0  0  0  0  0
  142.8440   74.1340  219.4480 C   0  0  1  0  0  0  0  0  0  0  0  0
  143.5110   73.3500  220.4990 C   0  0  0  0  0  0  0  0  0  0  0  0
  143.6370   71.9110  219.9510 C   0  0  0  0  0  0  0  0  0  0  0  0
  145.0390   71.7130  219.4950 C   0  0  0  0  0  0  0  0  0  0  0  0
  145.8540   72.7220  220.2390 C   0  0  0  0  0  0  0  0  0  0  0  0
  144.9030   73.7340  220.8450 C   0  0  0  0  0  0  0  0  0  0  0  0
  140.0870   70.9210  223.6520 C   0  0  0  0  0  0  0  0  0  0  0  0
  139.4970   69.6810  223.5370 C   0  0  0  0  0  0  0  0  0  0  0  0
  139.4280   68.8790  224.6580 C   0  0  0  0  0  0  0  0  0  0  0  0
  139.9490   69.3250  225.8680 C   0  0  0  0  0  0  0  0  0  0  0  0
  139.8900   68.5350  227.0050 C   0  0  0  0  0  0  0  0  0  0  0  0
  140.4220   69.0220  228.1860 C   0  0  0  0  0  0  0  0  0  0  0  0
  140.3870   68.2800  229.3330 F   0  0  0  0  0  0  0  0  0  0  0  0
  141.0060   70.2680  228.2650 C   0  0  0  0  0  0  0  0  0  0  0  0
  141.0620   71.0500  227.1310 C   0  0  0  0  0  0  0  0  0  0  0  0
  140.5350   70.5720  225.9500 C   0  0  0  0  0  0  0  0  0  0  0  0
  140.5910   71.3420  224.8430 N   0  0  0  0  0  0  0  0  0  0  0  0
  139.1810   73.3370  223.3940 H   0  0  0  0  0  0  0  0  0  0  0  0
  139.5801   73.0598  220.4697 H   0  0  0  0  0  0  0  0  0  0  0  0
  138.9040   74.5779  221.3992 H   0  0  0  0  0  0  0  0  0  0  0  0
  141.3078   75.1226  217.6852 H   0  0  0  0  0  0  0  0  0  0  0  0
  140.5453   76.3476  218.6362 H   0  0  0  0  0  0  0  0  0  0  0  0
  142.8675   77.2269  219.4147 H   0  0  0  0  0  0  0  0  0  0  0  0
  143.1910   76.4940  216.7830 H   0  0  0  0  0  0  0  0  0  0  0  0
  144.4978   75.4789  219.6358 H   0  0  0  0  0  0  0  0  0  0  0  0
  144.7380   75.7380  217.3440 H   0  0  0  0  0  0  0  0  0  0  0  0
  142.6417   73.3195  218.7369 H   0  0  0  0  0  0  0  0  0  0  0  0
  142.9005   73.5010  221.4015 H   0  0  0  0  0  0  0  0  0  0  0  0
  143.3968   71.1874  220.7439 H   0  0  0  0  0  0  0  0  0  0  0  0
  142.9385   71.7583  219.1151 H   0  0  0  0  0  0  0  0  0  0  0  0
  145.3793   70.6944  219.7331 H   0  0  0  0  0  0  0  0  0  0  0  0
  145.1329   71.8389  218.4063 H   0  0  0  0  0  0  0  0  0  0  0  0
  146.4280   72.2252  221.0351 H   0  0  0  0  0  0  0  0  0  0  0  0
  146.5609   73.2200  219.5591 H   0  0  0  0  0  0  0  0  0  0  0  0
  145.0225   73.7450  221.9384 H   0  0  0  0  0  0  0  0  0  0  0  0
  145.1231   74.7368  220.4500 H   0  0  0  0  0  0  0  0  0  0  0  0
  139.0904   69.3384  222.5740 H   0  0  0  0  0  0  0  0  0  0  0  0
  138.9602   67.8855  224.5944 H   0  0  0  0  0  0  0  0  0  0  0  0
  139.4280   67.5374  226.9694 H   0  0  0  0  0  0  0  0  0  0  0  0
  141.4203   70.6322  229.2167 H   0  0  0  0  0  0  0  0  0  0  0  0
  141.5236   72.0478  227.1681 H   0  0  0  0  0  0  0  0  0  0  0  0
  1  2  2  0
  2  3  1  0
  3  4  1  0
  4  5  1  0
  5  6  2  0
  5  7  1  0
  7  8  1  0
  8  9  1  0
  9 10  1  0
  9 11  1  0
 11 12  1  0
 11 13  1  0
 13 14  1  0
 14 15  1  0
 15 16  1  0
 16 17  1  0
 17 18  1  0
  2 19  1  0
 19 20  2  0
 20 21  1  0
 21 22  2  0
 22 23  1  0
 23 24  2  0
 24 25  1  0
 24 26  1  0
 26 27  2  0
 27 28  1  0
 28 29  2  0
 13  7  1  0
 18 14  1  0
 29 19  1  0
 28 22  1  0
  3 30  1  0
  4 31  1  0
  4 32  1  0
  8 33  1  0
  8 34  1  0
  9 35  1  1
 10 36  1  0
 11 37  1  1
 12 38  1  0
 13 39  1  6
 14 40  1  0
 15 41  1  0
 15 42  1  0
 16 43  1  0
 16 44  1  0
 17 45  1  0
 17 46  1  0
 18 47  1  0
 18 48  1  0
 20 49  1  0
 21 50  1  0
 23 51  1  0
 26 52  1  0
 27 53  1  0
M  END
>  <smiles>  (38) 
O=C(NCC(=O)N1C[C@H](O)[C@H](O)[C@H]1C1CCCC1)c1ccc2cc(F)ccc2n1

>  <score_type>  (38) 
oracle

>  <origin>  (38) 
autodockgpu

>  <m_score__min__energy>  (38) 
-8.3100000000000005

>  <m_primary>  (38) 
energy

>  <rmsd>  (38) 
2.196846922919261

>  <m_score__min__rmsd>  (38) 
2.196846922919261

>  <meeko>  (38) 
{"free_energy": -7.64, "intermolecular_energy": -9.73, "internal_energy": -3.06, "cluster_size": 26, "cluster_id": 1, "rank_in_cluster": 15}

>  <energy>  (38) 
-7.81

>  <cluster_rmsd>  (38) 
1.97

>  <cluster>  (38) 
2

$$$$

     RDKit          3D

 53 56  0  0  0  0  0  0  0  0999 V2000
  141.0800   72.1330  221.4350 O   0  0  0  0  0  0  0  0  0  0  0  0
  140.2720   72.3170  222.3800 C   0  0  0  0  0  0  0  0  0  0  0  0
  139.3840   73.4850  222.2930 N   0  0  0  0  0  0  0  0  0  0  0  0
  139.5540   74.2710  221.1320 C   0  0  0  0  0  0  0  0  0  0  0  0
  140.7830   74.9870  220.8370 C   0  0  0  0  0  0  0  0  0  0  0  0
  141.4000   75.3310  221.9620 O   0  0  0  0  0  0  0  0  0  0  0  0
  141.4440   75.3820  219.6910 N   0  0  0  0  0  0  0  0  0  0  0  0
  141.2810   76.5320  218.7820 C   0  0  0  0  0  0  0  0  0  0  0  0
  142.7140   77.0930  218.8230 C   0  0  2  0  0  0  0  0  0  0  0  0
  142.9480   78.0190  217.8380 O   0  0  0  0  0  0  0  0  0  0  0  0
  143.4970   75.8090  218.6750 C   0  0  2  0  0  0  0  0  0  0  0  0
  143.9640   75.7190  217.3680 O   0  0  0  0  0  0  0  0  0  0  0  0
  142.5570   74.6790  219.0480 C   0  0  1  0  0  0  0  0  0  0  0  0
  143.2190   73.6010  219.7980 C   0  0  0  0  0  0  0  0  0  0  0  0
  144.0590   72.8110  218.7690 C   0  0  0  0  0  0  0  0  0  0  0  0
  145.4800   73.2230  218.9220 C   0  0  0  0  0  0  0  0  0  0  0  0
  145.5970   73.7650  220.3110 C   0  0  0  0  0  0  0  0  0  0  0  0
  144.1970   74.0050  220.8380 C   0  0  0  0  0  0  0  0  0  0  0  0
  140.1770   71.4420  223.5360 C   0  0  0  0  0  0  0  0  0  0  0  0
  139.5710   70.2180  223.3470 C   0  0  0  0  0  0  0  0  0  0  0  0
  139.4650   69.3630  224.4250 C   0  0  0  0  0  0  0  0  0  0  0  0
  139.9640   69.7420  225.6670 C   0  0  0  0  0  0  0  0  0  0  0  0
  139.8680   68.8970  226.7620 C   0  0  0  0  0  0  0  0  0  0  0  0
  140.3790   69.3180  227.9770 C   0  0  0  0  0  0  0  0  0  0  0  0
  140.3070   68.5200  229.0860 F   0  0  0  0  0  0  0  0  0  0  0  0
  140.9790   70.5480  228.1300 C   0  0  0  0  0  0  0  0  0  0  0  0
  141.0730   71.3840  227.0380 C   0  0  0  0  0  0  0  0  0  0  0  0
  140.5660   70.9740  225.8230 C   0  0  0  0  0  0  0  0  0  0  0  0
  140.6600   71.7960  224.7570 N   0  0  0  0  0  0  0  0  0  0  0  0
  138.7590   73.5670  223.0950 H   0  0  0  0  0  0  0  0  0  0  0  0
  139.3844   73.5955  220.2806 H   0  0  0  0  0  0  0  0  0  0  0  0
  138.8555   75.0994  221.3215 H   0  0  0  0  0  0  0  0  0  0  0  0
  140.9927   76.2163  217.7685 H   0  0  0  0  0  0  0  0  0  0  0  0
  140.4912   77.2437  219.0642 H   0  0  0  0  0  0  0  0  0  0  0  0
  142.9729   77.6693  219.7235 H   0  0  0  0  0  0  0  0  0  0  0  0
  143.8370   77.8670  217.4700 H   0  0  0  0  0  0  0  0  0  0  0  0
  144.3794   75.7652  219.3304 H   0  0  0  0  0  0  0  0  0  0  0  0
  143.4990   76.3800  216.8280 H   0  0  0  0  0  0  0  0  0  0  0  0
  142.1829   74.0858  218.2006 H   0  0  0  0  0  0  0  0  0  0  0  0
  142.4057   73.0670  220.3112 H   0  0  0  0  0  0  0  0  0  0  0  0
  143.9610   71.7316  218.9571 H   0  0  0  0  0  0  0  0  0  0  0  0
  143.7082   73.0208  217.7478 H   0  0  0  0  0  0  0  0  0  0  0  0
  146.1464   72.3578  218.7905 H   0  0  0  0  0  0  0  0  0  0  0  0
  145.7692   73.9707  218.1688 H   0  0  0  0  0  0  0  0  0  0  0  0
  146.1183   73.0392  220.9525 H   0  0  0  0  0  0  0  0  0  0  0  0
  146.1710   74.7033  220.3085 H   0  0  0  0  0  0  0  0  0  0  0  0
  144.0370   73.4079  221.7479 H   0  0  0  0  0  0  0  0  0  0  0  0
  144.0663   75.0700  221.0805 H   0  0  0  0  0  0  0  0  0  0  0  0
  139.1810   69.9297  222.3597 H   0  0  0  0  0  0  0  0  0  0  0  0
  138.9854   68.3807  224.3021 H   0  0  0  0  0  0  0  0  0  0  0  0
  139.3938   67.9091  226.6665 H   0  0  0  0  0  0  0  0  0  0  0  0
  141.3767   70.8583  229.1075 H   0  0  0  0  0  0  0  0  0  0  0  0
  141.5490   72.3709  227.1351 H   0  0  0  0  0  0  0  0  0  0  0  0
  1  2  2  0
  2  3  1  0
  3  4  1  0
  4  5  1  0
  5  6  2  0
  5  7  1  0
  7  8  1  0
  8  9  1  0
  9 10  1  0
  9 11  1  0
 11 12  1  0
 11 13  1  0
 13 14  1  0
 14 15  1  0
 15 16  1  0
 16 17  1  0
 17 18  1  0
  2 19  1  0
 19 20  2  0
 20 21  1  0
 21 22  2  0
 22 23  1  0
 23 24  2  0
 24 25  1  0
 24 26  1  0
 26 27  2  0
 27 28  1  0
 28 29  2  0
 13  7  1  0
 18 14  1  0
 29 19  1  0
 28 22  1  0
  3 30  1  0
  4 31  1  0
  4 32  1  0
  8 33  1  0
  8 34  1  0
  9 35  1  1
 10 36  1  0
 11 37  1  1
 12 38  1  0
 13 39  1  6
 14 40  1  0
 15 41  1  0
 15 42  1  0
 16 43  1  0
 16 44  1  0
 17 45  1  0
 17 46  1  0
 18 47  1  0
 18 48  1  0
 20 49  1  0
 21 50  1  0
 23 51  1  0
 26 52  1  0
 27 53  1  0
M  END
>  <smiles>  (39) 
O=C(NCC(=O)N1C[C@H](O)[C@H](O)[C@H]1C1CCCC1)c1ccc2cc(F)ccc2n1

>  <score_type>  (39) 
oracle

>  <origin>  (39) 
autodockgpu

>  <m_score__min__energy>  (39) 
-8.3100000000000005

>  <m_primary>  (39) 
energy

>  <rmsd>  (39) 
2.1468096651980386

>  <m_score__min__rmsd>  (39) 
2.1468096651980386

>  <meeko>  (39) 
{"free_energy": -7.26, "intermolecular_energy": -9.35, "internal_energy": -3.0, "cluster_size": 17, "cluster_id": 2, "rank_in_cluster": 16}

>  <energy>  (39) 
-7.74

>  <cluster_rmsd>  (39) 
0.86

>  <cluster>  (39) 
2

$$$$

     RDKit          3D

 53 56  0  0  0  0  0  0  0  0999 V2000
  140.6360   73.5470  222.3490 O   0  0  0  0  0  0  0  0  0  0  0  0
  140.3710   72.3180  222.3090 C   0  0  0  0  0  0  0  0  0  0  0  0
  140.2540   71.6950  220.9830 N   0  0  0  0  0  0  0  0  0  0  0  0
  140.4590   72.5730  219.8960 C   0  0  0  0  0  0  0  0  0  0  0  0
  141.5980   72.4680  219.0010 C   0  0  0  0  0  0  0  0  0  0  0  0
  141.2990   71.7000  217.9600 O   0  0  0  0  0  0  0  0  0  0  0  0
  142.8850   72.9660  218.9790 N   0  0  0  0  0  0  0  0  0  0  0  0
  143.4900   74.2140  219.4810 C   0  0  0  0  0  0  0  0  0  0  0  0
  144.6060   73.6210  220.3590 C   0  0  2  0  0  0  0  0  0  0  0  0
  145.5310   74.5580  220.7450 O   0  0  0  0  0  0  0  0  0  0  0  0
  145.1380   72.5640  219.4210 C   0  0  2  0  0  0  0  0  0  0  0  0
  146.3270   73.0200  218.8630 O   0  0  0  0  0  0  0  0  0  0  0  0
  144.0570   72.3120  218.3890 C   0  0  1  0  0  0  0  0  0  0  0  0
  143.9380   70.8960  218.0090 C   0  0  0  0  0  0  0  0  0  0  0  0
  145.2930   70.5030  217.3780 C   0  0  0  0  0  0  0  0  0  0  0  0
  146.0670   69.7360  218.3900 C   0  0  0  0  0  0  0  0  0  0  0  0
  145.0540   69.1870  219.3440 C   0  0  0  0  0  0  0  0  0  0  0  0
  143.7470   69.9170  219.1080 C   0  0  0  0  0  0  0  0  0  0  0  0
  140.1760   71.5010  223.4940 C   0  0  0  0  0  0  0  0  0  0  0  0
  139.4520   70.3380  223.3410 C   0  0  0  0  0  0  0  0  0  0  0  0
  139.2480   69.5390  224.4470 C   0  0  0  0  0  0  0  0  0  0  0  0
  139.7710   69.9110  225.6820 C   0  0  0  0  0  0  0  0  0  0  0  0
  139.5770   69.1230  226.8050 C   0  0  0  0  0  0  0  0  0  0  0  0
  140.1160   69.5350  228.0120 C   0  0  0  0  0  0  0  0  0  0  0  0
  139.9530   68.7900  229.1470 F   0  0  0  0  0  0  0  0  0  0  0  0
  140.8360   70.7030  228.1290 C   0  0  0  0  0  0  0  0  0  0  0  0
  141.0250   71.4840  227.0090 C   0  0  0  0  0  0  0  0  0  0  0  0
  140.4920   71.0820  225.8020 C   0  0  0  0  0  0  0  0  0  0  0  0
  140.6790   71.8500  224.7090 N   0  0  0  0  0  0  0  0  0  0  0  0
  140.0370   70.6990  221.0320 H   0  0  0  0  0  0  0  0  0  0  0  0
  139.5650   72.4841  219.2612 H   0  0  0  0  0  0  0  0  0  0  0  0
  140.6712   73.5201  220.4137 H   0  0  0  0  0  0  0  0  0  0  0  0
  143.8942   74.8311  218.6650 H   0  0  0  0  0  0  0  0  0  0  0  0
  142.7980   74.8938  219.9997 H   0  0  0  0  0  0  0  0  0  0  0  0
  144.2834   73.2267  221.3339 H   0  0  0  0  0  0  0  0  0  0  0  0
  146.2850   74.5250  220.1290 H   0  0  0  0  0  0  0  0  0  0  0  0
  145.3695   71.6158  219.9283 H   0  0  0  0  0  0  0  0  0  0  0  0
  146.2830   73.9880  218.7900 H   0  0  0  0  0  0  0  0  0  0  0  0
  144.2586   72.7346  217.3936 H   0  0  0  0  0  0  0  0  0  0  0  0
  143.0431   70.8434  217.3715 H   0  0  0  0  0  0  0  0  0  0  0  0
  145.1232   69.8801  216.4874 H   0  0  0  0  0  0  0  0  0  0  0  0
  145.8481   71.4029  217.0745 H   0  0  0  0  0  0  0  0  0  0  0  0
  146.6230   68.9181  217.9084 H   0  0  0  0  0  0  0  0  0  0  0  0
  146.8052   70.3703  218.9025 H   0  0  0  0  0  0  0  0  0  0  0  0
  144.9179   68.1101  219.1656 H   0  0  0  0  0  0  0  0  0  0  0  0
  145.3895   69.3285  220.3820 H   0  0  0  0  0  0  0  0  0  0  0  0
  142.9655   69.1951  218.8284 H   0  0  0  0  0  0  0  0  0  0  0  0
  143.4400   70.4402  220.0256 H   0  0  0  0  0  0  0  0  0  0  0  0
  139.0460   70.0534  222.3591 H   0  0  0  0  0  0  0  0  0  0  0  0
  138.6714   68.6070  224.3527 H   0  0  0  0  0  0  0  0  0  0  0  0
  139.0045   68.1860  226.7388 H   0  0  0  0  0  0  0  0  0  0  0  0
  141.2534   71.0077  229.1001 H   0  0  0  0  0  0  0  0  0  0  0  0
  141.5968   72.4212  227.0773 H   0  0  0  0  0  0  0  0  0  0  0  0
  1  2  2  0
  2  3  1  0
  3  4  1  0
  4  5  1  0
  5  6  2  0
  5  7  1  0
  7  8  1  0
  8  9  1  0
  9 10  1  0
  9 11  1  0
 11 12  1  0
 11 13  1  0
 13 14  1  0
 14 15  1  0
 15 16  1  0
 16 17  1  0
 17 18  1  0
  2 19  1  0
 19 20  2  0
 20 21  1  0
 21 22  2  0
 22 23  1  0
 23 24  2  0
 24 25  1  0
 24 26  1  0
 26 27  2  0
 27 28  1  0
 28 29  2  0
 13  7  1  0
 18 14  1  0
 29 19  1  0
 28 22  1  0
  3 30  1  0
  4 31  1  0
  4 32  1  0
  8 33  1  0
  8 34  1  0
  9 35  1  1
 10 36  1  0
 11 37  1  1
 12 38  1  0
 13 39  1  6
 14 40  1  0
 15 41  1  0
 15 42  1  0
 16 43  1  0
 16 44  1  0
 17 45  1  0
 17 46  1  0
 18 47  1  0
 18 48  1  0
 20 49  1  0
 21 50  1  0
 23 51  1  0
 26 52  1  0
 27 53  1  0
M  END
>  <smiles>  (40) 
O=C(NCC(=O)N1C[C@H](O)[C@H](O)[C@H]1C1CCCC1)c1ccc2cc(F)ccc2n1

>  <score_type>  (40) 
oracle

>  <origin>  (40) 
autodockgpu

>  <m_score__min__energy>  (40) 
-8.3100000000000005

>  <m_primary>  (40) 
energy

>  <rmsd>  (40) 
3.718376075305388

>  <m_score__min__rmsd>  (40) 
3.718376075305388

>  <meeko>  (40) 
{"free_energy": -7.99, "intermolecular_energy": -10.07, "internal_energy": -2.56, "cluster_size": 26, "cluster_id": 1, "rank_in_cluster": 6}

>  <energy>  (40) 
-7.65

>  <cluster_rmsd>  (40) 
0.92

>  <cluster>  (40) 
2

$$$$

     RDKit          3D

 53 56  0  0  0  0  0  0  0  0999 V2000
  140.5890   72.9980  222.6900 O   0  0  0  0  0  0  0  0  0  0  0  0
  140.4830   71.7670  222.9260 C   0  0  0  0  0  0  0  0  0  0  0  0
  140.2950   70.8710  221.7770 N   0  0  0  0  0  0  0  0  0  0  0  0
  140.2570   71.5200  220.5220 C   0  0  0  0  0  0  0  0  0  0  0  0
  141.4520   71.9660  219.8280 C   0  0  0  0  0  0  0  0  0  0  0  0
  141.4140   71.5920  218.5540 O   0  0  0  0  0  0  0  0  0  0  0  0
  142.5880   72.6700  220.1730 N   0  0  0  0  0  0  0  0  0  0  0  0
  143.9800   72.2650  220.4430 C   0  0  0  0  0  0  0  0  0  0  0  0
  144.7100   73.1720  219.4370 C   0  0  2  0  0  0  0  0  0  0  0  0
  146.0630   73.2240  219.6550 O   0  0  0  0  0  0  0  0  0  0  0  0
  143.9840   74.4730  219.6920 C   0  0  2  0  0  0  0  0  0  0  0  0
  144.7980   75.2950  220.4620 O   0  0  0  0  0  0  0  0  0  0  0  0
  142.6800   74.1180  220.3780 C   0  0  1  0  0  0  0  0  0  0  0  0
  141.5500   74.9510  219.9390 C   0  0  0  0  0  0  0  0  0  0  0  0
  140.7450   75.2940  221.2120 C   0  0  0  0  0  0  0  0  0  0  0  0
  141.0800   76.6890  221.6060 C   0  0  0  0  0  0  0  0  0  0  0  0
  141.5790   77.3530  220.3630 C   0  0  0  0  0  0  0  0  0  0  0  0
  141.8770   76.2720  219.3440 C   0  0  0  0  0  0  0  0  0  0  0  0
  140.5370   71.2000  224.2630 C   0  0  0  0  0  0  0  0  0  0  0  0
  140.9100   72.0440  225.2870 C   0  0  0  0  0  0  0  0  0  0  0  0
  140.9720   71.5370  226.5680 C   0  0  0  0  0  0  0  0  0  0  0  0
  140.6590   70.2020  226.8060 C   0  0  0  0  0  0  0  0  0  0  0  0
  140.7150   69.6730  228.0860 C   0  0  0  0  0  0  0  0  0  0  0  0
  140.3950   68.3400  228.2730 C   0  0  0  0  0  0  0  0  0  0  0  0
  140.4350   67.7730  229.5170 F   0  0  0  0  0  0  0  0  0  0  0  0
  140.0260   67.5240  227.2260 C   0  0  0  0  0  0  0  0  0  0  0  0
  139.9720   68.0550  225.9550 C   0  0  0  0  0  0  0  0  0  0  0  0
  140.2880   69.3820  225.7590 C   0  0  0  0  0  0  0  0  0  0  0  0
  140.2350   69.8970  224.5130 N   0  0  0  0  0  0  0  0  0  0  0  0
  140.2170   69.8910  222.0480 H   0  0  0  0  0  0  0  0  0  0  0  0
  139.7493   70.8256  219.8365 H   0  0  0  0  0  0  0  0  0  0  0  0
  139.7824   72.4775  220.7826 H   0  0  0  0  0  0  0  0  0  0  0  0
  144.2762   72.4813  221.4801 H   0  0  0  0  0  0  0  0  0  0  0  0
  144.1831   71.1893  220.3356 H   0  0  0  0  0  0  0  0  0  0  0  0
  144.6760   72.8416  218.3883 H   0  0  0  0  0  0  0  0  0  0  0  0
  146.3690   74.1370  219.5110 H   0  0  0  0  0  0  0  0  0  0  0  0
  143.7575   75.0273  218.7693 H   0  0  0  0  0  0  0  0  0  0  0  0
  145.7170   75.1920  220.1590 H   0  0  0  0  0  0  0  0  0  0  0  0
  142.6445   74.3445  221.4538 H   0  0  0  0  0  0  0  0  0  0  0  0
  141.0452   74.3621  219.1590 H   0  0  0  0  0  0  0  0  0  0  0  0
  139.6676   75.2130  221.0055 H   0  0  0  0  0  0  0  0  0  0  0  0
  140.9984   74.5964  222.0239 H   0  0  0  0  0  0  0  0  0  0  0  0
  140.1856   77.2058  221.9840 H   0  0  0  0  0  0  0  0  0  0  0  0
  141.8315   76.7142  222.4089 H   0  0  0  0  0  0  0  0  0  0  0  0
  140.8110   78.0354  219.9699 H   0  0  0  0  0  0  0  0  0  0  0  0
  142.4862   77.9365  220.5785 H   0  0  0  0  0  0  0  0  0  0  0  0
  141.2658   76.4337  218.4439 H   0  0  0  0  0  0  0  0  0  0  0  0
  142.9406   76.3037  219.0653 H   0  0  0  0  0  0  0  0  0  0  0  0
  141.1527   73.0981  225.0869 H   0  0  0  0  0  0  0  0  0  0  0  0
  141.2693   72.1887  227.4028 H   0  0  0  0  0  0  0  0  0  0  0  0
  141.0089   70.3025  228.9389 H   0  0  0  0  0  0  0  0  0  0  0  0
  139.7786   66.4666  227.4013 H   0  0  0  0  0  0  0  0  0  0  0  0
  139.6787   67.4239  225.1031 H   0  0  0  0  0  0  0  0  0  0  0  0
  1  2  2  0
  2  3  1  0
  3  4  1  0
  4  5  1  0
  5  6  2  0
  5  7  1  0
  7  8  1  0
  8  9  1  0
  9 10  1  0
  9 11  1  0
 11 12  1  0
 11 13  1  0
 13 14  1  0
 14 15  1  0
 15 16  1  0
 16 17  1  0
 17 18  1  0
  2 19  1  0
 19 20  2  0
 20 21  1  0
 21 22  2  0
 22 23  1  0
 23 24  2  0
 24 25  1  0
 24 26  1  0
 26 27  2  0
 27 28  1  0
 28 29  2  0
 13  7  1  0
 18 14  1  0
 29 19  1  0
 28 22  1  0
  3 30  1  0
  4 31  1  0
  4 32  1  0
  8 33  1  0
  8 34  1  0
  9 35  1  6
 10 36  1  0
 11 37  1  6
 12 38  1  0
 13 39  1  1
 14 40  1  0
 15 41  1  0
 15 42  1  0
 16 43  1  0
 16 44  1  0
 17 45  1  0
 17 46  1  0
 18 47  1  0
 18 48  1  0
 20 49  1  0
 21 50  1  0
 23 51  1  0
 26 52  1  0
 27 53  1  0
M  END
>  <smiles>  (41) 
O=C(NCC(=O)N1C[C@H](O)[C@H](O)[C@H]1C1CCCC1)c1ccc2cc(F)ccc2n1

>  <score_type>  (41) 
oracle

>  <origin>  (41) 
autodockgpu

>  <m_score__min__energy>  (41) 
-8.3100000000000005

>  <m_primary>  (41) 
energy

>  <rmsd>  (41) 
4.047294006798172

>  <m_score__min__rmsd>  (41) 
4.047294006798172

>  <meeko>  (41) 
{"free_energy": -7.47, "intermolecular_energy": -9.55, "internal_energy": -3.15, "cluster_size": 26, "cluster_id": 1, "rank_in_cluster": 18}

>  <energy>  (41) 
-7.63

>  <cluster_rmsd>  (41) 
1.03

>  <cluster>  (41) 
2

$$$$

     RDKit          3D

 53 56  0  0  0  0  0  0  0  0999 V2000
  141.3670   72.2990  221.6720 O   0  0  0  0  0  0  0  0  0  0  0  0
  140.4500   72.4590  222.5170 C   0  0  0  0  0  0  0  0  0  0  0  0
  139.5480   73.6040  222.3280 N   0  0  0  0  0  0  0  0  0  0  0  0
  139.8310   74.3990  221.1950 C   0  0  0  0  0  0  0  0  0  0  0  0
  139.8520   75.8510  221.2340 C   0  0  0  0  0  0  0  0  0  0  0  0
  138.8140   76.3090  221.9250 O   0  0  0  0  0  0  0  0  0  0  0  0
  140.6750   76.8400  220.7360 N   0  0  0  0  0  0  0  0  0  0  0  0
  141.2710   77.0800  219.4080 C   0  0  0  0  0  0  0  0  0  0  0  0
  140.7620   78.5100  219.1560 C   0  0  2  0  0  0  0  0  0  0  0  0
  141.3950   79.1190  218.1020 O   0  0  0  0  0  0  0  0  0  0  0  0
  141.0520   79.1270  220.5040 C   0  0  2  0  0  0  0  0  0  0  0  0
  142.1960   79.9110  220.3990 O   0  0  0  0  0  0  0  0  0  0  0  0
  141.2060   77.9820  221.4850 C   0  0  1  0  0  0  0  0  0  0  0  0
  140.6280   78.2710  222.8060 C   0  0  0  0  0  0  0  0  0  0  0  0
  141.8080   78.6980  223.7090 C   0  0  0  0  0  0  0  0  0  0  0  0
  141.7780   80.1800  223.8350 C   0  0  0  0  0  0  0  0  0  0  0  0
  140.3700   80.5840  223.5350 C   0  0  0  0  0  0  0  0  0  0  0  0
  139.6720   79.4030  222.8910 C   0  0  0  0  0  0  0  0  0  0  0  0
  140.2440   71.5780  223.6540 C   0  0  0  0  0  0  0  0  0  0  0  0
  139.5360   70.4180  223.4270 C   0  0  0  0  0  0  0  0  0  0  0  0
  139.3220   69.5590  224.4860 C   0  0  0  0  0  0  0  0  0  0  0  0
  139.8190   69.8710  225.7480 C   0  0  0  0  0  0  0  0  0  0  0  0
  139.6160   69.0220  226.8240 C   0  0  0  0  0  0  0  0  0  0  0  0
  140.1280   69.3750  228.0600 C   0  0  0  0  0  0  0  0  0  0  0  0
  139.9540   68.5700  229.1510 F   0  0  0  0  0  0  0  0  0  0  0  0
  140.8330   70.5440  228.2510 C   0  0  0  0  0  0  0  0  0  0  0  0
  141.0330   71.3850  227.1770 C   0  0  0  0  0  0  0  0  0  0  0  0
  140.5250   71.0410  225.9420 C   0  0  0  0  0  0  0  0  0  0  0  0
  140.7220   71.8680  224.8940 N   0  0  0  0  0  0  0  0  0  0  0  0
  138.8320   73.6670  223.0520 H   0  0  0  0  0  0  0  0  0  0  0  0
  140.8287   74.0904  220.8495 H   0  0  0  0  0  0  0  0  0  0  0  0
  138.9493   74.2080  220.5657 H   0  0  0  0  0  0  0  0  0  0  0  0
  142.3697   77.0346  219.4370 H   0  0  0  0  0  0  0  0  0  0  0  0
  141.0034   76.3447  218.6349 H   0  0  0  0  0  0  0  0  0  0  0  0
  139.7092   78.5924  218.8480 H   0  0  0  0  0  0  0  0  0  0  0  0
  141.5830   80.0440  218.3420 H   0  0  0  0  0  0  0  0  0  0  0  0
  140.2463   79.7875  220.8568 H   0  0  0  0  0  0  0  0  0  0  0  0
  142.7800   79.5160  219.7290 H   0  0  0  0  0  0  0  0  0  0  0  0
  142.2395   77.7738  221.7987 H   0  0  0  0  0  0  0  0  0  0  0  0
  140.0751   77.3614  223.0834 H   0  0  0  0  0  0  0  0  0  0  0  0
  141.7039   78.2368  224.7022 H   0  0  0  0  0  0  0  0  0  0  0  0
  142.7624   78.3712  223.2704 H   0  0  0  0  0  0  0  0  0  0  0  0
  142.0549   80.4837  224.8554 H   0  0  0  0  0  0  0  0  0  0  0  0
  142.4924   80.6599  223.1500 H   0  0  0  0  0  0  0  0  0  0  0  0
  139.8542   80.8602  224.4665 H   0  0  0  0  0  0  0  0  0  0  0  0
  140.3568   81.4514  222.8587 H   0  0  0  0  0  0  0  0  0  0  0  0
  138.8043   79.1093  223.5000 H   0  0  0  0  0  0  0  0  0  0  0  0
  139.3264   79.6770  221.8833 H   0  0  0  0  0  0  0  0  0  0  0  0
  139.1500   70.1818  222.4244 H   0  0  0  0  0  0  0  0  0  0  0  0
  138.7582   68.6271  224.3324 H   0  0  0  0  0  0  0  0  0  0  0  0
  139.0571   68.0830  226.6977 H   0  0  0  0  0  0  0  0  0  0  0  0
  141.2295   70.8017  229.2442 H   0  0  0  0  0  0  0  0  0  0  0  0
  141.5934   72.3230  227.3042 H   0  0  0  0  0  0  0  0  0  0  0  0
  1  2  2  0
  2  3  1  0
  3  4  1  0
  4  5  1  0
  5  6  2  0
  5  7  1  0
  7  8  1  0
  8  9  1  0
  9 10  1  0
  9 11  1  0
 11 12  1  0
 11 13  1  0
 13 14  1  0
 14 15  1  0
 15 16  1  0
 16 17  1  0
 17 18  1  0
  2 19  1  0
 19 20  2  0
 20 21  1  0
 21 22  2  0
 22 23  1  0
 23 24  2  0
 24 25  1  0
 24 26  1  0
 26 27  2  0
 27 28  1  0
 28 29  2  0
 13  7  1  0
 18 14  1  0
 29 19  1  0
 28 22  1  0
  3 30  1  0
  4 31  1  0
  4 32  1  0
  8 33  1  0
  8 34  1  0
  9 35  1  6
 10 36  1  0
 11 37  1  1
 12 38  1  0
 13 39  1  1
 14 40  1  0
 15 41  1  0
 15 42  1  0
 16 43  1  0
 16 44  1  0
 17 45  1  0
 17 46  1  0
 18 47  1  0
 18 48  1  0
 20 49  1  0
 21 50  1  0
 23 51  1  0
 26 52  1  0
 27 53  1  0
M  END
>  <smiles>  (42) 
O=C(NCC(=O)N1C[C@H](O)[C@H](O)[C@H]1C1CCCC1)c1ccc2cc(F)ccc2n1

>  <score_type>  (42) 
oracle

>  <origin>  (42) 
autodockgpu

>  <m_score__min__energy>  (42) 
-8.3100000000000005

>  <m_primary>  (42) 
energy

>  <rmsd>  (42) 
2.6524836929495397

>  <m_score__min__rmsd>  (42) 
2.6524836929495397

>  <meeko>  (42) 
{"free_energy": -7.82, "intermolecular_energy": -9.91, "internal_energy": -2.66, "cluster_size": 17, "cluster_id": 2, "rank_in_cluster": 11}

>  <energy>  (42) 
-7.26

>  <cluster_rmsd>  (42) 
1.88

>  <cluster>  (42) 
2

$$$$

     RDKit          3D

 53 56  0  0  0  0  0  0  0  0999 V2000
  141.4580   72.7240  221.8150 O   0  0  0  0  0  0  0  0  0  0  0  0
  140.4350   72.6760  222.5450 C   0  0  0  0  0  0  0  0  0  0  0  0
  139.3900   73.6820  222.3120 N   0  0  0  0  0  0  0  0  0  0  0  0
  139.6720   74.5980  221.2730 C   0  0  0  0  0  0  0  0  0  0  0  0
  140.6310   75.6790  221.4130 C   0  0  0  0  0  0  0  0  0  0  0  0
  140.6460   76.1250  222.6640 O   0  0  0  0  0  0  0  0  0  0  0  0
  141.5090   76.3350  220.5730 N   0  0  0  0  0  0  0  0  0  0  0  0
  142.3810   75.8790  219.4750 C   0  0  0  0  0  0  0  0  0  0  0  0
  141.8900   76.8130  218.3550 C   0  0  2  0  0  0  0  0  0  0  0  0
  142.7220   76.8170  217.2650 O   0  0  0  0  0  0  0  0  0  0  0  0
  141.8420   78.1190  219.1130 C   0  0  2  0  0  0  0  0  0  0  0  0
  142.9490   78.8820  218.7580 O   0  0  0  0  0  0  0  0  0  0  0  0
  141.8120   77.7680  220.5870 C   0  0  1  0  0  0  0  0  0  0  0  0
  140.9380   78.6520  221.3740 C   0  0  0  0  0  0  0  0  0  0  0  0
  141.6050   78.7960  222.7600 C   0  0  0  0  0  0  0  0  0  0  0  0
  142.2850   80.1180  222.8080 C   0  0  0  0  0  0  0  0  0  0  0  0
  141.6020   80.9630  221.7800 C   0  0  0  0  0  0  0  0  0  0  0  0
  140.7820   80.0480  220.8940 C   0  0  0  0  0  0  0  0  0  0  0  0
  140.2430   71.6870  223.5920 C   0  0  0  0  0  0  0  0  0  0  0  0
  139.5470   70.5460  223.2550 C   0  0  0  0  0  0  0  0  0  0  0  0
  139.3470   69.5870  224.2270 C   0  0  0  0  0  0  0  0  0  0  0  0
  139.8430   69.7820  225.5120 C   0  0  0  0  0  0  0  0  0  0  0  0
  139.6520   68.8300  226.5020 C   0  0  0  0  0  0  0  0  0  0  0  0
  140.1640   69.0690  227.7650 C   0  0  0  0  0  0  0  0  0  0  0  0
  140.0020   68.1610  228.7740 F   0  0  0  0  0  0  0  0  0  0  0  0
  140.8550   70.2220  228.0670 C   0  0  0  0  0  0  0  0  0  0  0  0
  141.0420   71.1650  227.0790 C   0  0  0  0  0  0  0  0  0  0  0  0
  140.5360   70.9360  225.8170 C   0  0  0  0  0  0  0  0  0  0  0  0
  140.7200   71.8620  224.8530 N   0  0  0  0  0  0  0  0  0  0  0  0
  138.5940   73.5790  222.9410 H   0  0  0  0  0  0  0  0  0  0  0  0
  140.0180   73.9938  220.4214 H   0  0  0  0  0  0  0  0  0  0  0  0
  138.7239   75.1514  221.2030 H   0  0  0  0  0  0  0  0  0  0  0  0
  143.4453   76.0370  219.7038 H   0  0  0  0  0  0  0  0  0  0  0  0
  142.3232   74.8044  219.2471 H   0  0  0  0  0  0  0  0  0  0  0  0
  140.9330   76.5343  217.8897 H   0  0  0  0  0  0  0  0  0  0  0  0
  142.8840   77.7390  216.9980 H   0  0  0  0  0  0  0  0  0  0  0  0
  140.9527   78.7214  218.8758 H   0  0  0  0  0  0  0  0  0  0  0  0
  143.6930   78.2810  218.5760 H   0  0  0  0  0  0  0  0  0  0  0  0
  142.7543   77.9440  221.1266 H   0  0  0  0  0  0  0  0  0  0  0  0
  139.9432   78.1844  221.3319 H   0  0  0  0  0  0  0  0  0  0  0  0
  140.8410   78.7403  223.5495 H   0  0  0  0  0  0  0  0  0  0  0  0
  142.3322   77.9863  222.9200 H   0  0  0  0  0  0  0  0  0  0  0  0
  142.1787   80.5678  223.8062 H   0  0  0  0  0  0  0  0  0  0  0  0
  143.3628   80.0273  222.6076 H   0  0  0  0  0  0  0  0  0  0  0  0
  140.9439   81.6931  222.2738 H   0  0  0  0  0  0  0  0  0  0  0  0
  142.3438   81.5118  221.1812 H   0  0  0  0  0  0  0  0  0  0  0  0
  139.7223   80.3392  220.9418 H   0  0  0  0  0  0  0  0  0  0  0  0
  141.1286   80.1264  219.8530 H   0  0  0  0  0  0  0  0  0  0  0  0
  139.1601   70.4032  222.2353 H   0  0  0  0  0  0  0  0  0  0  0  0
  138.7945   68.6670  223.9853 H   0  0  0  0  0  0  0  0  0  0  0  0
  139.1031   67.9013  226.2870 H   0  0  0  0  0  0  0  0  0  0  0  0
  141.2510   70.3874  229.0798 H   0  0  0  0  0  0  0  0  0  0  0  0
  141.5909   72.0933  227.2958 H   0  0  0  0  0  0  0  0  0  0  0  0
  1  2  2  0
  2  3  1  0
  3  4  1  0
  4  5  1  0
  5  6  2  0
  5  7  1  0
  7  8  1  0
  8  9  1  0
  9 10  1  0
  9 11  1  0
 11 12  1  0
 11 13  1  0
 13 14  1  0
 14 15  1  0
 15 16  1  0
 16 17  1  0
 17 18  1  0
  2 19  1  0
 19 20  2  0
 20 21  1  0
 21 22  2  0
 22 23  1  0
 23 24  2  0
 24 25  1  0
 24 26  1  0
 26 27  2  0
 27 28  1  0
 28 29  2  0
 13  7  1  0
 18 14  1  0
 29 19  1  0
 28 22  1  0
  3 30  1  0
  4 31  1  0
  4 32  1  0
  8 33  1  0
  8 34  1  0
  9 35  1  6
 10 36  1  0
 11 37  1  6
 12 38  1  0
 13 39  1  1
 14 40  1  0
 15 41  1  0
 15 42  1  0
 16 43  1  0
 16 44  1  0
 17 45  1  0
 17 46  1  0
 18 47  1  0
 18 48  1  0
 20 49  1  0
 21 50  1  0
 23 51  1  0
 26 52  1  0
 27 53  1  0
M  END
>  <smiles>  (43) 
O=C(NCC(=O)N1C[C@H](O)[C@H](O)[C@H]1C1CCCC1)c1ccc2cc(F)ccc2n1

>  <score_type>  (43) 
oracle

>  <origin>  (43) 
autodockgpu

>  <m_score__min__energy>  (43) 
-8.3100000000000005

>  <m_primary>  (43) 
energy

>  <rmsd>  (43) 
2.246029057933361

>  <m_score__min__rmsd>  (43) 
2.246029057933361

>  <meeko>  (43) 
{"free_energy": -7.94, "intermolecular_energy": -10.03, "internal_energy": -2.61, "cluster_size": 17, "cluster_id": 2, "rank_in_cluster": 7}

>  <energy>  (43) 
-7.1

>  <cluster_rmsd>  (43) 
1.94

>  <cluster>  (43) 
2

$$$$

     RDKit          3D

 53 56  0  0  0  0  0  0  0  0999 V2000
  141.0380   72.1120  221.3620 O   0  0  0  0  0  0  0  0  0  0  0  0
  140.2630   72.3400  222.3260 C   0  0  0  0  0  0  0  0  0  0  0  0
  139.4230   73.5440  222.2500 N   0  0  0  0  0  0  0  0  0  0  0  0
  139.5960   74.3110  221.0760 C   0  0  0  0  0  0  0  0  0  0  0  0
  140.8590   74.9340  220.7190 C   0  0  0  0  0  0  0  0  0  0  0  0
  141.3730   75.5700  221.7670 O   0  0  0  0  0  0  0  0  0  0  0  0
  141.6290   75.0190  219.5780 N   0  0  0  0  0  0  0  0  0  0  0  0
  141.4980   75.7940  218.3290 C   0  0  0  0  0  0  0  0  0  0  0  0
  142.8650   76.5000  218.3230 C   0  0  2  0  0  0  0  0  0  0  0  0
  143.1530   77.0860  217.1160 O   0  0  0  0  0  0  0  0  0  0  0  0
  143.7580   75.3350  218.6820 C   0  0  2  0  0  0  0  0  0  0  0  0
  144.3950   74.8890  217.5300 O   0  0  0  0  0  0  0  0  0  0  0  0
  142.8680   74.2820  219.3130 C   0  0  1  0  0  0  0  0  0  0  0  0
  143.5080   73.5810  220.4370 C   0  0  0  0  0  0  0  0  0  0  0  0
  143.7270   72.1250  219.9690 C   0  0  0  0  0  0  0  0  0  0  0  0
  145.1600   71.9700  219.6000 C   0  0  0  0  0  0  0  0  0  0  0  0
  145.8870   73.0510  220.3350 C   0  0  0  0  0  0  0  0  0  0  0  0
  144.8600   74.0450  220.8380 C   0  0  0  0  0  0  0  0  0  0  0  0
  140.1620   71.4810  223.4940 C   0  0  0  0  0  0  0  0  0  0  0  0
  139.5870   70.2420  223.3120 C   0  0  0  0  0  0  0  0  0  0  0  0
  139.4750   69.4020  224.4000 C   0  0  0  0  0  0  0  0  0  0  0  0
  139.9390   69.8100  225.6470 C   0  0  0  0  0  0  0  0  0  0  0  0
  139.8370   68.9810  226.7530 C   0  0  0  0  0  0  0  0  0  0  0  0
  140.3120   69.4310  227.9720 C   0  0  0  0  0  0  0  0  0  0  0  0
  140.2330   68.6500  229.0910 F   0  0  0  0  0  0  0  0  0  0  0  0
  140.8820   70.6770  228.1180 C   0  0  0  0  0  0  0  0  0  0  0  0
  140.9820   71.4980  227.0150 C   0  0  0  0  0  0  0  0  0  0  0  0
  140.5110   71.0570  225.7960 C   0  0  0  0  0  0  0  0  0  0  0  0
  140.6100   71.8640  224.7200 N   0  0  0  0  0  0  0  0  0  0  0  0
  138.8240   73.6600  223.0670 H   0  0  0  0  0  0  0  0  0  0  0  0
  139.3381   73.6462  220.2384 H   0  0  0  0  0  0  0  0  0  0  0  0
  138.9696   75.1892  221.2915 H   0  0  0  0  0  0  0  0  0  0  0  0
  141.3694   75.1414  217.4528 H   0  0  0  0  0  0  0  0  0  0  0  0
  140.6258   76.4626  218.2824 H   0  0  0  0  0  0  0  0  0  0  0  0
  142.9587   77.3580  219.0050 H   0  0  0  0  0  0  0  0  0  0  0  0
  143.2900   76.3870  216.4530 H   0  0  0  0  0  0  0  0  0  0  0  0
  144.5494   75.6038  219.3972 H   0  0  0  0  0  0  0  0  0  0  0  0
  144.8260   75.6490  217.1020 H   0  0  0  0  0  0  0  0  0  0  0  0
  142.6547   73.4118  218.6748 H   0  0  0  0  0  0  0  0  0  0  0  0
  142.8419   73.7465  221.2966 H   0  0  0  0  0  0  0  0  0  0  0  0
  143.4740   71.4295  220.7828 H   0  0  0  0  0  0  0  0  0  0  0  0
  143.0841   71.9011  219.1050 H   0  0  0  0  0  0  0  0  0  0  0  0
  145.5304   70.9810  219.9078 H   0  0  0  0  0  0  0  0  0  0  0  0
  145.3097   72.0470  218.5130 H   0  0  0  0  0  0  0  0  0  0  0  0
  146.4374   72.6203  221.1845 H   0  0  0  0  0  0  0  0  0  0  0  0
  146.6076   73.5487  219.6694 H   0  0  0  0  0  0  0  0  0  0  0  0
  144.9174   74.1129  221.9344 H   0  0  0  0  0  0  0  0  0  0  0  0
  145.0577   75.0372  220.4062 H   0  0  0  0  0  0  0  0  0  0  0  0
  139.2254   69.9299  222.3211 H   0  0  0  0  0  0  0  0  0  0  0  0
  139.0184   68.4082  224.2820 H   0  0  0  0  0  0  0  0  0  0  0  0
  139.3859   67.9818  226.6631 H   0  0  0  0  0  0  0  0  0  0  0  0
  141.2513   71.0112  229.0988 H   0  0  0  0  0  0  0  0  0  0  0  0
  141.4338   72.4968  227.1064 H   0  0  0  0  0  0  0  0  0  0  0  0
  1  2  2  0
  2  3  1  0
  3  4  1  0
  4  5  1  0
  5  6  2  0
  5  7  1  0
  7  8  1  0
  8  9  1  0
  9 10  1  0
  9 11  1  0
 11 12  1  0
 11 13  1  0
 13 14  1  0
 14 15  1  0
 15 16  1  0
 16 17  1  0
 17 18  1  0
  2 19  1  0
 19 20  2  0
 20 21  1  0
 21 22  2  0
 22 23  1  0
 23 24  2  0
 24 25  1  0
 24 26  1  0
 26 27  2  0
 27 28  1  0
 28 29  2  0
 13  7  1  0
 18 14  1  0
 29 19  1  0
 28 22  1  0
  3 30  1  0
  4 31  1  0
  4 32  1  0
  8 33  1  0
  8 34  1  0
  9 35  1  1
 10 36  1  0
 11 37  1  1
 12 38  1  0
 13 39  1  6
 14 40  1  0
 15 41  1  0
 15 42  1  0
 16 43  1  0
 16 44  1  0
 17 45  1  0
 17 46  1  0
 18 47  1  0
 18 48  1  0
 20 49  1  0
 21 50  1  0
 23 51  1  0
 26 52  1  0
 27 53  1  0
M  END
>  <smiles>  (44) 
O=C(NCC(=O)N1C[C@H](O)[C@H](O)[C@H]1C1CCCC1)c1ccc2cc(F)ccc2n1

>  <score_type>  (44) 
oracle

>  <origin>  (44) 
autodockgpu

>  <m_score__min__energy>  (44) 
-8.3100000000000005

>  <m_primary>  (44) 
energy

>  <rmsd>  (44) 
2.216723789818472

>  <m_score__min__rmsd>  (44) 
2.216723789818472

>  <meeko>  (44) 
{"free_energy": -7.72, "intermolecular_energy": -9.81, "internal_energy": -3.03, "cluster_size": 5, "cluster_id": 3, "rank_in_cluster": 1}

>  <energy>  (44) 
-7.72

>  <cluster_rmsd>  (44) 
0.0

>  <cluster>  (44) 
3

$$$$

     RDKit          3D

 53 56  0  0  0  0  0  0  0  0999 V2000
  140.9280   72.0820  221.1350 O   0  0  0  0  0  0  0  0  0  0  0  0
  140.3870   72.5140  222.1840 C   0  0  0  0  0  0  0  0  0  0  0  0
  140.0060   73.9330  222.2140 N   0  0  0  0  0  0  0  0  0  0  0  0
  140.3020   74.6490  221.0330 C   0  0  0  0  0  0  0  0  0  0  0  0
  141.6440   75.0910  220.6930 C   0  0  0  0  0  0  0  0  0  0  0  0
  142.5360   74.1710  221.0440 O   0  0  0  0  0  0  0  0  0  0  0  0
  142.1950   76.2110  220.1050 N   0  0  0  0  0  0  0  0  0  0  0  0
  143.2110   76.4000  219.0530 C   0  0  0  0  0  0  0  0  0  0  0  0
  142.4100   77.2840  218.0810 C   0  0  2  0  0  0  0  0  0  0  0  0
  143.1990   77.8640  217.1200 O   0  0  0  0  0  0  0  0  0  0  0  0
  141.8010   78.2580  219.0630 C   0  0  2  0  0  0  0  0  0  0  0  0
  142.5010   79.4570  218.9950 O   0  0  0  0  0  0  0  0  0  0  0  0
  141.8740   77.6040  220.4280 C   0  0  1  0  0  0  0  0  0  0  0  0
  140.6870   77.8650  221.2580 C   0  0  0  0  0  0  0  0  0  0  0  0
  141.0870   77.5060  222.7070 C   0  0  0  0  0  0  0  0  0  0  0  0
  141.3610   78.7730  223.4360 C   0  0  0  0  0  0  0  0  0  0  0  0
  140.6220   79.8380  222.6900 C   0  0  0  0  0  0  0  0  0  0  0  0
  140.2200   79.2710  221.3440 C   0  0  0  0  0  0  0  0  0  0  0  0
  140.1260   71.6880  223.3500 C   0  0  0  0  0  0  0  0  0  0  0  0
  139.2750   70.6160  223.1810 C   0  0  0  0  0  0  0  0  0  0  0  0
  139.0060   69.8120  224.2690 C   0  0  0  0  0  0  0  0  0  0  0  0
  139.5880   70.0880  225.5020 C   0  0  0  0  0  0  0  0  0  0  0  0
  139.3300   69.2920  226.6060 C   0  0  0  0  0  0  0  0  0  0  0  0
  139.9330   69.6060  227.8120 C   0  0  0  0  0  0  0  0  0  0  0  0
  139.7090   68.8510  228.9290 F   0  0  0  0  0  0  0  0  0  0  0  0
  140.7790   70.6850  227.9460 C   0  0  0  0  0  0  0  0  0  0  0  0
  141.0320   71.4740  226.8440 C   0  0  0  0  0  0  0  0  0  0  0  0
  140.4360   71.1680  225.6390 C   0  0  0  0  0  0  0  0  0  0  0  0
  140.6860   71.9430  224.5630 N   0  0  0  0  0  0  0  0  0  0  0  0
  139.5750   74.2090  223.0960 H   0  0  0  0  0  0  0  0  0  0  0  0
  139.9728   74.0102  220.2002 H   0  0  0  0  0  0  0  0  0  0  0  0
  139.7952   75.6068  221.2224 H   0  0  0  0  0  0  0  0  0  0  0  0
  144.1051   76.9151  219.4340 H   0  0  0  0  0  0  0  0  0  0  0  0
  143.6132   75.4727  218.6189 H   0  0  0  0  0  0  0  0  0  0  0  0
  141.6700   76.7576  217.4602 H   0  0  0  0  0  0  0  0  0  0  0  0
  143.6570   78.6300  217.5100 H   0  0  0  0  0  0  0  0  0  0  0  0
  140.7497   78.4931  218.8405 H   0  0  0  0  0  0  0  0  0  0  0  0
  142.6810   79.6580  218.0610 H   0  0  0  0  0  0  0  0  0  0  0  0
  142.6409   78.0161  221.1003 H   0  0  0  0  0  0  0  0  0  0  0  0
  139.8769   77.2846  220.7923 H   0  0  0  0  0  0  0  0  0  0  0  0
  140.2654   76.9634  223.1974 H   0  0  0  0  0  0  0  0  0  0  0  0
  141.9800   76.8636  222.7087 H   0  0  0  0  0  0  0  0  0  0  0  0
  140.9956   78.7063  224.4714 H   0  0  0  0  0  0  0  0  0  0  0  0
  142.4388   78.9868  223.4869 H   0  0  0  0  0  0  0  0  0  0  0  0
  139.7250   80.1349  223.2533 H   0  0  0  0  0  0  0  0  0  0  0  0
  141.2592   80.7248  222.5571 H   0  0  0  0  0  0  0  0  0  0  0  0
  139.1253   79.3038  221.2411 H   0  0  0  0  0  0  0  0  0  0  0  0
  140.6742   79.8654  220.5376 H   0  0  0  0  0  0  0  0  0  0  0  0
  138.8212   70.4069  222.2010 H   0  0  0  0  0  0  0  0  0  0  0  0
  138.3300   68.9509  224.1615 H   0  0  0  0  0  0  0  0  0  0  0  0
  138.6575   68.4252  226.5258 H   0  0  0  0  0  0  0  0  0  0  0  0
  141.2449   70.9132  228.9160 H   0  0  0  0  0  0  0  0  0  0  0  0
  141.7042   72.3409  226.9256 H   0  0  0  0  0  0  0  0  0  0  0  0
  1  2  2  0
  2  3  1  0
  3  4  1  0
  4  5  1  0
  5  6  2  0
  5  7  1  0
  7  8  1  0
  8  9  1  0
  9 10  1  0
  9 11  1  0
 11 12  1  0
 11 13  1  0
 13 14  1  0
 14 15  1  0
 15 16  1  0
 16 17  1  0
 17 18  1  0
  2 19  1  0
 19 20  2  0
 20 21  1  0
 21 22  2  0
 22 23  1  0
 23 24  2  0
 24 25  1  0
 24 26  1  0
 26 27  2  0
 27 28  1  0
 28 29  2  0
 13  7  1  0
 18 14  1  0
 29 19  1  0
 28 22  1  0
  3 30  1  0
  4 31  1  0
  4 32  1  0
  8 33  1  0
  8 34  1  0
  9 35  1  6
 10 36  1  0
 11 37  1  6
 12 38  1  0
 13 39  1  1
 14 40  1  0
 15 41  1  0
 15 42  1  0
 16 43  1  0
 16 44  1  0
 17 45  1  0
 17 46  1  0
 18 47  1  0
 18 48  1  0
 20 49  1  0
 21 50  1  0
 23 51  1  0
 26 52  1  0
 27 53  1  0
M  END
>  <smiles>  (45) 
O=C(NCC(=O)N1C[C@H](O)[C@H](O)[C@H]1C1CCCC1)c1ccc2cc(F)ccc2n1

>  <score_type>  (45) 
oracle

>  <origin>  (45) 
autodockgpu

>  <m_score__min__energy>  (45) 
-8.3100000000000005

>  <m_primary>  (45) 
energy

>  <rmsd>  (45) 
2.522707880819595

>  <m_score__min__rmsd>  (45) 
2.522707880819595

>  <meeko>  (45) 
{"free_energy": -7.74, "intermolecular_energy": -9.82, "internal_energy": -2.61, "cluster_size": 17, "cluster_id": 2, "rank_in_cluster": 13}

>  <energy>  (45) 
-7.53

>  <cluster_rmsd>  (45) 
0.94

>  <cluster>  (45) 
3

$$$$

     RDKit          3D

 53 56  0  0  0  0  0  0  0  0999 V2000
  141.5470   72.6100  221.5760 O   0  0  0  0  0  0  0  0  0  0  0  0
  140.5520   72.7100  222.3380 C   0  0  0  0  0  0  0  0  0  0  0  0
  139.6350   73.8360  222.1110 N   0  0  0  0  0  0  0  0  0  0  0  0
  139.9940   74.6830  221.0390 C   0  0  0  0  0  0  0  0  0  0  0  0
  140.9540   75.7650  221.1760 C   0  0  0  0  0  0  0  0  0  0  0  0
  141.0640   76.1270  222.4490 O   0  0  0  0  0  0  0  0  0  0  0  0
  141.7570   76.4860  220.3160 N   0  0  0  0  0  0  0  0  0  0  0  0
  142.6160   76.1010  219.1800 C   0  0  0  0  0  0  0  0  0  0  0  0
  142.0260   77.0170  218.0940 C   0  0  2  0  0  0  0  0  0  0  0  0
  142.8160   77.0890  216.9740 O   0  0  0  0  0  0  0  0  0  0  0  0
  141.9250   78.3080  218.8730 C   0  0  2  0  0  0  0  0  0  0  0  0
  142.9680   79.1430  218.4910 O   0  0  0  0  0  0  0  0  0  0  0  0
  141.9710   77.9350  220.3410 C   0  0  1  0  0  0  0  0  0  0  0  0
  141.0730   78.7510  221.1730 C   0  0  0  0  0  0  0  0  0  0  0  0
  141.7610   78.8840  222.5500 C   0  0  0  0  0  0  0  0  0  0  0  0
  142.3800   80.2340  222.6270 C   0  0  0  0  0  0  0  0  0  0  0  0
  141.6360   81.0770  221.6410 C   0  0  0  0  0  0  0  0  0  0  0  0
  140.8420   80.1520  220.7410 C   0  0  0  0  0  0  0  0  0  0  0  0
  140.2720   71.7780  223.4180 C   0  0  0  0  0  0  0  0  0  0  0  0
  139.5330   70.6580  223.1030 C   0  0  0  0  0  0  0  0  0  0  0  0
  139.2490   69.7540  224.1050 C   0  0  0  0  0  0  0  0  0  0  0  0
  139.7080   69.9800  225.3990 C   0  0  0  0  0  0  0  0  0  0  0  0
  139.4340   69.0840  226.4200 C   0  0  0  0  0  0  0  0  0  0  0  0
  139.9110   69.3520  227.6910 C   0  0  0  0  0  0  0  0  0  0  0  0
  139.6670   68.4980  228.7300 F   0  0  0  0  0  0  0  0  0  0  0  0
  140.6480   70.4820  227.9710 C   0  0  0  0  0  0  0  0  0  0  0  0
  140.9170   71.3710  226.9520 C   0  0  0  0  0  0  0  0  0  0  0  0
  140.4460   71.1110  225.6830 C   0  0  0  0  0  0  0  0  0  0  0  0
  140.7120   71.9840  224.6890 N   0  0  0  0  0  0  0  0  0  0  0  0
  138.8550   73.8500  222.7680 H   0  0  0  0  0  0  0  0  0  0  0  0
  140.3888   74.0248  220.2510 H   0  0  0  0  0  0  0  0  0  0  0  0
  139.0585   75.2370  220.8718 H   0  0  0  0  0  0  0  0  0  0  0  0
  143.6758   76.3234  219.3731 H   0  0  0  0  0  0  0  0  0  0  0  0
  142.6183   75.0281  218.9372 H   0  0  0  0  0  0  0  0  0  0  0  0
  141.0715   76.6840  217.6603 H   0  0  0  0  0  0  0  0  0  0  0  0
  143.5140   77.7510  217.1250 H   0  0  0  0  0  0  0  0  0  0  0  0
  140.9925   78.8575  218.6768 H   0  0  0  0  0  0  0  0  0  0  0  0
  143.0460   79.1170  217.5220 H   0  0  0  0  0  0  0  0  0  0  0  0
  142.9203   78.1622  220.8481 H   0  0  0  0  0  0  0  0  0  0  0  0
  140.1009   78.2375  221.1356 H   0  0  0  0  0  0  0  0  0  0  0  0
  141.0167   78.7685  223.3517 H   0  0  0  0  0  0  0  0  0  0  0  0
  142.5281   78.1049  222.6703 H   0  0  0  0  0  0  0  0  0  0  0  0
  142.2748   80.6469  223.6411 H   0  0  0  0  0  0  0  0  0  0  0  0
  143.4563   80.2006  222.4022 H   0  0  0  0  0  0  0  0  0  0  0  0
  140.9542   81.7581  222.1713 H   0  0  0  0  0  0  0  0  0  0  0  0
  142.3381   81.6798  221.0463 H   0  0  0  0  0  0  0  0  0  0  0  0
  139.7710   80.3909  220.8177 H   0  0  0  0  0  0  0  0  0  0  0  0
  141.1635   80.2793  219.6968 H   0  0  0  0  0  0  0  0  0  0  0  0
  139.1778   70.4890  222.0757 H   0  0  0  0  0  0  0  0  0  0  0  0
  138.6589   68.8531  223.8810 H   0  0  0  0  0  0  0  0  0  0  0  0
  138.8470   68.1747  226.2233 H   0  0  0  0  0  0  0  0  0  0  0  0
  141.0155   70.6717  228.9903 H   0  0  0  0  0  0  0  0  0  0  0  0
  141.5029   72.2806  227.1502 H   0  0  0  0  0  0  0  0  0  0  0  0
  1  2  2  0
  2  3  1  0
  3  4  1  0
  4  5  1  0
  5  6  2  0
  5  7  1  0
  7  8  1  0
  8  9  1  0
  9 10  1  0
  9 11  1  0
 11 12  1  0
 11 13  1  0
 13 14  1  0
 14 15  1  0
 15 16  1  0
 16 17  1  0
 17 18  1  0
  2 19  1  0
 19 20  2  0
 20 21  1  0
 21 22  2  0
 22 23  1  0
 23 24  2  0
 24 25  1  0
 24 26  1  0
 26 27  2  0
 27 28  1  0
 28 29  2  0
 13  7  1  0
 18 14  1  0
 29 19  1  0
 28 22  1  0
  3 30  1  0
  4 31  1  0
  4 32  1  0
  8 33  1  0
  8 34  1  0
  9 35  1  6
 10 36  1  0
 11 37  1  1
 12 38  1  0
 13 39  1  1
 14 40  1  0
 15 41  1  0
 15 42  1  0
 16 43  1  0
 16 44  1  0
 17 45  1  0
 17 46  1  0
 18 47  1  0
 18 48  1  0
 20 49  1  0
 21 50  1  0
 23 51  1  0
 26 52  1  0
 27 53  1  0
M  END
>  <smiles>  (46) 
O=C(NCC(=O)N1C[C@H](O)[C@H](O)[C@H]1C1CCCC1)c1ccc2cc(F)ccc2n1

>  <score_type>  (46) 
oracle

>  <origin>  (46) 
autodockgpu

>  <m_score__min__energy>  (46) 
-8.3100000000000005

>  <m_primary>  (46) 
energy

>  <rmsd>  (46) 
2.322593461071132

>  <m_score__min__rmsd>  (46) 
2.322593461071132

>  <meeko>  (46) 
{"free_energy": -7.89, "intermolecular_energy": -9.97, "internal_energy": -2.59, "cluster_size": 17, "cluster_id": 2, "rank_in_cluster": 8}

>  <energy>  (46) 
-7.51

>  <cluster_rmsd>  (46) 
0.32

>  <cluster>  (46) 
3

$$$$

     RDKit          3D

 53 56  0  0  0  0  0  0  0  0999 V2000
  140.2850   73.6750  222.3470 O   0  0  0  0  0  0  0  0  0  0  0  0
  140.2830   72.4210  222.2530 C   0  0  0  0  0  0  0  0  0  0  0  0
  140.3720   71.8440  220.9040 N   0  0  0  0  0  0  0  0  0  0  0  0
  140.4520   72.7910  219.8600 C   0  0  0  0  0  0  0  0  0  0  0  0
  141.5490   72.8270  218.9090 C   0  0  0  0  0  0  0  0  0  0  0  0
  141.1510   72.3740  217.7250 O   0  0  0  0  0  0  0  0  0  0  0  0
  142.8740   73.2120  218.9450 N   0  0  0  0  0  0  0  0  0  0  0  0
  143.5590   74.4180  219.4480 C   0  0  0  0  0  0  0  0  0  0  0  0
  144.5700   73.7580  220.4010 C   0  0  2  0  0  0  0  0  0  0  0  0
  145.5520   74.6240  220.8140 O   0  0  0  0  0  0  0  0  0  0  0  0
  145.0560   72.6310  219.5210 C   0  0  2  0  0  0  0  0  0  0  0  0
  146.3080   72.9660  219.0180 O   0  0  0  0  0  0  0  0  0  0  0  0
  144.0130   72.4430  218.4370 C   0  0  1  0  0  0  0  0  0  0  0  0
  143.7920   71.0310  218.0870 C   0  0  0  0  0  0  0  0  0  0  0  0
  145.1810   70.4490  217.7410 C   0  0  0  0  0  0  0  0  0  0  0  0
  145.6510   69.6540  218.9070 C   0  0  0  0  0  0  0  0  0  0  0  0
  144.4180   69.2800  219.6660 C   0  0  0  0  0  0  0  0  0  0  0  0
  143.2790   70.1430  219.1610 C   0  0  0  0  0  0  0  0  0  0  0  0
  140.1970   71.5320  223.3980 C   0  0  0  0  0  0  0  0  0  0  0  0
  139.6040   70.3040  223.1950 C   0  0  0  0  0  0  0  0  0  0  0  0
  139.5050   69.4360  224.2620 C   0  0  0  0  0  0  0  0  0  0  0  0
  139.9990   69.8050  225.5090 C   0  0  0  0  0  0  0  0  0  0  0  0
  139.9100   68.9470  226.5940 C   0  0  0  0  0  0  0  0  0  0  0  0
  140.4150   69.3590  227.8150 C   0  0  0  0  0  0  0  0  0  0  0  0
  140.3510   68.5480  228.9140 F   0  0  0  0  0  0  0  0  0  0  0  0
  141.0020   70.5940  227.9830 C   0  0  0  0  0  0  0  0  0  0  0  0
  141.0880   71.4430  226.9010 C   0  0  0  0  0  0  0  0  0  0  0  0
  140.5880   71.0420  225.6810 C   0  0  0  0  0  0  0  0  0  0  0  0
  140.6740   71.8770  224.6250 N   0  0  0  0  0  0  0  0  0  0  0  0
  140.3640   70.8240  220.9100 H   0  0  0  0  0  0  0  0  0  0  0  0
  139.5371   72.6624  219.2630 H   0  0  0  0  0  0  0  0  0  0  0  0
  140.6147   73.7237  220.4200 H   0  0  0  0  0  0  0  0  0  0  0  0
  144.0586   74.9729  218.6402 H   0  0  0  0  0  0  0  0  0  0  0  0
  142.9029   75.1703  219.9100 H   0  0  0  0  0  0  0  0  0  0  0  0
  144.1633   73.4222  221.3663 H   0  0  0  0  0  0  0  0  0  0  0  0
  146.1170   74.8420  220.0510 H   0  0  0  0  0  0  0  0  0  0  0  0
  145.1761   71.6821  220.0642 H   0  0  0  0  0  0  0  0  0  0  0  0
  146.3550   73.9330  218.9240 H   0  0  0  0  0  0  0  0  0  0  0  0
  144.3018   72.8176  217.4439 H   0  0  0  0  0  0  0  0  0  0  0  0
  143.0326   71.0472  217.2914 H   0  0  0  0  0  0  0  0  0  0  0  0
  145.1041   69.8019  216.8548 H   0  0  0  0  0  0  0  0  0  0  0  0
  145.8907   71.2602  217.5212 H   0  0  0  0  0  0  0  0  0  0  0  0
  146.1807   68.7517  218.5674 H   0  0  0  0  0  0  0  0  0  0  0  0
  146.3538   70.2256  219.5310 H   0  0  0  0  0  0  0  0  0  0  0  0
  144.1844   68.2181  219.4992 H   0  0  0  0  0  0  0  0  0  0  0  0
  144.5694   69.4384  220.7440 H   0  0  0  0  0  0  0  0  0  0  0  0
  142.4792   69.5026  218.7608 H   0  0  0  0  0  0  0  0  0  0  0  0
  142.8745   70.7485  219.9855 H   0  0  0  0  0  0  0  0  0  0  0  0
  139.2184   70.0229  222.2039 H   0  0  0  0  0  0  0  0  0  0  0  0
  139.0349   68.4507  224.1269 H   0  0  0  0  0  0  0  0  0  0  0  0
  139.4459   67.9555  226.4864 H   0  0  0  0  0  0  0  0  0  0  0  0
  141.3955   70.8973  228.9644 H   0  0  0  0  0  0  0  0  0  0  0  0
  141.5526   72.4341  227.0103 H   0  0  0  0  0  0  0  0  0  0  0  0
  1  2  2  0
  2  3  1  0
  3  4  1  0
  4  5  1  0
  5  6  2  0
  5  7  1  0
  7  8  1  0
  8  9  1  0
  9 10  1  0
  9 11  1  0
 11 12  1  0
 11 13  1  0
 13 14  1  0
 14 15  1  0
 15 16  1  0
 16 17  1  0
 17 18  1  0
  2 19  1  0
 19 20  2  0
 20 21  1  0
 21 22  2  0
 22 23  1  0
 23 24  2  0
 24 25  1  0
 24 26  1  0
 26 27  2  0
 27 28  1  0
 28 29  2  0
 13  7  1  0
 18 14  1  0
 29 19  1  0
 28 22  1  0
  3 30  1  0
  4 31  1  0
  4 32  1  0
  8 33  1  0
  8 34  1  0
  9 35  1  1
 10 36  1  0
 11 37  1  1
 12 38  1  0
 13 39  1  6
 14 40  1  0
 15 41  1  0
 15 42  1  0
 16 43  1  0
 16 44  1  0
 17 45  1  0
 17 46  1  0
 18 47  1  0
 18 48  1  0
 20 49  1  0
 21 50  1  0
 23 51  1  0
 26 52  1  0
 27 53  1  0
M  END
>  <smiles>  (47) 
O=C(NCC(=O)N1C[C@H](O)[C@H](O)[C@H]1C1CCCC1)c1ccc2cc(F)ccc2n1

>  <score_type>  (47) 
oracle

>  <origin>  (47) 
autodockgpu

>  <m_score__min__energy>  (47) 
-8.3100000000000005

>  <m_primary>  (47) 
energy

>  <rmsd>  (47) 
3.6739527289599914

>  <m_score__min__rmsd>  (47) 
3.6739527289599914

>  <meeko>  (47) 
{"free_energy": -8.04, "intermolecular_energy": -10.13, "internal_energy": -2.61, "cluster_size": 26, "cluster_id": 1, "rank_in_cluster": 4}

>  <energy>  (47) 
-7.39

>  <cluster_rmsd>  (47) 
1.47

>  <cluster>  (47) 
3

$$$$

     RDKit          3D

 53 56  0  0  0  0  0  0  0  0999 V2000
  139.8760   73.7740  222.4440 O   0  0  0  0  0  0  0  0  0  0  0  0
  140.2520   72.5780  222.3460 C   0  0  0  0  0  0  0  0  0  0  0  0
  140.7870   72.1410  221.0490 N   0  0  0  0  0  0  0  0  0  0  0  0
  140.8130   73.1430  220.0530 C   0  0  0  0  0  0  0  0  0  0  0  0
  142.0450   73.7370  219.5630 C   0  0  0  0  0  0  0  0  0  0  0  0
  141.7800   74.8140  218.8330 O   0  0  0  0  0  0  0  0  0  0  0  0
  143.3910   73.4520  219.6760 N   0  0  0  0  0  0  0  0  0  0  0  0
  144.4990   74.0980  220.4030 C   0  0  0  0  0  0  0  0  0  0  0  0
  145.0090   72.8930  221.2130 C   0  0  2  0  0  0  0  0  0  0  0  0
  146.2350   73.1210  221.7870 O   0  0  0  0  0  0  0  0  0  0  0  0
  145.0090   71.8380  220.1320 C   0  0  2  0  0  0  0  0  0  0  0  0
  146.3170   71.6360  219.7050 O   0  0  0  0  0  0  0  0  0  0  0  0
  144.0980   72.3420  219.0310 C   0  0  1  0  0  0  0  0  0  0  0  0
  143.2930   71.2760  218.4130 C   0  0  0  0  0  0  0  0  0  0  0  0
  144.2670   70.4460  217.5470 C   0  0  0  0  0  0  0  0  0  0  0  0
  144.5920   69.1980  218.2890 C   0  0  0  0  0  0  0  0  0  0  0  0
  143.4640   68.9910  219.2490 C   0  0  0  0  0  0  0  0  0  0  0  0
  142.6750   70.2830  219.3280 C   0  0  0  0  0  0  0  0  0  0  0  0
  140.1820   71.6240  223.4400 C   0  0  0  0  0  0  0  0  0  0  0  0
  139.6060   70.4010  223.1670 C   0  0  0  0  0  0  0  0  0  0  0  0
  139.5220   69.4720  224.1840 C   0  0  0  0  0  0  0  0  0  0  0  0
  140.0150   69.7770  225.4490 C   0  0  0  0  0  0  0  0  0  0  0  0
  139.9410   68.8570  226.4830 C   0  0  0  0  0  0  0  0  0  0  0  0
  140.4440   69.2060  227.7250 C   0  0  0  0  0  0  0  0  0  0  0  0
  140.3940   68.3320  228.7760 F   0  0  0  0  0  0  0  0  0  0  0  0
  141.0140   70.4370  227.9620 C   0  0  0  0  0  0  0  0  0  0  0  0
  141.0850   71.3480  226.9290 C   0  0  0  0  0  0  0  0  0  0  0  0
  140.5870   71.0100  225.6890 C   0  0  0  0  0  0  0  0  0  0  0  0
  140.6570   71.9050  224.6820 N   0  0  0  0  0  0  0  0  0  0  0  0
  141.0700   71.1610  221.0480 H   0  0  0  0  0  0  0  0  0  0  0  0
  140.3142   72.7097  219.1735 H   0  0  0  0  0  0  0  0  0  0  0  0
  140.3532   73.9915  220.5810 H   0  0  0  0  0  0  0  0  0  0  0  0
  145.2672   74.4869  219.7185 H   0  0  0  0  0  0  0  0  0  0  0  0
  144.2169   74.9776  221.0002 H   0  0  0  0  0  0  0  0  0  0  0  0
  144.4081   72.6248  222.0945 H   0  0  0  0  0  0  0  0  0  0  0  0
  146.7540   72.2980  221.7520 H   0  0  0  0  0  0  0  0  0  0  0  0
  144.6359   70.8641  220.4816 H   0  0  0  0  0  0  0  0  0  0  0  0
  146.8780   71.4920  220.4870 H   0  0  0  0  0  0  0  0  0  0  0  0
  144.6147   72.7035  218.1297 H   0  0  0  0  0  0  0  0  0  0  0  0
  142.4710   71.7961  217.8994 H   0  0  0  0  0  0  0  0  0  0  0  0
  143.7926   70.1965  216.5864 H   0  0  0  0  0  0  0  0  0  0  0  0
  145.1832   71.0202  217.3450 H   0  0  0  0  0  0  0  0  0  0  0  0
  144.6657   68.3477  217.5951 H   0  0  0  0  0  0  0  0  0  0  0  0
  145.5581   69.2755  218.8092 H   0  0  0  0  0  0  0  0  0  0  0  0
  142.8146   68.1779  218.8925 H   0  0  0  0  0  0  0  0  0  0  0  0
  143.8514   68.7178  220.2416 H   0  0  0  0  0  0  0  0  0  0  0  0
  141.6334   70.0995  219.0258 H   0  0  0  0  0  0  0  0  0  0  0  0
  142.6863   70.6661  220.3591 H   0  0  0  0  0  0  0  0  0  0  0  0
  139.2224   70.1714  222.1619 H   0  0  0  0  0  0  0  0  0  0  0  0
  139.0649   68.4896  223.9945 H   0  0  0  0  0  0  0  0  0  0  0  0
  139.4905   67.8668  226.3198 H   0  0  0  0  0  0  0  0  0  0  0  0
  141.4060   70.6894  228.9583 H   0  0  0  0  0  0  0  0  0  0  0  0
  141.5360   72.3377  227.0936 H   0  0  0  0  0  0  0  0  0  0  0  0
  1  2  2  0
  2  3  1  0
  3  4  1  0
  4  5  1  0
  5  6  2  0
  5  7  1  0
  7  8  1  0
  8  9  1  0
  9 10  1  0
  9 11  1  0
 11 12  1  0
 11 13  1  0
 13 14  1  0
 14 15  1  0
 15 16  1  0
 16 17  1  0
 17 18  1  0
  2 19  1  0
 19 20  2  0
 20 21  1  0
 21 22  2  0
 22 23  1  0
 23 24  2  0
 24 25  1  0
 24 26  1  0
 26 27  2  0
 27 28  1  0
 28 29  2  0
 13  7  1  0
 18 14  1  0
 29 19  1  0
 28 22  1  0
  3 30  1  0
  4 31  1  0
  4 32  1  0
  8 33  1  0
  8 34  1  0
  9 35  1  1
 10 36  1  0
 11 37  1  1
 12 38  1  0
 13 39  1  6
 14 40  1  0
 15 41  1  0
 15 42  1  0
 16 43  1  0
 16 44  1  0
 17 45  1  0
 17 46  1  0
 18 47  1  0
 18 48  1  0
 20 49  1  0
 21 50  1  0
 23 51  1  0
 26 52  1  0
 27 53  1  0
M  END
>  <smiles>  (48) 
O=C(NCC(=O)N1C[C@H](O)[C@H](O)[C@H]1C1CCCC1)c1ccc2cc(F)ccc2n1

>  <score_type>  (48) 
oracle

>  <origin>  (48) 
autodockgpu

>  <m_score__min__energy>  (48) 
-8.3100000000000005

>  <m_primary>  (48) 
energy

>  <rmsd>  (48) 
4.001827541749951

>  <m_score__min__rmsd>  (48) 
4.001827541749951

>  <meeko>  (48) 
{"free_energy": -7.43, "intermolecular_energy": -9.52, "internal_energy": -2.75, "cluster_size": 26, "cluster_id": 1, "rank_in_cluster": 20}

>  <energy>  (48) 
-7.34

>  <cluster_rmsd>  (48) 
0.36

>  <cluster>  (48) 
3

$$$$

     RDKit          3D

 53 56  0  0  0  0  0  0  0  0999 V2000
  140.0890   71.0950  221.3250 O   0  0  0  0  0  0  0  0  0  0  0  0
  139.9280   71.5710  222.4780 C   0  0  0  0  0  0  0  0  0  0  0  0
  139.7400   73.0240  222.5900 N   0  0  0  0  0  0  0  0  0  0  0  0
  139.7640   73.7200  221.3610 C   0  0  0  0  0  0  0  0  0  0  0  0
  140.8570   74.5920  220.9690 C   0  0  0  0  0  0  0  0  0  0  0  0
  141.2090   75.3770  221.9820 O   0  0  0  0  0  0  0  0  0  0  0  0
  141.5970   74.7920  219.8210 N   0  0  0  0  0  0  0  0  0  0  0  0
  141.4220   75.6720  218.6510 C   0  0  0  0  0  0  0  0  0  0  0  0
  142.7770   76.4000  218.6740 C   0  0  2  0  0  0  0  0  0  0  0  0
  143.0240   77.0970  217.5180 O   0  0  0  0  0  0  0  0  0  0  0  0
  143.6970   75.2240  218.9070 C   0  0  2  0  0  0  0  0  0  0  0  0
  144.3120   74.8940  217.7050 O   0  0  0  0  0  0  0  0  0  0  0  0
  142.8400   74.1040  219.4630 C   0  0  1  0  0  0  0  0  0  0  0  0
  143.5200   73.3180  220.5040 C   0  0  0  0  0  0  0  0  0  0  0  0
  143.6750   71.8900  219.9360 C   0  0  0  0  0  0  0  0  0  0  0  0
  145.0810   71.7250  219.4800 C   0  0  0  0  0  0  0  0  0  0  0  0
  145.8750   72.7400  220.2410 C   0  0  0  0  0  0  0  0  0  0  0  0
  144.9030   73.7240  220.8590 C   0  0  0  0  0  0  0  0  0  0  0  0
  139.9200   70.7620  223.6850 C   0  0  0  0  0  0  0  0  0  0  0  0
  139.3330   69.5180  223.6010 C   0  0  0  0  0  0  0  0  0  0  0  0
  139.3080   68.7240  224.7290 C   0  0  0  0  0  0  0  0  0  0  0  0
  139.8690   69.1830  225.9170 C   0  0  0  0  0  0  0  0  0  0  0  0
  139.8550   68.4010  227.0610 C   0  0  0  0  0  0  0  0  0  0  0  0
  140.4250   68.9010  228.2190 C   0  0  0  0  0  0  0  0  0  0  0  0
  140.4350   68.1670  229.3720 F   0  0  0  0  0  0  0  0  0  0  0  0
  141.0050   70.1490  228.2670 C   0  0  0  0  0  0  0  0  0  0  0  0
  141.0170   70.9230  227.1260 C   0  0  0  0  0  0  0  0  0  0  0  0
  140.4510   70.4340  225.9680 C   0  0  0  0  0  0  0  0  0  0  0  0
  140.4640   71.1950  224.8540 N   0  0  0  0  0  0  0  0  0  0  0  0
  139.6170   73.3340  223.5540 H   0  0  0  0  0  0  0  0  0  0  0  0
  139.6917   72.9526  220.5762 H   0  0  0  0  0  0  0  0  0  0  0  0
  138.9450   74.4411  221.4995 H   0  0  0  0  0  0  0  0  0  0  0  0
  141.2806   75.0978  217.7235 H   0  0  0  0  0  0  0  0  0  0  0  0
  140.5387   76.3267  218.6862 H   0  0  0  0  0  0  0  0  0  0  0  0
  142.8755   77.1960  219.4268 H   0  0  0  0  0  0  0  0  0  0  0  0
  143.1540   76.4610  216.7920 H   0  0  0  0  0  0  0  0  0  0  0  0
  144.5019   75.4419  219.6244 H   0  0  0  0  0  0  0  0  0  0  0  0
  144.7160   75.6970  217.3340 H   0  0  0  0  0  0  0  0  0  0  0  0
  142.6235   73.2896  218.7560 H   0  0  0  0  0  0  0  0  0  0  0  0
  142.9047   73.4440  221.4071 H   0  0  0  0  0  0  0  0  0  0  0  0
  143.4474   71.1508  220.7181 H   0  0  0  0  0  0  0  0  0  0  0  0
  142.9812   71.7361  219.0964 H   0  0  0  0  0  0  0  0  0  0  0  0
  145.4404   70.7099  219.7045 H   0  0  0  0  0  0  0  0  0  0  0  0
  145.1749   71.8675  218.3933 H   0  0  0  0  0  0  0  0  0  0  0  0
  146.4570   72.2432  221.0313 H   0  0  0  0  0  0  0  0  0  0  0  0
  146.5734   73.2616  219.5700 H   0  0  0  0  0  0  0  0  0  0  0  0
  145.0197   73.7214  221.9528 H   0  0  0  0  0  0  0  0  0  0  0  0
  145.1042   74.7365  220.4791 H   0  0  0  0  0  0  0  0  0  0  0  0
  138.8942   69.1660  222.6557 H   0  0  0  0  0  0  0  0  0  0  0  0
  138.8443   67.7273  224.6893 H   0  0  0  0  0  0  0  0  0  0  0  0
  139.3987   67.4002  227.0490 H   0  0  0  0  0  0  0  0  0  0  0  0
  141.4515   70.5224  229.2004 H   0  0  0  0  0  0  0  0  0  0  0  0
  141.4747   71.9231  227.1396 H   0  0  0  0  0  0  0  0  0  0  0  0
  1  2  2  0
  2  3  1  0
  3  4  1  0
  4  5  1  0
  5  6  2  0
  5  7  1  0
  7  8  1  0
  8  9  1  0
  9 10  1  0
  9 11  1  0
 11 12  1  0
 11 13  1  0
 13 14  1  0
 14 15  1  0
 15 16  1  0
 16 17  1  0
 17 18  1  0
  2 19  1  0
 19 20  2  0
 20 21  1  0
 21 22  2  0
 22 23  1  0
 23 24  2  0
 24 25  1  0
 24 26  1  0
 26 27  2  0
 27 28  1  0
 28 29  2  0
 13  7  1  0
 18 14  1  0
 29 19  1  0
 28 22  1  0
  3 30  1  0
  4 31  1  0
  4 32  1  0
  8 33  1  0
  8 34  1  0
  9 35  1  1
 10 36  1  0
 11 37  1  1
 12 38  1  0
 13 39  1  6
 14 40  1  0
 15 41  1  0
 15 42  1  0
 16 43  1  0
 16 44  1  0
 17 45  1  0
 17 46  1  0
 18 47  1  0
 18 48  1  0
 20 49  1  0
 21 50  1  0
 23 51  1  0
 26 52  1  0
 27 53  1  0
M  END
>  <smiles>  (49) 
O=C(NCC(=O)N1C[C@H](O)[C@H](O)[C@H]1C1CCCC1)c1ccc2cc(F)ccc2n1

>  <score_type>  (49) 
oracle

>  <origin>  (49) 
autodockgpu

>  <m_score__min__energy>  (49) 
-8.3100000000000005

>  <m_primary>  (49) 
energy

>  <rmsd>  (49) 
2.1928862599320853

>  <m_score__min__rmsd>  (49) 
2.1928862599320853

>  <meeko>  (49) 
{"free_energy": -7.57, "intermolecular_energy": -9.66, "internal_energy": -3.08, "cluster_size": 26, "cluster_id": 1, "rank_in_cluster": 17}

>  <energy>  (49) 
-7.29

>  <cluster_rmsd>  (49) 
0.0

>  <cluster>  (49) 
4

$$$$

     RDKit          3D

 53 56  0  0  0  0  0  0  0  0999 V2000
  137.8630   81.7180  223.2240 O   0  0  0  0  0  0  0  0  0  0  0  0
  136.9330   81.0820  223.7830 C   0  0  0  0  0  0  0  0  0  0  0  0
  136.2460   80.0520  222.9910 N   0  0  0  0  0  0  0  0  0  0  0  0
  136.7280   79.9020  221.6720 C   0  0  0  0  0  0  0  0  0  0  0  0
  137.8130   79.0000  221.3260 C   0  0  0  0  0  0  0  0  0  0  0  0
  137.8790   78.8390  220.0100 O   0  0  0  0  0  0  0  0  0  0  0  0
  138.7670   78.2910  222.0270 N   0  0  0  0  0  0  0  0  0  0  0  0
  138.9590   76.8520  222.2930 C   0  0  0  0  0  0  0  0  0  0  0  0
  140.3950   76.6860  221.7680 C   0  0  2  0  0  0  0  0  0  0  0  0
  140.9610   75.4940  222.1430 O   0  0  0  0  0  0  0  0  0  0  0  0
  141.0380   77.9060  222.3850 C   0  0  2  0  0  0  0  0  0  0  0  0
  141.7870   77.5080  223.4860 O   0  0  0  0  0  0  0  0  0  0  0  0
  139.9130   78.8560  222.7450 C   0  0  1  0  0  0  0  0  0  0  0  0
  140.2490   80.2680  222.5060 C   0  0  0  0  0  0  0  0  0  0  0  0
  140.7970   80.8140  223.8440 C   0  0  0  0  0  0  0  0  0  0  0  0
  142.2800   80.8760  223.7420 C   0  0  0  0  0  0  0  0  0  0  0  0
  142.5840   80.9350  222.2790 C   0  0  0  0  0  0  0  0  0  0  0  0
  141.3280   80.5470  221.5250 C   0  0  0  0  0  0  0  0  0  0  0  0
  136.5130   81.3170  225.1540 C   0  0  0  0  0  0  0  0  0  0  0  0
  137.3210   82.1220  225.9280 C   0  0  0  0  0  0  0  0  0  0  0  0
  136.9510   82.3640  227.2340 C   0  0  0  0  0  0  0  0  0  0  0  0
  135.7850   81.8030  227.7450 C   0  0  0  0  0  0  0  0  0  0  0  0
  135.3960   82.0340  229.0550 C   0  0  0  0  0  0  0  0  0  0  0  0
  134.2280   81.4530  229.5180 C   0  0  0  0  0  0  0  0  0  0  0  0
  133.8030   81.6530  230.8020 F   0  0  0  0  0  0  0  0  0  0  0  0
  133.4430   80.6530  228.7160 C   0  0  0  0  0  0  0  0  0  0  0  0
  133.8350   80.4270  227.4140 C   0  0  0  0  0  0  0  0  0  0  0  0
  134.9970   81.0010  226.9440 C   0  0  0  0  0  0  0  0  0  0  0  0
  135.3760   80.7750  225.6700 N   0  0  0  0  0  0  0  0  0  0  0  0
  135.5050   79.5820  223.5110 H   0  0  0  0  0  0  0  0  0  0  0  0
  135.8652   79.5848  221.0678 H   0  0  0  0  0  0  0  0  0  0  0  0
  137.1910   80.8836  221.4929 H   0  0  0  0  0  0  0  0  0  0  0  0
  138.8848   76.6195  223.3656 H   0  0  0  0  0  0  0  0  0  0  0  0
  138.2128   76.1873  221.8333 H   0  0  0  0  0  0  0  0  0  0  0  0
  140.4972   76.6362  220.6739 H   0  0  0  0  0  0  0  0  0  0  0  0
  141.9000   75.6450  222.3530 H   0  0  0  0  0  0  0  0  0  0  0  0
  141.7298   78.4200  221.7015 H   0  0  0  0  0  0  0  0  0  0  0  0
  141.8980   76.5430  223.4520 H   0  0  0  0  0  0  0  0  0  0  0  0
  139.6852   78.9192  223.8193 H   0  0  0  0  0  0  0  0  0  0  0  0
  139.3281   80.7201  222.1092 H   0  0  0  0  0  0  0  0  0  0  0  0
  140.3932   81.8201  224.0301 H   0  0  0  0  0  0  0  0  0  0  0  0
  140.4981   80.1587  224.6754 H   0  0  0  0  0  0  0  0  0  0  0  0
  142.6619   81.7741  224.2494 H   0  0  0  0  0  0  0  0  0  0  0  0
  142.7561   80.0074  224.2204 H   0  0  0  0  0  0  0  0  0  0  0  0
  142.8862   81.9555  222.0012 H   0  0  0  0  0  0  0  0  0  0  0  0
  143.4067   80.2482  222.0311 H   0  0  0  0  0  0  0  0  0  0  0  0
  141.0232   81.3723  220.8647 H   0  0  0  0  0  0  0  0  0  0  0  0
  141.5194   79.6520  220.9148 H   0  0  0  0  0  0  0  0  0  0  0  0
  138.2402   82.5614  225.5132 H   0  0  0  0  0  0  0  0  0  0  0  0
  137.5791   83.0019  227.8732 H   0  0  0  0  0  0  0  0  0  0  0  0
  136.0052   82.6684  229.7157 H   0  0  0  0  0  0  0  0  0  0  0  0
  132.5193   80.2025  229.1083 H   0  0  0  0  0  0  0  0  0  0  0  0
  133.2247   79.7928  226.7543 H   0  0  0  0  0  0  0  0  0  0  0  0
  1  2  2  0
  2  3  1  0
  3  4  1  0
  4  5  1  0
  5  6  2  0
  5  7  1  0
  7  8  1  0
  8  9  1  0
  9 10  1  0
  9 11  1  0
 11 12  1  0
 11 13  1  0
 13 14  1  0
 14 15  1  0
 15 16  1  0
 16 17  1  0
 17 18  1  0
  2 19  1  0
 19 20  2  0
 20 21  1  0
 21 22  2  0
 22 23  1  0
 23 24  2  0
 24 25  1  0
 24 26  1  0
 26 27  2  0
 27 28  1  0
 28 29  2  0
 13  7  1  0
 18 14  1  0
 29 19  1  0
 28 22  1  0
  3 30  1  0
  4 31  1  0
  4 32  1  0
  8 33  1  0
  8 34  1  0
  9 35  1  6
 10 36  1  0
 11 37  1  6
 12 38  1  0
 13 39  1  1
 14 40  1  0
 15 41  1  0
 15 42  1  0
 16 43  1  0
 16 44  1  0
 17 45  1  0
 17 46  1  0
 18 47  1  0
 18 48  1  0
 20 49  1  0
 21 50  1  0
 23 51  1  0
 26 52  1  0
 27 53  1  0
M  END
>  <smiles>  (50) 
O=C(NCC(=O)N1C[C@H](O)[C@H](O)[C@H]1C1CCCC1)c1ccc2cc(F)ccc2n1

>  <score_type>  (50) 
oracle

>  <origin>  (50) 
autodockgpu

>  <m_score__min__energy>  (50) 
-8.3100000000000005

>  <m_primary>  (50) 
energy

>  <rmsd>  (50) 
9.916173179394328

>  <m_score__min__rmsd>  (50) 
9.916173179394328

>  <meeko>  (50) 
{"free_energy": -6.55, "intermolecular_energy": -8.64, "internal_energy": -3.37, "cluster_size": 1, "cluster_id": 5, "rank_in_cluster": 1}

>  <energy>  (50) 
-6.55

>  <cluster_rmsd>  (50) 
0.0

>  <cluster>  (50) 
5

$$$$
