
     RDKit          3D

 47 50  0  0  0  0  0  0  0  0999 V2000
  141.6410   72.0540  221.5930 O   0  0  0  0  0  0  0  0  0  0  0  0
  140.6740   72.3430  222.3560 C   0  0  0  0  0  0  0  0  0  0  0  0
  139.8280   73.4590  222.0700 N   0  0  0  0  0  0  0  0  0  0  0  0
  140.1260   74.2350  220.8780 C   0  0  0  0  0  0  0  0  0  0  0  0
  141.3060   75.1020  221.0870 C   0  0  0  0  0  0  0  0  0  0  0  0
  141.4570   75.7260  222.1680 O   0  0  0  0  0  0  0  0  0  0  0  0
  142.2540   75.2080  220.0360 N   0  0  0  0  0  0  0  0  0  0  0  0
  142.9810   76.4330  219.7550 C   0  0  0  0  0  0  0  0  0  0  0  0
  142.6270   76.8270  218.3490 C   0  0  0  0  0  0  0  0  0  0  0  0
  142.9190   75.7550  217.3380 C   0  0  0  0  0  0  0  0  0  0  0  0
  142.4450   74.4010  217.7350 C   0  0  0  0  0  0  0  0  0  0  0  0
  142.5420   74.0680  219.1780 C   0  0  1  0  0  0  0  0  0  0  0  0
  143.8710   73.5430  219.5780 C   0  0  0  0  0  0  0  0  0  0  0  0
  144.9290   73.5530  218.7300 N   0  0  0  0  0  0  0  0  0  0  0  0
  145.9510   73.0170  219.4010 N   0  0  0  0  0  0  0  0  0  0  0  0
  145.5440   72.6810  220.6310 C   0  0  0  0  0  0  0  0  0  0  0  0
  144.2460   73.0030  220.7600 N   0  0  0  0  0  0  0  0  0  0  0  0
  140.4030   71.5390  223.5510 C   0  0  0  0  0  0  0  0  0  0  0  0
  139.6690   70.3760  223.4230 C   0  0  0  0  0  0  0  0  0  0  0  0
  139.3730   69.5630  224.5140 C   0  0  0  0  0  0  0  0  0  0  0  0
  139.8590   69.9930  225.7330 C   0  0  0  0  0  0  0  0  0  0  0  0
  139.6190   69.2560  226.8770 C   0  0  0  0  0  0  0  0  0  0  0  0
  140.0790   69.6350  228.1210 C   0  0  0  0  0  0  0  0  0  0  0  0
  139.7990   68.8570  229.1820 F   0  0  0  0  0  0  0  0  0  0  0  0
  140.8210   70.8110  228.2610 C   0  0  0  0  0  0  0  0  0  0  0  0
  141.0530   71.5360  227.1120 C   0  0  0  0  0  0  0  0  0  0  0  0
  140.5920   71.1530  225.8720 C   0  0  0  0  0  0  0  0  0  0  0  0
  140.8430   71.8930  224.7730 N   0  0  0  0  0  0  0  0  0  0  0  0
  139.0290   73.6870  222.7140 H   0  0  0  0  0  0  0  0  0  0  0  0
  140.3288   73.5477  220.0435 H   0  0  0  0  0  0  0  0  0  0  0  0
  139.2595   74.8737  220.6517 H   0  0  0  0  0  0  0  0  0  0  0  0
  142.6798   77.2234  220.4583 H   0  0  0  0  0  0  0  0  0  0  0  0
  144.0655   76.2859  219.8655 H   0  0  0  0  0  0  0  0  0  0  0  0
  141.5522   77.0581  218.3117 H   0  0  0  0  0  0  0  0  0  0  0  0
  143.2483   77.6967  218.0891 H   0  0  0  0  0  0  0  0  0  0  0  0
  142.4289   76.0292  216.3922 H   0  0  0  0  0  0  0  0  0  0  0  0
  144.0135   75.6942  217.2468 H   0  0  0  0  0  0  0  0  0  0  0  0
  141.3882   74.3164  217.4417 H   0  0  0  0  0  0  0  0  0  0  0  0
  143.1156   73.6939  217.2248 H   0  0  0  0  0  0  0  0  0  0  0  0
  141.7831   73.2834  219.3139 H   0  0  0  0  0  0  0  0  0  0  0  0
  146.1693   72.2175  221.4083 H   0  0  0  0  0  0  0  0  0  0  0  0
  143.6400   72.8710  221.5900 H   0  0  0  0  0  0  0  0  0  0  0  0
  139.3065   70.0825  222.4268 H   0  0  0  0  0  0  0  0  0  0  0  0
  138.7888   68.6366  224.4114 H   0  0  0  0  0  0  0  0  0  0  0  0
  139.0360   68.3271  226.7920 H   0  0  0  0  0  0  0  0  0  0  0  0
  141.2008   71.1414  229.2391 H   0  0  0  0  0  0  0  0  0  0  0  0
  141.6350   72.4663  227.1892 H   0  0  0  0  0  0  0  0  0  0  0  0
  1  2  2  0
  2  3  1  0
  3  4  1  0
  4  5  1  0
  5  6  2  0
  5  7  1  0
  7  8  1  0
  8  9  1  0
  9 10  1  0
 10 11  1  0
 11 12  1  0
 12 13  1  0
 13 14  2  0
 14 15  1  0
 15 16  2  0
 16 17  1  0
  2 18  1  0
 18 19  2  0
 19 20  1  0
 20 21  2  0
 21 22  1  0
 22 23  2  0
 23 24  1  0
 23 25  1  0
 25 26  2  0
 26 27  1  0
 27 28  2  0
 12  7  1  0
 17 13  1  0
 28 18  1  0
 27 21  1  0
  3 29  1  0
  4 30  1  0
  4 31  1  0
  8 32  1  0
  8 33  1  0
  9 34  1  0
  9 35  1  0
 10 36  1  0
 10 37  1  0
 11 38  1  0
 11 39  1  0
 12 40  1  1
 16 41  1  0
 17 42  1  0
 19 43  1  0
 20 44  1  0
 22 45  1  0
 25 46  1  0
 26 47  1  0
M  END
>  <smiles>  (1) 
O=C(NCC(=O)N1CCCC[C@H]1c1nnc[nH]1)c1ccc2cc(F)ccc2n1

>  <score_type>  (1) 
oracle

>  <origin>  (1) 
autodockgpu

>  <m_score__min__energy>  (1) 
-8.2599999999999998

>  <m_primary>  (1) 
energy

>  <rmsd>  (1) 
3.2917113871665222

>  <m_score__min__rmsd>  (1) 
3.2917113871665222

>  <meeko>  (1) 
{"free_energy": -7.72, "intermolecular_energy": -9.21, "internal_energy": -2.26, "cluster_size": 14, "cluster_id": 1, "rank_in_cluster": 10}

>  <energy>  (1) 
-8.26

>  <cluster_rmsd>  (1) 
0.0

>  <cluster>  (1) 
1

$$$$

     RDKit          3D

 47 50  0  0  0  0  0  0  0  0999 V2000
  139.3730   75.1620  222.7190 O   0  0  0  0  0  0  0  0  0  0  0  0
  140.0330   75.3340  221.6530 C   0  0  0  0  0  0  0  0  0  0  0  0
  139.7380   76.4290  220.7830 N   0  0  0  0  0  0  0  0  0  0  0  0
  138.6600   77.3220  221.1730 C   0  0  0  0  0  0  0  0  0  0  0  0
  139.1260   78.3190  222.1620 C   0  0  0  0  0  0  0  0  0  0  0  0
  138.3260   78.8130  222.9970 O   0  0  0  0  0  0  0  0  0  0  0  0
  140.4940   78.6980  222.1380 N   0  0  0  0  0  0  0  0  0  0  0  0
  141.4520   78.2450  223.1290 C   0  0  0  0  0  0  0  0  0  0  0  0
  141.9870   79.4770  223.8010 C   0  0  0  0  0  0  0  0  0  0  0  0
  142.5920   80.4640  222.8440 C   0  0  0  0  0  0  0  0  0  0  0  0
  141.7580   80.7330  221.6410 C   0  0  0  0  0  0  0  0  0  0  0  0
  141.0020   79.5770  221.0940 C   0  0  1  0  0  0  0  0  0  0  0  0
  141.7920   78.7390  220.1600 C   0  0  0  0  0  0  0  0  0  0  0  0
  142.0840   79.1490  218.9010 N   0  0  0  0  0  0  0  0  0  0  0  0
  142.7970   78.1680  218.3450 N   0  0  0  0  0  0  0  0  0  0  0  0
  142.9470   77.1740  219.2280 C   0  0  0  0  0  0  0  0  0  0  0  0
  142.3260   77.5130  220.3700 N   0  0  0  0  0  0  0  0  0  0  0  0
  141.1140   74.4140  221.2890 C   0  0  0  0  0  0  0  0  0  0  0  0
  140.8410   73.0630  221.1970 C   0  0  0  0  0  0  0  0  0  0  0  0
  141.8180   72.1310  220.8560 C   0  0  0  0  0  0  0  0  0  0  0  0
  143.0780   72.6430  220.6180 C   0  0  0  0  0  0  0  0  0  0  0  0
  144.1180   71.8000  220.2720 C   0  0  0  0  0  0  0  0  0  0  0  0
  145.3960   72.2530  220.0220 C   0  0  0  0  0  0  0  0  0  0  0  0
  146.3480   71.3620  219.6920 F   0  0  0  0  0  0  0  0  0  0  0  0
  145.6830   73.6180  220.1140 C   0  0  0  0  0  0  0  0  0  0  0  0
  144.6370   74.4470  220.4580 C   0  0  0  0  0  0  0  0  0  0  0  0
  143.3620   73.9900  220.7080 C   0  0  0  0  0  0  0  0  0  0  0  0
  142.3680   74.8370  221.0420 N   0  0  0  0  0  0  0  0  0  0  0  0
  140.2950   76.5590  219.9000 H   0  0  0  0  0  0  0  0  0  0  0  0
  138.2882   77.8474  220.2810 H   0  0  0  0  0  0  0  0  0  0  0  0
  137.8588   76.7235  221.6310 H   0  0  0  0  0  0  0  0  0  0  0  0
  140.9576   77.5948  223.8658 H   0  0  0  0  0  0  0  0  0  0  0  0
  142.2611   77.6636  222.6628 H   0  0  0  0  0  0  0  0  0  0  0  0
  141.1607   79.9699  224.3342 H   0  0  0  0  0  0  0  0  0  0  0  0
  142.7875   79.1533  224.4825 H   0  0  0  0  0  0  0  0  0  0  0  0
  142.7449   81.4136  223.3778 H   0  0  0  0  0  0  0  0  0  0  0  0
  143.5333   80.0221  222.4852 H   0  0  0  0  0  0  0  0  0  0  0  0
  141.0306   81.5148  221.9051 H   0  0  0  0  0  0  0  0  0  0  0  0
  142.4666   81.0214  220.8506 H   0  0  0  0  0  0  0  0  0  0  0  0
  140.1704   80.0459  220.5476 H   0  0  0  0  0  0  0  0  0  0  0  0
  143.4895   76.2341  219.0484 H   0  0  0  0  0  0  0  0  0  0  0  0
  142.2590   76.9600  221.2440 H   0  0  0  0  0  0  0  0  0  0  0  0
  139.8185   72.7119  221.3997 H   0  0  0  0  0  0  0  0  0  0  0  0
  141.5998   71.0555  220.7810 H   0  0  0  0  0  0  0  0  0  0  0  0
  143.9171   70.7214  220.1928 H   0  0  0  0  0  0  0  0  0  0  0  0
  146.6924   74.0106  219.9216 H   0  0  0  0  0  0  0  0  0  0  0  0
  144.8300   75.5271  220.5368 H   0  0  0  0  0  0  0  0  0  0  0  0
  1  2  2  0
  2  3  1  0
  3  4  1  0
  4  5  1  0
  5  6  2  0
  5  7  1  0
  7  8  1  0
  8  9  1  0
  9 10  1  0
 10 11  1  0
 11 12  1  0
 12 13  1  0
 13 14  2  0
 14 15  1  0
 15 16  2  0
 16 17  1  0
  2 18  1  0
 18 19  2  0
 19 20  1  0
 20 21  2  0
 21 22  1  0
 22 23  2  0
 23 24  1  0
 23 25  1  0
 25 26  2  0
 26 27  1  0
 27 28  2  0
 12  7  1  0
 17 13  1  0
 28 18  1  0
 27 21  1  0
  3 29  1  0
  4 30  1  0
  4 31  1  0
  8 32  1  0
  8 33  1  0
  9 34  1  0
  9 35  1  0
 10 36  1  0
 10 37  1  0
 11 38  1  0
 11 39  1  0
 12 40  1  6
 16 41  1  0
 17 42  1  0
 19 43  1  0
 20 44  1  0
 22 45  1  0
 25 46  1  0
 26 47  1  0
M  END
>  <smiles>  (2) 
O=C(NCC(=O)N1CCCC[C@H]1c1nnc[nH]1)c1ccc2cc(F)ccc2n1

>  <score_type>  (2) 
oracle

>  <origin>  (2) 
autodockgpu

>  <m_score__min__energy>  (2) 
-8.2599999999999998

>  <m_primary>  (2) 
energy

>  <rmsd>  (2) 
6.1438108888730465

>  <m_score__min__rmsd>  (2) 
6.1438108888730465

>  <meeko>  (2) 
{"free_energy": -6.95, "intermolecular_energy": -8.45, "internal_energy": -2.79, "cluster_size": 17, "cluster_id": 6, "rank_in_cluster": 2}

>  <energy>  (2) 
-8.06

>  <cluster_rmsd>  (2) 
1.12

>  <cluster>  (2) 
1

$$$$

     RDKit          3D

 47 50  0  0  0  0  0  0  0  0999 V2000
  141.1770   72.5170  222.0330 O   0  0  0  0  0  0  0  0  0  0  0  0
  140.1100   72.3780  222.6990 C   0  0  0  0  0  0  0  0  0  0  0  0
  138.9450   73.1400  222.3760 N   0  0  0  0  0  0  0  0  0  0  0  0
  139.0400   74.0690  221.2630 C   0  0  0  0  0  0  0  0  0  0  0  0
  139.8710   75.2400  221.6160 C   0  0  0  0  0  0  0  0  0  0  0  0
  141.1240   75.1850  221.5260 O   0  0  0  0  0  0  0  0  0  0  0  0
  139.2150   76.4190  222.0590 N   0  0  0  0  0  0  0  0  0  0  0  0
  138.1880   76.4080  223.0840 C   0  0  0  0  0  0  0  0  0  0  0  0
  136.9430   76.9580  222.4460 C   0  0  0  0  0  0  0  0  0  0  0  0
  137.1310   78.3260  221.8530 C   0  0  0  0  0  0  0  0  0  0  0  0
  138.3590   78.4630  221.0230 C   0  0  0  0  0  0  0  0  0  0  0  0
  139.5540   77.7150  221.4890 C   0  0  1  0  0  0  0  0  0  0  0  0
  140.3530   78.4450  222.5040 C   0  0  0  0  0  0  0  0  0  0  0  0
  139.9960   79.6760  222.9460 N   0  0  0  0  0  0  0  0  0  0  0  0
  140.9200   80.0340  223.8400 N   0  0  0  0  0  0  0  0  0  0  0  0
  141.8270   79.0570  223.9540 C   0  0  0  0  0  0  0  0  0  0  0  0
  141.4890   78.0540  223.1260 N   0  0  0  0  0  0  0  0  0  0  0  0
  140.0490   71.4310  223.8160 C   0  0  0  0  0  0  0  0  0  0  0  0
  139.4200   70.2160  223.6300 C   0  0  0  0  0  0  0  0  0  0  0  0
  139.3240   69.2680  224.6460 C   0  0  0  0  0  0  0  0  0  0  0  0
  139.8970   69.6210  225.8520 C   0  0  0  0  0  0  0  0  0  0  0  0
  139.8550   68.7490  226.9240 C   0  0  0  0  0  0  0  0  0  0  0  0
  140.4100   69.0460  228.1520 C   0  0  0  0  0  0  0  0  0  0  0  0
  140.3230   68.1390  229.1400 F   0  0  0  0  0  0  0  0  0  0  0  0
  141.0480   70.2740  228.3500 C   0  0  0  0  0  0  0  0  0  0  0  0
  141.0830   71.1330  227.2720 C   0  0  0  0  0  0  0  0  0  0  0  0
  140.5270   70.8330  226.0480 C   0  0  0  0  0  0  0  0  0  0  0  0
  140.5840   71.7040  225.0210 N   0  0  0  0  0  0  0  0  0  0  0  0
  138.0650   73.0130  222.9400 H   0  0  0  0  0  0  0  0  0  0  0  0
  139.4922   73.5538  220.4027 H   0  0  0  0  0  0  0  0  0  0  0  0
  138.0279   74.4211  221.0147 H   0  0  0  0  0  0  0  0  0  0  0  0
  138.0129   75.3805  223.4356 H   0  0  0  0  0  0  0  0  0  0  0  0
  138.4882   77.0096  223.9546 H   0  0  0  0  0  0  0  0  0  0  0  0
  136.6285   76.2714  221.6462 H   0  0  0  0  0  0  0  0  0  0  0  0
  136.1849   77.0486  223.2379 H   0  0  0  0  0  0  0  0  0  0  0  0
  136.2595   78.5517  221.2210 H   0  0  0  0  0  0  0  0  0  0  0  0
  137.2365   79.0259  222.6950 H   0  0  0  0  0  0  0  0  0  0  0  0
  138.1187   78.1126  220.0084 H   0  0  0  0  0  0  0  0  0  0  0  0
  138.6363   79.5258  221.0822 H   0  0  0  0  0  0  0  0  0  0  0  0
  140.1529   77.5884  220.5751 H   0  0  0  0  0  0  0  0  0  0  0  0
  142.7050   79.0723  224.6165 H   0  0  0  0  0  0  0  0  0  0  0  0
  141.9870   77.1570  222.9800 H   0  0  0  0  0  0  0  0  0  0  0  0
  138.9804   69.9893  222.6475 H   0  0  0  0  0  0  0  0  0  0  0  0
  138.8236   68.2997  224.4972 H   0  0  0  0  0  0  0  0  0  0  0  0
  139.3578   67.7767  226.7924 H   0  0  0  0  0  0  0  0  0  0  0  0
  141.4993   70.5415  229.3169 H   0  0  0  0  0  0  0  0  0  0  0  0
  141.5798   72.1066  227.3957 H   0  0  0  0  0  0  0  0  0  0  0  0
  1  2  2  0
  2  3  1  0
  3  4  1  0
  4  5  1  0
  5  6  2  0
  5  7  1  0
  7  8  1  0
  8  9  1  0
  9 10  1  0
 10 11  1  0
 11 12  1  0
 12 13  1  0
 13 14  2  0
 14 15  1  0
 15 16  2  0
 16 17  1  0
  2 18  1  0
 18 19  2  0
 19 20  1  0
 20 21  2  0
 21 22  1  0
 22 23  2  0
 23 24  1  0
 23 25  1  0
 25 26  2  0
 26 27  1  0
 27 28  2  0
 12  7  1  0
 17 13  1  0
 28 18  1  0
 27 21  1  0
  3 29  1  0
  4 30  1  0
  4 31  1  0
  8 32  1  0
  8 33  1  0
  9 34  1  0
  9 35  1  0
 10 36  1  0
 10 37  1  0
 11 38  1  0
 11 39  1  0
 12 40  1  6
 16 41  1  0
 17 42  1  0
 19 43  1  0
 20 44  1  0
 22 45  1  0
 25 46  1  0
 26 47  1  0
M  END
>  <smiles>  (3) 
O=C(NCC(=O)N1CCCC[C@H]1c1nnc[nH]1)c1ccc2cc(F)ccc2n1

>  <score_type>  (3) 
oracle

>  <origin>  (3) 
autodockgpu

>  <m_score__min__energy>  (3) 
-8.2599999999999998

>  <m_primary>  (3) 
energy

>  <rmsd>  (3) 
2.7639715723160734

>  <m_score__min__rmsd>  (3) 
2.7639715723160734

>  <meeko>  (3) 
{"free_energy": -7.93, "intermolecular_energy": -9.42, "internal_energy": -1.55, "cluster_size": 7, "cluster_id": 2, "rank_in_cluster": 3}

>  <energy>  (3) 
-8.03

>  <cluster_rmsd>  (3) 
1.12

>  <cluster>  (3) 
1

$$$$

     RDKit          3D

 47 50  0  0  0  0  0  0  0  0999 V2000
  141.4270   71.8680  221.3990 O   0  0  0  0  0  0  0  0  0  0  0  0
  140.5900   72.2830  222.2530 C   0  0  0  0  0  0  0  0  0  0  0  0
  139.9000   73.5180  222.0560 N   0  0  0  0  0  0  0  0  0  0  0  0
  140.1990   74.2660  220.8460 C   0  0  0  0  0  0  0  0  0  0  0  0
  141.3220   75.2030  221.0640 C   0  0  0  0  0  0  0  0  0  0  0  0
  141.4330   75.8270  222.1500 O   0  0  0  0  0  0  0  0  0  0  0  0
  142.2640   75.3770  220.0150 N   0  0  0  0  0  0  0  0  0  0  0  0
  142.8770   76.6570  219.7140 C   0  0  0  0  0  0  0  0  0  0  0  0
  142.4960   76.9900  218.2990 C   0  0  0  0  0  0  0  0  0  0  0  0
  142.8920   75.9310  217.3100 C   0  0  0  0  0  0  0  0  0  0  0  0
  142.5420   74.5470  217.7310 C   0  0  0  0  0  0  0  0  0  0  0  0
  142.6610   74.2510  219.1820 C   0  0  1  0  0  0  0  0  0  0  0  0
  144.0300   73.8590  219.5970 C   0  0  0  0  0  0  0  0  0  0  0  0
  144.8820   73.2290  218.7510 N   0  0  0  0  0  0  0  0  0  0  0  0
  146.0090   73.0270  219.4380 N   0  0  0  0  0  0  0  0  0  0  0  0
  145.8660   73.5160  220.6750 C   0  0  0  0  0  0  0  0  0  0  0  0
  144.6350   74.0410  220.7940 N   0  0  0  0  0  0  0  0  0  0  0  0
  140.3120   71.5030  223.4620 C   0  0  0  0  0  0  0  0  0  0  0  0
  139.6130   70.3170  223.3490 C   0  0  0  0  0  0  0  0  0  0  0  0
  139.3130   69.5250  224.4540 C   0  0  0  0  0  0  0  0  0  0  0  0
  139.7580   70.0000  225.6710 C   0  0  0  0  0  0  0  0  0  0  0  0
  139.5110   69.2870  226.8290 C   0  0  0  0  0  0  0  0  0  0  0  0
  139.9320   69.7110  228.0730 C   0  0  0  0  0  0  0  0  0  0  0  0
  139.6480   68.9540  229.1480 F   0  0  0  0  0  0  0  0  0  0  0  0
  140.6390   70.9100  228.1990 C   0  0  0  0  0  0  0  0  0  0  0  0
  140.8790   71.6100  227.0360 C   0  0  0  0  0  0  0  0  0  0  0  0
  140.4570   71.1830  225.7960 C   0  0  0  0  0  0  0  0  0  0  0  0
  140.7140   71.9010  224.6840 N   0  0  0  0  0  0  0  0  0  0  0  0
  139.2070   73.8500  222.7740 H   0  0  0  0  0  0  0  0  0  0  0  0
  140.4690   73.5615  220.0455 H   0  0  0  0  0  0  0  0  0  0  0  0
  139.3083   74.8471  220.5650 H   0  0  0  0  0  0  0  0  0  0  0  0
  142.5007   77.4295  220.4008 H   0  0  0  0  0  0  0  0  0  0  0  0
  143.9698   76.6124  219.8319 H   0  0  0  0  0  0  0  0  0  0  0  0
  141.4046   77.1196  218.2530 H   0  0  0  0  0  0  0  0  0  0  0  0
  143.0355   77.9086  218.0249 H   0  0  0  0  0  0  0  0  0  0  0  0
  142.3847   76.1411  216.3568 H   0  0  0  0  0  0  0  0  0  0  0  0
  143.9880   75.9697  217.2247 H   0  0  0  0  0  0  0  0  0  0  0  0
  141.4991   74.3602  217.4352 H   0  0  0  0  0  0  0  0  0  0  0  0
  143.2776   73.8951  217.2371 H   0  0  0  0  0  0  0  0  0  0  0  0
  141.9777   73.4020  219.3314 H   0  0  0  0  0  0  0  0  0  0  0  0
  146.6309   73.4922  221.4652 H   0  0  0  0  0  0  0  0  0  0  0  0
  144.2170   74.4960  221.6260 H   0  0  0  0  0  0  0  0  0  0  0  0
  139.2824   69.9874  222.3530 H   0  0  0  0  0  0  0  0  0  0  0  0
  138.7566   68.5805  224.3628 H   0  0  0  0  0  0  0  0  0  0  0  0
  138.9549   68.3408  226.7559 H   0  0  0  0  0  0  0  0  0  0  0  0
  140.9862   71.2764  229.1764 H   0  0  0  0  0  0  0  0  0  0  0  0
  141.4352   72.5568  227.1013 H   0  0  0  0  0  0  0  0  0  0  0  0
  1  2  2  0
  2  3  1  0
  3  4  1  0
  4  5  1  0
  5  6  2  0
  5  7  1  0
  7  8  1  0
  8  9  1  0
  9 10  1  0
 10 11  1  0
 11 12  1  0
 12 13  1  0
 13 14  2  0
 14 15  1  0
 15 16  2  0
 16 17  1  0
  2 18  1  0
 18 19  2  0
 19 20  1  0
 20 21  2  0
 21 22  1  0
 22 23  2  0
 23 24  1  0
 23 25  1  0
 25 26  2  0
 26 27  1  0
 27 28  2  0
 12  7  1  0
 17 13  1  0
 28 18  1  0
 27 21  1  0
  3 29  1  0
  4 30  1  0
  4 31  1  0
  8 32  1  0
  8 33  1  0
  9 34  1  0
  9 35  1  0
 10 36  1  0
 10 37  1  0
 11 38  1  0
 11 39  1  0
 12 40  1  1
 16 41  1  0
 17 42  1  0
 19 43  1  0
 20 44  1  0
 22 45  1  0
 25 46  1  0
 26 47  1  0
M  END
>  <smiles>  (4) 
O=C(NCC(=O)N1CCCC[C@H]1c1nnc[nH]1)c1ccc2cc(F)ccc2n1

>  <score_type>  (4) 
oracle

>  <origin>  (4) 
autodockgpu

>  <m_score__min__energy>  (4) 
-8.2599999999999998

>  <m_primary>  (4) 
energy

>  <rmsd>  (4) 
3.12522548706869

>  <m_score__min__rmsd>  (4) 
3.12522548706869

>  <meeko>  (4) 
{"free_energy": -8.03, "intermolecular_energy": -9.52, "internal_energy": -1.66, "cluster_size": 14, "cluster_id": 1, "rank_in_cluster": 3}

>  <energy>  (4) 
-8.02

>  <cluster_rmsd>  (4) 
1.11

>  <cluster>  (4) 
1

$$$$

     RDKit          3D

 47 50  0  0  0  0  0  0  0  0999 V2000
  140.3580   74.4710  222.3430 O   0  0  0  0  0  0  0  0  0  0  0  0
  140.6550   75.1960  221.3500 C   0  0  0  0  0  0  0  0  0  0  0  0
  140.8360   74.6180  220.0550 N   0  0  0  0  0  0  0  0  0  0  0  0
  140.6660   73.1800  219.9340 C   0  0  0  0  0  0  0  0  0  0  0  0
  141.9200   72.4660  220.2580 C   0  0  0  0  0  0  0  0  0  0  0  0
  141.8930   71.3950  220.9160 O   0  0  0  0  0  0  0  0  0  0  0  0
  143.1450   73.0230  219.8060 N   0  0  0  0  0  0  0  0  0  0  0  0
  143.9290   72.4340  218.7370 C   0  0  0  0  0  0  0  0  0  0  0  0
  145.2680   72.0920  219.3270 C   0  0  0  0  0  0  0  0  0  0  0  0
  145.9620   73.2690  219.9510 C   0  0  0  0  0  0  0  0  0  0  0  0
  145.0910   74.0890  220.8360 C   0  0  0  0  0  0  0  0  0  0  0  0
  143.6750   74.2360  220.4110 C   0  0  1  0  0  0  0  0  0  0  0  0
  143.4580   75.3400  219.4450 C   0  0  0  0  0  0  0  0  0  0  0  0
  142.9740   75.1160  218.1980 N   0  0  0  0  0  0  0  0  0  0  0  0
  142.9040   76.3090  217.6040 N   0  0  0  0  0  0  0  0  0  0  0  0
  143.3300   77.2510  218.4530 C   0  0  0  0  0  0  0  0  0  0  0  0
  143.6810   76.6650  219.6100 N   0  0  0  0  0  0  0  0  0  0  0  0
  140.8200   76.6430  221.5070 C   0  0  0  0  0  0  0  0  0  0  0  0
  140.8070   77.1850  222.7770 C   0  0  0  0  0  0  0  0  0  0  0  0
  140.9580   78.5510  223.0020 C   0  0  0  0  0  0  0  0  0  0  0  0
  141.1210   79.3300  221.8740 C   0  0  0  0  0  0  0  0  0  0  0  0
  141.2800   80.6990  221.9900 C   0  0  0  0  0  0  0  0  0  0  0  0
  141.4470   81.5280  220.9000 C   0  0  0  0  0  0  0  0  0  0  0  0
  141.5940   82.8490  221.1050 F   0  0  0  0  0  0  0  0  0  0  0  0
  141.4610   80.9890  219.6100 C   0  0  0  0  0  0  0  0  0  0  0  0
  141.3030   79.6230  219.5100 C   0  0  0  0  0  0  0  0  0  0  0  0
  141.1360   78.8000  220.6010 C   0  0  0  0  0  0  0  0  0  0  0  0
  140.9850   77.4680  220.4550 N   0  0  0  0  0  0  0  0  0  0  0  0
  141.0840   75.2340  219.2390 H   0  0  0  0  0  0  0  0  0  0  0  0
  139.8768   72.8521  220.6266 H   0  0  0  0  0  0  0  0  0  0  0  0
  140.3901   72.9472  218.8949 H   0  0  0  0  0  0  0  0  0  0  0  0
  143.4363   71.5252  218.3610 H   0  0  0  0  0  0  0  0  0  0  0  0
  144.0334   73.1295  217.8912 H   0  0  0  0  0  0  0  0  0  0  0  0
  145.1226   71.3228  220.0998 H   0  0  0  0  0  0  0  0  0  0  0  0
  145.9054   71.7378  218.5034 H   0  0  0  0  0  0  0  0  0  0  0  0
  146.8068   72.8951  220.5481 H   0  0  0  0  0  0  0  0  0  0  0  0
  146.2811   73.9229  219.1260 H   0  0  0  0  0  0  0  0  0  0  0  0
  145.0954   73.6255  221.8336 H   0  0  0  0  0  0  0  0  0  0  0  0
  145.5138   75.1040  220.8057 H   0  0  0  0  0  0  0  0  0  0  0  0
  143.1442   74.4614  221.3477 H   0  0  0  0  0  0  0  0  0  0  0  0
  143.3841   78.3286  218.2390 H   0  0  0  0  0  0  0  0  0  0  0  0
  144.0490   77.1190  220.4650 H   0  0  0  0  0  0  0  0  0  0  0  0
  140.6729   76.5156  223.6395 H   0  0  0  0  0  0  0  0  0  0  0  0
  140.9480   78.9818  224.0141 H   0  0  0  0  0  0  0  0  0  0  0  0
  141.2730   81.1462  222.9950 H   0  0  0  0  0  0  0  0  0  0  0  0
  141.5914   81.6225  218.7202 H   0  0  0  0  0  0  0  0  0  0  0  0
  141.3107   79.1680  218.5085 H   0  0  0  0  0  0  0  0  0  0  0  0
  1  2  2  0
  2  3  1  0
  3  4  1  0
  4  5  1  0
  5  6  2  0
  5  7  1  0
  7  8  1  0
  8  9  1  0
  9 10  1  0
 10 11  1  0
 11 12  1  0
 12 13  1  0
 13 14  2  0
 14 15  1  0
 15 16  2  0
 16 17  1  0
  2 18  1  0
 18 19  2  0
 19 20  1  0
 20 21  2  0
 21 22  1  0
 22 23  2  0
 23 24  1  0
 23 25  1  0
 25 26  2  0
 26 27  1  0
 27 28  2  0
 12  7  1  0
 17 13  1  0
 28 18  1  0
 27 21  1  0
  3 29  1  0
  4 30  1  0
  4 31  1  0
  8 32  1  0
  8 33  1  0
  9 34  1  0
  9 35  1  0
 10 36  1  0
 10 37  1  0
 11 38  1  0
 11 39  1  0
 12 40  1  1
 16 41  1  0
 17 42  1  0
 19 43  1  0
 20 44  1  0
 22 45  1  0
 25 46  1  0
 26 47  1  0
M  END
>  <smiles>  (5) 
O=C(NCC(=O)N1CCCC[C@H]1c1nnc[nH]1)c1ccc2cc(F)ccc2n1

>  <score_type>  (5) 
oracle

>  <origin>  (5) 
autodockgpu

>  <m_score__min__energy>  (5) 
-8.2599999999999998

>  <m_primary>  (5) 
energy

>  <rmsd>  (5) 
8.07082867489935

>  <m_score__min__rmsd>  (5) 
8.07082867489935

>  <meeko>  (5) 
{"free_energy": -6.36, "intermolecular_energy": -7.85, "internal_energy": -3.02, "cluster_size": 4, "cluster_id": 7, "rank_in_cluster": 4}

>  <energy>  (5) 
-7.95

>  <cluster_rmsd>  (5) 
1.11

>  <cluster>  (5) 
1

$$$$

     RDKit          3D

 47 50  0  0  0  0  0  0  0  0999 V2000
  139.4010   73.5560  222.6760 O   0  0  0  0  0  0  0  0  0  0  0  0
  140.0870   72.4950  222.6140 C   0  0  0  0  0  0  0  0  0  0  0  0
  140.8590   72.1950  221.4500 N   0  0  0  0  0  0  0  0  0  0  0  0
  140.8220   73.1510  220.3560 C   0  0  0  0  0  0  0  0  0  0  0  0
  141.5690   74.3810  220.6980 C   0  0  0  0  0  0  0  0  0  0  0  0
  141.2760   75.0420  221.7270 O   0  0  0  0  0  0  0  0  0  0  0  0
  142.6200   74.7890  219.8340 N   0  0  0  0  0  0  0  0  0  0  0  0
  143.0650   76.1670  219.7350 C   0  0  0  0  0  0  0  0  0  0  0  0
  142.8550   76.5810  218.3060 C   0  0  0  0  0  0  0  0  0  0  0  0
  143.5550   75.6920  217.3190 C   0  0  0  0  0  0  0  0  0  0  0  0
  143.3650   74.2370  217.5710 C   0  0  0  0  0  0  0  0  0  0  0  0
  143.3080   73.8190  218.9940 C   0  0  1  0  0  0  0  0  0  0  0  0
  144.6430   73.5850  219.5980 C   0  0  0  0  0  0  0  0  0  0  0  0
  145.6560   73.0190  218.8980 N   0  0  0  0  0  0  0  0  0  0  0  0
  146.6980   72.9590  219.7300 N   0  0  0  0  0  0  0  0  0  0  0  0
  146.3460   73.4710  220.9150 C   0  0  0  0  0  0  0  0  0  0  0  0
  145.0650   73.8690  220.8520 N   0  0  0  0  0  0  0  0  0  0  0  0
  140.1020   71.5520  223.7350 C   0  0  0  0  0  0  0  0  0  0  0  0
  139.6200   70.2720  223.5410 C   0  0  0  0  0  0  0  0  0  0  0  0
  139.6040   69.3240  224.5600 C   0  0  0  0  0  0  0  0  0  0  0  0
  140.1010   69.7430  225.7780 C   0  0  0  0  0  0  0  0  0  0  0  0
  140.1290   68.8760  226.8540 C   0  0  0  0  0  0  0  0  0  0  0  0
  140.6130   69.2380  228.0940 C   0  0  0  0  0  0  0  0  0  0  0  0
  140.6020   68.3300  229.0870 F   0  0  0  0  0  0  0  0  0  0  0  0
  141.1020   70.5310  228.3010 C   0  0  0  0  0  0  0  0  0  0  0  0
  141.0690   71.3850  227.2200 C   0  0  0  0  0  0  0  0  0  0  0  0
  140.5840   71.0190  225.9830 C   0  0  0  0  0  0  0  0  0  0  0  0
  140.5710   71.8870  224.9520 N   0  0  0  0  0  0  0  0  0  0  0  0
  141.4240   71.3080  221.4120 H   0  0  0  0  0  0  0  0  0  0  0  0
  141.2733   72.6931  219.4634 H   0  0  0  0  0  0  0  0  0  0  0  0
  139.7732   73.4213  220.1637 H   0  0  0  0  0  0  0  0  0  0  0  0
  142.4737   76.8066  220.4068 H   0  0  0  0  0  0  0  0  0  0  0  0
  144.1209   76.2662  220.0270 H   0  0  0  0  0  0  0  0  0  0  0  0
  141.7764   76.5589  218.0914 H   0  0  0  0  0  0  0  0  0  0  0  0
  143.2805   77.5892  218.1939 H   0  0  0  0  0  0  0  0  0  0  0  0
  143.1710   75.9217  216.3141 H   0  0  0  0  0  0  0  0  0  0  0  0
  144.6318   75.8935  217.4183 H   0  0  0  0  0  0  0  0  0  0  0  0
  142.4207   73.9347  217.0946 H   0  0  0  0  0  0  0  0  0  0  0  0
  144.2590   73.7479  217.1568 H   0  0  0  0  0  0  0  0  0  0  0  0
  142.7498   72.8716  218.9638 H   0  0  0  0  0  0  0  0  0  0  0  0
  146.9990   73.5526  221.7964 H   0  0  0  0  0  0  0  0  0  0  0  0
  144.4990   74.3050  221.6020 H   0  0  0  0  0  0  0  0  0  0  0  0
  139.2362   69.9928  222.5486 H   0  0  0  0  0  0  0  0  0  0  0  0
  139.2196   68.3051  224.4047 H   0  0  0  0  0  0  0  0  0  0  0  0
  139.7489   67.8531  226.7156 H   0  0  0  0  0  0  0  0  0  0  0  0
  141.4936   70.8508  229.2779 H   0  0  0  0  0  0  0  0  0  0  0  0
  141.4484   72.4092  227.3509 H   0  0  0  0  0  0  0  0  0  0  0  0
  1  2  2  0
  2  3  1  0
  3  4  1  0
  4  5  1  0
  5  6  2  0
  5  7  1  0
  7  8  1  0
  8  9  1  0
  9 10  1  0
 10 11  1  0
 11 12  1  0
 12 13  1  0
 13 14  2  0
 14 15  1  0
 15 16  2  0
 16 17  1  0
  2 18  1  0
 18 19  2  0
 19 20  1  0
 20 21  2  0
 21 22  1  0
 22 23  2  0
 23 24  1  0
 23 25  1  0
 25 26  2  0
 26 27  1  0
 27 28  2  0
 12  7  1  0
 17 13  1  0
 28 18  1  0
 27 21  1  0
  3 29  1  0
  4 30  1  0
  4 31  1  0
  8 32  1  0
  8 33  1  0
  9 34  1  0
  9 35  1  0
 10 36  1  0
 10 37  1  0
 11 38  1  0
 11 39  1  0
 12 40  1  6
 16 41  1  0
 17 42  1  0
 19 43  1  0
 20 44  1  0
 22 45  1  0
 25 46  1  0
 26 47  1  0
M  END
>  <smiles>  (6) 
O=C(NCC(=O)N1CCCC[C@H]1c1nnc[nH]1)c1ccc2cc(F)ccc2n1

>  <score_type>  (6) 
oracle

>  <origin>  (6) 
autodockgpu

>  <m_score__min__energy>  (6) 
-8.2599999999999998

>  <m_primary>  (6) 
energy

>  <rmsd>  (6) 
3.405185233474406

>  <m_score__min__rmsd>  (6) 
3.405185233474406

>  <meeko>  (6) 
{"free_energy": -8.26, "intermolecular_energy": -9.75, "internal_energy": -1.27, "cluster_size": 14, "cluster_id": 1, "rank_in_cluster": 1}

>  <energy>  (6) 
-7.82

>  <cluster_rmsd>  (6) 
1.42

>  <cluster>  (6) 
1

$$$$

     RDKit          3D

 47 50  0  0  0  0  0  0  0  0999 V2000
  139.1010   74.4990  222.3460 O   0  0  0  0  0  0  0  0  0  0  0  0
  140.0470   74.9560  221.6410 C   0  0  0  0  0  0  0  0  0  0  0  0
  140.0240   76.3080  221.1780 N   0  0  0  0  0  0  0  0  0  0  0  0
  138.8790   77.1220  221.5490 C   0  0  0  0  0  0  0  0  0  0  0  0
  139.2910   78.2740  222.3810 C   0  0  0  0  0  0  0  0  0  0  0  0
  138.4830   78.8020  223.1860 O   0  0  0  0  0  0  0  0  0  0  0  0
  140.6180   78.7610  222.2400 N   0  0  0  0  0  0  0  0  0  0  0  0
  141.6720   78.4520  223.1880 C   0  0  0  0  0  0  0  0  0  0  0  0
  142.1410   79.7640  223.7490 C   0  0  0  0  0  0  0  0  0  0  0  0
  142.5970   80.7340  222.6960 C   0  0  0  0  0  0  0  0  0  0  0  0
  141.6680   80.8560  221.5400 C   0  0  0  0  0  0  0  0  0  0  0  0
  140.9800   79.6110  221.1150 C   0  0  1  0  0  0  0  0  0  0  0  0
  141.7790   78.7820  220.1790 C   0  0  0  0  0  0  0  0  0  0  0  0
  142.1980   77.5340  220.5060 N   0  0  0  0  0  0  0  0  0  0  0  0
  142.8790   77.0810  219.4520 N   0  0  0  0  0  0  0  0  0  0  0  0
  142.8860   78.0160  218.4950 C   0  0  0  0  0  0  0  0  0  0  0  0
  142.2030   79.0870  218.9310 N   0  0  0  0  0  0  0  0  0  0  0  0
  141.1870   74.1070  221.2850 C   0  0  0  0  0  0  0  0  0  0  0  0
  141.0100   72.7390  221.2210 C   0  0  0  0  0  0  0  0  0  0  0  0
  142.0470   71.8710  220.8890 C   0  0  0  0  0  0  0  0  0  0  0  0
  143.2660   72.4650  220.6290 C   0  0  0  0  0  0  0  0  0  0  0  0
  144.3600   71.6910  220.2900 C   0  0  0  0  0  0  0  0  0  0  0  0
  145.6010   72.2270  220.0190 C   0  0  0  0  0  0  0  0  0  0  0  0
  146.6110   71.3990  219.6970 F   0  0  0  0  0  0  0  0  0  0  0  0
  145.7920   73.6110  220.0820 C   0  0  0  0  0  0  0  0  0  0  0  0
  144.6930   74.3710  220.4200 C   0  0  0  0  0  0  0  0  0  0  0  0
  143.4550   73.8310  220.6910 C   0  0  0  0  0  0  0  0  0  0  0  0
  142.4060   74.6120  221.0180 N   0  0  0  0  0  0  0  0  0  0  0  0
  140.8180   76.6730  220.5920 H   0  0  0  0  0  0  0  0  0  0  0  0
  138.3921   77.4945  220.6357 H   0  0  0  0  0  0  0  0  0  0  0  0
  138.1834   76.5009  222.1325 H   0  0  0  0  0  0  0  0  0  0  0  0
  141.2827   77.8120  223.9935 H   0  0  0  0  0  0  0  0  0  0  0  0
  142.4968   77.9101  222.7022 H   0  0  0  0  0  0  0  0  0  0  0  0
  141.3111   80.2209  224.3081 H   0  0  0  0  0  0  0  0  0  0  0  0
  143.0078   79.5512  224.3919 H   0  0  0  0  0  0  0  0  0  0  0  0
  142.7016   81.7252  223.1613 H   0  0  0  0  0  0  0  0  0  0  0  0
  143.5480   80.3485  222.2997 H   0  0  0  0  0  0  0  0  0  0  0  0
  140.8950   81.5916  221.8074 H   0  0  0  0  0  0  0  0  0  0  0  0
  142.2979   81.1489  220.6871 H   0  0  0  0  0  0  0  0  0  0  0  0
  140.0777   79.9751  220.6020 H   0  0  0  0  0  0  0  0  0  0  0  0
  143.3715   77.9228  217.5123 H   0  0  0  0  0  0  0  0  0  0  0  0
  142.0270   79.9750  218.4270 H   0  0  0  0  0  0  0  0  0  0  0  0
  140.0163   72.3209  221.4396 H   0  0  0  0  0  0  0  0  0  0  0  0
  141.9041   70.7816  220.8372 H   0  0  0  0  0  0  0  0  0  0  0  0
  144.2349   70.5996  220.2340 H   0  0  0  0  0  0  0  0  0  0  0  0
  146.7696   74.0697  219.8725 H   0  0  0  0  0  0  0  0  0  0  0  0
  144.8103   75.4633  220.4762 H   0  0  0  0  0  0  0  0  0  0  0  0
  1  2  2  0
  2  3  1  0
  3  4  1  0
  4  5  1  0
  5  6  2  0
  5  7  1  0
  7  8  1  0
  8  9  1  0
  9 10  1  0
 10 11  1  0
 11 12  1  0
 12 13  1  0
 13 14  2  0
 14 15  1  0
 15 16  2  0
 16 17  1  0
  2 18  1  0
 18 19  2  0
 19 20  1  0
 20 21  2  0
 21 22  1  0
 22 23  2  0
 23 24  1  0
 23 25  1  0
 25 26  2  0
 26 27  1  0
 27 28  2  0
 12  7  1  0
 17 13  1  0
 28 18  1  0
 27 21  1  0
  3 29  1  0
  4 30  1  0
  4 31  1  0
  8 32  1  0
  8 33  1  0
  9 34  1  0
  9 35  1  0
 10 36  1  0
 10 37  1  0
 11 38  1  0
 11 39  1  0
 12 40  1  6
 16 41  1  0
 17 42  1  0
 19 43  1  0
 20 44  1  0
 22 45  1  0
 25 46  1  0
 26 47  1  0
M  END
>  <smiles>  (7) 
O=C(NCC(=O)N1CCCC[C@H]1c1nnc[nH]1)c1ccc2cc(F)ccc2n1

>  <score_type>  (7) 
oracle

>  <origin>  (7) 
autodockgpu

>  <m_score__min__energy>  (7) 
-8.2599999999999998

>  <m_primary>  (7) 
energy

>  <rmsd>  (7) 
6.196127783411373

>  <m_score__min__rmsd>  (7) 
6.196127783411373

>  <meeko>  (7) 
{"free_energy": -6.49, "intermolecular_energy": -7.98, "internal_energy": -2.98, "cluster_size": 17, "cluster_id": 6, "rank_in_cluster": 13}

>  <energy>  (7) 
-7.78

>  <cluster_rmsd>  (7) 
1.31

>  <cluster>  (7) 
1

$$$$

     RDKit          3D

 47 50  0  0  0  0  0  0  0  0999 V2000
  139.4340   74.9300  222.5690 O   0  0  0  0  0  0  0  0  0  0  0  0
  140.1220   75.1510  221.5300 C   0  0  0  0  0  0  0  0  0  0  0  0
  139.8110   76.2480  220.6690 N   0  0  0  0  0  0  0  0  0  0  0  0
  138.6830   77.0870  221.0360 C   0  0  0  0  0  0  0  0  0  0  0  0
  139.0880   78.1320  222.0020 C   0  0  0  0  0  0  0  0  0  0  0  0
  138.2420   78.6560  222.7700 O   0  0  0  0  0  0  0  0  0  0  0  0
  140.4530   78.5230  222.0330 N   0  0  0  0  0  0  0  0  0  0  0  0
  141.3880   78.0300  223.0270 C   0  0  0  0  0  0  0  0  0  0  0  0
  141.8930   79.2330  223.7720 C   0  0  0  0  0  0  0  0  0  0  0  0
  142.5160   80.2690  222.8790 C   0  0  0  0  0  0  0  0  0  0  0  0
  141.7120   80.5880  221.6680 C   0  0  0  0  0  0  0  0  0  0  0  0
  140.9810   79.4540  221.0470 C   0  0  1  0  0  0  0  0  0  0  0  0
  141.8030   78.6670  220.0960 C   0  0  0  0  0  0  0  0  0  0  0  0
  142.0750   79.1120  218.8450 N   0  0  0  0  0  0  0  0  0  0  0  0
  142.8270   78.1730  218.2690 N   0  0  0  0  0  0  0  0  0  0  0  0
  143.0200   77.1700  219.1330 C   0  0  0  0  0  0  0  0  0  0  0  0
  142.3880   77.4610  220.2820 N   0  0  0  0  0  0  0  0  0  0  0  0
  141.2530   74.2840  221.1890 C   0  0  0  0  0  0  0  0  0  0  0  0
  141.0440   72.9240  221.0700 C   0  0  0  0  0  0  0  0  0  0  0  0
  142.0710   72.0410  220.7490 C   0  0  0  0  0  0  0  0  0  0  0  0
  143.3140   72.6110  220.5570 C   0  0  0  0  0  0  0  0  0  0  0  0
  144.4000   71.8190  220.2340 C   0  0  0  0  0  0  0  0  0  0  0  0
  145.6650   72.3310  220.0300 C   0  0  0  0  0  0  0  0  0  0  0  0
  146.6650   71.4880  219.7190 F   0  0  0  0  0  0  0  0  0  0  0  0
  145.8880   73.7060  220.1490 C   0  0  0  0  0  0  0  0  0  0  0  0
  144.7960   74.4830  220.4700 C   0  0  0  0  0  0  0  0  0  0  0  0
  143.5350   73.9670  220.6740 C   0  0  0  0  0  0  0  0  0  0  0  0
  142.4940   74.7660  220.9870 N   0  0  0  0  0  0  0  0  0  0  0  0
  140.3920   76.4180  219.8090 H   0  0  0  0  0  0  0  0  0  0  0  0
  138.2846   77.5693  220.1311 H   0  0  0  0  0  0  0  0  0  0  0  0
  137.9160   76.4546  221.5068 H   0  0  0  0  0  0  0  0  0  0  0  0
  140.8799   77.3410  223.7178 H   0  0  0  0  0  0  0  0  0  0  0  0
  142.2148   77.4781  222.5560 H   0  0  0  0  0  0  0  0  0  0  0  0
  141.0478   79.6939  224.3041 H   0  0  0  0  0  0  0  0  0  0  0  0
  142.6766   78.8837  224.4605 H   0  0  0  0  0  0  0  0  0  0  0  0
  142.6466   81.1934  223.4607 H   0  0  0  0  0  0  0  0  0  0  0  0
  143.4706   79.8517  222.5259 H   0  0  0  0  0  0  0  0  0  0  0  0
  140.9711   81.3510  221.9488 H   0  0  0  0  0  0  0  0  0  0  0  0
  142.4390   80.9183  220.9114 H   0  0  0  0  0  0  0  0  0  0  0  0
  140.1602   79.9426  220.5014 H   0  0  0  0  0  0  0  0  0  0  0  0
  143.6008   76.2570  218.9350 H   0  0  0  0  0  0  0  0  0  0  0  0
  142.3460   76.8890  221.1450 H   0  0  0  0  0  0  0  0  0  0  0  0
  140.0321   72.5253  221.2344 H   0  0  0  0  0  0  0  0  0  0  0  0
  141.9031   70.9580  220.6543 H   0  0  0  0  0  0  0  0  0  0  0  0
  144.2492   70.7339  220.1353 H   0  0  0  0  0  0  0  0  0  0  0  0
  146.8845   74.1454  219.9943 H   0  0  0  0  0  0  0  0  0  0  0  0
  144.9383   75.5693  220.5682 H   0  0  0  0  0  0  0  0  0  0  0  0
  1  2  2  0
  2  3  1  0
  3  4  1  0
  4  5  1  0
  5  6  2  0
  5  7  1  0
  7  8  1  0
  8  9  1  0
  9 10  1  0
 10 11  1  0
 11 12  1  0
 12 13  1  0
 13 14  2  0
 14 15  1  0
 15 16  2  0
 16 17  1  0
  2 18  1  0
 18 19  2  0
 19 20  1  0
 20 21  2  0
 21 22  1  0
 22 23  2  0
 23 24  1  0
 23 25  1  0
 25 26  2  0
 26 27  1  0
 27 28  2  0
 12  7  1  0
 17 13  1  0
 28 18  1  0
 27 21  1  0
  3 29  1  0
  4 30  1  0
  4 31  1  0
  8 32  1  0
  8 33  1  0
  9 34  1  0
  9 35  1  0
 10 36  1  0
 10 37  1  0
 11 38  1  0
 11 39  1  0
 12 40  1  6
 16 41  1  0
 17 42  1  0
 19 43  1  0
 20 44  1  0
 22 45  1  0
 25 46  1  0
 26 47  1  0
M  END
>  <smiles>  (8) 
O=C(NCC(=O)N1CCCC[C@H]1c1nnc[nH]1)c1ccc2cc(F)ccc2n1

>  <score_type>  (8) 
oracle

>  <origin>  (8) 
autodockgpu

>  <m_score__min__energy>  (8) 
-8.2599999999999998

>  <m_primary>  (8) 
energy

>  <rmsd>  (8) 
6.135792028812838

>  <m_score__min__rmsd>  (8) 
6.135792028812838

>  <meeko>  (8) 
{"free_energy": -6.86, "intermolecular_energy": -8.36, "internal_energy": -2.83, "cluster_size": 17, "cluster_id": 6, "rank_in_cluster": 9}

>  <energy>  (8) 
-7.73

>  <cluster_rmsd>  (8) 
1.4

>  <cluster>  (8) 
1

$$$$

     RDKit          3D

 47 50  0  0  0  0  0  0  0  0999 V2000
  139.4120   75.1560  222.7060 O   0  0  0  0  0  0  0  0  0  0  0  0
  140.0530   75.3160  221.6280 C   0  0  0  0  0  0  0  0  0  0  0  0
  139.7330   76.3910  220.7420 N   0  0  0  0  0  0  0  0  0  0  0  0
  138.6510   77.2800  221.1330 C   0  0  0  0  0  0  0  0  0  0  0  0
  139.1010   78.2510  222.1530 C   0  0  0  0  0  0  0  0  0  0  0  0
  138.2980   78.6900  223.0150 O   0  0  0  0  0  0  0  0  0  0  0  0
  140.4580   78.6700  222.1280 N   0  0  0  0  0  0  0  0  0  0  0  0
  141.4300   78.2420  223.1170 C   0  0  0  0  0  0  0  0  0  0  0  0
  141.9300   79.4880  223.7910 C   0  0  0  0  0  0  0  0  0  0  0  0
  142.5050   80.4930  222.8350 C   0  0  0  0  0  0  0  0  0  0  0  0
  141.6620   80.7410  221.6340 C   0  0  0  0  0  0  0  0  0  0  0  0
  140.9380   79.5650  221.0860 C   0  0  1  0  0  0  0  0  0  0  0  0
  141.7510   78.7520  220.1490 C   0  0  0  0  0  0  0  0  0  0  0  0
  142.0380   79.1780  218.8940 N   0  0  0  0  0  0  0  0  0  0  0  0
  142.7760   78.2180  218.3330 N   0  0  0  0  0  0  0  0  0  0  0  0
  142.9440   77.2210  219.2090 C   0  0  0  0  0  0  0  0  0  0  0  0
  142.3110   77.5370  220.3510 N   0  0  0  0  0  0  0  0  0  0  0  0
  141.1390   74.4020  221.2650 C   0  0  0  0  0  0  0  0  0  0  0  0
  140.8690   73.0520  221.1500 C   0  0  0  0  0  0  0  0  0  0  0  0
  141.8500   72.1260  220.8090 C   0  0  0  0  0  0  0  0  0  0  0  0
  143.1130   72.6410  220.5920 C   0  0  0  0  0  0  0  0  0  0  0  0
  144.1570   71.8030  220.2470 C   0  0  0  0  0  0  0  0  0  0  0  0
  145.4380   72.2600  220.0180 C   0  0  0  0  0  0  0  0  0  0  0  0
  146.3950   71.3750  219.6880 F   0  0  0  0  0  0  0  0  0  0  0  0
  145.7230   73.6240  220.1320 C   0  0  0  0  0  0  0  0  0  0  0  0
  144.6720   74.4480  220.4750 C   0  0  0  0  0  0  0  0  0  0  0  0
  143.3940   73.9870  220.7040 C   0  0  0  0  0  0  0  0  0  0  0  0
  142.3960   74.8290  221.0370 N   0  0  0  0  0  0  0  0  0  0  0  0
  140.2750   76.5110  219.8490 H   0  0  0  0  0  0  0  0  0  0  0  0
  138.2983   77.8278  220.2467 H   0  0  0  0  0  0  0  0  0  0  0  0
  137.8393   76.6741  221.5620 H   0  0  0  0  0  0  0  0  0  0  0  0
  140.9554   77.5763  223.8529 H   0  0  0  0  0  0  0  0  0  0  0  0
  142.2548   77.6848  222.6488 H   0  0  0  0  0  0  0  0  0  0  0  0
  141.0904   79.9561  224.3258 H   0  0  0  0  0  0  0  0  0  0  0  0
  142.7400   79.1865  224.4715 H   0  0  0  0  0  0  0  0  0  0  0  0
  142.6322   81.4455  223.3703 H   0  0  0  0  0  0  0  0  0  0  0  0
  143.4575   80.0780  222.4737 H   0  0  0  0  0  0  0  0  0  0  0  0
  140.9133   81.5015  221.9008 H   0  0  0  0  0  0  0  0  0  0  0  0
  142.3608   81.0510  220.8431 H   0  0  0  0  0  0  0  0  0  0  0  0
  140.0919   80.0108  220.5425 H   0  0  0  0  0  0  0  0  0  0  0  0
  143.5078   76.2947  219.0245 H   0  0  0  0  0  0  0  0  0  0  0  0
  142.2530   76.9760  221.2200 H   0  0  0  0  0  0  0  0  0  0  0  0
  139.8442   72.6973  221.3342 H   0  0  0  0  0  0  0  0  0  0  0  0
  141.6333   71.0514  220.7180 H   0  0  0  0  0  0  0  0  0  0  0  0
  143.9575   70.7255  220.1510 H   0  0  0  0  0  0  0  0  0  0  0  0
  146.7343   74.0197  219.9570 H   0  0  0  0  0  0  0  0  0  0  0  0
  144.8634   75.5270  220.5706 H   0  0  0  0  0  0  0  0  0  0  0  0
  1  2  2  0
  2  3  1  0
  3  4  1  0
  4  5  1  0
  5  6  2  0
  5  7  1  0
  7  8  1  0
  8  9  1  0
  9 10  1  0
 10 11  1  0
 11 12  1  0
 12 13  1  0
 13 14  2  0
 14 15  1  0
 15 16  2  0
 16 17  1  0
  2 18  1  0
 18 19  2  0
 19 20  1  0
 20 21  2  0
 21 22  1  0
 22 23  2  0
 23 24  1  0
 23 25  1  0
 25 26  2  0
 26 27  1  0
 27 28  2  0
 12  7  1  0
 17 13  1  0
 28 18  1  0
 27 21  1  0
  3 29  1  0
  4 30  1  0
  4 31  1  0
  8 32  1  0
  8 33  1  0
  9 34  1  0
  9 35  1  0
 10 36  1  0
 10 37  1  0
 11 38  1  0
 11 39  1  0
 12 40  1  6
 16 41  1  0
 17 42  1  0
 19 43  1  0
 20 44  1  0
 22 45  1  0
 25 46  1  0
 26 47  1  0
M  END
>  <smiles>  (9) 
O=C(NCC(=O)N1CCCC[C@H]1c1nnc[nH]1)c1ccc2cc(F)ccc2n1

>  <score_type>  (9) 
oracle

>  <origin>  (9) 
autodockgpu

>  <m_score__min__energy>  (9) 
-8.2599999999999998

>  <m_primary>  (9) 
energy

>  <rmsd>  (9) 
6.1441494024567245

>  <m_score__min__rmsd>  (9) 
6.1441494024567245

>  <meeko>  (9) 
{"free_energy": -6.92, "intermolecular_energy": -8.41, "internal_energy": -2.81, "cluster_size": 17, "cluster_id": 6, "rank_in_cluster": 6}

>  <energy>  (9) 
-7.73

>  <cluster_rmsd>  (9) 
1.17

>  <cluster>  (9) 
1

$$$$

     RDKit          3D

 47 50  0  0  0  0  0  0  0  0999 V2000
  138.5050   72.7110  221.8450 O   0  0  0  0  0  0  0  0  0  0  0  0
  139.6160   72.4230  222.3770 C   0  0  0  0  0  0  0  0  0  0  0  0
  140.8340   72.9580  221.8560 N   0  0  0  0  0  0  0  0  0  0  0  0
  140.7390   73.8370  220.7030 C   0  0  0  0  0  0  0  0  0  0  0  0
  141.6460   74.9970  220.8410 C   0  0  0  0  0  0  0  0  0  0  0  0
  142.8940   74.8390  220.8260 O   0  0  0  0  0  0  0  0  0  0  0  0
  141.0690   76.2850  220.9930 N   0  0  0  0  0  0  0  0  0  0  0  0
  140.7860   77.1560  219.8670 C   0  0  0  0  0  0  0  0  0  0  0  0
  141.5880   78.4090  220.0850 C   0  0  0  0  0  0  0  0  0  0  0  0
  141.3030   79.0780  221.4000 C   0  0  0  0  0  0  0  0  0  0  0  0
  141.2860   78.1490  222.5620 C   0  0  0  0  0  0  0  0  0  0  0  0
  140.7290   76.7950  222.3130 C   0  0  1  0  0  0  0  0  0  0  0  0
  139.2520   76.7270  222.4430 C   0  0  0  0  0  0  0  0  0  0  0  0
  138.4770   77.8370  222.3800 N   0  0  0  0  0  0  0  0  0  0  0  0
  137.2170   77.4220  222.5310 N   0  0  0  0  0  0  0  0  0  0  0  0
  137.2060   76.0930  222.6850 C   0  0  0  0  0  0  0  0  0  0  0  0
  138.4690   75.6400  222.6320 N   0  0  0  0  0  0  0  0  0  0  0  0
  139.6750   71.5320  223.5400 C   0  0  0  0  0  0  0  0  0  0  0  0
  139.0860   70.2860  223.4610 C   0  0  0  0  0  0  0  0  0  0  0  0
  139.1030   69.3890  224.5250 C   0  0  0  0  0  0  0  0  0  0  0  0
  139.7470   69.8240  225.6660 C   0  0  0  0  0  0  0  0  0  0  0  0
  139.8200   69.0070  226.7790 C   0  0  0  0  0  0  0  0  0  0  0  0
  140.4500   69.3870  227.9460 C   0  0  0  0  0  0  0  0  0  0  0  0
  140.4730   68.5280  228.9810 F   0  0  0  0  0  0  0  0  0  0  0  0
  141.0490   70.6470  228.0370 C   0  0  0  0  0  0  0  0  0  0  0  0
  140.9690   71.4500  226.9200 C   0  0  0  0  0  0  0  0  0  0  0  0
  140.3390   71.0670  225.7570 C   0  0  0  0  0  0  0  0  0  0  0  0
  140.2850   71.8860  224.6870 N   0  0  0  0  0  0  0  0  0  0  0  0
  141.7500   72.7080  222.3090 H   0  0  0  0  0  0  0  0  0  0  0  0
  141.0116   73.2736  219.7984 H   0  0  0  0  0  0  0  0  0  0  0  0
  139.7060   74.2081  220.6311 H   0  0  0  0  0  0  0  0  0  0  0  0
  141.0865   76.6712  218.9265 H   0  0  0  0  0  0  0  0  0  0  0  0
  139.7111   77.3787  219.7964 H   0  0  0  0  0  0  0  0  0  0  0  0
  142.6564   78.1498  220.0499 H   0  0  0  0  0  0  0  0  0  0  0  0
  141.3061   79.1174  219.2921 H   0  0  0  0  0  0  0  0  0  0  0  0
  142.0785   79.8380  221.5764 H   0  0  0  0  0  0  0  0  0  0  0  0
  140.2944   79.5105  221.3243 H   0  0  0  0  0  0  0  0  0  0  0  0
  142.3228   78.0265  222.9085 H   0  0  0  0  0  0  0  0  0  0  0  0
  140.6131   78.6124  223.2985 H   0  0  0  0  0  0  0  0  0  0  0  0
  141.1929   76.1763  223.0953 H   0  0  0  0  0  0  0  0  0  0  0  0
  136.3092   75.4730  222.8311 H   0  0  0  0  0  0  0  0  0  0  0  0
  138.7960   74.6610  222.7170 H   0  0  0  0  0  0  0  0  0  0  0  0
  138.5866   69.9923  222.5259 H   0  0  0  0  0  0  0  0  0  0  0  0
  138.6331   68.3965  224.4609 H   0  0  0  0  0  0  0  0  0  0  0  0
  139.3557   68.0109  226.7320 H   0  0  0  0  0  0  0  0  0  0  0  0
  141.5581   70.9803  228.9534 H   0  0  0  0  0  0  0  0  0  0  0  0
  141.4317   72.4472  226.9594 H   0  0  0  0  0  0  0  0  0  0  0  0
  1  2  2  0
  2  3  1  0
  3  4  1  0
  4  5  1  0
  5  6  2  0
  5  7  1  0
  7  8  1  0
  8  9  1  0
  9 10  1  0
 10 11  1  0
 11 12  1  0
 12 13  1  0
 13 14  2  0
 14 15  1  0
 15 16  2  0
 16 17  1  0
  2 18  1  0
 18 19  2  0
 19 20  1  0
 20 21  2  0
 21 22  1  0
 22 23  2  0
 23 24  1  0
 23 25  1  0
 25 26  2  0
 26 27  1  0
 27 28  2  0
 12  7  1  0
 17 13  1  0
 28 18  1  0
 27 21  1  0
  3 29  1  0
  4 30  1  0
  4 31  1  0
  8 32  1  0
  8 33  1  0
  9 34  1  0
  9 35  1  0
 10 36  1  0
 10 37  1  0
 11 38  1  0
 11 39  1  0
 12 40  1  1
 16 41  1  0
 17 42  1  0
 19 43  1  0
 20 44  1  0
 22 45  1  0
 25 46  1  0
 26 47  1  0
M  END
>  <smiles>  (10) 
O=C(NCC(=O)N1CCCC[C@H]1c1nnc[nH]1)c1ccc2cc(F)ccc2n1

>  <score_type>  (10) 
oracle

>  <origin>  (10) 
autodockgpu

>  <m_score__min__energy>  (10) 
-8.2599999999999998

>  <m_primary>  (10) 
energy

>  <rmsd>  (10) 
2.9451607082848597

>  <m_score__min__rmsd>  (10) 
2.9451607082848597

>  <meeko>  (10) 
{"free_energy": -7.29, "intermolecular_energy": -8.78, "internal_energy": -2.34, "cluster_size": 7, "cluster_id": 2, "rank_in_cluster": 7}

>  <energy>  (10) 
-7.72

>  <cluster_rmsd>  (10) 
1.17

>  <cluster>  (10) 
1

$$$$

     RDKit          3D

 47 50  0  0  0  0  0  0  0  0999 V2000
  141.6120   72.0120  221.5940 O   0  0  0  0  0  0  0  0  0  0  0  0
  140.6570   72.3150  222.3660 C   0  0  0  0  0  0  0  0  0  0  0  0
  139.8250   73.4430  222.0860 N   0  0  0  0  0  0  0  0  0  0  0  0
  140.1230   74.2150  220.8910 C   0  0  0  0  0  0  0  0  0  0  0  0
  141.2940   75.0930  221.1030 C   0  0  0  0  0  0  0  0  0  0  0  0
  141.4330   75.7230  222.1820 O   0  0  0  0  0  0  0  0  0  0  0  0
  142.2470   75.2040  220.0560 N   0  0  0  0  0  0  0  0  0  0  0  0
  142.9770   76.4290  219.7850 C   0  0  0  0  0  0  0  0  0  0  0  0
  142.6280   76.8300  218.3800 C   0  0  0  0  0  0  0  0  0  0  0  0
  142.9230   75.7630  217.3640 C   0  0  0  0  0  0  0  0  0  0  0  0
  142.4460   74.4080  217.7520 C   0  0  0  0  0  0  0  0  0  0  0  0
  142.5370   74.0670  219.1950 C   0  0  1  0  0  0  0  0  0  0  0  0
  143.8640   73.5390  219.5970 C   0  0  0  0  0  0  0  0  0  0  0  0
  144.9300   73.5690  218.7600 N   0  0  0  0  0  0  0  0  0  0  0  0
  145.9470   73.0230  219.4310 N   0  0  0  0  0  0  0  0  0  0  0  0
  145.5290   72.6610  220.6490 C   0  0  0  0  0  0  0  0  0  0  0  0
  144.2280   72.9760  220.7720 N   0  0  0  0  0  0  0  0  0  0  0  0
  140.3840   71.5160  223.5630 C   0  0  0  0  0  0  0  0  0  0  0  0
  139.6670   70.3420  223.4360 C   0  0  0  0  0  0  0  0  0  0  0  0
  139.3710   69.5320  224.5290 C   0  0  0  0  0  0  0  0  0  0  0  0
  139.8380   69.9770  225.7500 C   0  0  0  0  0  0  0  0  0  0  0  0
  139.5970   69.2440  226.8970 C   0  0  0  0  0  0  0  0  0  0  0  0
  140.0390   69.6380  228.1430 C   0  0  0  0  0  0  0  0  0  0  0  0
  139.7590   68.8640  229.2060 F   0  0  0  0  0  0  0  0  0  0  0  0
  140.7640   70.8250  228.2830 C   0  0  0  0  0  0  0  0  0  0  0  0
  140.9980   71.5450  227.1310 C   0  0  0  0  0  0  0  0  0  0  0  0
  140.5540   71.1480  225.8880 C   0  0  0  0  0  0  0  0  0  0  0  0
  140.8060   71.8840  224.7870 N   0  0  0  0  0  0  0  0  0  0  0  0
  139.0340   73.6840  222.7380 H   0  0  0  0  0  0  0  0  0  0  0  0
  140.3368   73.5249  220.0615 H   0  0  0  0  0  0  0  0  0  0  0  0
  139.2522   74.8445  220.6554 H   0  0  0  0  0  0  0  0  0  0  0  0
  142.6745   77.2161  220.4914 H   0  0  0  0  0  0  0  0  0  0  0  0
  144.0609   76.2803  219.8992 H   0  0  0  0  0  0  0  0  0  0  0  0
  141.5534   77.0617  218.3403 H   0  0  0  0  0  0  0  0  0  0  0  0
  143.2508   77.7006  218.1267 H   0  0  0  0  0  0  0  0  0  0  0  0
  142.4369   76.0428  216.4177 H   0  0  0  0  0  0  0  0  0  0  0  0
  144.0178   75.7015  217.2764 H   0  0  0  0  0  0  0  0  0  0  0  0
  141.3903   74.3262  217.4541 H   0  0  0  0  0  0  0  0  0  0  0  0
  143.1178   73.7028  217.2408 H   0  0  0  0  0  0  0  0  0  0  0  0
  141.7774   73.2822  219.3254 H   0  0  0  0  0  0  0  0  0  0  0  0
  146.1482   72.1839  221.4229 H   0  0  0  0  0  0  0  0  0  0  0  0
  143.6140   72.8260  221.5930 H   0  0  0  0  0  0  0  0  0  0  0  0
  139.3184   70.0371  222.4383 H   0  0  0  0  0  0  0  0  0  0  0  0
  138.8012   68.5967  224.4264 H   0  0  0  0  0  0  0  0  0  0  0  0
  139.0283   68.3062  226.8125 H   0  0  0  0  0  0  0  0  0  0  0  0
  141.1292   71.1671  229.2626 H   0  0  0  0  0  0  0  0  0  0  0  0
  141.5674   72.4830  227.2075 H   0  0  0  0  0  0  0  0  0  0  0  0
  1  2  2  0
  2  3  1  0
  3  4  1  0
  4  5  1  0
  5  6  2  0
  5  7  1  0
  7  8  1  0
  8  9  1  0
  9 10  1  0
 10 11  1  0
 11 12  1  0
 12 13  1  0
 13 14  2  0
 14 15  1  0
 15 16  2  0
 16 17  1  0
  2 18  1  0
 18 19  2  0
 19 20  1  0
 20 21  2  0
 21 22  1  0
 22 23  2  0
 23 24  1  0
 23 25  1  0
 25 26  2  0
 26 27  1  0
 27 28  2  0
 12  7  1  0
 17 13  1  0
 28 18  1  0
 27 21  1  0
  3 29  1  0
  4 30  1  0
  4 31  1  0
  8 32  1  0
  8 33  1  0
  9 34  1  0
  9 35  1  0
 10 36  1  0
 10 37  1  0
 11 38  1  0
 11 39  1  0
 12 40  1  1
 16 41  1  0
 17 42  1  0
 19 43  1  0
 20 44  1  0
 22 45  1  0
 25 46  1  0
 26 47  1  0
M  END
>  <smiles>  (11) 
O=C(NCC(=O)N1CCCC[C@H]1c1nnc[nH]1)c1ccc2cc(F)ccc2n1

>  <score_type>  (11) 
oracle

>  <origin>  (11) 
autodockgpu

>  <m_score__min__energy>  (11) 
-8.2599999999999998

>  <m_primary>  (11) 
energy

>  <rmsd>  (11) 
3.2911255632250143

>  <m_score__min__rmsd>  (11) 
3.2911255632250143

>  <meeko>  (11) 
{"free_energy": -7.72, "intermolecular_energy": -9.21, "internal_energy": -2.26, "cluster_size": 14, "cluster_id": 1, "rank_in_cluster": 11}

>  <energy>  (11) 
-7.72

>  <cluster_rmsd>  (11) 
1.17

>  <cluster>  (11) 
1

$$$$

     RDKit          3D

 47 50  0  0  0  0  0  0  0  0999 V2000
  140.2800   74.2590  222.3040 O   0  0  0  0  0  0  0  0  0  0  0  0
  140.5880   74.9440  221.2860 C   0  0  0  0  0  0  0  0  0  0  0  0
  140.8050   74.3130  220.0220 N   0  0  0  0  0  0  0  0  0  0  0  0
  140.6570   72.8690  219.9610 C   0  0  0  0  0  0  0  0  0  0  0  0
  141.9240   72.1880  220.3090 C   0  0  0  0  0  0  0  0  0  0  0  0
  141.9160   71.1360  220.9970 O   0  0  0  0  0  0  0  0  0  0  0  0
  143.1400   72.7570  219.8460 N   0  0  0  0  0  0  0  0  0  0  0  0
  143.8950   72.2030  218.7380 C   0  0  0  0  0  0  0  0  0  0  0  0
  145.2460   71.8370  219.2830 C   0  0  0  0  0  0  0  0  0  0  0  0
  145.9600   72.9900  219.9290 C   0  0  0  0  0  0  0  0  0  0  0  0
  145.1140   73.7810  220.8640 C   0  0  0  0  0  0  0  0  0  0  0  0
  143.6900   73.9470  220.4800 C   0  0  1  0  0  0  0  0  0  0  0  0
  143.4520   75.0850  219.5570 C   0  0  0  0  0  0  0  0  0  0  0  0
  142.9030   74.9090  218.3310 N   0  0  0  0  0  0  0  0  0  0  0  0
  142.8330   76.1210  217.7760 N   0  0  0  0  0  0  0  0  0  0  0  0
  143.3250   77.0270  218.6290 C   0  0  0  0  0  0  0  0  0  0  0  0
  143.7170   76.3980  219.7500 N   0  0  0  0  0  0  0  0  0  0  0  0
  140.7290   76.3990  221.3830 C   0  0  0  0  0  0  0  0  0  0  0  0
  140.3670   77.1810  220.3040 C   0  0  0  0  0  0  0  0  0  0  0  0
  140.4740   78.5690  220.3240 C   0  0  0  0  0  0  0  0  0  0  0  0
  140.9660   79.1160  221.4930 C   0  0  0  0  0  0  0  0  0  0  0  0
  141.1100   80.4850  221.6140 C   0  0  0  0  0  0  0  0  0  0  0  0
  141.5960   81.0880  222.7560 C   0  0  0  0  0  0  0  0  0  0  0  0
  141.7030   82.4280  222.7870 F   0  0  0  0  0  0  0  0  0  0  0  0
  141.9660   80.3060  223.8530 C   0  0  0  0  0  0  0  0  0  0  0  0
  141.8170   78.9420  223.7190 C   0  0  0  0  0  0  0  0  0  0  0  0
  141.3320   78.3450  222.5760 C   0  0  0  0  0  0  0  0  0  0  0  0
  141.2020   77.0060  222.4890 N   0  0  0  0  0  0  0  0  0  0  0  0
  141.0620   74.8960  219.1840 H   0  0  0  0  0  0  0  0  0  0  0  0
  139.8755   72.5578  220.6698 H   0  0  0  0  0  0  0  0  0  0  0  0
  140.3810   72.5894  218.9336 H   0  0  0  0  0  0  0  0  0  0  0  0
  143.3897   71.3093  218.3430 H   0  0  0  0  0  0  0  0  0  0  0  0
  143.9812   72.9267  217.9141 H   0  0  0  0  0  0  0  0  0  0  0  0
  145.1162   71.0427  220.0329 H   0  0  0  0  0  0  0  0  0  0  0  0
  145.8616   71.5086  218.4326 H   0  0  0  0  0  0  0  0  0  0  0  0
  146.8186   72.5937  220.4910 H   0  0  0  0  0  0  0  0  0  0  0  0
  146.2606   73.6712  219.1193 H   0  0  0  0  0  0  0  0  0  0  0  0
  145.1411   73.2825  221.8442 H   0  0  0  0  0  0  0  0  0  0  0  0
  145.5398   74.7952  220.8591 H   0  0  0  0  0  0  0  0  0  0  0  0
  143.1846   74.1418  221.4374 H   0  0  0  0  0  0  0  0  0  0  0  0
  143.3968   78.1088  218.4432 H   0  0  0  0  0  0  0  0  0  0  0  0
  144.1380   76.8170  220.5980 H   0  0  0  0  0  0  0  0  0  0  0  0
  139.9811   76.6907  219.3981 H   0  0  0  0  0  0  0  0  0  0  0  0
  140.1851   79.1905  219.4636 H   0  0  0  0  0  0  0  0  0  0  0  0
  140.8249   81.1214  220.7633 H   0  0  0  0  0  0  0  0  0  0  0  0
  142.3567   80.7561  224.7775 H   0  0  0  0  0  0  0  0  0  0  0  0
  142.0991   78.2991  224.5658 H   0  0  0  0  0  0  0  0  0  0  0  0
  1  2  2  0
  2  3  1  0
  3  4  1  0
  4  5  1  0
  5  6  2  0
  5  7  1  0
  7  8  1  0
  8  9  1  0
  9 10  1  0
 10 11  1  0
 11 12  1  0
 12 13  1  0
 13 14  2  0
 14 15  1  0
 15 16  2  0
 16 17  1  0
  2 18  1  0
 18 19  2  0
 19 20  1  0
 20 21  2  0
 21 22  1  0
 22 23  2  0
 23 24  1  0
 23 25  1  0
 25 26  2  0
 26 27  1  0
 27 28  2  0
 12  7  1  0
 17 13  1  0
 28 18  1  0
 27 21  1  0
  3 29  1  0
  4 30  1  0
  4 31  1  0
  8 32  1  0
  8 33  1  0
  9 34  1  0
  9 35  1  0
 10 36  1  0
 10 37  1  0
 11 38  1  0
 11 39  1  0
 12 40  1  1
 16 41  1  0
 17 42  1  0
 19 43  1  0
 20 44  1  0
 22 45  1  0
 25 46  1  0
 26 47  1  0
M  END
>  <smiles>  (12) 
O=C(NCC(=O)N1CCCC[C@H]1c1nnc[nH]1)c1ccc2cc(F)ccc2n1

>  <score_type>  (12) 
oracle

>  <origin>  (12) 
autodockgpu

>  <m_score__min__energy>  (12) 
-8.2599999999999998

>  <m_primary>  (12) 
energy

>  <rmsd>  (12) 
7.611064612140752

>  <m_score__min__rmsd>  (12) 
7.611064612140752

>  <meeko>  (12) 
{"free_energy": -6.74, "intermolecular_energy": -8.23, "internal_energy": -2.81, "cluster_size": 4, "cluster_id": 7, "rank_in_cluster": 3}

>  <energy>  (12) 
-7.68

>  <cluster_rmsd>  (12) 
1.16

>  <cluster>  (12) 
1

$$$$

     RDKit          3D

 47 50  0  0  0  0  0  0  0  0999 V2000
  141.0980   72.2870  221.6090 O   0  0  0  0  0  0  0  0  0  0  0  0
  140.1850   72.4050  222.4760 C   0  0  0  0  0  0  0  0  0  0  0  0
  139.1820   73.4150  222.3460 N   0  0  0  0  0  0  0  0  0  0  0  0
  139.2590   74.2880  221.1860 C   0  0  0  0  0  0  0  0  0  0  0  0
  139.2130   75.7110  221.5870 C   0  0  0  0  0  0  0  0  0  0  0  0
  138.1340   76.2340  221.9670 O   0  0  0  0  0  0  0  0  0  0  0  0
  140.4160   76.4640  221.5280 N   0  0  0  0  0  0  0  0  0  0  0  0
  141.0310   77.0540  222.7020 C   0  0  0  0  0  0  0  0  0  0  0  0
  141.0750   78.5360  222.4610 C   0  0  0  0  0  0  0  0  0  0  0  0
  141.7960   78.9140  221.1980 C   0  0  0  0  0  0  0  0  0  0  0  0
  141.4010   78.1090  220.0100 C   0  0  0  0  0  0  0  0  0  0  0  0
  141.0950   76.6780  220.2580 C   0  0  1  0  0  0  0  0  0  0  0  0
  142.2940   75.8040  220.2490 C   0  0  0  0  0  0  0  0  0  0  0  0
  143.4740   76.2130  219.7200 N   0  0  0  0  0  0  0  0  0  0  0  0
  144.3250   75.1970  219.8770 N   0  0  0  0  0  0  0  0  0  0  0  0
  143.6970   74.1840  220.4840 C   0  0  0  0  0  0  0  0  0  0  0  0
  142.4260   74.5450  220.7250 N   0  0  0  0  0  0  0  0  0  0  0  0
  140.1360   71.5070  223.6330 C   0  0  0  0  0  0  0  0  0  0  0  0
  139.5740   70.2540  223.4870 C   0  0  0  0  0  0  0  0  0  0  0  0
  139.4950   69.3500  224.5420 C   0  0  0  0  0  0  0  0  0  0  0  0
  140.0130   69.7840  225.7460 C   0  0  0  0  0  0  0  0  0  0  0  0
  139.9830   68.9600  226.8560 C   0  0  0  0  0  0  0  0  0  0  0  0
  140.4850   69.3400  228.0830 C   0  0  0  0  0  0  0  0  0  0  0  0
  140.4140   68.4740  229.1100 F   0  0  0  0  0  0  0  0  0  0  0  0
  141.0550   70.6060  228.2420 C   0  0  0  0  0  0  0  0  0  0  0  0
  141.0800   71.4170  227.1270 C   0  0  0  0  0  0  0  0  0  0  0  0
  140.5760   71.0340  225.9040 C   0  0  0  0  0  0  0  0  0  0  0  0
  140.6220   71.8600  224.8390 N   0  0  0  0  0  0  0  0  0  0  0  0
  138.4290   73.5010  223.0750 H   0  0  0  0  0  0  0  0  0  0  0  0
  140.2018   74.0951  220.6531 H   0  0  0  0  0  0  0  0  0  0  0  0
  138.3974   74.0804  220.5345 H   0  0  0  0  0  0  0  0  0  0  0  0
  140.4315   76.8322  223.5972 H   0  0  0  0  0  0  0  0  0  0  0  0
  142.0396   76.6480  222.8693 H   0  0  0  0  0  0  0  0  0  0  0  0
  140.0424   78.9099  222.3983 H   0  0  0  0  0  0  0  0  0  0  0  0
  141.6295   78.9849  223.2983 H   0  0  0  0  0  0  0  0  0  0  0  0
  141.5862   79.9723  220.9837 H   0  0  0  0  0  0  0  0  0  0  0  0
  142.8647   78.7202  221.3721 H   0  0  0  0  0  0  0  0  0  0  0  0
  140.5040   78.5729  219.5739 H   0  0  0  0  0  0  0  0  0  0  0  0
  142.2801   78.1108  219.3488 H   0  0  0  0  0  0  0  0  0  0  0  0
  140.4378   76.4044  219.4194 H   0  0  0  0  0  0  0  0  0  0  0  0
  144.1475   73.2145  220.7432 H   0  0  0  0  0  0  0  0  0  0  0  0
  141.6840   73.9850  221.1820 H   0  0  0  0  0  0  0  0  0  0  0  0
  139.1757   69.9609  222.5044 H   0  0  0  0  0  0  0  0  0  0  0  0
  139.0478   68.3520  224.4241 H   0  0  0  0  0  0  0  0  0  0  0  0
  139.5396   67.9583  226.7561 H   0  0  0  0  0  0  0  0  0  0  0  0
  141.4631   70.9388  229.2078 H   0  0  0  0  0  0  0  0  0  0  0  0
  141.5243   72.4190  227.2190 H   0  0  0  0  0  0  0  0  0  0  0  0
  1  2  2  0
  2  3  1  0
  3  4  1  0
  4  5  1  0
  5  6  2  0
  5  7  1  0
  7  8  1  0
  8  9  1  0
  9 10  1  0
 10 11  1  0
 11 12  1  0
 12 13  1  0
 13 14  2  0
 14 15  1  0
 15 16  2  0
 16 17  1  0
  2 18  1  0
 18 19  2  0
 19 20  1  0
 20 21  2  0
 21 22  1  0
 22 23  2  0
 23 24  1  0
 23 25  1  0
 25 26  2  0
 26 27  1  0
 27 28  2  0
 12  7  1  0
 17 13  1  0
 28 18  1  0
 27 21  1  0
  3 29  1  0
  4 30  1  0
  4 31  1  0
  8 32  1  0
  8 33  1  0
  9 34  1  0
  9 35  1  0
 10 36  1  0
 10 37  1  0
 11 38  1  0
 11 39  1  0
 12 40  1  6
 16 41  1  0
 17 42  1  0
 19 43  1  0
 20 44  1  0
 22 45  1  0
 25 46  1  0
 26 47  1  0
M  END
>  <smiles>  (13) 
O=C(NCC(=O)N1CCCC[C@H]1c1nnc[nH]1)c1ccc2cc(F)ccc2n1

>  <score_type>  (13) 
oracle

>  <origin>  (13) 
autodockgpu

>  <m_score__min__energy>  (13) 
-8.2599999999999998

>  <m_primary>  (13) 
energy

>  <rmsd>  (13) 
3.0218249239267956

>  <m_score__min__rmsd>  (13) 
3.0218249239267956

>  <meeko>  (13) 
{"free_energy": -7.67, "intermolecular_energy": -9.16, "internal_energy": -2.22, "cluster_size": 6, "cluster_id": 3, "rank_in_cluster": 3}

>  <energy>  (13) 
-7.68

>  <cluster_rmsd>  (13) 
1.17

>  <cluster>  (13) 
1

$$$$

     RDKit          3D

 47 50  0  0  0  0  0  0  0  0999 V2000
  141.1310   72.0090  221.3380 O   0  0  0  0  0  0  0  0  0  0  0  0
  140.3900   72.3500  222.3050 C   0  0  0  0  0  0  0  0  0  0  0  0
  139.6660   73.5820  222.2690 N   0  0  0  0  0  0  0  0  0  0  0  0
  139.8180   74.4130  221.0860 C   0  0  0  0  0  0  0  0  0  0  0  0
  140.8510   75.4500  221.2940 C   0  0  0  0  0  0  0  0  0  0  0  0
  140.7770   76.2400  222.2690 O   0  0  0  0  0  0  0  0  0  0  0  0
  141.9210   75.5270  220.3630 N   0  0  0  0  0  0  0  0  0  0  0  0
  142.6340   76.7610  220.0860 C   0  0  0  0  0  0  0  0  0  0  0  0
  142.4460   77.0430  218.6230 C   0  0  0  0  0  0  0  0  0  0  0  0
  142.9010   75.9190  217.7350 C   0  0  0  0  0  0  0  0  0  0  0  0
  142.4290   74.5760  218.1680 C   0  0  0  0  0  0  0  0  0  0  0  0
  142.3550   74.3450  219.6330 C   0  0  1  0  0  0  0  0  0  0  0  0
  143.6410   73.9080  220.2300 C   0  0  0  0  0  0  0  0  0  0  0  0
  144.7460   74.6930  220.2040 N   0  0  0  0  0  0  0  0  0  0  0  0
  145.7080   74.0030  220.8200 N   0  0  0  0  0  0  0  0  0  0  0  0
  145.2200   72.8230  221.2180 C   0  0  0  0  0  0  0  0  0  0  0  0
  143.9280   72.7450  220.8580 N   0  0  0  0  0  0  0  0  0  0  0  0
  140.2590   71.4880  223.4830 C   0  0  0  0  0  0  0  0  0  0  0  0
  139.6660   70.2490  223.3440 C   0  0  0  0  0  0  0  0  0  0  0  0
  139.5080   69.3780  224.4180 C   0  0  0  0  0  0  0  0  0  0  0  0
  139.9830   69.8310  225.6330 C   0  0  0  0  0  0  0  0  0  0  0  0
  139.8740   69.0410  226.7620 C   0  0  0  0  0  0  0  0  0  0  0  0
  140.3290   69.4400  228.0010 C   0  0  0  0  0  0  0  0  0  0  0  0
  140.1820   68.6070  229.0470 F   0  0  0  0  0  0  0  0  0  0  0  0
  140.9310   70.6930  228.1530 C   0  0  0  0  0  0  0  0  0  0  0  0
  141.0330   71.4700  227.0190 C   0  0  0  0  0  0  0  0  0  0  0  0
  140.5770   71.0670  225.7840 C   0  0  0  0  0  0  0  0  0  0  0  0
  140.6980   71.8610  224.7000 N   0  0  0  0  0  0  0  0  0  0  0  0
  139.0540   73.8520  223.0810 H   0  0  0  0  0  0  0  0  0  0  0  0
  140.1114   73.7787  220.2365 H   0  0  0  0  0  0  0  0  0  0  0  0
  138.8585   74.9110  220.8829 H   0  0  0  0  0  0  0  0  0  0  0  0
  142.2190   77.5830  220.6878 H   0  0  0  0  0  0  0  0  0  0  0  0
  143.7005   76.6697  220.3396 H   0  0  0  0  0  0  0  0  0  0  0  0
  141.3769   77.2232  218.4372 H   0  0  0  0  0  0  0  0  0  0  0  0
  143.0640   77.9198  218.3793 H   0  0  0  0  0  0  0  0  0  0  0  0
  142.5242   76.1069  216.7188 H   0  0  0  0  0  0  0  0  0  0  0  0
  143.9998   75.9006  217.7829 H   0  0  0  0  0  0  0  0  0  0  0  0
  141.4212   74.4254  217.7537 H   0  0  0  0  0  0  0  0  0  0  0  0
  143.1834   73.8665  217.7971 H   0  0  0  0  0  0  0  0  0  0  0  0
  141.6138   73.5383  219.7320 H   0  0  0  0  0  0  0  0  0  0  0  0
  145.7839   72.0442  221.7524 H   0  0  0  0  0  0  0  0  0  0  0  0
  143.2710   71.9600  221.0210 H   0  0  0  0  0  0  0  0  0  0  0  0
  139.3065   69.9400  222.3514 H   0  0  0  0  0  0  0  0  0  0  0  0
  139.0348   68.3913  224.3061 H   0  0  0  0  0  0  0  0  0  0  0  0
  139.4038   68.0510  226.6680 H   0  0  0  0  0  0  0  0  0  0  0  0
  141.3041   71.0408  229.1276 H   0  0  0  0  0  0  0  0  0  0  0  0
  141.5020   72.4613  227.1050 H   0  0  0  0  0  0  0  0  0  0  0  0
  1  2  2  0
  2  3  1  0
  3  4  1  0
  4  5  1  0
  5  6  2  0
  5  7  1  0
  7  8  1  0
  8  9  1  0
  9 10  1  0
 10 11  1  0
 11 12  1  0
 12 13  1  0
 13 14  2  0
 14 15  1  0
 15 16  2  0
 16 17  1  0
  2 18  1  0
 18 19  2  0
 19 20  1  0
 20 21  2  0
 21 22  1  0
 22 23  2  0
 23 24  1  0
 23 25  1  0
 25 26  2  0
 26 27  1  0
 27 28  2  0
 12  7  1  0
 17 13  1  0
 28 18  1  0
 27 21  1  0
  3 29  1  0
  4 30  1  0
  4 31  1  0
  8 32  1  0
  8 33  1  0
  9 34  1  0
  9 35  1  0
 10 36  1  0
 10 37  1  0
 11 38  1  0
 11 39  1  0
 12 40  1  6
 16 41  1  0
 17 42  1  0
 19 43  1  0
 20 44  1  0
 22 45  1  0
 25 46  1  0
 26 47  1  0
M  END
>  <smiles>  (14) 
O=C(NCC(=O)N1CCCC[C@H]1c1nnc[nH]1)c1ccc2cc(F)ccc2n1

>  <score_type>  (14) 
oracle

>  <origin>  (14) 
autodockgpu

>  <m_score__min__energy>  (14) 
-8.2599999999999998

>  <m_primary>  (14) 
energy

>  <rmsd>  (14) 
3.191790292642553

>  <m_score__min__rmsd>  (14) 
3.191790292642553

>  <meeko>  (14) 
{"free_energy": -7.73, "intermolecular_energy": -9.22, "internal_energy": -2.24, "cluster_size": 14, "cluster_id": 1, "rank_in_cluster": 8}

>  <energy>  (14) 
-7.66

>  <cluster_rmsd>  (14) 
1.54

>  <cluster>  (14) 
1

$$$$

     RDKit          3D

 47 50  0  0  0  0  0  0  0  0999 V2000
  139.2160   75.1010  222.6950 O   0  0  0  0  0  0  0  0  0  0  0  0
  139.9470   75.3430  221.6910 C   0  0  0  0  0  0  0  0  0  0  0  0
  139.7230   76.5060  220.8900 N   0  0  0  0  0  0  0  0  0  0  0  0
  138.6330   77.3850  221.2780 C   0  0  0  0  0  0  0  0  0  0  0  0
  139.1050   78.4480  222.1920 C   0  0  0  0  0  0  0  0  0  0  0  0
  138.3040   79.0200  222.9740 O   0  0  0  0  0  0  0  0  0  0  0  0
  140.4800   78.8000  222.1580 N   0  0  0  0  0  0  0  0  0  0  0  0
  141.4450   78.2900  223.1150 C   0  0  0  0  0  0  0  0  0  0  0  0
  142.0160   79.4850  223.8230 C   0  0  0  0  0  0  0  0  0  0  0  0
  142.6270   80.4940  222.8910 C   0  0  0  0  0  0  0  0  0  0  0  0
  141.7780   80.8250  221.7140 C   0  0  0  0  0  0  0  0  0  0  0  0
  140.9880   79.7060  221.1390 C   0  0  1  0  0  0  0  0  0  0  0  0
  141.7450   78.8870  220.1610 C   0  0  0  0  0  0  0  0  0  0  0  0
  142.1190   77.6120  220.4310 N   0  0  0  0  0  0  0  0  0  0  0  0
  142.7710   77.1770  219.3520 N   0  0  0  0  0  0  0  0  0  0  0  0
  142.8060   78.1500  218.4340 C   0  0  0  0  0  0  0  0  0  0  0  0
  142.1690   79.2280  218.9220 N   0  0  0  0  0  0  0  0  0  0  0  0
  141.0380   74.4350  221.3280 C   0  0  0  0  0  0  0  0  0  0  0  0
  140.7850   73.0790  221.2500 C   0  0  0  0  0  0  0  0  0  0  0  0
  141.7720   72.1580  220.9110 C   0  0  0  0  0  0  0  0  0  0  0  0
  143.0230   72.6860  220.6580 C   0  0  0  0  0  0  0  0  0  0  0  0
  144.0720   71.8550  220.3130 C   0  0  0  0  0  0  0  0  0  0  0  0
  145.3420   72.3240  220.0480 C   0  0  0  0  0  0  0  0  0  0  0  0
  146.3050   71.4440  219.7200 F   0  0  0  0  0  0  0  0  0  0  0  0
  145.6100   73.6940  220.1250 C   0  0  0  0  0  0  0  0  0  0  0  0
  144.5540   74.5110  220.4690 C   0  0  0  0  0  0  0  0  0  0  0  0
  143.2880   74.0380  220.7330 C   0  0  0  0  0  0  0  0  0  0  0  0
  142.2840   74.8740  221.0660 N   0  0  0  0  0  0  0  0  0  0  0  0
  140.3390   76.6930  220.0580 H   0  0  0  0  0  0  0  0  0  0  0  0
  138.2078   77.8495  220.3761 H   0  0  0  0  0  0  0  0  0  0  0  0
  137.8718   76.7874  221.8010 H   0  0  0  0  0  0  0  0  0  0  0  0
  140.9495   77.6225  223.8353 H   0  0  0  0  0  0  0  0  0  0  0  0
  142.2340   77.7101  222.6137 H   0  0  0  0  0  0  0  0  0  0  0  0
  141.2087   79.9750  224.3871 H   0  0  0  0  0  0  0  0  0  0  0  0
  142.8195   79.1206  224.4799 H   0  0  0  0  0  0  0  0  0  0  0  0
  142.8105   81.4198  223.4561 H   0  0  0  0  0  0  0  0  0  0  0  0
  143.5519   80.0455  222.4994 H   0  0  0  0  0  0  0  0  0  0  0  0
  141.0723   81.6114  222.0199 H   0  0  0  0  0  0  0  0  0  0  0  0
  142.4786   81.1279  220.9219 H   0  0  0  0  0  0  0  0  0  0  0  0
  140.1568   80.2116  220.6256 H   0  0  0  0  0  0  0  0  0  0  0  0
  143.2784   78.0791  217.4431 H   0  0  0  0  0  0  0  0  0  0  0  0
  142.0230   80.1420  218.4570 H   0  0  0  0  0  0  0  0  0  0  0  0
  139.7691   72.7149  221.4630 H   0  0  0  0  0  0  0  0  0  0  0  0
  141.5688   71.0787  220.8486 H   0  0  0  0  0  0  0  0  0  0  0  0
  143.8862   70.7728  220.2469 H   0  0  0  0  0  0  0  0  0  0  0  0
  146.6121   74.0994  219.9215 H   0  0  0  0  0  0  0  0  0  0  0  0
  144.7316   75.5945  220.5359 H   0  0  0  0  0  0  0  0  0  0  0  0
  1  2  2  0
  2  3  1  0
  3  4  1  0
  4  5  1  0
  5  6  2  0
  5  7  1  0
  7  8  1  0
  8  9  1  0
  9 10  1  0
 10 11  1  0
 11 12  1  0
 12 13  1  0
 13 14  2  0
 14 15  1  0
 15 16  2  0
 16 17  1  0
  2 18  1  0
 18 19  2  0
 19 20  1  0
 20 21  2  0
 21 22  1  0
 22 23  2  0
 23 24  1  0
 23 25  1  0
 25 26  2  0
 26 27  1  0
 27 28  2  0
 12  7  1  0
 17 13  1  0
 28 18  1  0
 27 21  1  0
  3 29  1  0
  4 30  1  0
  4 31  1  0
  8 32  1  0
  8 33  1  0
  9 34  1  0
  9 35  1  0
 10 36  1  0
 10 37  1  0
 11 38  1  0
 11 39  1  0
 12 40  1  6
 16 41  1  0
 17 42  1  0
 19 43  1  0
 20 44  1  0
 22 45  1  0
 25 46  1  0
 26 47  1  0
M  END
>  <smiles>  (15) 
O=C(NCC(=O)N1CCCC[C@H]1c1nnc[nH]1)c1ccc2cc(F)ccc2n1

>  <score_type>  (15) 
oracle

>  <origin>  (15) 
autodockgpu

>  <m_score__min__energy>  (15) 
-8.2599999999999998

>  <m_primary>  (15) 
energy

>  <rmsd>  (15) 
6.202349406363778

>  <m_score__min__rmsd>  (15) 
6.202349406363778

>  <meeko>  (15) 
{"free_energy": -6.48, "intermolecular_energy": -7.97, "internal_energy": -2.9, "cluster_size": 17, "cluster_id": 6, "rank_in_cluster": 15}

>  <energy>  (15) 
-8.22

>  <cluster_rmsd>  (15) 
0.0

>  <cluster>  (15) 
2

$$$$

     RDKit          3D

 47 50  0  0  0  0  0  0  0  0999 V2000
  139.2860   75.1030  222.6820 O   0  0  0  0  0  0  0  0  0  0  0  0
  139.9910   75.3220  221.6550 C   0  0  0  0  0  0  0  0  0  0  0  0
  139.7410   76.4620  220.8290 N   0  0  0  0  0  0  0  0  0  0  0  0
  138.6550   77.3450  221.2200 C   0  0  0  0  0  0  0  0  0  0  0  0
  139.1330   78.4050  222.1340 C   0  0  0  0  0  0  0  0  0  0  0  0
  138.3310   78.9990  222.8980 O   0  0  0  0  0  0  0  0  0  0  0  0
  140.5150   78.7290  222.1200 N   0  0  0  0  0  0  0  0  0  0  0  0
  141.4500   78.2230  223.1080 C   0  0  0  0  0  0  0  0  0  0  0  0
  142.0310   79.4240  223.8000 C   0  0  0  0  0  0  0  0  0  0  0  0
  142.6800   80.3980  222.8590 C   0  0  0  0  0  0  0  0  0  0  0  0
  141.8620   80.7180  221.6570 C   0  0  0  0  0  0  0  0  0  0  0  0
  141.0620   79.6020  221.0910 C   0  0  1  0  0  0  0  0  0  0  0  0
  141.8220   78.7460  220.1480 C   0  0  0  0  0  0  0  0  0  0  0  0
  142.0860   79.1390  218.8780 N   0  0  0  0  0  0  0  0  0  0  0  0
  142.7770   78.1450  218.3150 N   0  0  0  0  0  0  0  0  0  0  0  0
  142.9390   77.1600  219.2060 C   0  0  0  0  0  0  0  0  0  0  0  0
  142.3490   77.5170  220.3590 N   0  0  0  0  0  0  0  0  0  0  0  0
  141.0790   74.4100  221.2900 C   0  0  0  0  0  0  0  0  0  0  0  0
  140.8140   73.0590  221.1860 C   0  0  0  0  0  0  0  0  0  0  0  0
  141.7980   72.1350  220.8430 C   0  0  0  0  0  0  0  0  0  0  0  0
  143.0560   72.6560  220.6140 C   0  0  0  0  0  0  0  0  0  0  0  0
  144.1020   71.8210  220.2680 C   0  0  0  0  0  0  0  0  0  0  0  0
  145.3800   72.2830  220.0270 C   0  0  0  0  0  0  0  0  0  0  0  0
  146.3380   71.4000  219.6960 F   0  0  0  0  0  0  0  0  0  0  0  0
  145.6580   73.6490  220.1310 C   0  0  0  0  0  0  0  0  0  0  0  0
  144.6060   74.4700  220.4760 C   0  0  0  0  0  0  0  0  0  0  0  0
  143.3320   74.0040  220.7160 C   0  0  0  0  0  0  0  0  0  0  0  0
  142.3310   74.8430  221.0510 N   0  0  0  0  0  0  0  0  0  0  0  0
  140.3350   76.6300  219.9780 H   0  0  0  0  0  0  0  0  0  0  0  0
  138.2299   77.8121  220.3194 H   0  0  0  0  0  0  0  0  0  0  0  0
  137.8924   76.7499  221.7438 H   0  0  0  0  0  0  0  0  0  0  0  0
  140.9268   77.5826  223.8334 H   0  0  0  0  0  0  0  0  0  0  0  0
  142.2370   77.6160  222.6367 H   0  0  0  0  0  0  0  0  0  0  0  0
  141.2225   79.9428  224.3360 H   0  0  0  0  0  0  0  0  0  0  0  0
  142.8140   79.0594  224.4812 H   0  0  0  0  0  0  0  0  0  0  0  0
  142.8702   81.3329  223.4064 H   0  0  0  0  0  0  0  0  0  0  0  0
  143.6035   79.9225  222.4971 H   0  0  0  0  0  0  0  0  0  0  0  0
  141.1660   81.5248  221.9300 H   0  0  0  0  0  0  0  0  0  0  0  0
  142.5847   80.9886  220.8732 H   0  0  0  0  0  0  0  0  0  0  0  0
  140.2520   80.1120  220.5490 H   0  0  0  0  0  0  0  0  0  0  0  0
  143.4685   76.2131  219.0242 H   0  0  0  0  0  0  0  0  0  0  0  0
  142.2980   76.9750  221.2400 H   0  0  0  0  0  0  0  0  0  0  0  0
  139.7923   72.7007  221.3804 H   0  0  0  0  0  0  0  0  0  0  0  0
  141.5865   71.0587  220.7598 H   0  0  0  0  0  0  0  0  0  0  0  0
  143.9073   70.7419  220.1810 H   0  0  0  0  0  0  0  0  0  0  0  0
  146.6661   74.0488  219.9467 H   0  0  0  0  0  0  0  0  0  0  0  0
  144.7929   75.5504  220.5640 H   0  0  0  0  0  0  0  0  0  0  0  0
  1  2  2  0
  2  3  1  0
  3  4  1  0
  4  5  1  0
  5  6  2  0
  5  7  1  0
  7  8  1  0
  8  9  1  0
  9 10  1  0
 10 11  1  0
 11 12  1  0
 12 13  1  0
 13 14  2  0
 14 15  1  0
 15 16  2  0
 16 17  1  0
  2 18  1  0
 18 19  2  0
 19 20  1  0
 20 21  2  0
 21 22  1  0
 22 23  2  0
 23 24  1  0
 23 25  1  0
 25 26  2  0
 26 27  1  0
 27 28  2  0
 12  7  1  0
 17 13  1  0
 28 18  1  0
 27 21  1  0
  3 29  1  0
  4 30  1  0
  4 31  1  0
  8 32  1  0
  8 33  1  0
  9 34  1  0
  9 35  1  0
 10 36  1  0
 10 37  1  0
 11 38  1  0
 11 39  1  0
 12 40  1  6
 16 41  1  0
 17 42  1  0
 19 43  1  0
 20 44  1  0
 22 45  1  0
 25 46  1  0
 26 47  1  0
M  END
>  <smiles>  (16) 
O=C(NCC(=O)N1CCCC[C@H]1c1nnc[nH]1)c1ccc2cc(F)ccc2n1

>  <score_type>  (16) 
oracle

>  <origin>  (16) 
autodockgpu

>  <m_score__min__energy>  (16) 
-8.2599999999999998

>  <m_primary>  (16) 
energy

>  <rmsd>  (16) 
6.142575190602035

>  <m_score__min__rmsd>  (16) 
6.142575190602035

>  <meeko>  (16) 
{"free_energy": -6.94, "intermolecular_energy": -8.43, "internal_energy": -2.8, "cluster_size": 17, "cluster_id": 6, "rank_in_cluster": 3}

>  <energy>  (16) 
-8.17

>  <cluster_rmsd>  (16) 
0.25

>  <cluster>  (16) 
2

$$$$

     RDKit          3D

 47 50  0  0  0  0  0  0  0  0999 V2000
  141.6580   71.9480  221.6370 O   0  0  0  0  0  0  0  0  0  0  0  0
  140.6910   72.2670  222.3880 C   0  0  0  0  0  0  0  0  0  0  0  0
  139.8650   73.3910  222.0750 N   0  0  0  0  0  0  0  0  0  0  0  0
  140.1830   74.1390  220.8700 C   0  0  0  0  0  0  0  0  0  0  0  0
  141.2930   75.0870  221.1090 C   0  0  0  0  0  0  0  0  0  0  0  0
  141.3570   75.7380  222.1840 O   0  0  0  0  0  0  0  0  0  0  0  0
  142.2750   75.2400  220.0950 N   0  0  0  0  0  0  0  0  0  0  0  0
  143.0320   76.4650  219.9140 C   0  0  0  0  0  0  0  0  0  0  0  0
  142.7270   76.9530  218.5260 C   0  0  0  0  0  0  0  0  0  0  0  0
  143.0290   75.9410  217.4580 C   0  0  0  0  0  0  0  0  0  0  0  0
  142.5190   74.5750  217.7540 C   0  0  0  0  0  0  0  0  0  0  0  0
  142.5670   74.1500  219.1760 C   0  0  1  0  0  0  0  0  0  0  0  0
  143.8740   73.5750  219.5800 C   0  0  0  0  0  0  0  0  0  0  0  0
  144.9380   73.5540  218.7390 N   0  0  0  0  0  0  0  0  0  0  0  0
  145.9340   72.9760  219.4120 N   0  0  0  0  0  0  0  0  0  0  0  0
  145.5070   72.6450  220.6360 C   0  0  0  0  0  0  0  0  0  0  0  0
  144.2210   73.0110  220.7600 N   0  0  0  0  0  0  0  0  0  0  0  0
  140.3990   71.4900  223.5950 C   0  0  0  0  0  0  0  0  0  0  0  0
  139.6730   70.3210  223.4810 C   0  0  0  0  0  0  0  0  0  0  0  0
  139.3580   69.5320  224.5840 C   0  0  0  0  0  0  0  0  0  0  0  0
  139.8170   69.9930  225.8020 C   0  0  0  0  0  0  0  0  0  0  0  0
  139.5580   69.2820  226.9580 C   0  0  0  0  0  0  0  0  0  0  0  0
  139.9910   69.6920  228.2020 C   0  0  0  0  0  0  0  0  0  0  0  0
  139.6930   68.9390  229.2750 F   0  0  0  0  0  0  0  0  0  0  0  0
  140.7260   70.8750  228.3290 C   0  0  0  0  0  0  0  0  0  0  0  0
  140.9780   71.5730  227.1680 C   0  0  0  0  0  0  0  0  0  0  0  0
  140.5430   71.1600  225.9280 C   0  0  0  0  0  0  0  0  0  0  0  0
  140.8130   71.8750  224.8180 N   0  0  0  0  0  0  0  0  0  0  0  0
  139.0650   73.6440  222.7090 H   0  0  0  0  0  0  0  0  0  0  0  0
  140.4761   73.4351  220.0771 H   0  0  0  0  0  0  0  0  0  0  0  0
  139.2932   74.7116  220.5692 H   0  0  0  0  0  0  0  0  0  0  0  0
  142.7241   77.2154  220.6570 H   0  0  0  0  0  0  0  0  0  0  0  0
  144.1099   76.2901  220.0466 H   0  0  0  0  0  0  0  0  0  0  0  0
  141.6582   77.2075  218.4729 H   0  0  0  0  0  0  0  0  0  0  0  0
  143.3718   77.8244  218.3392 H   0  0  0  0  0  0  0  0  0  0  0  0
  142.5723   76.2841  216.5179 H   0  0  0  0  0  0  0  0  0  0  0  0
  144.1245   75.8638  217.3947 H   0  0  0  0  0  0  0  0  0  0  0  0
  141.4701   74.5302  217.4258 H   0  0  0  0  0  0  0  0  0  0  0  0
  143.1912   73.8880  217.2191 H   0  0  0  0  0  0  0  0  0  0  0  0
  141.7905   73.3736  219.2406 H   0  0  0  0  0  0  0  0  0  0  0  0
  146.1105   72.1536  221.4134 H   0  0  0  0  0  0  0  0  0  0  0  0
  143.6050   72.8940  221.5840 H   0  0  0  0  0  0  0  0  0  0  0  0
  139.3320   70.0023  222.4849 H   0  0  0  0  0  0  0  0  0  0  0  0
  138.7802   68.6006  224.4911 H   0  0  0  0  0  0  0  0  0  0  0  0
  138.9814   68.3482  226.8832 H   0  0  0  0  0  0  0  0  0  0  0  0
  141.0848   71.2303  229.3063 H   0  0  0  0  0  0  0  0  0  0  0  0
  141.5555   72.5068  227.2347 H   0  0  0  0  0  0  0  0  0  0  0  0
  1  2  2  0
  2  3  1  0
  3  4  1  0
  4  5  1  0
  5  6  2  0
  5  7  1  0
  7  8  1  0
  8  9  1  0
  9 10  1  0
 10 11  1  0
 11 12  1  0
 12 13  1  0
 13 14  2  0
 14 15  1  0
 15 16  2  0
 16 17  1  0
  2 18  1  0
 18 19  2  0
 19 20  1  0
 20 21  2  0
 21 22  1  0
 22 23  2  0
 23 24  1  0
 23 25  1  0
 25 26  2  0
 26 27  1  0
 27 28  2  0
 12  7  1  0
 17 13  1  0
 28 18  1  0
 27 21  1  0
  3 29  1  0
  4 30  1  0
  4 31  1  0
  8 32  1  0
  8 33  1  0
  9 34  1  0
  9 35  1  0
 10 36  1  0
 10 37  1  0
 11 38  1  0
 11 39  1  0
 12 40  1  6
 16 41  1  0
 17 42  1  0
 19 43  1  0
 20 44  1  0
 22 45  1  0
 25 46  1  0
 26 47  1  0
M  END
>  <smiles>  (17) 
O=C(NCC(=O)N1CCCC[C@H]1c1nnc[nH]1)c1ccc2cc(F)ccc2n1

>  <score_type>  (17) 
oracle

>  <origin>  (17) 
autodockgpu

>  <m_score__min__energy>  (17) 
-8.2599999999999998

>  <m_primary>  (17) 
energy

>  <rmsd>  (17) 
3.302013633139665

>  <m_score__min__rmsd>  (17) 
3.302013633139665

>  <meeko>  (17) 
{"free_energy": -7.68, "intermolecular_energy": -9.17, "internal_energy": -2.25, "cluster_size": 14, "cluster_id": 1, "rank_in_cluster": 13}

>  <energy>  (17) 
-7.93

>  <cluster_rmsd>  (17) 
1.32

>  <cluster>  (17) 
2

$$$$

     RDKit          3D

 47 50  0  0  0  0  0  0  0  0999 V2000
  139.1040   74.5230  222.3500 O   0  0  0  0  0  0  0  0  0  0  0  0
  140.0190   74.9820  221.6070 C   0  0  0  0  0  0  0  0  0  0  0  0
  139.9390   76.3120  221.0900 N   0  0  0  0  0  0  0  0  0  0  0  0
  138.7740   77.1020  221.4530 C   0  0  0  0  0  0  0  0  0  0  0  0
  139.1710   78.3640  222.1140 C   0  0  0  0  0  0  0  0  0  0  0  0
  138.3140   79.0790  222.6940 O   0  0  0  0  0  0  0  0  0  0  0  0
  140.5390   78.7420  222.0730 N   0  0  0  0  0  0  0  0  0  0  0  0
  141.5080   78.2910  223.0550 C   0  0  0  0  0  0  0  0  0  0  0  0
  142.0520   79.5260  223.7160 C   0  0  0  0  0  0  0  0  0  0  0  0
  142.6480   80.5070  222.7460 C   0  0  0  0  0  0  0  0  0  0  0  0
  141.8000   80.7720  221.5520 C   0  0  0  0  0  0  0  0  0  0  0  0
  141.0360   79.6150  221.0200 C   0  0  1  0  0  0  0  0  0  0  0  0
  141.8150   78.7710  220.0800 C   0  0  0  0  0  0  0  0  0  0  0  0
  142.1980   77.5110  220.4000 N   0  0  0  0  0  0  0  0  0  0  0  0
  142.8700   77.0460  219.3450 N   0  0  0  0  0  0  0  0  0  0  0  0
  142.9070   77.9870  218.3940 C   0  0  0  0  0  0  0  0  0  0  0  0
  142.2510   79.0740  218.8360 N   0  0  0  0  0  0  0  0  0  0  0  0
  141.1810   74.1580  221.2610 C   0  0  0  0  0  0  0  0  0  0  0  0
  141.0270   72.7890  221.1680 C   0  0  0  0  0  0  0  0  0  0  0  0
  142.0860   71.9450  220.8430 C   0  0  0  0  0  0  0  0  0  0  0  0
  143.3000   72.5630  220.6210 C   0  0  0  0  0  0  0  0  0  0  0  0
  144.4140   71.8130  220.2930 C   0  0  0  0  0  0  0  0  0  0  0  0
  145.6520   72.3750  220.0600 C   0  0  0  0  0  0  0  0  0  0  0  0
  146.6820   71.5690  219.7460 F   0  0  0  0  0  0  0  0  0  0  0  0
  145.8180   73.7600  220.1530 C   0  0  0  0  0  0  0  0  0  0  0  0
  144.6990   74.4950  220.4800 C   0  0  0  0  0  0  0  0  0  0  0  0
  143.4650   73.9300  220.7130 C   0  0  0  0  0  0  0  0  0  0  0  0
  142.3970   74.6890  221.0310 N   0  0  0  0  0  0  0  0  0  0  0  0
  140.7080   76.6800  220.4730 H   0  0  0  0  0  0  0  0  0  0  0  0
  138.2020   77.3374  220.5434 H   0  0  0  0  0  0  0  0  0  0  0  0
  138.1609   76.5179  222.1551 H   0  0  0  0  0  0  0  0  0  0  0  0
  141.0213   77.6443  223.7999 H   0  0  0  0  0  0  0  0  0  0  0  0
  142.3109   77.7064  222.5822 H   0  0  0  0  0  0  0  0  0  0  0  0
  141.2323   80.0229  224.2556 H   0  0  0  0  0  0  0  0  0  0  0  0
  142.8588   79.2051  224.3913 H   0  0  0  0  0  0  0  0  0  0  0  0
  142.8099   81.4589  223.2729 H   0  0  0  0  0  0  0  0  0  0  0  0
  143.5837   80.0608  222.3780 H   0  0  0  0  0  0  0  0  0  0  0  0
  141.0771   81.5562  221.8212 H   0  0  0  0  0  0  0  0  0  0  0  0
  142.4993   81.0558  220.7517 H   0  0  0  0  0  0  0  0  0  0  0  0
  140.1983   80.0825  220.4817 H   0  0  0  0  0  0  0  0  0  0  0  0
  143.3938   77.8874  217.4126 H   0  0  0  0  0  0  0  0  0  0  0  0
  142.1020   79.9700  218.3380 H   0  0  0  0  0  0  0  0  0  0  0  0
  140.0358   72.3509  221.3567 H   0  0  0  0  0  0  0  0  0  0  0  0
  141.9627   70.8545  220.7680 H   0  0  0  0  0  0  0  0  0  0  0  0
  144.3086   70.7209  220.2144 H   0  0  0  0  0  0  0  0  0  0  0  0
  146.7921   74.2387  219.9743 H   0  0  0  0  0  0  0  0  0  0  0  0
  144.7965   75.5878  220.5588 H   0  0  0  0  0  0  0  0  0  0  0  0
  1  2  2  0
  2  3  1  0
  3  4  1  0
  4  5  1  0
  5  6  2  0
  5  7  1  0
  7  8  1  0
  8  9  1  0
  9 10  1  0
 10 11  1  0
 11 12  1  0
 12 13  1  0
 13 14  2  0
 14 15  1  0
 15 16  2  0
 16 17  1  0
  2 18  1  0
 18 19  2  0
 19 20  1  0
 20 21  2  0
 21 22  1  0
 22 23  2  0
 23 24  1  0
 23 25  1  0
 25 26  2  0
 26 27  1  0
 27 28  2  0
 12  7  1  0
 17 13  1  0
 28 18  1  0
 27 21  1  0
  3 29  1  0
  4 30  1  0
  4 31  1  0
  8 32  1  0
  8 33  1  0
  9 34  1  0
  9 35  1  0
 10 36  1  0
 10 37  1  0
 11 38  1  0
 11 39  1  0
 12 40  1  6
 16 41  1  0
 17 42  1  0
 19 43  1  0
 20 44  1  0
 22 45  1  0
 25 46  1  0
 26 47  1  0
M  END
>  <smiles>  (18) 
O=C(NCC(=O)N1CCCC[C@H]1c1nnc[nH]1)c1ccc2cc(F)ccc2n1

>  <score_type>  (18) 
oracle

>  <origin>  (18) 
autodockgpu

>  <m_score__min__energy>  (18) 
-8.2599999999999998

>  <m_primary>  (18) 
energy

>  <rmsd>  (18) 
6.187875457285727

>  <m_score__min__rmsd>  (18) 
6.187875457285727

>  <meeko>  (18) 
{"free_energy": -6.5, "intermolecular_energy": -7.99, "internal_energy": -2.97, "cluster_size": 17, "cluster_id": 6, "rank_in_cluster": 10}

>  <energy>  (18) 
-7.9

>  <cluster_rmsd>  (18) 
1.11

>  <cluster>  (18) 
2

$$$$

     RDKit          3D

 47 50  0  0  0  0  0  0  0  0999 V2000
  141.0490   71.5920  221.1340 O   0  0  0  0  0  0  0  0  0  0  0  0
  140.4840   72.1350  222.1280 C   0  0  0  0  0  0  0  0  0  0  0  0
  140.0610   73.4990  222.0700 N   0  0  0  0  0  0  0  0  0  0  0  0
  140.3060   74.2240  220.8340 C   0  0  0  0  0  0  0  0  0  0  0  0
  141.3470   75.2580  221.0210 C   0  0  0  0  0  0  0  0  0  0  0  0
  141.3800   75.9500  222.0700 O   0  0  0  0  0  0  0  0  0  0  0  0
  142.3010   75.4440  219.9860 N   0  0  0  0  0  0  0  0  0  0  0  0
  142.9390   76.7210  219.7260 C   0  0  0  0  0  0  0  0  0  0  0  0
  142.5770   77.1010  218.3190 C   0  0  0  0  0  0  0  0  0  0  0  0
  142.9620   76.0630  217.3030 C   0  0  0  0  0  0  0  0  0  0  0  0
  142.5840   74.6740  217.6810 C   0  0  0  0  0  0  0  0  0  0  0  0
  142.6850   74.3360  219.1230 C   0  0  1  0  0  0  0  0  0  0  0  0
  144.0440   73.9070  219.5390 C   0  0  0  0  0  0  0  0  0  0  0  0
  144.8660   73.2260  218.7040 N   0  0  0  0  0  0  0  0  0  0  0  0
  145.9910   73.0040  219.3870 N   0  0  0  0  0  0  0  0  0  0  0  0
  145.8750   73.5290  220.6120 C   0  0  0  0  0  0  0  0  0  0  0  0
  144.6640   74.0990  220.7260 N   0  0  0  0  0  0  0  0  0  0  0  0
  140.2520   71.3750  223.3590 C   0  0  0  0  0  0  0  0  0  0  0  0
  139.5840   70.1680  223.2860 C   0  0  0  0  0  0  0  0  0  0  0  0
  139.3280   69.3930  224.4130 C   0  0  0  0  0  0  0  0  0  0  0  0
  139.7850   69.9070  225.6110 C   0  0  0  0  0  0  0  0  0  0  0  0
  139.5810   69.2130  226.7890 C   0  0  0  0  0  0  0  0  0  0  0  0
  140.0140   69.6750  228.0140 C   0  0  0  0  0  0  0  0  0  0  0  0
  139.7730   68.9350  229.1110 F   0  0  0  0  0  0  0  0  0  0  0  0
  140.6900   70.8960  228.0990 C   0  0  0  0  0  0  0  0  0  0  0  0
  140.8870   71.5770  226.9170 C   0  0  0  0  0  0  0  0  0  0  0  0
  140.4520   71.1110  225.6960 C   0  0  0  0  0  0  0  0  0  0  0  0
  140.6670   71.8110  224.5640 N   0  0  0  0  0  0  0  0  0  0  0  0
  139.5930   73.9360  222.9040 H   0  0  0  0  0  0  0  0  0  0  0  0
  140.6384   73.5150  220.0614 H   0  0  0  0  0  0  0  0  0  0  0  0
  139.3725   74.7191  220.5282 H   0  0  0  0  0  0  0  0  0  0  0  0
  142.5704   77.4804  220.4313 H   0  0  0  0  0  0  0  0  0  0  0  0
  144.0297   76.6531  219.8511 H   0  0  0  0  0  0  0  0  0  0  0  0
  141.4887   77.2524  218.2677 H   0  0  0  0  0  0  0  0  0  0  0  0
  143.1359   78.0167  218.0758 H   0  0  0  0  0  0  0  0  0  0  0  0
  142.4664   76.3094  216.3524 H   0  0  0  0  0  0  0  0  0  0  0  0
  144.0592   76.0841  217.2277 H   0  0  0  0  0  0  0  0  0  0  0  0
  141.5407   74.5142  217.3712 H   0  0  0  0  0  0  0  0  0  0  0  0
  143.3119   74.0230  217.1747 H   0  0  0  0  0  0  0  0  0  0  0  0
  141.9845   73.4962  219.2411 H   0  0  0  0  0  0  0  0  0  0  0  0
  146.6449   73.4989  221.3970 H   0  0  0  0  0  0  0  0  0  0  0  0
  144.2690   74.5890  221.5480 H   0  0  0  0  0  0  0  0  0  0  0  0
  139.2431   69.8075  222.3042 H   0  0  0  0  0  0  0  0  0  0  0  0
  138.7956   68.4322  224.3537 H   0  0  0  0  0  0  0  0  0  0  0  0
  139.0502   68.2504  226.7474 H   0  0  0  0  0  0  0  0  0  0  0  0
  141.0467   71.2931  229.0608 H   0  0  0  0  0  0  0  0  0  0  0  0
  141.4177   72.5400  226.9504 H   0  0  0  0  0  0  0  0  0  0  0  0
  1  2  2  0
  2  3  1  0
  3  4  1  0
  4  5  1  0
  5  6  2  0
  5  7  1  0
  7  8  1  0
  8  9  1  0
  9 10  1  0
 10 11  1  0
 11 12  1  0
 12 13  1  0
 13 14  2  0
 14 15  1  0
 15 16  2  0
 16 17  1  0
  2 18  1  0
 18 19  2  0
 19 20  1  0
 20 21  2  0
 21 22  1  0
 22 23  2  0
 23 24  1  0
 23 25  1  0
 25 26  2  0
 26 27  1  0
 27 28  2  0
 12  7  1  0
 17 13  1  0
 28 18  1  0
 27 21  1  0
  3 29  1  0
  4 30  1  0
  4 31  1  0
  8 32  1  0
  8 33  1  0
  9 34  1  0
  9 35  1  0
 10 36  1  0
 10 37  1  0
 11 38  1  0
 11 39  1  0
 12 40  1  6
 16 41  1  0
 17 42  1  0
 19 43  1  0
 20 44  1  0
 22 45  1  0
 25 46  1  0
 26 47  1  0
M  END
>  <smiles>  (19) 
O=C(NCC(=O)N1CCCC[C@H]1c1nnc[nH]1)c1ccc2cc(F)ccc2n1

>  <score_type>  (19) 
oracle

>  <origin>  (19) 
autodockgpu

>  <m_score__min__energy>  (19) 
-8.2599999999999998

>  <m_primary>  (19) 
energy

>  <rmsd>  (19) 
3.1148015415846304

>  <m_score__min__rmsd>  (19) 
3.1148015415846304

>  <meeko>  (19) 
{"free_energy": -7.95, "intermolecular_energy": -9.44, "internal_energy": -1.66, "cluster_size": 14, "cluster_id": 1, "rank_in_cluster": 5}

>  <energy>  (19) 
-7.36

>  <cluster_rmsd>  (19) 
1.92

>  <cluster>  (19) 
2

$$$$

     RDKit          3D

 47 50  0  0  0  0  0  0  0  0999 V2000
  138.7010   72.5160  221.4750 O   0  0  0  0  0  0  0  0  0  0  0  0
  139.7390   72.3640  222.1800 C   0  0  0  0  0  0  0  0  0  0  0  0
  140.9770   72.9660  221.7940 N   0  0  0  0  0  0  0  0  0  0  0  0
  140.9870   73.7500  220.5700 C   0  0  0  0  0  0  0  0  0  0  0  0
  141.8360   74.9520  220.7140 C   0  0  0  0  0  0  0  0  0  0  0  0
  143.0810   74.8780  220.5500 O   0  0  0  0  0  0  0  0  0  0  0  0
  141.2070   76.1820  221.0430 N   0  0  0  0  0  0  0  0  0  0  0  0
  141.0860   77.2780  220.0990 C   0  0  0  0  0  0  0  0  0  0  0  0
  141.8090   78.4460  220.7080 C   0  0  0  0  0  0  0  0  0  0  0  0
  141.2990   78.8180  222.0710 C   0  0  0  0  0  0  0  0  0  0  0  0
  141.1200   77.6610  222.9890 C   0  0  0  0  0  0  0  0  0  0  0  0
  140.6470   76.3970  222.3690 C   0  0  1  0  0  0  0  0  0  0  0  0
  139.1710   76.3160  222.2400 C   0  0  0  0  0  0  0  0  0  0  0  0
  138.4240   77.3890  221.8800 N   0  0  0  0  0  0  0  0  0  0  0  0
  137.1560   76.9710  221.8610 N   0  0  0  0  0  0  0  0  0  0  0  0
  137.1120   75.6770  222.1990 C   0  0  0  0  0  0  0  0  0  0  0  0
  138.3630   75.2500  222.4390 N   0  0  0  0  0  0  0  0  0  0  0  0
  139.6950   71.5660  223.4090 C   0  0  0  0  0  0  0  0  0  0  0  0
  138.8960   70.4400  223.4480 C   0  0  0  0  0  0  0  0  0  0  0  0
  138.8050   69.6360  224.5810 C   0  0  0  0  0  0  0  0  0  0  0  0
  139.5630   70.0350  225.6640 C   0  0  0  0  0  0  0  0  0  0  0  0
  139.5420   69.3030  226.8360 C   0  0  0  0  0  0  0  0  0  0  0  0
  140.2780   69.6530  227.9490 C   0  0  0  0  0  0  0  0  0  0  0  0
  140.1970   68.8830  229.0490 F   0  0  0  0  0  0  0  0  0  0  0  0
  141.0890   70.7910  227.9200 C   0  0  0  0  0  0  0  0  0  0  0  0
  141.1010   71.5110  226.7440 C   0  0  0  0  0  0  0  0  0  0  0  0
  140.3640   71.1580  225.6350 C   0  0  0  0  0  0  0  0  0  0  0  0
  140.4060   71.8920  224.5050 N   0  0  0  0  0  0  0  0  0  0  0  0
  141.8330   72.8300  222.3910 H   0  0  0  0  0  0  0  0  0  0  0  0
  141.3781   73.1302  219.7497 H   0  0  0  0  0  0  0  0  0  0  0  0
  139.9580   74.0732  220.3540 H   0  0  0  0  0  0  0  0  0  0  0  0
  141.5466   77.0048  219.1381 H   0  0  0  0  0  0  0  0  0  0  0  0
  140.0310   77.5206  219.9036 H   0  0  0  0  0  0  0  0  0  0  0  0
  142.8756   78.1904  220.7925 H   0  0  0  0  0  0  0  0  0  0  0  0
  141.6399   79.3115  220.0505 H   0  0  0  0  0  0  0  0  0  0  0  0
  142.0156   79.5152  222.5296 H   0  0  0  0  0  0  0  0  0  0  0  0
  140.3044   79.2652  221.9265 H   0  0  0  0  0  0  0  0  0  0  0  0
  142.0903   77.4580  223.4657 H   0  0  0  0  0  0  0  0  0  0  0  0
  140.3250   77.9608  223.6877 H   0  0  0  0  0  0  0  0  0  0  0  0
  140.9962   75.6197  223.0646 H   0  0  0  0  0  0  0  0  0  0  0  0
  136.2014   75.0638  222.2689 H   0  0  0  0  0  0  0  0  0  0  0  0
  138.6650   74.3000  222.7210 H   0  0  0  0  0  0  0  0  0  0  0  0
  138.3129   70.1698  222.5553 H   0  0  0  0  0  0  0  0  0  0  0  0
  138.1690   68.7390  224.6115 H   0  0  0  0  0  0  0  0  0  0  0  0
  138.9115   68.4029  226.8834 H   0  0  0  0  0  0  0  0  0  0  0  0
  141.6873   71.0967  228.7910 H   0  0  0  0  0  0  0  0  0  0  0  0
  141.7301   72.4117  226.6887 H   0  0  0  0  0  0  0  0  0  0  0  0
  1  2  2  0
  2  3  1  0
  3  4  1  0
  4  5  1  0
  5  6  2  0
  5  7  1  0
  7  8  1  0
  8  9  1  0
  9 10  1  0
 10 11  1  0
 11 12  1  0
 12 13  1  0
 13 14  2  0
 14 15  1  0
 15 16  2  0
 16 17  1  0
  2 18  1  0
 18 19  2  0
 19 20  1  0
 20 21  2  0
 21 22  1  0
 22 23  2  0
 23 24  1  0
 23 25  1  0
 25 26  2  0
 26 27  1  0
 27 28  2  0
 12  7  1  0
 17 13  1  0
 28 18  1  0
 27 21  1  0
  3 29  1  0
  4 30  1  0
  4 31  1  0
  8 32  1  0
  8 33  1  0
  9 34  1  0
  9 35  1  0
 10 36  1  0
 10 37  1  0
 11 38  1  0
 11 39  1  0
 12 40  1  1
 16 41  1  0
 17 42  1  0
 19 43  1  0
 20 44  1  0
 22 45  1  0
 25 46  1  0
 26 47  1  0
M  END
>  <smiles>  (20) 
O=C(NCC(=O)N1CCCC[C@H]1c1nnc[nH]1)c1ccc2cc(F)ccc2n1

>  <score_type>  (20) 
oracle

>  <origin>  (20) 
autodockgpu

>  <m_score__min__energy>  (20) 
-8.2599999999999998

>  <m_primary>  (20) 
energy

>  <rmsd>  (20) 
3.190081885072658

>  <m_score__min__rmsd>  (20) 
3.190081885072658

>  <meeko>  (20) 
{"free_energy": -7.06, "intermolecular_energy": -8.55, "internal_energy": -2.4, "cluster_size": 1, "cluster_id": 5, "rank_in_cluster": 1}

>  <energy>  (20) 
-7.31

>  <cluster_rmsd>  (20) 
1.92

>  <cluster>  (20) 
2

$$$$

     RDKit          3D

 47 50  0  0  0  0  0  0  0  0999 V2000
  141.3270   72.5320  221.6140 O   0  0  0  0  0  0  0  0  0  0  0  0
  140.3790   72.6360  222.4440 C   0  0  0  0  0  0  0  0  0  0  0  0
  139.4360   73.7050  222.3440 N   0  0  0  0  0  0  0  0  0  0  0  0
  139.6150   74.6550  221.2590 C   0  0  0  0  0  0  0  0  0  0  0  0
  139.2880   76.0300  221.6960 C   0  0  0  0  0  0  0  0  0  0  0  0
  138.4160   76.2300  222.5800 O   0  0  0  0  0  0  0  0  0  0  0  0
  139.9820   77.1090  221.0880 N   0  0  0  0  0  0  0  0  0  0  0  0
  139.3360   78.0570  220.1990 C   0  0  0  0  0  0  0  0  0  0  0  0
  140.0450   77.9540  218.8780 C   0  0  0  0  0  0  0  0  0  0  0  0
  141.5250   78.1930  218.9760 C   0  0  0  0  0  0  0  0  0  0  0  0
  142.1870   77.4560  220.0870 C   0  0  0  0  0  0  0  0  0  0  0  0
  141.4010   77.3130  221.3390 C   0  0  1  0  0  0  0  0  0  0  0  0
  141.5230   78.4760  222.2520 C   0  0  0  0  0  0  0  0  0  0  0  0
  140.6030   78.7300  223.2150 N   0  0  0  0  0  0  0  0  0  0  0  0
  141.0150   79.8330  223.8430 N   0  0  0  0  0  0  0  0  0  0  0  0
  142.1570   80.2570  223.2890 C   0  0  0  0  0  0  0  0  0  0  0  0
  142.4910   79.4210  222.2930 N   0  0  0  0  0  0  0  0  0  0  0  0
  140.2270   71.6600  223.5270 C   0  0  0  0  0  0  0  0  0  0  0  0
  139.5960   70.4600  223.2640 C   0  0  0  0  0  0  0  0  0  0  0  0
  139.4170   69.4860  224.2440 C   0  0  0  0  0  0  0  0  0  0  0  0
  139.9110   69.7960  225.4950 C   0  0  0  0  0  0  0  0  0  0  0  0
  139.7830   68.8960  226.5360 C   0  0  0  0  0  0  0  0  0  0  0  0
  140.2570   69.1500  227.8070 C   0  0  0  0  0  0  0  0  0  0  0  0
  140.0900   68.2170  228.7610 F   0  0  0  0  0  0  0  0  0  0  0  0
  140.8970   70.3620  228.0840 C   0  0  0  0  0  0  0  0  0  0  0  0
  141.0170   71.2490  227.0360 C   0  0  0  0  0  0  0  0  0  0  0  0
  140.5430   70.9920  225.7690 C   0  0  0  0  0  0  0  0  0  0  0  0
  140.6830   71.8900  224.7730 N   0  0  0  0  0  0  0  0  0  0  0  0
  138.6520   73.7780  223.0420 H   0  0  0  0  0  0  0  0  0  0  0  0
  140.6621   74.6241  220.9235 H   0  0  0  0  0  0  0  0  0  0  0  0
  138.9376   74.3790  220.4375 H   0  0  0  0  0  0  0  0  0  0  0  0
  138.2724   77.8028  220.0803 H   0  0  0  0  0  0  0  0  0  0  0  0
  139.3897   79.0796  220.6008 H   0  0  0  0  0  0  0  0  0  0  0  0
  139.8807   76.9451  218.4716 H   0  0  0  0  0  0  0  0  0  0  0  0
  139.6317   78.7370  218.2253 H   0  0  0  0  0  0  0  0  0  0  0  0
  141.9890   77.8801  218.0290 H   0  0  0  0  0  0  0  0  0  0  0  0
  141.6604   79.2652  219.1813 H   0  0  0  0  0  0  0  0  0  0  0  0
  142.4264   76.4457  219.7238 H   0  0  0  0  0  0  0  0  0  0  0  0
  143.0656   78.0597  220.3583 H   0  0  0  0  0  0  0  0  0  0  0  0
  141.8374   76.4247  221.8192 H   0  0  0  0  0  0  0  0  0  0  0  0
  142.7282   81.1446  223.5988 H   0  0  0  0  0  0  0  0  0  0  0  0
  143.3180   79.4730  221.6710 H   0  0  0  0  0  0  0  0  0  0  0  0
  139.2225   70.2669  222.2475 H   0  0  0  0  0  0  0  0  0  0  0  0
  138.9139   68.5306  224.0341 H   0  0  0  0  0  0  0  0  0  0  0  0
  139.2818   67.9360  226.3432 H   0  0  0  0  0  0  0  0  0  0  0  0
  141.2847   70.5954  229.0866 H   0  0  0  0  0  0  0  0  0  0  0  0
  141.5169   72.2112  227.2211 H   0  0  0  0  0  0  0  0  0  0  0  0
  1  2  2  0
  2  3  1  0
  3  4  1  0
  4  5  1  0
  5  6  2  0
  5  7  1  0
  7  8  1  0
  8  9  1  0
  9 10  1  0
 10 11  1  0
 11 12  1  0
 12 13  1  0
 13 14  2  0
 14 15  1  0
 15 16  2  0
 16 17  1  0
  2 18  1  0
 18 19  2  0
 19 20  1  0
 20 21  2  0
 21 22  1  0
 22 23  2  0
 23 24  1  0
 23 25  1  0
 25 26  2  0
 26 27  1  0
 27 28  2  0
 12  7  1  0
 17 13  1  0
 28 18  1  0
 27 21  1  0
  3 29  1  0
  4 30  1  0
  4 31  1  0
  8 32  1  0
  8 33  1  0
  9 34  1  0
  9 35  1  0
 10 36  1  0
 10 37  1  0
 11 38  1  0
 11 39  1  0
 12 40  1  1
 16 41  1  0
 17 42  1  0
 19 43  1  0
 20 44  1  0
 22 45  1  0
 25 46  1  0
 26 47  1  0
M  END
>  <smiles>  (21) 
O=C(NCC(=O)N1CCCC[C@H]1c1nnc[nH]1)c1ccc2cc(F)ccc2n1

>  <score_type>  (21) 
oracle

>  <origin>  (21) 
autodockgpu

>  <m_score__min__energy>  (21) 
-8.2599999999999998

>  <m_primary>  (21) 
energy

>  <rmsd>  (21) 
2.077045859673001

>  <m_score__min__rmsd>  (21) 
2.077045859673001

>  <meeko>  (21) 
{"free_energy": -8.22, "intermolecular_energy": -9.72, "internal_energy": -1.53, "cluster_size": 7, "cluster_id": 2, "rank_in_cluster": 1}

>  <energy>  (21) 
-7.29

>  <cluster_rmsd>  (21) 
1.91

>  <cluster>  (21) 
2

$$$$

     RDKit          3D

 47 50  0  0  0  0  0  0  0  0999 V2000
  139.4020   75.1500  222.7000 O   0  0  0  0  0  0  0  0  0  0  0  0
  140.0410   75.3090  221.6210 C   0  0  0  0  0  0  0  0  0  0  0  0
  139.7280   76.3900  220.7410 N   0  0  0  0  0  0  0  0  0  0  0  0
  138.6560   77.2870  221.1390 C   0  0  0  0  0  0  0  0  0  0  0  0
  139.1190   78.2520  222.1600 C   0  0  0  0  0  0  0  0  0  0  0  0
  138.3230   78.6970  223.0260 O   0  0  0  0  0  0  0  0  0  0  0  0
  140.4790   78.6580  222.1300 N   0  0  0  0  0  0  0  0  0  0  0  0
  141.4490   78.2250  223.1200 C   0  0  0  0  0  0  0  0  0  0  0  0
  141.9620   79.4700  223.7870 C   0  0  0  0  0  0  0  0  0  0  0  0
  142.5450   80.4650  222.8250 C   0  0  0  0  0  0  0  0  0  0  0  0
  141.7020   80.7150  221.6240 C   0  0  0  0  0  0  0  0  0  0  0  0
  140.9660   79.5430  221.0830 C   0  0  1  0  0  0  0  0  0  0  0  0
  141.7700   78.7180  220.1490 C   0  0  0  0  0  0  0  0  0  0  0  0
  142.0640   79.1370  218.8930 N   0  0  0  0  0  0  0  0  0  0  0  0
  142.7900   78.1660  218.3360 N   0  0  0  0  0  0  0  0  0  0  0  0
  142.9450   77.1700  219.2150 C   0  0  0  0  0  0  0  0  0  0  0  0
  142.3150   77.4960  220.3550 N   0  0  0  0  0  0  0  0  0  0  0  0
  141.1170   74.3860  221.2500 C   0  0  0  0  0  0  0  0  0  0  0  0
  140.8380   73.0370  221.1490 C   0  0  0  0  0  0  0  0  0  0  0  0
  141.8100   72.1020  220.8010 C   0  0  0  0  0  0  0  0  0  0  0  0
  143.0720   72.6100  220.5640 C   0  0  0  0  0  0  0  0  0  0  0  0
  144.1080   71.7640  220.2120 C   0  0  0  0  0  0  0  0  0  0  0  0
  145.3880   72.2120  219.9630 C   0  0  0  0  0  0  0  0  0  0  0  0
  146.3350   71.3190  219.6260 F   0  0  0  0  0  0  0  0  0  0  0  0
  145.6810   73.5760  220.0630 C   0  0  0  0  0  0  0  0  0  0  0  0
  144.6390   74.4070  220.4140 C   0  0  0  0  0  0  0  0  0  0  0  0
  143.3620   73.9550  220.6620 C   0  0  0  0  0  0  0  0  0  0  0  0
  142.3730   74.8050  221.0030 N   0  0  0  0  0  0  0  0  0  0  0  0
  140.2680   76.5100  219.8460 H   0  0  0  0  0  0  0  0  0  0  0  0
  138.3041   77.8401  220.2557 H   0  0  0  0  0  0  0  0  0  0  0  0
  137.8411   76.6870  221.5702 H   0  0  0  0  0  0  0  0  0  0  0  0
  140.9693   77.5675  223.8599 H   0  0  0  0  0  0  0  0  0  0  0  0
  142.2676   77.6573  222.6534 H   0  0  0  0  0  0  0  0  0  0  0  0
  141.1278   79.9486  224.3208 H   0  0  0  0  0  0  0  0  0  0  0  0
  142.7703   79.1643  224.4676 H   0  0  0  0  0  0  0  0  0  0  0  0
  142.6821   81.4189  223.3554 H   0  0  0  0  0  0  0  0  0  0  0  0
  143.4930   80.0394  222.4641 H   0  0  0  0  0  0  0  0  0  0  0  0
  140.9609   81.4837  221.8884 H   0  0  0  0  0  0  0  0  0  0  0  0
  142.4022   81.0146  220.8303 H   0  0  0  0  0  0  0  0  0  0  0  0
  140.1232   79.9938  220.5385 H   0  0  0  0  0  0  0  0  0  0  0  0
  143.4981   76.2366  219.0337 H   0  0  0  0  0  0  0  0  0  0  0  0
  142.2490   76.9380  221.2250 H   0  0  0  0  0  0  0  0  0  0  0  0
  139.8139   72.6895  221.3501 H   0  0  0  0  0  0  0  0  0  0  0  0
  141.5867   71.0279  220.7201 H   0  0  0  0  0  0  0  0  0  0  0  0
  143.9018   70.6868  220.1270 H   0  0  0  0  0  0  0  0  0  0  0  0
  146.6916   73.9656  219.8713 H   0  0  0  0  0  0  0  0  0  0  0  0
  144.8373   75.4855  220.5004 H   0  0  0  0  0  0  0  0  0  0  0  0
  1  2  2  0
  2  3  1  0
  3  4  1  0
  4  5  1  0
  5  6  2  0
  5  7  1  0
  7  8  1  0
  8  9  1  0
  9 10  1  0
 10 11  1  0
 11 12  1  0
 12 13  1  0
 13 14  2  0
 14 15  1  0
 15 16  2  0
 16 17  1  0
  2 18  1  0
 18 19  2  0
 19 20  1  0
 20 21  2  0
 21 22  1  0
 22 23  2  0
 23 24  1  0
 23 25  1  0
 25 26  2  0
 26 27  1  0
 27 28  2  0
 12  7  1  0
 17 13  1  0
 28 18  1  0
 27 21  1  0
  3 29  1  0
  4 30  1  0
  4 31  1  0
  8 32  1  0
  8 33  1  0
  9 34  1  0
  9 35  1  0
 10 36  1  0
 10 37  1  0
 11 38  1  0
 11 39  1  0
 12 40  1  6
 16 41  1  0
 17 42  1  0
 19 43  1  0
 20 44  1  0
 22 45  1  0
 25 46  1  0
 26 47  1  0
M  END
>  <smiles>  (22) 
O=C(NCC(=O)N1CCCC[C@H]1c1nnc[nH]1)c1ccc2cc(F)ccc2n1

>  <score_type>  (22) 
oracle

>  <origin>  (22) 
autodockgpu

>  <m_score__min__energy>  (22) 
-8.2599999999999998

>  <m_primary>  (22) 
energy

>  <rmsd>  (22) 
6.141681434833192

>  <m_score__min__rmsd>  (22) 
6.141681434833192

>  <meeko>  (22) 
{"free_energy": -6.93, "intermolecular_energy": -8.42, "internal_energy": -2.79, "cluster_size": 17, "cluster_id": 6, "rank_in_cluster": 5}

>  <energy>  (22) 
-7.92

>  <cluster_rmsd>  (22) 
0.0

>  <cluster>  (22) 
3

$$$$

     RDKit          3D

 47 50  0  0  0  0  0  0  0  0999 V2000
  141.1690   72.0540  221.4470 O   0  0  0  0  0  0  0  0  0  0  0  0
  140.3470   72.3360  222.3660 C   0  0  0  0  0  0  0  0  0  0  0  0
  139.5240   73.5010  222.2750 N   0  0  0  0  0  0  0  0  0  0  0  0
  139.6730   74.3350  221.0940 C   0  0  0  0  0  0  0  0  0  0  0  0
  140.4890   75.5330  221.3870 C   0  0  0  0  0  0  0  0  0  0  0  0
  140.2210   76.2630  222.3760 O   0  0  0  0  0  0  0  0  0  0  0  0
  141.5750   75.8330  220.5230 N   0  0  0  0  0  0  0  0  0  0  0  0
  142.1930   77.1450  220.4650 C   0  0  0  0  0  0  0  0  0  0  0  0
  142.0250   77.6330  219.0540 C   0  0  0  0  0  0  0  0  0  0  0  0
  142.5950   76.6970  218.0270 C   0  0  0  0  0  0  0  0  0  0  0  0
  142.2220   75.2710  218.2320 C   0  0  0  0  0  0  0  0  0  0  0  0
  142.1240   74.8130  219.6410 C   0  0  1  0  0  0  0  0  0  0  0  0
  143.4240   74.3880  220.2180 C   0  0  0  0  0  0  0  0  0  0  0  0
  144.5150   75.1920  220.1940 N   0  0  0  0  0  0  0  0  0  0  0  0
  145.4960   74.5090  220.7880 N   0  0  0  0  0  0  0  0  0  0  0  0
  145.0320   73.3140  221.1720 C   0  0  0  0  0  0  0  0  0  0  0  0
  143.7370   73.2200  220.8240 N   0  0  0  0  0  0  0  0  0  0  0  0
  140.2220   71.4740  223.5440 C   0  0  0  0  0  0  0  0  0  0  0  0
  139.6010   70.2470  223.4130 C   0  0  0  0  0  0  0  0  0  0  0  0
  139.4470   69.3760  224.4880 C   0  0  0  0  0  0  0  0  0  0  0  0
  139.9530   69.8160  225.6950 C   0  0  0  0  0  0  0  0  0  0  0  0
  139.8510   69.0250  226.8240 C   0  0  0  0  0  0  0  0  0  0  0  0
  140.3380   69.4110  228.0550 C   0  0  0  0  0  0  0  0  0  0  0  0
  140.1950   68.5780  229.1010 F   0  0  0  0  0  0  0  0  0  0  0  0
  140.9670   70.6510  228.1980 C   0  0  0  0  0  0  0  0  0  0  0  0
  141.0630   71.4300  227.0650 C   0  0  0  0  0  0  0  0  0  0  0  0
  140.5750   71.0400  225.8370 C   0  0  0  0  0  0  0  0  0  0  0  0
  140.6910   71.8340  224.7540 N   0  0  0  0  0  0  0  0  0  0  0  0
  138.8450   73.7230  223.0470 H   0  0  0  0  0  0  0  0  0  0  0  0
  140.1640   73.7510  220.3016 H   0  0  0  0  0  0  0  0  0  0  0  0
  138.6743   74.6635  220.7703 H   0  0  0  0  0  0  0  0  0  0  0  0
  141.6953   77.8309  221.1662 H   0  0  0  0  0  0  0  0  0  0  0  0
  143.2555   77.0973  220.7458 H   0  0  0  0  0  0  0  0  0  0  0  0
  140.9506   77.7577  218.8538 H   0  0  0  0  0  0  0  0  0  0  0  0
  142.5764   78.5811  218.9706 H   0  0  0  0  0  0  0  0  0  0  0  0
  142.2338   77.0097  217.0362 H   0  0  0  0  0  0  0  0  0  0  0  0
  143.6897   76.7550  218.1174 H   0  0  0  0  0  0  0  0  0  0  0  0
  141.2426   75.1092  217.7580 H   0  0  0  0  0  0  0  0  0  0  0  0
  143.0424   74.6866  217.7899 H   0  0  0  0  0  0  0  0  0  0  0  0
  141.4476   73.9473  219.5864 H   0  0  0  0  0  0  0  0  0  0  0  0
  145.6146   72.5364  221.6877 H   0  0  0  0  0  0  0  0  0  0  0  0
  143.0950   72.4220  220.9810 H   0  0  0  0  0  0  0  0  0  0  0  0
  139.2156   69.9484  222.4269 H   0  0  0  0  0  0  0  0  0  0  0  0
  138.9533   68.3987  224.3825 H   0  0  0  0  0  0  0  0  0  0  0  0
  139.3598   68.0446  226.7366 H   0  0  0  0  0  0  0  0  0  0  0  0
  141.3654   70.9883  229.1663 H   0  0  0  0  0  0  0  0  0  0  0  0
  141.5534   72.4114  227.1452 H   0  0  0  0  0  0  0  0  0  0  0  0
  1  2  2  0
  2  3  1  0
  3  4  1  0
  4  5  1  0
  5  6  2  0
  5  7  1  0
  7  8  1  0
  8  9  1  0
  9 10  1  0
 10 11  1  0
 11 12  1  0
 12 13  1  0
 13 14  2  0
 14 15  1  0
 15 16  2  0
 16 17  1  0
  2 18  1  0
 18 19  2  0
 19 20  1  0
 20 21  2  0
 21 22  1  0
 22 23  2  0
 23 24  1  0
 23 25  1  0
 25 26  2  0
 26 27  1  0
 27 28  2  0
 12  7  1  0
 17 13  1  0
 28 18  1  0
 27 21  1  0
  3 29  1  0
  4 30  1  0
  4 31  1  0
  8 32  1  0
  8 33  1  0
  9 34  1  0
  9 35  1  0
 10 36  1  0
 10 37  1  0
 11 38  1  0
 11 39  1  0
 12 40  1  6
 16 41  1  0
 17 42  1  0
 19 43  1  0
 20 44  1  0
 22 45  1  0
 25 46  1  0
 26 47  1  0
M  END
>  <smiles>  (23) 
O=C(NCC(=O)N1CCCC[C@H]1c1nnc[nH]1)c1ccc2cc(F)ccc2n1

>  <score_type>  (23) 
oracle

>  <origin>  (23) 
autodockgpu

>  <m_score__min__energy>  (23) 
-8.2599999999999998

>  <m_primary>  (23) 
energy

>  <rmsd>  (23) 
3.0062101504057206

>  <m_score__min__rmsd>  (23) 
3.0062101504057206

>  <meeko>  (23) 
{"free_energy": -7.66, "intermolecular_energy": -9.15, "internal_energy": -2.24, "cluster_size": 14, "cluster_id": 1, "rank_in_cluster": 14}

>  <energy>  (23) 
-7.68

>  <cluster_rmsd>  (23) 
1.0

>  <cluster>  (23) 
3

$$$$

     RDKit          3D

 47 50  0  0  0  0  0  0  0  0999 V2000
  139.2010   74.8880  222.6150 O   0  0  0  0  0  0  0  0  0  0  0  0
  140.0120   75.2110  221.6990 C   0  0  0  0  0  0  0  0  0  0  0  0
  139.8670   76.4490  221.0000 N   0  0  0  0  0  0  0  0  0  0  0  0
  138.7600   77.3080  221.3840 C   0  0  0  0  0  0  0  0  0  0  0  0
  139.2090   78.3810  222.2980 C   0  0  0  0  0  0  0  0  0  0  0  0
  138.4120   78.8910  223.1260 O   0  0  0  0  0  0  0  0  0  0  0  0
  140.5590   78.8150  222.2100 N   0  0  0  0  0  0  0  0  0  0  0  0
  141.5770   78.4100  223.1620 C   0  0  0  0  0  0  0  0  0  0  0  0
  142.0900   79.6700  223.7990 C   0  0  0  0  0  0  0  0  0  0  0  0
  142.6130   80.6700  222.8070 C   0  0  0  0  0  0  0  0  0  0  0  0
  141.7160   80.8930  221.6400 C   0  0  0  0  0  0  0  0  0  0  0  0
  140.9840   79.7030  221.1380 C   0  0  1  0  0  0  0  0  0  0  0  0
  141.7660   78.8870  220.1770 C   0  0  0  0  0  0  0  0  0  0  0  0
  142.1560   77.6200  220.4630 N   0  0  0  0  0  0  0  0  0  0  0  0
  142.8290   77.1860  219.3960 N   0  0  0  0  0  0  0  0  0  0  0  0
  142.8610   78.1520  218.4710 C   0  0  0  0  0  0  0  0  0  0  0  0
  142.2010   79.2230  218.9400 N   0  0  0  0  0  0  0  0  0  0  0  0
  141.1190   74.3210  221.3370 C   0  0  0  0  0  0  0  0  0  0  0  0
  140.8910   72.9600  221.2740 C   0  0  0  0  0  0  0  0  0  0  0  0
  141.8940   72.0560  220.9370 C   0  0  0  0  0  0  0  0  0  0  0  0
  143.1330   72.6050  220.6700 C   0  0  0  0  0  0  0  0  0  0  0  0
  144.1950   71.7910  220.3250 C   0  0  0  0  0  0  0  0  0  0  0  0
  145.4540   72.2820  220.0470 C   0  0  0  0  0  0  0  0  0  0  0  0
  146.4310   71.4170  219.7200 F   0  0  0  0  0  0  0  0  0  0  0  0
  145.6950   73.6570  220.1090 C   0  0  0  0  0  0  0  0  0  0  0  0
  144.6260   74.4570  220.4530 C   0  0  0  0  0  0  0  0  0  0  0  0
  143.3710   73.9620  220.7300 C   0  0  0  0  0  0  0  0  0  0  0  0
  142.3540   74.7820  221.0630 N   0  0  0  0  0  0  0  0  0  0  0  0
  140.5500   76.7040  220.2410 H   0  0  0  0  0  0  0  0  0  0  0  0
  138.3287   77.7633  220.4803 H   0  0  0  0  0  0  0  0  0  0  0  0
  138.0090   76.6968  221.9059 H   0  0  0  0  0  0  0  0  0  0  0  0
  141.1418   77.7482  223.9253 H   0  0  0  0  0  0  0  0  0  0  0  0
  142.3878   77.8561  222.6662 H   0  0  0  0  0  0  0  0  0  0  0  0
  141.2680   80.1353  224.3628 H   0  0  0  0  0  0  0  0  0  0  0  0
  142.9313   79.3863  224.4484 H   0  0  0  0  0  0  0  0  0  0  0  0
  142.7518   81.6305  223.3249 H   0  0  0  0  0  0  0  0  0  0  0  0
  143.5545   80.2618  222.4107 H   0  0  0  0  0  0  0  0  0  0  0  0
  140.9703   81.6480  221.9296 H   0  0  0  0  0  0  0  0  0  0  0  0
  142.3766   81.2009  220.8161 H   0  0  0  0  0  0  0  0  0  0  0  0
  140.1106   80.1331  220.6260 H   0  0  0  0  0  0  0  0  0  0  0  0
  143.3482   78.0805  217.4874 H   0  0  0  0  0  0  0  0  0  0  0  0
  142.0460   80.1310  218.4650 H   0  0  0  0  0  0  0  0  0  0  0  0
  139.8838   72.5783  221.4975 H   0  0  0  0  0  0  0  0  0  0  0  0
  141.7115   70.9724  220.8864 H   0  0  0  0  0  0  0  0  0  0  0  0
  144.0295   70.7049  220.2696 H   0  0  0  0  0  0  0  0  0  0  0  0
  146.6875   74.0798  219.8942 H   0  0  0  0  0  0  0  0  0  0  0  0
  144.7833   75.5443  220.5090 H   0  0  0  0  0  0  0  0  0  0  0  0
  1  2  2  0
  2  3  1  0
  3  4  1  0
  4  5  1  0
  5  6  2  0
  5  7  1  0
  7  8  1  0
  8  9  1  0
  9 10  1  0
 10 11  1  0
 11 12  1  0
 12 13  1  0
 13 14  2  0
 14 15  1  0
 15 16  2  0
 16 17  1  0
  2 18  1  0
 18 19  2  0
 19 20  1  0
 20 21  2  0
 21 22  1  0
 22 23  2  0
 23 24  1  0
 23 25  1  0
 25 26  2  0
 26 27  1  0
 27 28  2  0
 12  7  1  0
 17 13  1  0
 28 18  1  0
 27 21  1  0
  3 29  1  0
  4 30  1  0
  4 31  1  0
  8 32  1  0
  8 33  1  0
  9 34  1  0
  9 35  1  0
 10 36  1  0
 10 37  1  0
 11 38  1  0
 11 39  1  0
 12 40  1  6
 16 41  1  0
 17 42  1  0
 19 43  1  0
 20 44  1  0
 22 45  1  0
 25 46  1  0
 26 47  1  0
M  END
>  <smiles>  (24) 
O=C(NCC(=O)N1CCCC[C@H]1c1nnc[nH]1)c1ccc2cc(F)ccc2n1

>  <score_type>  (24) 
oracle

>  <origin>  (24) 
autodockgpu

>  <m_score__min__energy>  (24) 
-8.2599999999999998

>  <m_primary>  (24) 
energy

>  <rmsd>  (24) 
6.212862591391859

>  <m_score__min__rmsd>  (24) 
6.212862591391859

>  <meeko>  (24) 
{"free_energy": -6.42, "intermolecular_energy": -7.92, "internal_energy": -2.94, "cluster_size": 17, "cluster_id": 6, "rank_in_cluster": 17}

>  <energy>  (24) 
-7.67

>  <cluster_rmsd>  (24) 
0.99

>  <cluster>  (24) 
3

$$$$

     RDKit          3D

 47 50  0  0  0  0  0  0  0  0999 V2000
  141.6260   72.0170  221.5770 O   0  0  0  0  0  0  0  0  0  0  0  0
  140.6670   72.3190  222.3460 C   0  0  0  0  0  0  0  0  0  0  0  0
  139.8340   73.4450  222.0640 N   0  0  0  0  0  0  0  0  0  0  0  0
  140.1340   74.2170  220.8700 C   0  0  0  0  0  0  0  0  0  0  0  0
  141.3070   75.0930  221.0820 C   0  0  0  0  0  0  0  0  0  0  0  0
  141.4450   75.7260  222.1600 O   0  0  0  0  0  0  0  0  0  0  0  0
  142.2640   75.1960  220.0390 N   0  0  0  0  0  0  0  0  0  0  0  0
  142.9980   76.4180  219.7650 C   0  0  0  0  0  0  0  0  0  0  0  0
  142.6550   76.8140  218.3560 C   0  0  0  0  0  0  0  0  0  0  0  0
  142.9510   75.7420  217.3470 C   0  0  0  0  0  0  0  0  0  0  0  0
  142.4700   74.3890  217.7390 C   0  0  0  0  0  0  0  0  0  0  0  0
  142.5540   74.0550  219.1830 C   0  0  1  0  0  0  0  0  0  0  0  0
  143.8790   73.5260  219.5930 C   0  0  0  0  0  0  0  0  0  0  0  0
  144.9460   73.5430  218.7580 N   0  0  0  0  0  0  0  0  0  0  0  0
  145.9600   72.9990  219.4350 N   0  0  0  0  0  0  0  0  0  0  0  0
  145.5380   72.6520  220.6560 C   0  0  0  0  0  0  0  0  0  0  0  0
  144.2390   72.9730  220.7740 N   0  0  0  0  0  0  0  0  0  0  0  0
  140.3930   71.5180  223.5420 C   0  0  0  0  0  0  0  0  0  0  0  0
  139.6830   70.3410  223.4120 C   0  0  0  0  0  0  0  0  0  0  0  0
  139.3850   69.5300  224.5040 C   0  0  0  0  0  0  0  0  0  0  0  0
  139.8450   69.9780  225.7270 C   0  0  0  0  0  0  0  0  0  0  0  0
  139.6020   69.2440  226.8730 C   0  0  0  0  0  0  0  0  0  0  0  0
  140.0350   69.6410  228.1210 C   0  0  0  0  0  0  0  0  0  0  0  0
  139.7540   68.8660  229.1830 F   0  0  0  0  0  0  0  0  0  0  0  0
  140.7540   70.8320  228.2630 C   0  0  0  0  0  0  0  0  0  0  0  0
  140.9900   71.5520  227.1120 C   0  0  0  0  0  0  0  0  0  0  0  0
  140.5540   71.1520  225.8680 C   0  0  0  0  0  0  0  0  0  0  0  0
  140.8080   71.8890  224.7680 N   0  0  0  0  0  0  0  0  0  0  0  0
  139.0410   73.6840  222.7130 H   0  0  0  0  0  0  0  0  0  0  0  0
  140.3465   73.5269  220.0402 H   0  0  0  0  0  0  0  0  0  0  0  0
  139.2646   74.8486  220.6352 H   0  0  0  0  0  0  0  0  0  0  0  0
  142.6949   77.2090  220.4667 H   0  0  0  0  0  0  0  0  0  0  0  0
  144.0811   76.2670  219.8837 H   0  0  0  0  0  0  0  0  0  0  0  0
  141.5812   77.0483  218.3111 H   0  0  0  0  0  0  0  0  0  0  0  0
  143.2807   77.6820  218.1009 H   0  0  0  0  0  0  0  0  0  0  0  0
  142.4688   76.0184  216.3977 H   0  0  0  0  0  0  0  0  0  0  0  0
  144.0460   75.6778  217.2644 H   0  0  0  0  0  0  0  0  0  0  0  0
  141.4155   74.3074  217.4367 H   0  0  0  0  0  0  0  0  0  0  0  0
  143.1428   73.6803  217.2339 H   0  0  0  0  0  0  0  0  0  0  0  0
  141.7911   73.2733  219.3129 H   0  0  0  0  0  0  0  0  0  0  0  0
  146.1541   72.1808  221.4360 H   0  0  0  0  0  0  0  0  0  0  0  0
  143.6230   72.8330  221.5950 H   0  0  0  0  0  0  0  0  0  0  0  0
  139.3414   70.0337  222.4126 H   0  0  0  0  0  0  0  0  0  0  0  0
  138.8193   68.5924  224.3994 H   0  0  0  0  0  0  0  0  0  0  0  0
  139.0392   68.3029  226.7859 H   0  0  0  0  0  0  0  0  0  0  0  0
  141.1130   71.1767  229.2440 H   0  0  0  0  0  0  0  0  0  0  0  0
  141.5546   72.4928  227.1905 H   0  0  0  0  0  0  0  0  0  0  0  0
  1  2  2  0
  2  3  1  0
  3  4  1  0
  4  5  1  0
  5  6  2  0
  5  7  1  0
  7  8  1  0
  8  9  1  0
  9 10  1  0
 10 11  1  0
 11 12  1  0
 12 13  1  0
 13 14  2  0
 14 15  1  0
 15 16  2  0
 16 17  1  0
  2 18  1  0
 18 19  2  0
 19 20  1  0
 20 21  2  0
 21 22  1  0
 22 23  2  0
 23 24  1  0
 23 25  1  0
 25 26  2  0
 26 27  1  0
 27 28  2  0
 12  7  1  0
 17 13  1  0
 28 18  1  0
 27 21  1  0
  3 29  1  0
  4 30  1  0
  4 31  1  0
  8 32  1  0
  8 33  1  0
  9 34  1  0
  9 35  1  0
 10 36  1  0
 10 37  1  0
 11 38  1  0
 11 39  1  0
 12 40  1  6
 16 41  1  0
 17 42  1  0
 19 43  1  0
 20 44  1  0
 22 45  1  0
 25 46  1  0
 26 47  1  0
M  END
>  <smiles>  (25) 
O=C(NCC(=O)N1CCCC[C@H]1c1nnc[nH]1)c1ccc2cc(F)ccc2n1

>  <score_type>  (25) 
oracle

>  <origin>  (25) 
autodockgpu

>  <m_score__min__energy>  (25) 
-8.2599999999999998

>  <m_primary>  (25) 
energy

>  <rmsd>  (25) 
3.2982999882366704

>  <m_score__min__rmsd>  (25) 
3.2982999882366704

>  <meeko>  (25) 
{"free_energy": -7.73, "intermolecular_energy": -9.22, "internal_energy": -2.26, "cluster_size": 14, "cluster_id": 1, "rank_in_cluster": 9}

>  <energy>  (25) 
-7.66

>  <cluster_rmsd>  (25) 
1.06

>  <cluster>  (25) 
3

$$$$

     RDKit          3D

 47 50  0  0  0  0  0  0  0  0999 V2000
  141.4350   71.8730  221.3870 O   0  0  0  0  0  0  0  0  0  0  0  0
  140.5890   72.2740  222.2380 C   0  0  0  0  0  0  0  0  0  0  0  0
  139.8800   73.4990  222.0390 N   0  0  0  0  0  0  0  0  0  0  0  0
  140.1730   74.2530  220.8320 C   0  0  0  0  0  0  0  0  0  0  0  0
  141.3110   75.1740  221.0420 C   0  0  0  0  0  0  0  0  0  0  0  0
  141.4400   75.7940  222.1280 O   0  0  0  0  0  0  0  0  0  0  0  0
  142.2460   75.3360  219.9850 N   0  0  0  0  0  0  0  0  0  0  0  0
  142.8470   76.6150  219.6580 C   0  0  0  0  0  0  0  0  0  0  0  0
  142.4570   76.9200  218.2400 C   0  0  0  0  0  0  0  0  0  0  0  0
  142.8560   75.8470  217.2680 C   0  0  0  0  0  0  0  0  0  0  0  0
  142.5190   74.4680  217.7150 C   0  0  0  0  0  0  0  0  0  0  0  0
  142.6470   74.1990  219.1690 C   0  0  1  0  0  0  0  0  0  0  0  0
  144.0220   73.8250  219.5840 C   0  0  0  0  0  0  0  0  0  0  0  0
  144.8570   73.1410  218.7630 N   0  0  0  0  0  0  0  0  0  0  0  0
  145.9940   72.9740  219.4420 N   0  0  0  0  0  0  0  0  0  0  0  0
  145.8730   73.5350  220.6510 C   0  0  0  0  0  0  0  0  0  0  0  0
  144.6470   74.0730  220.7590 N   0  0  0  0  0  0  0  0  0  0  0  0
  140.3180   71.4890  223.4450 C   0  0  0  0  0  0  0  0  0  0  0  0
  139.6280   70.2980  223.3290 C   0  0  0  0  0  0  0  0  0  0  0  0
  139.3350   69.5000  224.4320 C   0  0  0  0  0  0  0  0  0  0  0  0
  139.7780   69.9760  225.6510 C   0  0  0  0  0  0  0  0  0  0  0  0
  139.5380   69.2570  226.8070 C   0  0  0  0  0  0  0  0  0  0  0  0
  139.9560   69.6810  228.0520 C   0  0  0  0  0  0  0  0  0  0  0  0
  139.6790   68.9190  229.1240 F   0  0  0  0  0  0  0  0  0  0  0  0
  140.6540   70.8850  228.1800 C   0  0  0  0  0  0  0  0  0  0  0  0
  140.8870   71.5910  227.0190 C   0  0  0  0  0  0  0  0  0  0  0  0
  140.4670   71.1640  225.7780 C   0  0  0  0  0  0  0  0  0  0  0  0
  140.7180   71.8860  224.6680 N   0  0  0  0  0  0  0  0  0  0  0  0
  139.1790   73.8190  222.7560 H   0  0  0  0  0  0  0  0  0  0  0  0
  140.4232   73.5517  220.0223 H   0  0  0  0  0  0  0  0  0  0  0  0
  139.2863   74.8481  220.5682 H   0  0  0  0  0  0  0  0  0  0  0  0
  142.4678   77.3966  220.3328 H   0  0  0  0  0  0  0  0  0  0  0  0
  143.9407   76.5808  219.7710 H   0  0  0  0  0  0  0  0  0  0  0  0
  141.3645   77.0407  218.1971 H   0  0  0  0  0  0  0  0  0  0  0  0
  142.9884   77.8375  217.9471 H   0  0  0  0  0  0  0  0  0  0  0  0
  142.3423   76.0364  216.3140 H   0  0  0  0  0  0  0  0  0  0  0  0
  143.9512   75.8926  217.1764 H   0  0  0  0  0  0  0  0  0  0  0  0
  141.4763   74.2678  217.4275 H   0  0  0  0  0  0  0  0  0  0  0  0
  143.2574   73.8132  217.2292 H   0  0  0  0  0  0  0  0  0  0  0  0
  141.9703   73.3480  219.3362 H   0  0  0  0  0  0  0  0  0  0  0  0
  146.6504   73.5526  221.4290 H   0  0  0  0  0  0  0  0  0  0  0  0
  144.2450   74.5780  221.5690 H   0  0  0  0  0  0  0  0  0  0  0  0
  139.2991   69.9690  222.3322 H   0  0  0  0  0  0  0  0  0  0  0  0
  138.7860   68.5514  224.3387 H   0  0  0  0  0  0  0  0  0  0  0  0
  138.9903   68.3061  226.7313 H   0  0  0  0  0  0  0  0  0  0  0  0
  141.0001   71.2509  229.1579 H   0  0  0  0  0  0  0  0  0  0  0  0
  141.4353   72.5422  227.0867 H   0  0  0  0  0  0  0  0  0  0  0  0
  1  2  2  0
  2  3  1  0
  3  4  1  0
  4  5  1  0
  5  6  2  0
  5  7  1  0
  7  8  1  0
  8  9  1  0
  9 10  1  0
 10 11  1  0
 11 12  1  0
 12 13  1  0
 13 14  2  0
 14 15  1  0
 15 16  2  0
 16 17  1  0
  2 18  1  0
 18 19  2  0
 19 20  1  0
 20 21  2  0
 21 22  1  0
 22 23  2  0
 23 24  1  0
 23 25  1  0
 25 26  2  0
 26 27  1  0
 27 28  2  0
 12  7  1  0
 17 13  1  0
 28 18  1  0
 27 21  1  0
  3 29  1  0
  4 30  1  0
  4 31  1  0
  8 32  1  0
  8 33  1  0
  9 34  1  0
  9 35  1  0
 10 36  1  0
 10 37  1  0
 11 38  1  0
 11 39  1  0
 12 40  1  1
 16 41  1  0
 17 42  1  0
 19 43  1  0
 20 44  1  0
 22 45  1  0
 25 46  1  0
 26 47  1  0
M  END
>  <smiles>  (26) 
O=C(NCC(=O)N1CCCC[C@H]1c1nnc[nH]1)c1ccc2cc(F)ccc2n1

>  <score_type>  (26) 
oracle

>  <origin>  (26) 
autodockgpu

>  <m_score__min__energy>  (26) 
-8.2599999999999998

>  <m_primary>  (26) 
energy

>  <rmsd>  (26) 
3.1127744558823

>  <m_score__min__rmsd>  (26) 
3.1127744558823

>  <meeko>  (26) 
{"free_energy": -8.02, "intermolecular_energy": -9.51, "internal_energy": -1.66, "cluster_size": 14, "cluster_id": 1, "rank_in_cluster": 4}

>  <energy>  (26) 
-7.55

>  <cluster_rmsd>  (26) 
0.96

>  <cluster>  (26) 
3

$$$$

     RDKit          3D

 47 50  0  0  0  0  0  0  0  0999 V2000
  138.5290   72.6900  221.8140 O   0  0  0  0  0  0  0  0  0  0  0  0
  139.6330   72.4190  222.3700 C   0  0  0  0  0  0  0  0  0  0  0  0
  140.8540   72.9690  221.8700 N   0  0  0  0  0  0  0  0  0  0  0  0
  140.7700   73.8410  220.7110 C   0  0  0  0  0  0  0  0  0  0  0  0
  141.6870   74.9940  220.8440 C   0  0  0  0  0  0  0  0  0  0  0  0
  142.9330   74.8290  220.7960 O   0  0  0  0  0  0  0  0  0  0  0  0
  141.1210   76.2830  221.0290 N   0  0  0  0  0  0  0  0  0  0  0  0
  140.8990   77.2070  219.9320 C   0  0  0  0  0  0  0  0  0  0  0  0
  141.7070   78.4360  220.2400 C   0  0  0  0  0  0  0  0  0  0  0  0
  141.3750   79.0510  221.5700 C   0  0  0  0  0  0  0  0  0  0  0  0
  141.2950   78.0720  222.6880 C   0  0  0  0  0  0  0  0  0  0  0  0
  140.7310   76.7390  222.3550 C   0  0  1  0  0  0  0  0  0  0  0  0
  139.2500   76.6880  222.4190 C   0  0  0  0  0  0  0  0  0  0  0  0
  138.4890   77.8040  222.2940 N   0  0  0  0  0  0  0  0  0  0  0  0
  137.2200   77.4040  222.3980 N   0  0  0  0  0  0  0  0  0  0  0  0
  137.1880   76.0790  222.5830 C   0  0  0  0  0  0  0  0  0  0  0  0
  138.4480   75.6130  222.5990 N   0  0  0  0  0  0  0  0  0  0  0  0
  139.6810   71.5360  223.5380 C   0  0  0  0  0  0  0  0  0  0  0  0
  139.0630   70.3030  223.4710 C   0  0  0  0  0  0  0  0  0  0  0  0
  139.0690   69.4120  224.5410 C   0  0  0  0  0  0  0  0  0  0  0  0
  139.7320   69.8390  225.6750 C   0  0  0  0  0  0  0  0  0  0  0  0
  139.7950   69.0280  226.7920 C   0  0  0  0  0  0  0  0  0  0  0  0
  140.4430   69.4010  227.9510 C   0  0  0  0  0  0  0  0  0  0  0  0
  140.4550   68.5490  228.9920 F   0  0  0  0  0  0  0  0  0  0  0  0
  141.0710   70.6470  228.0290 C   0  0  0  0  0  0  0  0  0  0  0  0
  141.0010   71.4450  226.9080 C   0  0  0  0  0  0  0  0  0  0  0  0
  140.3520   71.0690  225.7520 C   0  0  0  0  0  0  0  0  0  0  0  0
  140.3090   71.8820  224.6780 N   0  0  0  0  0  0  0  0  0  0  0  0
  141.7640   72.7340  222.3430 H   0  0  0  0  0  0  0  0  0  0  0  0
  141.0401   73.2692  219.8110 H   0  0  0  0  0  0  0  0  0  0  0  0
  139.7405   74.2207  220.6336 H   0  0  0  0  0  0  0  0  0  0  0  0
  141.2338   76.7596  218.9845 H   0  0  0  0  0  0  0  0  0  0  0  0
  139.8313   77.4490  219.8253 H   0  0  0  0  0  0  0  0  0  0  0  0
  142.7724   78.1621  220.2388 H   0  0  0  0  0  0  0  0  0  0  0  0
  141.4686   79.1829  219.4685 H   0  0  0  0  0  0  0  0  0  0  0  0
  142.1526   79.7901  221.8128 H   0  0  0  0  0  0  0  0  0  0  0  0
  140.3768   79.5023  221.4710 H   0  0  0  0  0  0  0  0  0  0  0  0
  142.3140   77.9184  223.0728 H   0  0  0  0  0  0  0  0  0  0  0  0
  140.5972   78.5129  223.4152 H   0  0  0  0  0  0  0  0  0  0  0  0
  141.1521   76.0790  223.1277 H   0  0  0  0  0  0  0  0  0  0  0  0
  136.2791   75.4711  222.7024 H   0  0  0  0  0  0  0  0  0  0  0  0
  138.7600   74.6330  222.7230 H   0  0  0  0  0  0  0  0  0  0  0  0
  138.5492   70.0152  222.5419 H   0  0  0  0  0  0  0  0  0  0  0  0
  138.5767   68.4298  224.4866 H   0  0  0  0  0  0  0  0  0  0  0  0
  139.3074   68.0426  226.7553 H   0  0  0  0  0  0  0  0  0  0  0  0
  141.5947   70.9741  228.9393 H   0  0  0  0  0  0  0  0  0  0  0  0
  141.4873   72.4312  226.9373 H   0  0  0  0  0  0  0  0  0  0  0  0
  1  2  2  0
  2  3  1  0
  3  4  1  0
  4  5  1  0
  5  6  2  0
  5  7  1  0
  7  8  1  0
  8  9  1  0
  9 10  1  0
 10 11  1  0
 11 12  1  0
 12 13  1  0
 13 14  2  0
 14 15  1  0
 15 16  2  0
 16 17  1  0
  2 18  1  0
 18 19  2  0
 19 20  1  0
 20 21  2  0
 21 22  1  0
 22 23  2  0
 23 24  1  0
 23 25  1  0
 25 26  2  0
 26 27  1  0
 27 28  2  0
 12  7  1  0
 17 13  1  0
 28 18  1  0
 27 21  1  0
  3 29  1  0
  4 30  1  0
  4 31  1  0
  8 32  1  0
  8 33  1  0
  9 34  1  0
  9 35  1  0
 10 36  1  0
 10 37  1  0
 11 38  1  0
 11 39  1  0
 12 40  1  1
 16 41  1  0
 17 42  1  0
 19 43  1  0
 20 44  1  0
 22 45  1  0
 25 46  1  0
 26 47  1  0
M  END
>  <smiles>  (27) 
O=C(NCC(=O)N1CCCC[C@H]1c1nnc[nH]1)c1ccc2cc(F)ccc2n1

>  <score_type>  (27) 
oracle

>  <origin>  (27) 
autodockgpu

>  <m_score__min__energy>  (27) 
-8.2599999999999998

>  <m_primary>  (27) 
energy

>  <rmsd>  (27) 
2.9996615305009744

>  <m_score__min__rmsd>  (27) 
2.9996615305009744

>  <meeko>  (27) 
{"free_energy": -7.31, "intermolecular_energy": -8.81, "internal_energy": -2.35, "cluster_size": 7, "cluster_id": 2, "rank_in_cluster": 6}

>  <energy>  (27) 
-7.49

>  <cluster_rmsd>  (27) 
1.5

>  <cluster>  (27) 
3

$$$$

     RDKit          3D

 47 50  0  0  0  0  0  0  0  0999 V2000
  139.2470   74.9840  222.7030 O   0  0  0  0  0  0  0  0  0  0  0  0
  139.9860   75.2470  221.7100 C   0  0  0  0  0  0  0  0  0  0  0  0
  139.7620   76.4210  220.9260 N   0  0  0  0  0  0  0  0  0  0  0  0
  138.6610   77.2860  221.3160 C   0  0  0  0  0  0  0  0  0  0  0  0
  139.1260   78.3690  222.2100 C   0  0  0  0  0  0  0  0  0  0  0  0
  138.3190   78.9570  222.9740 O   0  0  0  0  0  0  0  0  0  0  0  0
  140.5010   78.7210  222.1790 N   0  0  0  0  0  0  0  0  0  0  0  0
  141.4550   78.2500  223.1660 C   0  0  0  0  0  0  0  0  0  0  0  0
  142.0170   79.4740  223.8330 C   0  0  0  0  0  0  0  0  0  0  0  0
  142.6380   80.4460  222.8700 C   0  0  0  0  0  0  0  0  0  0  0  0
  141.8030   80.7280  221.6710 C   0  0  0  0  0  0  0  0  0  0  0  0
  141.0210   79.5870  221.1310 C   0  0  1  0  0  0  0  0  0  0  0  0
  141.7900   78.7310  220.1950 C   0  0  0  0  0  0  0  0  0  0  0  0
  142.0770   79.1290  218.9310 N   0  0  0  0  0  0  0  0  0  0  0  0
  142.7700   78.1340  218.3740 N   0  0  0  0  0  0  0  0  0  0  0  0
  142.9120   77.1430  219.2620 C   0  0  0  0  0  0  0  0  0  0  0  0
  142.3050   77.4980  220.4070 N   0  0  0  0  0  0  0  0  0  0  0  0
  141.0870   74.3530  221.3440 C   0  0  0  0  0  0  0  0  0  0  0  0
  140.8530   72.9940  221.2770 C   0  0  0  0  0  0  0  0  0  0  0  0
  141.8510   72.0850  220.9360 C   0  0  0  0  0  0  0  0  0  0  0  0
  143.0920   72.6290  220.6690 C   0  0  0  0  0  0  0  0  0  0  0  0
  144.1510   71.8110  220.3210 C   0  0  0  0  0  0  0  0  0  0  0  0
  145.4120   72.2960  220.0430 C   0  0  0  0  0  0  0  0  0  0  0  0
  146.3840   71.4280  219.7130 F   0  0  0  0  0  0  0  0  0  0  0  0
  145.6590   73.6710  220.1090 C   0  0  0  0  0  0  0  0  0  0  0  0
  144.5950   74.4750  220.4560 C   0  0  0  0  0  0  0  0  0  0  0  0
  143.3380   73.9850  220.7330 C   0  0  0  0  0  0  0  0  0  0  0  0
  142.3250   74.8090  221.0700 N   0  0  0  0  0  0  0  0  0  0  0  0
  140.3840   76.6260  220.1030 H   0  0  0  0  0  0  0  0  0  0  0  0
  138.2166   77.7310  220.4135 H   0  0  0  0  0  0  0  0  0  0  0  0
  137.9166   76.6824  221.8560 H   0  0  0  0  0  0  0  0  0  0  0  0
  140.9518   77.6108  223.9064 H   0  0  0  0  0  0  0  0  0  0  0  0
  142.2500   77.6514  222.6974 H   0  0  0  0  0  0  0  0  0  0  0  0
  141.2026   79.9848  224.3676 H   0  0  0  0  0  0  0  0  0  0  0  0
  142.8132   79.1368  224.5130 H   0  0  0  0  0  0  0  0  0  0  0  0
  142.8132   81.3938  223.4001 H   0  0  0  0  0  0  0  0  0  0  0  0
  143.5686   79.9845  222.5081 H   0  0  0  0  0  0  0  0  0  0  0  0
  141.0930   81.5250  221.9369 H   0  0  0  0  0  0  0  0  0  0  0  0
  142.5132   80.9993  220.8760 H   0  0  0  0  0  0  0  0  0  0  0  0
  140.1959   80.0712  220.5880 H   0  0  0  0  0  0  0  0  0  0  0  0
  143.4389   76.1940  219.0839 H   0  0  0  0  0  0  0  0  0  0  0  0
  142.2370   76.9510  221.2840 H   0  0  0  0  0  0  0  0  0  0  0  0
  139.8442   72.6167  221.5005 H   0  0  0  0  0  0  0  0  0  0  0  0
  141.6630   71.0025  220.8827 H   0  0  0  0  0  0  0  0  0  0  0  0
  143.9804   70.7258  220.2633 H   0  0  0  0  0  0  0  0  0  0  0  0
  146.6533   74.0899  219.8945 H   0  0  0  0  0  0  0  0  0  0  0  0
  144.7576   75.5613  220.5146 H   0  0  0  0  0  0  0  0  0  0  0  0
  1  2  2  0
  2  3  1  0
  3  4  1  0
  4  5  1  0
  5  6  2  0
  5  7  1  0
  7  8  1  0
  8  9  1  0
  9 10  1  0
 10 11  1  0
 11 12  1  0
 12 13  1  0
 13 14  2  0
 14 15  1  0
 15 16  2  0
 16 17  1  0
  2 18  1  0
 18 19  2  0
 19 20  1  0
 20 21  2  0
 21 22  1  0
 22 23  2  0
 23 24  1  0
 23 25  1  0
 25 26  2  0
 26 27  1  0
 27 28  2  0
 12  7  1  0
 17 13  1  0
 28 18  1  0
 27 21  1  0
  3 29  1  0
  4 30  1  0
  4 31  1  0
  8 32  1  0
  8 33  1  0
  9 34  1  0
  9 35  1  0
 10 36  1  0
 10 37  1  0
 11 38  1  0
 11 39  1  0
 12 40  1  6
 16 41  1  0
 17 42  1  0
 19 43  1  0
 20 44  1  0
 22 45  1  0
 25 46  1  0
 26 47  1  0
M  END
>  <smiles>  (28) 
O=C(NCC(=O)N1CCCC[C@H]1c1nnc[nH]1)c1ccc2cc(F)ccc2n1

>  <score_type>  (28) 
oracle

>  <origin>  (28) 
autodockgpu

>  <m_score__min__energy>  (28) 
-8.2599999999999998

>  <m_primary>  (28) 
energy

>  <rmsd>  (28) 
6.135012274955534

>  <m_score__min__rmsd>  (28) 
6.135012274955534

>  <meeko>  (28) 
{"free_energy": -6.96, "intermolecular_energy": -8.45, "internal_energy": -2.78, "cluster_size": 17, "cluster_id": 6, "rank_in_cluster": 1}

>  <energy>  (28) 
-7.09

>  <cluster_rmsd>  (28) 
0.0

>  <cluster>  (28) 
4

$$$$

     RDKit          3D

 47 50  0  0  0  0  0  0  0  0999 V2000
  139.0200   74.4580  222.3390 O   0  0  0  0  0  0  0  0  0  0  0  0
  140.0040   74.9650  221.7280 C   0  0  0  0  0  0  0  0  0  0  0  0
  140.0070   76.3500  221.3740 N   0  0  0  0  0  0  0  0  0  0  0  0
  138.8430   77.1370  221.7430 C   0  0  0  0  0  0  0  0  0  0  0  0
  139.2380   78.3760  222.4470 C   0  0  0  0  0  0  0  0  0  0  0  0
  138.4080   79.0030  223.1530 O   0  0  0  0  0  0  0  0  0  0  0  0
  140.5750   78.8320  222.3020 N   0  0  0  0  0  0  0  0  0  0  0  0
  141.6290   78.4850  223.2370 C   0  0  0  0  0  0  0  0  0  0  0  0
  142.1350   79.7790  223.8100 C   0  0  0  0  0  0  0  0  0  0  0  0
  142.6070   80.7490  222.7650 C   0  0  0  0  0  0  0  0  0  0  0  0
  141.6730   80.9080  221.6180 C   0  0  0  0  0  0  0  0  0  0  0  0
  140.9500   79.6850  221.1840 C   0  0  1  0  0  0  0  0  0  0  0  0
  141.7200   78.8480  220.2320 C   0  0  0  0  0  0  0  0  0  0  0  0
  142.1850   77.6210  220.5720 N   0  0  0  0  0  0  0  0  0  0  0  0
  142.8230   77.1520  219.4970 N   0  0  0  0  0  0  0  0  0  0  0  0
  142.7600   78.0590  218.5150 C   0  0  0  0  0  0  0  0  0  0  0  0
  142.0740   79.1270  218.9560 N   0  0  0  0  0  0  0  0  0  0  0  0
  141.1630   74.1430  221.3710 C   0  0  0  0  0  0  0  0  0  0  0  0
  141.0210   72.7700  221.3220 C   0  0  0  0  0  0  0  0  0  0  0  0
  142.0780   71.9260  220.9900 C   0  0  0  0  0  0  0  0  0  0  0  0
  143.2790   72.5490  220.7130 C   0  0  0  0  0  0  0  0  0  0  0  0
  144.3890   71.8000  220.3720 C   0  0  0  0  0  0  0  0  0  0  0  0
  145.6140   72.3660  220.0850 C   0  0  0  0  0  0  0  0  0  0  0  0
  146.6420   71.5610  219.7630 F   0  0  0  0  0  0  0  0  0  0  0  0
  145.7690   73.7540  220.1330 C   0  0  0  0  0  0  0  0  0  0  0  0
  144.6530   74.4890  220.4730 C   0  0  0  0  0  0  0  0  0  0  0  0
  143.4320   73.9190  220.7590 C   0  0  0  0  0  0  0  0  0  0  0  0
  142.3660   74.6770  221.0870 N   0  0  0  0  0  0  0  0  0  0  0  0
  140.8330   76.7580  220.8650 H   0  0  0  0  0  0  0  0  0  0  0  0
  138.2863   77.4034  220.8324 H   0  0  0  0  0  0  0  0  0  0  0  0
  138.2159   76.5367  222.4185 H   0  0  0  0  0  0  0  0  0  0  0  0
  141.2307   77.8448  224.0380 H   0  0  0  0  0  0  0  0  0  0  0  0
  142.4361   77.9288  222.7378 H   0  0  0  0  0  0  0  0  0  0  0  0
  141.3209   80.2498  224.3807 H   0  0  0  0  0  0  0  0  0  0  0  0
  143.0008   79.5373  224.4439 H   0  0  0  0  0  0  0  0  0  0  0  0
  142.7402   81.7318  223.2409 H   0  0  0  0  0  0  0  0  0  0  0  0
  143.5448   80.3441  222.3568 H   0  0  0  0  0  0  0  0  0  0  0  0
  140.9210   81.6597  221.8998 H   0  0  0  0  0  0  0  0  0  0  0  0
  142.3037   81.1948  220.7636 H   0  0  0  0  0  0  0  0  0  0  0  0
  140.0530   80.0772  220.6824 H   0  0  0  0  0  0  0  0  0  0  0  0
  143.1977   77.9484  217.5119 H   0  0  0  0  0  0  0  0  0  0  0  0
  141.8510   79.9950  218.4370 H   0  0  0  0  0  0  0  0  0  0  0  0
  140.0404   72.3284  221.5529 H   0  0  0  0  0  0  0  0  0  0  0  0
  141.9635   70.8327  220.9509 H   0  0  0  0  0  0  0  0  0  0  0  0
  144.2917   70.7052  220.3274 H   0  0  0  0  0  0  0  0  0  0  0  0
  146.7326   74.2358  219.9108 H   0  0  0  0  0  0  0  0  0  0  0  0
  144.7421   75.5845  220.5181 H   0  0  0  0  0  0  0  0  0  0  0  0
  1  2  2  0
  2  3  1  0
  3  4  1  0
  4  5  1  0
  5  6  2  0
  5  7  1  0
  7  8  1  0
  8  9  1  0
  9 10  1  0
 10 11  1  0
 11 12  1  0
 12 13  1  0
 13 14  2  0
 14 15  1  0
 15 16  2  0
 16 17  1  0
  2 18  1  0
 18 19  2  0
 19 20  1  0
 20 21  2  0
 21 22  1  0
 22 23  2  0
 23 24  1  0
 23 25  1  0
 25 26  2  0
 26 27  1  0
 27 28  2  0
 12  7  1  0
 17 13  1  0
 28 18  1  0
 27 21  1  0
  3 29  1  0
  4 30  1  0
  4 31  1  0
  8 32  1  0
  8 33  1  0
  9 34  1  0
  9 35  1  0
 10 36  1  0
 10 37  1  0
 11 38  1  0
 11 39  1  0
 12 40  1  6
 16 41  1  0
 17 42  1  0
 19 43  1  0
 20 44  1  0
 22 45  1  0
 25 46  1  0
 26 47  1  0
M  END
>  <smiles>  (29) 
O=C(NCC(=O)N1CCCC[C@H]1c1nnc[nH]1)c1ccc2cc(F)ccc2n1

>  <score_type>  (29) 
oracle

>  <origin>  (29) 
autodockgpu

>  <m_score__min__energy>  (29) 
-8.2599999999999998

>  <m_primary>  (29) 
energy

>  <rmsd>  (29) 
6.211793114977562

>  <m_score__min__rmsd>  (29) 
6.211793114977562

>  <meeko>  (29) 
{"free_energy": -6.47, "intermolecular_energy": -7.96, "internal_energy": -3.0, "cluster_size": 17, "cluster_id": 6, "rank_in_cluster": 16}

>  <energy>  (29) 
-7.06

>  <cluster_rmsd>  (29) 
0.0

>  <cluster>  (29) 
5

$$$$

     RDKit          3D

 47 50  0  0  0  0  0  0  0  0999 V2000
  138.7500   74.5000  222.3210 O   0  0  0  0  0  0  0  0  0  0  0  0
  139.8240   75.0290  221.9100 C   0  0  0  0  0  0  0  0  0  0  0  0
  139.9470   76.4500  221.8170 N   0  0  0  0  0  0  0  0  0  0  0  0
  138.7970   77.2480  222.2100 C   0  0  0  0  0  0  0  0  0  0  0  0
  139.2170   78.5700  222.7240 C   0  0  0  0  0  0  0  0  0  0  0  0
  138.4080   79.2960  223.3550 O   0  0  0  0  0  0  0  0  0  0  0  0
  140.5520   78.9900  222.4820 N   0  0  0  0  0  0  0  0  0  0  0  0
  141.6550   78.6450  223.3600 C   0  0  0  0  0  0  0  0  0  0  0  0
  142.2240   79.9420  223.8610 C   0  0  0  0  0  0  0  0  0  0  0  0
  142.6500   80.8710  222.7610 C   0  0  0  0  0  0  0  0  0  0  0  0
  141.6490   81.0200  221.6700 C   0  0  0  0  0  0  0  0  0  0  0  0
  140.8740   79.8030  221.3180 C   0  0  1  0  0  0  0  0  0  0  0  0
  141.5640   78.9210  220.3450 C   0  0  0  0  0  0  0  0  0  0  0  0
  142.0300   77.6960  220.6930 N   0  0  0  0  0  0  0  0  0  0  0  0
  142.5860   77.1820  219.5940 N   0  0  0  0  0  0  0  0  0  0  0  0
  142.4730   78.0580  218.5900 C   0  0  0  0  0  0  0  0  0  0  0  0
  141.8370   79.1520  219.0400 N   0  0  0  0  0  0  0  0  0  0  0  0
  140.9640   74.1940  221.5210 C   0  0  0  0  0  0  0  0  0  0  0  0
  140.8190   72.8210  221.5190 C   0  0  0  0  0  0  0  0  0  0  0  0
  141.8580   71.9660  221.1610 C   0  0  0  0  0  0  0  0  0  0  0  0
  143.0450   72.5790  220.8090 C   0  0  0  0  0  0  0  0  0  0  0  0
  144.1370   71.8190  220.4370 C   0  0  0  0  0  0  0  0  0  0  0  0
  145.3470   72.3740  220.0750 C   0  0  0  0  0  0  0  0  0  0  0  0
  146.3580   71.5590  219.7270 F   0  0  0  0  0  0  0  0  0  0  0  0
  145.5040   73.7630  220.0740 C   0  0  0  0  0  0  0  0  0  0  0  0
  144.4060   74.5090  220.4460 C   0  0  0  0  0  0  0  0  0  0  0  0
  143.2000   73.9500  220.8080 C   0  0  0  0  0  0  0  0  0  0  0  0
  142.1520   74.7180  221.1650 N   0  0  0  0  0  0  0  0  0  0  0  0
  140.8450   76.8750  221.4730 H   0  0  0  0  0  0  0  0  0  0  0  0
  138.1447   77.3929  221.3362 H   0  0  0  0  0  0  0  0  0  0  0  0
  138.2598   76.7168  223.0095 H   0  0  0  0  0  0  0  0  0  0  0  0
  141.2938   78.0377  224.2031 H   0  0  0  0  0  0  0  0  0  0  0  0
  142.4167   78.0556  222.8286 H   0  0  0  0  0  0  0  0  0  0  0  0
  141.4580   80.4477  224.4673 H   0  0  0  0  0  0  0  0  0  0  0  0
  143.1230   79.6977  224.4459 H   0  0  0  0  0  0  0  0  0  0  0  0
  142.8342   81.8632  223.1987 H   0  0  0  0  0  0  0  0  0  0  0  0
  143.5512   80.4330  222.3071 H   0  0  0  0  0  0  0  0  0  0  0  0
  140.9327   81.7967  221.9760 H   0  0  0  0  0  0  0  0  0  0  0  0
  142.2306   81.2681  220.7699 H   0  0  0  0  0  0  0  0  0  0  0  0
  139.9563   80.2027  220.8618 H   0  0  0  0  0  0  0  0  0  0  0  0
  142.8405   77.9074  217.5642 H   0  0  0  0  0  0  0  0  0  0  0  0
  141.5950   80.0080  218.5090 H   0  0  0  0  0  0  0  0  0  0  0  0
  139.8505   72.3882  221.8099 H   0  0  0  0  0  0  0  0  0  0  0  0
  141.7412   70.8722  221.1586 H   0  0  0  0  0  0  0  0  0  0  0  0
  144.0374   70.7236  220.4291 H   0  0  0  0  0  0  0  0  0  0  0  0
  146.4555   74.2368  219.7907 H   0  0  0  0  0  0  0  0  0  0  0  0
  144.4974   75.6052  220.4542 H   0  0  0  0  0  0  0  0  0  0  0  0
  1  2  2  0
  2  3  1  0
  3  4  1  0
  4  5  1  0
  5  6  2  0
  5  7  1  0
  7  8  1  0
  8  9  1  0
  9 10  1  0
 10 11  1  0
 11 12  1  0
 12 13  1  0
 13 14  2  0
 14 15  1  0
 15 16  2  0
 16 17  1  0
  2 18  1  0
 18 19  2  0
 19 20  1  0
 20 21  2  0
 21 22  1  0
 22 23  2  0
 23 24  1  0
 23 25  1  0
 25 26  2  0
 26 27  1  0
 27 28  2  0
 12  7  1  0
 17 13  1  0
 28 18  1  0
 27 21  1  0
  3 29  1  0
  4 30  1  0
  4 31  1  0
  8 32  1  0
  8 33  1  0
  9 34  1  0
  9 35  1  0
 10 36  1  0
 10 37  1  0
 11 38  1  0
 11 39  1  0
 12 40  1  6
 16 41  1  0
 17 42  1  0
 19 43  1  0
 20 44  1  0
 22 45  1  0
 25 46  1  0
 26 47  1  0
M  END
>  <smiles>  (30) 
O=C(NCC(=O)N1CCCC[C@H]1c1nnc[nH]1)c1ccc2cc(F)ccc2n1

>  <score_type>  (30) 
oracle

>  <origin>  (30) 
autodockgpu

>  <m_score__min__energy>  (30) 
-8.2599999999999998

>  <m_primary>  (30) 
energy

>  <rmsd>  (30) 
6.21039974193617

>  <m_score__min__rmsd>  (30) 
6.21039974193617

>  <meeko>  (30) 
{"free_energy": -6.48, "intermolecular_energy": -7.97, "internal_energy": -2.92, "cluster_size": 17, "cluster_id": 6, "rank_in_cluster": 14}

>  <energy>  (30) 
-6.96

>  <cluster_rmsd>  (30) 
0.0

>  <cluster>  (30) 
6

$$$$

     RDKit          3D

 47 50  0  0  0  0  0  0  0  0999 V2000
  141.1230   72.3250  221.6130 O   0  0  0  0  0  0  0  0  0  0  0  0
  140.2060   72.4440  222.4760 C   0  0  0  0  0  0  0  0  0  0  0  0
  139.2070   73.4570  222.3420 N   0  0  0  0  0  0  0  0  0  0  0  0
  139.2910   74.3320  221.1850 C   0  0  0  0  0  0  0  0  0  0  0  0
  139.2390   75.7540  221.5870 C   0  0  0  0  0  0  0  0  0  0  0  0
  138.1550   76.2740  221.9590 O   0  0  0  0  0  0  0  0  0  0  0  0
  140.4400   76.5090  221.5390 N   0  0  0  0  0  0  0  0  0  0  0  0
  141.0330   77.1170  222.7160 C   0  0  0  0  0  0  0  0  0  0  0  0
  141.0770   78.5960  222.4560 C   0  0  0  0  0  0  0  0  0  0  0  0
  141.8190   78.9590  221.2010 C   0  0  0  0  0  0  0  0  0  0  0  0
  141.4470   78.1380  220.0170 C   0  0  0  0  0  0  0  0  0  0  0  0
  141.1410   76.7080  220.2790 C   0  0  1  0  0  0  0  0  0  0  0  0
  142.3420   75.8390  220.3030 C   0  0  0  0  0  0  0  0  0  0  0  0
  143.5590   76.2870  219.9070 N   0  0  0  0  0  0  0  0  0  0  0  0
  144.4010   75.2620  220.0560 N   0  0  0  0  0  0  0  0  0  0  0  0
  143.7320   74.2050  220.5290 C   0  0  0  0  0  0  0  0  0  0  0  0
  142.4420   74.5460  220.6910 N   0  0  0  0  0  0  0  0  0  0  0  0
  140.1510   71.5450  223.6310 C   0  0  0  0  0  0  0  0  0  0  0  0
  139.5900   70.2920  223.4790 C   0  0  0  0  0  0  0  0  0  0  0  0
  139.5040   69.3850  224.5320 C   0  0  0  0  0  0  0  0  0  0  0  0
  140.0140   69.8180  225.7400 C   0  0  0  0  0  0  0  0  0  0  0  0
  139.9760   68.9930  226.8480 C   0  0  0  0  0  0  0  0  0  0  0  0
  140.4700   69.3700  228.0800 C   0  0  0  0  0  0  0  0  0  0  0  0
  140.3920   68.5030  229.1050 F   0  0  0  0  0  0  0  0  0  0  0  0
  141.0380   70.6370  228.2450 C   0  0  0  0  0  0  0  0  0  0  0  0
  141.0700   71.4490  227.1320 C   0  0  0  0  0  0  0  0  0  0  0  0
  140.5750   71.0680  225.9040 C   0  0  0  0  0  0  0  0  0  0  0  0
  140.6270   71.8960  224.8410 N   0  0  0  0  0  0  0  0  0  0  0  0
  138.4500   73.5440  223.0690 H   0  0  0  0  0  0  0  0  0  0  0  0
  140.2382   74.1419  220.6591 H   0  0  0  0  0  0  0  0  0  0  0  0
  138.4344   74.1238  220.5271 H   0  0  0  0  0  0  0  0  0  0  0  0
  140.4186   76.9053  223.6035 H   0  0  0  0  0  0  0  0  0  0  0  0
  142.0397   76.7165  222.9062 H   0  0  0  0  0  0  0  0  0  0  0  0
  140.0446   78.9659  222.3701 H   0  0  0  0  0  0  0  0  0  0  0  0
  141.6153   79.0578  223.2968 H   0  0  0  0  0  0  0  0  0  0  0  0
  141.6107   80.0139  220.9693 H   0  0  0  0  0  0  0  0  0  0  0  0
  142.8848   78.7698  221.3964 H   0  0  0  0  0  0  0  0  0  0  0  0
  140.5562   78.5933  219.5597 H   0  0  0  0  0  0  0  0  0  0  0  0
  142.3370   78.1344  219.3705 H   0  0  0  0  0  0  0  0  0  0  0  0
  140.4999   76.4205  219.4327 H   0  0  0  0  0  0  0  0  0  0  0  0
  144.1661   73.2186  220.7493 H   0  0  0  0  0  0  0  0  0  0  0  0
  141.6690   73.9520  221.0400 H   0  0  0  0  0  0  0  0  0  0  0  0
  139.1981   70.0010  222.4933 H   0  0  0  0  0  0  0  0  0  0  0  0
  139.0581   68.3869  224.4094 H   0  0  0  0  0  0  0  0  0  0  0  0
  139.5325   67.9918  226.7432 H   0  0  0  0  0  0  0  0  0  0  0  0
  141.4390   70.9688  229.2141 H   0  0  0  0  0  0  0  0  0  0  0  0
  141.5128   72.4513  227.2289 H   0  0  0  0  0  0  0  0  0  0  0  0
  1  2  2  0
  2  3  1  0
  3  4  1  0
  4  5  1  0
  5  6  2  0
  5  7  1  0
  7  8  1  0
  8  9  1  0
  9 10  1  0
 10 11  1  0
 11 12  1  0
 12 13  1  0
 13 14  2  0
 14 15  1  0
 15 16  2  0
 16 17  1  0
  2 18  1  0
 18 19  2  0
 19 20  1  0
 20 21  2  0
 21 22  1  0
 22 23  2  0
 23 24  1  0
 23 25  1  0
 25 26  2  0
 26 27  1  0
 27 28  2  0
 12  7  1  0
 17 13  1  0
 28 18  1  0
 27 21  1  0
  3 29  1  0
  4 30  1  0
  4 31  1  0
  8 32  1  0
  8 33  1  0
  9 34  1  0
  9 35  1  0
 10 36  1  0
 10 37  1  0
 11 38  1  0
 11 39  1  0
 12 40  1  6
 16 41  1  0
 17 42  1  0
 19 43  1  0
 20 44  1  0
 22 45  1  0
 25 46  1  0
 26 47  1  0
M  END
>  <smiles>  (31) 
O=C(NCC(=O)N1CCCC[C@H]1c1nnc[nH]1)c1ccc2cc(F)ccc2n1

>  <score_type>  (31) 
oracle

>  <origin>  (31) 
autodockgpu

>  <m_score__min__energy>  (31) 
-8.2599999999999998

>  <m_primary>  (31) 
energy

>  <rmsd>  (31) 
3.0389599774350753

>  <m_score__min__rmsd>  (31) 
3.0389599774350753

>  <meeko>  (31) 
{"free_energy": -7.68, "intermolecular_energy": -9.17, "internal_energy": -2.22, "cluster_size": 6, "cluster_id": 3, "rank_in_cluster": 2}

>  <energy>  (31) 
-6.95

>  <cluster_rmsd>  (31) 
0.09

>  <cluster>  (31) 
6

$$$$

     RDKit          3D

 47 50  0  0  0  0  0  0  0  0999 V2000
  139.1280   74.5600  222.3220 O   0  0  0  0  0  0  0  0  0  0  0  0
  140.0400   75.0070  221.5670 C   0  0  0  0  0  0  0  0  0  0  0  0
  139.9580   76.3280  221.0280 N   0  0  0  0  0  0  0  0  0  0  0  0
  138.7940   77.1230  221.3810 C   0  0  0  0  0  0  0  0  0  0  0  0
  139.1830   78.3200  222.1580 C   0  0  0  0  0  0  0  0  0  0  0  0
  138.3330   78.9370  222.8490 O   0  0  0  0  0  0  0  0  0  0  0  0
  140.5350   78.7490  222.0980 N   0  0  0  0  0  0  0  0  0  0  0  0
  141.5340   78.3330  223.0640 C   0  0  0  0  0  0  0  0  0  0  0  0
  142.0410   79.5860  223.7200 C   0  0  0  0  0  0  0  0  0  0  0  0
  142.5850   80.5910  222.7450 C   0  0  0  0  0  0  0  0  0  0  0  0
  141.7110   80.8260  221.5640 C   0  0  0  0  0  0  0  0  0  0  0  0
  140.9830   79.6430  221.0400 C   0  0  1  0  0  0  0  0  0  0  0  0
  141.7790   78.8310  220.0870 C   0  0  0  0  0  0  0  0  0  0  0  0
  142.1930   77.5750  220.3880 N   0  0  0  0  0  0  0  0  0  0  0  0
  142.8730   77.1410  219.3240 N   0  0  0  0  0  0  0  0  0  0  0  0
  142.8850   78.0960  218.3880 C   0  0  0  0  0  0  0  0  0  0  0  0
  142.2050   79.1610  218.8460 N   0  0  0  0  0  0  0  0  0  0  0  0
  141.2010   74.1780  221.2310 C   0  0  0  0  0  0  0  0  0  0  0  0
  141.0510   72.8060  221.1770 C   0  0  0  0  0  0  0  0  0  0  0  0
  142.1090   71.9560  220.8650 C   0  0  0  0  0  0  0  0  0  0  0  0
  143.3190   72.5720  220.6120 C   0  0  0  0  0  0  0  0  0  0  0  0
  144.4310   71.8170  220.2920 C   0  0  0  0  0  0  0  0  0  0  0  0
  145.6650   72.3760  220.0290 C   0  0  0  0  0  0  0  0  0  0  0  0
  146.6940   71.5650  219.7260 F   0  0  0  0  0  0  0  0  0  0  0  0
  145.8270   73.7630  220.0820 C   0  0  0  0  0  0  0  0  0  0  0  0
  144.7090   74.5040  220.4020 C   0  0  0  0  0  0  0  0  0  0  0  0
  143.4800   73.9420  220.6630 C   0  0  0  0  0  0  0  0  0  0  0  0
  142.4120   74.7050  220.9720 N   0  0  0  0  0  0  0  0  0  0  0  0
  140.7240   76.6850  220.4010 H   0  0  0  0  0  0  0  0  0  0  0  0
  138.2843   77.4424  220.4600 H   0  0  0  0  0  0  0  0  0  0  0  0
  138.1245   76.5071  221.9994 H   0  0  0  0  0  0  0  0  0  0  0  0
  141.0829   77.6670  223.8143 H   0  0  0  0  0  0  0  0  0  0  0  0
  142.3512   77.7799  222.5780 H   0  0  0  0  0  0  0  0  0  0  0  0
  141.2113   80.0504  224.2731 H   0  0  0  0  0  0  0  0  0  0  0  0
  142.8696   79.2939  224.3819 H   0  0  0  0  0  0  0  0  0  0  0  0
  142.7177   81.5472  223.2723 H   0  0  0  0  0  0  0  0  0  0  0  0
  143.5318   80.1819  222.3627 H   0  0  0  0  0  0  0  0  0  0  0  0
  140.9634   81.5823  221.8452 H   0  0  0  0  0  0  0  0  0  0  0  0
  142.3881   81.1366  220.7546 H   0  0  0  0  0  0  0  0  0  0  0  0
  140.1206   80.0802  220.5155 H   0  0  0  0  0  0  0  0  0  0  0  0
  143.3717   78.0220  217.4043 H   0  0  0  0  0  0  0  0  0  0  0  0
  142.0330   80.0600  218.3610 H   0  0  0  0  0  0  0  0  0  0  0  0
  140.0631   72.3704  221.3874 H   0  0  0  0  0  0  0  0  0  0  0  0
  141.9887   70.8634  220.8227 H   0  0  0  0  0  0  0  0  0  0  0  0
  144.3282   70.7228  220.2448 H   0  0  0  0  0  0  0  0  0  0  0  0
  146.7973   74.2396  219.8787 H   0  0  0  0  0  0  0  0  0  0  0  0
  144.8041   75.5988  220.4511 H   0  0  0  0  0  0  0  0  0  0  0  0
  1  2  2  0
  2  3  1  0
  3  4  1  0
  4  5  1  0
  5  6  2  0
  5  7  1  0
  7  8  1  0
  8  9  1  0
  9 10  1  0
 10 11  1  0
 11 12  1  0
 12 13  1  0
 13 14  2  0
 14 15  1  0
 15 16  2  0
 16 17  1  0
  2 18  1  0
 18 19  2  0
 19 20  1  0
 20 21  2  0
 21 22  1  0
 22 23  2  0
 23 24  1  0
 23 25  1  0
 25 26  2  0
 26 27  1  0
 27 28  2  0
 12  7  1  0
 17 13  1  0
 28 18  1  0
 27 21  1  0
  3 29  1  0
  4 30  1  0
  4 31  1  0
  8 32  1  0
  8 33  1  0
  9 34  1  0
  9 35  1  0
 10 36  1  0
 10 37  1  0
 11 38  1  0
 11 39  1  0
 12 40  1  6
 16 41  1  0
 17 42  1  0
 19 43  1  0
 20 44  1  0
 22 45  1  0
 25 46  1  0
 26 47  1  0
M  END
>  <smiles>  (32) 
O=C(NCC(=O)N1CCCC[C@H]1c1nnc[nH]1)c1ccc2cc(F)ccc2n1

>  <score_type>  (32) 
oracle

>  <origin>  (32) 
autodockgpu

>  <m_score__min__energy>  (32) 
-8.2599999999999998

>  <m_primary>  (32) 
energy

>  <rmsd>  (32) 
6.213687605911617

>  <m_score__min__rmsd>  (32) 
6.213687605911617

>  <meeko>  (32) 
{"free_energy": -6.49, "intermolecular_energy": -7.98, "internal_energy": -2.99, "cluster_size": 17, "cluster_id": 6, "rank_in_cluster": 12}

>  <energy>  (32) 
-6.94

>  <cluster_rmsd>  (32) 
0.08

>  <cluster>  (32) 
6

$$$$

     RDKit          3D

 47 50  0  0  0  0  0  0  0  0999 V2000
  139.1230   74.5740  222.3380 O   0  0  0  0  0  0  0  0  0  0  0  0
  140.0300   75.0160  221.5750 C   0  0  0  0  0  0  0  0  0  0  0  0
  139.9460   76.3350  221.0310 N   0  0  0  0  0  0  0  0  0  0  0  0
  138.7850   77.1330  221.3900 C   0  0  0  0  0  0  0  0  0  0  0  0
  139.1830   78.3450  222.1400 C   0  0  0  0  0  0  0  0  0  0  0  0
  138.3370   78.9870  222.8120 O   0  0  0  0  0  0  0  0  0  0  0  0
  140.5400   78.7580  222.0760 N   0  0  0  0  0  0  0  0  0  0  0  0
  141.5370   78.3320  223.0410 C   0  0  0  0  0  0  0  0  0  0  0  0
  142.0590   79.5810  223.6930 C   0  0  0  0  0  0  0  0  0  0  0  0
  142.6130   80.5770  222.7150 C   0  0  0  0  0  0  0  0  0  0  0  0
  141.7390   80.8200  221.5350 C   0  0  0  0  0  0  0  0  0  0  0  0
  140.9960   79.6440  221.0150 C   0  0  1  0  0  0  0  0  0  0  0  0
  141.7810   78.8210  220.0620 C   0  0  0  0  0  0  0  0  0  0  0  0
  142.1810   77.5610  220.3650 N   0  0  0  0  0  0  0  0  0  0  0  0
  142.8530   77.1170  219.3010 N   0  0  0  0  0  0  0  0  0  0  0  0
  142.8740   78.0700  218.3620 C   0  0  0  0  0  0  0  0  0  0  0  0
  142.2080   79.1440  218.8200 N   0  0  0  0  0  0  0  0  0  0  0  0
  141.1870   74.1840  221.2340 C   0  0  0  0  0  0  0  0  0  0  0  0
  141.0290   72.8140  221.1580 C   0  0  0  0  0  0  0  0  0  0  0  0
  142.0830   71.9630  220.8390 C   0  0  0  0  0  0  0  0  0  0  0  0
  143.2980   72.5740  220.6030 C   0  0  0  0  0  0  0  0  0  0  0  0
  144.4080   71.8160  220.2790 C   0  0  0  0  0  0  0  0  0  0  0  0
  145.6470   72.3700  220.0320 C   0  0  0  0  0  0  0  0  0  0  0  0
  146.6720   71.5580  219.7230 F   0  0  0  0  0  0  0  0  0  0  0  0
  145.8180   73.7560  220.1070 C   0  0  0  0  0  0  0  0  0  0  0  0
  144.7030   74.4990  220.4310 C   0  0  0  0  0  0  0  0  0  0  0  0
  143.4680   73.9410  220.6770 C   0  0  0  0  0  0  0  0  0  0  0  0
  142.4040   74.7070  220.9900 N   0  0  0  0  0  0  0  0  0  0  0  0
  140.7080   76.6890  220.3980 H   0  0  0  0  0  0  0  0  0  0  0  0
  138.2589   77.4349  220.4724 H   0  0  0  0  0  0  0  0  0  0  0  0
  138.1281   76.5259  222.0302 H   0  0  0  0  0  0  0  0  0  0  0  0
  141.0802   77.6726  223.7937 H   0  0  0  0  0  0  0  0  0  0  0  0
  142.3468   77.7684  222.5546 H   0  0  0  0  0  0  0  0  0  0  0  0
  141.2353   80.0562  224.2459 H   0  0  0  0  0  0  0  0  0  0  0  0
  142.8851   79.2812  224.3546 H   0  0  0  0  0  0  0  0  0  0  0  0
  142.7584   81.5327  223.2400 H   0  0  0  0  0  0  0  0  0  0  0  0
  143.5541   80.1558  222.3316 H   0  0  0  0  0  0  0  0  0  0  0  0
  141.0009   81.5855  221.8163 H   0  0  0  0  0  0  0  0  0  0  0  0
  142.4178   81.1212  220.7235 H   0  0  0  0  0  0  0  0  0  0  0  0
  140.1374   80.0894  220.4912 H   0  0  0  0  0  0  0  0  0  0  0  0
  143.3569   77.9880  217.3771 H   0  0  0  0  0  0  0  0  0  0  0  0
  142.0450   80.0440  218.3330 H   0  0  0  0  0  0  0  0  0  0  0  0
  140.0373   72.3812  221.3562 H   0  0  0  0  0  0  0  0  0  0  0  0
  141.9558   70.8720  220.7787 H   0  0  0  0  0  0  0  0  0  0  0  0
  144.2984   70.7233  220.2154 H   0  0  0  0  0  0  0  0  0  0  0  0
  146.7927   74.2292  219.9171 H   0  0  0  0  0  0  0  0  0  0  0  0
  144.8047   75.5923  220.4964 H   0  0  0  0  0  0  0  0  0  0  0  0
  1  2  2  0
  2  3  1  0
  3  4  1  0
  4  5  1  0
  5  6  2  0
  5  7  1  0
  7  8  1  0
  8  9  1  0
  9 10  1  0
 10 11  1  0
 11 12  1  0
 12 13  1  0
 13 14  2  0
 14 15  1  0
 15 16  2  0
 16 17  1  0
  2 18  1  0
 18 19  2  0
 19 20  1  0
 20 21  2  0
 21 22  1  0
 22 23  2  0
 23 24  1  0
 23 25  1  0
 25 26  2  0
 26 27  1  0
 27 28  2  0
 12  7  1  0
 17 13  1  0
 28 18  1  0
 27 21  1  0
  3 29  1  0
  4 30  1  0
  4 31  1  0
  8 32  1  0
  8 33  1  0
  9 34  1  0
  9 35  1  0
 10 36  1  0
 10 37  1  0
 11 38  1  0
 11 39  1  0
 12 40  1  6
 16 41  1  0
 17 42  1  0
 19 43  1  0
 20 44  1  0
 22 45  1  0
 25 46  1  0
 26 47  1  0
M  END
>  <smiles>  (33) 
O=C(NCC(=O)N1CCCC[C@H]1c1nnc[nH]1)c1ccc2cc(F)ccc2n1

>  <score_type>  (33) 
oracle

>  <origin>  (33) 
autodockgpu

>  <m_score__min__energy>  (33) 
-8.2599999999999998

>  <m_primary>  (33) 
energy

>  <rmsd>  (33) 
6.206863825252512

>  <m_score__min__rmsd>  (33) 
6.206863825252512

>  <meeko>  (33) 
{"free_energy": -6.5, "intermolecular_energy": -7.99, "internal_energy": -2.98, "cluster_size": 17, "cluster_id": 6, "rank_in_cluster": 11}

>  <energy>  (33) 
-6.94

>  <cluster_rmsd>  (33) 
0.07

>  <cluster>  (33) 
6

$$$$

     RDKit          3D

 47 50  0  0  0  0  0  0  0  0999 V2000
  140.3500   71.8470  220.9950 O   0  0  0  0  0  0  0  0  0  0  0  0
  139.8710   72.2740  222.0850 C   0  0  0  0  0  0  0  0  0  0  0  0
  139.2410   73.5560  222.1510 N   0  0  0  0  0  0  0  0  0  0  0  0
  139.1780   74.3340  220.9250 C   0  0  0  0  0  0  0  0  0  0  0  0
  139.1260   75.7830  221.2160 C   0  0  0  0  0  0  0  0  0  0  0  0
  138.0220   76.3800  221.2950 O   0  0  0  0  0  0  0  0  0  0  0  0
  140.3530   76.4750  221.4000 N   0  0  0  0  0  0  0  0  0  0  0  0
  140.8580   76.8430  222.7100 C   0  0  0  0  0  0  0  0  0  0  0  0
  140.9770   78.3400  222.7160 C   0  0  0  0  0  0  0  0  0  0  0  0
  141.8410   78.8740  221.6090 C   0  0  0  0  0  0  0  0  0  0  0  0
  141.5490   78.2860  220.2730 C   0  0  0  0  0  0  0  0  0  0  0  0
  141.1710   76.8510  220.2560 C   0  0  1  0  0  0  0  0  0  0  0  0
  142.3340   75.9310  220.2280 C   0  0  0  0  0  0  0  0  0  0  0  0
  142.2040   74.6030  220.4700 N   0  0  0  0  0  0  0  0  0  0  0  0
  143.4280   74.0820  220.3650 N   0  0  0  0  0  0  0  0  0  0  0  0
  144.2980   75.0540  220.0670 C   0  0  0  0  0  0  0  0  0  0  0  0
  143.6330   76.2180  219.9770 N   0  0  0  0  0  0  0  0  0  0  0  0
  139.9510   71.4640  223.3030 C   0  0  0  0  0  0  0  0  0  0  0  0
  139.5450   70.1450  223.2580 C   0  0  0  0  0  0  0  0  0  0  0  0
  139.5930   69.3160  224.3760 C   0  0  0  0  0  0  0  0  0  0  0  0
  140.0740   69.8960  225.5330 C   0  0  0  0  0  0  0  0  0  0  0  0
  140.1620   69.1560  226.6980 C   0  0  0  0  0  0  0  0  0  0  0  0
  140.6340   69.6810  227.8830 C   0  0  0  0  0  0  0  0  0  0  0  0
  140.6860   68.8900  228.9690 F   0  0  0  0  0  0  0  0  0  0  0  0
  141.0480   71.0150  227.9390 C   0  0  0  0  0  0  0  0  0  0  0  0
  140.9550   71.7400  226.7700 C   0  0  0  0  0  0  0  0  0  0  0  0
  140.4830   71.2120  225.5890 C   0  0  0  0  0  0  0  0  0  0  0  0
  140.4090   71.9590  224.4690 N   0  0  0  0  0  0  0  0  0  0  0  0
  138.8480   73.8980  223.0650 H   0  0  0  0  0  0  0  0  0  0  0  0
  140.0705   74.1212  220.3182 H   0  0  0  0  0  0  0  0  0  0  0  0
  138.2643   74.0541  220.3802 H   0  0  0  0  0  0  0  0  0  0  0  0
  140.1588   76.5142  223.4929 H   0  0  0  0  0  0  0  0  0  0  0  0
  141.8287   76.3660  222.9105 H   0  0  0  0  0  0  0  0  0  0  0  0
  139.9701   78.7703  222.6110 H   0  0  0  0  0  0  0  0  0  0  0  0
  141.4535   78.6242  223.6658 H   0  0  0  0  0  0  0  0  0  0  0  0
  141.6910   79.9620  221.5479 H   0  0  0  0  0  0  0  0  0  0  0  0
  142.8777   78.6014  221.8559 H   0  0  0  0  0  0  0  0  0  0  0  0
  140.7197   78.8566  219.8294 H   0  0  0  0  0  0  0  0  0  0  0  0
  142.4931   78.3479  219.7119 H   0  0  0  0  0  0  0  0  0  0  0  0
  140.5990   76.7450  219.3224 H   0  0  0  0  0  0  0  0  0  0  0  0
  145.3801   74.9218  219.9199 H   0  0  0  0  0  0  0  0  0  0  0  0
  144.0190   77.1540  219.7600 H   0  0  0  0  0  0  0  0  0  0  0  0
  139.1714   69.7356  222.3079 H   0  0  0  0  0  0  0  0  0  0  0  0
  139.2683   68.2657  224.3396 H   0  0  0  0  0  0  0  0  0  0  0  0
  139.8419   68.1038  226.6788 H   0  0  0  0  0  0  0  0  0  0  0  0
  141.4286   71.4635  228.8685 H   0  0  0  0  0  0  0  0  0  0  0  0
  141.2737   72.7927  226.7813 H   0  0  0  0  0  0  0  0  0  0  0  0
  1  2  2  0
  2  3  1  0
  3  4  1  0
  4  5  1  0
  5  6  2  0
  5  7  1  0
  7  8  1  0
  8  9  1  0
  9 10  1  0
 10 11  1  0
 11 12  1  0
 12 13  1  0
 13 14  2  0
 14 15  1  0
 15 16  2  0
 16 17  1  0
  2 18  1  0
 18 19  2  0
 19 20  1  0
 20 21  2  0
 21 22  1  0
 22 23  2  0
 23 24  1  0
 23 25  1  0
 25 26  2  0
 26 27  1  0
 27 28  2  0
 12  7  1  0
 17 13  1  0
 28 18  1  0
 27 21  1  0
  3 29  1  0
  4 30  1  0
  4 31  1  0
  8 32  1  0
  8 33  1  0
  9 34  1  0
  9 35  1  0
 10 36  1  0
 10 37  1  0
 11 38  1  0
 11 39  1  0
 12 40  1  6
 16 41  1  0
 17 42  1  0
 19 43  1  0
 20 44  1  0
 22 45  1  0
 25 46  1  0
 26 47  1  0
M  END
>  <smiles>  (34) 
O=C(NCC(=O)N1CCCC[C@H]1c1nnc[nH]1)c1ccc2cc(F)ccc2n1

>  <score_type>  (34) 
oracle

>  <origin>  (34) 
autodockgpu

>  <m_score__min__energy>  (34) 
-8.2599999999999998

>  <m_primary>  (34) 
energy

>  <rmsd>  (34) 
2.9294304391856443

>  <m_score__min__rmsd>  (34) 
2.9294304391856443

>  <meeko>  (34) 
{"free_energy": -7.92, "intermolecular_energy": -9.41, "internal_energy": -1.61, "cluster_size": 6, "cluster_id": 3, "rank_in_cluster": 1}

>  <energy>  (34) 
-6.93

>  <cluster_rmsd>  (34) 
0.13

>  <cluster>  (34) 
6

$$$$

     RDKit          3D

 47 50  0  0  0  0  0  0  0  0999 V2000
  141.0260   72.3670  221.6210 O   0  0  0  0  0  0  0  0  0  0  0  0
  140.0830   72.4500  222.4600 C   0  0  0  0  0  0  0  0  0  0  0  0
  139.0420   73.4150  222.2930 N   0  0  0  0  0  0  0  0  0  0  0  0
  139.1160   74.2850  221.1310 C   0  0  0  0  0  0  0  0  0  0  0  0
  139.0970   75.7090  221.5300 C   0  0  0  0  0  0  0  0  0  0  0  0
  138.0190   76.2670  221.8580 O   0  0  0  0  0  0  0  0  0  0  0  0
  140.3250   76.4220  221.5270 N   0  0  0  0  0  0  0  0  0  0  0  0
  140.9600   76.8960  222.7430 C   0  0  0  0  0  0  0  0  0  0  0  0
  141.0550   78.3910  222.6210 C   0  0  0  0  0  0  0  0  0  0  0  0
  141.7890   78.8420  221.3900 C   0  0  0  0  0  0  0  0  0  0  0  0
  141.3670   78.1490  220.1430 C   0  0  0  0  0  0  0  0  0  0  0  0
  141.0110   76.7130  220.2770 C   0  0  1  0  0  0  0  0  0  0  0  0
  142.1800   75.8030  220.1960 C   0  0  0  0  0  0  0  0  0  0  0  0
  143.2530   76.0830  219.4160 N   0  0  0  0  0  0  0  0  0  0  0  0
  144.1070   75.0690  219.5770 N   0  0  0  0  0  0  0  0  0  0  0  0
  143.5830   74.1830  220.4320 C   0  0  0  0  0  0  0  0  0  0  0  0
  142.3780   74.6240  220.8300 N   0  0  0  0  0  0  0  0  0  0  0  0
  140.0390   71.5570  223.6210 C   0  0  0  0  0  0  0  0  0  0  0  0
  139.4450   70.3170  223.4910 C   0  0  0  0  0  0  0  0  0  0  0  0
  139.3670   69.4180  224.5510 C   0  0  0  0  0  0  0  0  0  0  0  0
  139.9220   69.8440  225.7420 C   0  0  0  0  0  0  0  0  0  0  0  0
  139.8960   69.0240  226.8540 C   0  0  0  0  0  0  0  0  0  0  0  0
  140.4340   69.3950  228.0700 C   0  0  0  0  0  0  0  0  0  0  0  0
  140.3640   68.5340  229.1010 F   0  0  0  0  0  0  0  0  0  0  0  0
  141.0370   70.6480  228.2120 C   0  0  0  0  0  0  0  0  0  0  0  0
  141.0560   71.4550  227.0940 C   0  0  0  0  0  0  0  0  0  0  0  0
  140.5170   71.0800  225.8830 C   0  0  0  0  0  0  0  0  0  0  0  0
  140.5580   71.9020  224.8150 N   0  0  0  0  0  0  0  0  0  0  0  0
  138.2650   73.4730  223.0000 H   0  0  0  0  0  0  0  0  0  0  0  0
  140.0483   74.0772  220.5854 H   0  0  0  0  0  0  0  0  0  0  0  0
  138.2423   74.0895  220.4920 H   0  0  0  0  0  0  0  0  0  0  0  0
  140.3531   76.6242  223.6193 H   0  0  0  0  0  0  0  0  0  0  0  0
  141.9542   76.4440  222.8744 H   0  0  0  0  0  0  0  0  0  0  0  0
  140.0360   78.8042  222.5908 H   0  0  0  0  0  0  0  0  0  0  0  0
  141.6238   78.7530  223.4901 H   0  0  0  0  0  0  0  0  0  0  0  0
  141.6168   79.9207  221.2609 H   0  0  0  0  0  0  0  0  0  0  0  0
  142.8500   78.5968  221.5456 H   0  0  0  0  0  0  0  0  0  0  0  0
  140.4869   78.6771  219.7474 H   0  0  0  0  0  0  0  0  0  0  0  0
  142.2459   78.1731  219.4819 H   0  0  0  0  0  0  0  0  0  0  0  0
  140.3446   76.5293  219.4213 H   0  0  0  0  0  0  0  0  0  0  0  0
  144.0608   73.2467  220.7560 H   0  0  0  0  0  0  0  0  0  0  0  0
  141.7220   74.1670  221.4880 H   0  0  0  0  0  0  0  0  0  0  0  0
  139.0196   70.0303  222.5179 H   0  0  0  0  0  0  0  0  0  0  0  0
  138.8933   68.4307  224.4467 H   0  0  0  0  0  0  0  0  0  0  0  0
  139.4264   68.0331  226.7665 H   0  0  0  0  0  0  0  0  0  0  0  0
  141.4743   70.9739  229.1673 H   0  0  0  0  0  0  0  0  0  0  0  0
  141.5246   72.4470  227.1731 H   0  0  0  0  0  0  0  0  0  0  0  0
  1  2  2  0
  2  3  1  0
  3  4  1  0
  4  5  1  0
  5  6  2  0
  5  7  1  0
  7  8  1  0
  8  9  1  0
  9 10  1  0
 10 11  1  0
 11 12  1  0
 12 13  1  0
 13 14  2  0
 14 15  1  0
 15 16  2  0
 16 17  1  0
  2 18  1  0
 18 19  2  0
 19 20  1  0
 20 21  2  0
 21 22  1  0
 22 23  2  0
 23 24  1  0
 23 25  1  0
 25 26  2  0
 26 27  1  0
 27 28  2  0
 12  7  1  0
 17 13  1  0
 28 18  1  0
 27 21  1  0
  3 29  1  0
  4 30  1  0
  4 31  1  0
  8 32  1  0
  8 33  1  0
  9 34  1  0
  9 35  1  0
 10 36  1  0
 10 37  1  0
 11 38  1  0
 11 39  1  0
 12 40  1  6
 16 41  1  0
 17 42  1  0
 19 43  1  0
 20 44  1  0
 22 45  1  0
 25 46  1  0
 26 47  1  0
M  END
>  <smiles>  (35) 
O=C(NCC(=O)N1CCCC[C@H]1c1nnc[nH]1)c1ccc2cc(F)ccc2n1

>  <score_type>  (35) 
oracle

>  <origin>  (35) 
autodockgpu

>  <m_score__min__energy>  (35) 
-8.2599999999999998

>  <m_primary>  (35) 
energy

>  <rmsd>  (35) 
3.0132908030348

>  <m_score__min__rmsd>  (35) 
3.0132908030348

>  <meeko>  (35) 
{"free_energy": -7.55, "intermolecular_energy": -9.04, "internal_energy": -2.25, "cluster_size": 6, "cluster_id": 3, "rank_in_cluster": 5}

>  <energy>  (35) 
-6.92

>  <cluster_rmsd>  (35) 
0.13

>  <cluster>  (35) 
6

$$$$

     RDKit          3D

 47 50  0  0  0  0  0  0  0  0999 V2000
  141.4280   71.8460  221.3560 O   0  0  0  0  0  0  0  0  0  0  0  0
  140.5890   72.2670  222.2050 C   0  0  0  0  0  0  0  0  0  0  0  0
  139.9050   73.5050  222.0020 N   0  0  0  0  0  0  0  0  0  0  0  0
  140.2140   74.2490  220.7920 C   0  0  0  0  0  0  0  0  0  0  0  0
  141.3330   75.1900  221.0170 C   0  0  0  0  0  0  0  0  0  0  0  0
  141.4340   75.8150  222.1030 O   0  0  0  0  0  0  0  0  0  0  0  0
  142.2810   75.3660  219.9740 N   0  0  0  0  0  0  0  0  0  0  0  0
  142.8990   76.6460  219.6830 C   0  0  0  0  0  0  0  0  0  0  0  0
  142.5280   76.9870  218.2680 C   0  0  0  0  0  0  0  0  0  0  0  0
  142.9260   75.9310  217.2760 C   0  0  0  0  0  0  0  0  0  0  0  0
  142.5700   74.5460  217.6880 C   0  0  0  0  0  0  0  0  0  0  0  0
  142.6790   74.2430  219.1380 C   0  0  1  0  0  0  0  0  0  0  0  0
  144.0450   73.8450  219.5590 C   0  0  0  0  0  0  0  0  0  0  0  0
  144.8950   73.2030  218.7200 N   0  0  0  0  0  0  0  0  0  0  0  0
  146.0180   72.9990  219.4100 N   0  0  0  0  0  0  0  0  0  0  0  0
  145.8760   73.4970  220.6440 C   0  0  0  0  0  0  0  0  0  0  0  0
  144.6480   74.0310  220.7560 N   0  0  0  0  0  0  0  0  0  0  0  0
  140.3010   71.4910  223.4140 C   0  0  0  0  0  0  0  0  0  0  0  0
  139.5970   70.3080  223.3000 C   0  0  0  0  0  0  0  0  0  0  0  0
  139.2880   69.5200  224.4050 C   0  0  0  0  0  0  0  0  0  0  0  0
  139.7290   69.9960  225.6240 C   0  0  0  0  0  0  0  0  0  0  0  0
  139.4730   69.2860  226.7830 C   0  0  0  0  0  0  0  0  0  0  0  0
  139.8890   69.7110  228.0270 C   0  0  0  0  0  0  0  0  0  0  0  0
  139.5960   68.9580  229.1030 F   0  0  0  0  0  0  0  0  0  0  0  0
  140.6010   70.9070  228.1540 C   0  0  0  0  0  0  0  0  0  0  0  0
  140.8500   71.6040  226.9910 C   0  0  0  0  0  0  0  0  0  0  0  0
  140.4330   71.1760  225.7500 C   0  0  0  0  0  0  0  0  0  0  0  0
  140.6980   71.8900  224.6380 N   0  0  0  0  0  0  0  0  0  0  0  0
  139.2100   73.8420  222.7170 H   0  0  0  0  0  0  0  0  0  0  0  0
  140.4934   73.5420  219.9970 H   0  0  0  0  0  0  0  0  0  0  0  0
  139.3246   74.8269  220.5003 H   0  0  0  0  0  0  0  0  0  0  0  0
  142.5203   77.4160  220.3712 H   0  0  0  0  0  0  0  0  0  0  0  0
  143.9909   76.5979  219.8073 H   0  0  0  0  0  0  0  0  0  0  0  0
  141.4374   77.1210  218.2161 H   0  0  0  0  0  0  0  0  0  0  0  0
  143.0727   77.9048  218.0015 H   0  0  0  0  0  0  0  0  0  0  0  0
  142.4244   76.1472  216.3212 H   0  0  0  0  0  0  0  0  0  0  0  0
  144.0226   75.9668  217.1971 H   0  0  0  0  0  0  0  0  0  0  0  0
  141.5286   74.3632  217.3846 H   0  0  0  0  0  0  0  0  0  0  0  0
  143.3071   73.8946  217.1957 H   0  0  0  0  0  0  0  0  0  0  0  0
  141.9918   73.3958  219.2794 H   0  0  0  0  0  0  0  0  0  0  0  0
  146.6389   73.4731  221.4361 H   0  0  0  0  0  0  0  0  0  0  0  0
  144.2320   74.4950  221.5830 H   0  0  0  0  0  0  0  0  0  0  0  0
  139.2698   69.9778  222.3031 H   0  0  0  0  0  0  0  0  0  0  0  0
  138.7279   68.5777  224.3131 H   0  0  0  0  0  0  0  0  0  0  0  0
  138.9135   68.3418  226.7092 H   0  0  0  0  0  0  0  0  0  0  0  0
  140.9452   71.2735  229.1324 H   0  0  0  0  0  0  0  0  0  0  0  0
  141.4095   72.5488  227.0574 H   0  0  0  0  0  0  0  0  0  0  0  0
  1  2  2  0
  2  3  1  0
  3  4  1  0
  4  5  1  0
  5  6  2  0
  5  7  1  0
  7  8  1  0
  8  9  1  0
  9 10  1  0
 10 11  1  0
 11 12  1  0
 12 13  1  0
 13 14  2  0
 14 15  1  0
 15 16  2  0
 16 17  1  0
  2 18  1  0
 18 19  2  0
 19 20  1  0
 20 21  2  0
 21 22  1  0
 22 23  2  0
 23 24  1  0
 23 25  1  0
 25 26  2  0
 26 27  1  0
 27 28  2  0
 12  7  1  0
 17 13  1  0
 28 18  1  0
 27 21  1  0
  3 29  1  0
  4 30  1  0
  4 31  1  0
  8 32  1  0
  8 33  1  0
  9 34  1  0
  9 35  1  0
 10 36  1  0
 10 37  1  0
 11 38  1  0
 11 39  1  0
 12 40  1  1
 16 41  1  0
 17 42  1  0
 19 43  1  0
 20 44  1  0
 22 45  1  0
 25 46  1  0
 26 47  1  0
M  END
>  <smiles>  (36) 
O=C(NCC(=O)N1CCCC[C@H]1c1nnc[nH]1)c1ccc2cc(F)ccc2n1

>  <score_type>  (36) 
oracle

>  <origin>  (36) 
autodockgpu

>  <m_score__min__energy>  (36) 
-8.2599999999999998

>  <m_primary>  (36) 
energy

>  <rmsd>  (36) 
3.1342105927009203

>  <m_score__min__rmsd>  (36) 
3.1342105927009203

>  <meeko>  (36) 
{"free_energy": -8.06, "intermolecular_energy": -9.56, "internal_energy": -1.65, "cluster_size": 14, "cluster_id": 1, "rank_in_cluster": 2}

>  <energy>  (36) 
-6.9

>  <cluster_rmsd>  (36) 
0.24

>  <cluster>  (36) 
6

$$$$

     RDKit          3D

 47 50  0  0  0  0  0  0  0  0999 V2000
  140.2600   74.3280  222.3340 O   0  0  0  0  0  0  0  0  0  0  0  0
  140.5800   74.9980  221.3100 C   0  0  0  0  0  0  0  0  0  0  0  0
  140.7910   74.3510  220.0530 N   0  0  0  0  0  0  0  0  0  0  0  0
  140.6240   72.9080  220.0070 C   0  0  0  0  0  0  0  0  0  0  0  0
  141.8930   72.2150  220.3140 C   0  0  0  0  0  0  0  0  0  0  0  0
  141.8940   71.1480  220.9800 O   0  0  0  0  0  0  0  0  0  0  0  0
  143.1030   72.7870  219.8390 N   0  0  0  0  0  0  0  0  0  0  0  0
  143.8510   72.2300  218.7270 C   0  0  0  0  0  0  0  0  0  0  0  0
  145.2090   71.8740  219.2630 C   0  0  0  0  0  0  0  0  0  0  0  0
  145.9230   73.0330  219.8970 C   0  0  0  0  0  0  0  0  0  0  0  0
  145.0810   73.8250  220.8350 C   0  0  0  0  0  0  0  0  0  0  0  0
  143.6520   73.9820  220.4620 C   0  0  1  0  0  0  0  0  0  0  0  0
  143.4020   75.1140  219.5360 C   0  0  0  0  0  0  0  0  0  0  0  0
  142.8050   74.9360  218.3320 N   0  0  0  0  0  0  0  0  0  0  0  0
  142.7370   76.1430  217.7670 N   0  0  0  0  0  0  0  0  0  0  0  0
  143.2760   77.0480  218.5910 C   0  0  0  0  0  0  0  0  0  0  0  0
  143.6980   76.4240  219.7030 N   0  0  0  0  0  0  0  0  0  0  0  0
  140.7400   76.4520  221.3920 C   0  0  0  0  0  0  0  0  0  0  0  0
  140.4190   77.2250  220.2930 C   0  0  0  0  0  0  0  0  0  0  0  0
  140.5460   78.6110  220.2990 C   0  0  0  0  0  0  0  0  0  0  0  0
  141.0150   79.1660  221.4740 C   0  0  0  0  0  0  0  0  0  0  0  0
  141.1770   80.5350  221.5810 C   0  0  0  0  0  0  0  0  0  0  0  0
  141.6410   81.1450  222.7280 C   0  0  0  0  0  0  0  0  0  0  0  0
  141.7680   82.4840  222.7460 F   0  0  0  0  0  0  0  0  0  0  0  0
  141.9700   80.3720  223.8450 C   0  0  0  0  0  0  0  0  0  0  0  0
  141.8030   79.0090  223.7240 C   0  0  0  0  0  0  0  0  0  0  0  0
  141.3400   78.4040  222.5770 C   0  0  0  0  0  0  0  0  0  0  0  0
  141.1920   77.0660  222.5020 N   0  0  0  0  0  0  0  0  0  0  0  0
  141.0570   74.9220  219.2100 H   0  0  0  0  0  0  0  0  0  0  0  0
  139.8646   72.6106  220.7452 H   0  0  0  0  0  0  0  0  0  0  0  0
  140.3083   72.6252  218.9919 H   0  0  0  0  0  0  0  0  0  0  0  0
  143.3468   71.3314  218.3418 H   0  0  0  0  0  0  0  0  0  0  0  0
  143.9262   72.9489  217.8979 H   0  0  0  0  0  0  0  0  0  0  0  0
  145.0894   71.0830  220.0180 H   0  0  0  0  0  0  0  0  0  0  0  0
  145.8190   71.5450  218.4088 H   0  0  0  0  0  0  0  0  0  0  0  0
  146.7879   72.6433  220.4539 H   0  0  0  0  0  0  0  0  0  0  0  0
  146.2140   73.7114  219.0814 H   0  0  0  0  0  0  0  0  0  0  0  0
  145.1189   73.3320  221.8176 H   0  0  0  0  0  0  0  0  0  0  0  0
  145.5017   74.8413  220.8210 H   0  0  0  0  0  0  0  0  0  0  0  0
  143.1528   74.1786  221.4223 H   0  0  0  0  0  0  0  0  0  0  0  0
  143.3599   78.1264  218.3909 H   0  0  0  0  0  0  0  0  0  0  0  0
  144.1570   76.8450  220.5310 H   0  0  0  0  0  0  0  0  0  0  0  0
  140.0508   76.7287  219.3830 H   0  0  0  0  0  0  0  0  0  0  0  0
  140.2892   79.2256  219.4236 H   0  0  0  0  0  0  0  0  0  0  0  0
  140.9252   81.1644  220.7147 H   0  0  0  0  0  0  0  0  0  0  0  0
  142.3433   80.8282  224.7737 H   0  0  0  0  0  0  0  0  0  0  0  0
  142.0519   78.3732  224.5864 H   0  0  0  0  0  0  0  0  0  0  0  0
  1  2  2  0
  2  3  1  0
  3  4  1  0
  4  5  1  0
  5  6  2  0
  5  7  1  0
  7  8  1  0
  8  9  1  0
  9 10  1  0
 10 11  1  0
 11 12  1  0
 12 13  1  0
 13 14  2  0
 14 15  1  0
 15 16  2  0
 16 17  1  0
  2 18  1  0
 18 19  2  0
 19 20  1  0
 20 21  2  0
 21 22  1  0
 22 23  2  0
 23 24  1  0
 23 25  1  0
 25 26  2  0
 26 27  1  0
 27 28  2  0
 12  7  1  0
 17 13  1  0
 28 18  1  0
 27 21  1  0
  3 29  1  0
  4 30  1  0
  4 31  1  0
  8 32  1  0
  8 33  1  0
  9 34  1  0
  9 35  1  0
 10 36  1  0
 10 37  1  0
 11 38  1  0
 11 39  1  0
 12 40  1  1
 16 41  1  0
 17 42  1  0
 19 43  1  0
 20 44  1  0
 22 45  1  0
 25 46  1  0
 26 47  1  0
M  END
>  <smiles>  (37) 
O=C(NCC(=O)N1CCCC[C@H]1c1nnc[nH]1)c1ccc2cc(F)ccc2n1

>  <score_type>  (37) 
oracle

>  <origin>  (37) 
autodockgpu

>  <m_score__min__energy>  (37) 
-8.2599999999999998

>  <m_primary>  (37) 
energy

>  <rmsd>  (37) 
7.629605744882274

>  <m_score__min__rmsd>  (37) 
7.629605744882274

>  <meeko>  (37) 
{"free_energy": -6.78, "intermolecular_energy": -8.27, "internal_energy": -2.76, "cluster_size": 4, "cluster_id": 7, "rank_in_cluster": 1}

>  <energy>  (37) 
-6.89

>  <cluster_rmsd>  (37) 
0.1

>  <cluster>  (37) 
6

$$$$

     RDKit          3D

 47 50  0  0  0  0  0  0  0  0999 V2000
  139.1590   70.3970  221.3030 O   0  0  0  0  0  0  0  0  0  0  0  0
  139.1900   71.2670  222.2200 C   0  0  0  0  0  0  0  0  0  0  0  0
  138.7740   72.6110  221.9650 N   0  0  0  0  0  0  0  0  0  0  0  0
  138.3190   72.9260  220.6210 C   0  0  0  0  0  0  0  0  0  0  0  0
  139.4340   72.8560  219.6510 C   0  0  0  0  0  0  0  0  0  0  0  0
  139.4710   71.9470  218.7830 O   0  0  0  0  0  0  0  0  0  0  0  0
  140.4560   73.8400  219.7320 N   0  0  0  0  0  0  0  0  0  0  0  0
  140.7950   74.7120  218.6230 C   0  0  0  0  0  0  0  0  0  0  0  0
  142.2360   74.4450  218.2950 C   0  0  0  0  0  0  0  0  0  0  0  0
  143.1590   74.6370  219.4650 C   0  0  0  0  0  0  0  0  0  0  0  0
  142.6860   73.9980  220.7230 C   0  0  0  0  0  0  0  0  0  0  0  0
  141.2200   74.0160  220.9580 C   0  0  1  0  0  0  0  0  0  0  0  0
  140.7380   75.2630  221.6000 C   0  0  0  0  0  0  0  0  0  0  0  0
  139.5510   75.3200  222.2540 N   0  0  0  0  0  0  0  0  0  0  0  0
  139.4310   76.5700  222.7030 N   0  0  0  0  0  0  0  0  0  0  0  0
  140.5100   77.2750  222.3420 C   0  0  0  0  0  0  0  0  0  0  0  0
  141.3390   76.4740  221.6510 N   0  0  0  0  0  0  0  0  0  0  0  0
  139.6540   70.9160  223.5650 C   0  0  0  0  0  0  0  0  0  0  0  0
  140.3590   71.8510  224.2970 C   0  0  0  0  0  0  0  0  0  0  0  0
  140.8310   71.5860  225.5800 C   0  0  0  0  0  0  0  0  0  0  0  0
  140.5490   70.3280  226.0750 C   0  0  0  0  0  0  0  0  0  0  0  0
  140.9730   69.9670  227.3400 C   0  0  0  0  0  0  0  0  0  0  0  0
  140.7210   68.7270  227.8880 C   0  0  0  0  0  0  0  0  0  0  0  0
  141.1710   68.4600  229.1270 F   0  0  0  0  0  0  0  0  0  0  0  0
  140.0090   67.7730  227.1560 C   0  0  0  0  0  0  0  0  0  0  0  0
  139.5910   68.1470  225.8960 C   0  0  0  0  0  0  0  0  0  0  0  0
  139.8460   69.3870  225.3530 C   0  0  0  0  0  0  0  0  0  0  0  0
  139.4180   69.7100  224.1160 N   0  0  0  0  0  0  0  0  0  0  0  0
  138.8060   73.3240  222.7380 H   0  0  0  0  0  0  0  0  0  0  0  0
  137.5413   72.2058  220.3270 H   0  0  0  0  0  0  0  0  0  0  0  0
  137.9180   73.9503  220.6190 H   0  0  0  0  0  0  0  0  0  0  0  0
  140.1594   74.4862  217.7541 H   0  0  0  0  0  0  0  0  0  0  0  0
  140.6360   75.7685  218.8849 H   0  0  0  0  0  0  0  0  0  0  0  0
  142.3274   73.4061  217.9454 H   0  0  0  0  0  0  0  0  0  0  0  0
  142.5336   75.1706  217.5237 H   0  0  0  0  0  0  0  0  0  0  0  0
  144.1383   74.2079  219.2065 H   0  0  0  0  0  0  0  0  0  0  0  0
  143.2068   75.7190  219.6572 H   0  0  0  0  0  0  0  0  0  0  0  0
  143.0103   72.9470  220.7078 H   0  0  0  0  0  0  0  0  0  0  0  0
  143.1214   74.5953  221.5376 H   0  0  0  0  0  0  0  0  0  0  0  0
  141.0554   73.1677  221.6386 H   0  0  0  0  0  0  0  0  0  0  0  0
  140.6888   78.3355  222.5729 H   0  0  0  0  0  0  0  0  0  0  0  0
  142.2550   76.7190  221.2350 H   0  0  0  0  0  0  0  0  0  0  0  0
  140.5542   72.8378  223.8518 H   0  0  0  0  0  0  0  0  0  0  0  0
  141.3927   72.3313  226.1622 H   0  0  0  0  0  0  0  0  0  0  0  0
  141.5360   70.7008  227.9355 H   0  0  0  0  0  0  0  0  0  0  0  0
  139.7929   66.7746  227.5640 H   0  0  0  0  0  0  0  0  0  0  0  0
  139.0261   67.4192  225.2950 H   0  0  0  0  0  0  0  0  0  0  0  0
  1  2  2  0
  2  3  1  0
  3  4  1  0
  4  5  1  0
  5  6  2  0
  5  7  1  0
  7  8  1  0
  8  9  1  0
  9 10  1  0
 10 11  1  0
 11 12  1  0
 12 13  1  0
 13 14  2  0
 14 15  1  0
 15 16  2  0
 16 17  1  0
  2 18  1  0
 18 19  2  0
 19 20  1  0
 20 21  2  0
 21 22  1  0
 22 23  2  0
 23 24  1  0
 23 25  1  0
 25 26  2  0
 26 27  1  0
 27 28  2  0
 12  7  1  0
 17 13  1  0
 28 18  1  0
 27 21  1  0
  3 29  1  0
  4 30  1  0
  4 31  1  0
  8 32  1  0
  8 33  1  0
  9 34  1  0
  9 35  1  0
 10 36  1  0
 10 37  1  0
 11 38  1  0
 11 39  1  0
 12 40  1  1
 16 41  1  0
 17 42  1  0
 19 43  1  0
 20 44  1  0
 22 45  1  0
 25 46  1  0
 26 47  1  0
M  END
>  <smiles>  (38) 
O=C(NCC(=O)N1CCCC[C@H]1c1nnc[nH]1)c1ccc2cc(F)ccc2n1

>  <score_type>  (38) 
oracle

>  <origin>  (38) 
autodockgpu

>  <m_score__min__energy>  (38) 
-8.2599999999999998

>  <m_primary>  (38) 
energy

>  <rmsd>  (38) 
2.9339956719487543

>  <m_score__min__rmsd>  (38) 
2.9339956719487543

>  <meeko>  (38) 
{"free_energy": -7.09, "intermolecular_energy": -8.58, "internal_energy": -2.3, "cluster_size": 1, "cluster_id": 4, "rank_in_cluster": 1}

>  <energy>  (38) 
-6.86

>  <cluster_rmsd>  (38) 
0.25

>  <cluster>  (38) 
6

$$$$

     RDKit          3D

 47 50  0  0  0  0  0  0  0  0999 V2000
  141.3230   72.6900  221.8310 O   0  0  0  0  0  0  0  0  0  0  0  0
  140.2870   72.6160  222.5520 C   0  0  0  0  0  0  0  0  0  0  0  0
  139.1810   73.4940  222.3300 N   0  0  0  0  0  0  0  0  0  0  0  0
  139.3010   74.4620  221.2530 C   0  0  0  0  0  0  0  0  0  0  0  0
  139.1500   75.8430  221.7590 C   0  0  0  0  0  0  0  0  0  0  0  0
  138.3890   76.0890  222.7290 O   0  0  0  0  0  0  0  0  0  0  0  0
  139.8840   76.8760  221.1180 N   0  0  0  0  0  0  0  0  0  0  0  0
  139.2830   77.7940  220.1690 C   0  0  0  0  0  0  0  0  0  0  0  0
  140.0200   77.6110  218.8720 C   0  0  0  0  0  0  0  0  0  0  0  0
  141.5020   77.8200  218.9950 C   0  0  0  0  0  0  0  0  0  0  0  0
  142.1190   77.1240  220.1560 C   0  0  0  0  0  0  0  0  0  0  0  0
  141.3020   77.0590  221.3940 C   0  0  1  0  0  0  0  0  0  0  0  0
  141.4300   78.2620  222.2530 C   0  0  0  0  0  0  0  0  0  0  0  0
  140.4890   78.5880  223.1730 N   0  0  0  0  0  0  0  0  0  0  0  0
  140.9140   79.7090  223.7590 N   0  0  0  0  0  0  0  0  0  0  0  0
  142.0830   80.0730  223.2220 C   0  0  0  0  0  0  0  0  0  0  0  0
  142.4230   79.1800  222.2780 N   0  0  0  0  0  0  0  0  0  0  0  0
  140.1990   71.6280  223.6300 C   0  0  0  0  0  0  0  0  0  0  0  0
  139.6120   70.4040  223.3720 C   0  0  0  0  0  0  0  0  0  0  0  0
  139.4950   69.4180  224.3480 C   0  0  0  0  0  0  0  0  0  0  0  0
  140.0010   69.7400  225.5910 C   0  0  0  0  0  0  0  0  0  0  0  0
  139.9340   68.8290  226.6280 C   0  0  0  0  0  0  0  0  0  0  0  0
  140.4230   69.0940  227.8910 C   0  0  0  0  0  0  0  0  0  0  0  0
  140.3150   68.1490  228.8410 F   0  0  0  0  0  0  0  0  0  0  0  0
  141.0170   70.3300  228.1620 C   0  0  0  0  0  0  0  0  0  0  0  0
  141.0790   71.2280  227.1190 C   0  0  0  0  0  0  0  0  0  0  0  0
  140.5890   70.9590  225.8600 C   0  0  0  0  0  0  0  0  0  0  0  0
  140.6700   71.8690  224.8680 N   0  0  0  0  0  0  0  0  0  0  0  0
  138.3250   73.4210  222.9380 H   0  0  0  0  0  0  0  0  0  0  0  0
  140.2907   74.3573  220.7845 H   0  0  0  0  0  0  0  0  0  0  0  0
  138.5038   74.2695  220.5199 H   0  0  0  0  0  0  0  0  0  0  0  0
  138.2166   77.5591  220.0364 H   0  0  0  0  0  0  0  0  0  0  0  0
  139.3526   78.8333  220.5226 H   0  0  0  0  0  0  0  0  0  0  0  0
  139.8408   76.5878  218.5102 H   0  0  0  0  0  0  0  0  0  0  0  0
  139.6413   78.3709  218.1726 H   0  0  0  0  0  0  0  0  0  0  0  0
  141.9805   77.4500  218.0762 H   0  0  0  0  0  0  0  0  0  0  0  0
  141.6586   78.8975  219.1512 H   0  0  0  0  0  0  0  0  0  0  0  0
  142.3431   76.0921  219.8478 H   0  0  0  0  0  0  0  0  0  0  0  0
  143.0041   77.7216  220.4197 H   0  0  0  0  0  0  0  0  0  0  0  0
  141.7062   76.1855  221.9266 H   0  0  0  0  0  0  0  0  0  0  0  0
  142.6701   80.9586  223.5066 H   0  0  0  0  0  0  0  0  0  0  0  0
  143.2700   79.1800  221.6810 H   0  0  0  0  0  0  0  0  0  0  0  0
  139.2245   70.2020  222.3625 H   0  0  0  0  0  0  0  0  0  0  0  0
  139.0285   68.4435  224.1414 H   0  0  0  0  0  0  0  0  0  0  0  0
  139.4705   67.8496  226.4384 H   0  0  0  0  0  0  0  0  0  0  0  0
  141.4150   70.5735  229.1582 H   0  0  0  0  0  0  0  0  0  0  0  0
  141.5429   72.2087  227.3007 H   0  0  0  0  0  0  0  0  0  0  0  0
  1  2  2  0
  2  3  1  0
  3  4  1  0
  4  5  1  0
  5  6  2  0
  5  7  1  0
  7  8  1  0
  8  9  1  0
  9 10  1  0
 10 11  1  0
 11 12  1  0
 12 13  1  0
 13 14  2  0
 14 15  1  0
 15 16  2  0
 16 17  1  0
  2 18  1  0
 18 19  2  0
 19 20  1  0
 20 21  2  0
 21 22  1  0
 22 23  2  0
 23 24  1  0
 23 25  1  0
 25 26  2  0
 26 27  1  0
 27 28  2  0
 12  7  1  0
 17 13  1  0
 28 18  1  0
 27 21  1  0
  3 29  1  0
  4 30  1  0
  4 31  1  0
  8 32  1  0
  8 33  1  0
  9 34  1  0
  9 35  1  0
 10 36  1  0
 10 37  1  0
 11 38  1  0
 11 39  1  0
 12 40  1  1
 16 41  1  0
 17 42  1  0
 19 43  1  0
 20 44  1  0
 22 45  1  0
 25 46  1  0
 26 47  1  0
M  END
>  <smiles>  (39) 
O=C(NCC(=O)N1CCCC[C@H]1c1nnc[nH]1)c1ccc2cc(F)ccc2n1

>  <score_type>  (39) 
oracle

>  <origin>  (39) 
autodockgpu

>  <m_score__min__energy>  (39) 
-8.2599999999999998

>  <m_primary>  (39) 
energy

>  <rmsd>  (39) 
1.9644667546700363

>  <m_score__min__rmsd>  (39) 
1.9644667546700363

>  <meeko>  (39) 
{"free_energy": -8.17, "intermolecular_energy": -9.66, "internal_energy": -1.45, "cluster_size": 7, "cluster_id": 2, "rank_in_cluster": 2}

>  <energy>  (39) 
-6.5

>  <cluster_rmsd>  (39) 
1.04

>  <cluster>  (39) 
6

$$$$

     RDKit          3D

 47 50  0  0  0  0  0  0  0  0999 V2000
  140.0610   74.3890  222.3170 O   0  0  0  0  0  0  0  0  0  0  0  0
  140.5160   75.0320  221.3270 C   0  0  0  0  0  0  0  0  0  0  0  0
  140.8660   74.3550  220.1170 N   0  0  0  0  0  0  0  0  0  0  0  0
  140.6760   72.9150  220.0780 C   0  0  0  0  0  0  0  0  0  0  0  0
  141.9450   72.2030  220.3430 C   0  0  0  0  0  0  0  0  0  0  0  0
  141.9500   71.1250  220.9910 O   0  0  0  0  0  0  0  0  0  0  0  0
  143.1480   72.7710  219.8470 N   0  0  0  0  0  0  0  0  0  0  0  0
  143.8730   72.2140  218.7200 C   0  0  0  0  0  0  0  0  0  0  0  0
  145.2380   71.8480  219.2290 C   0  0  0  0  0  0  0  0  0  0  0  0
  145.9700   73.0010  219.8540 C   0  0  0  0  0  0  0  0  0  0  0  0
  145.1510   73.7930  220.8110 C   0  0  0  0  0  0  0  0  0  0  0  0
  143.7160   73.9600  220.4650 C   0  0  1  0  0  0  0  0  0  0  0  0
  143.4550   75.0970  219.5480 C   0  0  0  0  0  0  0  0  0  0  0  0
  142.8290   74.9290  218.3580 N   0  0  0  0  0  0  0  0  0  0  0  0
  142.7590   76.1380  217.7980 N   0  0  0  0  0  0  0  0  0  0  0  0
  143.3260   77.0350  218.6120 C   0  0  0  0  0  0  0  0  0  0  0  0
  143.7670   76.4040  219.7120 N   0  0  0  0  0  0  0  0  0  0  0  0
  140.6950   76.4840  221.4010 C   0  0  0  0  0  0  0  0  0  0  0  0
  140.3550   77.2580  220.3090 C   0  0  0  0  0  0  0  0  0  0  0  0
  140.4980   78.6430  220.3080 C   0  0  0  0  0  0  0  0  0  0  0  0
  141.0020   79.1950  221.4690 C   0  0  0  0  0  0  0  0  0  0  0  0
  141.1820   80.5620  221.5690 C   0  0  0  0  0  0  0  0  0  0  0  0
  141.6810   81.1700  222.7030 C   0  0  0  0  0  0  0  0  0  0  0  0
  141.8230   82.5070  222.7140 F   0  0  0  0  0  0  0  0  0  0  0  0
  142.0280   80.3960  223.8140 C   0  0  0  0  0  0  0  0  0  0  0  0
  141.8430   79.0340  223.7000 C   0  0  0  0  0  0  0  0  0  0  0  0
  141.3450   78.4320  222.5660 C   0  0  0  0  0  0  0  0  0  0  0  0
  141.1800   77.0950  222.4990 N   0  0  0  0  0  0  0  0  0  0  0  0
  141.2440   74.9030  219.3030 H   0  0  0  0  0  0  0  0  0  0  0  0
  139.9375   72.6293  220.8416 H   0  0  0  0  0  0  0  0  0  0  0  0
  140.3221   72.6364  219.0744 H   0  0  0  0  0  0  0  0  0  0  0  0
  143.3567   71.3199  218.3406 H   0  0  0  0  0  0  0  0  0  0  0  0
  143.9377   72.9362  217.8928 H   0  0  0  0  0  0  0  0  0  0  0  0
  145.1279   71.0548  219.9831 H   0  0  0  0  0  0  0  0  0  0  0  0
  145.8302   71.5184  218.3626 H   0  0  0  0  0  0  0  0  0  0  0  0
  146.8436   72.6047  220.3924 H   0  0  0  0  0  0  0  0  0  0  0  0
  146.2483   73.6813  219.0357 H   0  0  0  0  0  0  0  0  0  0  0  0
  145.2043   73.2950  221.7904 H   0  0  0  0  0  0  0  0  0  0  0  0
  145.5775   74.8068  220.7945 H   0  0  0  0  0  0  0  0  0  0  0  0
  143.2367   74.1555  221.4356 H   0  0  0  0  0  0  0  0  0  0  0  0
  143.4163   78.1131  218.4129 H   0  0  0  0  0  0  0  0  0  0  0  0
  144.2500   76.8180  220.5300 H   0  0  0  0  0  0  0  0  0  0  0  0
  139.9579   76.7639  219.4100 H   0  0  0  0  0  0  0  0  0  0  0  0
  140.2267   79.2584  219.4375 H   0  0  0  0  0  0  0  0  0  0  0  0
  140.9161   81.1923  220.7076 H   0  0  0  0  0  0  0  0  0  0  0  0
  142.4283   80.8501  224.7325 H   0  0  0  0  0  0  0  0  0  0  0  0
  142.1063   78.3971  224.5573 H   0  0  0  0  0  0  0  0  0  0  0  0
  1  2  2  0
  2  3  1  0
  3  4  1  0
  4  5  1  0
  5  6  2  0
  5  7  1  0
  7  8  1  0
  8  9  1  0
  9 10  1  0
 10 11  1  0
 11 12  1  0
 12 13  1  0
 13 14  2  0
 14 15  1  0
 15 16  2  0
 16 17  1  0
  2 18  1  0
 18 19  2  0
 19 20  1  0
 20 21  2  0
 21 22  1  0
 22 23  2  0
 23 24  1  0
 23 25  1  0
 25 26  2  0
 26 27  1  0
 27 28  2  0
 12  7  1  0
 17 13  1  0
 28 18  1  0
 27 21  1  0
  3 29  1  0
  4 30  1  0
  4 31  1  0
  8 32  1  0
  8 33  1  0
  9 34  1  0
  9 35  1  0
 10 36  1  0
 10 37  1  0
 11 38  1  0
 11 39  1  0
 12 40  1  1
 16 41  1  0
 17 42  1  0
 19 43  1  0
 20 44  1  0
 22 45  1  0
 25 46  1  0
 26 47  1  0
M  END
>  <smiles>  (40) 
O=C(NCC(=O)N1CCCC[C@H]1c1nnc[nH]1)c1ccc2cc(F)ccc2n1

>  <score_type>  (40) 
oracle

>  <origin>  (40) 
autodockgpu

>  <m_score__min__energy>  (40) 
-8.2599999999999998

>  <m_primary>  (40) 
energy

>  <rmsd>  (40) 
7.656419361139847

>  <m_score__min__rmsd>  (40) 
7.656419361139847

>  <meeko>  (40) 
{"free_energy": -6.76, "intermolecular_energy": -8.25, "internal_energy": -2.74, "cluster_size": 4, "cluster_id": 7, "rank_in_cluster": 2}

>  <energy>  (40) 
-6.5

>  <cluster_rmsd>  (40) 
1.04

>  <cluster>  (40) 
6

$$$$

     RDKit          3D

 47 50  0  0  0  0  0  0  0  0999 V2000
  139.4810   75.1080  222.6970 O   0  0  0  0  0  0  0  0  0  0  0  0
  140.0730   75.2310  221.5860 C   0  0  0  0  0  0  0  0  0  0  0  0
  139.7140   76.2780  220.6820 N   0  0  0  0  0  0  0  0  0  0  0  0
  138.6530   77.1820  221.0920 C   0  0  0  0  0  0  0  0  0  0  0  0
  139.1070   78.0790  222.1780 C   0  0  0  0  0  0  0  0  0  0  0  0
  138.3220   78.4090  223.1030 O   0  0  0  0  0  0  0  0  0  0  0  0
  140.4450   78.5520  222.1410 N   0  0  0  0  0  0  0  0  0  0  0  0
  141.4340   78.1870  223.1390 C   0  0  0  0  0  0  0  0  0  0  0  0
  141.8820   79.4690  223.7830 C   0  0  0  0  0  0  0  0  0  0  0  0
  142.4160   80.4740  222.8030 C   0  0  0  0  0  0  0  0  0  0  0  0
  141.5630   80.6580  221.5970 C   0  0  0  0  0  0  0  0  0  0  0  0
  140.8880   79.4420  221.0780 C   0  0  1  0  0  0  0  0  0  0  0  0
  141.7330   78.6400  220.1590 C   0  0  0  0  0  0  0  0  0  0  0  0
  142.0710   79.0860  218.9240 N   0  0  0  0  0  0  0  0  0  0  0  0
  142.8260   78.1320  218.3760 N   0  0  0  0  0  0  0  0  0  0  0  0
  142.9560   77.1200  219.2410 C   0  0  0  0  0  0  0  0  0  0  0  0
  142.2800   77.4190  220.3630 N   0  0  0  0  0  0  0  0  0  0  0  0
  141.1390   74.3020  221.2030 C   0  0  0  0  0  0  0  0  0  0  0  0
  140.8350   72.9650  221.0370 C   0  0  0  0  0  0  0  0  0  0  0  0
  141.7970   72.0250  220.6740 C   0  0  0  0  0  0  0  0  0  0  0  0
  143.0750   72.5150  220.4920 C   0  0  0  0  0  0  0  0  0  0  0  0
  144.1020   71.6630  220.1300 C   0  0  0  0  0  0  0  0  0  0  0  0
  145.3970   72.0940  219.9330 C   0  0  0  0  0  0  0  0  0  0  0  0
  146.3350   71.1960  219.5830 F   0  0  0  0  0  0  0  0  0  0  0  0
  145.7150   73.4450  220.1000 C   0  0  0  0  0  0  0  0  0  0  0  0
  144.6820   74.2830  220.4590 C   0  0  0  0  0  0  0  0  0  0  0  0
  143.3900   73.8480  220.6550 C   0  0  0  0  0  0  0  0  0  0  0  0
  142.4090   74.7040  221.0070 N   0  0  0  0  0  0  0  0  0  0  0  0
  140.2150   76.3680  219.7610 H   0  0  0  0  0  0  0  0  0  0  0  0
  138.3457   77.7903  220.2285 H   0  0  0  0  0  0  0  0  0  0  0  0
  137.8083   76.5834  221.4636 H   0  0  0  0  0  0  0  0  0  0  0  0
  140.9872   77.5197  223.8908 H   0  0  0  0  0  0  0  0  0  0  0  0
  142.2810   77.6529  222.6836 H   0  0  0  0  0  0  0  0  0  0  0  0
  141.0235   79.9148  224.3066 H   0  0  0  0  0  0  0  0  0  0  0  0
  142.7033   79.2175  224.4702 H   0  0  0  0  0  0  0  0  0  0  0  0
  142.5039   81.4434  223.3153 H   0  0  0  0  0  0  0  0  0  0  0  0
  143.3851   80.0906  222.4511 H   0  0  0  0  0  0  0  0  0  0  0  0
  140.7839   81.3934  221.8464 H   0  0  0  0  0  0  0  0  0  0  0  0
  142.2487   80.9768  220.7982 H   0  0  0  0  0  0  0  0  0  0  0  0
  140.0247   79.8412  220.5255 H   0  0  0  0  0  0  0  0  0  0  0  0
  143.5234   76.1946  219.0629 H   0  0  0  0  0  0  0  0  0  0  0  0
  142.1860   76.8440  221.2190 H   0  0  0  0  0  0  0  0  0  0  0  0
  139.7991   72.6313  221.1967 H   0  0  0  0  0  0  0  0  0  0  0  0
  141.5540   70.9605  220.5409 H   0  0  0  0  0  0  0  0  0  0  0  0
  143.8763   70.5951  219.9932 H   0  0  0  0  0  0  0  0  0  0  0  0
  146.7384   73.8201  219.9522 H   0  0  0  0  0  0  0  0  0  0  0  0
  144.8999   75.3525  220.5959 H   0  0  0  0  0  0  0  0  0  0  0  0
  1  2  2  0
  2  3  1  0
  3  4  1  0
  4  5  1  0
  5  6  2  0
  5  7  1  0
  7  8  1  0
  8  9  1  0
  9 10  1  0
 10 11  1  0
 11 12  1  0
 12 13  1  0
 13 14  2  0
 14 15  1  0
 15 16  2  0
 16 17  1  0
  2 18  1  0
 18 19  2  0
 19 20  1  0
 20 21  2  0
 21 22  1  0
 22 23  2  0
 23 24  1  0
 23 25  1  0
 25 26  2  0
 26 27  1  0
 27 28  2  0
 12  7  1  0
 17 13  1  0
 28 18  1  0
 27 21  1  0
  3 29  1  0
  4 30  1  0
  4 31  1  0
  8 32  1  0
  8 33  1  0
  9 34  1  0
  9 35  1  0
 10 36  1  0
 10 37  1  0
 11 38  1  0
 11 39  1  0
 12 40  1  6
 16 41  1  0
 17 42  1  0
 19 43  1  0
 20 44  1  0
 22 45  1  0
 25 46  1  0
 26 47  1  0
M  END
>  <smiles>  (41) 
O=C(NCC(=O)N1CCCC[C@H]1c1nnc[nH]1)c1ccc2cc(F)ccc2n1

>  <score_type>  (41) 
oracle

>  <origin>  (41) 
autodockgpu

>  <m_score__min__energy>  (41) 
-8.2599999999999998

>  <m_primary>  (41) 
energy

>  <rmsd>  (41) 
6.108247252302791

>  <m_score__min__rmsd>  (41) 
6.108247252302791

>  <meeko>  (41) 
{"free_energy": -6.9, "intermolecular_energy": -8.39, "internal_energy": -2.77, "cluster_size": 17, "cluster_id": 6, "rank_in_cluster": 7}

>  <energy>  (41) 
-6.49

>  <cluster_rmsd>  (41) 
1.04

>  <cluster>  (41) 
6

$$$$

     RDKit          3D

 47 50  0  0  0  0  0  0  0  0999 V2000
  141.1220   73.7270  221.6910 O   0  0  0  0  0  0  0  0  0  0  0  0
  140.0450   73.4530  222.2940 C   0  0  0  0  0  0  0  0  0  0  0  0
  138.9150   74.3230  222.1990 N   0  0  0  0  0  0  0  0  0  0  0  0
  139.0590   75.5210  221.3890 C   0  0  0  0  0  0  0  0  0  0  0  0
  139.2670   76.7150  222.2350 C   0  0  0  0  0  0  0  0  0  0  0  0
  138.4100   77.0490  223.0930 O   0  0  0  0  0  0  0  0  0  0  0  0
  140.4560   77.4700  222.0500 N   0  0  0  0  0  0  0  0  0  0  0  0
  141.4420   77.6510  223.0990 C   0  0  0  0  0  0  0  0  0  0  0  0
  141.5370   79.1310  223.3440 C   0  0  0  0  0  0  0  0  0  0  0  0
  141.8760   79.9190  222.1110 C   0  0  0  0  0  0  0  0  0  0  0  0
  141.0760   79.5440  220.9120 C   0  0  0  0  0  0  0  0  0  0  0  0
  140.7390   78.1050  220.7710 C   0  0  1  0  0  0  0  0  0  0  0  0
  141.8030   77.3080  220.1110 C   0  0  0  0  0  0  0  0  0  0  0  0
  142.3610   77.6920  218.9370 N   0  0  0  0  0  0  0  0  0  0  0  0
  143.2680   76.7620  218.6330 N   0  0  0  0  0  0  0  0  0  0  0  0
  143.2770   75.8250  219.5880 C   0  0  0  0  0  0  0  0  0  0  0  0
  142.3670   76.1490  220.5210 N   0  0  0  0  0  0  0  0  0  0  0  0
  139.9330   72.2370  223.1040 C   0  0  0  0  0  0  0  0  0  0  0  0
  139.1410   71.2000  222.6510 C   0  0  0  0  0  0  0  0  0  0  0  0
  138.9890   70.0160  223.3670 C   0  0  0  0  0  0  0  0  0  0  0  0
  139.6800   69.9430  224.5600 C   0  0  0  0  0  0  0  0  0  0  0  0
  139.5950   68.8080  225.3450 C   0  0  0  0  0  0  0  0  0  0  0  0
  140.2620   68.6780  226.5450 C   0  0  0  0  0  0  0  0  0  0  0  0
  140.1230   67.5380  227.2460 F   0  0  0  0  0  0  0  0  0  0  0  0
  141.0660   69.7210  227.0140 C   0  0  0  0  0  0  0  0  0  0  0  0
  141.1420   70.8460  226.2200 C   0  0  0  0  0  0  0  0  0  0  0  0
  140.4730   70.9720  225.0220 C   0  0  0  0  0  0  0  0  0  0  0  0
  140.5770   72.0910  224.2780 N   0  0  0  0  0  0  0  0  0  0  0  0
  138.0250   74.0820  222.7070 H   0  0  0  0  0  0  0  0  0  0  0  0
  139.9236   75.4001  220.7198 H   0  0  0  0  0  0  0  0  0  0  0  0
  138.1360   75.6620  220.8075 H   0  0  0  0  0  0  0  0  0  0  0  0
  141.1214   77.1338  224.0154 H   0  0  0  0  0  0  0  0  0  0  0  0
  142.4163   77.2328  222.8059 H   0  0  0  0  0  0  0  0  0  0  0  0
  140.5684   79.4838  223.7280 H   0  0  0  0  0  0  0  0  0  0  0  0
  142.3525   79.2892  224.0650 H   0  0  0  0  0  0  0  0  0  0  0  0
  141.7024   80.9843  222.3230 H   0  0  0  0  0  0  0  0  0  0  0  0
  142.9273   79.6997  221.8728 H   0  0  0  0  0  0  0  0  0  0  0  0
  140.1320   80.1074  220.9491 H   0  0  0  0  0  0  0  0  0  0  0  0
  141.7130   79.7826  220.0475 H   0  0  0  0  0  0  0  0  0  0  0  0
  139.8403   78.1097  220.1368 H   0  0  0  0  0  0  0  0  0  0  0  0
  143.9236   74.9353  219.6060 H   0  0  0  0  0  0  0  0  0  0  0  0
  142.1330   75.6290  221.3860 H   0  0  0  0  0  0  0  0  0  0  0  0
  138.6129   71.3135  221.6927 H   0  0  0  0  0  0  0  0  0  0  0  0
  138.3582   69.1907  223.0052 H   0  0  0  0  0  0  0  0  0  0  0  0
  138.9687   67.9731  224.9976 H   0  0  0  0  0  0  0  0  0  0  0  0
  141.6100   69.6481  227.9673 H   0  0  0  0  0  0  0  0  0  0  0  0
  141.7678   71.6844  226.5599 H   0  0  0  0  0  0  0  0  0  0  0  0
  1  2  2  0
  2  3  1  0
  3  4  1  0
  4  5  1  0
  5  6  2  0
  5  7  1  0
  7  8  1  0
  8  9  1  0
  9 10  1  0
 10 11  1  0
 11 12  1  0
 12 13  1  0
 13 14  2  0
 14 15  1  0
 15 16  2  0
 16 17  1  0
  2 18  1  0
 18 19  2  0
 19 20  1  0
 20 21  2  0
 21 22  1  0
 22 23  2  0
 23 24  1  0
 23 25  1  0
 25 26  2  0
 26 27  1  0
 27 28  2  0
 12  7  1  0
 17 13  1  0
 28 18  1  0
 27 21  1  0
  3 29  1  0
  4 30  1  0
  4 31  1  0
  8 32  1  0
  8 33  1  0
  9 34  1  0
  9 35  1  0
 10 36  1  0
 10 37  1  0
 11 38  1  0
 11 39  1  0
 12 40  1  6
 16 41  1  0
 17 42  1  0
 19 43  1  0
 20 44  1  0
 22 45  1  0
 25 46  1  0
 26 47  1  0
M  END
>  <smiles>  (42) 
O=C(NCC(=O)N1CCCC[C@H]1c1nnc[nH]1)c1ccc2cc(F)ccc2n1

>  <score_type>  (42) 
oracle

>  <origin>  (42) 
autodockgpu

>  <m_score__min__energy>  (42) 
-8.2599999999999998

>  <m_primary>  (42) 
energy

>  <rmsd>  (42) 
3.4573947869104966

>  <m_score__min__rmsd>  (42) 
3.4573947869104966

>  <meeko>  (42) 
{"free_energy": -7.49, "intermolecular_energy": -8.98, "internal_energy": -2.21, "cluster_size": 6, "cluster_id": 3, "rank_in_cluster": 6}

>  <energy>  (42) 
-6.49

>  <cluster_rmsd>  (42) 
1.04

>  <cluster>  (42) 
6

$$$$

     RDKit          3D

 47 50  0  0  0  0  0  0  0  0999 V2000
  138.5290   72.6990  222.1330 O   0  0  0  0  0  0  0  0  0  0  0  0
  139.6740   72.3990  222.5790 C   0  0  0  0  0  0  0  0  0  0  0  0
  140.8540   72.9450  221.9830 N   0  0  0  0  0  0  0  0  0  0  0  0
  140.6780   73.8480  220.8590 C   0  0  0  0  0  0  0  0  0  0  0  0
  141.6310   74.9770  220.9280 C   0  0  0  0  0  0  0  0  0  0  0  0
  142.8680   74.7770  220.8250 O   0  0  0  0  0  0  0  0  0  0  0  0
  141.1090   76.2850  221.1140 N   0  0  0  0  0  0  0  0  0  0  0  0
  140.9410   77.2260  220.0220 C   0  0  0  0  0  0  0  0  0  0  0  0
  141.7880   78.4210  220.3550 C   0  0  0  0  0  0  0  0  0  0  0  0
  141.4550   79.0370  221.6840 C   0  0  0  0  0  0  0  0  0  0  0  0
  141.3200   78.0520  222.7920 C   0  0  0  0  0  0  0  0  0  0  0  0
  140.7140   76.7440  222.4380 C   0  0  1  0  0  0  0  0  0  0  0  0
  139.2310   76.7480  222.4760 C   0  0  0  0  0  0  0  0  0  0  0  0
  138.5130   77.8890  222.3330 N   0  0  0  0  0  0  0  0  0  0  0  0
  137.2290   77.5360  222.4160 N   0  0  0  0  0  0  0  0  0  0  0  0
  137.1450   76.2150  222.6050 C   0  0  0  0  0  0  0  0  0  0  0  0
  138.3870   75.7030  222.6450 N   0  0  0  0  0  0  0  0  0  0  0  0
  139.8160   71.4840  223.7150 C   0  0  0  0  0  0  0  0  0  0  0  0
  139.4340   70.1660  223.5650 C   0  0  0  0  0  0  0  0  0  0  0  0
  139.5400   69.2410  224.6010 C   0  0  0  0  0  0  0  0  0  0  0  0
  140.0500   69.7260  225.7890 C   0  0  0  0  0  0  0  0  0  0  0  0
  140.1960   68.8880  226.8780 C   0  0  0  0  0  0  0  0  0  0  0  0
  140.7000   69.3150  228.0890 C   0  0  0  0  0  0  0  0  0  0  0  0
  140.8070   68.4310  229.0970 F   0  0  0  0  0  0  0  0  0  0  0  0
  141.0890   70.6490  228.2510 C   0  0  0  0  0  0  0  0  0  0  0  0
  140.9390   71.4730  227.1560 C   0  0  0  0  0  0  0  0  0  0  0  0
  140.4340   71.0420  225.9490 C   0  0  0  0  0  0  0  0  0  0  0  0
  140.3050   71.8840  224.9040 N   0  0  0  0  0  0  0  0  0  0  0  0
  141.7990   72.6860  222.3640 H   0  0  0  0  0  0  0  0  0  0  0  0
  140.8448   73.2938  219.9235 H   0  0  0  0  0  0  0  0  0  0  0  0
  139.6553   74.2518  220.8924 H   0  0  0  0  0  0  0  0  0  0  0  0
  141.2757   76.7745  219.0764 H   0  0  0  0  0  0  0  0  0  0  0  0
  139.8850   77.5085  219.8991 H   0  0  0  0  0  0  0  0  0  0  0  0
  142.8423   78.1076  220.3704 H   0  0  0  0  0  0  0  0  0  0  0  0
  141.5916   79.1825  219.5859 H   0  0  0  0  0  0  0  0  0  0  0  0
  142.2544   79.7455  221.9467 H   0  0  0  0  0  0  0  0  0  0  0  0
  140.4757   79.5253  221.5716 H   0  0  0  0  0  0  0  0  0  0  0  0
  142.3259   77.8580  223.1926 H   0  0  0  0  0  0  0  0  0  0  0  0
  140.6262   78.5121  223.5110 H   0  0  0  0  0  0  0  0  0  0  0  0
  141.0977   76.0625  223.2115 H   0  0  0  0  0  0  0  0  0  0  0  0
  136.2124   75.6414  222.7104 H   0  0  0  0  0  0  0  0  0  0  0  0
  138.6610   74.7130  222.7780 H   0  0  0  0  0  0  0  0  0  0  0  0
  139.0328   69.8354  222.5956 H   0  0  0  0  0  0  0  0  0  0  0  0
  139.2366   68.1906  224.4804 H   0  0  0  0  0  0  0  0  0  0  0  0
  139.8973   67.8344  226.7747 H   0  0  0  0  0  0  0  0  0  0  0  0
  141.4939   71.0214  229.2035 H   0  0  0  0  0  0  0  0  0  0  0  0
  141.2375   72.5275  227.2509 H   0  0  0  0  0  0  0  0  0  0  0  0
  1  2  2  0
  2  3  1  0
  3  4  1  0
  4  5  1  0
  5  6  2  0
  5  7  1  0
  7  8  1  0
  8  9  1  0
  9 10  1  0
 10 11  1  0
 11 12  1  0
 12 13  1  0
 13 14  2  0
 14 15  1  0
 15 16  2  0
 16 17  1  0
  2 18  1  0
 18 19  2  0
 19 20  1  0
 20 21  2  0
 21 22  1  0
 22 23  2  0
 23 24  1  0
 23 25  1  0
 25 26  2  0
 26 27  1  0
 27 28  2  0
 12  7  1  0
 17 13  1  0
 28 18  1  0
 27 21  1  0
  3 29  1  0
  4 30  1  0
  4 31  1  0
  8 32  1  0
  8 33  1  0
  9 34  1  0
  9 35  1  0
 10 36  1  0
 10 37  1  0
 11 38  1  0
 11 39  1  0
 12 40  1  1
 16 41  1  0
 17 42  1  0
 19 43  1  0
 20 44  1  0
 22 45  1  0
 25 46  1  0
 26 47  1  0
M  END
>  <smiles>  (43) 
O=C(NCC(=O)N1CCCC[C@H]1c1nnc[nH]1)c1ccc2cc(F)ccc2n1

>  <score_type>  (43) 
oracle

>  <origin>  (43) 
autodockgpu

>  <m_score__min__energy>  (43) 
-8.2599999999999998

>  <m_primary>  (43) 
energy

>  <rmsd>  (43) 
3.0256596687325836

>  <m_score__min__rmsd>  (43) 
3.0256596687325836

>  <meeko>  (43) 
{"free_energy": -7.36, "intermolecular_energy": -8.85, "internal_energy": -2.3, "cluster_size": 7, "cluster_id": 2, "rank_in_cluster": 5}

>  <energy>  (43) 
-6.48

>  <cluster_rmsd>  (43) 
1.09

>  <cluster>  (43) 
6

$$$$

     RDKit          3D

 47 50  0  0  0  0  0  0  0  0999 V2000
  141.3040   72.6610  221.9030 O   0  0  0  0  0  0  0  0  0  0  0  0
  140.2570   72.5840  222.6070 C   0  0  0  0  0  0  0  0  0  0  0  0
  139.1370   73.4310  222.3420 N   0  0  0  0  0  0  0  0  0  0  0  0
  139.2550   74.3720  221.2410 C   0  0  0  0  0  0  0  0  0  0  0  0
  139.2120   75.7690  221.7260 C   0  0  0  0  0  0  0  0  0  0  0  0
  138.1620   76.2350  222.2380 O   0  0  0  0  0  0  0  0  0  0  0  0
  140.3830   76.5610  221.5940 N   0  0  0  0  0  0  0  0  0  0  0  0
  141.0790   77.1280  222.7330 C   0  0  0  0  0  0  0  0  0  0  0  0
  141.0600   78.6190  222.5470 C   0  0  0  0  0  0  0  0  0  0  0  0
  141.6580   79.0650  221.2440 C   0  0  0  0  0  0  0  0  0  0  0  0
  141.1850   78.2920  220.0630 C   0  0  0  0  0  0  0  0  0  0  0  0
  140.9430   76.8430  220.2800 C   0  0  1  0  0  0  0  0  0  0  0  0
  142.1620   76.0100  220.1350 C   0  0  0  0  0  0  0  0  0  0  0  0
  143.1080   76.2810  219.2040 N   0  0  0  0  0  0  0  0  0  0  0  0
  144.0530   75.3490  219.3480 N   0  0  0  0  0  0  0  0  0  0  0  0
  143.7070   74.5190  220.3390 C   0  0  0  0  0  0  0  0  0  0  0  0
  142.5270   74.9160  220.8440 N   0  0  0  0  0  0  0  0  0  0  0  0
  140.1710   71.6240  223.7110 C   0  0  0  0  0  0  0  0  0  0  0  0
  139.5650   70.4020  223.4910 C   0  0  0  0  0  0  0  0  0  0  0  0
  139.4480   69.4420  224.4920 C   0  0  0  0  0  0  0  0  0  0  0  0
  139.9750   69.7880  225.7210 C   0  0  0  0  0  0  0  0  0  0  0  0
  139.9090   68.9040  226.7810 C   0  0  0  0  0  0  0  0  0  0  0  0
  140.4180   69.1940  228.0300 C   0  0  0  0  0  0  0  0  0  0  0  0
  140.3100   68.2740  229.0050 F   0  0  0  0  0  0  0  0  0  0  0  0
  141.0320   70.4280  228.2630 C   0  0  0  0  0  0  0  0  0  0  0  0
  141.0910   71.3000  227.1970 C   0  0  0  0  0  0  0  0  0  0  0  0
  140.5810   71.0060  225.9520 C   0  0  0  0  0  0  0  0  0  0  0  0
  140.6610   71.8900  224.9370 N   0  0  0  0  0  0  0  0  0  0  0  0
  138.2720   73.3560  222.9370 H   0  0  0  0  0  0  0  0  0  0  0  0
  140.2104   74.2009  220.7233 H   0  0  0  0  0  0  0  0  0  0  0  0
  138.4094   74.2145  220.5553 H   0  0  0  0  0  0  0  0  0  0  0  0
  140.5651   76.8551  223.6665 H   0  0  0  0  0  0  0  0  0  0  0  0
  142.1095   76.7488  222.7980 H   0  0  0  0  0  0  0  0  0  0  0  0
  140.0156   78.9621  222.5869 H   0  0  0  0  0  0  0  0  0  0  0  0
  141.6717   79.0544  223.3509 H   0  0  0  0  0  0  0  0  0  0  0  0
  141.4008   80.1233  221.0900 H   0  0  0  0  0  0  0  0  0  0  0  0
  142.7427   78.8985  221.3189 H   0  0  0  0  0  0  0  0  0  0  0  0
  140.2406   78.7425  219.7237 H   0  0  0  0  0  0  0  0  0  0  0  0
  142.0030   78.3465  219.3296 H   0  0  0  0  0  0  0  0  0  0  0  0
  140.2239   76.5787  219.4907 H   0  0  0  0  0  0  0  0  0  0  0  0
  144.2925   73.6538  220.6835 H   0  0  0  0  0  0  0  0  0  0  0  0
  141.9920   74.4850  221.6190 H   0  0  0  0  0  0  0  0  0  0  0  0
  139.1617   70.1805  222.4918 H   0  0  0  0  0  0  0  0  0  0  0  0
  138.9662   68.4690  224.3155 H   0  0  0  0  0  0  0  0  0  0  0  0
  139.4298   67.9267  226.6220 H   0  0  0  0  0  0  0  0  0  0  0  0
  141.4472   70.6900  229.2474 H   0  0  0  0  0  0  0  0  0  0  0  0
  141.5691   72.2791  227.3483 H   0  0  0  0  0  0  0  0  0  0  0  0
  1  2  2  0
  2  3  1  0
  3  4  1  0
  4  5  1  0
  5  6  2  0
  5  7  1  0
  7  8  1  0
  8  9  1  0
  9 10  1  0
 10 11  1  0
 11 12  1  0
 12 13  1  0
 13 14  2  0
 14 15  1  0
 15 16  2  0
 16 17  1  0
  2 18  1  0
 18 19  2  0
 19 20  1  0
 20 21  2  0
 21 22  1  0
 22 23  2  0
 23 24  1  0
 23 25  1  0
 25 26  2  0
 26 27  1  0
 27 28  2  0
 12  7  1  0
 17 13  1  0
 28 18  1  0
 27 21  1  0
  3 29  1  0
  4 30  1  0
  4 31  1  0
  8 32  1  0
  8 33  1  0
  9 34  1  0
  9 35  1  0
 10 36  1  0
 10 37  1  0
 11 38  1  0
 11 39  1  0
 12 40  1  6
 16 41  1  0
 17 42  1  0
 19 43  1  0
 20 44  1  0
 22 45  1  0
 25 46  1  0
 26 47  1  0
M  END
>  <smiles>  (44) 
O=C(NCC(=O)N1CCCC[C@H]1c1nnc[nH]1)c1ccc2cc(F)ccc2n1

>  <score_type>  (44) 
oracle

>  <origin>  (44) 
autodockgpu

>  <m_score__min__energy>  (44) 
-8.2599999999999998

>  <m_primary>  (44) 
energy

>  <rmsd>  (44) 
3.0273525938814148

>  <m_score__min__rmsd>  (44) 
3.0273525938814148

>  <meeko>  (44) 
{"free_energy": -7.66, "intermolecular_energy": -9.15, "internal_energy": -2.23, "cluster_size": 6, "cluster_id": 3, "rank_in_cluster": 4}

>  <energy>  (44) 
-6.48

>  <cluster_rmsd>  (44) 
1.02

>  <cluster>  (44) 
6

$$$$

     RDKit          3D

 47 50  0  0  0  0  0  0  0  0999 V2000
  139.3050   75.1010  222.6960 O   0  0  0  0  0  0  0  0  0  0  0  0
  139.9960   75.3130  221.6580 C   0  0  0  0  0  0  0  0  0  0  0  0
  139.7220   76.4360  220.8180 N   0  0  0  0  0  0  0  0  0  0  0  0
  138.6280   77.3110  221.2060 C   0  0  0  0  0  0  0  0  0  0  0  0
  139.0990   78.3890  222.1020 C   0  0  0  0  0  0  0  0  0  0  0  0
  138.2880   79.0160  222.8300 O   0  0  0  0  0  0  0  0  0  0  0  0
  140.4870   78.6920  222.1140 N   0  0  0  0  0  0  0  0  0  0  0  0
  141.4010   78.1450  223.0990 C   0  0  0  0  0  0  0  0  0  0  0  0
  141.9920   79.3170  223.8300 C   0  0  0  0  0  0  0  0  0  0  0  0
  142.6660   80.3070  222.9240 C   0  0  0  0  0  0  0  0  0  0  0  0
  141.8690   80.6720  221.7220 C   0  0  0  0  0  0  0  0  0  0  0  0
  141.0590   79.5840  221.1160 C   0  0  1  0  0  0  0  0  0  0  0  0
  141.8180   78.7430  220.1590 C   0  0  0  0  0  0  0  0  0  0  0  0
  142.0420   79.1360  218.8810 N   0  0  0  0  0  0  0  0  0  0  0  0
  142.7440   78.1570  218.3070 N   0  0  0  0  0  0  0  0  0  0  0  0
  142.9520   77.1810  219.1980 C   0  0  0  0  0  0  0  0  0  0  0  0
  142.3800   77.5290  220.3620 N   0  0  0  0  0  0  0  0  0  0  0  0
  141.0930   74.4110  221.2960 C   0  0  0  0  0  0  0  0  0  0  0  0
  140.8410   73.0570  221.1930 C   0  0  0  0  0  0  0  0  0  0  0  0
  141.8330   72.1420  220.8530 C   0  0  0  0  0  0  0  0  0  0  0  0
  143.0870   72.6740  220.6260 C   0  0  0  0  0  0  0  0  0  0  0  0
  144.1410   71.8480  220.2820 C   0  0  0  0  0  0  0  0  0  0  0  0
  145.4150   72.3210  220.0430 C   0  0  0  0  0  0  0  0  0  0  0  0
  146.3820   71.4470  219.7140 F   0  0  0  0  0  0  0  0  0  0  0  0
  145.6810   73.6900  220.1450 C   0  0  0  0  0  0  0  0  0  0  0  0
  144.6200   74.5010  220.4880 C   0  0  0  0  0  0  0  0  0  0  0  0
  143.3500   74.0240  220.7260 C   0  0  0  0  0  0  0  0  0  0  0  0
  142.3420   74.8550  221.0590 N   0  0  0  0  0  0  0  0  0  0  0  0
  140.3050   76.6000  219.9570 H   0  0  0  0  0  0  0  0  0  0  0  0
  138.1902   77.7607  220.3026 H   0  0  0  0  0  0  0  0  0  0  0  0
  137.8773   76.7134  221.7439 H   0  0  0  0  0  0  0  0  0  0  0  0
  140.8586   77.4939  223.8004 H   0  0  0  0  0  0  0  0  0  0  0  0
  142.1843   77.5383  222.6211 H   0  0  0  0  0  0  0  0  0  0  0  0
  141.1854   79.8329  224.3716 H   0  0  0  0  0  0  0  0  0  0  0  0
  142.7620   78.9215  224.5088 H   0  0  0  0  0  0  0  0  0  0  0  0
  142.8625   81.2237  223.4994 H   0  0  0  0  0  0  0  0  0  0  0  0
  143.5868   79.8278  222.5601 H   0  0  0  0  0  0  0  0  0  0  0  0
  141.1821   81.4820  222.0083 H   0  0  0  0  0  0  0  0  0  0  0  0
  142.6057   80.9524  220.9548 H   0  0  0  0  0  0  0  0  0  0  0  0
  140.2630   80.1205  220.5788 H   0  0  0  0  0  0  0  0  0  0  0  0
  143.5012   76.2470  219.0083 H   0  0  0  0  0  0  0  0  0  0  0  0
  142.3640   76.9890  221.2470 H   0  0  0  0  0  0  0  0  0  0  0  0
  139.8223   72.6896  221.3861 H   0  0  0  0  0  0  0  0  0  0  0  0
  141.6311   71.0639  220.7703 H   0  0  0  0  0  0  0  0  0  0  0  0
  143.9560   70.7672  220.1951 H   0  0  0  0  0  0  0  0  0  0  0  0
  146.6854   74.0990  219.9610 H   0  0  0  0  0  0  0  0  0  0  0  0
  144.7967   75.5832  220.5760 H   0  0  0  0  0  0  0  0  0  0  0  0
  1  2  2  0
  2  3  1  0
  3  4  1  0
  4  5  1  0
  5  6  2  0
  5  7  1  0
  7  8  1  0
  8  9  1  0
  9 10  1  0
 10 11  1  0
 11 12  1  0
 12 13  1  0
 13 14  2  0
 14 15  1  0
 15 16  2  0
 16 17  1  0
  2 18  1  0
 18 19  2  0
 19 20  1  0
 20 21  2  0
 21 22  1  0
 22 23  2  0
 23 24  1  0
 23 25  1  0
 25 26  2  0
 26 27  1  0
 27 28  2  0
 12  7  1  0
 17 13  1  0
 28 18  1  0
 27 21  1  0
  3 29  1  0
  4 30  1  0
  4 31  1  0
  8 32  1  0
  8 33  1  0
  9 34  1  0
  9 35  1  0
 10 36  1  0
 10 37  1  0
 11 38  1  0
 11 39  1  0
 12 40  1  6
 16 41  1  0
 17 42  1  0
 19 43  1  0
 20 44  1  0
 22 45  1  0
 25 46  1  0
 26 47  1  0
M  END
>  <smiles>  (45) 
O=C(NCC(=O)N1CCCC[C@H]1c1nnc[nH]1)c1ccc2cc(F)ccc2n1

>  <score_type>  (45) 
oracle

>  <origin>  (45) 
autodockgpu

>  <m_score__min__energy>  (45) 
-8.2599999999999998

>  <m_primary>  (45) 
energy

>  <rmsd>  (45) 
6.139377105773187

>  <m_score__min__rmsd>  (45) 
6.139377105773187

>  <meeko>  (45) 
{"free_energy": -6.89, "intermolecular_energy": -8.38, "internal_energy": -2.83, "cluster_size": 17, "cluster_id": 6, "rank_in_cluster": 8}

>  <energy>  (45) 
-6.47

>  <cluster_rmsd>  (45) 
1.04

>  <cluster>  (45) 
6

$$$$

     RDKit          3D

 47 50  0  0  0  0  0  0  0  0999 V2000
  141.3290   72.0620  221.4530 O   0  0  0  0  0  0  0  0  0  0  0  0
  140.4400   72.3550  222.3040 C   0  0  0  0  0  0  0  0  0  0  0  0
  139.6060   73.5010  222.1210 N   0  0  0  0  0  0  0  0  0  0  0  0
  139.8230   74.3030  220.9280 C   0  0  0  0  0  0  0  0  0  0  0  0
  140.5000   75.5750  221.2580 C   0  0  0  0  0  0  0  0  0  0  0  0
  141.7440   75.6920  221.1180 O   0  0  0  0  0  0  0  0  0  0  0  0
  139.7080   76.6530  221.7340 N   0  0  0  0  0  0  0  0  0  0  0  0
  138.6710   76.4830  222.7350 C   0  0  0  0  0  0  0  0  0  0  0  0
  137.3830   76.9180  222.0930 C   0  0  0  0  0  0  0  0  0  0  0  0
  137.4270   78.3220  221.5620 C   0  0  0  0  0  0  0  0  0  0  0  0
  138.6460   78.6320  220.7660 C   0  0  0  0  0  0  0  0  0  0  0  0
  139.9090   78.0020  221.2260 C   0  0  1  0  0  0  0  0  0  0  0  0
  140.6030   78.7720  222.2880 C   0  0  0  0  0  0  0  0  0  0  0  0
  139.9890   79.7750  222.9630 N   0  0  0  0  0  0  0  0  0  0  0  0
  140.8860   80.2440  223.8330 N   0  0  0  0  0  0  0  0  0  0  0  0
  142.0260   79.5560  223.7060 C   0  0  0  0  0  0  0  0  0  0  0  0
  141.8690   78.6300  222.7450 N   0  0  0  0  0  0  0  0  0  0  0  0
  140.2480   71.5250  223.4960 C   0  0  0  0  0  0  0  0  0  0  0  0
  139.5650   70.3300  223.3770 C   0  0  0  0  0  0  0  0  0  0  0  0
  139.3460   69.4910  224.4660 C   0  0  0  0  0  0  0  0  0  0  0  0
  139.8540   69.9280  225.6730 C   0  0  0  0  0  0  0  0  0  0  0  0
  139.6890   69.1670  226.8150 C   0  0  0  0  0  0  0  0  0  0  0  0
  140.1740   69.5520  228.0480 C   0  0  0  0  0  0  0  0  0  0  0  0
  139.9680   68.7490  229.1070 F   0  0  0  0  0  0  0  0  0  0  0  0
  140.8660   70.7590  228.1780 C   0  0  0  0  0  0  0  0  0  0  0  0
  141.0240   71.5080  227.0320 C   0  0  0  0  0  0  0  0  0  0  0  0
  140.5370   71.1200  225.8030 C   0  0  0  0  0  0  0  0  0  0  0  0
  140.7150   71.8840  224.7070 N   0  0  0  0  0  0  0  0  0  0  0  0
  138.8710   73.7320  222.8370 H   0  0  0  0  0  0  0  0  0  0  0  0
  140.4480   73.7358  220.2225 H   0  0  0  0  0  0  0  0  0  0  0  0
  138.8455   74.5335  220.4793 H   0  0  0  0  0  0  0  0  0  0  0  0
  138.6064   75.4281  223.0399 H   0  0  0  0  0  0  0  0  0  0  0  0
  138.8867   77.0760  223.6360 H   0  0  0  0  0  0  0  0  0  0  0  0
  137.1613   76.2362  221.2587 H   0  0  0  0  0  0  0  0  0  0  0  0
  136.6058   76.8887  222.8708 H   0  0  0  0  0  0  0  0  0  0  0  0
  136.5468   78.4766  220.9206 H   0  0  0  0  0  0  0  0  0  0  0  0
  137.4390   78.9914  222.4348 H   0  0  0  0  0  0  0  0  0  0  0  0
  138.4641   78.3027  219.7323 H   0  0  0  0  0  0  0  0  0  0  0  0
  138.8011   79.7154  220.8765 H   0  0  0  0  0  0  0  0  0  0  0  0
  140.5340   77.9824  220.3210 H   0  0  0  0  0  0  0  0  0  0  0  0
  142.9420   79.7212  224.2922 H   0  0  0  0  0  0  0  0  0  0  0  0
  142.5650   77.9400  222.4090 H   0  0  0  0  0  0  0  0  0  0  0  0
  139.1819   70.0319  222.3899 H   0  0  0  0  0  0  0  0  0  0  0  0
  138.8023   68.5395  224.3708 H   0  0  0  0  0  0  0  0  0  0  0  0
  139.1474   68.2127  226.7374 H   0  0  0  0  0  0  0  0  0  0  0  0
  141.2647   71.0946  229.1467 H   0  0  0  0  0  0  0  0  0  0  0  0
  141.5657   72.4628  227.1020 H   0  0  0  0  0  0  0  0  0  0  0  0
  1  2  2  0
  2  3  1  0
  3  4  1  0
  4  5  1  0
  5  6  2  0
  5  7  1  0
  7  8  1  0
  8  9  1  0
  9 10  1  0
 10 11  1  0
 11 12  1  0
 12 13  1  0
 13 14  2  0
 14 15  1  0
 15 16  2  0
 16 17  1  0
  2 18  1  0
 18 19  2  0
 19 20  1  0
 20 21  2  0
 21 22  1  0
 22 23  2  0
 23 24  1  0
 23 25  1  0
 25 26  2  0
 26 27  1  0
 27 28  2  0
 12  7  1  0
 17 13  1  0
 28 18  1  0
 27 21  1  0
  3 29  1  0
  4 30  1  0
  4 31  1  0
  8 32  1  0
  8 33  1  0
  9 34  1  0
  9 35  1  0
 10 36  1  0
 10 37  1  0
 11 38  1  0
 11 39  1  0
 12 40  1  6
 16 41  1  0
 17 42  1  0
 19 43  1  0
 20 44  1  0
 22 45  1  0
 25 46  1  0
 26 47  1  0
M  END
>  <smiles>  (46) 
O=C(NCC(=O)N1CCCC[C@H]1c1nnc[nH]1)c1ccc2cc(F)ccc2n1

>  <score_type>  (46) 
oracle

>  <origin>  (46) 
autodockgpu

>  <m_score__min__energy>  (46) 
-8.2599999999999998

>  <m_primary>  (46) 
energy

>  <rmsd>  (46) 
2.64302613699478

>  <m_score__min__rmsd>  (46) 
2.64302613699478

>  <meeko>  (46) 
{"free_energy": -7.9, "intermolecular_energy": -9.39, "internal_energy": -1.5, "cluster_size": 7, "cluster_id": 2, "rank_in_cluster": 4}

>  <energy>  (46) 
-6.42

>  <cluster_rmsd>  (46) 
1.02

>  <cluster>  (46) 
6

$$$$

     RDKit          3D

 47 50  0  0  0  0  0  0  0  0999 V2000
  141.3440   71.9500  221.3900 O   0  0  0  0  0  0  0  0  0  0  0  0
  140.4580   72.2910  222.2250 C   0  0  0  0  0  0  0  0  0  0  0  0
  139.6540   73.4520  222.0030 N   0  0  0  0  0  0  0  0  0  0  0  0
  139.9000   74.2130  220.7890 C   0  0  0  0  0  0  0  0  0  0  0  0
  140.7400   75.3990  221.0650 C   0  0  0  0  0  0  0  0  0  0  0  0
  140.5570   76.0840  222.1040 O   0  0  0  0  0  0  0  0  0  0  0  0
  141.7490   75.7400  220.1260 N   0  0  0  0  0  0  0  0  0  0  0  0
  142.3870   77.0430  220.0980 C   0  0  0  0  0  0  0  0  0  0  0  0
  142.1020   77.6280  218.7430 C   0  0  0  0  0  0  0  0  0  0  0  0
  142.5560   76.7540  217.6090 C   0  0  0  0  0  0  0  0  0  0  0  0
  142.1720   75.3240  217.7530 C   0  0  0  0  0  0  0  0  0  0  0  0
  142.1940   74.7740  219.1320 C   0  0  1  0  0  0  0  0  0  0  0  0
  143.5300   74.2910  219.5570 C   0  0  0  0  0  0  0  0  0  0  0  0
  144.3410   73.5980  218.7200 N   0  0  0  0  0  0  0  0  0  0  0  0
  145.4480   73.3240  219.4140 N   0  0  0  0  0  0  0  0  0  0  0  0
  145.3320   73.8290  220.6480 C   0  0  0  0  0  0  0  0  0  0  0  0
  144.1400   74.4370  220.7570 N   0  0  0  0  0  0  0  0  0  0  0  0
  140.2360   71.5010  223.4390 C   0  0  0  0  0  0  0  0  0  0  0  0
  139.5320   70.3160  223.3480 C   0  0  0  0  0  0  0  0  0  0  0  0
  139.2840   69.5140  224.4590 C   0  0  0  0  0  0  0  0  0  0  0  0
  139.7850   69.9780  225.6580 C   0  0  0  0  0  0  0  0  0  0  0  0
  139.5930   69.2550  226.8200 C   0  0  0  0  0  0  0  0  0  0  0  0
  140.0700   69.6680  228.0470 C   0  0  0  0  0  0  0  0  0  0  0  0
  139.8360   68.9020  229.1270 F   0  0  0  0  0  0  0  0  0  0  0  0
  140.7830   70.8660  228.1500 C   0  0  0  0  0  0  0  0  0  0  0  0
  140.9680   71.5770  226.9830 C   0  0  0  0  0  0  0  0  0  0  0  0
  140.4890   71.1600  225.7610 C   0  0  0  0  0  0  0  0  0  0  0  0
  140.6940   71.8880  224.6440 N   0  0  0  0  0  0  0  0  0  0  0  0
  138.9210   73.7230  222.7070 H   0  0  0  0  0  0  0  0  0  0  0  0
  140.4148   73.5699  220.0600 H   0  0  0  0  0  0  0  0  0  0  0  0
  138.9339   74.5545  220.3889 H   0  0  0  0  0  0  0  0  0  0  0  0
  141.9698   77.6875  220.8857 H   0  0  0  0  0  0  0  0  0  0  0  0
  143.4693   76.9602  220.2762 H   0  0  0  0  0  0  0  0  0  0  0  0
  141.0168   77.7828  218.6512 H   0  0  0  0  0  0  0  0  0  0  0  0
  142.6638   78.5710  218.6715 H   0  0  0  0  0  0  0  0  0  0  0  0
  142.1137   77.1384  216.6781 H   0  0  0  0  0  0  0  0  0  0  0  0
  143.6555   76.7881  217.6027 H   0  0  0  0  0  0  0  0  0  0  0  0
  141.1498   75.2103  217.3628 H   0  0  0  0  0  0  0  0  0  0  0  0
  142.9346   74.7576  217.1985 H   0  0  0  0  0  0  0  0  0  0  0  0
  141.4974   73.9241  219.0832 H   0  0  0  0  0  0  0  0  0  0  0  0
  146.0892   73.7576  221.4427 H   0  0  0  0  0  0  0  0  0  0  0  0
  143.7500   74.9250  221.5830 H   0  0  0  0  0  0  0  0  0  0  0  0
  139.1549   69.9954  222.3657 H   0  0  0  0  0  0  0  0  0  0  0  0
  138.7240   68.5701  224.3854 H   0  0  0  0  0  0  0  0  0  0  0  0
  139.0353   68.3085  226.7642 H   0  0  0  0  0  0  0  0  0  0  0  0
  141.1765   71.2234  229.1130 H   0  0  0  0  0  0  0  0  0  0  0  0
  141.5257   72.5240  227.0305 H   0  0  0  0  0  0  0  0  0  0  0  0
  1  2  2  0
  2  3  1  0
  3  4  1  0
  4  5  1  0
  5  6  2  0
  5  7  1  0
  7  8  1  0
  8  9  1  0
  9 10  1  0
 10 11  1  0
 11 12  1  0
 12 13  1  0
 13 14  2  0
 14 15  1  0
 15 16  2  0
 16 17  1  0
  2 18  1  0
 18 19  2  0
 19 20  1  0
 20 21  2  0
 21 22  1  0
 22 23  2  0
 23 24  1  0
 23 25  1  0
 25 26  2  0
 26 27  1  0
 27 28  2  0
 12  7  1  0
 17 13  1  0
 28 18  1  0
 27 21  1  0
  3 29  1  0
  4 30  1  0
  4 31  1  0
  8 32  1  0
  8 33  1  0
  9 34  1  0
  9 35  1  0
 10 36  1  0
 10 37  1  0
 11 38  1  0
 11 39  1  0
 12 40  1  6
 16 41  1  0
 17 42  1  0
 19 43  1  0
 20 44  1  0
 22 45  1  0
 25 46  1  0
 26 47  1  0
M  END
>  <smiles>  (47) 
O=C(NCC(=O)N1CCCC[C@H]1c1nnc[nH]1)c1ccc2cc(F)ccc2n1

>  <score_type>  (47) 
oracle

>  <origin>  (47) 
autodockgpu

>  <m_score__min__energy>  (47) 
-8.2599999999999998

>  <m_primary>  (47) 
energy

>  <rmsd>  (47) 
2.868512999507723

>  <m_score__min__rmsd>  (47) 
2.868512999507723

>  <meeko>  (47) 
{"free_energy": -7.78, "intermolecular_energy": -9.28, "internal_energy": -1.63, "cluster_size": 14, "cluster_id": 1, "rank_in_cluster": 7}

>  <energy>  (47) 
-6.78

>  <cluster_rmsd>  (47) 
0.0

>  <cluster>  (47) 
7

$$$$

     RDKit          3D

 47 50  0  0  0  0  0  0  0  0999 V2000
  141.2280   72.1030  221.4660 O   0  0  0  0  0  0  0  0  0  0  0  0
  140.4000   72.3980  222.3760 C   0  0  0  0  0  0  0  0  0  0  0  0
  139.5970   73.5760  222.2760 N   0  0  0  0  0  0  0  0  0  0  0  0
  139.7750   74.4080  221.0980 C   0  0  0  0  0  0  0  0  0  0  0  0
  140.8140   75.4360  221.3230 C   0  0  0  0  0  0  0  0  0  0  0  0
  140.7570   76.1950  222.3240 O   0  0  0  0  0  0  0  0  0  0  0  0
  141.8710   75.5390  220.3790 N   0  0  0  0  0  0  0  0  0  0  0  0
  142.5420   76.7920  220.0850 C   0  0  0  0  0  0  0  0  0  0  0  0
  142.3290   77.0570  218.6220 C   0  0  0  0  0  0  0  0  0  0  0  0
  142.8080   75.9420  217.7380 C   0  0  0  0  0  0  0  0  0  0  0  0
  142.3820   74.5870  218.1850 C   0  0  0  0  0  0  0  0  0  0  0  0
  142.3320   74.3650  219.6520 C   0  0  1  0  0  0  0  0  0  0  0  0
  143.6380   73.9720  220.2380 C   0  0  0  0  0  0  0  0  0  0  0  0
  144.7150   74.7950  220.2030 N   0  0  0  0  0  0  0  0  0  0  0  0
  145.7060   74.1380  220.8090 N   0  0  0  0  0  0  0  0  0  0  0  0
  145.2620   72.9420  221.2110 C   0  0  0  0  0  0  0  0  0  0  0  0
  143.9710   72.8190  220.8620 N   0  0  0  0  0  0  0  0  0  0  0  0
  140.2470   71.5360  223.5510 C   0  0  0  0  0  0  0  0  0  0  0  0
  139.6300   70.3090  223.4070 C   0  0  0  0  0  0  0  0  0  0  0  0
  139.4500   69.4390  224.4790 C   0  0  0  0  0  0  0  0  0  0  0  0
  139.9270   69.8810  225.6970 C   0  0  0  0  0  0  0  0  0  0  0  0
  139.7980   69.0910  226.8240 C   0  0  0  0  0  0  0  0  0  0  0  0
  140.2540   69.4780  228.0660 C   0  0  0  0  0  0  0  0  0  0  0  0
  140.0860   68.6460  229.1090 F   0  0  0  0  0  0  0  0  0  0  0  0
  140.8780   70.7190  228.2230 C   0  0  0  0  0  0  0  0  0  0  0  0
  141.0020   71.4970  227.0920 C   0  0  0  0  0  0  0  0  0  0  0  0
  140.5440   71.1050  225.8530 C   0  0  0  0  0  0  0  0  0  0  0  0
  140.6860   71.8980  224.7720 N   0  0  0  0  0  0  0  0  0  0  0  0
  138.9130   73.8090  223.0410 H   0  0  0  0  0  0  0  0  0  0  0  0
  140.0757   73.7727  220.2518 H   0  0  0  0  0  0  0  0  0  0  0  0
  138.8232   74.9154  220.8821 H   0  0  0  0  0  0  0  0  0  0  0  0
  142.1084   77.6052  220.6855 H   0  0  0  0  0  0  0  0  0  0  0  0
  143.6136   76.7357  220.3271 H   0  0  0  0  0  0  0  0  0  0  0  0
  141.2528   77.2028  218.4471 H   0  0  0  0  0  0  0  0  0  0  0  0
  142.9168   77.9505  218.3649 H   0  0  0  0  0  0  0  0  0  0  0  0
  142.4148   76.1111  216.7247 H   0  0  0  0  0  0  0  0  0  0  0  0
  143.9073   75.9575  217.7748 H   0  0  0  0  0  0  0  0  0  0  0  0
  141.3747   74.4027  217.7834 H   0  0  0  0  0  0  0  0  0  0  0  0
  143.1530   73.8980  217.8097 H   0  0  0  0  0  0  0  0  0  0  0  0
  141.6169   73.5368  219.7646 H   0  0  0  0  0  0  0  0  0  0  0  0
  145.8569   72.1834  221.7407 H   0  0  0  0  0  0  0  0  0  0  0  0
  143.3430   72.0130  221.0300 H   0  0  0  0  0  0  0  0  0  0  0  0
  139.2687   70.0090  222.4123 H   0  0  0  0  0  0  0  0  0  0  0  0
  138.9589   68.4616  224.3630 H   0  0  0  0  0  0  0  0  0  0  0  0
  139.3099   68.1102  226.7254 H   0  0  0  0  0  0  0  0  0  0  0  0
  141.2515   71.0578  229.2006 H   0  0  0  0  0  0  0  0  0  0  0  0
  141.4903   72.4785  227.1829 H   0  0  0  0  0  0  0  0  0  0  0  0
  1  2  2  0
  2  3  1  0
  3  4  1  0
  4  5  1  0
  5  6  2  0
  5  7  1  0
  7  8  1  0
  8  9  1  0
  9 10  1  0
 10 11  1  0
 11 12  1  0
 12 13  1  0
 13 14  2  0
 14 15  1  0
 15 16  2  0
 16 17  1  0
  2 18  1  0
 18 19  2  0
 19 20  1  0
 20 21  2  0
 21 22  1  0
 22 23  2  0
 23 24  1  0
 23 25  1  0
 25 26  2  0
 26 27  1  0
 27 28  2  0
 12  7  1  0
 17 13  1  0
 28 18  1  0
 27 21  1  0
  3 29  1  0
  4 30  1  0
  4 31  1  0
  8 32  1  0
  8 33  1  0
  9 34  1  0
  9 35  1  0
 10 36  1  0
 10 37  1  0
 11 38  1  0
 11 39  1  0
 12 40  1  6
 16 41  1  0
 17 42  1  0
 19 43  1  0
 20 44  1  0
 22 45  1  0
 25 46  1  0
 26 47  1  0
M  END
>  <smiles>  (48) 
O=C(NCC(=O)N1CCCC[C@H]1c1nnc[nH]1)c1ccc2cc(F)ccc2n1

>  <score_type>  (48) 
oracle

>  <origin>  (48) 
autodockgpu

>  <m_score__min__energy>  (48) 
-8.2599999999999998

>  <m_primary>  (48) 
energy

>  <rmsd>  (48) 
3.169279427131805

>  <m_score__min__rmsd>  (48) 
3.169279427131805

>  <meeko>  (48) 
{"free_energy": -7.82, "intermolecular_energy": -9.31, "internal_energy": -2.21, "cluster_size": 14, "cluster_id": 1, "rank_in_cluster": 6}

>  <energy>  (48) 
-6.76

>  <cluster_rmsd>  (48) 
0.08

>  <cluster>  (48) 
7

$$$$

     RDKit          3D

 47 50  0  0  0  0  0  0  0  0999 V2000
  139.2830   75.1050  222.7130 O   0  0  0  0  0  0  0  0  0  0  0  0
  139.9840   75.3260  221.6840 C   0  0  0  0  0  0  0  0  0  0  0  0
  139.7270   76.4630  220.8570 N   0  0  0  0  0  0  0  0  0  0  0  0
  138.6380   77.3410  221.2480 C   0  0  0  0  0  0  0  0  0  0  0  0
  139.1130   78.4070  222.1570 C   0  0  0  0  0  0  0  0  0  0  0  0
  138.3100   78.9990  222.9230 O   0  0  0  0  0  0  0  0  0  0  0  0
  140.4930   78.7400  222.1370 N   0  0  0  0  0  0  0  0  0  0  0  0
  141.4370   78.2350  223.1160 C   0  0  0  0  0  0  0  0  0  0  0  0
  142.0150   79.4350  223.8110 C   0  0  0  0  0  0  0  0  0  0  0  0
  142.6520   80.4190  222.8710 C   0  0  0  0  0  0  0  0  0  0  0  0
  141.8250   80.7390  221.6760 C   0  0  0  0  0  0  0  0  0  0  0  0
  141.0280   79.6220  221.1090 C   0  0  1  0  0  0  0  0  0  0  0  0
  141.7870   78.7750  220.1570 C   0  0  0  0  0  0  0  0  0  0  0  0
  142.0550   79.1830  218.8920 N   0  0  0  0  0  0  0  0  0  0  0  0
  142.7440   78.1940  218.3180 N   0  0  0  0  0  0  0  0  0  0  0  0
  142.9020   77.1980  219.1970 C   0  0  0  0  0  0  0  0  0  0  0  0
  142.3110   77.5430  220.3530 N   0  0  0  0  0  0  0  0  0  0  0  0
  141.0760   74.4190  221.3190 C   0  0  0  0  0  0  0  0  0  0  0  0
  140.8200   73.0650  221.2250 C   0  0  0  0  0  0  0  0  0  0  0  0
  141.8070   72.1450  220.8830 C   0  0  0  0  0  0  0  0  0  0  0  0
  143.0610   72.6720  220.6430 C   0  0  0  0  0  0  0  0  0  0  0  0
  144.1100   71.8430  220.2960 C   0  0  0  0  0  0  0  0  0  0  0  0
  145.3830   72.3110  220.0440 C   0  0  0  0  0  0  0  0  0  0  0  0
  146.3460   71.4320  219.7130 F   0  0  0  0  0  0  0  0  0  0  0  0
  145.6530   73.6800  220.1370 C   0  0  0  0  0  0  0  0  0  0  0  0
  144.5970   74.4960  220.4830 C   0  0  0  0  0  0  0  0  0  0  0  0
  143.3280   74.0230  220.7340 C   0  0  0  0  0  0  0  0  0  0  0  0
  142.3240   74.8580  221.0700 N   0  0  0  0  0  0  0  0  0  0  0  0
  140.3190   76.6330  220.0040 H   0  0  0  0  0  0  0  0  0  0  0  0
  138.2076   77.8026  220.3471 H   0  0  0  0  0  0  0  0  0  0  0  0
  137.8803   76.7436  221.7762 H   0  0  0  0  0  0  0  0  0  0  0  0
  140.9224   77.5874  223.8411 H   0  0  0  0  0  0  0  0  0  0  0  0
  142.2249   77.6358  222.6362 H   0  0  0  0  0  0  0  0  0  0  0  0
  141.2070   79.9456  224.3554 H   0  0  0  0  0  0  0  0  0  0  0  0
  142.8047   79.0712  224.4848 H   0  0  0  0  0  0  0  0  0  0  0  0
  142.8387   81.3525  223.4222 H   0  0  0  0  0  0  0  0  0  0  0  0
  143.5770   79.9522  222.5014 H   0  0  0  0  0  0  0  0  0  0  0  0
  141.1260   81.5405  221.9571 H   0  0  0  0  0  0  0  0  0  0  0  0
  142.5418   81.0166  220.8892 H   0  0  0  0  0  0  0  0  0  0  0  0
  140.2119   80.1304  220.5748 H   0  0  0  0  0  0  0  0  0  0  0  0
  143.4292   76.2519  219.0048 H   0  0  0  0  0  0  0  0  0  0  0  0
  142.2570   76.9900  221.2280 H   0  0  0  0  0  0  0  0  0  0  0  0
  139.8017   72.7014  221.4273 H   0  0  0  0  0  0  0  0  0  0  0  0
  141.6014   71.0669  220.8086 H   0  0  0  0  0  0  0  0  0  0  0  0
  143.9220   70.7621  220.2171 H   0  0  0  0  0  0  0  0  0  0  0  0
  146.6572   74.0853  219.9438 H   0  0  0  0  0  0  0  0  0  0  0  0
  144.7768   75.5783  220.5626 H   0  0  0  0  0  0  0  0  0  0  0  0
  1  2  2  0
  2  3  1  0
  3  4  1  0
  4  5  1  0
  5  6  2  0
  5  7  1  0
  7  8  1  0
  8  9  1  0
  9 10  1  0
 10 11  1  0
 11 12  1  0
 12 13  1  0
 13 14  2  0
 14 15  1  0
 15 16  2  0
 16 17  1  0
  2 18  1  0
 18 19  2  0
 19 20  1  0
 20 21  2  0
 21 22  1  0
 22 23  2  0
 23 24  1  0
 23 25  1  0
 25 26  2  0
 26 27  1  0
 27 28  2  0
 12  7  1  0
 17 13  1  0
 28 18  1  0
 27 21  1  0
  3 29  1  0
  4 30  1  0
  4 31  1  0
  8 32  1  0
  8 33  1  0
  9 34  1  0
  9 35  1  0
 10 36  1  0
 10 37  1  0
 11 38  1  0
 11 39  1  0
 12 40  1  6
 16 41  1  0
 17 42  1  0
 19 43  1  0
 20 44  1  0
 22 45  1  0
 25 46  1  0
 26 47  1  0
M  END
>  <smiles>  (49) 
O=C(NCC(=O)N1CCCC[C@H]1c1nnc[nH]1)c1ccc2cc(F)ccc2n1

>  <score_type>  (49) 
oracle

>  <origin>  (49) 
autodockgpu

>  <m_score__min__energy>  (49) 
-8.2599999999999998

>  <m_primary>  (49) 
energy

>  <rmsd>  (49) 
6.143389927001664

>  <m_score__min__rmsd>  (49) 
6.143389927001664

>  <meeko>  (49) 
{"free_energy": -6.94, "intermolecular_energy": -8.43, "internal_energy": -2.81, "cluster_size": 17, "cluster_id": 6, "rank_in_cluster": 4}

>  <energy>  (49) 
-6.74

>  <cluster_rmsd>  (49) 
0.07

>  <cluster>  (49) 
7

$$$$

     RDKit          3D

 47 50  0  0  0  0  0  0  0  0999 V2000
  141.6430   72.0970  221.5670 O   0  0  0  0  0  0  0  0  0  0  0  0
  140.6580   72.3530  222.3190 C   0  0  0  0  0  0  0  0  0  0  0  0
  139.7890   73.4510  222.0330 N   0  0  0  0  0  0  0  0  0  0  0  0
  140.0830   74.2470  220.8540 C   0  0  0  0  0  0  0  0  0  0  0  0
  141.2770   75.0950  221.0680 C   0  0  0  0  0  0  0  0  0  0  0  0
  141.4450   75.6970  222.1590 O   0  0  0  0  0  0  0  0  0  0  0  0
  142.2180   75.2080  220.0110 N   0  0  0  0  0  0  0  0  0  0  0  0
  142.9310   76.4380  219.7220 C   0  0  0  0  0  0  0  0  0  0  0  0
  142.5630   76.8250  218.3170 C   0  0  0  0  0  0  0  0  0  0  0  0
  142.8590   75.7530  217.3070 C   0  0  0  0  0  0  0  0  0  0  0  0
  142.4010   74.3960  217.7110 C   0  0  0  0  0  0  0  0  0  0  0  0
  142.5110   74.0670  219.1550 C   0  0  1  0  0  0  0  0  0  0  0  0
  143.8480   73.5570  219.5470 C   0  0  0  0  0  0  0  0  0  0  0  0
  144.8930   73.5480  218.6830 N   0  0  0  0  0  0  0  0  0  0  0  0
  145.9260   73.0320  219.3520 N   0  0  0  0  0  0  0  0  0  0  0  0
  145.5390   72.7270  220.5960 C   0  0  0  0  0  0  0  0  0  0  0  0
  144.2430   73.0480  220.7370 N   0  0  0  0  0  0  0  0  0  0  0  0
  140.3900   71.5290  223.5010 C   0  0  0  0  0  0  0  0  0  0  0  0
  139.6530   70.3700  223.3570 C   0  0  0  0  0  0  0  0  0  0  0  0
  139.3590   69.5390  224.4340 C   0  0  0  0  0  0  0  0  0  0  0  0
  139.8520   69.9470  225.6580 C   0  0  0  0  0  0  0  0  0  0  0  0
  139.6160   69.1900  226.7910 C   0  0  0  0  0  0  0  0  0  0  0  0
  140.0820   69.5460  228.0390 C   0  0  0  0  0  0  0  0  0  0  0  0
  139.8050   68.7510  229.0880 F   0  0  0  0  0  0  0  0  0  0  0  0
  140.8280   70.7180  228.1960 C   0  0  0  0  0  0  0  0  0  0  0  0
  141.0570   71.4620  227.0590 C   0  0  0  0  0  0  0  0  0  0  0  0
  140.5890   71.1020  225.8140 C   0  0  0  0  0  0  0  0  0  0  0  0
  140.8370   71.8610  224.7270 N   0  0  0  0  0  0  0  0  0  0  0  0
  138.9740   73.6520  222.6680 H   0  0  0  0  0  0  0  0  0  0  0  0
  140.2677   73.5745  220.0033 H   0  0  0  0  0  0  0  0  0  0  0  0
  139.2221   74.9007  220.6501 H   0  0  0  0  0  0  0  0  0  0  0  0
  142.6275   77.2274  220.4254 H   0  0  0  0  0  0  0  0  0  0  0  0
  144.0176   76.3014  219.8252 H   0  0  0  0  0  0  0  0  0  0  0  0
  141.4857   77.0451  218.2866 H   0  0  0  0  0  0  0  0  0  0  0  0
  143.1734   77.7004  218.0504 H   0  0  0  0  0  0  0  0  0  0  0  0
  142.3600   76.0196  216.3637 H   0  0  0  0  0  0  0  0  0  0  0  0
  143.9534   75.7027  217.2086 H   0  0  0  0  0  0  0  0  0  0  0  0
  141.3431   74.3005  217.4252 H   0  0  0  0  0  0  0  0  0  0  0  0
  143.0752   73.6943  217.1982 H   0  0  0  0  0  0  0  0  0  0  0  0
  141.7614   73.2749  219.2991 H   0  0  0  0  0  0  0  0  0  0  0  0
  146.1778   72.2857  221.3752 H   0  0  0  0  0  0  0  0  0  0  0  0
  143.6500   72.9360  221.5790 H   0  0  0  0  0  0  0  0  0  0  0  0
  139.2860   70.0943  222.3573 H   0  0  0  0  0  0  0  0  0  0  0  0
  138.7715   68.6163  224.3179 H   0  0  0  0  0  0  0  0  0  0  0  0
  139.0311   68.2636  226.6924 H   0  0  0  0  0  0  0  0  0  0  0  0
  141.2128   71.0305  229.1780 H   0  0  0  0  0  0  0  0  0  0  0  0
  141.6422   72.3890  227.1497 H   0  0  0  0  0  0  0  0  0  0  0  0
  1  2  2  0
  2  3  1  0
  3  4  1  0
  4  5  1  0
  5  6  2  0
  5  7  1  0
  7  8  1  0
  8  9  1  0
  9 10  1  0
 10 11  1  0
 11 12  1  0
 12 13  1  0
 13 14  2  0
 14 15  1  0
 15 16  2  0
 16 17  1  0
  2 18  1  0
 18 19  2  0
 19 20  1  0
 20 21  2  0
 21 22  1  0
 22 23  2  0
 23 24  1  0
 23 25  1  0
 25 26  2  0
 26 27  1  0
 27 28  2  0
 12  7  1  0
 17 13  1  0
 28 18  1  0
 27 21  1  0
  3 29  1  0
  4 30  1  0
  4 31  1  0
  8 32  1  0
  8 33  1  0
  9 34  1  0
  9 35  1  0
 10 36  1  0
 10 37  1  0
 11 38  1  0
 11 39  1  0
 12 40  1  1
 16 41  1  0
 17 42  1  0
 19 43  1  0
 20 44  1  0
 22 45  1  0
 25 46  1  0
 26 47  1  0
M  END
>  <smiles>  (50) 
O=C(NCC(=O)N1CCCC[C@H]1c1nnc[nH]1)c1ccc2cc(F)ccc2n1

>  <score_type>  (50) 
oracle

>  <origin>  (50) 
autodockgpu

>  <m_score__min__energy>  (50) 
-8.2599999999999998

>  <m_primary>  (50) 
energy

>  <rmsd>  (50) 
3.2647711893131603

>  <m_score__min__rmsd>  (50) 
3.2647711893131603

>  <meeko>  (50) 
{"free_energy": -7.68, "intermolecular_energy": -9.17, "internal_energy": -2.25, "cluster_size": 14, "cluster_id": 1, "rank_in_cluster": 12}

>  <energy>  (50) 
-6.36

>  <cluster_rmsd>  (50) 
0.81

>  <cluster>  (50) 
7

$$$$
