
     RDKit          3D

 61 65  0  0  0  0  0  0  0  0999 V2000
  146.0830   74.1490  220.7880 N   0  0  0  0  0  0  0  0  0  0  0  0
  144.8760   73.3600  219.8710 S   0  0  0  0  0  0  0  0  0  0  0  0
  143.9070   72.7110  220.8160 O   0  0  0  0  0  0  0  0  0  0  0  0
  145.5820   72.3060  219.0300 O   0  0  0  0  0  0  0  0  0  0  0  0
  144.0580   74.4340  218.7150 C   0  0  0  0  0  0  0  0  0  0  0  0
  142.8920   75.1690  219.2920 C   0  0  0  0  0  0  0  0  0  0  0  0
  141.5690   74.3990  219.0880 C   0  0  0  0  0  0  0  0  0  0  0  0
  141.0120   74.0420  220.3740 N   0  0  0  0  0  0  0  0  0  0  0  0
  140.9350   72.7540  220.7980 C   0  0  0  0  0  0  0  0  0  0  0  0
  140.4010   72.7930  222.0650 C   0  0  0  0  0  0  0  0  0  0  0  0
  140.1040   71.6910  222.9210 N   0  0  0  0  0  0  0  0  0  0  0  0
  138.9890   70.8380  222.5850 C   0  0  0  0  0  0  0  0  0  0  0  0
  138.6750   69.7610  223.5460 C   0  0  0  0  0  0  0  0  0  0  0  0
  139.2530   69.8600  224.8830 C   0  0  0  0  0  0  0  0  0  0  0  0
  138.7130   69.1240  225.9270 C   0  0  0  0  0  0  0  0  0  0  0  0
  139.2190   69.1770  227.1990 C   0  0  0  0  0  0  0  0  0  0  0  0
  140.3120   70.0110  227.3980 C   0  0  0  0  0  0  0  0  0  0  0  0
  140.8760   70.7580  226.3830 C   0  0  0  0  0  0  0  0  0  0  0  0
  140.3340   70.6770  225.1080 C   0  0  0  0  0  0  0  0  0  0  0  0
  140.9730   71.5020  224.0630 C   0  0  0  0  0  0  0  0  0  0  0  0
  140.1830   74.0870  222.3430 N   0  0  0  0  0  0  0  0  0  0  0  0
  140.5560   74.8640  221.3080 C   0  0  0  0  0  0  0  0  0  0  0  0
  140.4040   76.2640  221.2900 N   0  0  0  0  0  0  0  0  0  0  0  0
  139.0220   76.7820  221.3330 C   0  0  0  0  0  0  0  0  0  0  0  0
  138.9330   77.4420  222.7200 C   0  0  0  0  0  0  0  0  0  0  0  0
  139.8600   78.6290  222.6170 C   0  0  0  0  0  0  0  0  0  0  0  0
  139.4490   79.7660  223.2480 C   0  0  0  0  0  0  0  0  0  0  0  0
  140.2710   80.8760  223.1690 C   0  0  0  0  0  0  0  0  0  0  0  0
  141.4560   80.7930  222.4660 C   0  0  0  0  0  0  0  0  0  0  0  0
  141.8730   79.6350  221.8230 C   0  0  0  0  0  0  0  0  0  0  0  0
  141.0440   78.5180  221.9030 C   0  0  0  0  0  0  0  0  0  0  0  0
  141.4440   77.2500  221.2250 C   0  0  0  0  0  0  0  0  0  0  0  0
  146.6300   74.8570  220.2430 H   0  0  0  0  0  0  0  0  0  0  0  0
  145.7030   74.5860  221.6670 H   0  0  0  0  0  0  0  0  0  0  0  0
  144.7879   75.1727  218.3522 H   0  0  0  0  0  0  0  0  0  0  0  0
  143.6662   73.7963  217.9089 H   0  0  0  0  0  0  0  0  0  0  0  0
  143.0587   75.3105  220.3701 H   0  0  0  0  0  0  0  0  0  0  0  0
  142.8076   76.1357  218.7740 H   0  0  0  0  0  0  0  0  0  0  0  0
  140.8554   75.0351  218.5439 H   0  0  0  0  0  0  0  0  0  0  0  0
  141.7641   73.4849  218.5080 H   0  0  0  0  0  0  0  0  0  0  0  0
  141.2395   71.8570  220.2388 H   0  0  0  0  0  0  0  0  0  0  0  0
  138.0966   71.4744  222.4917 H   0  0  0  0  0  0  0  0  0  0  0  0
  139.2814   70.3259  221.6564 H   0  0  0  0  0  0  0  0  0  0  0  0
  137.5815   69.7310  223.6614 H   0  0  0  0  0  0  0  0  0  0  0  0
  139.1277   68.8575  223.1116 H   0  0  0  0  0  0  0  0  0  0  0  0
  137.8479   68.4748  225.7267 H   0  0  0  0  0  0  0  0  0  0  0  0
  138.7824   68.5896  228.0202 H   0  0  0  0  0  0  0  0  0  0  0  0
  140.7463   70.0791  228.4063 H   0  0  0  0  0  0  0  0  0  0  0  0
  141.7415   71.4072  226.5818 H   0  0  0  0  0  0  0  0  0  0  0  0
  141.2212   72.4857  224.4882 H   0  0  0  0  0  0  0  0  0  0  0  0
  141.8784   70.9793  223.7208 H   0  0  0  0  0  0  0  0  0  0  0  0
  138.8527   77.5193  220.5344 H   0  0  0  0  0  0  0  0  0  0  0  0
  138.2645   75.9992  221.1799 H   0  0  0  0  0  0  0  0  0  0  0  0
  137.9039   77.7664  222.9338 H   0  0  0  0  0  0  0  0  0  0  0  0
  139.2100   76.7567  223.5346 H   0  0  0  0  0  0  0  0  0  0  0  0
  138.4981   79.7993  223.7999 H   0  0  0  0  0  0  0  0  0  0  0  0
  139.9828   81.8162  223.6620 H   0  0  0  0  0  0  0  0  0  0  0  0
  142.0988   81.6841  222.4127 H   0  0  0  0  0  0  0  0  0  0  0  0
  142.8235   79.6008  221.2704 H   0  0  0  0  0  0  0  0  0  0  0  0
  141.6665   77.4648  220.1694 H   0  0  0  0  0  0  0  0  0  0  0  0
  142.3295   76.8496  221.7403 H   0  0  0  0  0  0  0  0  0  0  0  0
  1  2  1  0
  2  3  2  0
  2  4  2  0
  2  5  1  0
  5  6  1  0
  6  7  1  0
  7  8  1  0
  8  9  1  0
  9 10  2  0
 10 11  1  0
 11 12  1  0
 12 13  1  0
 13 14  1  0
 14 15  2  0
 15 16  1  0
 16 17  2  0
 17 18  1  0
 18 19  2  0
 19 20  1  0
 10 21  1  0
 21 22  2  0
 22 23  1  0
 23 24  1  0
 24 25  1  0
 25 26  1  0
 26 27  2  0
 27 28  1  0
 28 29  2  0
 29 30  1  0
 30 31  2  0
 31 32  1  0
 22  8  1  0
 32 23  1  0
 20 11  1  0
 31 26  1  0
 19 14  1  0
  1 33  1  0
  1 34  1  0
  5 35  1  0
  5 36  1  0
  6 37  1  0
  6 38  1  0
  7 39  1  0
  7 40  1  0
  9 41  1  0
 12 42  1  0
 12 43  1  0
 13 44  1  0
 13 45  1  0
 15 46  1  0
 16 47  1  0
 17 48  1  0
 18 49  1  0
 20 50  1  0
 20 51  1  0
 24 52  1  0
 24 53  1  0
 25 54  1  0
 25 55  1  0
 27 56  1  0
 28 57  1  0
 29 58  1  0
 30 59  1  0
 32 60  1  0
 32 61  1  0
M  END
>  <smiles>  (1) 
NS(=O)(=O)CCCn1cc(N2CCc3ccccc3C2)nc1N1CCc2ccccc2C1

>  <score_type>  (1) 
oracle

>  <origin>  (1) 
autodockgpu

>  <m_score__min__energy>  (1) 
-9.8200000000000003

>  <m_primary>  (1) 
energy

>  <rmsd>  (1) 
3.723929522630824

>  <m_score__min__rmsd>  (1) 
3.723929522630824

>  <meeko>  (1) 
{"free_energy": -9.18, "intermolecular_energy": -11.27, "internal_energy": -1.2, "cluster_size": 35, "cluster_id": 1, "rank_in_cluster": 15}

>  <energy>  (1) 
-9.82

>  <cluster_rmsd>  (1) 
0.0

>  <cluster>  (1) 
1

$$$$

     RDKit          3D

 61 65  0  0  0  0  0  0  0  0999 V2000
  146.1220   74.0930  220.3510 N   0  0  0  0  0  0  0  0  0  0  0  0
  145.6060   72.8590  219.2870 S   0  0  0  0  0  0  0  0  0  0  0  0
  146.2960   71.5820  219.6680 O   0  0  0  0  0  0  0  0  0  0  0  0
  146.0200   73.2860  217.8860 O   0  0  0  0  0  0  0  0  0  0  0  0
  143.8390   72.6700  219.2350 C   0  0  0  0  0  0  0  0  0  0  0  0
  143.0870   73.8700  219.7120 C   0  0  0  0  0  0  0  0  0  0  0  0
  141.5620   73.6960  219.5460 C   0  0  0  0  0  0  0  0  0  0  0  0
  140.9750   73.3280  220.8160 N   0  0  0  0  0  0  0  0  0  0  0  0
  141.0680   72.0690  221.3200 C   0  0  0  0  0  0  0  0  0  0  0  0
  140.4430   72.0940  222.5440 C   0  0  0  0  0  0  0  0  0  0  0  0
  140.2590   71.0090  223.4530 N   0  0  0  0  0  0  0  0  0  0  0  0
  139.2530   70.0200  223.1490 C   0  0  0  0  0  0  0  0  0  0  0  0
  139.0480   68.9630  224.1600 C   0  0  0  0  0  0  0  0  0  0  0  0
  139.5910   69.1920  225.4960 C   0  0  0  0  0  0  0  0  0  0  0  0
  139.1210   68.4520  226.5710 C   0  0  0  0  0  0  0  0  0  0  0  0
  139.5980   68.6250  227.8430 C   0  0  0  0  0  0  0  0  0  0  0  0
  140.5870   69.5860  228.0100 C   0  0  0  0  0  0  0  0  0  0  0  0
  141.0780   70.3420  226.9640 C   0  0  0  0  0  0  0  0  0  0  0  0
  140.5690   70.1370  225.6900 C   0  0  0  0  0  0  0  0  0  0  0  0
  141.1260   70.9770  224.6110 C   0  0  0  0  0  0  0  0  0  0  0  0
  140.0060   73.3510  222.7190 N   0  0  0  0  0  0  0  0  0  0  0  0
  140.3280   74.1170  221.6610 C   0  0  0  0  0  0  0  0  0  0  0  0
  139.9610   75.4710  221.5380 N   0  0  0  0  0  0  0  0  0  0  0  0
  138.5270   75.7550  221.3330 C   0  0  0  0  0  0  0  0  0  0  0  0
  138.1070   76.4330  222.6490 C   0  0  0  0  0  0  0  0  0  0  0  0
  138.8380   77.7540  222.6240 C   0  0  0  0  0  0  0  0  0  0  0  0
  138.1540   78.8260  223.1170 C   0  0  0  0  0  0  0  0  0  0  0  0
  138.7920   80.0540  223.1040 C   0  0  0  0  0  0  0  0  0  0  0  0
  140.0740   80.1460  222.6030 C   0  0  0  0  0  0  0  0  0  0  0  0
  140.7700   79.0540  222.1010 C   0  0  0  0  0  0  0  0  0  0  0  0
  140.1270   77.8180  222.1140 C   0  0  0  0  0  0  0  0  0  0  0  0
  140.8280   76.6140  221.5810 C   0  0  0  0  0  0  0  0  0  0  0  0
  146.9650   74.6140  220.0140 H   0  0  0  0  0  0  0  0  0  0  0  0
  145.3520   74.7700  220.5910 H   0  0  0  0  0  0  0  0  0  0  0  0
  143.5430   72.4666  218.1953 H   0  0  0  0  0  0  0  0  0  0  0  0
  143.5863   71.8437  219.9157 H   0  0  0  0  0  0  0  0  0  0  0  0
  143.3129   74.0316  220.7764 H   0  0  0  0  0  0  0  0  0  0  0  0
  143.4002   74.7325  219.1053 H   0  0  0  0  0  0  0  0  0  0  0  0
  141.1211   74.6422  219.1993 H   0  0  0  0  0  0  0  0  0  0  0  0
  141.3625   72.9049  218.8082 H   0  0  0  0  0  0  0  0  0  0  0  0
  141.5482   71.2020  220.8429 H   0  0  0  0  0  0  0  0  0  0  0  0
  138.2961   70.5456  223.0149 H   0  0  0  0  0  0  0  0  0  0  0  0
  139.6153   69.4998  222.2501 H   0  0  0  0  0  0  0  0  0  0  0  0
  137.9632   68.8151  224.2664 H   0  0  0  0  0  0  0  0  0  0  0  0
  139.6063   68.0965  223.7759 H   0  0  0  0  0  0  0  0  0  0  0  0
  138.3377   67.6999  226.3956 H   0  0  0  0  0  0  0  0  0  0  0  0
  139.2176   68.0335  228.6888 H   0  0  0  0  0  0  0  0  0  0  0  0
  140.9961   69.7517  229.0175 H   0  0  0  0  0  0  0  0  0  0  0  0
  141.8606   71.0951  227.1383 H   0  0  0  0  0  0  0  0  0  0  0  0
  141.2543   72.0023  224.9882 H   0  0  0  0  0  0  0  0  0  0  0  0
  142.0901   70.5450  224.3045 H   0  0  0  0  0  0  0  0  0  0  0  0
  138.3776   76.4298  220.4772 H   0  0  0  0  0  0  0  0  0  0  0  0
  137.9384   74.8537  221.1069 H   0  0  0  0  0  0  0  0  0  0  0  0
  137.0184   76.5882  222.6797 H   0  0  0  0  0  0  0  0  0  0  0  0
  138.3512   75.8288  223.5352 H   0  0  0  0  0  0  0  0  0  0  0  0
  137.1325   78.7185  223.5106 H   0  0  0  0  0  0  0  0  0  0  0  0
  138.2814   80.9487  223.4897 H   0  0  0  0  0  0  0  0  0  0  0  0
  140.5675   81.1291  222.6010 H   0  0  0  0  0  0  0  0  0  0  0  0
  141.7916   79.1610  221.7075 H   0  0  0  0  0  0  0  0  0  0  0  0
  141.1838   76.8301  220.5628 H   0  0  0  0  0  0  0  0  0  0  0  0
  141.6688   76.3818  222.2512 H   0  0  0  0  0  0  0  0  0  0  0  0
  1  2  1  0
  2  3  2  0
  2  4  2  0
  2  5  1  0
  5  6  1  0
  6  7  1  0
  7  8  1  0
  8  9  1  0
  9 10  2  0
 10 11  1  0
 11 12  1  0
 12 13  1  0
 13 14  1  0
 14 15  2  0
 15 16  1  0
 16 17  2  0
 17 18  1  0
 18 19  2  0
 19 20  1  0
 10 21  1  0
 21 22  2  0
 22 23  1  0
 23 24  1  0
 24 25  1  0
 25 26  1  0
 26 27  2  0
 27 28  1  0
 28 29  2  0
 29 30  1  0
 30 31  2  0
 31 32  1  0
 22  8  1  0
 32 23  1  0
 20 11  1  0
 31 26  1  0
 19 14  1  0
  1 33  1  0
  1 34  1  0
  5 35  1  0
  5 36  1  0
  6 37  1  0
  6 38  1  0
  7 39  1  0
  7 40  1  0
  9 41  1  0
 12 42  1  0
 12 43  1  0
 13 44  1  0
 13 45  1  0
 15 46  1  0
 16 47  1  0
 17 48  1  0
 18 49  1  0
 20 50  1  0
 20 51  1  0
 24 52  1  0
 24 53  1  0
 25 54  1  0
 25 55  1  0
 27 56  1  0
 28 57  1  0
 29 58  1  0
 30 59  1  0
 32 60  1  0
 32 61  1  0
M  END
>  <smiles>  (2) 
NS(=O)(=O)CCCn1cc(N2CCc3ccccc3C2)nc1N1CCc2ccccc2C1

>  <score_type>  (2) 
oracle

>  <origin>  (2) 
autodockgpu

>  <m_score__min__energy>  (2) 
-9.8200000000000003

>  <m_primary>  (2) 
energy

>  <rmsd>  (2) 
4.094509579700422

>  <m_score__min__rmsd>  (2) 
4.094509579700422

>  <meeko>  (2) 
{"free_energy": -9.35, "intermolecular_energy": -11.44, "internal_energy": -0.91, "cluster_size": 35, "cluster_id": 1, "rank_in_cluster": 9}

>  <energy>  (2) 
-9.77

>  <cluster_rmsd>  (2) 
0.98

>  <cluster>  (2) 
1

$$$$

     RDKit          3D

 61 65  0  0  0  0  0  0  0  0999 V2000
  143.7600   76.1530  220.0340 N   0  0  0  0  0  0  0  0  0  0  0  0
  142.7450   75.7620  218.7160 S   0  0  0  0  0  0  0  0  0  0  0  0
  143.6060   75.3620  217.5530 O   0  0  0  0  0  0  0  0  0  0  0  0
  141.9550   77.0190  218.3810 O   0  0  0  0  0  0  0  0  0  0  0  0
  141.5350   74.5190  219.1050 C   0  0  0  0  0  0  0  0  0  0  0  0
  140.1390   74.8910  218.7260 C   0  0  0  0  0  0  0  0  0  0  0  0
  139.1070   73.8720  219.2550 C   0  0  0  0  0  0  0  0  0  0  0  0
  139.3940   73.5660  220.6390 N   0  0  0  0  0  0  0  0  0  0  0  0
  139.3650   72.2950  221.1220 C   0  0  0  0  0  0  0  0  0  0  0  0
  139.7270   72.3750  222.4460 C   0  0  0  0  0  0  0  0  0  0  0  0
  139.8220   71.3090  223.3900 N   0  0  0  0  0  0  0  0  0  0  0  0
  139.0670   70.1040  223.1470 C   0  0  0  0  0  0  0  0  0  0  0  0
  139.1370   69.0640  224.1930 C   0  0  0  0  0  0  0  0  0  0  0  0
  139.6450   69.4590  225.5040 C   0  0  0  0  0  0  0  0  0  0  0  0
  139.3870   68.6680  226.6140 C   0  0  0  0  0  0  0  0  0  0  0  0
  139.8420   68.9910  227.8650 C   0  0  0  0  0  0  0  0  0  0  0  0
  140.5840   70.1610  227.9730 C   0  0  0  0  0  0  0  0  0  0  0  0
  140.8610   70.9720  226.8910 C   0  0  0  0  0  0  0  0  0  0  0  0
  140.3810   70.6110  225.6400 C   0  0  0  0  0  0  0  0  0  0  0  0
  140.7020   71.5180  224.5210 C   0  0  0  0  0  0  0  0  0  0  0  0
  139.9550   73.6730  222.6980 N   0  0  0  0  0  0  0  0  0  0  0  0
  139.7520   74.4140  221.5920 C   0  0  0  0  0  0  0  0  0  0  0  0
  139.8690   75.8160  221.5620 N   0  0  0  0  0  0  0  0  0  0  0  0
  138.6230   76.5830  221.3630 C   0  0  0  0  0  0  0  0  0  0  0  0
  138.4150   77.2800  222.7180 C   0  0  0  0  0  0  0  0  0  0  0  0
  139.5500   78.2720  222.7940 C   0  0  0  0  0  0  0  0  0  0  0  0
  139.2540   79.4800  223.3540 C   0  0  0  0  0  0  0  0  0  0  0  0
  140.2700   80.4160  223.4340 C   0  0  0  0  0  0  0  0  0  0  0  0
  141.5230   80.0980  222.9530 C   0  0  0  0  0  0  0  0  0  0  0  0
  141.8240   78.8680  222.3830 C   0  0  0  0  0  0  0  0  0  0  0  0
  140.8010   77.9260  222.3020 C   0  0  0  0  0  0  0  0  0  0  0  0
  141.0700   76.5910  221.6930 C   0  0  0  0  0  0  0  0  0  0  0  0
  144.0830   77.1490  220.0350 H   0  0  0  0  0  0  0  0  0  0  0  0
  143.3280   75.9140  220.9630 H   0  0  0  0  0  0  0  0  0  0  0  0
  141.8039   73.5954  218.5714 H   0  0  0  0  0  0  0  0  0  0  0  0
  141.5459   74.3950  220.1979 H   0  0  0  0  0  0  0  0  0  0  0  0
  139.9085   75.8811  219.1461 H   0  0  0  0  0  0  0  0  0  0  0  0
  140.0755   74.9011  217.6279 H   0  0  0  0  0  0  0  0  0  0  0  0
  138.0966   74.2997  219.1764 H   0  0  0  0  0  0  0  0  0  0  0  0
  139.1638   72.9503  218.6574 H   0  0  0  0  0  0  0  0  0  0  0  0
  139.1038   71.3837  220.5641 H   0  0  0  0  0  0  0  0  0  0  0  0
  138.0112   70.3887  223.0281 H   0  0  0  0  0  0  0  0  0  0  0  0
  139.5196   69.6505  222.2529 H   0  0  0  0  0  0  0  0  0  0  0  0
  138.1189   68.6737  224.3381 H   0  0  0  0  0  0  0  0  0  0  0  0
  139.8707   68.3364  223.8159 H   0  0  0  0  0  0  0  0  0  0  0  0
  138.7963   67.7491  226.4851 H   0  0  0  0  0  0  0  0  0  0  0  0
  139.6310   68.3571  228.7389 H   0  0  0  0  0  0  0  0  0  0  0  0
  140.9666   70.4530  228.9621 H   0  0  0  0  0  0  0  0  0  0  0  0
  141.4531   71.8903  227.0184 H   0  0  0  0  0  0  0  0  0  0  0  0
  140.5992   72.5578  224.8648 H   0  0  0  0  0  0  0  0  0  0  0  0
  141.7319   71.3090  224.1961 H   0  0  0  0  0  0  0  0  0  0  0  0
  138.7390   77.3200  220.5547 H   0  0  0  0  0  0  0  0  0  0  0  0
  137.7716   75.9515  221.0691 H   0  0  0  0  0  0  0  0  0  0  0  0
  137.4431   77.7942  222.7485 H   0  0  0  0  0  0  0  0  0  0  0  0
  138.4111   76.5744  223.5618 H   0  0  0  0  0  0  0  0  0  0  0  0
  138.2439   79.7022  223.7286 H   0  0  0  0  0  0  0  0  0  0  0  0
  140.0801   81.4047  223.8772 H   0  0  0  0  0  0  0  0  0  0  0  0
  142.3199   80.8529  223.0241 H   0  0  0  0  0  0  0  0  0  0  0  0
  142.8342   78.6455  222.0088 H   0  0  0  0  0  0  0  0  0  0  0  0
  141.5111   76.7363  220.6959 H   0  0  0  0  0  0  0  0  0  0  0  0
  141.7601   76.0454  222.3534 H   0  0  0  0  0  0  0  0  0  0  0  0
  1  2  1  0
  2  3  2  0
  2  4  2  0
  2  5  1  0
  5  6  1  0
  6  7  1  0
  7  8  1  0
  8  9  1  0
  9 10  2  0
 10 11  1  0
 11 12  1  0
 12 13  1  0
 13 14  1  0
 14 15  2  0
 15 16  1  0
 16 17  2  0
 17 18  1  0
 18 19  2  0
 19 20  1  0
 10 21  1  0
 21 22  2  0
 22 23  1  0
 23 24  1  0
 24 25  1  0
 25 26  1  0
 26 27  2  0
 27 28  1  0
 28 29  2  0
 29 30  1  0
 30 31  2  0
 31 32  1  0
 22  8  1  0
 32 23  1  0
 20 11  1  0
 31 26  1  0
 19 14  1  0
  1 33  1  0
  1 34  1  0
  5 35  1  0
  5 36  1  0
  6 37  1  0
  6 38  1  0
  7 39  1  0
  7 40  1  0
  9 41  1  0
 12 42  1  0
 12 43  1  0
 13 44  1  0
 13 45  1  0
 15 46  1  0
 16 47  1  0
 17 48  1  0
 18 49  1  0
 20 50  1  0
 20 51  1  0
 24 52  1  0
 24 53  1  0
 25 54  1  0
 25 55  1  0
 27 56  1  0
 28 57  1  0
 29 58  1  0
 30 59  1  0
 32 60  1  0
 32 61  1  0
M  END
>  <smiles>  (3) 
NS(=O)(=O)CCCn1cc(N2CCc3ccccc3C2)nc1N1CCc2ccccc2C1

>  <score_type>  (3) 
oracle

>  <origin>  (3) 
autodockgpu

>  <m_score__min__energy>  (3) 
-9.8200000000000003

>  <m_primary>  (3) 
energy

>  <rmsd>  (3) 
3.43918489596864

>  <m_score__min__rmsd>  (3) 
3.43918489596864

>  <meeko>  (3) 
{"free_energy": -8.86, "intermolecular_energy": -10.95, "internal_energy": -1.32, "cluster_size": 9, "cluster_id": 2, "rank_in_cluster": 3}

>  <energy>  (3) 
-9.71

>  <cluster_rmsd>  (3) 
1.14

>  <cluster>  (3) 
1

$$$$

     RDKit          3D

 61 65  0  0  0  0  0  0  0  0999 V2000
  146.2580   73.4780  218.3070 N   0  0  0  0  0  0  0  0  0  0  0  0
  145.2610   72.3630  219.1330 S   0  0  0  0  0  0  0  0  0  0  0  0
  146.1320   71.2950  219.7280 O   0  0  0  0  0  0  0  0  0  0  0  0
  144.3200   71.7630  218.0970 O   0  0  0  0  0  0  0  0  0  0  0  0
  144.2170   73.1240  220.3540 C   0  0  0  0  0  0  0  0  0  0  0  0
  143.8200   74.5260  220.0220 C   0  0  0  0  0  0  0  0  0  0  0  0
  142.3460   74.6160  219.5700 C   0  0  0  0  0  0  0  0  0  0  0  0
  141.4790   74.2500  220.6690 N   0  0  0  0  0  0  0  0  0  0  0  0
  141.3490   72.9660  221.0920 C   0  0  0  0  0  0  0  0  0  0  0  0
  140.4910   72.9970  222.1670 C   0  0  0  0  0  0  0  0  0  0  0  0
  140.0230   71.8940  222.9430 N   0  0  0  0  0  0  0  0  0  0  0  0
  138.6570   71.4620  222.7730 C   0  0  0  0  0  0  0  0  0  0  0  0
  138.2000   70.3700  223.6560 C   0  0  0  0  0  0  0  0  0  0  0  0
  139.0110   70.0700  224.8320 C   0  0  0  0  0  0  0  0  0  0  0  0
  138.4650   69.3490  225.8850 C   0  0  0  0  0  0  0  0  0  0  0  0
  139.1830   69.0370  227.0090 C   0  0  0  0  0  0  0  0  0  0  0  0
  140.4990   69.4810  227.0480 C   0  0  0  0  0  0  0  0  0  0  0  0
  141.0760   70.2010  226.0210 C   0  0  0  0  0  0  0  0  0  0  0  0
  140.3150   70.4970  224.8980 C   0  0  0  0  0  0  0  0  0  0  0  0
  140.9800   71.2730  223.8340 C   0  0  0  0  0  0  0  0  0  0  0  0
  140.1480   74.2820  222.3390 N   0  0  0  0  0  0  0  0  0  0  0  0
  140.7500   75.0610  221.4210 C   0  0  0  0  0  0  0  0  0  0  0  0
  140.5460   76.4510  221.3230 N   0  0  0  0  0  0  0  0  0  0  0  0
  139.1480   76.9230  221.3910 C   0  0  0  0  0  0  0  0  0  0  0  0
  139.0890   77.6650  222.7370 C   0  0  0  0  0  0  0  0  0  0  0  0
  139.9660   78.8750  222.5230 C   0  0  0  0  0  0  0  0  0  0  0  0
  139.5380   80.0340  223.1000 C   0  0  0  0  0  0  0  0  0  0  0  0
  140.3150   81.1650  222.9180 C   0  0  0  0  0  0  0  0  0  0  0  0
  141.4730   81.0790  222.1740 C   0  0  0  0  0  0  0  0  0  0  0  0
  141.9080   79.8980  221.5870 C   0  0  0  0  0  0  0  0  0  0  0  0
  141.1250   78.7600  221.7690 C   0  0  0  0  0  0  0  0  0  0  0  0
  141.5450   77.4670  221.1550 C   0  0  0  0  0  0  0  0  0  0  0  0
  145.7300   74.1320  217.6820 H   0  0  0  0  0  0  0  0  0  0  0  0
  146.8800   74.0250  218.9570 H   0  0  0  0  0  0  0  0  0  0  0  0
  143.3033   72.5197  220.4537 H   0  0  0  0  0  0  0  0  0  0  0  0
  144.7974   73.1689  221.2873 H   0  0  0  0  0  0  0  0  0  0  0  0
  143.9574   75.1551  220.9138 H   0  0  0  0  0  0  0  0  0  0  0  0
  144.4528   74.8716  219.1913 H   0  0  0  0  0  0  0  0  0  0  0  0
  142.1220   75.6456  219.2540 H   0  0  0  0  0  0  0  0  0  0  0  0
  142.1791   73.9283  218.7279 H   0  0  0  0  0  0  0  0  0  0  0  0
  141.8335   72.0776  220.6607 H   0  0  0  0  0  0  0  0  0  0  0  0
  138.0064   72.3309  222.9508 H   0  0  0  0  0  0  0  0  0  0  0  0
  138.6036   71.0549  221.7525 H   0  0  0  0  0  0  0  0  0  0  0  0
  137.1917   70.6320  224.0092 H   0  0  0  0  0  0  0  0  0  0  0  0
  138.2605   69.4639  223.0353 H   0  0  0  0  0  0  0  0  0  0  0  0
  137.4188   69.0165  225.8143 H   0  0  0  0  0  0  0  0  0  0  0  0
  138.7407   68.4647  227.8377 H   0  0  0  0  0  0  0  0  0  0  0  0
  141.1070   69.2490  227.9349 H   0  0  0  0  0  0  0  0  0  0  0  0
  142.1218   70.5348  226.0913 H   0  0  0  0  0  0  0  0  0  0  0  0
  141.5960   72.0576  224.2976 H   0  0  0  0  0  0  0  0  0  0  0  0
  141.5989   70.5819  223.2429 H   0  0  0  0  0  0  0  0  0  0  0  0
  138.9206   77.6025  220.5564 H   0  0  0  0  0  0  0  0  0  0  0  0
  138.4144   76.1066  221.3175 H   0  0  0  0  0  0  0  0  0  0  0  0
  138.0577   77.9659  222.9732 H   0  0  0  0  0  0  0  0  0  0  0  0
  139.4234   77.0423  223.5798 H   0  0  0  0  0  0  0  0  0  0  0  0
  138.6093   80.0689  223.6885 H   0  0  0  0  0  0  0  0  0  0  0  0
  140.0114   82.1241  223.3630 H   0  0  0  0  0  0  0  0  0  0  0  0
  142.0794   81.9868  222.0394 H   0  0  0  0  0  0  0  0  0  0  0  0
  142.8373   79.8623  220.9995 H   0  0  0  0  0  0  0  0  0  0  0  0
  141.7182   77.6224  220.0799 H   0  0  0  0  0  0  0  0  0  0  0  0
  142.4640   77.1310  221.6576 H   0  0  0  0  0  0  0  0  0  0  0  0
  1  2  1  0
  2  3  2  0
  2  4  2  0
  2  5  1  0
  5  6  1  0
  6  7  1  0
  7  8  1  0
  8  9  1  0
  9 10  2  0
 10 11  1  0
 11 12  1  0
 12 13  1  0
 13 14  1  0
 14 15  2  0
 15 16  1  0
 16 17  2  0
 17 18  1  0
 18 19  2  0
 19 20  1  0
 10 21  1  0
 21 22  2  0
 22 23  1  0
 23 24  1  0
 24 25  1  0
 25 26  1  0
 26 27  2  0
 27 28  1  0
 28 29  2  0
 29 30  1  0
 30 31  2  0
 31 32  1  0
 22  8  1  0
 32 23  1  0
 20 11  1  0
 31 26  1  0
 19 14  1  0
  1 33  1  0
  1 34  1  0
  5 35  1  0
  5 36  1  0
  6 37  1  0
  6 38  1  0
  7 39  1  0
  7 40  1  0
  9 41  1  0
 12 42  1  0
 12 43  1  0
 13 44  1  0
 13 45  1  0
 15 46  1  0
 16 47  1  0
 17 48  1  0
 18 49  1  0
 20 50  1  0
 20 51  1  0
 24 52  1  0
 24 53  1  0
 25 54  1  0
 25 55  1  0
 27 56  1  0
 28 57  1  0
 29 58  1  0
 30 59  1  0
 32 60  1  0
 32 61  1  0
M  END
>  <smiles>  (4) 
NS(=O)(=O)CCCn1cc(N2CCc3ccccc3C2)nc1N1CCc2ccccc2C1

>  <score_type>  (4) 
oracle

>  <origin>  (4) 
autodockgpu

>  <m_score__min__energy>  (4) 
-9.8200000000000003

>  <m_primary>  (4) 
energy

>  <rmsd>  (4) 
4.039850075152706

>  <m_score__min__rmsd>  (4) 
4.039850075152706

>  <meeko>  (4) 
{"free_energy": -9.28, "intermolecular_energy": -11.37, "internal_energy": -0.86, "cluster_size": 35, "cluster_id": 1, "rank_in_cluster": 12}

>  <energy>  (4) 
-9.6

>  <cluster_rmsd>  (4) 
0.56

>  <cluster>  (4) 
1

$$$$

     RDKit          3D

 61 65  0  0  0  0  0  0  0  0999 V2000
  145.9270   73.3440  218.5680 N   0  0  0  0  0  0  0  0  0  0  0  0
  145.2150   73.0610  220.0960 S   0  0  0  0  0  0  0  0  0  0  0  0
  144.3930   74.2610  220.4690 O   0  0  0  0  0  0  0  0  0  0  0  0
  146.3560   72.8730  221.0850 O   0  0  0  0  0  0  0  0  0  0  0  0
  144.2650   71.5600  220.1610 C   0  0  0  0  0  0  0  0  0  0  0  0
  143.1610   71.5840  221.1680 C   0  0  0  0  0  0  0  0  0  0  0  0
  141.8110   71.9800  220.5320 C   0  0  0  0  0  0  0  0  0  0  0  0
  141.3280   73.2010  221.1380 N   0  0  0  0  0  0  0  0  0  0  0  0
  141.6890   74.4290  220.6800 C   0  0  0  0  0  0  0  0  0  0  0  0
  141.0150   75.3450  221.4550 C   0  0  0  0  0  0  0  0  0  0  0  0
  141.0800   76.7680  221.3770 N   0  0  0  0  0  0  0  0  0  0  0  0
  141.5540   77.3710  220.1550 C   0  0  0  0  0  0  0  0  0  0  0  0
  141.6780   78.8430  220.1540 C   0  0  0  0  0  0  0  0  0  0  0  0
  141.6630   79.5210  221.4470 C   0  0  0  0  0  0  0  0  0  0  0  0
  142.1490   80.8160  221.5550 C   0  0  0  0  0  0  0  0  0  0  0  0
  142.1560   81.4980  222.7420 C   0  0  0  0  0  0  0  0  0  0  0  0
  141.6470   80.8280  223.8480 C   0  0  0  0  0  0  0  0  0  0  0  0
  141.1560   79.5390  223.7780 C   0  0  0  0  0  0  0  0  0  0  0  0
  141.1670   78.8810  222.5570 C   0  0  0  0  0  0  0  0  0  0  0  0
  140.6350   77.5040  222.5420 C   0  0  0  0  0  0  0  0  0  0  0  0
  140.2900   74.6350  222.3320 N   0  0  0  0  0  0  0  0  0  0  0  0
  140.4760   73.3150  222.1460 C   0  0  0  0  0  0  0  0  0  0  0  0
  139.8810   72.3230  222.9480 N   0  0  0  0  0  0  0  0  0  0  0  0
  138.6500   71.6970  222.4250 C   0  0  0  0  0  0  0  0  0  0  0  0
  139.0910   70.2580  222.1090 C   0  0  0  0  0  0  0  0  0  0  0  0
  139.3650   69.6550  223.4660 C   0  0  0  0  0  0  0  0  0  0  0  0
  138.9970   68.3520  223.6280 C   0  0  0  0  0  0  0  0  0  0  0  0
  139.2280   67.7700  224.8620 C   0  0  0  0  0  0  0  0  0  0  0  0
  139.8120   68.5160  225.8650 C   0  0  0  0  0  0  0  0  0  0  0  0
  140.1860   69.8430  225.6980 C   0  0  0  0  0  0  0  0  0  0  0  0
  139.9530   70.4290  224.4560 C   0  0  0  0  0  0  0  0  0  0  0  0
  140.3310   71.8540  224.2270 C   0  0  0  0  0  0  0  0  0  0  0  0
  146.7100   74.0370  218.5910 H   0  0  0  0  0  0  0  0  0  0  0  0
  146.2440   72.4570  218.0990 H   0  0  0  0  0  0  0  0  0  0  0  0
  143.8243   71.3860  219.1683 H   0  0  0  0  0  0  0  0  0  0  0  0
  144.9552   70.7587  220.4636 H   0  0  0  0  0  0  0  0  0  0  0  0
  143.0642   70.5830  221.6137 H   0  0  0  0  0  0  0  0  0  0  0  0
  143.4119   72.3351  221.9315 H   0  0  0  0  0  0  0  0  0  0  0  0
  141.9473   72.1366  219.4518 H   0  0  0  0  0  0  0  0  0  0  0  0
  141.0793   71.1757  220.6984 H   0  0  0  0  0  0  0  0  0  0  0  0
  142.3820   74.6471  219.8541 H   0  0  0  0  0  0  0  0  0  0  0  0
  142.5474   76.9513  219.9381 H   0  0  0  0  0  0  0  0  0  0  0  0
  140.7878   77.1418  219.3997 H   0  0  0  0  0  0  0  0  0  0  0  0
  142.6292   79.0933  219.6616 H   0  0  0  0  0  0  0  0  0  0  0  0
  140.7739   79.2003  219.6394 H   0  0  0  0  0  0  0  0  0  0  0  0
  142.5424   81.3121  220.6555 H   0  0  0  0  0  0  0  0  0  0  0  0
  142.5448   82.5243  222.8165 H   0  0  0  0  0  0  0  0  0  0  0  0
  141.6347   81.3453  224.8187 H   0  0  0  0  0  0  0  0  0  0  0  0
  140.7623   79.0418  224.6768 H   0  0  0  0  0  0  0  0  0  0  0  0
  140.9777   76.9800  223.4465 H   0  0  0  0  0  0  0  0  0  0  0  0
  139.5370   77.5621  222.5108 H   0  0  0  0  0  0  0  0  0  0  0  0
  137.8510   71.7072  223.1810 H   0  0  0  0  0  0  0  0  0  0  0  0
  138.2380   72.2225  221.5509 H   0  0  0  0  0  0  0  0  0  0  0  0
  138.2912   69.7085  221.5910 H   0  0  0  0  0  0  0  0  0  0  0  0
  139.9659   70.2193  221.4434 H   0  0  0  0  0  0  0  0  0  0  0  0
  138.5334   67.7843  222.8077 H   0  0  0  0  0  0  0  0  0  0  0  0
  138.9484   66.7214  225.0418 H   0  0  0  0  0  0  0  0  0  0  0  0
  139.9892   68.0386  226.8400 H   0  0  0  0  0  0  0  0  0  0  0  0
  140.6499   70.4113  226.5177 H   0  0  0  0  0  0  0  0  0  0  0  0
  139.8772   72.4742  225.0140 H   0  0  0  0  0  0  0  0  0  0  0  0
  141.4283   71.9262  224.2522 H   0  0  0  0  0  0  0  0  0  0  0  0
  1  2  1  0
  2  3  2  0
  2  4  2  0
  2  5  1  0
  5  6  1  0
  6  7  1  0
  7  8  1  0
  8  9  1  0
  9 10  2  0
 10 11  1  0
 11 12  1  0
 12 13  1  0
 13 14  1  0
 14 15  2  0
 15 16  1  0
 16 17  2  0
 17 18  1  0
 18 19  2  0
 19 20  1  0
 10 21  1  0
 21 22  2  0
 22 23  1  0
 23 24  1  0
 24 25  1  0
 25 26  1  0
 26 27  2  0
 27 28  1  0
 28 29  2  0
 29 30  1  0
 30 31  2  0
 31 32  1  0
 22  8  1  0
 32 23  1  0
 20 11  1  0
 31 26  1  0
 19 14  1  0
  1 33  1  0
  1 34  1  0
  5 35  1  0
  5 36  1  0
  6 37  1  0
  6 38  1  0
  7 39  1  0
  7 40  1  0
  9 41  1  0
 12 42  1  0
 12 43  1  0
 13 44  1  0
 13 45  1  0
 15 46  1  0
 16 47  1  0
 17 48  1  0
 18 49  1  0
 20 50  1  0
 20 51  1  0
 24 52  1  0
 24 53  1  0
 25 54  1  0
 25 55  1  0
 27 56  1  0
 28 57  1  0
 29 58  1  0
 30 59  1  0
 32 60  1  0
 32 61  1  0
M  END
>  <smiles>  (5) 
NS(=O)(=O)CCCn1cc(N2CCc3ccccc3C2)nc1N1CCc2ccccc2C1

>  <score_type>  (5) 
oracle

>  <origin>  (5) 
autodockgpu

>  <m_score__min__energy>  (5) 
-9.8200000000000003

>  <m_primary>  (5) 
energy

>  <rmsd>  (5) 
9.106370093994656

>  <m_score__min__rmsd>  (5) 
9.106370093994656

>  <meeko>  (5) 
{"free_energy": -8.96, "intermolecular_energy": -11.05, "internal_energy": -1.2, "cluster_size": 35, "cluster_id": 1, "rank_in_cluster": 26}

>  <energy>  (5) 
-9.53

>  <cluster_rmsd>  (5) 
1.85

>  <cluster>  (5) 
1

$$$$

     RDKit          3D

 61 65  0  0  0  0  0  0  0  0999 V2000
  136.8020   73.5530  222.8340 N   0  0  0  0  0  0  0  0  0  0  0  0
  135.6490   74.4380  221.9350 S   0  0  0  0  0  0  0  0  0  0  0  0
  135.2510   75.6480  222.7300 O   0  0  0  0  0  0  0  0  0  0  0  0
  134.4510   73.5210  221.7310 O   0  0  0  0  0  0  0  0  0  0  0  0
  136.2120   74.8710  220.3050 C   0  0  0  0  0  0  0  0  0  0  0  0
  136.8590   73.7430  219.5690 C   0  0  0  0  0  0  0  0  0  0  0  0
  138.3950   73.8920  219.5240 C   0  0  0  0  0  0  0  0  0  0  0  0
  138.9530   73.5550  220.8150 N   0  0  0  0  0  0  0  0  0  0  0  0
  138.9230   72.2890  221.3080 C   0  0  0  0  0  0  0  0  0  0  0  0
  139.5740   72.3290  222.5200 C   0  0  0  0  0  0  0  0  0  0  0  0
  139.7850   71.2540  223.4330 N   0  0  0  0  0  0  0  0  0  0  0  0
  139.1010   70.0050  223.1960 C   0  0  0  0  0  0  0  0  0  0  0  0
  139.2900   68.9510  224.2140 C   0  0  0  0  0  0  0  0  0  0  0  0
  139.8310   69.3540  225.5090 C   0  0  0  0  0  0  0  0  0  0  0  0
  139.6780   68.5250  226.6110 C   0  0  0  0  0  0  0  0  0  0  0  0
  140.1680   68.8530  227.8470 C   0  0  0  0  0  0  0  0  0  0  0  0
  140.8340   70.0680  227.9500 C   0  0  0  0  0  0  0  0  0  0  0  0
  141.0050   70.9180  226.8750 C   0  0  0  0  0  0  0  0  0  0  0  0
  140.4930   70.5500  225.6390 C   0  0  0  0  0  0  0  0  0  0  0  0
  140.7000   71.5000  224.5270 C   0  0  0  0  0  0  0  0  0  0  0  0
  139.9610   73.6010  222.6970 N   0  0  0  0  0  0  0  0  0  0  0  0
  139.5830   74.3640  221.6540 C   0  0  0  0  0  0  0  0  0  0  0  0
  139.8100   75.7510  221.5800 N   0  0  0  0  0  0  0  0  0  0  0  0
  138.6240   76.6080  221.3820 C   0  0  0  0  0  0  0  0  0  0  0  0
  138.4990   77.3570  222.7200 C   0  0  0  0  0  0  0  0  0  0  0  0
  139.7100   78.2580  222.7450 C   0  0  0  0  0  0  0  0  0  0  0  0
  139.5220   79.5000  223.2740 C   0  0  0  0  0  0  0  0  0  0  0  0
  140.6090   80.3560  223.3070 C   0  0  0  0  0  0  0  0  0  0  0  0
  141.8230   79.9260  222.8120 C   0  0  0  0  0  0  0  0  0  0  0  0
  142.0150   78.6610  222.2730 C   0  0  0  0  0  0  0  0  0  0  0  0
  140.9190   77.8010  222.2390 C   0  0  0  0  0  0  0  0  0  0  0  0
  141.0700   76.4320  221.6660 C   0  0  0  0  0  0  0  0  0  0  0  0
  137.7810   73.9060  222.7260 H   0  0  0  0  0  0  0  0  0  0  0  0
  136.5540   73.4850  223.8550 H   0  0  0  0  0  0  0  0  0  0  0  0
  135.3467   75.2155  219.7197 H   0  0  0  0  0  0  0  0  0  0  0  0
  136.9764   75.6524  220.4280 H   0  0  0  0  0  0  0  0  0  0  0  0
  136.6078   72.7984  220.0736 H   0  0  0  0  0  0  0  0  0  0  0  0
  136.4848   73.7512  218.5346 H   0  0  0  0  0  0  0  0  0  0  0  0
  138.8062   73.2161  218.7597 H   0  0  0  0  0  0  0  0  0  0  0  0
  138.6541   74.9314  219.2740 H   0  0  0  0  0  0  0  0  0  0  0  0
  138.4686   71.4072  220.8327 H   0  0  0  0  0  0  0  0  0  0  0  0
  138.0241   70.2197  223.1320 H   0  0  0  0  0  0  0  0  0  0  0  0
  139.5398   69.6015  222.2715 H   0  0  0  0  0  0  0  0  0  0  0  0
  138.3084   68.4891  224.3962 H   0  0  0  0  0  0  0  0  0  0  0  0
  140.0525   68.2827  223.7874 H   0  0  0  0  0  0  0  0  0  0  0  0
  139.1445   67.5710  226.4876 H   0  0  0  0  0  0  0  0  0  0  0  0
  140.0408   68.1883  228.7142 H   0  0  0  0  0  0  0  0  0  0  0  0
  141.2417   70.3650  228.9275 H   0  0  0  0  0  0  0  0  0  0  0  0
  141.5389   71.8720  226.9968 H   0  0  0  0  0  0  0  0  0  0  0  0
  140.5434   72.5233  224.8990 H   0  0  0  0  0  0  0  0  0  0  0  0
  141.7255   71.3687  224.1513 H   0  0  0  0  0  0  0  0  0  0  0  0
  138.7805   77.3109  220.5504 H   0  0  0  0  0  0  0  0  0  0  0  0
  137.7200   76.0375  221.1228 H   0  0  0  0  0  0  0  0  0  0  0  0
  137.5712   77.9470  222.7532 H   0  0  0  0  0  0  0  0  0  0  0  0
  138.4570   76.6780  223.5844 H   0  0  0  0  0  0  0  0  0  0  0  0
  138.5405   79.8111  223.6612 H   0  0  0  0  0  0  0  0  0  0  0  0
  140.5061   81.3688  223.7236 H   0  0  0  0  0  0  0  0  0  0  0  0
  142.6780   80.6172  222.8460 H   0  0  0  0  0  0  0  0  0  0  0  0
  142.9966   78.3489  221.8868 H   0  0  0  0  0  0  0  0  0  0  0  0
  141.5009   76.5133  220.6572 H   0  0  0  0  0  0  0  0  0  0  0  0
  141.7283   75.8528  222.3302 H   0  0  0  0  0  0  0  0  0  0  0  0
  1  2  1  0
  2  3  2  0
  2  4  2  0
  2  5  1  0
  5  6  1  0
  6  7  1  0
  7  8  1  0
  8  9  1  0
  9 10  2  0
 10 11  1  0
 11 12  1  0
 12 13  1  0
 13 14  1  0
 14 15  2  0
 15 16  1  0
 16 17  2  0
 17 18  1  0
 18 19  2  0
 19 20  1  0
 10 21  1  0
 21 22  2  0
 22 23  1  0
 23 24  1  0
 24 25  1  0
 25 26  1  0
 26 27  2  0
 27 28  1  0
 28 29  2  0
 29 30  1  0
 30 31  2  0
 31 32  1  0
 22  8  1  0
 32 23  1  0
 20 11  1  0
 31 26  1  0
 19 14  1  0
  1 33  1  0
  1 34  1  0
  5 35  1  0
  5 36  1  0
  6 37  1  0
  6 38  1  0
  7 39  1  0
  7 40  1  0
  9 41  1  0
 12 42  1  0
 12 43  1  0
 13 44  1  0
 13 45  1  0
 15 46  1  0
 16 47  1  0
 17 48  1  0
 18 49  1  0
 20 50  1  0
 20 51  1  0
 24 52  1  0
 24 53  1  0
 25 54  1  0
 25 55  1  0
 27 56  1  0
 28 57  1  0
 29 58  1  0
 30 59  1  0
 32 60  1  0
 32 61  1  0
M  END
>  <smiles>  (6) 
NS(=O)(=O)CCCn1cc(N2CCc3ccccc3C2)nc1N1CCc2ccccc2C1

>  <score_type>  (6) 
oracle

>  <origin>  (6) 
autodockgpu

>  <m_score__min__energy>  (6) 
-9.8200000000000003

>  <m_primary>  (6) 
energy

>  <rmsd>  (6) 
3.8849141841513215

>  <m_score__min__rmsd>  (6) 
3.8849141841513215

>  <meeko>  (6) 
{"free_energy": -8.39, "intermolecular_energy": -10.48, "internal_energy": -1.95, "cluster_size": 3, "cluster_id": 3, "rank_in_cluster": 1}

>  <energy>  (6) 
-9.44

>  <cluster_rmsd>  (6) 
1.31

>  <cluster>  (6) 
1

$$$$

     RDKit          3D

 61 65  0  0  0  0  0  0  0  0999 V2000
  145.7740   72.8250  221.2000 N   0  0  0  0  0  0  0  0  0  0  0  0
  145.4340   72.1390  219.6720 S   0  0  0  0  0  0  0  0  0  0  0  0
  146.1380   70.8160  219.5760 O   0  0  0  0  0  0  0  0  0  0  0  0
  145.9740   73.1040  218.6270 O   0  0  0  0  0  0  0  0  0  0  0  0
  143.6940   71.9890  219.3410 C   0  0  0  0  0  0  0  0  0  0  0  0
  142.8940   71.5070  220.5070 C   0  0  0  0  0  0  0  0  0  0  0  0
  141.3870   71.7900  220.3280 C   0  0  0  0  0  0  0  0  0  0  0  0
  141.0430   73.0250  220.9980 N   0  0  0  0  0  0  0  0  0  0  0  0
  141.3870   74.2410  220.4990 C   0  0  0  0  0  0  0  0  0  0  0  0
  140.8640   75.1760  221.3610 C   0  0  0  0  0  0  0  0  0  0  0  0
  140.9760   76.5970  221.2790 N   0  0  0  0  0  0  0  0  0  0  0  0
  141.5450   77.1750  220.0860 C   0  0  0  0  0  0  0  0  0  0  0  0
  141.7120   78.6430  220.0850 C   0  0  0  0  0  0  0  0  0  0  0  0
  141.6350   79.3320  221.3700 C   0  0  0  0  0  0  0  0  0  0  0  0
  142.1510   80.6120  221.5010 C   0  0  0  0  0  0  0  0  0  0  0  0
  142.1020   81.3040  222.6820 C   0  0  0  0  0  0  0  0  0  0  0  0
  141.5040   80.6570  223.7570 C   0  0  0  0  0  0  0  0  0  0  0  0
  140.9800   79.3830  223.6640 C   0  0  0  0  0  0  0  0  0  0  0  0
  141.0490   78.7150  222.4490 C   0  0  0  0  0  0  0  0  0  0  0  0
  140.4790   77.3540  222.4090 C   0  0  0  0  0  0  0  0  0  0  0  0
  140.2380   74.4890  222.3290 N   0  0  0  0  0  0  0  0  0  0  0  0
  140.3430   73.1650  222.1150 C   0  0  0  0  0  0  0  0  0  0  0  0
  139.8240   72.1900  222.9890 N   0  0  0  0  0  0  0  0  0  0  0  0
  138.6220   71.4630  222.5340 C   0  0  0  0  0  0  0  0  0  0  0  0
  139.1410   70.0350  222.2930 C   0  0  0  0  0  0  0  0  0  0  0  0
  139.4770   69.5340  223.6770 C   0  0  0  0  0  0  0  0  0  0  0  0
  139.1910   68.2240  223.9250 C   0  0  0  0  0  0  0  0  0  0  0  0
  139.4800   67.7320  225.1860 C   0  0  0  0  0  0  0  0  0  0  0  0
  140.0390   68.5710  226.1280 C   0  0  0  0  0  0  0  0  0  0  0  0
  140.3310   69.9050  225.8740 C   0  0  0  0  0  0  0  0  0  0  0  0
  140.0380   70.3990  224.6050 C   0  0  0  0  0  0  0  0  0  0  0  0
  140.3270   71.8270  224.2830 C   0  0  0  0  0  0  0  0  0  0  0  0
  146.4800   72.2870  221.7550 H   0  0  0  0  0  0  0  0  0  0  0  0
  146.0590   73.8360  221.1360 H   0  0  0  0  0  0  0  0  0  0  0  0
  143.3119   72.9767  219.0437 H   0  0  0  0  0  0  0  0  0  0  0  0
  143.5845   71.2363  218.5464 H   0  0  0  0  0  0  0  0  0  0  0  0
  143.0417   70.4224  220.6155 H   0  0  0  0  0  0  0  0  0  0  0  0
  143.2379   72.0457  221.4023 H   0  0  0  0  0  0  0  0  0  0  0  0
  141.1557   71.8781  219.2562 H   0  0  0  0  0  0  0  0  0  0  0  0
  140.8056   70.9638  220.7631 H   0  0  0  0  0  0  0  0  0  0  0  0
  141.9685   74.4384  219.5864 H   0  0  0  0  0  0  0  0  0  0  0  0
  142.5374   76.7248  219.9360 H   0  0  0  0  0  0  0  0  0  0  0  0
  140.8232   76.9615  219.2838 H   0  0  0  0  0  0  0  0  0  0  0  0
  142.6996   78.8618  219.6527 H   0  0  0  0  0  0  0  0  0  0  0  0
  140.8527   79.0220  219.5124 H   0  0  0  0  0  0  0  0  0  0  0  0
  142.6162   81.0887  220.6256 H   0  0  0  0  0  0  0  0  0  0  0  0
  142.5146   82.3194  222.7749 H   0  0  0  0  0  0  0  0  0  0  0  0
  141.4458   81.1818  224.7220 H   0  0  0  0  0  0  0  0  0  0  0  0
  140.5152   78.9049  224.5388 H   0  0  0  0  0  0  0  0  0  0  0  0
  140.7482   76.8276  223.3366 H   0  0  0  0  0  0  0  0  0  0  0  0
  139.3873   77.4428  222.3081 H   0  0  0  0  0  0  0  0  0  0  0  0
  137.8397   71.4725  223.3072 H   0  0  0  0  0  0  0  0  0  0  0  0
  138.1616   71.9098  221.6405 H   0  0  0  0  0  0  0  0  0  0  0  0
  138.3649   69.4095  221.8278 H   0  0  0  0  0  0  0  0  0  0  0  0
  140.0027   70.0058  221.6098 H   0  0  0  0  0  0  0  0  0  0  0  0
  138.7466   67.5814  223.1507 H   0  0  0  0  0  0  0  0  0  0  0  0
  139.2661   66.6821  225.4348 H   0  0  0  0  0  0  0  0  0  0  0  0
  140.2636   68.1650  227.1254 H   0  0  0  0  0  0  0  0  0  0  0  0
  140.7774   70.5480  226.6469 H   0  0  0  0  0  0  0  0  0  0  0  0
  139.8535   72.4668  225.0422 H   0  0  0  0  0  0  0  0  0  0  0  0
  141.4184   71.9641  224.2783 H   0  0  0  0  0  0  0  0  0  0  0  0
  1  2  1  0
  2  3  2  0
  2  4  2  0
  2  5  1  0
  5  6  1  0
  6  7  1  0
  7  8  1  0
  8  9  1  0
  9 10  2  0
 10 11  1  0
 11 12  1  0
 12 13  1  0
 13 14  1  0
 14 15  2  0
 15 16  1  0
 16 17  2  0
 17 18  1  0
 18 19  2  0
 19 20  1  0
 10 21  1  0
 21 22  2  0
 22 23  1  0
 23 24  1  0
 24 25  1  0
 25 26  1  0
 26 27  2  0
 27 28  1  0
 28 29  2  0
 29 30  1  0
 30 31  2  0
 31 32  1  0
 22  8  1  0
 32 23  1  0
 20 11  1  0
 31 26  1  0
 19 14  1  0
  1 33  1  0
  1 34  1  0
  5 35  1  0
  5 36  1  0
  6 37  1  0
  6 38  1  0
  7 39  1  0
  7 40  1  0
  9 41  1  0
 12 42  1  0
 12 43  1  0
 13 44  1  0
 13 45  1  0
 15 46  1  0
 16 47  1  0
 17 48  1  0
 18 49  1  0
 20 50  1  0
 20 51  1  0
 24 52  1  0
 24 53  1  0
 25 54  1  0
 25 55  1  0
 27 56  1  0
 28 57  1  0
 29 58  1  0
 30 59  1  0
 32 60  1  0
 32 61  1  0
M  END
>  <smiles>  (7) 
NS(=O)(=O)CCCn1cc(N2CCc3ccccc3C2)nc1N1CCc2ccccc2C1

>  <score_type>  (7) 
oracle

>  <origin>  (7) 
autodockgpu

>  <m_score__min__energy>  (7) 
-9.8200000000000003

>  <m_primary>  (7) 
energy

>  <rmsd>  (7) 
8.858299590440302

>  <m_score__min__rmsd>  (7) 
8.858299590440302

>  <meeko>  (7) 
{"free_energy": -9.4, "intermolecular_energy": -11.49, "internal_energy": -1.04, "cluster_size": 35, "cluster_id": 1, "rank_in_cluster": 7}

>  <energy>  (7) 
-9.4

>  <cluster_rmsd>  (7) 
1.26

>  <cluster>  (7) 
1

$$$$

     RDKit          3D

 61 65  0  0  0  0  0  0  0  0999 V2000
  145.9420   73.2710  218.7690 N   0  0  0  0  0  0  0  0  0  0  0  0
  144.7820   73.6780  219.9560 S   0  0  0  0  0  0  0  0  0  0  0  0
  145.3490   74.7630  220.8250 O   0  0  0  0  0  0  0  0  0  0  0  0
  144.5300   72.4200  220.7750 O   0  0  0  0  0  0  0  0  0  0  0  0
  143.2060   74.1340  219.2700 C   0  0  0  0  0  0  0  0  0  0  0  0
  142.3510   72.9690  218.8900 C   0  0  0  0  0  0  0  0  0  0  0  0
  140.8600   73.2240  219.2020 C   0  0  0  0  0  0  0  0  0  0  0  0
  140.6260   73.0600  220.6200 N   0  0  0  0  0  0  0  0  0  0  0  0
  140.6230   71.8400  221.2180 C   0  0  0  0  0  0  0  0  0  0  0  0
  140.4160   72.0650  222.5590 C   0  0  0  0  0  0  0  0  0  0  0  0
  140.3100   71.0960  223.6010 N   0  0  0  0  0  0  0  0  0  0  0  0
  139.5020   69.9230  223.3700 C   0  0  0  0  0  0  0  0  0  0  0  0
  139.3610   68.9900  224.5070 C   0  0  0  0  0  0  0  0  0  0  0  0
  139.7270   69.4820  225.8320 C   0  0  0  0  0  0  0  0  0  0  0  0
  139.2700   68.8250  226.9650 C   0  0  0  0  0  0  0  0  0  0  0  0
  139.5870   69.2420  228.2310 C   0  0  0  0  0  0  0  0  0  0  0  0
  140.3960   70.3670  228.3300 C   0  0  0  0  0  0  0  0  0  0  0  0
  140.8680   71.0470  227.2250 C   0  0  0  0  0  0  0  0  0  0  0  0
  140.5250   70.5930  225.9590 C   0  0  0  0  0  0  0  0  0  0  0  0
  141.0530   71.3610  224.8150 C   0  0  0  0  0  0  0  0  0  0  0  0
  140.3060   73.3940  222.7060 N   0  0  0  0  0  0  0  0  0  0  0  0
  140.4330   74.0150  221.5180 C   0  0  0  0  0  0  0  0  0  0  0  0
  140.3160   75.4080  221.3510 N   0  0  0  0  0  0  0  0  0  0  0  0
  138.9480   75.9630  221.3340 C   0  0  0  0  0  0  0  0  0  0  0  0
  138.8750   76.7680  222.6420 C   0  0  0  0  0  0  0  0  0  0  0  0
  139.8310   77.9140  222.4160 C   0  0  0  0  0  0  0  0  0  0  0  0
  139.4490   79.1220  222.9220 C   0  0  0  0  0  0  0  0  0  0  0  0
  140.2990   80.1970  222.7270 C   0  0  0  0  0  0  0  0  0  0  0  0
  141.4810   80.0090  222.0410 C   0  0  0  0  0  0  0  0  0  0  0  0
  141.8700   78.7790  221.5270 C   0  0  0  0  0  0  0  0  0  0  0  0
  141.0130   77.6980  221.7220 C   0  0  0  0  0  0  0  0  0  0  0  0
  141.3810   76.3560  221.1840 C   0  0  0  0  0  0  0  0  0  0  0  0
  145.5400   72.7720  217.9410 H   0  0  0  0  0  0  0  0  0  0  0  0
  146.5050   74.1010  218.4510 H   0  0  0  0  0  0  0  0  0  0  0  0
  142.6636   74.7328  220.0165 H   0  0  0  0  0  0  0  0  0  0  0  0
  143.4103   74.6949  218.3461 H   0  0  0  0  0  0  0  0  0  0  0  0
  142.4621   72.7829  217.8116 H   0  0  0  0  0  0  0  0  0  0  0  0
  142.6788   72.0990  219.4779 H   0  0  0  0  0  0  0  0  0  0  0  0
  140.5934   74.2485  218.9031 H   0  0  0  0  0  0  0  0  0  0  0  0
  140.2419   72.5051  218.6442 H   0  0  0  0  0  0  0  0  0  0  0  0
  140.7592   70.8652  220.7269 H   0  0  0  0  0  0  0  0  0  0  0  0
  138.4942   70.2609  223.0869 H   0  0  0  0  0  0  0  0  0  0  0  0
  140.0273   69.3548  222.5882 H   0  0  0  0  0  0  0  0  0  0  0  0
  138.3064   68.6803  224.5503 H   0  0  0  0  0  0  0  0  0  0  0  0
  140.0799   68.1839  224.2989 H   0  0  0  0  0  0  0  0  0  0  0  0
  138.6307   67.9382  226.8427 H   0  0  0  0  0  0  0  0  0  0  0  0
  139.2199   68.7133  229.1230 H   0  0  0  0  0  0  0  0  0  0  0  0
  140.6720   70.7312  229.3306 H   0  0  0  0  0  0  0  0  0  0  0  0
  141.5060   71.9348  227.3461 H   0  0  0  0  0  0  0  0  0  0  0  0
  140.9869   72.4345  225.0458 H   0  0  0  0  0  0  0  0  0  0  0  0
  142.0969   71.0556  224.6507 H   0  0  0  0  0  0  0  0  0  0  0  0
  138.7986   76.6155  220.4611 H   0  0  0  0  0  0  0  0  0  0  0  0
  138.1706   75.1881  221.2622 H   0  0  0  0  0  0  0  0  0  0  0  0
  137.8542   77.1385  222.8172 H   0  0  0  0  0  0  0  0  0  0  0  0
  139.1347   76.1665  223.5256 H   0  0  0  0  0  0  0  0  0  0  0  0
  138.4996   79.2376  223.4654 H   0  0  0  0  0  0  0  0  0  0  0  0
  140.0345   81.1916  223.1153 H   0  0  0  0  0  0  0  0  0  0  0  0
  142.1458   80.8730  221.8944 H   0  0  0  0  0  0  0  0  0  0  0  0
  142.8203   78.6624  220.9855 H   0  0  0  0  0  0  0  0  0  0  0  0
  141.6086   76.4516  220.1121 H   0  0  0  0  0  0  0  0  0  0  0  0
  142.2563   75.9909  221.7412 H   0  0  0  0  0  0  0  0  0  0  0  0
  1  2  1  0
  2  3  2  0
  2  4  2  0
  2  5  1  0
  5  6  1  0
  6  7  1  0
  7  8  1  0
  8  9  1  0
  9 10  2  0
 10 11  1  0
 11 12  1  0
 12 13  1  0
 13 14  1  0
 14 15  2  0
 15 16  1  0
 16 17  2  0
 17 18  1  0
 18 19  2  0
 19 20  1  0
 10 21  1  0
 21 22  2  0
 22 23  1  0
 23 24  1  0
 24 25  1  0
 25 26  1  0
 26 27  2  0
 27 28  1  0
 28 29  2  0
 29 30  1  0
 30 31  2  0
 31 32  1  0
 22  8  1  0
 32 23  1  0
 20 11  1  0
 31 26  1  0
 19 14  1  0
  1 33  1  0
  1 34  1  0
  5 35  1  0
  5 36  1  0
  6 37  1  0
  6 38  1  0
  7 39  1  0
  7 40  1  0
  9 41  1  0
 12 42  1  0
 12 43  1  0
 13 44  1  0
 13 45  1  0
 15 46  1  0
 16 47  1  0
 17 48  1  0
 18 49  1  0
 20 50  1  0
 20 51  1  0
 24 52  1  0
 24 53  1  0
 25 54  1  0
 25 55  1  0
 27 56  1  0
 28 57  1  0
 29 58  1  0
 30 59  1  0
 32 60  1  0
 32 61  1  0
M  END
>  <smiles>  (8) 
NS(=O)(=O)CCCn1cc(N2CCc3ccccc3C2)nc1N1CCc2ccccc2C1

>  <score_type>  (8) 
oracle

>  <origin>  (8) 
autodockgpu

>  <m_score__min__energy>  (8) 
-9.8200000000000003

>  <m_primary>  (8) 
energy

>  <rmsd>  (8) 
3.7376373557827143

>  <m_score__min__rmsd>  (8) 
3.7376373557827143

>  <meeko>  (8) 
{"free_energy": -9.37, "intermolecular_energy": -11.45, "internal_energy": -1.29, "cluster_size": 35, "cluster_id": 1, "rank_in_cluster": 8}

>  <energy>  (8) 
-9.37

>  <cluster_rmsd>  (8) 
1.46

>  <cluster>  (8) 
1

$$$$

     RDKit          3D

 61 65  0  0  0  0  0  0  0  0999 V2000
  142.9700   78.6290  218.2060 N   0  0  0  0  0  0  0  0  0  0  0  0
  141.9280   77.3270  217.8340 S   0  0  0  0  0  0  0  0  0  0  0  0
  141.9320   77.1240  216.3460 O   0  0  0  0  0  0  0  0  0  0  0  0
  140.5380   77.7260  218.3100 O   0  0  0  0  0  0  0  0  0  0  0  0
  142.3300   75.8330  218.7090 C   0  0  0  0  0  0  0  0  0  0  0  0
  141.4980   74.6570  218.3140 C   0  0  0  0  0  0  0  0  0  0  0  0
  140.0410   74.7900  218.8090 C   0  0  0  0  0  0  0  0  0  0  0  0
  139.9600   74.3790  220.1930 N   0  0  0  0  0  0  0  0  0  0  0  0
  139.7980   73.0790  220.5550 C   0  0  0  0  0  0  0  0  0  0  0  0
  139.8080   73.0550  221.9300 C   0  0  0  0  0  0  0  0  0  0  0  0
  139.6490   71.9220  222.7840 N   0  0  0  0  0  0  0  0  0  0  0  0
  138.4810   71.0920  222.6170 C   0  0  0  0  0  0  0  0  0  0  0  0
  138.3240   69.9810  223.5770 C   0  0  0  0  0  0  0  0  0  0  0  0
  139.1300   70.0230  224.7940 C   0  0  0  0  0  0  0  0  0  0  0  0
  138.7700   69.2510  225.8900 C   0  0  0  0  0  0  0  0  0  0  0  0
  139.4920   69.2500  227.0530 C   0  0  0  0  0  0  0  0  0  0  0  0
  140.6160   70.0670  227.0880 C   0  0  0  0  0  0  0  0  0  0  0  0
  141.0030   70.8490  226.0190 C   0  0  0  0  0  0  0  0  0  0  0  0
  140.2450   70.8230  224.8570 C   0  0  0  0  0  0  0  0  0  0  0  0
  140.7020   71.6820  223.7470 C   0  0  0  0  0  0  0  0  0  0  0  0
  139.9730   74.3250  222.3280 N   0  0  0  0  0  0  0  0  0  0  0  0
  140.0660   75.1480  221.2670 C   0  0  0  0  0  0  0  0  0  0  0  0
  140.1980   76.5450  221.3730 N   0  0  0  0  0  0  0  0  0  0  0  0
  138.9480   77.3310  221.3820 C   0  0  0  0  0  0  0  0  0  0  0  0
  138.8830   77.8800  222.8170 C   0  0  0  0  0  0  0  0  0  0  0  0
  140.0330   78.8570  222.8840 C   0  0  0  0  0  0  0  0  0  0  0  0
  139.8090   79.9980  223.5950 C   0  0  0  0  0  0  0  0  0  0  0  0
  140.8390   80.9190  223.6720 C   0  0  0  0  0  0  0  0  0  0  0  0
  142.0350   80.6510  223.0380 C   0  0  0  0  0  0  0  0  0  0  0  0
  142.2620   79.4880  222.3140 C   0  0  0  0  0  0  0  0  0  0  0  0
  141.2240   78.5630  222.2360 C   0  0  0  0  0  0  0  0  0  0  0  0
  141.4160   77.2990  221.4660 C   0  0  0  0  0  0  0  0  0  0  0  0
  143.6600   78.4120  218.9630 H   0  0  0  0  0  0  0  0  0  0  0  0
  143.4700   79.0030  217.3590 H   0  0  0  0  0  0  0  0  0  0  0  0
  143.3854   75.5913  218.5148 H   0  0  0  0  0  0  0  0  0  0  0  0
  142.1289   76.0229  219.7737 H   0  0  0  0  0  0  0  0  0  0  0  0
  141.4949   74.5760  217.2170 H   0  0  0  0  0  0  0  0  0  0  0  0
  141.9347   73.7596  218.7767 H   0  0  0  0  0  0  0  0  0  0  0  0
  139.7177   75.8375  218.7186 H   0  0  0  0  0  0  0  0  0  0  0  0
  139.3876   74.1493  218.1986 H   0  0  0  0  0  0  0  0  0  0  0  0
  139.6819   72.2170  219.8816 H   0  0  0  0  0  0  0  0  0  0  0  0
  137.5954   71.7384  222.7051 H   0  0  0  0  0  0  0  0  0  0  0  0
  138.5994   70.6144  221.6332 H   0  0  0  0  0  0  0  0  0  0  0  0
  137.2675   69.9560  223.8821 H   0  0  0  0  0  0  0  0  0  0  0  0
  138.6787   69.0911  223.0364 H   0  0  0  0  0  0  0  0  0  0  0  0
  137.8731   68.6178  225.8216 H   0  0  0  0  0  0  0  0  0  0  0  0
  139.1978   68.6342  227.9157 H   0  0  0  0  0  0  0  0  0  0  0  0
  141.2220   70.0912  228.0057 H   0  0  0  0  0  0  0  0  0  0  0  0
  141.8990   71.4835  226.0869 H   0  0  0  0  0  0  0  0  0  0  0  0
  141.0357   72.6465  224.1574 H   0  0  0  0  0  0  0  0  0  0  0  0
  141.5251   71.1653  223.2316 H   0  0  0  0  0  0  0  0  0  0  0  0
  138.9926   78.1499  220.6489 H   0  0  0  0  0  0  0  0  0  0  0  0
  138.0642   76.7356  221.1094 H   0  0  0  0  0  0  0  0  0  0  0  0
  137.9252   78.3898  222.9981 H   0  0  0  0  0  0  0  0  0  0  0  0
  138.9535   77.0887  223.5778 H   0  0  0  0  0  0  0  0  0  0  0  0
  138.8438   80.1803  224.0901 H   0  0  0  0  0  0  0  0  0  0  0  0
  140.7056   81.8556  224.2332 H   0  0  0  0  0  0  0  0  0  0  0  0
  142.8449   81.3919  223.1093 H   0  0  0  0  0  0  0  0  0  0  0  0
  143.2273   79.3040  221.8197 H   0  0  0  0  0  0  0  0  0  0  0  0
  141.7596   77.5482  220.4512 H   0  0  0  0  0  0  0  0  0  0  0  0
  142.1605   76.6850  221.9940 H   0  0  0  0  0  0  0  0  0  0  0  0
  1  2  1  0
  2  3  2  0
  2  4  2  0
  2  5  1  0
  5  6  1  0
  6  7  1  0
  7  8  1  0
  8  9  1  0
  9 10  2  0
 10 11  1  0
 11 12  1  0
 12 13  1  0
 13 14  1  0
 14 15  2  0
 15 16  1  0
 16 17  2  0
 17 18  1  0
 18 19  2  0
 19 20  1  0
 10 21  1  0
 21 22  2  0
 22 23  1  0
 23 24  1  0
 24 25  1  0
 25 26  1  0
 26 27  2  0
 27 28  1  0
 28 29  2  0
 29 30  1  0
 30 31  2  0
 31 32  1  0
 22  8  1  0
 32 23  1  0
 20 11  1  0
 31 26  1  0
 19 14  1  0
  1 33  1  0
  1 34  1  0
  5 35  1  0
  5 36  1  0
  6 37  1  0
  6 38  1  0
  7 39  1  0
  7 40  1  0
  9 41  1  0
 12 42  1  0
 12 43  1  0
 13 44  1  0
 13 45  1  0
 15 46  1  0
 16 47  1  0
 17 48  1  0
 18 49  1  0
 20 50  1  0
 20 51  1  0
 24 52  1  0
 24 53  1  0
 25 54  1  0
 25 55  1  0
 27 56  1  0
 28 57  1  0
 29 58  1  0
 30 59  1  0
 32 60  1  0
 32 61  1  0
M  END
>  <smiles>  (9) 
NS(=O)(=O)CCCn1cc(N2CCc3ccccc3C2)nc1N1CCc2ccccc2C1

>  <score_type>  (9) 
oracle

>  <origin>  (9) 
autodockgpu

>  <m_score__min__energy>  (9) 
-9.8200000000000003

>  <m_primary>  (9) 
energy

>  <rmsd>  (9) 
3.2170829668853247

>  <m_score__min__rmsd>  (9) 
3.2170829668853247

>  <meeko>  (9) 
{"free_energy": -8.34, "intermolecular_energy": -10.43, "internal_energy": -1.5, "cluster_size": 9, "cluster_id": 2, "rank_in_cluster": 8}

>  <energy>  (9) 
-9.35

>  <cluster_rmsd>  (9) 
1.8

>  <cluster>  (9) 
1

$$$$

     RDKit          3D

 61 65  0  0  0  0  0  0  0  0999 V2000
  142.9510   78.7030  217.1380 N   0  0  0  0  0  0  0  0  0  0  0  0
  142.0400   77.7760  218.2480 S   0  0  0  0  0  0  0  0  0  0  0  0
  141.1980   78.7080  219.0690 O   0  0  0  0  0  0  0  0  0  0  0  0
  143.0380   77.0440  219.1340 O   0  0  0  0  0  0  0  0  0  0  0  0
  141.0630   76.5100  217.4700 C   0  0  0  0  0  0  0  0  0  0  0  0
  140.9460   75.2550  218.2730 C   0  0  0  0  0  0  0  0  0  0  0  0
  139.5340   75.0860  218.8730 C   0  0  0  0  0  0  0  0  0  0  0  0
  139.6400   74.6180  220.2380 N   0  0  0  0  0  0  0  0  0  0  0  0
  139.4570   73.3130  220.5720 C   0  0  0  0  0  0  0  0  0  0  0  0
  139.6740   73.2260  221.9280 C   0  0  0  0  0  0  0  0  0  0  0  0
  139.5810   72.0660  222.7540 N   0  0  0  0  0  0  0  0  0  0  0  0
  138.4410   71.1970  222.5930 C   0  0  0  0  0  0  0  0  0  0  0  0
  138.3500   70.0550  223.5260 C   0  0  0  0  0  0  0  0  0  0  0  0
  139.1840   70.0950  224.7230 C   0  0  0  0  0  0  0  0  0  0  0  0
  138.8820   69.2820  225.8060 C   0  0  0  0  0  0  0  0  0  0  0  0
  139.6330   69.2780  226.9510 C   0  0  0  0  0  0  0  0  0  0  0  0
  140.7250   70.1370  226.9810 C   0  0  0  0  0  0  0  0  0  0  0  0
  141.0550   70.9610  225.9240 C   0  0  0  0  0  0  0  0  0  0  0  0
  140.2700   70.9360  224.7800 C   0  0  0  0  0  0  0  0  0  0  0  0
  140.6660   71.8420  223.6840 C   0  0  0  0  0  0  0  0  0  0  0  0
  139.9740   74.4670  222.3420 N   0  0  0  0  0  0  0  0  0  0  0  0
  139.9540   75.3300  221.3100 C   0  0  0  0  0  0  0  0  0  0  0  0
  140.1830   76.7130  221.4450 N   0  0  0  0  0  0  0  0  0  0  0  0
  138.9960   77.5900  221.4000 C   0  0  0  0  0  0  0  0  0  0  0  0
  138.8950   78.1250  222.8390 C   0  0  0  0  0  0  0  0  0  0  0  0
  140.1090   79.0110  222.9820 C   0  0  0  0  0  0  0  0  0  0  0  0
  139.9320   80.1580  223.6990 C   0  0  0  0  0  0  0  0  0  0  0  0
  141.0220   80.9980  223.8450 C   0  0  0  0  0  0  0  0  0  0  0  0
  142.2270   80.6490  223.2710 C   0  0  0  0  0  0  0  0  0  0  0  0
  142.4070   79.4810  222.5420 C   0  0  0  0  0  0  0  0  0  0  0  0
  141.3080   78.6370  222.3940 C   0  0  0  0  0  0  0  0  0  0  0  0
  141.4470   77.3720  221.6150 C   0  0  0  0  0  0  0  0  0  0  0  0
  143.3110   79.6010  217.5370 H   0  0  0  0  0  0  0  0  0  0  0  0
  143.7420   78.1570  216.7070 H   0  0  0  0  0  0  0  0  0  0  0  0
  140.0517   76.9082  217.3007 H   0  0  0  0  0  0  0  0  0  0  0  0
  141.5744   76.2429  216.5335 H   0  0  0  0  0  0  0  0  0  0  0  0
  141.1612   74.3948  217.6220 H   0  0  0  0  0  0  0  0  0  0  0  0
  141.6649   75.3130  219.1035 H   0  0  0  0  0  0  0  0  0  0  0  0
  139.0112   76.0537  218.8572 H   0  0  0  0  0  0  0  0  0  0  0  0
  138.9694   74.3530  218.2781 H   0  0  0  0  0  0  0  0  0  0  0  0
  139.1887   72.4901  219.8931 H   0  0  0  0  0  0  0  0  0  0  0  0
  137.5344   71.8068  222.7206 H   0  0  0  0  0  0  0  0  0  0  0  0
  138.5520   70.7506  221.5938 H   0  0  0  0  0  0  0  0  0  0  0  0
  137.3032   69.9817  223.8560 H   0  0  0  0  0  0  0  0  0  0  0  0
  138.7239   69.1940  222.9525 H   0  0  0  0  0  0  0  0  0  0  0  0
  138.0081   68.6169  225.7425 H   0  0  0  0  0  0  0  0  0  0  0  0
  139.3847   68.6283  227.8032 H   0  0  0  0  0  0  0  0  0  0  0  0
  141.3522   70.1612  227.8843 H   0  0  0  0  0  0  0  0  0  0  0  0
  141.9275   71.6278  225.9875 H   0  0  0  0  0  0  0  0  0  0  0  0
  140.9722   72.8074  224.1131 H   0  0  0  0  0  0  0  0  0  0  0  0
  141.4956   71.3725  223.1350 H   0  0  0  0  0  0  0  0  0  0  0  0
  139.1406   78.4120  220.6834 H   0  0  0  0  0  0  0  0  0  0  0  0
  138.0864   77.0660  221.0712 H   0  0  0  0  0  0  0  0  0  0  0  0
  137.9697   78.7034  222.9776 H   0  0  0  0  0  0  0  0  0  0  0  0
  138.8650   77.3215  223.5896 H   0  0  0  0  0  0  0  0  0  0  0  0
  138.9577   80.4063  224.1452 H   0  0  0  0  0  0  0  0  0  0  0  0
  140.9285   81.9351  224.4134 H   0  0  0  0  0  0  0  0  0  0  0  0
  143.0842   81.3269  223.3965 H   0  0  0  0  0  0  0  0  0  0  0  0
  143.3816   79.2310  222.0975 H   0  0  0  0  0  0  0  0  0  0  0  0
  141.8629   77.6071  220.6241 H   0  0  0  0  0  0  0  0  0  0  0  0
  142.1140   76.6973  222.1717 H   0  0  0  0  0  0  0  0  0  0  0  0
  1  2  1  0
  2  3  2  0
  2  4  2  0
  2  5  1  0
  5  6  1  0
  6  7  1  0
  7  8  1  0
  8  9  1  0
  9 10  2  0
 10 11  1  0
 11 12  1  0
 12 13  1  0
 13 14  1  0
 14 15  2  0
 15 16  1  0
 16 17  2  0
 17 18  1  0
 18 19  2  0
 19 20  1  0
 10 21  1  0
 21 22  2  0
 22 23  1  0
 23 24  1  0
 24 25  1  0
 25 26  1  0
 26 27  2  0
 27 28  1  0
 28 29  2  0
 29 30  1  0
 30 31  2  0
 31 32  1  0
 22  8  1  0
 32 23  1  0
 20 11  1  0
 31 26  1  0
 19 14  1  0
  1 33  1  0
  1 34  1  0
  5 35  1  0
  5 36  1  0
  6 37  1  0
  6 38  1  0
  7 39  1  0
  7 40  1  0
  9 41  1  0
 12 42  1  0
 12 43  1  0
 13 44  1  0
 13 45  1  0
 15 46  1  0
 16 47  1  0
 17 48  1  0
 18 49  1  0
 20 50  1  0
 20 51  1  0
 24 52  1  0
 24 53  1  0
 25 54  1  0
 25 55  1  0
 27 56  1  0
 28 57  1  0
 29 58  1  0
 30 59  1  0
 32 60  1  0
 32 61  1  0
M  END
>  <smiles>  (10) 
NS(=O)(=O)CCCn1cc(N2CCc3ccccc3C2)nc1N1CCc2ccccc2C1

>  <score_type>  (10) 
oracle

>  <origin>  (10) 
autodockgpu

>  <m_score__min__energy>  (10) 
-9.8200000000000003

>  <m_primary>  (10) 
energy

>  <rmsd>  (10) 
3.0872034859000683

>  <m_score__min__rmsd>  (10) 
3.0872034859000683

>  <meeko>  (10) 
{"free_energy": -8.47, "intermolecular_energy": -10.56, "internal_energy": -1.59, "cluster_size": 9, "cluster_id": 2, "rank_in_cluster": 7}

>  <energy>  (10) 
-9.35

>  <cluster_rmsd>  (10) 
1.64

>  <cluster>  (10) 
1

$$$$

     RDKit          3D

 61 65  0  0  0  0  0  0  0  0999 V2000
  144.3450   71.9150  220.9820 N   0  0  0  0  0  0  0  0  0  0  0  0
  145.1500   73.1450  220.1090 S   0  0  0  0  0  0  0  0  0  0  0  0
  146.3040   72.5290  219.3720 O   0  0  0  0  0  0  0  0  0  0  0  0
  145.6530   74.1530  221.1330 O   0  0  0  0  0  0  0  0  0  0  0  0
  144.0760   74.0520  219.0220 C   0  0  0  0  0  0  0  0  0  0  0  0
  142.8870   74.6490  219.7030 C   0  0  0  0  0  0  0  0  0  0  0  0
  141.6170   73.7960  219.4950 C   0  0  0  0  0  0  0  0  0  0  0  0
  141.0630   73.4290  220.7800 N   0  0  0  0  0  0  0  0  0  0  0  0
  141.1260   72.1590  221.2600 C   0  0  0  0  0  0  0  0  0  0  0  0
  140.5480   72.1870  222.5080 C   0  0  0  0  0  0  0  0  0  0  0  0
  140.3550   71.0940  223.4050 N   0  0  0  0  0  0  0  0  0  0  0  0
  139.3980   70.0740  223.0520 C   0  0  0  0  0  0  0  0  0  0  0  0
  139.1770   69.0080  224.0500 C   0  0  0  0  0  0  0  0  0  0  0  0
  139.6480   69.2500  225.4110 C   0  0  0  0  0  0  0  0  0  0  0  0
  139.1500   68.4930  226.4610 C   0  0  0  0  0  0  0  0  0  0  0  0
  139.5600   68.6770  227.7550 C   0  0  0  0  0  0  0  0  0  0  0  0
  140.5080   69.6690  227.9720 C   0  0  0  0  0  0  0  0  0  0  0  0
  141.0250   70.4430  226.9510 C   0  0  0  0  0  0  0  0  0  0  0  0
  140.5840   70.2260  225.6530 C   0  0  0  0  0  0  0  0  0  0  0  0
  141.1660   71.0860  224.6040 C   0  0  0  0  0  0  0  0  0  0  0  0
  140.1690   73.4560  222.7200 N   0  0  0  0  0  0  0  0  0  0  0  0
  140.4810   74.2280  221.6620 C   0  0  0  0  0  0  0  0  0  0  0  0
  140.1650   75.5970  221.5760 N   0  0  0  0  0  0  0  0  0  0  0  0
  138.7410   75.9390  221.3850 C   0  0  0  0  0  0  0  0  0  0  0  0
  138.3520   76.5990  222.7190 C   0  0  0  0  0  0  0  0  0  0  0  0
  139.1320   77.8910  222.7250 C   0  0  0  0  0  0  0  0  0  0  0  0
  138.4900   78.9750  223.2480 C   0  0  0  0  0  0  0  0  0  0  0  0
  139.1730   80.1790  223.2640 C   0  0  0  0  0  0  0  0  0  0  0  0
  140.4560   80.2360  222.7590 C   0  0  0  0  0  0  0  0  0  0  0  0
  141.1080   79.1320  222.2270 C   0  0  0  0  0  0  0  0  0  0  0  0
  140.4200   77.9210  222.2100 C   0  0  0  0  0  0  0  0  0  0  0  0
  141.0740   76.7060  221.6440 C   0  0  0  0  0  0  0  0  0  0  0  0
  144.3860   70.9760  220.5200 H   0  0  0  0  0  0  0  0  0  0  0  0
  144.6780   71.8410  221.9780 H   0  0  0  0  0  0  0  0  0  0  0  0
  144.6561   74.8656  218.5619 H   0  0  0  0  0  0  0  0  0  0  0  0
  143.6924   73.3348  218.2814 H   0  0  0  0  0  0  0  0  0  0  0  0
  143.0938   74.7222  220.7809 H   0  0  0  0  0  0  0  0  0  0  0  0
  142.7064   75.6422  219.2660 H   0  0  0  0  0  0  0  0  0  0  0  0
  140.8744   74.3772  218.9287 H   0  0  0  0  0  0  0  0  0  0  0  0
  141.8764   72.8852  218.9354 H   0  0  0  0  0  0  0  0  0  0  0  0
  141.5542   71.2826  220.7514 H   0  0  0  0  0  0  0  0  0  0  0  0
  138.4324   70.5690  222.8715 H   0  0  0  0  0  0  0  0  0  0  0  0
  139.8215   69.5676  222.1721 H   0  0  0  0  0  0  0  0  0  0  0  0
  138.0934   68.8266  224.1038 H   0  0  0  0  0  0  0  0  0  0  0  0
  139.7791   68.1599  223.6919 H   0  0  0  0  0  0  0  0  0  0  0  0
  138.3995   67.7177  226.2472 H   0  0  0  0  0  0  0  0  0  0  0  0
  139.1590   68.0702  228.5802 H   0  0  0  0  0  0  0  0  0  0  0  0
  140.8614   69.8454  228.9986 H   0  0  0  0  0  0  0  0  0  0  0  0
  141.7747   71.2194  227.1636 H   0  0  0  0  0  0  0  0  0  0  0  0
  141.2435   72.1137  224.9884 H   0  0  0  0  0  0  0  0  0  0  0  0
  142.1570   70.6856  224.3441 H   0  0  0  0  0  0  0  0  0  0  0  0
  138.6133   76.6399  220.5469 H   0  0  0  0  0  0  0  0  0  0  0  0
  138.1184   75.0660  221.1396 H   0  0  0  0  0  0  0  0  0  0  0  0
  137.2702   76.7946  222.7582 H   0  0  0  0  0  0  0  0  0  0  0  0
  138.5765   75.9636  223.5884 H   0  0  0  0  0  0  0  0  0  0  0  0
  137.4664   78.8953  223.6428 H   0  0  0  0  0  0  0  0  0  0  0  0
  138.6976   81.0816  223.6753 H   0  0  0  0  0  0  0  0  0  0  0  0
  140.9859   81.1997  222.7789 H   0  0  0  0  0  0  0  0  0  0  0  0
  142.1319   79.2107  221.8328 H   0  0  0  0  0  0  0  0  0  0  0  0
  141.4341   76.9345  220.6300 H   0  0  0  0  0  0  0  0  0  0  0  0
  141.9079   76.4261  222.3045 H   0  0  0  0  0  0  0  0  0  0  0  0
  1  2  1  0
  2  3  2  0
  2  4  2  0
  2  5  1  0
  5  6  1  0
  6  7  1  0
  7  8  1  0
  8  9  1  0
  9 10  2  0
 10 11  1  0
 11 12  1  0
 12 13  1  0
 13 14  1  0
 14 15  2  0
 15 16  1  0
 16 17  2  0
 17 18  1  0
 18 19  2  0
 19 20  1  0
 10 21  1  0
 21 22  2  0
 22 23  1  0
 23 24  1  0
 24 25  1  0
 25 26  1  0
 26 27  2  0
 27 28  1  0
 28 29  2  0
 29 30  1  0
 30 31  2  0
 31 32  1  0
 22  8  1  0
 32 23  1  0
 20 11  1  0
 31 26  1  0
 19 14  1  0
  1 33  1  0
  1 34  1  0
  5 35  1  0
  5 36  1  0
  6 37  1  0
  6 38  1  0
  7 39  1  0
  7 40  1  0
  9 41  1  0
 12 42  1  0
 12 43  1  0
 13 44  1  0
 13 45  1  0
 15 46  1  0
 16 47  1  0
 17 48  1  0
 18 49  1  0
 20 50  1  0
 20 51  1  0
 24 52  1  0
 24 53  1  0
 25 54  1  0
 25 55  1  0
 27 56  1  0
 28 57  1  0
 29 58  1  0
 30 59  1  0
 32 60  1  0
 32 61  1  0
M  END
>  <smiles>  (11) 
NS(=O)(=O)CCCn1cc(N2CCc3ccccc3C2)nc1N1CCc2ccccc2C1

>  <score_type>  (11) 
oracle

>  <origin>  (11) 
autodockgpu

>  <m_score__min__energy>  (11) 
-9.8200000000000003

>  <m_primary>  (11) 
energy

>  <rmsd>  (11) 
3.892577525952561

>  <m_score__min__rmsd>  (11) 
3.892577525952561

>  <meeko>  (11) 
{"free_energy": -9.53, "intermolecular_energy": -11.62, "internal_energy": -1.16, "cluster_size": 35, "cluster_id": 1, "rank_in_cluster": 5}

>  <energy>  (11) 
-9.31

>  <cluster_rmsd>  (11) 
1.12

>  <cluster>  (11) 
1

$$$$

     RDKit          3D

 61 65  0  0  0  0  0  0  0  0999 V2000
  142.6270   74.2240  221.0410 N   0  0  0  0  0  0  0  0  0  0  0  0
  142.5240   74.6010  219.3770 S   0  0  0  0  0  0  0  0  0  0  0  0
  143.8030   74.1810  218.7130 O   0  0  0  0  0  0  0  0  0  0  0  0
  142.3460   76.1090  219.2780 O   0  0  0  0  0  0  0  0  0  0  0  0
  141.1000   73.8910  218.5840 C   0  0  0  0  0  0  0  0  0  0  0  0
  139.8890   74.7650  218.6180 C   0  0  0  0  0  0  0  0  0  0  0  0
  138.7200   74.0980  219.3760 C   0  0  0  0  0  0  0  0  0  0  0  0
  139.1500   73.7380  220.7100 N   0  0  0  0  0  0  0  0  0  0  0  0
  139.1150   72.4560  221.1600 C   0  0  0  0  0  0  0  0  0  0  0  0
  139.6310   72.4780  222.4350 C   0  0  0  0  0  0  0  0  0  0  0  0
  139.7840   71.3810  223.3340 N   0  0  0  0  0  0  0  0  0  0  0  0
  139.0410   70.1710  223.0760 C   0  0  0  0  0  0  0  0  0  0  0  0
  139.1720   69.0950  224.0800 C   0  0  0  0  0  0  0  0  0  0  0  0
  139.7230   69.4520  225.3830 C   0  0  0  0  0  0  0  0  0  0  0  0
  139.5230   68.6170  226.4730 C   0  0  0  0  0  0  0  0  0  0  0  0
  140.0210   68.9030  227.7160 C   0  0  0  0  0  0  0  0  0  0  0  0
  140.7460   70.0820  227.8390 C   0  0  0  0  0  0  0  0  0  0  0  0
  140.9640   70.9380  226.7780 C   0  0  0  0  0  0  0  0  0  0  0  0
  140.4430   70.6130  225.5330 C   0  0  0  0  0  0  0  0  0  0  0  0
  140.7030   71.5670  224.4370 C   0  0  0  0  0  0  0  0  0  0  0  0
  139.9500   73.7560  222.6900 N   0  0  0  0  0  0  0  0  0  0  0  0
  139.6570   74.5390  221.6350 C   0  0  0  0  0  0  0  0  0  0  0  0
  139.8390   75.9350  221.6250 N   0  0  0  0  0  0  0  0  0  0  0  0
  138.6460   76.7580  221.3430 C   0  0  0  0  0  0  0  0  0  0  0  0
  138.3700   77.4560  222.6850 C   0  0  0  0  0  0  0  0  0  0  0  0
  139.5390   78.3960  222.8530 C   0  0  0  0  0  0  0  0  0  0  0  0
  139.2560   79.6120  223.4000 C   0  0  0  0  0  0  0  0  0  0  0  0
  140.3040   80.5020  223.5630 C   0  0  0  0  0  0  0  0  0  0  0  0
  141.5740   80.1300  223.1730 C   0  0  0  0  0  0  0  0  0  0  0  0
  141.8620   78.8910  222.6150 C   0  0  0  0  0  0  0  0  0  0  0  0
  140.8060   77.9970  222.4510 C   0  0  0  0  0  0  0  0  0  0  0  0
  141.0600   76.6540  221.8520 C   0  0  0  0  0  0  0  0  0  0  0  0
  142.9520   75.0240  221.6340 H   0  0  0  0  0  0  0  0  0  0  0  0
  141.7280   73.8330  221.4250 H   0  0  0  0  0  0  0  0  0  0  0  0
  141.3531   73.6908  217.5324 H   0  0  0  0  0  0  0  0  0  0  0  0
  140.8486   72.9756  219.1397 H   0  0  0  0  0  0  0  0  0  0  0  0
  140.1458   75.7095  219.1199 H   0  0  0  0  0  0  0  0  0  0  0  0
  139.5668   74.9425  217.5813 H   0  0  0  0  0  0  0  0  0  0  0  0
  137.8766   74.8012  219.4404 H   0  0  0  0  0  0  0  0  0  0  0  0
  138.4038   73.1927  218.8370 H   0  0  0  0  0  0  0  0  0  0  0  0
  138.7470   71.5754  220.6131 H   0  0  0  0  0  0  0  0  0  0  0  0
  137.9763   70.4394  223.0095 H   0  0  0  0  0  0  0  0  0  0  0  0
  139.4647   69.7592  222.1482 H   0  0  0  0  0  0  0  0  0  0  0  0
  138.1680   68.6790  224.2498 H   0  0  0  0  0  0  0  0  0  0  0  0
  139.9042   68.3969  223.6482 H   0  0  0  0  0  0  0  0  0  0  0  0
  138.9437   67.6923  226.3336 H   0  0  0  0  0  0  0  0  0  0  0  0
  139.8556   68.2338  228.5732 H   0  0  0  0  0  0  0  0  0  0  0  0
  141.1635   70.3441  228.8224 H   0  0  0  0  0  0  0  0  0  0  0  0
  141.5418   71.8636  226.9171 H   0  0  0  0  0  0  0  0  0  0  0  0
  140.5937   72.5913  224.8229 H   0  0  0  0  0  0  0  0  0  0  0  0
  141.7234   71.3917  224.0655 H   0  0  0  0  0  0  0  0  0  0  0  0
  138.8532   77.4937  220.5519 H   0  0  0  0  0  0  0  0  0  0  0  0
  137.7914   76.1666  220.9825 H   0  0  0  0  0  0  0  0  0  0  0  0
  137.4221   78.0130  222.6487 H   0  0  0  0  0  0  0  0  0  0  0  0
  138.2730   76.7465  223.5200 H   0  0  0  0  0  0  0  0  0  0  0  0
  138.2317   79.8767  223.7011 H   0  0  0  0  0  0  0  0  0  0  0  0
  140.1258   81.4960  223.9992 H   0  0  0  0  0  0  0  0  0  0  0  0
  142.3963   80.8476  223.3103 H   0  0  0  0  0  0  0  0  0  0  0  0
  142.8860   78.6254  222.3137 H   0  0  0  0  0  0  0  0  0  0  0  0
  141.5807   76.7845  220.8919 H   0  0  0  0  0  0  0  0  0  0  0  0
  141.6735   76.0742  222.5573 H   0  0  0  0  0  0  0  0  0  0  0  0
  1  2  1  0
  2  3  2  0
  2  4  2  0
  2  5  1  0
  5  6  1  0
  6  7  1  0
  7  8  1  0
  8  9  1  0
  9 10  2  0
 10 11  1  0
 11 12  1  0
 12 13  1  0
 13 14  1  0
 14 15  2  0
 15 16  1  0
 16 17  2  0
 17 18  1  0
 18 19  2  0
 19 20  1  0
 10 21  1  0
 21 22  2  0
 22 23  1  0
 23 24  1  0
 24 25  1  0
 25 26  1  0
 26 27  2  0
 27 28  1  0
 28 29  2  0
 29 30  1  0
 30 31  2  0
 31 32  1  0
 22  8  1  0
 32 23  1  0
 20 11  1  0
 31 26  1  0
 19 14  1  0
  1 33  1  0
  1 34  1  0
  5 35  1  0
  5 36  1  0
  6 37  1  0
  6 38  1  0
  7 39  1  0
  7 40  1  0
  9 41  1  0
 12 42  1  0
 12 43  1  0
 13 44  1  0
 13 45  1  0
 15 46  1  0
 16 47  1  0
 17 48  1  0
 18 49  1  0
 20 50  1  0
 20 51  1  0
 24 52  1  0
 24 53  1  0
 25 54  1  0
 25 55  1  0
 27 56  1  0
 28 57  1  0
 29 58  1  0
 30 59  1  0
 32 60  1  0
 32 61  1  0
M  END
>  <smiles>  (12) 
NS(=O)(=O)CCCn1cc(N2CCc3ccccc3C2)nc1N1CCc2ccccc2C1

>  <score_type>  (12) 
oracle

>  <origin>  (12) 
autodockgpu

>  <m_score__min__energy>  (12) 
-9.8200000000000003

>  <m_primary>  (12) 
energy

>  <rmsd>  (12) 
3.468452205596986

>  <m_score__min__rmsd>  (12) 
3.468452205596986

>  <meeko>  (12) 
{"free_energy": -8.14, "intermolecular_energy": -10.22, "internal_energy": -2.17, "cluster_size": 9, "cluster_id": 2, "rank_in_cluster": 9}

>  <energy>  (12) 
-9.28

>  <cluster_rmsd>  (12) 
1.45

>  <cluster>  (12) 
1

$$$$

     RDKit          3D

 61 65  0  0  0  0  0  0  0  0999 V2000
  143.5720   76.4240  219.8270 N   0  0  0  0  0  0  0  0  0  0  0  0
  142.5900   76.4720  218.4290 S   0  0  0  0  0  0  0  0  0  0  0  0
  143.2290   75.6230  217.3680 O   0  0  0  0  0  0  0  0  0  0  0  0
  142.5330   77.9250  217.9800 O   0  0  0  0  0  0  0  0  0  0  0  0
  140.9060   75.9930  218.7360 C   0  0  0  0  0  0  0  0  0  0  0  0
  140.6570   74.5260  218.5920 C   0  0  0  0  0  0  0  0  0  0  0  0
  139.3130   74.1060  219.2250 C   0  0  0  0  0  0  0  0  0  0  0  0
  139.5210   73.7470  220.6110 N   0  0  0  0  0  0  0  0  0  0  0  0
  139.4900   72.4570  221.0380 C   0  0  0  0  0  0  0  0  0  0  0  0
  139.7680   72.4870  222.3850 C   0  0  0  0  0  0  0  0  0  0  0  0
  139.8300   71.3840  223.2880 N   0  0  0  0  0  0  0  0  0  0  0  0
  139.0500   70.2070  222.9910 C   0  0  0  0  0  0  0  0  0  0  0  0
  139.0850   69.1260  223.9970 C   0  0  0  0  0  0  0  0  0  0  0  0
  139.5880   69.4590  225.3270 C   0  0  0  0  0  0  0  0  0  0  0  0
  139.2990   68.6330  226.4030 C   0  0  0  0  0  0  0  0  0  0  0  0
  139.7480   68.8970  227.6700 C   0  0  0  0  0  0  0  0  0  0  0  0
  140.5150   70.0450  227.8310 C   0  0  0  0  0  0  0  0  0  0  0  0
  140.8210   70.8900  226.7840 C   0  0  0  0  0  0  0  0  0  0  0  0
  140.3480   70.5880  225.5150 C   0  0  0  0  0  0  0  0  0  0  0  0
  140.7010   71.5300  224.4340 C   0  0  0  0  0  0  0  0  0  0  0  0
  139.9510   73.7780  222.7030 N   0  0  0  0  0  0  0  0  0  0  0  0
  139.8000   74.5610  221.6190 C   0  0  0  0  0  0  0  0  0  0  0  0
  139.8880   75.9660  221.6530 N   0  0  0  0  0  0  0  0  0  0  0  0
  138.6530   76.7160  221.3480 C   0  0  0  0  0  0  0  0  0  0  0  0
  138.2830   77.3540  222.6980 C   0  0  0  0  0  0  0  0  0  0  0  0
  139.3800   78.3640  222.9340 C   0  0  0  0  0  0  0  0  0  0  0  0
  138.9970   79.5430  223.5030 C   0  0  0  0  0  0  0  0  0  0  0  0
  139.9760   80.4940  223.7280 C   0  0  0  0  0  0  0  0  0  0  0  0
  141.2820   80.2190  223.3760 C   0  0  0  0  0  0  0  0  0  0  0  0
  141.6710   79.0190  222.7970 C   0  0  0  0  0  0  0  0  0  0  0  0
  140.6850   78.0620  222.5690 C   0  0  0  0  0  0  0  0  0  0  0  0
  141.0490   76.7570  221.9440 C   0  0  0  0  0  0  0  0  0  0  0  0
  144.2980   77.1770  219.8570 H   0  0  0  0  0  0  0  0  0  0  0  0
  143.0090   76.4300  220.7170 H   0  0  0  0  0  0  0  0  0  0  0  0
  140.6432   76.2897  219.7621 H   0  0  0  0  0  0  0  0  0  0  0  0
  140.2878   76.4973  217.9787 H   0  0  0  0  0  0  0  0  0  0  0  0
  140.6413   74.2712  217.5220 H   0  0  0  0  0  0  0  0  0  0  0  0
  141.4627   73.9902  219.1152 H   0  0  0  0  0  0  0  0  0  0  0  0
  138.6029   74.9441  219.1664 H   0  0  0  0  0  0  0  0  0  0  0  0
  138.9070   73.2409  218.6803 H   0  0  0  0  0  0  0  0  0  0  0  0
  139.2835   71.5656  220.4275 H   0  0  0  0  0  0  0  0  0  0  0  0
  138.0023   70.5206  222.8728 H   0  0  0  0  0  0  0  0  0  0  0  0
  139.5015   69.7778  222.0844 H   0  0  0  0  0  0  0  0  0  0  0  0
  138.0567   68.7542  224.1171 H   0  0  0  0  0  0  0  0  0  0  0  0
  139.8056   68.3962  223.5994 H   0  0  0  0  0  0  0  0  0  0  0  0
  138.6878   67.7344  226.2331 H   0  0  0  0  0  0  0  0  0  0  0  0
  139.5136   68.2346  228.5164 H   0  0  0  0  0  0  0  0  0  0  0  0
  140.8936   70.2899  228.8343 H   0  0  0  0  0  0  0  0  0  0  0  0
  141.4309   71.7897  226.9528 H   0  0  0  0  0  0  0  0  0  0  0  0
  140.6172   72.5581  224.8162 H   0  0  0  0  0  0  0  0  0  0  0  0
  141.7296   71.3105  224.1117 H   0  0  0  0  0  0  0  0  0  0  0  0
  138.8384   77.4870  220.5856 H   0  0  0  0  0  0  0  0  0  0  0  0
  137.8537   76.0805  220.9391 H   0  0  0  0  0  0  0  0  0  0  0  0
  137.3017   77.8478  222.6418 H   0  0  0  0  0  0  0  0  0  0  0  0
  138.2042   76.6154  223.5093 H   0  0  0  0  0  0  0  0  0  0  0  0
  137.9474   79.7308  223.7732 H   0  0  0  0  0  0  0  0  0  0  0  0
  139.7160   81.4609  224.1834 H   0  0  0  0  0  0  0  0  0  0  0  0
  142.0489   80.9852  223.5627 H   0  0  0  0  0  0  0  0  0  0  0  0
  142.7207   78.8305  222.5277 H   0  0  0  0  0  0  0  0  0  0  0  0
  141.5930   76.9496  221.0076 H   0  0  0  0  0  0  0  0  0  0  0  0
  141.6749   76.1986  222.6557 H   0  0  0  0  0  0  0  0  0  0  0  0
  1  2  1  0
  2  3  2  0
  2  4  2  0
  2  5  1  0
  5  6  1  0
  6  7  1  0
  7  8  1  0
  8  9  1  0
  9 10  2  0
 10 11  1  0
 11 12  1  0
 12 13  1  0
 13 14  1  0
 14 15  2  0
 15 16  1  0
 16 17  2  0
 17 18  1  0
 18 19  2  0
 19 20  1  0
 10 21  1  0
 21 22  2  0
 22 23  1  0
 23 24  1  0
 24 25  1  0
 25 26  1  0
 26 27  2  0
 27 28  1  0
 28 29  2  0
 29 30  1  0
 30 31  2  0
 31 32  1  0
 22  8  1  0
 32 23  1  0
 20 11  1  0
 31 26  1  0
 19 14  1  0
  1 33  1  0
  1 34  1  0
  5 35  1  0
  5 36  1  0
  6 37  1  0
  6 38  1  0
  7 39  1  0
  7 40  1  0
  9 41  1  0
 12 42  1  0
 12 43  1  0
 13 44  1  0
 13 45  1  0
 15 46  1  0
 16 47  1  0
 17 48  1  0
 18 49  1  0
 20 50  1  0
 20 51  1  0
 24 52  1  0
 24 53  1  0
 25 54  1  0
 25 55  1  0
 27 56  1  0
 28 57  1  0
 29 58  1  0
 30 59  1  0
 32 60  1  0
 32 61  1  0
M  END
>  <smiles>  (13) 
NS(=O)(=O)CCCn1cc(N2CCc3ccccc3C2)nc1N1CCc2ccccc2C1

>  <score_type>  (13) 
oracle

>  <origin>  (13) 
autodockgpu

>  <m_score__min__energy>  (13) 
-9.8200000000000003

>  <m_primary>  (13) 
energy

>  <rmsd>  (13) 
3.212997724744204

>  <m_score__min__rmsd>  (13) 
3.212997724744204

>  <meeko>  (13) 
{"free_energy": -8.89, "intermolecular_energy": -10.98, "internal_energy": -1.3, "cluster_size": 9, "cluster_id": 2, "rank_in_cluster": 2}

>  <energy>  (13) 
-9.27

>  <cluster_rmsd>  (13) 
1.82

>  <cluster>  (13) 
1

$$$$

     RDKit          3D

 61 65  0  0  0  0  0  0  0  0999 V2000
  145.9430   73.2540  218.8080 N   0  0  0  0  0  0  0  0  0  0  0  0
  145.2040   73.5970  220.3110 S   0  0  0  0  0  0  0  0  0  0  0  0
  144.3900   74.8500  220.1670 O   0  0  0  0  0  0  0  0  0  0  0  0
  146.3280   73.8080  221.3160 O   0  0  0  0  0  0  0  0  0  0  0  0
  144.2360   72.2460  220.9420 C   0  0  0  0  0  0  0  0  0  0  0  0
  143.1860   71.7600  219.9970 C   0  0  0  0  0  0  0  0  0  0  0  0
  141.8280   71.5560  220.7030 C   0  0  0  0  0  0  0  0  0  0  0  0
  141.3600   72.8190  221.2300 N   0  0  0  0  0  0  0  0  0  0  0  0
  141.7060   74.0090  220.6740 C   0  0  0  0  0  0  0  0  0  0  0  0
  141.0530   74.9800  221.3980 C   0  0  0  0  0  0  0  0  0  0  0  0
  141.1140   76.3940  221.2140 N   0  0  0  0  0  0  0  0  0  0  0  0
  141.6410   76.9050  219.9710 C   0  0  0  0  0  0  0  0  0  0  0  0
  141.7560   78.3740  219.8630 C   0  0  0  0  0  0  0  0  0  0  0  0
  141.6790   79.1490  221.0980 C   0  0  0  0  0  0  0  0  0  0  0  0
  142.1520   80.4520  221.1280 C   0  0  0  0  0  0  0  0  0  0  0  0
  142.1000   81.2240  222.2580 C   0  0  0  0  0  0  0  0  0  0  0  0
  141.5450   80.6360  223.3880 C   0  0  0  0  0  0  0  0  0  0  0  0
  141.0640   79.3410  223.3950 C   0  0  0  0  0  0  0  0  0  0  0  0
  141.1350   78.5910  222.2300 C   0  0  0  0  0  0  0  0  0  0  0  0
  140.6120   77.2120  222.2970 C   0  0  0  0  0  0  0  0  0  0  0  0
  140.3530   74.3380  222.3450 N   0  0  0  0  0  0  0  0  0  0  0  0
  140.5360   73.0070  222.2510 C   0  0  0  0  0  0  0  0  0  0  0  0
  139.9650   72.0770  223.1400 N   0  0  0  0  0  0  0  0  0  0  0  0
  138.7700   71.3520  222.6650 C   0  0  0  0  0  0  0  0  0  0  0  0
  139.2720   69.9080  222.5020 C   0  0  0  0  0  0  0  0  0  0  0  0
  139.5440   69.4560  223.9170 C   0  0  0  0  0  0  0  0  0  0  0  0
  139.2240   68.1620  224.2040 C   0  0  0  0  0  0  0  0  0  0  0  0
  139.4540   67.7160  225.4940 C   0  0  0  0  0  0  0  0  0  0  0  0
  139.9900   68.5820  226.4250 C   0  0  0  0  0  0  0  0  0  0  0  0
  140.3150   69.9000  226.1310 C   0  0  0  0  0  0  0  0  0  0  0  0
  140.0820   70.3490  224.8330 C   0  0  0  0  0  0  0  0  0  0  0  0
  140.4090   71.7580  224.4670 C   0  0  0  0  0  0  0  0  0  0  0  0
  145.2800   72.8850  218.0880 H   0  0  0  0  0  0  0  0  0  0  0  0
  146.4740   74.0770  218.4210 H   0  0  0  0  0  0  0  0  0  0  0  0
  144.9140   71.4094  221.1664 H   0  0  0  0  0  0  0  0  0  0  0  0
  143.7136   72.6178  221.8358 H   0  0  0  0  0  0  0  0  0  0  0  0
  143.0613   72.4997  219.1925 H   0  0  0  0  0  0  0  0  0  0  0  0
  143.5112   70.7891  219.5950 H   0  0  0  0  0  0  0  0  0  0  0  0
  141.0951   71.1665  219.9811 H   0  0  0  0  0  0  0  0  0  0  0  0
  141.9496   70.8387  221.5281 H   0  0  0  0  0  0  0  0  0  0  0  0
  142.3754   74.1655  219.8153 H   0  0  0  0  0  0  0  0  0  0  0  0
  142.6458   76.4792  219.8328 H   0  0  0  0  0  0  0  0  0  0  0  0
  140.9129   76.6106  219.2008 H   0  0  0  0  0  0  0  0  0  0  0  0
  142.7268   78.5950  219.3954 H   0  0  0  0  0  0  0  0  0  0  0  0
  140.8734   78.6822  219.2834 H   0  0  0  0  0  0  0  0  0  0  0  0
  142.5842   80.8808  220.2119 H   0  0  0  0  0  0  0  0  0  0  0  0
  142.4783   82.2568  222.2704 H   0  0  0  0  0  0  0  0  0  0  0  0
  141.4862   81.2257  224.3147 H   0  0  0  0  0  0  0  0  0  0  0  0
  140.6313   78.9110  224.3104 H   0  0  0  0  0  0  0  0  0  0  0  0
  140.9159   76.7620  223.2536 H   0  0  0  0  0  0  0  0  0  0  0  0
  139.5162   77.2572  222.2119 H   0  0  0  0  0  0  0  0  0  0  0  0
  137.9573   71.4053  223.4044 H   0  0  0  0  0  0  0  0  0  0  0  0
  138.3545   71.7701  221.7362 H   0  0  0  0  0  0  0  0  0  0  0  0
  138.5037   69.2775  222.0306 H   0  0  0  0  0  0  0  0  0  0  0  0
  140.1598   69.8379  221.8563 H   0  0  0  0  0  0  0  0  0  0  0  0
  138.7985   67.4967  223.4382 H   0  0  0  0  0  0  0  0  0  0  0  0
  139.2116   66.6804  225.7745 H   0  0  0  0  0  0  0  0  0  0  0  0
  140.1679   68.2120  227.4455 H   0  0  0  0  0  0  0  0  0  0  0  0
  140.7413   70.5657  226.8960 H   0  0  0  0  0  0  0  0  0  0  0  0
  139.9167   72.4353  225.1804 H   0  0  0  0  0  0  0  0  0  0  0  0
  141.5020   71.8771  224.5015 H   0  0  0  0  0  0  0  0  0  0  0  0
  1  2  1  0
  2  3  2  0
  2  4  2  0
  2  5  1  0
  5  6  1  0
  6  7  1  0
  7  8  1  0
  8  9  1  0
  9 10  2  0
 10 11  1  0
 11 12  1  0
 12 13  1  0
 13 14  1  0
 14 15  2  0
 15 16  1  0
 16 17  2  0
 17 18  1  0
 18 19  2  0
 19 20  1  0
 10 21  1  0
 21 22  2  0
 22 23  1  0
 23 24  1  0
 24 25  1  0
 25 26  1  0
 26 27  2  0
 27 28  1  0
 28 29  2  0
 29 30  1  0
 30 31  2  0
 31 32  1  0
 22  8  1  0
 32 23  1  0
 20 11  1  0
 31 26  1  0
 19 14  1  0
  1 33  1  0
  1 34  1  0
  5 35  1  0
  5 36  1  0
  6 37  1  0
  6 38  1  0
  7 39  1  0
  7 40  1  0
  9 41  1  0
 12 42  1  0
 12 43  1  0
 13 44  1  0
 13 45  1  0
 15 46  1  0
 16 47  1  0
 17 48  1  0
 18 49  1  0
 20 50  1  0
 20 51  1  0
 24 52  1  0
 24 53  1  0
 25 54  1  0
 25 55  1  0
 27 56  1  0
 28 57  1  0
 29 58  1  0
 30 59  1  0
 32 60  1  0
 32 61  1  0
M  END
>  <smiles>  (14) 
NS(=O)(=O)CCCn1cc(N2CCc3ccccc3C2)nc1N1CCc2ccccc2C1

>  <score_type>  (14) 
oracle

>  <origin>  (14) 
autodockgpu

>  <m_score__min__energy>  (14) 
-9.8200000000000003

>  <m_primary>  (14) 
energy

>  <rmsd>  (14) 
8.931941731676789

>  <m_score__min__rmsd>  (14) 
8.931941731676789

>  <meeko>  (14) 
{"free_energy": -9.82, "intermolecular_energy": -11.91, "internal_energy": -1.21, "cluster_size": 35, "cluster_id": 1, "rank_in_cluster": 1}

>  <energy>  (14) 
-9.24

>  <cluster_rmsd>  (14) 
1.74

>  <cluster>  (14) 
1

$$$$

     RDKit          3D

 61 65  0  0  0  0  0  0  0  0999 V2000
  142.9720   78.3590  216.8470 N   0  0  0  0  0  0  0  0  0  0  0  0
  142.1530   77.8520  218.2590 S   0  0  0  0  0  0  0  0  0  0  0  0
  142.0180   79.0300  219.1810 O   0  0  0  0  0  0  0  0  0  0  0  0
  143.0110   76.7720  218.9020 O   0  0  0  0  0  0  0  0  0  0  0  0
  140.5830   77.0890  217.9240 C   0  0  0  0  0  0  0  0  0  0  0  0
  140.5230   75.6410  218.2860 C   0  0  0  0  0  0  0  0  0  0  0  0
  139.1730   75.2640  218.9330 C   0  0  0  0  0  0  0  0  0  0  0  0
  139.3980   74.7680  220.2730 N   0  0  0  0  0  0  0  0  0  0  0  0
  139.1950   73.4660  220.6070 C   0  0  0  0  0  0  0  0  0  0  0  0
  139.5470   73.3460  221.9320 C   0  0  0  0  0  0  0  0  0  0  0  0
  139.4880   72.1770  222.7470 N   0  0  0  0  0  0  0  0  0  0  0  0
  138.2980   71.3630  222.6990 C   0  0  0  0  0  0  0  0  0  0  0  0
  138.2550   70.2090  223.6210 C   0  0  0  0  0  0  0  0  0  0  0  0
  139.2140   70.1900  224.7220 C   0  0  0  0  0  0  0  0  0  0  0  0
  138.9920   69.3710  225.8200 C   0  0  0  0  0  0  0  0  0  0  0  0
  139.8600   69.3120  226.8770 C   0  0  0  0  0  0  0  0  0  0  0  0
  140.9880   70.1200  226.8000 C   0  0  0  0  0  0  0  0  0  0  0  0
  141.2410   70.9480  225.7250 C   0  0  0  0  0  0  0  0  0  0  0  0
  140.3370   70.9790  224.6730 C   0  0  0  0  0  0  0  0  0  0  0  0
  140.6550   71.8860  223.5520 C   0  0  0  0  0  0  0  0  0  0  0  0
  139.9420   74.5650  222.3290 N   0  0  0  0  0  0  0  0  0  0  0  0
  139.8530   75.4470  221.3160 C   0  0  0  0  0  0  0  0  0  0  0  0
  140.1560   76.8160  221.4450 N   0  0  0  0  0  0  0  0  0  0  0  0
  139.0110   77.7480  221.4880 C   0  0  0  0  0  0  0  0  0  0  0  0
  139.0340   78.2720  222.9340 C   0  0  0  0  0  0  0  0  0  0  0  0
  140.2950   79.1000  223.0000 C   0  0  0  0  0  0  0  0  0  0  0  0
  140.2210   80.2460  223.7350 C   0  0  0  0  0  0  0  0  0  0  0  0
  141.3570   81.0320  223.8120 C   0  0  0  0  0  0  0  0  0  0  0  0
  142.5020   80.6340  223.1550 C   0  0  0  0  0  0  0  0  0  0  0  0
  142.5770   79.4660  222.4070 C   0  0  0  0  0  0  0  0  0  0  0  0
  141.4320   78.6760  222.3280 C   0  0  0  0  0  0  0  0  0  0  0  0
  141.4580   77.4140  221.5330 C   0  0  0  0  0  0  0  0  0  0  0  0
  142.9990   79.3980  216.7260 H   0  0  0  0  0  0  0  0  0  0  0  0
  143.9450   77.9630  216.7790 H   0  0  0  0  0  0  0  0  0  0  0  0
  139.8100   77.6215  218.4975 H   0  0  0  0  0  0  0  0  0  0  0  0
  140.4228   77.1529  216.8376 H   0  0  0  0  0  0  0  0  0  0  0  0
  140.6603   75.0407  217.3745 H   0  0  0  0  0  0  0  0  0  0  0  0
  141.3193   75.4396  219.0176 H   0  0  0  0  0  0  0  0  0  0  0  0
  138.5267   76.1531  218.9756 H   0  0  0  0  0  0  0  0  0  0  0  0
  138.6857   74.4825  218.3316 H   0  0  0  0  0  0  0  0  0  0  0  0
  138.8232   72.6669  219.9488 H   0  0  0  0  0  0  0  0  0  0  0  0
  137.4398   72.0103  222.9325 H   0  0  0  0  0  0  0  0  0  0  0  0
  138.2798   70.9305  221.6877 H   0  0  0  0  0  0  0  0  0  0  0  0
  137.2474   70.1761  224.0610 H   0  0  0  0  0  0  0  0  0  0  0  0
  138.5251   69.3429  222.9989 H   0  0  0  0  0  0  0  0  0  0  0  0
  138.0864   68.7470  225.8419 H   0  0  0  0  0  0  0  0  0  0  0  0
  139.6742   68.6589  227.7424 H   0  0  0  0  0  0  0  0  0  0  0  0
  141.7093   70.0988  227.6303 H   0  0  0  0  0  0  0  0  0  0  0  0
  142.1455   71.5737  225.7027 H   0  0  0  0  0  0  0  0  0  0  0  0
  141.0511   72.8284  223.9581 H   0  0  0  0  0  0  0  0  0  0  0  0
  141.3970   71.3885  222.9102 H   0  0  0  0  0  0  0  0  0  0  0  0
  139.1448   78.5698  220.7691 H   0  0  0  0  0  0  0  0  0  0  0  0
  138.0574   77.2704  221.2188 H   0  0  0  0  0  0  0  0  0  0  0  0
  138.1482   78.8908  223.1402 H   0  0  0  0  0  0  0  0  0  0  0  0
  139.0183   77.4627  223.6789 H   0  0  0  0  0  0  0  0  0  0  0  0
  139.2919   80.5351  224.2481 H   0  0  0  0  0  0  0  0  0  0  0  0
  141.3468   81.9664  224.3924 H   0  0  0  0  0  0  0  0  0  0  0  0
  143.3965   81.2702  223.2264 H   0  0  0  0  0  0  0  0  0  0  0  0
  143.5065   79.1753  221.8956 H   0  0  0  0  0  0  0  0  0  0  0  0
  141.8163   77.6394  220.5177 H   0  0  0  0  0  0  0  0  0  0  0  0
  142.1286   76.7036  222.0386 H   0  0  0  0  0  0  0  0  0  0  0  0
  1  2  1  0
  2  3  2  0
  2  4  2  0
  2  5  1  0
  5  6  1  0
  6  7  1  0
  7  8  1  0
  8  9  1  0
  9 10  2  0
 10 11  1  0
 11 12  1  0
 12 13  1  0
 13 14  1  0
 14 15  2  0
 15 16  1  0
 16 17  2  0
 17 18  1  0
 18 19  2  0
 19 20  1  0
 10 21  1  0
 21 22  2  0
 22 23  1  0
 23 24  1  0
 24 25  1  0
 25 26  1  0
 26 27  2  0
 27 28  1  0
 28 29  2  0
 29 30  1  0
 30 31  2  0
 31 32  1  0
 22  8  1  0
 32 23  1  0
 20 11  1  0
 31 26  1  0
 19 14  1  0
  1 33  1  0
  1 34  1  0
  5 35  1  0
  5 36  1  0
  6 37  1  0
  6 38  1  0
  7 39  1  0
  7 40  1  0
  9 41  1  0
 12 42  1  0
 12 43  1  0
 13 44  1  0
 13 45  1  0
 15 46  1  0
 16 47  1  0
 17 48  1  0
 18 49  1  0
 20 50  1  0
 20 51  1  0
 24 52  1  0
 24 53  1  0
 25 54  1  0
 25 55  1  0
 27 56  1  0
 28 57  1  0
 29 58  1  0
 30 59  1  0
 32 60  1  0
 32 61  1  0
M  END
>  <smiles>  (15) 
NS(=O)(=O)CCCn1cc(N2CCc3ccccc3C2)nc1N1CCc2ccccc2C1

>  <score_type>  (15) 
oracle

>  <origin>  (15) 
autodockgpu

>  <m_score__min__energy>  (15) 
-9.8200000000000003

>  <m_primary>  (15) 
energy

>  <rmsd>  (15) 
3.010638949897377

>  <m_score__min__rmsd>  (15) 
3.010638949897377

>  <meeko>  (15) 
{"free_energy": -8.56, "intermolecular_energy": -10.64, "internal_energy": -1.58, "cluster_size": 9, "cluster_id": 2, "rank_in_cluster": 6}

>  <energy>  (15) 
-9.18

>  <cluster_rmsd>  (15) 
1.6

>  <cluster>  (15) 
1

$$$$

     RDKit          3D

 61 65  0  0  0  0  0  0  0  0999 V2000
  139.5750   74.1650  222.5150 N   0  0  0  0  0  0  0  0  0  0  0  0
  140.3190   74.2260  220.9780 S   0  0  0  0  0  0  0  0  0  0  0  0
  140.2920   72.8500  220.3790 O   0  0  0  0  0  0  0  0  0  0  0  0
  141.7550   74.6780  221.2020 O   0  0  0  0  0  0  0  0  0  0  0  0
  139.5930   75.4350  219.8940 C   0  0  0  0  0  0  0  0  0  0  0  0
  138.2150   75.0870  219.4350 C   0  0  0  0  0  0  0  0  0  0  0  0
  137.1710   76.1200  219.9120 C   0  0  0  0  0  0  0  0  0  0  0  0
  137.0080   76.0190  221.3460 N   0  0  0  0  0  0  0  0  0  0  0  0
  136.1040   75.1800  221.9150 C   0  0  0  0  0  0  0  0  0  0  0  0
  136.2540   75.3120  223.2760 C   0  0  0  0  0  0  0  0  0  0  0  0
  135.5150   74.6530  224.3030 N   0  0  0  0  0  0  0  0  0  0  0  0
  135.3270   73.2260  224.2090 C   0  0  0  0  0  0  0  0  0  0  0  0
  134.4870   72.6050  225.2540 C   0  0  0  0  0  0  0  0  0  0  0  0
  133.6470   73.4890  226.0570 C   0  0  0  0  0  0  0  0  0  0  0  0
  132.5760   72.9680  226.7680 C   0  0  0  0  0  0  0  0  0  0  0  0
  131.7590   73.7510  227.5390 C   0  0  0  0  0  0  0  0  0  0  0  0
  132.0540   75.1090  227.5770 C   0  0  0  0  0  0  0  0  0  0  0  0
  133.1110   75.6620  226.8820 C   0  0  0  0  0  0  0  0  0  0  0  0
  133.9160   74.8350  226.1120 C   0  0  0  0  0  0  0  0  0  0  0  0
  135.0270   75.4810  225.3850 C   0  0  0  0  0  0  0  0  0  0  0  0
  137.2300   76.2130  223.4610 N   0  0  0  0  0  0  0  0  0  0  0  0
  137.7000   76.6550  222.2800 C   0  0  0  0  0  0  0  0  0  0  0  0
  138.6980   77.6410  222.1570 N   0  0  0  0  0  0  0  0  0  0  0  0
  138.2460   79.0030  221.8100 C   0  0  0  0  0  0  0  0  0  0  0  0
  138.5230   79.8070  223.0920 C   0  0  0  0  0  0  0  0  0  0  0  0
  140.0300   79.8380  223.1810 C   0  0  0  0  0  0  0  0  0  0  0  0
  140.5790   81.0040  223.6290 C   0  0  0  0  0  0  0  0  0  0  0  0
  141.9580   81.0700  223.7170 C   0  0  0  0  0  0  0  0  0  0  0  0
  142.7140   79.9730  223.3560 C   0  0  0  0  0  0  0  0  0  0  0  0
  142.1540   78.7870  222.9010 C   0  0  0  0  0  0  0  0  0  0  0  0
  140.7650   78.7210  222.8110 C   0  0  0  0  0  0  0  0  0  0  0  0
  140.1130   77.4710  222.3220 C   0  0  0  0  0  0  0  0  0  0  0  0
  138.8560   74.9110  222.6650 H   0  0  0  0  0  0  0  0  0  0  0  0
  139.1630   73.2200  222.7280 H   0  0  0  0  0  0  0  0  0  0  0  0
  139.5479   76.3958  220.4277 H   0  0  0  0  0  0  0  0  0  0  0  0
  140.2267   75.4798  218.9960 H   0  0  0  0  0  0  0  0  0  0  0  0
  138.2045   75.0525  218.3356 H   0  0  0  0  0  0  0  0  0  0  0  0
  137.9490   74.1101  219.8650 H   0  0  0  0  0  0  0  0  0  0  0  0
  137.5134   77.1328  219.6530 H   0  0  0  0  0  0  0  0  0  0  0  0
  136.2078   75.9197  219.4200 H   0  0  0  0  0  0  0  0  0  0  0  0
  135.3927   74.5246  221.3911 H   0  0  0  0  0  0  0  0  0  0  0  0
  134.8621   73.0129  223.2351 H   0  0  0  0  0  0  0  0  0  0  0  0
  136.3281   72.7895  224.3404 H   0  0  0  0  0  0  0  0  0  0  0  0
  133.8236   71.8819  224.7570 H   0  0  0  0  0  0  0  0  0  0  0  0
  135.2027   72.1728  225.9688 H   0  0  0  0  0  0  0  0  0  0  0  0
  132.3760   71.8879  226.7105 H   0  0  0  0  0  0  0  0  0  0  0  0
  130.9127   73.3272  228.0995 H   0  0  0  0  0  0  0  0  0  0  0  0
  131.4194   75.7699  228.1856 H   0  0  0  0  0  0  0  0  0  0  0  0
  133.3119   76.7421  226.9379 H   0  0  0  0  0  0  0  0  0  0  0  0
  134.6733   76.4365  224.9704 H   0  0  0  0  0  0  0  0  0  0  0  0
  135.8532   75.6391  226.0938 H   0  0  0  0  0  0  0  0  0  0  0  0
  138.8201   79.4043  220.9618 H   0  0  0  0  0  0  0  0  0  0  0  0
  137.1915   79.0397  221.4990 H   0  0  0  0  0  0  0  0  0  0  0  0
  138.1144   80.8251  223.0117 H   0  0  0  0  0  0  0  0  0  0  0  0
  138.0540   79.3622  223.9820 H   0  0  0  0  0  0  0  0  0  0  0  0
  139.9482   81.8602  223.9099 H   0  0  0  0  0  0  0  0  0  0  0  0
  142.4478   81.9889  224.0716 H   0  0  0  0  0  0  0  0  0  0  0  0
  143.8092   80.0416  223.4323 H   0  0  0  0  0  0  0  0  0  0  0  0
  142.7843   77.9299  222.6215 H   0  0  0  0  0  0  0  0  0  0  0  0
  140.5543   77.1941  221.3532 H   0  0  0  0  0  0  0  0  0  0  0  0
  140.2790   76.6820  223.0703 H   0  0  0  0  0  0  0  0  0  0  0  0
  1  2  1  0
  2  3  2  0
  2  4  2  0
  2  5  1  0
  5  6  1  0
  6  7  1  0
  7  8  1  0
  8  9  1  0
  9 10  2  0
 10 11  1  0
 11 12  1  0
 12 13  1  0
 13 14  1  0
 14 15  2  0
 15 16  1  0
 16 17  2  0
 17 18  1  0
 18 19  2  0
 19 20  1  0
 10 21  1  0
 21 22  2  0
 22 23  1  0
 23 24  1  0
 24 25  1  0
 25 26  1  0
 26 27  2  0
 27 28  1  0
 28 29  2  0
 29 30  1  0
 30 31  2  0
 31 32  1  0
 22  8  1  0
 32 23  1  0
 20 11  1  0
 31 26  1  0
 19 14  1  0
  1 33  1  0
  1 34  1  0
  5 35  1  0
  5 36  1  0
  6 37  1  0
  6 38  1  0
  7 39  1  0
  7 40  1  0
  9 41  1  0
 12 42  1  0
 12 43  1  0
 13 44  1  0
 13 45  1  0
 15 46  1  0
 16 47  1  0
 17 48  1  0
 18 49  1  0
 20 50  1  0
 20 51  1  0
 24 52  1  0
 24 53  1  0
 25 54  1  0
 25 55  1  0
 27 56  1  0
 28 57  1  0
 29 58  1  0
 30 59  1  0
 32 60  1  0
 32 61  1  0
M  END
>  <smiles>  (16) 
NS(=O)(=O)CCCn1cc(N2CCc3ccccc3C2)nc1N1CCc2ccccc2C1

>  <score_type>  (16) 
oracle

>  <origin>  (16) 
autodockgpu

>  <m_score__min__energy>  (16) 
-9.8200000000000003

>  <m_primary>  (16) 
energy

>  <rmsd>  (16) 
6.632142628196317

>  <m_score__min__rmsd>  (16) 
6.632142628196317

>  <meeko>  (16) 
{"free_energy": -7.67, "intermolecular_energy": -9.75, "internal_energy": -2.06, "cluster_size": 2, "cluster_id": 5, "rank_in_cluster": 2}

>  <energy>  (16) 
-9.17

>  <cluster_rmsd>  (16) 
1.01

>  <cluster>  (16) 
1

$$$$

     RDKit          3D

 61 65  0  0  0  0  0  0  0  0999 V2000
  137.4540   75.2980  222.8020 N   0  0  0  0  0  0  0  0  0  0  0  0
  137.2320   76.9160  222.2980 S   0  0  0  0  0  0  0  0  0  0  0  0
  138.3040   77.7610  222.9230 O   0  0  0  0  0  0  0  0  0  0  0  0
  135.8600   77.3470  222.7960 O   0  0  0  0  0  0  0  0  0  0  0  0
  137.1870   77.1010  220.5300 C   0  0  0  0  0  0  0  0  0  0  0  0
  137.2880   75.8110  219.7840 C   0  0  0  0  0  0  0  0  0  0  0  0
  138.7560   75.4220  219.5030 C   0  0  0  0  0  0  0  0  0  0  0  0
  139.2930   74.7050  220.6390 N   0  0  0  0  0  0  0  0  0  0  0  0
  138.8790   73.4520  220.9660 C   0  0  0  0  0  0  0  0  0  0  0  0
  139.6260   73.0700  222.0570 C   0  0  0  0  0  0  0  0  0  0  0  0
  139.5450   71.8440  222.7830 N   0  0  0  0  0  0  0  0  0  0  0  0
  138.4350   70.9600  222.5210 C   0  0  0  0  0  0  0  0  0  0  0  0
  138.3550   69.7440  223.3550 C   0  0  0  0  0  0  0  0  0  0  0  0
  139.1570   69.7080  224.5740 C   0  0  0  0  0  0  0  0  0  0  0  0
  138.8520   68.8000  225.5770 C   0  0  0  0  0  0  0  0  0  0  0  0
  139.5750   68.7220  226.7390 C   0  0  0  0  0  0  0  0  0  0  0  0
  140.6400   69.6040  226.8680 C   0  0  0  0  0  0  0  0  0  0  0  0
  140.9730   70.5210  225.8910 C   0  0  0  0  0  0  0  0  0  0  0  0
  140.2170   70.5690  224.7280 C   0  0  0  0  0  0  0  0  0  0  0  0
  140.6130   71.5730  223.7210 C   0  0  0  0  0  0  0  0  0  0  0  0
  140.4440   74.0970  222.3320 N   0  0  0  0  0  0  0  0  0  0  0  0
  140.2470   75.1080  221.4660 C   0  0  0  0  0  0  0  0  0  0  0  0
  140.9290   76.3370  221.5340 N   0  0  0  0  0  0  0  0  0  0  0  0
  141.5720   76.8090  220.2910 C   0  0  0  0  0  0  0  0  0  0  0  0
  140.7330   78.0380  219.9020 C   0  0  0  0  0  0  0  0  0  0  0  0
  141.0420   79.0450  220.9830 C   0  0  0  0  0  0  0  0  0  0  0  0
  141.1490   80.3440  220.5790 C   0  0  0  0  0  0  0  0  0  0  0  0
  141.4380   81.2930  221.5430 C   0  0  0  0  0  0  0  0  0  0  0  0
  141.6030   80.8980  222.8550 C   0  0  0  0  0  0  0  0  0  0  0  0
  141.4930   79.5760  223.2660 C   0  0  0  0  0  0  0  0  0  0  0  0
  141.2030   78.6210  222.2940 C   0  0  0  0  0  0  0  0  0  0  0  0
  141.0800   77.1850  222.6820 C   0  0  0  0  0  0  0  0  0  0  0  0
  138.4560   74.9930  222.8100 H   0  0  0  0  0  0  0  0  0  0  0  0
  137.0100   75.1000  223.7360 H   0  0  0  0  0  0  0  0  0  0  0  0
  136.2383   77.5859  220.2565 H   0  0  0  0  0  0  0  0  0  0  0  0
  138.0646   77.7019  220.2493 H   0  0  0  0  0  0  0  0  0  0  0  0
  136.8177   75.0165  220.3820 H   0  0  0  0  0  0  0  0  0  0  0  0
  136.7771   75.9349  218.8178 H   0  0  0  0  0  0  0  0  0  0  0  0
  138.8005   74.7804  218.6106 H   0  0  0  0  0  0  0  0  0  0  0  0
  139.3492   76.3323  219.3314 H   0  0  0  0  0  0  0  0  0  0  0  0
  138.1017   72.8611  220.4594 H   0  0  0  0  0  0  0  0  0  0  0  0
  137.5079   71.5322  222.6732 H   0  0  0  0  0  0  0  0  0  0  0  0
  138.5835   70.6003  221.4921 H   0  0  0  0  0  0  0  0  0  0  0  0
  137.3029   69.6150  223.6490 H   0  0  0  0  0  0  0  0  0  0  0  0
  138.7692   68.9440  222.7238 H   0  0  0  0  0  0  0  0  0  0  0  0
  138.0002   68.1186  225.4351 H   0  0  0  0  0  0  0  0  0  0  0  0
  139.3246   67.9982  227.5285 H   0  0  0  0  0  0  0  0  0  0  0  0
  141.2435   69.5706  227.7870 H   0  0  0  0  0  0  0  0  0  0  0  0
  141.8244   71.2031  226.0322 H   0  0  0  0  0  0  0  0  0  0  0  0
  140.8802   72.5076  224.2360 H   0  0  0  0  0  0  0  0  0  0  0  0
  141.4691   71.1730  223.1579 H   0  0  0  0  0  0  0  0  0  0  0  0
  142.6204   77.0889  220.4716 H   0  0  0  0  0  0  0  0  0  0  0  0
  141.6011   76.0414  219.5036 H   0  0  0  0  0  0  0  0  0  0  0  0
  141.0321   78.4195  218.9146 H   0  0  0  0  0  0  0  0  0  0  0  0
  139.6591   77.8121  219.8269 H   0  0  0  0  0  0  0  0  0  0  0  0
  141.0104   80.6263  219.5249 H   0  0  0  0  0  0  0  0  0  0  0  0
  141.5355   82.3532  221.2663 H   0  0  0  0  0  0  0  0  0  0  0  0
  141.8320   81.6651  223.6094 H   0  0  0  0  0  0  0  0  0  0  0  0
  141.6298   79.2933  224.3202 H   0  0  0  0  0  0  0  0  0  0  0  0
  141.9851   76.8850  223.2305 H   0  0  0  0  0  0  0  0  0  0  0  0
  140.1840   77.0747  223.3106 H   0  0  0  0  0  0  0  0  0  0  0  0
  1  2  1  0
  2  3  2  0
  2  4  2  0
  2  5  1  0
  5  6  1  0
  6  7  1  0
  7  8  1  0
  8  9  1  0
  9 10  2  0
 10 11  1  0
 11 12  1  0
 12 13  1  0
 13 14  1  0
 14 15  2  0
 15 16  1  0
 16 17  2  0
 17 18  1  0
 18 19  2  0
 19 20  1  0
 10 21  1  0
 21 22  2  0
 22 23  1  0
 23 24  1  0
 24 25  1  0
 25 26  1  0
 26 27  2  0
 27 28  1  0
 28 29  2  0
 29 30  1  0
 30 31  2  0
 31 32  1  0
 22  8  1  0
 32 23  1  0
 20 11  1  0
 31 26  1  0
 19 14  1  0
  1 33  1  0
  1 34  1  0
  5 35  1  0
  5 36  1  0
  6 37  1  0
  6 38  1  0
  7 39  1  0
  7 40  1  0
  9 41  1  0
 12 42  1  0
 12 43  1  0
 13 44  1  0
 13 45  1  0
 15 46  1  0
 16 47  1  0
 17 48  1  0
 18 49  1  0
 20 50  1  0
 20 51  1  0
 24 52  1  0
 24 53  1  0
 25 54  1  0
 25 55  1  0
 27 56  1  0
 28 57  1  0
 29 58  1  0
 30 59  1  0
 32 60  1  0
 32 61  1  0
M  END
>  <smiles>  (17) 
NS(=O)(=O)CCCn1cc(N2CCc3ccccc3C2)nc1N1CCc2ccccc2C1

>  <score_type>  (17) 
oracle

>  <origin>  (17) 
autodockgpu

>  <m_score__min__energy>  (17) 
-9.8200000000000003

>  <m_primary>  (17) 
energy

>  <rmsd>  (17) 
3.489777528907925

>  <m_score__min__rmsd>  (17) 
3.489777528907925

>  <meeko>  (17) 
{"free_energy": -7.84, "intermolecular_energy": -9.92, "internal_energy": -2.33, "cluster_size": 3, "cluster_id": 3, "rank_in_cluster": 3}

>  <energy>  (17) 
-9.15

>  <cluster_rmsd>  (17) 
1.29

>  <cluster>  (17) 
1

$$$$

     RDKit          3D

 61 65  0  0  0  0  0  0  0  0999 V2000
  144.2520   72.1420  220.8590 N   0  0  0  0  0  0  0  0  0  0  0  0
  144.9440   73.3740  219.8970 S   0  0  0  0  0  0  0  0  0  0  0  0
  146.3220   72.9420  219.4880 O   0  0  0  0  0  0  0  0  0  0  0  0
  145.0160   74.6220  220.7650 O   0  0  0  0  0  0  0  0  0  0  0  0
  143.9430   73.8150  218.4960 C   0  0  0  0  0  0  0  0  0  0  0  0
  142.5310   73.3330  218.5830 C   0  0  0  0  0  0  0  0  0  0  0  0
  141.5740   74.4410  219.0730 C   0  0  0  0  0  0  0  0  0  0  0  0
  141.0320   74.0780  220.3640 N   0  0  0  0  0  0  0  0  0  0  0  0
  140.9610   72.7870  220.7820 C   0  0  0  0  0  0  0  0  0  0  0  0
  140.4400   72.8210  222.0550 C   0  0  0  0  0  0  0  0  0  0  0  0
  140.1540   71.7150  222.9100 N   0  0  0  0  0  0  0  0  0  0  0  0
  139.0590   70.8410  222.5620 C   0  0  0  0  0  0  0  0  0  0  0  0
  138.7540   69.7590  223.5210 C   0  0  0  0  0  0  0  0  0  0  0  0
  139.3140   69.8710  224.8640 C   0  0  0  0  0  0  0  0  0  0  0  0
  138.7750   69.1270  225.9040 C   0  0  0  0  0  0  0  0  0  0  0  0
  139.2650   69.1910  227.1810 C   0  0  0  0  0  0  0  0  0  0  0  0
  140.3400   70.0460  227.3920 C   0  0  0  0  0  0  0  0  0  0  0  0
  140.9020   70.8020  226.3820 C   0  0  0  0  0  0  0  0  0  0  0  0
  140.3770   70.7090  225.1010 C   0  0  0  0  0  0  0  0  0  0  0  0
  141.0120   71.5440  224.0630 C   0  0  0  0  0  0  0  0  0  0  0  0
  140.2250   74.1140  222.3410 N   0  0  0  0  0  0  0  0  0  0  0  0
  140.5850   74.8950  221.3060 C   0  0  0  0  0  0  0  0  0  0  0  0
  140.4310   76.2950  221.2950 N   0  0  0  0  0  0  0  0  0  0  0  0
  139.0480   76.8110  221.3260 C   0  0  0  0  0  0  0  0  0  0  0  0
  138.9430   77.4610  222.7160 C   0  0  0  0  0  0  0  0  0  0  0  0
  139.8690   78.6500  222.6320 C   0  0  0  0  0  0  0  0  0  0  0  0
  139.4490   79.7830  223.2660 C   0  0  0  0  0  0  0  0  0  0  0  0
  140.2710   80.8940  223.2040 C   0  0  0  0  0  0  0  0  0  0  0  0
  141.4640   80.8170  222.5150 C   0  0  0  0  0  0  0  0  0  0  0  0
  141.8900   79.6640  221.8690 C   0  0  0  0  0  0  0  0  0  0  0  0
  141.0620   78.5450  221.9310 C   0  0  0  0  0  0  0  0  0  0  0  0
  141.4710   77.2830  221.2490 C   0  0  0  0  0  0  0  0  0  0  0  0
  143.9450   71.3040  220.3120 H   0  0  0  0  0  0  0  0  0  0  0  0
  144.8790   71.8460  221.6510 H   0  0  0  0  0  0  0  0  0  0  0  0
  143.9297   74.9117  218.4117 H   0  0  0  0  0  0  0  0  0  0  0  0
  144.3922   73.3285  217.6177 H   0  0  0  0  0  0  0  0  0  0  0  0
  142.2073   72.9985  217.5863 H   0  0  0  0  0  0  0  0  0  0  0  0
  142.4966   72.5071  219.3088 H   0  0  0  0  0  0  0  0  0  0  0  0
  142.1256   75.3887  219.1609 H   0  0  0  0  0  0  0  0  0  0  0  0
  140.7519   74.5590  218.3517 H   0  0  0  0  0  0  0  0  0  0  0  0
  141.2604   71.8929  220.2155 H   0  0  0  0  0  0  0  0  0  0  0  0
  138.1561   71.4605  222.4576 H   0  0  0  0  0  0  0  0  0  0  0  0
  139.3715   70.3336  221.6374 H   0  0  0  0  0  0  0  0  0  0  0  0
  137.6600   69.7083  223.6234 H   0  0  0  0  0  0  0  0  0  0  0  0
  139.2287   68.8636  223.0933 H   0  0  0  0  0  0  0  0  0  0  0  0
  137.9239   68.4622  225.6951 H   0  0  0  0  0  0  0  0  0  0  0  0
  138.8301   68.5963  227.9978 H   0  0  0  0  0  0  0  0  0  0  0  0
  140.7607   70.1239  228.4054 H   0  0  0  0  0  0  0  0  0  0  0  0
  141.7527   71.4676  226.5899 H   0  0  0  0  0  0  0  0  0  0  0  0
  141.2361   72.5328  224.4896 H   0  0  0  0  0  0  0  0  0  0  0  0
  141.9310   71.0378  223.7326 H   0  0  0  0  0  0  0  0  0  0  0  0
  138.8867   77.5536  220.5307 H   0  0  0  0  0  0  0  0  0  0  0  0
  138.2931   76.0285  221.1590 H   0  0  0  0  0  0  0  0  0  0  0  0
  137.9111   77.7824  222.9208 H   0  0  0  0  0  0  0  0  0  0  0  0
  139.2124   76.7703  223.5286 H   0  0  0  0  0  0  0  0  0  0  0  0
  138.4916   79.8119  223.8068 H   0  0  0  0  0  0  0  0  0  0  0  0
  139.9761   81.8307  223.6997 H   0  0  0  0  0  0  0  0  0  0  0  0
  142.1065   81.7090  222.4757 H   0  0  0  0  0  0  0  0  0  0  0  0
  142.8471   79.6350  221.3276 H   0  0  0  0  0  0  0  0  0  0  0  0
  141.7053   77.5055  220.1975 H   0  0  0  0  0  0  0  0  0  0  0  0
  142.3510   76.8799  221.7715 H   0  0  0  0  0  0  0  0  0  0  0  0
  1  2  1  0
  2  3  2  0
  2  4  2  0
  2  5  1  0
  5  6  1  0
  6  7  1  0
  7  8  1  0
  8  9  1  0
  9 10  2  0
 10 11  1  0
 11 12  1  0
 12 13  1  0
 13 14  1  0
 14 15  2  0
 15 16  1  0
 16 17  2  0
 17 18  1  0
 18 19  2  0
 19 20  1  0
 10 21  1  0
 21 22  2  0
 22 23  1  0
 23 24  1  0
 24 25  1  0
 25 26  1  0
 26 27  2  0
 27 28  1  0
 28 29  2  0
 29 30  1  0
 30 31  2  0
 31 32  1  0
 22  8  1  0
 32 23  1  0
 20 11  1  0
 31 26  1  0
 19 14  1  0
  1 33  1  0
  1 34  1  0
  5 35  1  0
  5 36  1  0
  6 37  1  0
  6 38  1  0
  7 39  1  0
  7 40  1  0
  9 41  1  0
 12 42  1  0
 12 43  1  0
 13 44  1  0
 13 45  1  0
 15 46  1  0
 16 47  1  0
 17 48  1  0
 18 49  1  0
 20 50  1  0
 20 51  1  0
 24 52  1  0
 24 53  1  0
 25 54  1  0
 25 55  1  0
 27 56  1  0
 28 57  1  0
 29 58  1  0
 30 59  1  0
 32 60  1  0
 32 61  1  0
M  END
>  <smiles>  (18) 
NS(=O)(=O)CCCn1cc(N2CCc3ccccc3C2)nc1N1CCc2ccccc2C1

>  <score_type>  (18) 
oracle

>  <origin>  (18) 
autodockgpu

>  <m_score__min__energy>  (18) 
-9.8200000000000003

>  <m_primary>  (18) 
energy

>  <rmsd>  (18) 
3.7050594418060605

>  <m_score__min__rmsd>  (18) 
3.7050594418060605

>  <meeko>  (18) 
{"free_energy": -9.02, "intermolecular_energy": -11.11, "internal_energy": -1.2, "cluster_size": 35, "cluster_id": 1, "rank_in_cluster": 23}

>  <energy>  (18) 
-9.1

>  <cluster_rmsd>  (18) 
1.67

>  <cluster>  (18) 
1

$$$$

     RDKit          3D

 61 65  0  0  0  0  0  0  0  0999 V2000
  145.9930   73.4250  218.9670 N   0  0  0  0  0  0  0  0  0  0  0  0
  145.0180   73.3710  220.3700 S   0  0  0  0  0  0  0  0  0  0  0  0
  145.8690   73.7220  221.5560 O   0  0  0  0  0  0  0  0  0  0  0  0
  144.5010   71.9450  220.4920 O   0  0  0  0  0  0  0  0  0  0  0  0
  143.5740   74.4030  220.2610 C   0  0  0  0  0  0  0  0  0  0  0  0
  143.0030   74.5030  218.8840 C   0  0  0  0  0  0  0  0  0  0  0  0
  141.4750   74.7230  218.9090 C   0  0  0  0  0  0  0  0  0  0  0  0
  140.9500   74.3340  220.1990 N   0  0  0  0  0  0  0  0  0  0  0  0
  140.8050   73.0320  220.5590 C   0  0  0  0  0  0  0  0  0  0  0  0
  140.3280   73.0370  221.8490 C   0  0  0  0  0  0  0  0  0  0  0  0
  139.9950   71.9120  222.6610 N   0  0  0  0  0  0  0  0  0  0  0  0
  138.7400   71.2390  222.4240 C   0  0  0  0  0  0  0  0  0  0  0  0
  138.4060   70.1310  223.3420 C   0  0  0  0  0  0  0  0  0  0  0  0
  139.1590   70.0400  224.5900 C   0  0  0  0  0  0  0  0  0  0  0  0
  138.6600   69.2910  225.6460 C   0  0  0  0  0  0  0  0  0  0  0  0
  139.3270   69.1700  226.8360 C   0  0  0  0  0  0  0  0  0  0  0  0
  140.5400   69.8390  226.9400 C   0  0  0  0  0  0  0  0  0  0  0  0
  141.0670   70.5930  225.9110 C   0  0  0  0  0  0  0  0  0  0  0  0
  140.3610   70.6920  224.7200 C   0  0  0  0  0  0  0  0  0  0  0  0
  140.9680   71.5160  223.6570 C   0  0  0  0  0  0  0  0  0  0  0  0
  140.2090   74.3260  222.2020 N   0  0  0  0  0  0  0  0  0  0  0  0
  140.5890   75.1320  221.1930 C   0  0  0  0  0  0  0  0  0  0  0  0
  140.5290   76.5370  221.2530 N   0  0  0  0  0  0  0  0  0  0  0  0
  139.1860   77.1410  221.3590 C   0  0  0  0  0  0  0  0  0  0  0  0
  139.1720   77.7280  222.7810 C   0  0  0  0  0  0  0  0  0  0  0  0
  140.1720   78.8560  222.7170 C   0  0  0  0  0  0  0  0  0  0  0  0
  139.8520   79.9810  223.4190 C   0  0  0  0  0  0  0  0  0  0  0  0
  140.7440   81.0390  223.3780 C   0  0  0  0  0  0  0  0  0  0  0  0
  141.9040   80.9170  222.6420 C   0  0  0  0  0  0  0  0  0  0  0  0
  142.2300   79.7710  221.9280 C   0  0  0  0  0  0  0  0  0  0  0  0
  141.3310   78.7080  221.9690 C   0  0  0  0  0  0  0  0  0  0  0  0
  141.6310   77.4560  221.2150 C   0  0  0  0  0  0  0  0  0  0  0  0
  145.5360   73.9010  218.1550 H   0  0  0  0  0  0  0  0  0  0  0  0
  146.9400   73.8480  219.1480 H   0  0  0  0  0  0  0  0  0  0  0  0
  142.8020   73.9897  220.9267 H   0  0  0  0  0  0  0  0  0  0  0  0
  143.8842   75.4174  220.5521 H   0  0  0  0  0  0  0  0  0  0  0  0
  143.4757   75.3490  218.3636 H   0  0  0  0  0  0  0  0  0  0  0  0
  143.2025   73.5552  218.3625 H   0  0  0  0  0  0  0  0  0  0  0  0
  141.2552   75.7858  218.7296 H   0  0  0  0  0  0  0  0  0  0  0  0
  141.0051   74.1122  218.1241 H   0  0  0  0  0  0  0  0  0  0  0  0
  141.0254   72.1489  219.9413 H   0  0  0  0  0  0  0  0  0  0  0  0
  137.9387   71.9888  222.4988 H   0  0  0  0  0  0  0  0  0  0  0  0
  138.8392   70.7763  221.4310 H   0  0  0  0  0  0  0  0  0  0  0  0
  137.3426   70.2301  223.6051 H   0  0  0  0  0  0  0  0  0  0  0  0
  138.6701   69.2182  222.7878 H   0  0  0  0  0  0  0  0  0  0  0  0
  137.6954   68.7767  225.5232 H   0  0  0  0  0  0  0  0  0  0  0  0
  138.9228   68.5734  227.6671 H   0  0  0  0  0  0  0  0  0  0  0  0
  141.1039   69.7648  227.8815 H   0  0  0  0  0  0  0  0  0  0  0  0
  142.0316   71.1075  226.0329 H   0  0  0  0  0  0  0  0  0  0  0  0
  141.4009   72.4197  224.1107 H   0  0  0  0  0  0  0  0  0  0  0  0
  141.7418   70.9140  223.1581 H   0  0  0  0  0  0  0  0  0  0  0  0
  139.0487   77.9306  220.6056 H   0  0  0  0  0  0  0  0  0  0  0  0
  138.3747   76.4191  221.1837 H   0  0  0  0  0  0  0  0  0  0  0  0
  138.1716   78.1058  223.0387 H   0  0  0  0  0  0  0  0  0  0  0  0
  139.4216   76.9826  223.5505 H   0  0  0  0  0  0  0  0  0  0  0  0
  138.9184   80.0453  223.9971 H   0  0  0  0  0  0  0  0  0  0  0  0
  140.5297   81.9678  223.9270 H   0  0  0  0  0  0  0  0  0  0  0  0
  142.6030   81.7661  222.6194 H   0  0  0  0  0  0  0  0  0  0  0  0
  143.1643   79.7054  221.3511 H   0  0  0  0  0  0  0  0  0  0  0  0
  141.8447   77.7134  220.1671 H   0  0  0  0  0  0  0  0  0  0  0  0
  142.4986   76.9711  221.6863 H   0  0  0  0  0  0  0  0  0  0  0  0
  1  2  1  0
  2  3  2  0
  2  4  2  0
  2  5  1  0
  5  6  1  0
  6  7  1  0
  7  8  1  0
  8  9  1  0
  9 10  2  0
 10 11  1  0
 11 12  1  0
 12 13  1  0
 13 14  1  0
 14 15  2  0
 15 16  1  0
 16 17  2  0
 17 18  1  0
 18 19  2  0
 19 20  1  0
 10 21  1  0
 21 22  2  0
 22 23  1  0
 23 24  1  0
 24 25  1  0
 25 26  1  0
 26 27  2  0
 27 28  1  0
 28 29  2  0
 29 30  1  0
 30 31  2  0
 31 32  1  0
 22  8  1  0
 32 23  1  0
 20 11  1  0
 31 26  1  0
 19 14  1  0
  1 33  1  0
  1 34  1  0
  5 35  1  0
  5 36  1  0
  6 37  1  0
  6 38  1  0
  7 39  1  0
  7 40  1  0
  9 41  1  0
 12 42  1  0
 12 43  1  0
 13 44  1  0
 13 45  1  0
 15 46  1  0
 16 47  1  0
 17 48  1  0
 18 49  1  0
 20 50  1  0
 20 51  1  0
 24 52  1  0
 24 53  1  0
 25 54  1  0
 25 55  1  0
 27 56  1  0
 28 57  1  0
 29 58  1  0
 30 59  1  0
 32 60  1  0
 32 61  1  0
M  END
>  <smiles>  (19) 
NS(=O)(=O)CCCn1cc(N2CCc3ccccc3C2)nc1N1CCc2ccccc2C1

>  <score_type>  (19) 
oracle

>  <origin>  (19) 
autodockgpu

>  <m_score__min__energy>  (19) 
-9.8200000000000003

>  <m_primary>  (19) 
energy

>  <rmsd>  (19) 
3.6086043961667458

>  <m_score__min__rmsd>  (19) 
3.6086043961667458

>  <meeko>  (19) 
{"free_energy": -9.44, "intermolecular_energy": -11.53, "internal_energy": -1.11, "cluster_size": 35, "cluster_id": 1, "rank_in_cluster": 6}

>  <energy>  (19) 
-9.09

>  <cluster_rmsd>  (19) 
1.23

>  <cluster>  (19) 
1

$$$$

     RDKit          3D

 61 65  0  0  0  0  0  0  0  0999 V2000
  145.8970   74.0850  220.4790 N   0  0  0  0  0  0  0  0  0  0  0  0
  144.9690   73.1700  219.3720 S   0  0  0  0  0  0  0  0  0  0  0  0
  144.0320   72.2910  220.1480 O   0  0  0  0  0  0  0  0  0  0  0  0
  145.9480   72.3240  218.5710 O   0  0  0  0  0  0  0  0  0  0  0  0
  144.1080   74.1720  218.1830 C   0  0  0  0  0  0  0  0  0  0  0  0
  142.7320   74.5710  218.6090 C   0  0  0  0  0  0  0  0  0  0  0  0
  142.7500   75.3790  219.9250 C   0  0  0  0  0  0  0  0  0  0  0  0
  141.7040   74.9010  220.8020 N   0  0  0  0  0  0  0  0  0  0  0  0
  141.5330   73.5810  221.0730 C   0  0  0  0  0  0  0  0  0  0  0  0
  140.4890   73.4990  221.9650 C   0  0  0  0  0  0  0  0  0  0  0  0
  139.9170   72.3230  222.5340 N   0  0  0  0  0  0  0  0  0  0  0  0
  138.5310   72.0300  222.2600 C   0  0  0  0  0  0  0  0  0  0  0  0
  137.9650   70.8440  222.9370 C   0  0  0  0  0  0  0  0  0  0  0  0
  138.7090   70.2940  224.0660 C   0  0  0  0  0  0  0  0  0  0  0  0
  138.0750   69.4530  224.9690 C   0  0  0  0  0  0  0  0  0  0  0  0
  138.7260   68.9080  226.0440 C   0  0  0  0  0  0  0  0  0  0  0  0
  140.0680   69.2380  226.1900 C   0  0  0  0  0  0  0  0  0  0  0  0
  140.7320   70.0710  225.3120 C   0  0  0  0  0  0  0  0  0  0  0  0
  140.0370   70.6050  224.2360 C   0  0  0  0  0  0  0  0  0  0  0  0
  140.7940   71.4940  223.3330 C   0  0  0  0  0  0  0  0  0  0  0  0
  140.0850   74.7590  222.1880 N   0  0  0  0  0  0  0  0  0  0  0  0
  140.8260   75.6290  221.4760 C   0  0  0  0  0  0  0  0  0  0  0  0
  140.6040   77.0190  221.4700 N   0  0  0  0  0  0  0  0  0  0  0  0
  140.0590   77.6100  222.7090 C   0  0  0  0  0  0  0  0  0  0  0  0
  141.2290   78.4540  223.2440 C   0  0  0  0  0  0  0  0  0  0  0  0
  141.3650   79.5670  222.2320 C   0  0  0  0  0  0  0  0  0  0  0  0
  141.6680   80.7990  222.7340 C   0  0  0  0  0  0  0  0  0  0  0  0
  141.7940   81.8440  221.8360 C   0  0  0  0  0  0  0  0  0  0  0  0
  141.6120   81.6050  220.4890 C   0  0  0  0  0  0  0  0  0  0  0  0
  141.3040   80.3500  219.9790 C   0  0  0  0  0  0  0  0  0  0  0  0
  141.1760   79.2990  220.8840 C   0  0  0  0  0  0  0  0  0  0  0  0
  140.8400   77.9320  220.3880 C   0  0  0  0  0  0  0  0  0  0  0  0
  146.7470   74.5230  220.0530 H   0  0  0  0  0  0  0  0  0  0  0  0
  145.3270   74.8150  220.9790 H   0  0  0  0  0  0  0  0  0  0  0  0
  144.6955   75.0858  218.0102 H   0  0  0  0  0  0  0  0  0  0  0  0
  143.9963   73.5629  217.2739 H   0  0  0  0  0  0  0  0  0  0  0  0
  142.2796   75.1880  217.8187 H   0  0  0  0  0  0  0  0  0  0  0  0
  142.1477   73.6546  218.7787 H   0  0  0  0  0  0  0  0  0  0  0  0
  143.7258   75.2550  220.4174 H   0  0  0  0  0  0  0  0  0  0  0  0
  142.5824   76.4432  219.7027 H   0  0  0  0  0  0  0  0  0  0  0  0
  142.1144   72.7432  220.6607 H   0  0  0  0  0  0  0  0  0  0  0  0
  137.9373   72.9046  222.5643 H   0  0  0  0  0  0  0  0  0  0  0  0
  138.4869   71.8022  221.1847 H   0  0  0  0  0  0  0  0  0  0  0  0
  136.9653   71.1197  223.3040 H   0  0  0  0  0  0  0  0  0  0  0  0
  137.9840   70.0506  222.1753 H   0  0  0  0  0  0  0  0  0  0  0  0
  137.0119   69.2154  224.8163 H   0  0  0  0  0  0  0  0  0  0  0  0
  138.2130   68.2435  226.7549 H   0  0  0  0  0  0  0  0  0  0  0  0
  140.6244   68.8179  227.0408 H   0  0  0  0  0  0  0  0  0  0  0  0
  141.7955   70.3078  225.4629 H   0  0  0  0  0  0  0  0  0  0  0  0
  141.4453   72.1433  223.9365 H   0  0  0  0  0  0  0  0  0  0  0  0
  141.3847   70.8651  222.6507 H   0  0  0  0  0  0  0  0  0  0  0  0
  139.1845   78.2412  222.4928 H   0  0  0  0  0  0  0  0  0  0  0  0
  139.7093   76.8547  223.4282 H   0  0  0  0  0  0  0  0  0  0  0  0
  140.9972   78.8573  224.2408 H   0  0  0  0  0  0  0  0  0  0  0  0
  142.1545   77.8711  223.3611 H   0  0  0  0  0  0  0  0  0  0  0  0
  141.8071   80.9558  223.8138 H   0  0  0  0  0  0  0  0  0  0  0  0
  142.0370   82.8559  222.1924 H   0  0  0  0  0  0  0  0  0  0  0  0
  141.7155   82.4461  219.7876 H   0  0  0  0  0  0  0  0  0  0  0  0
  141.1662   80.1920  218.8992 H   0  0  0  0  0  0  0  0  0  0  0  0
  139.9341   77.9906  219.7667 H   0  0  0  0  0  0  0  0  0  0  0  0
  141.6943   77.5590  219.8040 H   0  0  0  0  0  0  0  0  0  0  0  0
  1  2  1  0
  2  3  2  0
  2  4  2  0
  2  5  1  0
  5  6  1  0
  6  7  1  0
  7  8  1  0
  8  9  1  0
  9 10  2  0
 10 11  1  0
 11 12  1  0
 12 13  1  0
 13 14  1  0
 14 15  2  0
 15 16  1  0
 16 17  2  0
 17 18  1  0
 18 19  2  0
 19 20  1  0
 10 21  1  0
 21 22  2  0
 22 23  1  0
 23 24  1  0
 24 25  1  0
 25 26  1  0
 26 27  2  0
 27 28  1  0
 28 29  2  0
 29 30  1  0
 30 31  2  0
 31 32  1  0
 22  8  1  0
 32 23  1  0
 20 11  1  0
 31 26  1  0
 19 14  1  0
  1 33  1  0
  1 34  1  0
  5 35  1  0
  5 36  1  0
  6 37  1  0
  6 38  1  0
  7 39  1  0
  7 40  1  0
  9 41  1  0
 12 42  1  0
 12 43  1  0
 13 44  1  0
 13 45  1  0
 15 46  1  0
 16 47  1  0
 17 48  1  0
 18 49  1  0
 20 50  1  0
 20 51  1  0
 24 52  1  0
 24 53  1  0
 25 54  1  0
 25 55  1  0
 27 56  1  0
 28 57  1  0
 29 58  1  0
 30 59  1  0
 32 60  1  0
 32 61  1  0
M  END
>  <smiles>  (20) 
NS(=O)(=O)CCCn1cc(N2CCc3ccccc3C2)nc1N1CCc2ccccc2C1

>  <score_type>  (20) 
oracle

>  <origin>  (20) 
autodockgpu

>  <m_score__min__energy>  (20) 
-9.8200000000000003

>  <m_primary>  (20) 
energy

>  <rmsd>  (20) 
3.771614397491246

>  <m_score__min__rmsd>  (20) 
3.771614397491246

>  <meeko>  (20) 
{"free_energy": -8.81, "intermolecular_energy": -10.9, "internal_energy": -1.11, "cluster_size": 35, "cluster_id": 1, "rank_in_cluster": 29}

>  <energy>  (20) 
-9.05

>  <cluster_rmsd>  (20) 
0.99

>  <cluster>  (20) 
1

$$$$

     RDKit          3D

 61 65  0  0  0  0  0  0  0  0999 V2000
  144.0260   72.0080  220.6120 N   0  0  0  0  0  0  0  0  0  0  0  0
  145.0100   73.2390  219.9500 S   0  0  0  0  0  0  0  0  0  0  0  0
  146.2320   72.6030  219.3540 O   0  0  0  0  0  0  0  0  0  0  0  0
  145.3990   74.1570  221.1000 O   0  0  0  0  0  0  0  0  0  0  0  0
  144.1570   74.2660  218.7770 C   0  0  0  0  0  0  0  0  0  0  0  0
  142.9510   74.9500  219.3350 C   0  0  0  0  0  0  0  0  0  0  0  0
  141.6680   74.1160  219.1250 C   0  0  0  0  0  0  0  0  0  0  0  0
  141.1130   73.7490  220.4090 N   0  0  0  0  0  0  0  0  0  0  0  0
  141.0760   72.4610  220.8410 C   0  0  0  0  0  0  0  0  0  0  0  0
  140.5300   72.4910  222.1030 C   0  0  0  0  0  0  0  0  0  0  0  0
  140.2630   71.3850  222.9640 N   0  0  0  0  0  0  0  0  0  0  0  0
  139.2810   70.4120  222.5520 C   0  0  0  0  0  0  0  0  0  0  0  0
  138.9840   69.3310  223.5140 C   0  0  0  0  0  0  0  0  0  0  0  0
  139.4130   69.5230  224.8970 C   0  0  0  0  0  0  0  0  0  0  0  0
  138.8490   68.7610  225.9090 C   0  0  0  0  0  0  0  0  0  0  0  0
  139.2170   68.8980  227.2210 C   0  0  0  0  0  0  0  0  0  0  0  0
  140.1940   69.8470  227.4960 C   0  0  0  0  0  0  0  0  0  0  0  0
  140.7760   70.6250  226.5150 C   0  0  0  0  0  0  0  0  0  0  0  0
  140.3760   70.4560  225.1970 C   0  0  0  0  0  0  0  0  0  0  0  0
  141.0280   71.3170  224.1910 C   0  0  0  0  0  0  0  0  0  0  0  0
  140.2660   73.7790  222.3690 N   0  0  0  0  0  0  0  0  0  0  0  0
  140.6210   74.5610  221.3330 C   0  0  0  0  0  0  0  0  0  0  0  0
  140.4210   75.9540  221.3040 N   0  0  0  0  0  0  0  0  0  0  0  0
  139.0220   76.4240  221.2890 C   0  0  0  0  0  0  0  0  0  0  0  0
  138.8550   77.0840  222.6690 C   0  0  0  0  0  0  0  0  0  0  0  0
  139.7430   78.3020  222.5990 C   0  0  0  0  0  0  0  0  0  0  0  0
  139.2680   79.4260  223.2090 C   0  0  0  0  0  0  0  0  0  0  0  0
  140.0540   80.5640  223.1590 C   0  0  0  0  0  0  0  0  0  0  0  0
  141.2680   80.5200  222.5040 C   0  0  0  0  0  0  0  0  0  0  0  0
  141.7510   79.3760  221.8830 C   0  0  0  0  0  0  0  0  0  0  0  0
  140.9580   78.2310  221.9330 C   0  0  0  0  0  0  0  0  0  0  0  0
  141.4280   76.9760  221.2770 C   0  0  0  0  0  0  0  0  0  0  0  0
  143.7030   71.3040  219.9080 H   0  0  0  0  0  0  0  0  0  0  0  0
  144.4800   71.5200  221.4270 H   0  0  0  0  0  0  0  0  0  0  0  0
  144.8562   75.0354  218.4175 H   0  0  0  0  0  0  0  0  0  0  0  0
  143.8049   73.6054  217.9710 H   0  0  0  0  0  0  0  0  0  0  0  0
  143.0993   75.1092  220.4133 H   0  0  0  0  0  0  0  0  0  0  0  0
  142.8263   75.9068  218.8067 H   0  0  0  0  0  0  0  0  0  0  0  0
  140.9320   74.7112  218.5646 H   0  0  0  0  0  0  0  0  0  0  0  0
  141.9126   73.2052  218.5587 H   0  0  0  0  0  0  0  0  0  0  0  0
  141.4154   71.5711  220.2906 H   0  0  0  0  0  0  0  0  0  0  0  0
  138.3420   70.9486  222.3510 H   0  0  0  0  0  0  0  0  0  0  0  0
  139.7161   69.9111  221.6746 H   0  0  0  0  0  0  0  0  0  0  0  0
  137.8932   69.1891  223.5240 H   0  0  0  0  0  0  0  0  0  0  0  0
  139.5670   68.4694  223.1565 H   0  0  0  0  0  0  0  0  0  0  0  0
  138.0787   68.0202  225.6487 H   0  0  0  0  0  0  0  0  0  0  0  0
  138.7627   68.2884  228.0159 H   0  0  0  0  0  0  0  0  0  0  0  0
  140.5172   69.9841  228.5385 H   0  0  0  0  0  0  0  0  0  0  0  0
  141.5451   71.3675  226.7743 H   0  0  0  0  0  0  0  0  0  0  0  0
  141.1303   72.3316  224.6034 H   0  0  0  0  0  0  0  0  0  0  0  0
  142.0117   70.8841  223.9568 H   0  0  0  0  0  0  0  0  0  0  0  0
  138.8600   77.1531  220.4814 H   0  0  0  0  0  0  0  0  0  0  0  0
  138.2984   75.6155  221.1083 H   0  0  0  0  0  0  0  0  0  0  0  0
  137.8075   77.3728  222.8405 H   0  0  0  0  0  0  0  0  0  0  0  0
  139.1232   76.4106  223.4964 H   0  0  0  0  0  0  0  0  0  0  0  0
  138.2951   79.4277  223.7222 H   0  0  0  0  0  0  0  0  0  0  0  0
  139.7143   81.4948  223.6368 H   0  0  0  0  0  0  0  0  0  0  0  0
  141.8809   81.4329  222.4725 H   0  0  0  0  0  0  0  0  0  0  0  0
  142.7242   79.3734  221.3702 H   0  0  0  0  0  0  0  0  0  0  0  0
  141.6851   77.1956  220.2303 H   0  0  0  0  0  0  0  0  0  0  0  0
  142.3051   76.6079  221.8294 H   0  0  0  0  0  0  0  0  0  0  0  0
  1  2  1  0
  2  3  2  0
  2  4  2  0
  2  5  1  0
  5  6  1  0
  6  7  1  0
  7  8  1  0
  8  9  1  0
  9 10  2  0
 10 11  1  0
 11 12  1  0
 12 13  1  0
 13 14  1  0
 14 15  2  0
 15 16  1  0
 16 17  2  0
 17 18  1  0
 18 19  2  0
 19 20  1  0
 10 21  1  0
 21 22  2  0
 22 23  1  0
 23 24  1  0
 24 25  1  0
 25 26  1  0
 26 27  2  0
 27 28  1  0
 28 29  2  0
 29 30  1  0
 30 31  2  0
 31 32  1  0
 22  8  1  0
 32 23  1  0
 20 11  1  0
 31 26  1  0
 19 14  1  0
  1 33  1  0
  1 34  1  0
  5 35  1  0
  5 36  1  0
  6 37  1  0
  6 38  1  0
  7 39  1  0
  7 40  1  0
  9 41  1  0
 12 42  1  0
 12 43  1  0
 13 44  1  0
 13 45  1  0
 15 46  1  0
 16 47  1  0
 17 48  1  0
 18 49  1  0
 20 50  1  0
 20 51  1  0
 24 52  1  0
 24 53  1  0
 25 54  1  0
 25 55  1  0
 27 56  1  0
 28 57  1  0
 29 58  1  0
 30 59  1  0
 32 60  1  0
 32 61  1  0
M  END
>  <smiles>  (21) 
NS(=O)(=O)CCCn1cc(N2CCc3ccccc3C2)nc1N1CCc2ccccc2C1

>  <score_type>  (21) 
oracle

>  <origin>  (21) 
autodockgpu

>  <m_score__min__energy>  (21) 
-9.8200000000000003

>  <m_primary>  (21) 
energy

>  <rmsd>  (21) 
3.799573164917383

>  <m_score__min__rmsd>  (21) 
3.799573164917383

>  <meeko>  (21) 
{"free_energy": -9.1, "intermolecular_energy": -11.19, "internal_energy": -1.18, "cluster_size": 35, "cluster_id": 1, "rank_in_cluster": 18}

>  <energy>  (21) 
-9.04

>  <cluster_rmsd>  (21) 
1.59

>  <cluster>  (21) 
1

$$$$

     RDKit          3D

 61 65  0  0  0  0  0  0  0  0999 V2000
  146.3930   74.0870  220.1900 N   0  0  0  0  0  0  0  0  0  0  0  0
  145.1880   72.9730  219.7110 S   0  0  0  0  0  0  0  0  0  0  0  0
  144.3990   72.5740  220.9240 O   0  0  0  0  0  0  0  0  0  0  0  0
  145.9100   71.7670  219.1280 O   0  0  0  0  0  0  0  0  0  0  0  0
  144.1410   73.5870  218.4120 C   0  0  0  0  0  0  0  0  0  0  0  0
  142.6820   73.5090  218.7220 C   0  0  0  0  0  0  0  0  0  0  0  0
  142.1870   74.7590  219.4820 C   0  0  0  0  0  0  0  0  0  0  0  0
  141.3760   74.3520  220.6090 N   0  0  0  0  0  0  0  0  0  0  0  0
  141.2790   73.0550  221.0010 C   0  0  0  0  0  0  0  0  0  0  0  0
  140.4720   73.0450  222.1150 C   0  0  0  0  0  0  0  0  0  0  0  0
  140.0530   71.9150  222.8790 N   0  0  0  0  0  0  0  0  0  0  0  0
  138.7380   71.3720  222.6410 C   0  0  0  0  0  0  0  0  0  0  0  0
  138.3230   70.2550  223.5130 C   0  0  0  0  0  0  0  0  0  0  0  0
  139.0880   70.0330  224.7360 C   0  0  0  0  0  0  0  0  0  0  0  0
  138.5450   69.2810  225.7670 C   0  0  0  0  0  0  0  0  0  0  0  0
  139.2210   69.0400  226.9330 C   0  0  0  0  0  0  0  0  0  0  0  0
  140.4930   69.5910  227.0390 C   0  0  0  0  0  0  0  0  0  0  0  0
  141.0650   70.3450  226.0350 C   0  0  0  0  0  0  0  0  0  0  0  0
  140.3480   70.5670  224.8680 C   0  0  0  0  0  0  0  0  0  0  0  0
  141.0060   71.3850  223.8300 C   0  0  0  0  0  0  0  0  0  0  0  0
  140.1250   74.3210  222.3390 N   0  0  0  0  0  0  0  0  0  0  0  0
  140.6760   75.1330  221.4170 C   0  0  0  0  0  0  0  0  0  0  0  0
  140.4520   76.5220  221.3690 N   0  0  0  0  0  0  0  0  0  0  0  0
  139.0450   76.9680  221.3530 C   0  0  0  0  0  0  0  0  0  0  0  0
  138.8710   77.6440  222.7230 C   0  0  0  0  0  0  0  0  0  0  0  0
  139.7380   78.8770  222.6330 C   0  0  0  0  0  0  0  0  0  0  0  0
  139.2460   80.0000  223.2290 C   0  0  0  0  0  0  0  0  0  0  0  0
  140.0120   81.1510  223.1600 C   0  0  0  0  0  0  0  0  0  0  0  0
  141.2240   81.1180  222.5020 C   0  0  0  0  0  0  0  0  0  0  0  0
  141.7240   79.9740  221.8960 C   0  0  0  0  0  0  0  0  0  0  0  0
  140.9520   78.8160  221.9650 C   0  0  0  0  0  0  0  0  0  0  0  0
  141.4420   77.5610  221.3240 C   0  0  0  0  0  0  0  0  0  0  0  0
  147.1440   74.2270  219.4740 H   0  0  0  0  0  0  0  0  0  0  0  0
  145.9930   75.0170  220.4790 H   0  0  0  0  0  0  0  0  0  0  0  0
  144.3999   74.6400  218.2272 H   0  0  0  0  0  0  0  0  0  0  0  0
  144.3150   72.9485  217.5333 H   0  0  0  0  0  0  0  0  0  0  0  0
  142.1223   73.4213  217.7791 H   0  0  0  0  0  0  0  0  0  0  0  0
  142.5165   72.6317  219.3646 H   0  0  0  0  0  0  0  0  0  0  0  0
  143.0522   75.3348  219.8425 H   0  0  0  0  0  0  0  0  0  0  0  0
  141.5852   75.3836  218.8054 H   0  0  0  0  0  0  0  0  0  0  0  0
  141.7521   72.1849  220.5224 H   0  0  0  0  0  0  0  0  0  0  0  0
  138.0105   72.1868  222.7712 H   0  0  0  0  0  0  0  0  0  0  0  0
  138.7738   70.9526  221.6247 H   0  0  0  0  0  0  0  0  0  0  0  0
  137.2786   70.4369  223.8064 H   0  0  0  0  0  0  0  0  0  0  0  0
  138.4924   69.3512  222.9093 H   0  0  0  0  0  0  0  0  0  0  0  0
  137.5350   68.8632  225.6436 H   0  0  0  0  0  0  0  0  0  0  0  0
  138.7805   68.4414  227.7439 H   0  0  0  0  0  0  0  0  0  0  0  0
  141.0671   69.4187  227.9614 H   0  0  0  0  0  0  0  0  0  0  0  0
  142.0746   70.7640  226.1579 H   0  0  0  0  0  0  0  0  0  0  0  0
  141.5284   72.2228  224.3150 H   0  0  0  0  0  0  0  0  0  0  0  0
  141.7118   70.7416  223.2842 H   0  0  0  0  0  0  0  0  0  0  0  0
  138.8677   77.6827  220.5359 H   0  0  0  0  0  0  0  0  0  0  0  0
  138.3349   76.1445  221.1867 H   0  0  0  0  0  0  0  0  0  0  0  0
  137.8192   77.9169  222.8939 H   0  0  0  0  0  0  0  0  0  0  0  0
  139.1536   76.9871  223.5589 H   0  0  0  0  0  0  0  0  0  0  0  0
  138.2752   79.9918  223.7462 H   0  0  0  0  0  0  0  0  0  0  0  0
  139.6577   82.0827  223.6252 H   0  0  0  0  0  0  0  0  0  0  0  0
  141.8214   82.0405  222.4555 H   0  0  0  0  0  0  0  0  0  0  0  0
  142.6952   79.9811  221.3796 H   0  0  0  0  0  0  0  0  0  0  0  0
  141.6915   77.7708  220.2734 H   0  0  0  0  0  0  0  0  0  0  0  0
  142.3278   77.2158  221.8773 H   0  0  0  0  0  0  0  0  0  0  0  0
  1  2  1  0
  2  3  2  0
  2  4  2  0
  2  5  1  0
  5  6  1  0
  6  7  1  0
  7  8  1  0
  8  9  1  0
  9 10  2  0
 10 11  1  0
 11 12  1  0
 12 13  1  0
 13 14  1  0
 14 15  2  0
 15 16  1  0
 16 17  2  0
 17 18  1  0
 18 19  2  0
 19 20  1  0
 10 21  1  0
 21 22  2  0
 22 23  1  0
 23 24  1  0
 24 25  1  0
 25 26  1  0
 26 27  2  0
 27 28  1  0
 28 29  2  0
 29 30  1  0
 30 31  2  0
 31 32  1  0
 22  8  1  0
 32 23  1  0
 20 11  1  0
 31 26  1  0
 19 14  1  0
  1 33  1  0
  1 34  1  0
  5 35  1  0
  5 36  1  0
  6 37  1  0
  6 38  1  0
  7 39  1  0
  7 40  1  0
  9 41  1  0
 12 42  1  0
 12 43  1  0
 13 44  1  0
 13 45  1  0
 15 46  1  0
 16 47  1  0
 17 48  1  0
 18 49  1  0
 20 50  1  0
 20 51  1  0
 24 52  1  0
 24 53  1  0
 25 54  1  0
 25 55  1  0
 27 56  1  0
 28 57  1  0
 29 58  1  0
 30 59  1  0
 32 60  1  0
 32 61  1  0
M  END
>  <smiles>  (22) 
NS(=O)(=O)CCCn1cc(N2CCc3ccccc3C2)nc1N1CCc2ccccc2C1

>  <score_type>  (22) 
oracle

>  <origin>  (22) 
autodockgpu

>  <m_score__min__energy>  (22) 
-9.8200000000000003

>  <m_primary>  (22) 
energy

>  <rmsd>  (22) 
3.7546746547251697

>  <m_score__min__rmsd>  (22) 
3.7546746547251697

>  <meeko>  (22) 
{"free_energy": -8.98, "intermolecular_energy": -11.07, "internal_energy": -1.08, "cluster_size": 35, "cluster_id": 1, "rank_in_cluster": 24}

>  <energy>  (22) 
-9.03

>  <cluster_rmsd>  (22) 
1.74

>  <cluster>  (22) 
1

$$$$

     RDKit          3D

 61 65  0  0  0  0  0  0  0  0999 V2000
  146.0490   73.5550  220.2740 N   0  0  0  0  0  0  0  0  0  0  0  0
  145.5210   72.3020  219.2390 S   0  0  0  0  0  0  0  0  0  0  0  0
  146.1730   71.0200  219.6690 O   0  0  0  0  0  0  0  0  0  0  0  0
  145.9660   72.6760  217.8320 O   0  0  0  0  0  0  0  0  0  0  0  0
  143.7510   72.1520  219.1630 C   0  0  0  0  0  0  0  0  0  0  0  0
  143.1230   71.7320  220.4520 C   0  0  0  0  0  0  0  0  0  0  0  0
  141.5840   71.8550  220.4090 C   0  0  0  0  0  0  0  0  0  0  0  0
  141.1780   73.0850  221.0530 N   0  0  0  0  0  0  0  0  0  0  0  0
  141.5310   74.3060  220.5710 C   0  0  0  0  0  0  0  0  0  0  0  0
  140.9410   75.2340  221.3970 C   0  0  0  0  0  0  0  0  0  0  0  0
  141.0330   76.6560  221.3170 N   0  0  0  0  0  0  0  0  0  0  0  0
  141.5340   77.2470  220.1000 C   0  0  0  0  0  0  0  0  0  0  0  0
  141.6840   78.7160  220.0980 C   0  0  0  0  0  0  0  0  0  0  0  0
  141.6660   79.3980  221.3890 C   0  0  0  0  0  0  0  0  0  0  0  0
  142.1750   80.6830  221.5010 C   0  0  0  0  0  0  0  0  0  0  0  0
  142.1790   81.3690  222.6870 C   0  0  0  0  0  0  0  0  0  0  0  0
  141.6440   80.7100  223.7870 C   0  0  0  0  0  0  0  0  0  0  0  0
  141.1300   79.4310  223.7140 C   0  0  0  0  0  0  0  0  0  0  0  0
  141.1440   78.7690  222.4940 C   0  0  0  0  0  0  0  0  0  0  0  0
  140.5870   77.4020  222.4750 C   0  0  0  0  0  0  0  0  0  0  0  0
  140.2680   74.5390  222.3260 N   0  0  0  0  0  0  0  0  0  0  0  0
  140.4080   73.2160  222.1230 C   0  0  0  0  0  0  0  0  0  0  0  0
  139.8530   72.2350  222.9670 N   0  0  0  0  0  0  0  0  0  0  0  0
  138.6650   71.5180  222.4600 C   0  0  0  0  0  0  0  0  0  0  0  0
  139.1860   70.0910  222.2230 C   0  0  0  0  0  0  0  0  0  0  0  0
  139.4690   69.5730  223.6120 C   0  0  0  0  0  0  0  0  0  0  0  0
  139.1680   68.2610  223.8360 C   0  0  0  0  0  0  0  0  0  0  0  0
  139.4090   67.7540  225.1010 C   0  0  0  0  0  0  0  0  0  0  0  0
  139.9360   68.5800  226.0720 C   0  0  0  0  0  0  0  0  0  0  0  0
  140.2430   69.9150  225.8440 C   0  0  0  0  0  0  0  0  0  0  0  0
  139.9990   70.4250  224.5700 C   0  0  0  0  0  0  0  0  0  0  0  0
  140.3060   71.8550  224.2740 C   0  0  0  0  0  0  0  0  0  0  0  0
  146.4610   74.3730  219.7680 H   0  0  0  0  0  0  0  0  0  0  0  0
  145.2950   73.8810  220.9330 H   0  0  0  0  0  0  0  0  0  0  0  0
  143.3327   73.1280  218.8758 H   0  0  0  0  0  0  0  0  0  0  0  0
  143.5286   71.3644  218.4280 H   0  0  0  0  0  0  0  0  0  0  0  0
  143.3907   70.6842  220.6534 H   0  0  0  0  0  0  0  0  0  0  0  0
  143.4963   72.3959  221.2457 H   0  0  0  0  0  0  0  0  0  0  0  0
  141.2462   71.8609  219.3622 H   0  0  0  0  0  0  0  0  0  0  0  0
  141.1341   71.0006  220.9359 H   0  0  0  0  0  0  0  0  0  0  0  0
  142.1631   74.5111  219.6944 H   0  0  0  0  0  0  0  0  0  0  0  0
  142.5226   76.8092  219.8974 H   0  0  0  0  0  0  0  0  0  0  0  0
  140.7745   77.0293  219.3347 H   0  0  0  0  0  0  0  0  0  0  0  0
  142.6452   78.9482  219.6162 H   0  0  0  0  0  0  0  0  0  0  0  0
  140.7919   79.0877  219.5726 H   0  0  0  0  0  0  0  0  0  0  0  0
  142.5904   81.1689  220.6058 H   0  0  0  0  0  0  0  0  0  0  0  0
  142.5847   82.3885  222.7643 H   0  0  0  0  0  0  0  0  0  0  0  0
  141.6294   81.2292  224.7566 H   0  0  0  0  0  0  0  0  0  0  0  0
  140.7156   78.9438  224.6090 H   0  0  0  0  0  0  0  0  0  0  0  0
  140.9088   76.8737  223.3846 H   0  0  0  0  0  0  0  0  0  0  0  0
  139.4907   77.4800  222.4302 H   0  0  0  0  0  0  0  0  0  0  0  0
  137.8548   71.5230  223.2040 H   0  0  0  0  0  0  0  0  0  0  0  0
  138.2399   71.9764  221.5549 H   0  0  0  0  0  0  0  0  0  0  0  0
  138.4247   69.4744  221.7228 H   0  0  0  0  0  0  0  0  0  0  0  0
  140.0722   70.0655  221.5718 H   0  0  0  0  0  0  0  0  0  0  0  0
  138.7487   67.6288  223.0394 H   0  0  0  0  0  0  0  0  0  0  0  0
  139.1824   66.7022  225.3300 H   0  0  0  0  0  0  0  0  0  0  0  0
  140.1215   68.1622  227.0725 H   0  0  0  0  0  0  0  0  0  0  0  0
  140.6635   70.5471  226.6400 H   0  0  0  0  0  0  0  0  0  0  0  0
  139.8078   72.4889  225.0223 H   0  0  0  0  0  0  0  0  0  0  0  0
  141.3975   71.9862  224.3104 H   0  0  0  0  0  0  0  0  0  0  0  0
  1  2  1  0
  2  3  2  0
  2  4  2  0
  2  5  1  0
  5  6  1  0
  6  7  1  0
  7  8  1  0
  8  9  1  0
  9 10  2  0
 10 11  1  0
 11 12  1  0
 12 13  1  0
 13 14  1  0
 14 15  2  0
 15 16  1  0
 16 17  2  0
 17 18  1  0
 18 19  2  0
 19 20  1  0
 10 21  1  0
 21 22  2  0
 22 23  1  0
 23 24  1  0
 24 25  1  0
 25 26  1  0
 26 27  2  0
 27 28  1  0
 28 29  2  0
 29 30  1  0
 30 31  2  0
 31 32  1  0
 22  8  1  0
 32 23  1  0
 20 11  1  0
 31 26  1  0
 19 14  1  0
  1 33  1  0
  1 34  1  0
  5 35  1  0
  5 36  1  0
  6 37  1  0
  6 38  1  0
  7 39  1  0
  7 40  1  0
  9 41  1  0
 12 42  1  0
 12 43  1  0
 13 44  1  0
 13 45  1  0
 15 46  1  0
 16 47  1  0
 17 48  1  0
 18 49  1  0
 20 50  1  0
 20 51  1  0
 24 52  1  0
 24 53  1  0
 25 54  1  0
 25 55  1  0
 27 56  1  0
 28 57  1  0
 29 58  1  0
 30 59  1  0
 32 60  1  0
 32 61  1  0
M  END
>  <smiles>  (23) 
NS(=O)(=O)CCCn1cc(N2CCc3ccccc3C2)nc1N1CCc2ccccc2C1

>  <score_type>  (23) 
oracle

>  <origin>  (23) 
autodockgpu

>  <m_score__min__energy>  (23) 
-9.8200000000000003

>  <m_primary>  (23) 
energy

>  <rmsd>  (23) 
8.901624403806444

>  <m_score__min__rmsd>  (23) 
8.901624403806444

>  <meeko>  (23) 
{"free_energy": -9.31, "intermolecular_energy": -11.4, "internal_energy": -0.99, "cluster_size": 35, "cluster_id": 1, "rank_in_cluster": 11}

>  <energy>  (23) 
-9.02

>  <cluster_rmsd>  (23) 
1.6

>  <cluster>  (23) 
1

$$$$

     RDKit          3D

 61 65  0  0  0  0  0  0  0  0999 V2000
  146.1610   73.1100  221.7770 N   0  0  0  0  0  0  0  0  0  0  0  0
  145.2240   72.9760  220.3550 S   0  0  0  0  0  0  0  0  0  0  0  0
  146.1510   72.9390  219.1740 O   0  0  0  0  0  0  0  0  0  0  0  0
  144.3370   74.2110  220.2930 O   0  0  0  0  0  0  0  0  0  0  0  0
  144.1160   71.5850  220.3720 C   0  0  0  0  0  0  0  0  0  0  0  0
  142.8320   71.8240  219.6480 C   0  0  0  0  0  0  0  0  0  0  0  0
  141.6060   71.6040  220.5610 C   0  0  0  0  0  0  0  0  0  0  0  0
  141.2000   72.8650  221.1400 N   0  0  0  0  0  0  0  0  0  0  0  0
  141.5390   74.0590  220.5860 C   0  0  0  0  0  0  0  0  0  0  0  0
  140.9520   75.0290  221.3660 C   0  0  0  0  0  0  0  0  0  0  0  0
  141.0330   76.4450  221.2060 N   0  0  0  0  0  0  0  0  0  0  0  0
  141.5180   76.9690  219.9520 C   0  0  0  0  0  0  0  0  0  0  0  0
  141.6580   78.4370  219.8660 C   0  0  0  0  0  0  0  0  0  0  0  0
  141.6480   79.1900  221.1170 C   0  0  0  0  0  0  0  0  0  0  0  0
  142.1490   80.4830  221.1510 C   0  0  0  0  0  0  0  0  0  0  0  0
  142.1600   81.2340  222.2960 C   0  0  0  0  0  0  0  0  0  0  0  0
  141.6410   80.6350  223.4370 C   0  0  0  0  0  0  0  0  0  0  0  0
  141.1350   79.3500  223.4410 C   0  0  0  0  0  0  0  0  0  0  0  0
  141.1410   78.6210  222.2600 C   0  0  0  0  0  0  0  0  0  0  0  0
  140.5940   77.2520  222.3240 C   0  0  0  0  0  0  0  0  0  0  0  0
  140.2960   74.3830  222.3410 N   0  0  0  0  0  0  0  0  0  0  0  0
  140.4430   73.0510  222.2120 C   0  0  0  0  0  0  0  0  0  0  0  0
  139.9050   72.1150  223.1160 N   0  0  0  0  0  0  0  0  0  0  0  0
  138.7030   71.3800  222.6740 C   0  0  0  0  0  0  0  0  0  0  0  0
  139.2140   69.9400  222.4960 C   0  0  0  0  0  0  0  0  0  0  0  0
  139.5290   69.4900  223.9020 C   0  0  0  0  0  0  0  0  0  0  0  0
  139.2290   68.1930  224.1980 C   0  0  0  0  0  0  0  0  0  0  0  0
  139.4990   67.7490  225.4800 C   0  0  0  0  0  0  0  0  0  0  0  0
  140.0520   68.6200  226.3960 C   0  0  0  0  0  0  0  0  0  0  0  0
  140.3580   69.9400  226.0950 C   0  0  0  0  0  0  0  0  0  0  0  0
  140.0850   70.3870  224.8040 C   0  0  0  0  0  0  0  0  0  0  0  0
  140.3890   71.7990  224.4300 C   0  0  0  0  0  0  0  0  0  0  0  0
  146.7150   72.2500  221.9990 H   0  0  0  0  0  0  0  0  0  0  0  0
  146.7920   73.9530  221.7690 H   0  0  0  0  0  0  0  0  0  0  0  0
  144.6251   70.7311  219.9011 H   0  0  0  0  0  0  0  0  0  0  0  0
  143.8581   71.3957  221.4244 H   0  0  0  0  0  0  0  0  0  0  0  0
  142.8193   72.8603  219.2792 H   0  0  0  0  0  0  0  0  0  0  0  0
  142.7709   71.1063  218.8167 H   0  0  0  0  0  0  0  0  0  0  0  0
  140.7774   71.1899  219.9678 H   0  0  0  0  0  0  0  0  0  0  0  0
  141.8706   70.9013  221.3648 H   0  0  0  0  0  0  0  0  0  0  0  0
  142.1594   74.2183  219.6917 H   0  0  0  0  0  0  0  0  0  0  0  0
  142.5074   76.5265  219.7642 H   0  0  0  0  0  0  0  0  0  0  0  0
  140.7528   76.7034  219.2078 H   0  0  0  0  0  0  0  0  0  0  0  0
  142.6129   78.6479  219.3622 H   0  0  0  0  0  0  0  0  0  0  0  0
  140.7584   78.7732  219.3296 H   0  0  0  0  0  0  0  0  0  0  0  0
  142.5517   80.9205  220.2256 H   0  0  0  0  0  0  0  0  0  0  0  0
  142.5593   82.2589  222.3116 H   0  0  0  0  0  0  0  0  0  0  0  0
  141.6328   81.2079  224.3760 H   0  0  0  0  0  0  0  0  0  0  0  0
  140.7333   78.9110  224.3661 H   0  0  0  0  0  0  0  0  0  0  0  0
  140.9290   76.7781  223.2585 H   0  0  0  0  0  0  0  0  0  0  0  0
  139.4968   77.3202  222.2864 H   0  0  0  0  0  0  0  0  0  0  0  0
  137.9109   71.4256  223.4359 H   0  0  0  0  0  0  0  0  0  0  0  0
  138.2575   71.7949  221.7578 H   0  0  0  0  0  0  0  0  0  0  0  0
  138.4389   69.3026  222.0455 H   0  0  0  0  0  0  0  0  0  0  0  0
  140.0842   69.8785  221.8260 H   0  0  0  0  0  0  0  0  0  0  0  0
  138.7881   67.5239  223.4444 H   0  0  0  0  0  0  0  0  0  0  0  0
  139.2748   66.7109  225.7665 H   0  0  0  0  0  0  0  0  0  0  0  0
  140.2599   68.2515  227.4114 H   0  0  0  0  0  0  0  0  0  0  0  0
  140.7999   70.6088  226.8483 H   0  0  0  0  0  0  0  0  0  0  0  0
  139.9110   72.4715  225.1575 H   0  0  0  0  0  0  0  0  0  0  0  0
  141.4815   71.9277  224.4337 H   0  0  0  0  0  0  0  0  0  0  0  0
  1  2  1  0
  2  3  2  0
  2  4  2  0
  2  5  1  0
  5  6  1  0
  6  7  1  0
  7  8  1  0
  8  9  1  0
  9 10  2  0
 10 11  1  0
 11 12  1  0
 12 13  1  0
 13 14  1  0
 14 15  2  0
 15 16  1  0
 16 17  2  0
 17 18  1  0
 18 19  2  0
 19 20  1  0
 10 21  1  0
 21 22  2  0
 22 23  1  0
 23 24  1  0
 24 25  1  0
 25 26  1  0
 26 27  2  0
 27 28  1  0
 28 29  2  0
 29 30  1  0
 30 31  2  0
 31 32  1  0
 22  8  1  0
 32 23  1  0
 20 11  1  0
 31 26  1  0
 19 14  1  0
  1 33  1  0
  1 34  1  0
  5 35  1  0
  5 36  1  0
  6 37  1  0
  6 38  1  0
  7 39  1  0
  7 40  1  0
  9 41  1  0
 12 42  1  0
 12 43  1  0
 13 44  1  0
 13 45  1  0
 15 46  1  0
 16 47  1  0
 17 48  1  0
 18 49  1  0
 20 50  1  0
 20 51  1  0
 24 52  1  0
 24 53  1  0
 25 54  1  0
 25 55  1  0
 27 56  1  0
 28 57  1  0
 29 58  1  0
 30 59  1  0
 32 60  1  0
 32 61  1  0
M  END
>  <smiles>  (24) 
NS(=O)(=O)CCCn1cc(N2CCc3ccccc3C2)nc1N1CCc2ccccc2C1

>  <score_type>  (24) 
oracle

>  <origin>  (24) 
autodockgpu

>  <m_score__min__energy>  (24) 
-9.8200000000000003

>  <m_primary>  (24) 
energy

>  <rmsd>  (24) 
8.948795371144206

>  <m_score__min__rmsd>  (24) 
8.948795371144206

>  <meeko>  (24) 
{"free_energy": -9.71, "intermolecular_energy": -11.79, "internal_energy": -1.2, "cluster_size": 35, "cluster_id": 1, "rank_in_cluster": 3}

>  <energy>  (24) 
-8.98

>  <cluster_rmsd>  (24) 
1.49

>  <cluster>  (24) 
1

$$$$

     RDKit          3D

 61 65  0  0  0  0  0  0  0  0999 V2000
  136.8130   74.2390  222.7690 N   0  0  0  0  0  0  0  0  0  0  0  0
  135.8120   73.5360  221.5750 S   0  0  0  0  0  0  0  0  0  0  0  0
  134.3790   73.7580  221.9630 O   0  0  0  0  0  0  0  0  0  0  0  0
  136.1310   72.0480  221.5540 O   0  0  0  0  0  0  0  0  0  0  0  0
  136.1550   74.1280  219.9340 C   0  0  0  0  0  0  0  0  0  0  0  0
  137.2140   73.3540  219.2190 C   0  0  0  0  0  0  0  0  0  0  0  0
  138.6160   73.9640  219.4340 C   0  0  0  0  0  0  0  0  0  0  0  0
  139.0900   73.6350  220.7610 N   0  0  0  0  0  0  0  0  0  0  0  0
  139.0630   72.3660  221.2460 C   0  0  0  0  0  0  0  0  0  0  0  0
  139.6230   72.4180  222.5010 C   0  0  0  0  0  0  0  0  0  0  0  0
  139.8000   71.3440  223.4230 N   0  0  0  0  0  0  0  0  0  0  0  0
  139.0950   70.1080  223.1830 C   0  0  0  0  0  0  0  0  0  0  0  0
  139.2500   69.0560  224.2090 C   0  0  0  0  0  0  0  0  0  0  0  0
  139.7800   69.4550  225.5090 C   0  0  0  0  0  0  0  0  0  0  0  0
  139.5960   68.6350  226.6130 C   0  0  0  0  0  0  0  0  0  0  0  0
  140.0750   68.9600  227.8550 C   0  0  0  0  0  0  0  0  0  0  0  0
  140.7640   70.1620  227.9600 C   0  0  0  0  0  0  0  0  0  0  0  0
  140.9660   71.0030  226.8830 C   0  0  0  0  0  0  0  0  0  0  0  0
  140.4640   70.6390  225.6420 C   0  0  0  0  0  0  0  0  0  0  0  0
  140.7050   71.5780  224.5280 C   0  0  0  0  0  0  0  0  0  0  0  0
  139.9580   73.7000  222.7110 N   0  0  0  0  0  0  0  0  0  0  0  0
  139.6330   74.4570  221.6470 C   0  0  0  0  0  0  0  0  0  0  0  0
  139.8220   75.8510  221.5950 N   0  0  0  0  0  0  0  0  0  0  0  0
  138.6180   76.6770  221.3730 C   0  0  0  0  0  0  0  0  0  0  0  0
  138.4350   77.4060  222.7150 C   0  0  0  0  0  0  0  0  0  0  0  0
  139.6190   78.3400  222.7850 C   0  0  0  0  0  0  0  0  0  0  0  0
  139.3800   79.5700  223.3230 C   0  0  0  0  0  0  0  0  0  0  0  0
  140.4410   80.4550  223.3960 C   0  0  0  0  0  0  0  0  0  0  0  0
  141.6810   80.0660  222.9310 C   0  0  0  0  0  0  0  0  0  0  0  0
  141.9230   78.8130  222.3840 C   0  0  0  0  0  0  0  0  0  0  0  0
  140.8540   77.9230  222.3090 C   0  0  0  0  0  0  0  0  0  0  0  0
  141.0600   76.5660  221.7240 C   0  0  0  0  0  0  0  0  0  0  0  0
  136.4280   74.1600  223.7390 H   0  0  0  0  0  0  0  0  0  0  0  0
  137.7980   73.8690  222.7410 H   0  0  0  0  0  0  0  0  0  0  0  0
  135.2278   74.0716  219.3449 H   0  0  0  0  0  0  0  0  0  0  0  0
  136.5281   75.1576  220.0381 H   0  0  0  0  0  0  0  0  0  0  0  0
  137.2143   72.3203  219.5951 H   0  0  0  0  0  0  0  0  0  0  0  0
  136.9903   73.3838  218.1424 H   0  0  0  0  0  0  0  0  0  0  0  0
  139.3113   73.5565  218.6854 H   0  0  0  0  0  0  0  0  0  0  0  0
  138.5591   75.0573  219.3269 H   0  0  0  0  0  0  0  0  0  0  0  0
  138.6709   71.4738  220.7359 H   0  0  0  0  0  0  0  0  0  0  0  0
  138.0234   70.3434  223.1036 H   0  0  0  0  0  0  0  0  0  0  0  0
  139.5376   69.6911  222.2663 H   0  0  0  0  0  0  0  0  0  0  0  0
  138.2575   68.6135  224.3796 H   0  0  0  0  0  0  0  0  0  0  0  0
  140.0059   68.3716  223.7964 H   0  0  0  0  0  0  0  0  0  0  0  0
  139.0462   67.6907  226.4868 H   0  0  0  0  0  0  0  0  0  0  0  0
  139.9220   68.3032  228.7240 H   0  0  0  0  0  0  0  0  0  0  0  0
  141.1651   70.4560  228.9412 H   0  0  0  0  0  0  0  0  0  0  0  0
  141.5166   71.9471  227.0075 H   0  0  0  0  0  0  0  0  0  0  0  0
  140.5640   72.6063  224.8922 H   0  0  0  0  0  0  0  0  0  0  0  0
  141.7326   71.4241  224.1671 H   0  0  0  0  0  0  0  0  0  0  0  0
  138.7777   77.3938  220.5540 H   0  0  0  0  0  0  0  0  0  0  0  0
  137.7379   76.0847  221.0820 H   0  0  0  0  0  0  0  0  0  0  0  0
  137.4905   77.9697  222.7286 H   0  0  0  0  0  0  0  0  0  0  0  0
  138.3881   76.7155  223.5700 H   0  0  0  0  0  0  0  0  0  0  0  0
  138.3797   79.8486  223.6859 H   0  0  0  0  0  0  0  0  0  0  0  0
  140.2976   81.4595  223.8208 H   0  0  0  0  0  0  0  0  0  0  0  0
  142.5147   80.7806  222.9967 H   0  0  0  0  0  0  0  0  0  0  0  0
  142.9235   78.5330  222.0226 H   0  0  0  0  0  0  0  0  0  0  0  0
  141.5159   76.6722  220.7286 H   0  0  0  0  0  0  0  0  0  0  0  0
  141.7163   75.9971  222.3990 H   0  0  0  0  0  0  0  0  0  0  0  0
  1  2  1  0
  2  3  2  0
  2  4  2  0
  2  5  1  0
  5  6  1  0
  6  7  1  0
  7  8  1  0
  8  9  1  0
  9 10  2  0
 10 11  1  0
 11 12  1  0
 12 13  1  0
 13 14  1  0
 14 15  2  0
 15 16  1  0
 16 17  2  0
 17 18  1  0
 18 19  2  0
 19 20  1  0
 10 21  1  0
 21 22  2  0
 22 23  1  0
 23 24  1  0
 24 25  1  0
 25 26  1  0
 26 27  2  0
 27 28  1  0
 28 29  2  0
 29 30  1  0
 30 31  2  0
 31 32  1  0
 22  8  1  0
 32 23  1  0
 20 11  1  0
 31 26  1  0
 19 14  1  0
  1 33  1  0
  1 34  1  0
  5 35  1  0
  5 36  1  0
  6 37  1  0
  6 38  1  0
  7 39  1  0
  7 40  1  0
  9 41  1  0
 12 42  1  0
 12 43  1  0
 13 44  1  0
 13 45  1  0
 15 46  1  0
 16 47  1  0
 17 48  1  0
 18 49  1  0
 20 50  1  0
 20 51  1  0
 24 52  1  0
 24 53  1  0
 25 54  1  0
 25 55  1  0
 27 56  1  0
 28 57  1  0
 29 58  1  0
 30 59  1  0
 32 60  1  0
 32 61  1  0
M  END
>  <smiles>  (25) 
NS(=O)(=O)CCCn1cc(N2CCc3ccccc3C2)nc1N1CCc2ccccc2C1

>  <score_type>  (25) 
oracle

>  <origin>  (25) 
autodockgpu

>  <m_score__min__energy>  (25) 
-9.8200000000000003

>  <m_primary>  (25) 
energy

>  <rmsd>  (25) 
3.9200275880877555

>  <m_score__min__rmsd>  (25) 
3.9200275880877555

>  <meeko>  (25) 
{"free_energy": -8.2, "intermolecular_energy": -10.29, "internal_energy": -2.16, "cluster_size": 3, "cluster_id": 3, "rank_in_cluster": 2}

>  <energy>  (25) 
-8.97

>  <cluster_rmsd>  (25) 
1.52

>  <cluster>  (25) 
1

$$$$

     RDKit          3D

 61 65  0  0  0  0  0  0  0  0999 V2000
  145.9630   73.0660  221.1740 N   0  0  0  0  0  0  0  0  0  0  0  0
  145.0370   72.5180  219.8460 S   0  0  0  0  0  0  0  0  0  0  0  0
  143.9210   71.6590  220.3640 O   0  0  0  0  0  0  0  0  0  0  0  0
  145.9710   71.6990  218.9660 O   0  0  0  0  0  0  0  0  0  0  0  0
  144.4360   73.8380  218.8170 C   0  0  0  0  0  0  0  0  0  0  0  0
  143.3660   74.6640  219.4550 C   0  0  0  0  0  0  0  0  0  0  0  0
  141.9580   74.0960  219.1750 C   0  0  0  0  0  0  0  0  0  0  0  0
  141.2930   73.8110  220.4270 N   0  0  0  0  0  0  0  0  0  0  0  0
  141.1940   72.5500  220.9240 C   0  0  0  0  0  0  0  0  0  0  0  0
  140.5480   72.6580  222.1340 C   0  0  0  0  0  0  0  0  0  0  0  0
  140.1890   71.6070  223.0290 N   0  0  0  0  0  0  0  0  0  0  0  0
  139.0060   70.8320  222.7420 C   0  0  0  0  0  0  0  0  0  0  0  0
  138.6340   69.8100  223.7410 C   0  0  0  0  0  0  0  0  0  0  0  0
  139.2500   69.9020  225.0620 C   0  0  0  0  0  0  0  0  0  0  0  0
  138.6800   69.2390  226.1390 C   0  0  0  0  0  0  0  0  0  0  0  0
  139.2190   69.2890  227.3980 C   0  0  0  0  0  0  0  0  0  0  0  0
  140.3760   70.0440  227.5490 C   0  0  0  0  0  0  0  0  0  0  0  0
  140.9700   70.7170  226.5000 C   0  0  0  0  0  0  0  0  0  0  0  0
  140.3940   70.6410  225.2400 C   0  0  0  0  0  0  0  0  0  0  0  0
  141.0680   71.3850  224.1570 C   0  0  0  0  0  0  0  0  0  0  0  0
  140.2910   73.9640  222.3080 N   0  0  0  0  0  0  0  0  0  0  0  0
  140.7450   74.6810  221.2630 C   0  0  0  0  0  0  0  0  0  0  0  0
  140.5780   76.0740  221.1420 N   0  0  0  0  0  0  0  0  0  0  0  0
  139.9210   76.7640  222.2700 C   0  0  0  0  0  0  0  0  0  0  0  0
  141.0550   77.6070  222.8790 C   0  0  0  0  0  0  0  0  0  0  0  0
  141.3450   78.6430  221.8200 C   0  0  0  0  0  0  0  0  0  0  0  0
  141.6360   79.8960  222.2720 C   0  0  0  0  0  0  0  0  0  0  0  0
  141.9010   80.8730  221.3290 C   0  0  0  0  0  0  0  0  0  0  0  0
  141.8610   80.5480  219.9880 C   0  0  0  0  0  0  0  0  0  0  0  0
  141.5640   79.2720  219.5290 C   0  0  0  0  0  0  0  0  0  0  0  0
  141.2970   78.2890  220.4790 C   0  0  0  0  0  0  0  0  0  0  0  0
  140.9670   76.9030  220.0380 C   0  0  0  0  0  0  0  0  0  0  0  0
  145.5350   73.8770  221.6790 H   0  0  0  0  0  0  0  0  0  0  0  0
  146.1890   72.2960  221.8550 H   0  0  0  0  0  0  0  0  0  0  0  0
  145.2814   74.4971  218.5701 H   0  0  0  0  0  0  0  0  0  0  0  0
  143.9905   73.3710  217.9263 H   0  0  0  0  0  0  0  0  0  0  0  0
  143.5321   74.6834  220.5422 H   0  0  0  0  0  0  0  0  0  0  0  0
  143.4166   75.6767  219.0286 H   0  0  0  0  0  0  0  0  0  0  0  0
  141.3713   74.8341  218.6084 H   0  0  0  0  0  0  0  0  0  0  0  0
  142.0474   73.1693  218.5892 H   0  0  0  0  0  0  0  0  0  0  0  0
  141.5584   71.6256  220.4521 H   0  0  0  0  0  0  0  0  0  0  0  0
  138.1621   71.5313  222.6480 H   0  0  0  0  0  0  0  0  0  0  0  0
  139.2378   70.2730  221.8234 H   0  0  0  0  0  0  0  0  0  0  0  0
  137.5444   69.8674  223.8809 H   0  0  0  0  0  0  0  0  0  0  0  0
  139.0059   68.8625  223.3240 H   0  0  0  0  0  0  0  0  0  0  0  0
  137.7635   68.6527  225.9768 H   0  0  0  0  0  0  0  0  0  0  0  0
  138.7596   68.7589  228.2453 H   0  0  0  0  0  0  0  0  0  0  0  0
  140.8376   70.1080  228.5454 H   0  0  0  0  0  0  0  0  0  0  0  0
  141.8860   71.3045  226.6607 H   0  0  0  0  0  0  0  0  0  0  0  0
  141.3996   72.3587  224.5469 H   0  0  0  0  0  0  0  0  0  0  0  0
  141.9229   70.7854  223.8112 H   0  0  0  0  0  0  0  0  0  0  0  0
  139.1003   77.4050  221.9156 H   0  0  0  0  0  0  0  0  0  0  0  0
  139.4652   76.0704  222.9919 H   0  0  0  0  0  0  0  0  0  0  0  0
  140.7288   78.0844  223.8148 H   0  0  0  0  0  0  0  0  0  0  0  0
  141.9389   77.0057  223.1380 H   0  0  0  0  0  0  0  0  0  0  0  0
  141.6592   80.1221  223.3483 H   0  0  0  0  0  0  0  0  0  0  0  0
  142.1413   81.8989  221.6448 H   0  0  0  0  0  0  0  0  0  0  0  0
  142.0740   81.3354  219.2500 H   0  0  0  0  0  0  0  0  0  0  0  0
  141.5403   79.0452  218.4529 H   0  0  0  0  0  0  0  0  0  0  0  0
  140.1387   76.9464  219.3155 H   0  0  0  0  0  0  0  0  0  0  0  0
  141.8664   76.4652  219.5804 H   0  0  0  0  0  0  0  0  0  0  0  0
  1  2  1  0
  2  3  2  0
  2  4  2  0
  2  5  1  0
  5  6  1  0
  6  7  1  0
  7  8  1  0
  8  9  1  0
  9 10  2  0
 10 11  1  0
 11 12  1  0
 12 13  1  0
 13 14  1  0
 14 15  2  0
 15 16  1  0
 16 17  2  0
 17 18  1  0
 18 19  2  0
 19 20  1  0
 10 21  1  0
 21 22  2  0
 22 23  1  0
 23 24  1  0
 24 25  1  0
 25 26  1  0
 26 27  2  0
 27 28  1  0
 28 29  2  0
 29 30  1  0
 30 31  2  0
 31 32  1  0
 22  8  1  0
 32 23  1  0
 20 11  1  0
 31 26  1  0
 19 14  1  0
  1 33  1  0
  1 34  1  0
  5 35  1  0
  5 36  1  0
  6 37  1  0
  6 38  1  0
  7 39  1  0
  7 40  1  0
  9 41  1  0
 12 42  1  0
 12 43  1  0
 13 44  1  0
 13 45  1  0
 15 46  1  0
 16 47  1  0
 17 48  1  0
 18 49  1  0
 20 50  1  0
 20 51  1  0
 24 52  1  0
 24 53  1  0
 25 54  1  0
 25 55  1  0
 27 56  1  0
 28 57  1  0
 29 58  1  0
 30 59  1  0
 32 60  1  0
 32 61  1  0
M  END
>  <smiles>  (26) 
NS(=O)(=O)CCCn1cc(N2CCc3ccccc3C2)nc1N1CCc2ccccc2C1

>  <score_type>  (26) 
oracle

>  <origin>  (26) 
autodockgpu

>  <m_score__min__energy>  (26) 
-9.8200000000000003

>  <m_primary>  (26) 
energy

>  <rmsd>  (26) 
3.926085576814299

>  <m_score__min__rmsd>  (26) 
3.926085576814299

>  <meeko>  (26) 
{"free_energy": -9.03, "intermolecular_energy": -11.12, "internal_energy": -1.13, "cluster_size": 35, "cluster_id": 1, "rank_in_cluster": 22}

>  <energy>  (26) 
-8.96

>  <cluster_rmsd>  (26) 
0.58

>  <cluster>  (26) 
1

$$$$

     RDKit          3D

 61 65  0  0  0  0  0  0  0  0999 V2000
  145.3240   73.3910  218.9300 N   0  0  0  0  0  0  0  0  0  0  0  0
  143.8590   73.7270  219.7420 S   0  0  0  0  0  0  0  0  0  0  0  0
  143.5940   75.2020  219.6570 O   0  0  0  0  0  0  0  0  0  0  0  0
  144.0530   73.3070  221.1920 O   0  0  0  0  0  0  0  0  0  0  0  0
  142.4860   72.7710  219.1400 C   0  0  0  0  0  0  0  0  0  0  0  0
  141.5460   73.5410  218.2720 C   0  0  0  0  0  0  0  0  0  0  0  0
  140.0940   73.4740  218.7940 C   0  0  0  0  0  0  0  0  0  0  0  0
  140.1030   73.3240  220.2330 N   0  0  0  0  0  0  0  0  0  0  0  0
  140.0510   72.1070  220.8340 C   0  0  0  0  0  0  0  0  0  0  0  0
  140.1230   72.3400  222.1880 C   0  0  0  0  0  0  0  0  0  0  0  0
  140.0840   71.3780  223.2420 N   0  0  0  0  0  0  0  0  0  0  0  0
  139.3230   70.1680  223.0430 C   0  0  0  0  0  0  0  0  0  0  0  0
  139.2490   69.2440  224.1930 C   0  0  0  0  0  0  0  0  0  0  0  0
  139.6230   69.7670  225.5030 C   0  0  0  0  0  0  0  0  0  0  0  0
  139.2220   69.1030  226.6540 C   0  0  0  0  0  0  0  0  0  0  0  0
  139.5480   69.5490  227.9070 C   0  0  0  0  0  0  0  0  0  0  0  0
  140.3090   70.7100  227.9760 C   0  0  0  0  0  0  0  0  0  0  0  0
  140.7250   71.3970  226.8530 C   0  0  0  0  0  0  0  0  0  0  0  0
  140.3740   70.9140  225.6000 C   0  0  0  0  0  0  0  0  0  0  0  0
  140.8410   71.6910  224.4360 C   0  0  0  0  0  0  0  0  0  0  0  0
  140.2140   73.6700  222.3380 N   0  0  0  0  0  0  0  0  0  0  0  0
  140.2020   74.2850  221.1400 C   0  0  0  0  0  0  0  0  0  0  0  0
  140.2370   75.6830  220.9820 N   0  0  0  0  0  0  0  0  0  0  0  0
  139.6070   76.4880  222.0470 C   0  0  0  0  0  0  0  0  0  0  0  0
  140.8030   77.1860  222.7190 C   0  0  0  0  0  0  0  0  0  0  0  0
  141.3040   78.1420  221.6640 C   0  0  0  0  0  0  0  0  0  0  0  0
  141.7340   79.3560  222.1120 C   0  0  0  0  0  0  0  0  0  0  0  0
  142.1950   80.2610  221.1710 C   0  0  0  0  0  0  0  0  0  0  0  0
  142.2020   79.9060  219.8380 C   0  0  0  0  0  0  0  0  0  0  0  0
  141.7640   78.6700  219.3820 C   0  0  0  0  0  0  0  0  0  0  0  0
  141.2990   77.7600  220.3300 C   0  0  0  0  0  0  0  0  0  0  0  0
  140.8120   76.4200  219.8920 C   0  0  0  0  0  0  0  0  0  0  0  0
  145.6490   74.1680  218.3090 H   0  0  0  0  0  0  0  0  0  0  0  0
  146.0960   73.1080  219.5870 H   0  0  0  0  0  0  0  0  0  0  0  0
  142.8815   71.9258  218.5575 H   0  0  0  0  0  0  0  0  0  0  0  0
  141.9130   72.4459  220.0209 H   0  0  0  0  0  0  0  0  0  0  0  0
  141.8665   74.5930  218.2464 H   0  0  0  0  0  0  0  0  0  0  0  0
  141.5677   73.0952  217.2666 H   0  0  0  0  0  0  0  0  0  0  0  0
  139.5652   74.4005  218.5256 H   0  0  0  0  0  0  0  0  0  0  0  0
  139.5814   72.6132  218.3398 H   0  0  0  0  0  0  0  0  0  0  0  0
  139.9678   71.1293  220.3368 H   0  0  0  0  0  0  0  0  0  0  0  0
  138.2951   70.4582  222.7797 H   0  0  0  0  0  0  0  0  0  0  0  0
  139.8547   69.6137  222.2556 H   0  0  0  0  0  0  0  0  0  0  0  0
  138.2102   68.8893  224.2642 H   0  0  0  0  0  0  0  0  0  0  0  0
  139.9978   68.4676  223.9771 H   0  0  0  0  0  0  0  0  0  0  0  0
  138.6214   68.1866  226.5563 H   0  0  0  0  0  0  0  0  0  0  0  0
  139.2241   69.0156  228.8128 H   0  0  0  0  0  0  0  0  0  0  0  0
  140.5914   71.0974  228.9660 H   0  0  0  0  0  0  0  0  0  0  0  0
  141.3256   72.3134  226.9498 H   0  0  0  0  0  0  0  0  0  0  0  0
  140.7313   72.7631  224.6563 H   0  0  0  0  0  0  0  0  0  0  0  0
  141.8938   71.4311  224.2514 H   0  0  0  0  0  0  0  0  0  0  0  0
  138.9084   77.2244  221.6231 H   0  0  0  0  0  0  0  0  0  0  0  0
  139.0122   75.8839  222.7479 H   0  0  0  0  0  0  0  0  0  0  0  0
  140.4831   77.7299  223.6200 H   0  0  0  0  0  0  0  0  0  0  0  0
  141.5760   76.4775  223.0514 H   0  0  0  0  0  0  0  0  0  0  0  0
  141.7153   79.6074  223.1827 H   0  0  0  0  0  0  0  0  0  0  0  0
  142.5522   81.2534  221.4833 H   0  0  0  0  0  0  0  0  0  0  0  0
  142.5716   80.6358  219.1026 H   0  0  0  0  0  0  0  0  0  0  0  0
  141.7832   78.4179  218.3114 H   0  0  0  0  0  0  0  0  0  0  0  0
  140.0491   76.5554  219.1112 H   0  0  0  0  0  0  0  0  0  0  0  0
  141.6714   75.8508  219.5080 H   0  0  0  0  0  0  0  0  0  0  0  0
  1  2  1  0
  2  3  2  0
  2  4  2  0
  2  5  1  0
  5  6  1  0
  6  7  1  0
  7  8  1  0
  8  9  1  0
  9 10  2  0
 10 11  1  0
 11 12  1  0
 12 13  1  0
 13 14  1  0
 14 15  2  0
 15 16  1  0
 16 17  2  0
 17 18  1  0
 18 19  2  0
 19 20  1  0
 10 21  1  0
 21 22  2  0
 22 23  1  0
 23 24  1  0
 24 25  1  0
 25 26  1  0
 26 27  2  0
 27 28  1  0
 28 29  2  0
 29 30  1  0
 30 31  2  0
 31 32  1  0
 22  8  1  0
 32 23  1  0
 20 11  1  0
 31 26  1  0
 19 14  1  0
  1 33  1  0
  1 34  1  0
  5 35  1  0
  5 36  1  0
  6 37  1  0
  6 38  1  0
  7 39  1  0
  7 40  1  0
  9 41  1  0
 12 42  1  0
 12 43  1  0
 13 44  1  0
 13 45  1  0
 15 46  1  0
 16 47  1  0
 17 48  1  0
 18 49  1  0
 20 50  1  0
 20 51  1  0
 24 52  1  0
 24 53  1  0
 25 54  1  0
 25 55  1  0
 27 56  1  0
 28 57  1  0
 29 58  1  0
 30 59  1  0
 32 60  1  0
 32 61  1  0
M  END
>  <smiles>  (27) 
NS(=O)(=O)CCCn1cc(N2CCc3ccccc3C2)nc1N1CCc2ccccc2C1

>  <score_type>  (27) 
oracle

>  <origin>  (27) 
autodockgpu

>  <m_score__min__energy>  (27) 
-9.8200000000000003

>  <m_primary>  (27) 
energy

>  <rmsd>  (27) 
3.7855900904160493

>  <m_score__min__rmsd>  (27) 
3.7855900904160493

>  <meeko>  (27) 
{"free_energy": -8.06, "intermolecular_energy": -10.15, "internal_energy": -1.52, "cluster_size": 35, "cluster_id": 1, "rank_in_cluster": 34}

>  <energy>  (27) 
-8.93

>  <cluster_rmsd>  (27) 
1.97

>  <cluster>  (27) 
1

$$$$

     RDKit          3D

 61 65  0  0  0  0  0  0  0  0999 V2000
  145.0940   72.7870  221.2790 N   0  0  0  0  0  0  0  0  0  0  0  0
  144.6870   72.6420  219.6250 S   0  0  0  0  0  0  0  0  0  0  0  0
  145.9540   72.4890  218.8350 O   0  0  0  0  0  0  0  0  0  0  0  0
  143.9700   73.9260  219.2340 O   0  0  0  0  0  0  0  0  0  0  0  0
  143.5380   71.3250  219.2980 C   0  0  0  0  0  0  0  0  0  0  0  0
  142.1280   71.7840  219.1110 C   0  0  0  0  0  0  0  0  0  0  0  0
  141.2700   71.5310  220.3700 C   0  0  0  0  0  0  0  0  0  0  0  0
  140.9760   72.7910  221.0170 N   0  0  0  0  0  0  0  0  0  0  0  0
  141.3180   73.9860  220.4680 C   0  0  0  0  0  0  0  0  0  0  0  0
  140.8500   74.9550  221.3240 C   0  0  0  0  0  0  0  0  0  0  0  0
  140.9810   76.3700  221.1950 N   0  0  0  0  0  0  0  0  0  0  0  0
  141.5830   76.9000  219.9950 C   0  0  0  0  0  0  0  0  0  0  0  0
  141.7690   78.3640  219.9470 C   0  0  0  0  0  0  0  0  0  0  0  0
  141.6740   79.0980  221.2050 C   0  0  0  0  0  0  0  0  0  0  0  0
  142.2040   80.3760  221.3030 C   0  0  0  0  0  0  0  0  0  0  0  0
  142.1390   81.1100  222.4580 C   0  0  0  0  0  0  0  0  0  0  0  0
  141.5100   80.5080  223.5410 C   0  0  0  0  0  0  0  0  0  0  0  0
  140.9720   79.2380  223.4810 C   0  0  0  0  0  0  0  0  0  0  0  0
  141.0580   78.5270  222.2920 C   0  0  0  0  0  0  0  0  0  0  0  0
  140.4710   77.1720  222.2860 C   0  0  0  0  0  0  0  0  0  0  0  0
  140.2550   74.3080  222.3370 N   0  0  0  0  0  0  0  0  0  0  0  0
  140.3280   72.9760  222.1580 C   0  0  0  0  0  0  0  0  0  0  0  0
  139.8300   72.0370  223.0820 N   0  0  0  0  0  0  0  0  0  0  0  0
  138.6070   71.3070  222.6940 C   0  0  0  0  0  0  0  0  0  0  0  0
  139.1040   69.8670  222.4840 C   0  0  0  0  0  0  0  0  0  0  0  0
  139.4840   69.4080  223.8710 C   0  0  0  0  0  0  0  0  0  0  0  0
  139.1950   68.1100  224.1740 C   0  0  0  0  0  0  0  0  0  0  0  0
  139.5240   67.6580  225.4400 C   0  0  0  0  0  0  0  0  0  0  0  0
  140.1230   68.5230  226.3330 C   0  0  0  0  0  0  0  0  0  0  0  0
  140.4170   69.8440  226.0240 C   0  0  0  0  0  0  0  0  0  0  0  0
  140.0850   70.2990  224.7500 C   0  0  0  0  0  0  0  0  0  0  0  0
  140.3750   71.7120  224.3690 C   0  0  0  0  0  0  0  0  0  0  0  0
  144.2630   72.8720  221.9100 H   0  0  0  0  0  0  0  0  0  0  0  0
  145.7210   72.0100  221.6120 H   0  0  0  0  0  0  0  0  0  0  0  0
  143.8576   70.8059  218.3824 H   0  0  0  0  0  0  0  0  0  0  0  0
  143.5456   70.6682  220.1803 H   0  0  0  0  0  0  0  0  0  0  0  0
  142.1306   72.8621  218.8928 H   0  0  0  0  0  0  0  0  0  0  0  0
  141.6904   71.2129  218.2789 H   0  0  0  0  0  0  0  0  0  0  0  0
  140.3294   71.0401  220.0796 H   0  0  0  0  0  0  0  0  0  0  0  0
  141.8235   70.8831  221.0656 H   0  0  0  0  0  0  0  0  0  0  0  0
  141.8617   74.1465  219.5253 H   0  0  0  0  0  0  0  0  0  0  0  0
  142.5724   76.4328  219.8821 H   0  0  0  0  0  0  0  0  0  0  0  0
  140.8755   76.6679  219.1853 H   0  0  0  0  0  0  0  0  0  0  0  0
  142.7682   78.5554  219.5287 H   0  0  0  0  0  0  0  0  0  0  0  0
  140.9269   78.7333  219.3434 H   0  0  0  0  0  0  0  0  0  0  0  0
  142.6940   80.8159  220.4219 H   0  0  0  0  0  0  0  0  0  0  0  0
  142.5626   82.1230  222.5246 H   0  0  0  0  0  0  0  0  0  0  0  0
  141.4377   81.0668  224.4857 H   0  0  0  0  0  0  0  0  0  0  0  0
  140.4828   78.7964  224.3617 H   0  0  0  0  0  0  0  0  0  0  0  0
  140.7133   76.6748  223.2369 H   0  0  0  0  0  0  0  0  0  0  0  0
  139.3830   77.2714  222.1576 H   0  0  0  0  0  0  0  0  0  0  0  0
  137.8523   71.3505  223.4931 H   0  0  0  0  0  0  0  0  0  0  0  0
  138.1200   71.7279  221.8020 H   0  0  0  0  0  0  0  0  0  0  0  0
  138.3063   69.2345  222.0673 H   0  0  0  0  0  0  0  0  0  0  0  0
  139.9412   69.8067  221.7730 H   0  0  0  0  0  0  0  0  0  0  0  0
  138.7175   67.4461  223.4384 H   0  0  0  0  0  0  0  0  0  0  0  0
  139.3101   66.6192  225.7317 H   0  0  0  0  0  0  0  0  0  0  0  0
  140.3791   68.1487  227.3351 H   0  0  0  0  0  0  0  0  0  0  0  0
  140.8952   70.5080  226.7592 H   0  0  0  0  0  0  0  0  0  0  0  0
  139.9346   72.3819  225.1222 H   0  0  0  0  0  0  0  0  0  0  0  0
  141.4668   71.8370  224.3206 H   0  0  0  0  0  0  0  0  0  0  0  0
  1  2  1  0
  2  3  2  0
  2  4  2  0
  2  5  1  0
  5  6  1  0
  6  7  1  0
  7  8  1  0
  8  9  1  0
  9 10  2  0
 10 11  1  0
 11 12  1  0
 12 13  1  0
 13 14  1  0
 14 15  2  0
 15 16  1  0
 16 17  2  0
 17 18  1  0
 18 19  2  0
 19 20  1  0
 10 21  1  0
 21 22  2  0
 22 23  1  0
 23 24  1  0
 24 25  1  0
 25 26  1  0
 26 27  2  0
 27 28  1  0
 28 29  2  0
 29 30  1  0
 30 31  2  0
 31 32  1  0
 22  8  1  0
 32 23  1  0
 20 11  1  0
 31 26  1  0
 19 14  1  0
  1 33  1  0
  1 34  1  0
  5 35  1  0
  5 36  1  0
  6 37  1  0
  6 38  1  0
  7 39  1  0
  7 40  1  0
  9 41  1  0
 12 42  1  0
 12 43  1  0
 13 44  1  0
 13 45  1  0
 15 46  1  0
 16 47  1  0
 17 48  1  0
 18 49  1  0
 20 50  1  0
 20 51  1  0
 24 52  1  0
 24 53  1  0
 25 54  1  0
 25 55  1  0
 27 56  1  0
 28 57  1  0
 29 58  1  0
 30 59  1  0
 32 60  1  0
 32 61  1  0
M  END
>  <smiles>  (28) 
NS(=O)(=O)CCCn1cc(N2CCc3ccccc3C2)nc1N1CCc2ccccc2C1

>  <score_type>  (28) 
oracle

>  <origin>  (28) 
autodockgpu

>  <m_score__min__energy>  (28) 
-9.8200000000000003

>  <m_primary>  (28) 
energy

>  <rmsd>  (28) 
8.799458606945196

>  <m_score__min__rmsd>  (28) 
8.799458606945196

>  <meeko>  (28) 
{"free_energy": -9.09, "intermolecular_energy": -11.18, "internal_energy": -1.26, "cluster_size": 35, "cluster_id": 1, "rank_in_cluster": 19}

>  <energy>  (28) 
-8.85

>  <cluster_rmsd>  (28) 
1.85

>  <cluster>  (28) 
1

$$$$

     RDKit          3D

 61 65  0  0  0  0  0  0  0  0999 V2000
  146.6140   69.7200  219.1570 N   0  0  0  0  0  0  0  0  0  0  0  0
  145.6280   71.1110  219.0500 S   0  0  0  0  0  0  0  0  0  0  0  0
  145.7650   71.6890  217.6710 O   0  0  0  0  0  0  0  0  0  0  0  0
  146.1420   72.0960  220.0900 O   0  0  0  0  0  0  0  0  0  0  0  0
  143.9290   70.8020  219.4740 C   0  0  0  0  0  0  0  0  0  0  0  0
  143.4510   71.5710  220.6620 C   0  0  0  0  0  0  0  0  0  0  0  0
  141.9150   71.5050  220.8100 C   0  0  0  0  0  0  0  0  0  0  0  0
  141.4200   72.7750  221.2940 N   0  0  0  0  0  0  0  0  0  0  0  0
  141.7700   73.9560  220.7200 C   0  0  0  0  0  0  0  0  0  0  0  0
  141.0870   74.9360  221.4020 C   0  0  0  0  0  0  0  0  0  0  0  0
  141.1380   76.3460  221.1870 N   0  0  0  0  0  0  0  0  0  0  0  0
  141.6500   76.8330  219.9290 C   0  0  0  0  0  0  0  0  0  0  0  0
  141.7570   78.2990  219.7870 C   0  0  0  0  0  0  0  0  0  0  0  0
  141.6880   79.1010  221.0060 C   0  0  0  0  0  0  0  0  0  0  0  0
  142.1550   80.4070  221.0030 C   0  0  0  0  0  0  0  0  0  0  0  0
  142.1110   81.2030  222.1170 C   0  0  0  0  0  0  0  0  0  0  0  0
  141.5700   80.6360  223.2640 C   0  0  0  0  0  0  0  0  0  0  0  0
  141.0960   79.3400  223.3050 C   0  0  0  0  0  0  0  0  0  0  0  0
  141.1580   78.5650  222.1550 C   0  0  0  0  0  0  0  0  0  0  0  0
  140.6430   77.1860  222.2570 C   0  0  0  0  0  0  0  0  0  0  0  0
  140.3660   74.3080  222.3430 N   0  0  0  0  0  0  0  0  0  0  0  0
  140.5650   72.9780  222.2860 C   0  0  0  0  0  0  0  0  0  0  0  0
  139.9770   72.0630  223.1800 N   0  0  0  0  0  0  0  0  0  0  0  0
  138.7920   71.3280  222.6940 C   0  0  0  0  0  0  0  0  0  0  0  0
  139.2990   69.8820  222.5660 C   0  0  0  0  0  0  0  0  0  0  0  0
  139.5440   69.4550  223.9930 C   0  0  0  0  0  0  0  0  0  0  0  0
  139.2200   68.1660  224.2970 C   0  0  0  0  0  0  0  0  0  0  0  0
  139.4250   67.7420  225.5980 C   0  0  0  0  0  0  0  0  0  0  0  0
  139.9410   68.6250  226.5240 C   0  0  0  0  0  0  0  0  0  0  0  0
  140.2710   69.9380  226.2140 C   0  0  0  0  0  0  0  0  0  0  0  0
  140.0630   70.3640  224.9040 C   0  0  0  0  0  0  0  0  0  0  0  0
  140.3950   71.7670  224.5200 C   0  0  0  0  0  0  0  0  0  0  0  0
  147.0630   69.4520  218.2490 H   0  0  0  0  0  0  0  0  0  0  0  0
  147.3450   69.7980  219.9110 H   0  0  0  0  0  0  0  0  0  0  0  0
  143.3023   71.0726  218.6115 H   0  0  0  0  0  0  0  0  0  0  0  0
  143.8540   69.7356  219.7333 H   0  0  0  0  0  0  0  0  0  0  0  0
  143.9140   71.1513  221.5673 H   0  0  0  0  0  0  0  0  0  0  0  0
  143.7355   72.6245  220.5235 H   0  0  0  0  0  0  0  0  0  0  0  0
  141.4620   71.2839  219.8323 H   0  0  0  0  0  0  0  0  0  0  0  0
  141.6503   70.7126  221.5256 H   0  0  0  0  0  0  0  0  0  0  0  0
  142.4622   74.0997  219.8772 H   0  0  0  0  0  0  0  0  0  0  0  0
  142.6555   76.4090  219.7903 H   0  0  0  0  0  0  0  0  0  0  0  0
  140.9150   76.5191  219.1732 H   0  0  0  0  0  0  0  0  0  0  0  0
  142.7223   78.5139  219.3053 H   0  0  0  0  0  0  0  0  0  0  0  0
  140.8677   78.5904  219.2088 H   0  0  0  0  0  0  0  0  0  0  0  0
  142.5755   80.8181  220.0734 H   0  0  0  0  0  0  0  0  0  0  0  0
  142.4847   82.2375  222.1040 H   0  0  0  0  0  0  0  0  0  0  0  0
  141.5171   81.2454  224.1782 H   0  0  0  0  0  0  0  0  0  0  0  0
  140.6758   78.9280  224.2343 H   0  0  0  0  0  0  0  0  0  0  0  0
  140.9587   76.7585  223.2201 H   0  0  0  0  0  0  0  0  0  0  0  0
  139.5463   77.2245  222.1815 H   0  0  0  0  0  0  0  0  0  0  0  0
  137.9648   71.3928  223.4162 H   0  0  0  0  0  0  0  0  0  0  0  0
  138.3944   71.7293  221.7502 H   0  0  0  0  0  0  0  0  0  0  0  0
  138.5408   69.2422  222.0908 H   0  0  0  0  0  0  0  0  0  0  0  0
  140.1993   69.8023  221.9390 H   0  0  0  0  0  0  0  0  0  0  0  0
  138.8101   67.4870  223.5348 H   0  0  0  0  0  0  0  0  0  0  0  0
  139.1789   66.7107  225.8912 H   0  0  0  0  0  0  0  0  0  0  0  0
  140.0981   68.2732  227.5543 H   0  0  0  0  0  0  0  0  0  0  0  0
  140.6818   70.6172  226.9755 H   0  0  0  0  0  0  0  0  0  0  0  0
  139.8880   72.4555  225.2120 H   0  0  0  0  0  0  0  0  0  0  0  0
  141.4870   71.8880  224.5734 H   0  0  0  0  0  0  0  0  0  0  0  0
  1  2  1  0
  2  3  2  0
  2  4  2  0
  2  5  1  0
  5  6  1  0
  6  7  1  0
  7  8  1  0
  8  9  1  0
  9 10  2  0
 10 11  1  0
 11 12  1  0
 12 13  1  0
 13 14  1  0
 14 15  2  0
 15 16  1  0
 16 17  2  0
 17 18  1  0
 18 19  2  0
 19 20  1  0
 10 21  1  0
 21 22  2  0
 22 23  1  0
 23 24  1  0
 24 25  1  0
 25 26  1  0
 26 27  2  0
 27 28  1  0
 28 29  2  0
 29 30  1  0
 30 31  2  0
 31 32  1  0
 22  8  1  0
 32 23  1  0
 20 11  1  0
 31 26  1  0
 19 14  1  0
  1 33  1  0
  1 34  1  0
  5 35  1  0
  5 36  1  0
  6 37  1  0
  6 38  1  0
  7 39  1  0
  7 40  1  0
  9 41  1  0
 12 42  1  0
 12 43  1  0
 13 44  1  0
 13 45  1  0
 15 46  1  0
 16 47  1  0
 17 48  1  0
 18 49  1  0
 20 50  1  0
 20 51  1  0
 24 52  1  0
 24 53  1  0
 25 54  1  0
 25 55  1  0
 27 56  1  0
 28 57  1  0
 29 58  1  0
 30 59  1  0
 32 60  1  0
 32 61  1  0
M  END
>  <smiles>  (29) 
NS(=O)(=O)CCCn1cc(N2CCc3ccccc3C2)nc1N1CCc2ccccc2C1

>  <score_type>  (29) 
oracle

>  <origin>  (29) 
autodockgpu

>  <m_score__min__energy>  (29) 
-9.8200000000000003

>  <m_primary>  (29) 
energy

>  <rmsd>  (29) 
9.06233087809774

>  <m_score__min__rmsd>  (29) 
9.06233087809774

>  <meeko>  (29) 
{"free_energy": -8.97, "intermolecular_energy": -11.06, "internal_energy": -0.97, "cluster_size": 35, "cluster_id": 1, "rank_in_cluster": 25}

>  <energy>  (29) 
-8.81

>  <cluster_rmsd>  (29) 
1.56

>  <cluster>  (29) 
1

$$$$

     RDKit          3D

 61 65  0  0  0  0  0  0  0  0999 V2000
  144.0530   74.7180  219.3150 N   0  0  0  0  0  0  0  0  0  0  0  0
  144.2580   73.0270  219.4620 S   0  0  0  0  0  0  0  0  0  0  0  0
  143.8360   72.6140  220.8420 O   0  0  0  0  0  0  0  0  0  0  0  0
  145.7390   72.7440  219.2540 O   0  0  0  0  0  0  0  0  0  0  0  0
  143.4060   72.1050  218.2040 C   0  0  0  0  0  0  0  0  0  0  0  0
  141.9370   71.9700  218.4410 C   0  0  0  0  0  0  0  0  0  0  0  0
  141.3090   73.2950  218.9270 C   0  0  0  0  0  0  0  0  0  0  0  0
  140.9410   73.1740  220.3200 N   0  0  0  0  0  0  0  0  0  0  0  0
  140.8940   71.9730  220.9560 C   0  0  0  0  0  0  0  0  0  0  0  0
  140.5550   72.2390  222.2620 C   0  0  0  0  0  0  0  0  0  0  0  0
  140.3600   71.3030  223.3210 N   0  0  0  0  0  0  0  0  0  0  0  0
  139.4950   70.1710  223.0890 C   0  0  0  0  0  0  0  0  0  0  0  0
  139.2630   69.2760  224.2410 C   0  0  0  0  0  0  0  0  0  0  0  0
  139.6120   69.7790  225.5660 C   0  0  0  0  0  0  0  0  0  0  0  0
  139.0810   69.1760  226.6970 C   0  0  0  0  0  0  0  0  0  0  0  0
  139.3780   69.6050  227.9630 C   0  0  0  0  0  0  0  0  0  0  0  0
  140.2450   70.6860  228.0660 C   0  0  0  0  0  0  0  0  0  0  0  0
  140.7910   71.3120  226.9630 C   0  0  0  0  0  0  0  0  0  0  0  0
  140.4660   70.8470  225.6960 C   0  0  0  0  0  0  0  0  0  0  0  0
  141.0740   71.5570  224.5540 C   0  0  0  0  0  0  0  0  0  0  0  0
  140.4150   73.5700  222.3520 N   0  0  0  0  0  0  0  0  0  0  0  0
  140.6490   74.1540  221.1620 C   0  0  0  0  0  0  0  0  0  0  0  0
  140.5320   75.5390  220.9370 N   0  0  0  0  0  0  0  0  0  0  0  0
  139.7150   76.3020  221.9010 C   0  0  0  0  0  0  0  0  0  0  0  0
  140.7510   77.1680  222.6380 C   0  0  0  0  0  0  0  0  0  0  0  0
  141.2300   78.1360  221.5840 C   0  0  0  0  0  0  0  0  0  0  0  0
  141.4700   79.4110  222.0060 C   0  0  0  0  0  0  0  0  0  0  0  0
  141.9040   80.3270  221.0640 C   0  0  0  0  0  0  0  0  0  0  0  0
  142.0760   79.9240  219.7560 C   0  0  0  0  0  0  0  0  0  0  0  0
  141.8330   78.6260  219.3270 C   0  0  0  0  0  0  0  0  0  0  0  0
  141.3940   77.7040  220.2760 C   0  0  0  0  0  0  0  0  0  0  0  0
  141.1130   76.2980  219.8660 C   0  0  0  0  0  0  0  0  0  0  0  0
  144.7400   75.1700  218.6670 H   0  0  0  0  0  0  0  0  0  0  0  0
  143.0720   74.9850  219.0440 H   0  0  0  0  0  0  0  0  0  0  0  0
  143.5558   72.6141  217.2405 H   0  0  0  0  0  0  0  0  0  0  0  0
  143.8254   71.0882  218.2148 H   0  0  0  0  0  0  0  0  0  0  0  0
  141.4510   71.6696  217.5010 H   0  0  0  0  0  0  0  0  0  0  0  0
  141.7857   71.2129  219.2245 H   0  0  0  0  0  0  0  0  0  0  0  0
  142.0381   74.1104  218.8103 H   0  0  0  0  0  0  0  0  0  0  0  0
  140.4120   73.5154  218.3296 H   0  0  0  0  0  0  0  0  0  0  0  0
  141.0885   70.9848  220.5136 H   0  0  0  0  0  0  0  0  0  0  0  0
  138.5180   70.5573  222.7630 H   0  0  0  0  0  0  0  0  0  0  0  0
  140.0137   69.5550  222.3396 H   0  0  0  0  0  0  0  0  0  0  0  0
  138.1915   69.0274  224.2546 H   0  0  0  0  0  0  0  0  0  0  0  0
  139.9412   68.4257  224.0764 H   0  0  0  0  0  0  0  0  0  0  0  0
  138.3973   68.3233  226.5724 H   0  0  0  0  0  0  0  0  0  0  0  0
  138.9520   69.1187  228.8530 H   0  0  0  0  0  0  0  0  0  0  0  0
  140.5071   71.0583  229.0673 H   0  0  0  0  0  0  0  0  0  0  0  0
  141.4731   72.1661  227.0864 H   0  0  0  0  0  0  0  0  0  0  0  0
  141.0590   72.6378  224.7579 H   0  0  0  0  0  0  0  0  0  0  0  0
  142.1045   71.1915  224.4337 H   0  0  0  0  0  0  0  0  0  0  0  0
  138.9759   76.9292  221.3811 H   0  0  0  0  0  0  0  0  0  0  0  0
  139.1345   75.6574  222.5774 H   0  0  0  0  0  0  0  0  0  0  0  0
  140.2863   77.7035  223.4790 H   0  0  0  0  0  0  0  0  0  0  0  0
  141.5689   76.5741  223.0719 H   0  0  0  0  0  0  0  0  0  0  0  0
  141.3238   79.7004  223.0571 H   0  0  0  0  0  0  0  0  0  0  0  0
  142.1101   81.3674  221.3556 H   0  0  0  0  0  0  0  0  0  0  0  0
  142.4213   80.6645  219.0195 H   0  0  0  0  0  0  0  0  0  0  0  0
  141.9815   78.3357  218.2764 H   0  0  0  0  0  0  0  0  0  0  0  0
  140.4149   76.3072  219.0159 H   0  0  0  0  0  0  0  0  0  0  0  0
  142.0663   75.8247  219.5879 H   0  0  0  0  0  0  0  0  0  0  0  0
  1  2  1  0
  2  3  2  0
  2  4  2  0
  2  5  1  0
  5  6  1  0
  6  7  1  0
  7  8  1  0
  8  9  1  0
  9 10  2  0
 10 11  1  0
 11 12  1  0
 12 13  1  0
 13 14  1  0
 14 15  2  0
 15 16  1  0
 16 17  2  0
 17 18  1  0
 18 19  2  0
 19 20  1  0
 10 21  1  0
 21 22  2  0
 22 23  1  0
 23 24  1  0
 24 25  1  0
 25 26  1  0
 26 27  2  0
 27 28  1  0
 28 29  2  0
 29 30  1  0
 30 31  2  0
 31 32  1  0
 22  8  1  0
 32 23  1  0
 20 11  1  0
 31 26  1  0
 19 14  1  0
  1 33  1  0
  1 34  1  0
  5 35  1  0
  5 36  1  0
  6 37  1  0
  6 38  1  0
  7 39  1  0
  7 40  1  0
  9 41  1  0
 12 42  1  0
 12 43  1  0
 13 44  1  0
 13 45  1  0
 15 46  1  0
 16 47  1  0
 17 48  1  0
 18 49  1  0
 20 50  1  0
 20 51  1  0
 24 52  1  0
 24 53  1  0
 25 54  1  0
 25 55  1  0
 27 56  1  0
 28 57  1  0
 29 58  1  0
 30 59  1  0
 32 60  1  0
 32 61  1  0
M  END
>  <smiles>  (30) 
NS(=O)(=O)CCCn1cc(N2CCc3ccccc3C2)nc1N1CCc2ccccc2C1

>  <score_type>  (30) 
oracle

>  <origin>  (30) 
autodockgpu

>  <m_score__min__energy>  (30) 
-9.8200000000000003

>  <m_primary>  (30) 
energy

>  <rmsd>  (30) 
4.1033230150314

>  <m_score__min__rmsd>  (30) 
4.1033230150314

>  <meeko>  (30) 
{"free_energy": -8.34, "intermolecular_energy": -10.42, "internal_energy": -1.38, "cluster_size": 35, "cluster_id": 1, "rank_in_cluster": 32}

>  <energy>  (30) 
-8.77

>  <cluster_rmsd>  (30) 
1.7

>  <cluster>  (30) 
1

$$$$

     RDKit          3D

 61 65  0  0  0  0  0  0  0  0999 V2000
  144.2880   72.1260  220.9690 N   0  0  0  0  0  0  0  0  0  0  0  0
  145.1360   73.3450  220.1220 S   0  0  0  0  0  0  0  0  0  0  0  0
  146.1850   72.6910  219.2700 O   0  0  0  0  0  0  0  0  0  0  0  0
  145.7860   74.2360  221.1710 O   0  0  0  0  0  0  0  0  0  0  0  0
  144.0760   74.4080  219.1710 C   0  0  0  0  0  0  0  0  0  0  0  0
  142.7830   73.7730  218.7710 C   0  0  0  0  0  0  0  0  0  0  0  0
  141.5730   74.6690  219.1120 C   0  0  0  0  0  0  0  0  0  0  0  0
  141.0080   74.2600  220.3790 N   0  0  0  0  0  0  0  0  0  0  0  0
  140.9250   72.9550  220.7480 C   0  0  0  0  0  0  0  0  0  0  0  0
  140.3840   72.9420  222.0120 C   0  0  0  0  0  0  0  0  0  0  0  0
  140.0790   71.8050  222.8190 N   0  0  0  0  0  0  0  0  0  0  0  0
  138.9350   70.9990  222.4690 C   0  0  0  0  0  0  0  0  0  0  0  0
  138.6160   69.8820  223.3820 C   0  0  0  0  0  0  0  0  0  0  0  0
  139.2280   69.8980  224.7070 C   0  0  0  0  0  0  0  0  0  0  0  0
  138.6940   69.1240  225.7260 C   0  0  0  0  0  0  0  0  0  0  0  0
  139.2310   69.1000  226.9860 C   0  0  0  0  0  0  0  0  0  0  0  0
  140.3500   69.8960  227.2000 C   0  0  0  0  0  0  0  0  0  0  0  0
  140.9090   70.6800  226.2100 C   0  0  0  0  0  0  0  0  0  0  0  0
  140.3350   70.6770  224.9460 C   0  0  0  0  0  0  0  0  0  0  0  0
  140.9690   71.5380  223.9280 C   0  0  0  0  0  0  0  0  0  0  0  0
  140.1690   74.2240  222.3430 N   0  0  0  0  0  0  0  0  0  0  0  0
  140.5490   75.0430  221.3450 C   0  0  0  0  0  0  0  0  0  0  0  0
  140.4010   76.4420  221.3850 N   0  0  0  0  0  0  0  0  0  0  0  0
  139.0220   76.9670  221.3230 C   0  0  0  0  0  0  0  0  0  0  0  0
  138.8020   77.5540  222.7280 C   0  0  0  0  0  0  0  0  0  0  0  0
  139.7360   78.7390  222.7750 C   0  0  0  0  0  0  0  0  0  0  0  0
  139.2680   79.8440  223.4230 C   0  0  0  0  0  0  0  0  0  0  0  0
  140.0960   80.9520  223.4810 C   0  0  0  0  0  0  0  0  0  0  0  0
  141.3420   80.8980  222.8910 C   0  0  0  0  0  0  0  0  0  0  0  0
  141.8170   79.7720  222.2320 C   0  0  0  0  0  0  0  0  0  0  0  0
  140.9830   78.6580  222.1730 C   0  0  0  0  0  0  0  0  0  0  0  0
  141.4440   77.4240  221.4710 C   0  0  0  0  0  0  0  0  0  0  0  0
  143.9470   71.3480  220.3560 H   0  0  0  0  0  0  0  0  0  0  0  0
  144.8380   71.7340  221.7760 H   0  0  0  0  0  0  0  0  0  0  0  0
  143.8518   75.3014  219.7723 H   0  0  0  0  0  0  0  0  0  0  0  0
  144.6146   74.6483  218.2425 H   0  0  0  0  0  0  0  0  0  0  0  0
  142.7965   73.5911  217.6862 H   0  0  0  0  0  0  0  0  0  0  0  0
  142.6783   72.8310  219.3293 H   0  0  0  0  0  0  0  0  0  0  0  0
  141.9007   75.7169  219.1786 H   0  0  0  0  0  0  0  0  0  0  0  0
  140.8120   74.5705  218.3239 H   0  0  0  0  0  0  0  0  0  0  0  0
  141.2303   72.0815  220.1531 H   0  0  0  0  0  0  0  0  0  0  0  0
  138.0576   71.6614  222.4308 H   0  0  0  0  0  0  0  0  0  0  0  0
  139.1914   70.5281  221.5085 H   0  0  0  0  0  0  0  0  0  0  0  0
  137.5251   69.8733  223.5232 H   0  0  0  0  0  0  0  0  0  0  0  0
  139.0345   68.9910  222.8911 H   0  0  0  0  0  0  0  0  0  0  0  0
  137.8078   68.5074  225.5152 H   0  0  0  0  0  0  0  0  0  0  0  0
  138.7988   68.4825  227.7872 H   0  0  0  0  0  0  0  0  0  0  0  0
  140.8095   69.9018  228.1994 H   0  0  0  0  0  0  0  0  0  0  0  0
  141.7951   71.2971  226.4197 H   0  0  0  0  0  0  0  0  0  0  0  0
  141.2515   72.4928  224.3954 H   0  0  0  0  0  0  0  0  0  0  0  0
  141.8525   71.0116  223.5377 H   0  0  0  0  0  0  0  0  0  0  0  0
  138.9316   77.7463  220.5520 H   0  0  0  0  0  0  0  0  0  0  0  0
  138.2810   76.1988  221.0571 H   0  0  0  0  0  0  0  0  0  0  0  0
  137.7576   77.8730  222.8600 H   0  0  0  0  0  0  0  0  0  0  0  0
  138.9992   76.8256  223.5284 H   0  0  0  0  0  0  0  0  0  0  0  0
  138.2688   79.8545  223.8829 H   0  0  0  0  0  0  0  0  0  0  0  0
  139.7635   81.8671  223.9928 H   0  0  0  0  0  0  0  0  0  0  0  0
  141.9879   81.7867  222.9451 H   0  0  0  0  0  0  0  0  0  0  0  0
  142.8165   79.7601  221.7728 H   0  0  0  0  0  0  0  0  0  0  0  0
  141.7665   77.6917  220.4540 H   0  0  0  0  0  0  0  0  0  0  0  0
  142.2756   76.9919  222.0469 H   0  0  0  0  0  0  0  0  0  0  0  0
  1  2  1  0
  2  3  2  0
  2  4  2  0
  2  5  1  0
  5  6  1  0
  6  7  1  0
  7  8  1  0
  8  9  1  0
  9 10  2  0
 10 11  1  0
 11 12  1  0
 12 13  1  0
 13 14  1  0
 14 15  2  0
 15 16  1  0
 16 17  2  0
 17 18  1  0
 18 19  2  0
 19 20  1  0
 10 21  1  0
 21 22  2  0
 22 23  1  0
 23 24  1  0
 24 25  1  0
 25 26  1  0
 26 27  2  0
 27 28  1  0
 28 29  2  0
 29 30  1  0
 30 31  2  0
 31 32  1  0
 22  8  1  0
 32 23  1  0
 20 11  1  0
 31 26  1  0
 19 14  1  0
  1 33  1  0
  1 34  1  0
  5 35  1  0
  5 36  1  0
  6 37  1  0
  6 38  1  0
  7 39  1  0
  7 40  1  0
  9 41  1  0
 12 42  1  0
 12 43  1  0
 13 44  1  0
 13 45  1  0
 15 46  1  0
 16 47  1  0
 17 48  1  0
 18 49  1  0
 20 50  1  0
 20 51  1  0
 24 52  1  0
 24 53  1  0
 25 54  1  0
 25 55  1  0
 27 56  1  0
 28 57  1  0
 29 58  1  0
 30 59  1  0
 32 60  1  0
 32 61  1  0
M  END
>  <smiles>  (31) 
NS(=O)(=O)CCCn1cc(N2CCc3ccccc3C2)nc1N1CCc2ccccc2C1

>  <score_type>  (31) 
oracle

>  <origin>  (31) 
autodockgpu

>  <m_score__min__energy>  (31) 
-9.8200000000000003

>  <m_primary>  (31) 
energy

>  <rmsd>  (31) 
3.6285693643781327

>  <m_score__min__rmsd>  (31) 
3.6285693643781327

>  <meeko>  (31) 
{"free_energy": -9.35, "intermolecular_energy": -11.44, "internal_energy": -1.13, "cluster_size": 35, "cluster_id": 1, "rank_in_cluster": 10}

>  <energy>  (31) 
-8.47

>  <cluster_rmsd>  (31) 
1.73

>  <cluster>  (31) 
1

$$$$

     RDKit          3D

 61 65  0  0  0  0  0  0  0  0999 V2000
  139.2640   73.8820  222.3360 N   0  0  0  0  0  0  0  0  0  0  0  0
  140.5580   74.2520  221.2830 S   0  0  0  0  0  0  0  0  0  0  0  0
  141.3000   72.9830  220.9760 O   0  0  0  0  0  0  0  0  0  0  0  0
  141.4610   75.2280  222.0210 O   0  0  0  0  0  0  0  0  0  0  0  0
  140.0410   75.0930  219.8040 C   0  0  0  0  0  0  0  0  0  0  0  0
  138.6280   74.8100  219.4090 C   0  0  0  0  0  0  0  0  0  0  0  0
  137.6860   75.9800  219.7660 C   0  0  0  0  0  0  0  0  0  0  0  0
  137.3970   75.9550  221.1830 N   0  0  0  0  0  0  0  0  0  0  0  0
  136.5200   75.0710  221.7280 C   0  0  0  0  0  0  0  0  0  0  0  0
  136.5280   75.3030  223.0840 C   0  0  0  0  0  0  0  0  0  0  0  0
  135.7560   74.6440  224.0860 N   0  0  0  0  0  0  0  0  0  0  0  0
  135.4430   73.2460  223.9060 C   0  0  0  0  0  0  0  0  0  0  0  0
  134.5750   72.6320  224.9310 C   0  0  0  0  0  0  0  0  0  0  0  0
  133.8290   73.5290  225.8090 C   0  0  0  0  0  0  0  0  0  0  0  0
  132.7320   73.0560  226.5140 C   0  0  0  0  0  0  0  0  0  0  0  0
  132.0010   73.8530  227.3530 C   0  0  0  0  0  0  0  0  0  0  0  0
  132.4120   75.1750  227.4690 C   0  0  0  0  0  0  0  0  0  0  0  0
  133.4990   75.6820  226.7840 C   0  0  0  0  0  0  0  0  0  0  0  0
  134.2140   74.8420  225.9420 C   0  0  0  0  0  0  0  0  0  0  0  0
  135.3620   75.4380  225.2310 C   0  0  0  0  0  0  0  0  0  0  0  0
  137.3990   76.3030  223.2900 N   0  0  0  0  0  0  0  0  0  0  0  0
  137.9380   76.7120  222.1270 C   0  0  0  0  0  0  0  0  0  0  0  0
  138.8510   77.7780  222.0230 N   0  0  0  0  0  0  0  0  0  0  0  0
  138.2860   79.1410  222.0490 C   0  0  0  0  0  0  0  0  0  0  0  0
  138.7780   79.7050  223.3920 C   0  0  0  0  0  0  0  0  0  0  0  0
  140.2710   79.8370  223.2050 C   0  0  0  0  0  0  0  0  0  0  0  0
  140.8500   80.9350  223.7690 C   0  0  0  0  0  0  0  0  0  0  0  0
  142.2160   81.0910  223.6110 C   0  0  0  0  0  0  0  0  0  0  0  0
  142.9290   80.1460  222.9020 C   0  0  0  0  0  0  0  0  0  0  0  0
  142.3370   79.0280  222.3290 C   0  0  0  0  0  0  0  0  0  0  0  0
  140.9620   78.8720  222.4870 C   0  0  0  0  0  0  0  0  0  0  0  0
  140.2770   77.6910  221.8850 C   0  0  0  0  0  0  0  0  0  0  0  0
  139.5170   73.2010  223.0900 H   0  0  0  0  0  0  0  0  0  0  0  0
  138.8270   74.7410  222.7580 H   0  0  0  0  0  0  0  0  0  0  0  0
  140.1448   76.1759  219.9671 H   0  0  0  0  0  0  0  0  0  0  0  0
  140.6804   74.7256  218.9878 H   0  0  0  0  0  0  0  0  0  0  0  0
  138.5893   74.6408  218.3228 H   0  0  0  0  0  0  0  0  0  0  0  0
  138.2911   73.9200  219.9608 H   0  0  0  0  0  0  0  0  0  0  0  0
  138.1716   76.9328  219.5081 H   0  0  0  0  0  0  0  0  0  0  0  0
  136.7481   75.8798  219.2000 H   0  0  0  0  0  0  0  0  0  0  0  0
  135.9225   74.3193  221.1913 H   0  0  0  0  0  0  0  0  0  0  0  0
  134.9410   73.1376  222.9333 H   0  0  0  0  0  0  0  0  0  0  0  0
  136.4050   72.7181  223.9823 H   0  0  0  0  0  0  0  0  0  0  0  0
  133.8429   72.0000  224.4070 H   0  0  0  0  0  0  0  0  0  0  0  0
  135.2661   72.0972  225.5991 H   0  0  0  0  0  0  0  0  0  0  0  0
  132.4390   72.0025  226.3945 H   0  0  0  0  0  0  0  0  0  0  0  0
  131.1328   73.4666  227.9069 H   0  0  0  0  0  0  0  0  0  0  0  0
  131.8483   75.8459  228.1340 H   0  0  0  0  0  0  0  0  0  0  0  0
  133.7933   76.7351  226.9040 H   0  0  0  0  0  0  0  0  0  0  0  0
  135.0840   76.4453  224.8872 H   0  0  0  0  0  0  0  0  0  0  0  0
  136.2122   75.4789  225.9278 H   0  0  0  0  0  0  0  0  0  0  0  0
  138.6648   79.7402  221.2079 H   0  0  0  0  0  0  0  0  0  0  0  0
  137.1902   79.1536  221.9535 H   0  0  0  0  0  0  0  0  0  0  0  0
  138.3210   80.6845  223.5962 H   0  0  0  0  0  0  0  0  0  0  0  0
  138.5122   79.0630  224.2448 H   0  0  0  0  0  0  0  0  0  0  0  0
  140.2532   81.6699  224.3291 H   0  0  0  0  0  0  0  0  0  0  0  0
  142.7290   81.9609  224.0469 H   0  0  0  0  0  0  0  0  0  0  0  0
  144.0140   80.2843  222.7855 H   0  0  0  0  0  0  0  0  0  0  0  0
  142.9331   78.2916  221.7700 H   0  0  0  0  0  0  0  0  0  0  0  0
  140.5293   77.6392  220.8156 H   0  0  0  0  0  0  0  0  0  0  0  0
  140.6187   76.7893  222.4143 H   0  0  0  0  0  0  0  0  0  0  0  0
  1  2  1  0
  2  3  2  0
  2  4  2  0
  2  5  1  0
  5  6  1  0
  6  7  1  0
  7  8  1  0
  8  9  1  0
  9 10  2  0
 10 11  1  0
 11 12  1  0
 12 13  1  0
 13 14  1  0
 14 15  2  0
 15 16  1  0
 16 17  2  0
 17 18  1  0
 18 19  2  0
 19 20  1  0
 10 21  1  0
 21 22  2  0
 22 23  1  0
 23 24  1  0
 24 25  1  0
 25 26  1  0
 26 27  2  0
 27 28  1  0
 28 29  2  0
 29 30  1  0
 30 31  2  0
 31 32  1  0
 22  8  1  0
 32 23  1  0
 20 11  1  0
 31 26  1  0
 19 14  1  0
  1 33  1  0
  1 34  1  0
  5 35  1  0
  5 36  1  0
  6 37  1  0
  6 38  1  0
  7 39  1  0
  7 40  1  0
  9 41  1  0
 12 42  1  0
 12 43  1  0
 13 44  1  0
 13 45  1  0
 15 46  1  0
 16 47  1  0
 17 48  1  0
 18 49  1  0
 20 50  1  0
 20 51  1  0
 24 52  1  0
 24 53  1  0
 25 54  1  0
 25 55  1  0
 27 56  1  0
 28 57  1  0
 29 58  1  0
 30 59  1  0
 32 60  1  0
 32 61  1  0
M  END
>  <smiles>  (32) 
NS(=O)(=O)CCCn1cc(N2CCc3ccccc3C2)nc1N1CCc2ccccc2C1

>  <score_type>  (32) 
oracle

>  <origin>  (32) 
autodockgpu

>  <m_score__min__energy>  (32) 
-9.8200000000000003

>  <m_primary>  (32) 
energy

>  <rmsd>  (32) 
6.490595768718295

>  <m_score__min__rmsd>  (32) 
6.490595768718295

>  <meeko>  (32) 
{"free_energy": -8.02, "intermolecular_energy": -10.11, "internal_energy": -2.1, "cluster_size": 2, "cluster_id": 5, "rank_in_cluster": 1}

>  <energy>  (32) 
-8.34

>  <cluster_rmsd>  (32) 
1.6

>  <cluster>  (32) 
1

$$$$

     RDKit          3D

 61 65  0  0  0  0  0  0  0  0999 V2000
  146.6510   72.9360  221.2020 N   0  0  0  0  0  0  0  0  0  0  0  0
  145.6270   72.7010  219.8540 S   0  0  0  0  0  0  0  0  0  0  0  0
  145.4810   71.2250  219.6180 O   0  0  0  0  0  0  0  0  0  0  0  0
  146.3080   73.3620  218.6640 O   0  0  0  0  0  0  0  0  0  0  0  0
  144.0510   73.5050  220.0200 C   0  0  0  0  0  0  0  0  0  0  0  0
  142.9380   72.5850  220.4020 C   0  0  0  0  0  0  0  0  0  0  0  0
  141.5800   73.0590  219.8410 C   0  0  0  0  0  0  0  0  0  0  0  0
  140.9760   73.9970  220.7620 N   0  0  0  0  0  0  0  0  0  0  0  0
  141.1680   75.3380  220.6610 C   0  0  0  0  0  0  0  0  0  0  0  0
  140.4180   75.9140  221.6600 C   0  0  0  0  0  0  0  0  0  0  0  0
  140.3060   77.3000  221.9790 N   0  0  0  0  0  0  0  0  0  0  0  0
  139.3880   78.1110  221.2150 C   0  0  0  0  0  0  0  0  0  0  0  0
  139.3700   79.5540  221.5310 C   0  0  0  0  0  0  0  0  0  0  0  0
  140.4900   80.0910  222.2980 C   0  0  0  0  0  0  0  0  0  0  0  0
  140.7370   81.4560  222.3000 C   0  0  0  0  0  0  0  0  0  0  0  0
  141.7710   82.0120  223.0050 C   0  0  0  0  0  0  0  0  0  0  0  0
  142.5720   81.1360  223.7270 C   0  0  0  0  0  0  0  0  0  0  0  0
  142.3570   79.7730  223.7480 C   0  0  0  0  0  0  0  0  0  0  0  0
  141.2990   79.2470  223.0210 C   0  0  0  0  0  0  0  0  0  0  0  0
  141.1200   77.7830  223.0740 C   0  0  0  0  0  0  0  0  0  0  0  0
  139.8160   74.9060  222.3090 N   0  0  0  0  0  0  0  0  0  0  0  0
  140.1540   73.7220  221.7650 C   0  0  0  0  0  0  0  0  0  0  0  0
  139.7130   72.4810  222.2630 N   0  0  0  0  0  0  0  0  0  0  0  0
  140.7570   71.4940  222.6050 C   0  0  0  0  0  0  0  0  0  0  0  0
  140.6720   71.4050  224.1390 C   0  0  0  0  0  0  0  0  0  0  0  0
  139.3330   70.7550  224.3900 C   0  0  0  0  0  0  0  0  0  0  0  0
  139.2860   69.8610  225.4200 C   0  0  0  0  0  0  0  0  0  0  0  0
  138.0750   69.2410  225.6750 C   0  0  0  0  0  0  0  0  0  0  0  0
  136.9810   69.5440  224.8920 C   0  0  0  0  0  0  0  0  0  0  0  0
  137.0300   70.4540  223.8440 C   0  0  0  0  0  0  0  0  0  0  0  0
  138.2490   71.0770  223.5870 C   0  0  0  0  0  0  0  0  0  0  0  0
  138.3570   72.0590  222.4680 C   0  0  0  0  0  0  0  0  0  0  0  0
  146.6440   73.9160  221.5700 H   0  0  0  0  0  0  0  0  0  0  0  0
  146.4550   72.2570  221.9830 H   0  0  0  0  0  0  0  0  0  0  0  0
  144.1387   74.2820  220.7936 H   0  0  0  0  0  0  0  0  0  0  0  0
  143.7983   73.9180  219.0323 H   0  0  0  0  0  0  0  0  0  0  0  0
  143.1550   71.5815  220.0072 H   0  0  0  0  0  0  0  0  0  0  0  0
  142.8676   72.5730  221.4997 H   0  0  0  0  0  0  0  0  0  0  0  0
  141.7364   73.5494  218.8689 H   0  0  0  0  0  0  0  0  0  0  0  0
  140.9147   72.1924  219.7130 H   0  0  0  0  0  0  0  0  0  0  0  0
  141.7983   75.8599  219.9260 H   0  0  0  0  0  0  0  0  0  0  0  0
  139.6510   78.0040  220.1523 H   0  0  0  0  0  0  0  0  0  0  0  0
  138.3849   77.7416  221.4743 H   0  0  0  0  0  0  0  0  0  0  0  0
  139.3328   80.0997  220.5766 H   0  0  0  0  0  0  0  0  0  0  0  0
  138.4947   79.6865  222.1839 H   0  0  0  0  0  0  0  0  0  0  0  0
  140.0790   82.1151  221.7146 H   0  0  0  0  0  0  0  0  0  0  0  0
  141.9577   83.0960  222.9999 H   0  0  0  0  0  0  0  0  0  0  0  0
  143.4126   81.5460  224.3060 H   0  0  0  0  0  0  0  0  0  0  0  0
  143.0149   79.1132  224.3327 H   0  0  0  0  0  0  0  0  0  0  0  0
  142.1077   77.3016  223.0225 H   0  0  0  0  0  0  0  0  0  0  0  0
  140.6076   77.5355  224.0154 H   0  0  0  0  0  0  0  0  0  0  0  0
  140.5447   70.5193  222.1415 H   0  0  0  0  0  0  0  0  0  0  0  0
  141.7558   71.7822  222.2455 H   0  0  0  0  0  0  0  0  0  0  0  0
  141.4886   70.7875  224.5413 H   0  0  0  0  0  0  0  0  0  0  0  0
  140.7660   72.3862  224.6272 H   0  0  0  0  0  0  0  0  0  0  0  0
  140.1777   69.6412  226.0254 H   0  0  0  0  0  0  0  0  0  0  0  0
  137.9861   68.5131  226.4949 H   0  0  0  0  0  0  0  0  0  0  0  0
  136.0261   69.0421  225.1073 H   0  0  0  0  0  0  0  0  0  0  0  0
  136.1384   70.6748  223.2388 H   0  0  0  0  0  0  0  0  0  0  0  0
  137.9859   71.5900  221.5448 H   0  0  0  0  0  0  0  0  0  0  0  0
  137.7575   72.9438  222.7284 H   0  0  0  0  0  0  0  0  0  0  0  0
  1  2  1  0
  2  3  2  0
  2  4  2  0
  2  5  1  0
  5  6  1  0
  6  7  1  0
  7  8  1  0
  8  9  1  0
  9 10  2  0
 10 11  1  0
 11 12  1  0
 12 13  1  0
 13 14  1  0
 14 15  2  0
 15 16  1  0
 16 17  2  0
 17 18  1  0
 18 19  2  0
 19 20  1  0
 10 21  1  0
 21 22  2  0
 22 23  1  0
 23 24  1  0
 24 25  1  0
 25 26  1  0
 26 27  2  0
 27 28  1  0
 28 29  2  0
 29 30  1  0
 30 31  2  0
 31 32  1  0
 22  8  1  0
 32 23  1  0
 20 11  1  0
 31 26  1  0
 19 14  1  0
  1 33  1  0
  1 34  1  0
  5 35  1  0
  5 36  1  0
  6 37  1  0
  6 38  1  0
  7 39  1  0
  7 40  1  0
  9 41  1  0
 12 42  1  0
 12 43  1  0
 13 44  1  0
 13 45  1  0
 15 46  1  0
 16 47  1  0
 17 48  1  0
 18 49  1  0
 20 50  1  0
 20 51  1  0
 24 52  1  0
 24 53  1  0
 25 54  1  0
 25 55  1  0
 27 56  1  0
 28 57  1  0
 29 58  1  0
 30 59  1  0
 32 60  1  0
 32 61  1  0
M  END
>  <smiles>  (33) 
NS(=O)(=O)CCCn1cc(N2CCc3ccccc3C2)nc1N1CCc2ccccc2C1

>  <score_type>  (33) 
oracle

>  <origin>  (33) 
autodockgpu

>  <m_score__min__energy>  (33) 
-9.8200000000000003

>  <m_primary>  (33) 
energy

>  <rmsd>  (33) 
8.987336502296886

>  <m_score__min__rmsd>  (33) 
8.987336502296886

>  <meeko>  (33) 
{"free_energy": -8.85, "intermolecular_energy": -10.93, "internal_energy": -0.91, "cluster_size": 35, "cluster_id": 1, "rank_in_cluster": 28}

>  <energy>  (33) 
-8.12

>  <cluster_rmsd>  (33) 
1.54

>  <cluster>  (33) 
1

$$$$

     RDKit          3D

 61 65  0  0  0  0  0  0  0  0999 V2000
  146.3940   73.4710  219.1440 N   0  0  0  0  0  0  0  0  0  0  0  0
  145.2580   73.1720  220.3850 S   0  0  0  0  0  0  0  0  0  0  0  0
  144.4290   74.4090  220.5810 O   0  0  0  0  0  0  0  0  0  0  0  0
  146.0530   72.8630  221.6450 O   0  0  0  0  0  0  0  0  0  0  0  0
  144.2500   71.7390  220.0840 C   0  0  0  0  0  0  0  0  0  0  0  0
  143.1700   71.5340  221.0970 C   0  0  0  0  0  0  0  0  0  0  0  0
  141.7780   71.8940  220.5340 C   0  0  0  0  0  0  0  0  0  0  0  0
  141.3100   73.1190  221.1430 N   0  0  0  0  0  0  0  0  0  0  0  0
  141.6750   74.3440  220.6810 C   0  0  0  0  0  0  0  0  0  0  0  0
  141.0160   75.2650  221.4610 C   0  0  0  0  0  0  0  0  0  0  0  0
  141.0900   76.6880  221.3820 N   0  0  0  0  0  0  0  0  0  0  0  0
  141.5670   77.2850  220.1580 C   0  0  0  0  0  0  0  0  0  0  0  0
  141.7010   78.7570  220.1560 C   0  0  0  0  0  0  0  0  0  0  0  0
  141.6930   79.4360  221.4480 C   0  0  0  0  0  0  0  0  0  0  0  0
  142.1880   80.7280  221.5540 C   0  0  0  0  0  0  0  0  0  0  0  0
  142.2010   81.4120  222.7400 C   0  0  0  0  0  0  0  0  0  0  0  0
  141.6890   80.7460  223.8470 C   0  0  0  0  0  0  0  0  0  0  0  0
  141.1890   79.4610  223.7790 C   0  0  0  0  0  0  0  0  0  0  0  0
  141.1930   78.8010  222.5590 C   0  0  0  0  0  0  0  0  0  0  0  0
  140.6520   77.4280  222.5460 C   0  0  0  0  0  0  0  0  0  0  0  0
  140.2930   74.5620  222.3460 N   0  0  0  0  0  0  0  0  0  0  0  0
  140.4680   73.2400  222.1590 C   0  0  0  0  0  0  0  0  0  0  0  0
  139.8720   72.2530  222.9670 N   0  0  0  0  0  0  0  0  0  0  0  0
  138.6450   71.6190  222.4460 C   0  0  0  0  0  0  0  0  0  0  0  0
  139.0900   70.1790  222.1420 C   0  0  0  0  0  0  0  0  0  0  0  0
  139.3620   69.5880  223.5050 C   0  0  0  0  0  0  0  0  0  0  0  0
  138.9970   68.2850  223.6770 C   0  0  0  0  0  0  0  0  0  0  0  0
  139.2250   67.7130  224.9160 C   0  0  0  0  0  0  0  0  0  0  0  0
  139.8050   68.4700  225.9140 C   0  0  0  0  0  0  0  0  0  0  0  0
  140.1760   69.7960  225.7390 C   0  0  0  0  0  0  0  0  0  0  0  0
  139.9450   70.3710  224.4910 C   0  0  0  0  0  0  0  0  0  0  0  0
  140.3200   71.7950  224.2520 C   0  0  0  0  0  0  0  0  0  0  0  0
  145.9600   73.7750  218.2410 H   0  0  0  0  0  0  0  0  0  0  0  0
  147.1400   74.1550  219.4340 H   0  0  0  0  0  0  0  0  0  0  0  0
  143.7810   71.8471  219.0949 H   0  0  0  0  0  0  0  0  0  0  0  0
  144.9137   70.8638  220.1436 H   0  0  0  0  0  0  0  0  0  0  0  0
  143.1670   70.4780  221.4051 H   0  0  0  0  0  0  0  0  0  0  0  0
  143.3739   72.1954  221.9519 H   0  0  0  0  0  0  0  0  0  0  0  0
  141.8478   72.0302  219.4447 H   0  0  0  0  0  0  0  0  0  0  0  0
  141.0717   71.0813  220.7592 H   0  0  0  0  0  0  0  0  0  0  0  0
  142.3615   74.5566  219.8482 H   0  0  0  0  0  0  0  0  0  0  0  0
  142.5572   76.8581  219.9406 H   0  0  0  0  0  0  0  0  0  0  0  0
  140.7994   77.0594  219.4031 H   0  0  0  0  0  0  0  0  0  0  0  0
  142.6530   79.0005  219.6617 H   0  0  0  0  0  0  0  0  0  0  0  0
  140.7982   79.1200  219.6430 H   0  0  0  0  0  0  0  0  0  0  0  0
  142.5839   81.2200  220.6534 H   0  0  0  0  0  0  0  0  0  0  0  0
  142.5963   82.4359  222.8128 H   0  0  0  0  0  0  0  0  0  0  0  0
  141.6818   81.2640  224.8174 H   0  0  0  0  0  0  0  0  0  0  0  0
  140.7933   78.9678  224.6791 H   0  0  0  0  0  0  0  0  0  0  0  0
  140.9924   76.9027  223.4505 H   0  0  0  0  0  0  0  0  0  0  0  0
  139.5544   77.4936  222.5160 H   0  0  0  0  0  0  0  0  0  0  0  0
  137.8442   71.6327  223.2000 H   0  0  0  0  0  0  0  0  0  0  0  0
  138.2342   72.1365  221.5665 H   0  0  0  0  0  0  0  0  0  0  0  0
  138.2927   69.6235  221.6265 H   0  0  0  0  0  0  0  0  0  0  0  0
  139.9663   70.1367  221.4785 H   0  0  0  0  0  0  0  0  0  0  0  0
  138.5377   67.7095  222.8598 H   0  0  0  0  0  0  0  0  0  0  0  0
  138.9469   66.6655  225.1039 H   0  0  0  0  0  0  0  0  0  0  0  0
  139.9813   68.0007  226.8931 H   0  0  0  0  0  0  0  0  0  0  0  0
  140.6356   70.3719  226.5557 H   0  0  0  0  0  0  0  0  0  0  0  0
  139.8624   72.4202  225.0329 H   0  0  0  0  0  0  0  0  0  0  0  0
  141.4171   71.8703  224.2798 H   0  0  0  0  0  0  0  0  0  0  0  0
  1  2  1  0
  2  3  2  0
  2  4  2  0
  2  5  1  0
  5  6  1  0
  6  7  1  0
  7  8  1  0
  8  9  1  0
  9 10  2  0
 10 11  1  0
 11 12  1  0
 12 13  1  0
 13 14  1  0
 14 15  2  0
 15 16  1  0
 16 17  2  0
 17 18  1  0
 18 19  2  0
 19 20  1  0
 10 21  1  0
 21 22  2  0
 22 23  1  0
 23 24  1  0
 24 25  1  0
 25 26  1  0
 26 27  2  0
 27 28  1  0
 28 29  2  0
 29 30  1  0
 30 31  2  0
 31 32  1  0
 22  8  1  0
 32 23  1  0
 20 11  1  0
 31 26  1  0
 19 14  1  0
  1 33  1  0
  1 34  1  0
  5 35  1  0
  5 36  1  0
  6 37  1  0
  6 38  1  0
  7 39  1  0
  7 40  1  0
  9 41  1  0
 12 42  1  0
 12 43  1  0
 13 44  1  0
 13 45  1  0
 15 46  1  0
 16 47  1  0
 17 48  1  0
 18 49  1  0
 20 50  1  0
 20 51  1  0
 24 52  1  0
 24 53  1  0
 25 54  1  0
 25 55  1  0
 27 56  1  0
 28 57  1  0
 29 58  1  0
 30 59  1  0
 32 60  1  0
 32 61  1  0
M  END
>  <smiles>  (34) 
NS(=O)(=O)CCCn1cc(N2CCc3ccccc3C2)nc1N1CCc2ccccc2C1

>  <score_type>  (34) 
oracle

>  <origin>  (34) 
autodockgpu

>  <m_score__min__energy>  (34) 
-9.8200000000000003

>  <m_primary>  (34) 
energy

>  <rmsd>  (34) 
9.041724441453649

>  <m_score__min__rmsd>  (34) 
9.041724441453649

>  <meeko>  (34) 
{"free_energy": -9.6, "intermolecular_energy": -11.69, "internal_energy": -1.24, "cluster_size": 35, "cluster_id": 1, "rank_in_cluster": 4}

>  <energy>  (34) 
-8.06

>  <cluster_rmsd>  (34) 
1.44

>  <cluster>  (34) 
1

$$$$

     RDKit          3D

 61 65  0  0  0  0  0  0  0  0999 V2000
  145.9000   74.1150  220.3560 N   0  0  0  0  0  0  0  0  0  0  0  0
  145.5440   72.7140  219.4430 S   0  0  0  0  0  0  0  0  0  0  0  0
  146.3700   71.5780  219.9720 O   0  0  0  0  0  0  0  0  0  0  0  0
  145.9240   73.0200  218.0020 O   0  0  0  0  0  0  0  0  0  0  0  0
  143.8110   72.3180  219.4140 C   0  0  0  0  0  0  0  0  0  0  0  0
  143.3410   71.5630  220.6150 C   0  0  0  0  0  0  0  0  0  0  0  0
  141.8010   71.5460  220.7180 C   0  0  0  0  0  0  0  0  0  0  0  0
  141.3340   72.8140  221.2330 N   0  0  0  0  0  0  0  0  0  0  0  0
  141.6950   74.0000  220.6760 C   0  0  0  0  0  0  0  0  0  0  0  0
  141.0390   74.9780  221.3860 C   0  0  0  0  0  0  0  0  0  0  0  0
  141.1100   76.3900  221.1960 N   0  0  0  0  0  0  0  0  0  0  0  0
  141.6110   76.8920  219.9390 C   0  0  0  0  0  0  0  0  0  0  0  0
  141.7400   78.3590  219.8240 C   0  0  0  0  0  0  0  0  0  0  0  0
  141.7030   79.1380  221.0580 C   0  0  0  0  0  0  0  0  0  0  0  0
  142.1920   80.4360  221.0720 C   0  0  0  0  0  0  0  0  0  0  0  0
  142.1790   81.2120  222.2000 C   0  0  0  0  0  0  0  0  0  0  0  0
  141.6460   80.6330  223.3460 C   0  0  0  0  0  0  0  0  0  0  0  0
  141.1520   79.3440  223.3700 C   0  0  0  0  0  0  0  0  0  0  0  0
  141.1830   78.5900  222.2050 C   0  0  0  0  0  0  0  0  0  0  0  0
  140.6460   77.2180  222.2900 C   0  0  0  0  0  0  0  0  0  0  0  0
  140.3220   74.3440  222.3270 N   0  0  0  0  0  0  0  0  0  0  0  0
  140.4980   73.0130  222.2420 C   0  0  0  0  0  0  0  0  0  0  0  0
  139.9090   72.0900  223.1280 N   0  0  0  0  0  0  0  0  0  0  0  0
  138.7280   71.3560  222.6330 C   0  0  0  0  0  0  0  0  0  0  0  0
  139.2390   69.9110  222.4970 C   0  0  0  0  0  0  0  0  0  0  0  0
  139.4780   69.4760  223.9230 C   0  0  0  0  0  0  0  0  0  0  0  0
  139.1560   68.1840  224.2170 C   0  0  0  0  0  0  0  0  0  0  0  0
  139.3570   67.7530  225.5170 C   0  0  0  0  0  0  0  0  0  0  0  0
  139.8680   68.6320  226.4500 C   0  0  0  0  0  0  0  0  0  0  0  0
  140.1960   69.9470  226.1500 C   0  0  0  0  0  0  0  0  0  0  0  0
  139.9920   70.3810  224.8410 C   0  0  0  0  0  0  0  0  0  0  0  0
  140.3230   71.7870  224.4680 C   0  0  0  0  0  0  0  0  0  0  0  0
  146.8140   74.5590  220.1050 H   0  0  0  0  0  0  0  0  0  0  0  0
  145.1290   74.8310  220.3170 H   0  0  0  0  0  0  0  0  0  0  0  0
  143.2423   73.2575  219.3514 H   0  0  0  0  0  0  0  0  0  0  0  0
  143.6476   71.6658  218.5434 H   0  0  0  0  0  0  0  0  0  0  0  0
  143.7044   70.5269  220.5484 H   0  0  0  0  0  0  0  0  0  0  0  0
  143.7369   72.0654  221.5099 H   0  0  0  0  0  0  0  0  0  0  0  0
  141.3695   71.3749  219.7207 H   0  0  0  0  0  0  0  0  0  0  0  0
  141.4898   70.7392  221.3979 H   0  0  0  0  0  0  0  0  0  0  0  0
  142.3769   74.1482  219.8257 H   0  0  0  0  0  0  0  0  0  0  0  0
  142.6070   76.4544  219.7766 H   0  0  0  0  0  0  0  0  0  0  0  0
  140.8601   76.6042  219.1884 H   0  0  0  0  0  0  0  0  0  0  0  0
  142.7012   78.5675  219.3315 H   0  0  0  0  0  0  0  0  0  0  0  0
  140.8466   78.6758  219.2659 H   0  0  0  0  0  0  0  0  0  0  0  0
  142.6051   80.8570  220.1435 H   0  0  0  0  0  0  0  0  0  0  0  0
  142.5700   82.2402  222.1995 H   0  0  0  0  0  0  0  0  0  0  0  0
  141.6166   81.2263  224.2718 H   0  0  0  0  0  0  0  0  0  0  0  0
  140.7401   78.9210  224.2981 H   0  0  0  0  0  0  0  0  0  0  0  0
  140.9696   76.7672  223.2398 H   0  0  0  0  0  0  0  0  0  0  0  0
  139.5490   77.2761  222.2334 H   0  0  0  0  0  0  0  0  0  0  0  0
  137.8981   71.4141  223.3526 H   0  0  0  0  0  0  0  0  0  0  0  0
  138.3329   71.7628  221.6904 H   0  0  0  0  0  0  0  0  0  0  0  0
  138.4845   69.2726  222.0141 H   0  0  0  0  0  0  0  0  0  0  0  0
  140.1420   69.8368  221.8733 H   0  0  0  0  0  0  0  0  0  0  0  0
  138.7512   67.5087  223.4489 H   0  0  0  0  0  0  0  0  0  0  0  0
  139.1117   66.7197  225.8036 H   0  0  0  0  0  0  0  0  0  0  0  0
  140.0225   68.2742  227.4786 H   0  0  0  0  0  0  0  0  0  0  0  0
  140.6022   70.6223  226.9174 H   0  0  0  0  0  0  0  0  0  0  0  0
  139.8121   72.4702  225.1625 H   0  0  0  0  0  0  0  0  0  0  0  0
  141.4145   71.9104  224.5268 H   0  0  0  0  0  0  0  0  0  0  0  0
  1  2  1  0
  2  3  2  0
  2  4  2  0
  2  5  1  0
  5  6  1  0
  6  7  1  0
  7  8  1  0
  8  9  1  0
  9 10  2  0
 10 11  1  0
 11 12  1  0
 12 13  1  0
 13 14  1  0
 14 15  2  0
 15 16  1  0
 16 17  2  0
 17 18  1  0
 18 19  2  0
 19 20  1  0
 10 21  1  0
 21 22  2  0
 22 23  1  0
 23 24  1  0
 24 25  1  0
 25 26  1  0
 26 27  2  0
 27 28  1  0
 28 29  2  0
 29 30  1  0
 30 31  2  0
 31 32  1  0
 22  8  1  0
 32 23  1  0
 20 11  1  0
 31 26  1  0
 19 14  1  0
  1 33  1  0
  1 34  1  0
  5 35  1  0
  5 36  1  0
  6 37  1  0
  6 38  1  0
  7 39  1  0
  7 40  1  0
  9 41  1  0
 12 42  1  0
 12 43  1  0
 13 44  1  0
 13 45  1  0
 15 46  1  0
 16 47  1  0
 17 48  1  0
 18 49  1  0
 20 50  1  0
 20 51  1  0
 24 52  1  0
 24 53  1  0
 25 54  1  0
 25 55  1  0
 27 56  1  0
 28 57  1  0
 29 58  1  0
 30 59  1  0
 32 60  1  0
 32 61  1  0
M  END
>  <smiles>  (35) 
NS(=O)(=O)CCCn1cc(N2CCc3ccccc3C2)nc1N1CCc2ccccc2C1

>  <score_type>  (35) 
oracle

>  <origin>  (35) 
autodockgpu

>  <m_score__min__energy>  (35) 
-9.8200000000000003

>  <m_primary>  (35) 
energy

>  <rmsd>  (35) 
8.901872155593253

>  <m_score__min__rmsd>  (35) 
8.901872155593253

>  <meeko>  (35) 
{"free_energy": -9.77, "intermolecular_energy": -11.86, "internal_energy": -0.89, "cluster_size": 35, "cluster_id": 1, "rank_in_cluster": 2}

>  <energy>  (35) 
-7.99

>  <cluster_rmsd>  (35) 
1.99

>  <cluster>  (35) 
1

$$$$

     RDKit          3D

 61 65  0  0  0  0  0  0  0  0999 V2000
  144.5010   74.0180  218.8630 N   0  0  0  0  0  0  0  0  0  0  0  0
  142.9830   74.5310  219.4590 S   0  0  0  0  0  0  0  0  0  0  0  0
  142.9840   76.0300  219.5400 O   0  0  0  0  0  0  0  0  0  0  0  0
  142.8280   73.9260  220.8460 O   0  0  0  0  0  0  0  0  0  0  0  0
  141.6120   73.9200  218.5070 C   0  0  0  0  0  0  0  0  0  0  0  0
  140.3490   74.6960  218.6950 C   0  0  0  0  0  0  0  0  0  0  0  0
  139.2090   73.8140  219.2500 C   0  0  0  0  0  0  0  0  0  0  0  0
  139.4590   73.5180  220.6440 N   0  0  0  0  0  0  0  0  0  0  0  0
  139.4340   72.2500  221.1310 C   0  0  0  0  0  0  0  0  0  0  0  0
  139.7560   72.3410  222.4650 C   0  0  0  0  0  0  0  0  0  0  0  0
  139.8390   71.2800  223.4170 N   0  0  0  0  0  0  0  0  0  0  0  0
  139.0680   70.0830  223.1830 C   0  0  0  0  0  0  0  0  0  0  0  0
  139.1270   69.0500  224.2370 C   0  0  0  0  0  0  0  0  0  0  0  0
  139.6420   69.4480  225.5440 C   0  0  0  0  0  0  0  0  0  0  0  0
  139.3750   68.6690  226.6600 C   0  0  0  0  0  0  0  0  0  0  0  0
  139.8360   68.9940  227.9080 C   0  0  0  0  0  0  0  0  0  0  0  0
  140.5930   70.1550  228.0070 C   0  0  0  0  0  0  0  0  0  0  0  0
  140.8780   70.9560  226.9190 C   0  0  0  0  0  0  0  0  0  0  0  0
  140.3920   70.5920  225.6710 C   0  0  0  0  0  0  0  0  0  0  0  0
  140.7220   71.4870  224.5450 C   0  0  0  0  0  0  0  0  0  0  0  0
  139.9560   73.6430  222.7170 N   0  0  0  0  0  0  0  0  0  0  0  0
  139.7750   74.3760  221.6030 C   0  0  0  0  0  0  0  0  0  0  0  0
  139.8720   75.7800  221.5690 N   0  0  0  0  0  0  0  0  0  0  0  0
  138.6140   76.5280  221.3760 C   0  0  0  0  0  0  0  0  0  0  0  0
  138.4040   77.2240  222.7320 C   0  0  0  0  0  0  0  0  0  0  0  0
  139.5260   78.2330  222.7990 C   0  0  0  0  0  0  0  0  0  0  0  0
  139.2150   79.4380  223.3580 C   0  0  0  0  0  0  0  0  0  0  0  0
  140.2180   80.3890  223.4300 C   0  0  0  0  0  0  0  0  0  0  0  0
  141.4730   80.0880  222.9420 C   0  0  0  0  0  0  0  0  0  0  0  0
  141.7880   78.8610  222.3730 C   0  0  0  0  0  0  0  0  0  0  0  0
  140.7780   77.9040  222.3000 C   0  0  0  0  0  0  0  0  0  0  0  0
  141.0630   76.5720  221.6920 C   0  0  0  0  0  0  0  0  0  0  0  0
  144.4370   73.2430  218.1620 H   0  0  0  0  0  0  0  0  0  0  0  0
  145.0720   74.8120  218.4720 H   0  0  0  0  0  0  0  0  0  0  0  0
  141.8859   73.9574  217.4423 H   0  0  0  0  0  0  0  0  0  0  0  0
  141.4122   72.8964  218.8567 H   0  0  0  0  0  0  0  0  0  0  0  0
  140.5384   75.5182  219.4007 H   0  0  0  0  0  0  0  0  0  0  0  0
  140.0356   75.0807  217.7133 H   0  0  0  0  0  0  0  0  0  0  0  0
  138.2527   74.3493  219.1552 H   0  0  0  0  0  0  0  0  0  0  0  0
  139.1632   72.8746  218.6796 H   0  0  0  0  0  0  0  0  0  0  0  0
  139.2023   71.3327  220.5698 H   0  0  0  0  0  0  0  0  0  0  0  0
  138.0157   70.3802  223.0636 H   0  0  0  0  0  0  0  0  0  0  0  0
  139.5126   69.6175  222.2910 H   0  0  0  0  0  0  0  0  0  0  0  0
  138.1043   68.6735  224.3867 H   0  0  0  0  0  0  0  0  0  0  0  0
  139.8512   68.3108  223.8641 H   0  0  0  0  0  0  0  0  0  0  0  0
  138.7714   67.7575  226.5384 H   0  0  0  0  0  0  0  0  0  0  0  0
  139.6183   68.3685  228.7863 H   0  0  0  0  0  0  0  0  0  0  0  0
  140.9815   70.4483  228.9934 H   0  0  0  0  0  0  0  0  0  0  0  0
  141.4808   71.8682  227.0395 H   0  0  0  0  0  0  0  0  0  0  0  0
  140.6315   72.5304  224.8812 H   0  0  0  0  0  0  0  0  0  0  0  0
  141.7491   71.2638  224.2206 H   0  0  0  0  0  0  0  0  0  0  0  0
  138.7144   77.2654  220.5660 H   0  0  0  0  0  0  0  0  0  0  0  0
  137.7702   75.8838  221.0877 H   0  0  0  0  0  0  0  0  0  0  0  0
  137.4250   77.7242  222.7679 H   0  0  0  0  0  0  0  0  0  0  0  0
  138.4153   76.5198  223.5769 H   0  0  0  0  0  0  0  0  0  0  0  0
  138.2038   79.6462  223.7377 H   0  0  0  0  0  0  0  0  0  0  0  0
  140.0165   81.3758  223.8722 H   0  0  0  0  0  0  0  0  0  0  0  0
  142.2594   80.8544  223.0066 H   0  0  0  0  0  0  0  0  0  0  0  0
  142.7990   78.6520  221.9934 H   0  0  0  0  0  0  0  0  0  0  0  0
  141.4967   76.7217  220.6922 H   0  0  0  0  0  0  0  0  0  0  0  0
  141.7646   76.0374  222.3493 H   0  0  0  0  0  0  0  0  0  0  0  0
  1  2  1  0
  2  3  2  0
  2  4  2  0
  2  5  1  0
  5  6  1  0
  6  7  1  0
  7  8  1  0
  8  9  1  0
  9 10  2  0
 10 11  1  0
 11 12  1  0
 12 13  1  0
 13 14  1  0
 14 15  2  0
 15 16  1  0
 16 17  2  0
 17 18  1  0
 18 19  2  0
 19 20  1  0
 10 21  1  0
 21 22  2  0
 22 23  1  0
 23 24  1  0
 24 25  1  0
 25 26  1  0
 26 27  2  0
 27 28  1  0
 28 29  2  0
 29 30  1  0
 30 31  2  0
 31 32  1  0
 22  8  1  0
 32 23  1  0
 20 11  1  0
 31 26  1  0
 19 14  1  0
  1 33  1  0
  1 34  1  0
  5 35  1  0
  5 36  1  0
  6 37  1  0
  6 38  1  0
  7 39  1  0
  7 40  1  0
  9 41  1  0
 12 42  1  0
 12 43  1  0
 13 44  1  0
 13 45  1  0
 15 46  1  0
 16 47  1  0
 17 48  1  0
 18 49  1  0
 20 50  1  0
 20 51  1  0
 24 52  1  0
 24 53  1  0
 25 54  1  0
 25 55  1  0
 27 56  1  0
 28 57  1  0
 29 58  1  0
 30 59  1  0
 32 60  1  0
 32 61  1  0
M  END
>  <smiles>  (36) 
NS(=O)(=O)CCCn1cc(N2CCc3ccccc3C2)nc1N1CCc2ccccc2C1

>  <score_type>  (36) 
oracle

>  <origin>  (36) 
autodockgpu

>  <m_score__min__energy>  (36) 
-9.8200000000000003

>  <m_primary>  (36) 
energy

>  <rmsd>  (36) 
3.5057630264284336

>  <m_score__min__rmsd>  (36) 
3.5057630264284336

>  <meeko>  (36) 
{"free_energy": -8.47, "intermolecular_energy": -10.56, "internal_energy": -1.62, "cluster_size": 35, "cluster_id": 1, "rank_in_cluster": 31}

>  <energy>  (36) 
-8.92

>  <cluster_rmsd>  (36) 
0.0

>  <cluster>  (36) 
2

$$$$

     RDKit          3D

 61 65  0  0  0  0  0  0  0  0999 V2000
  146.1660   74.0880  220.6730 N   0  0  0  0  0  0  0  0  0  0  0  0
  144.9470   73.3530  219.7260 S   0  0  0  0  0  0  0  0  0  0  0  0
  144.1800   72.3980  220.5940 O   0  0  0  0  0  0  0  0  0  0  0  0
  145.6530   72.6020  218.6070 O   0  0  0  0  0  0  0  0  0  0  0  0
  143.8780   74.5260  218.9240 C   0  0  0  0  0  0  0  0  0  0  0  0
  142.7000   74.9350  219.7490 C   0  0  0  0  0  0  0  0  0  0  0  0
  141.4840   74.0140  219.5090 C   0  0  0  0  0  0  0  0  0  0  0  0
  140.9150   73.6210  220.7800 N   0  0  0  0  0  0  0  0  0  0  0  0
  140.9880   72.3460  221.2430 C   0  0  0  0  0  0  0  0  0  0  0  0
  140.3900   72.3480  222.4820 C   0  0  0  0  0  0  0  0  0  0  0  0
  140.1990   71.2400  223.3600 N   0  0  0  0  0  0  0  0  0  0  0  0
  139.1810   70.2710  223.0340 C   0  0  0  0  0  0  0  0  0  0  0  0
  138.9680   69.1870  224.0160 C   0  0  0  0  0  0  0  0  0  0  0  0
  139.5210   69.3730  225.3540 C   0  0  0  0  0  0  0  0  0  0  0  0
  139.0480   68.6080  226.4110 C   0  0  0  0  0  0  0  0  0  0  0  0
  139.5330   68.7390  227.6850 C   0  0  0  0  0  0  0  0  0  0  0  0
  140.5340   69.6850  227.8740 C   0  0  0  0  0  0  0  0  0  0  0  0
  141.0280   70.4640  226.8470 C   0  0  0  0  0  0  0  0  0  0  0  0
  140.5100   70.3020  225.5700 C   0  0  0  0  0  0  0  0  0  0  0  0
  141.0710   71.1650  224.5120 C   0  0  0  0  0  0  0  0  0  0  0  0
  139.9910   73.6090  222.7060 N   0  0  0  0  0  0  0  0  0  0  0  0
  140.3090   74.4000  221.6640 C   0  0  0  0  0  0  0  0  0  0  0  0
  139.9750   75.7660  221.5920 N   0  0  0  0  0  0  0  0  0  0  0  0
  138.5550   76.0900  221.3500 C   0  0  0  0  0  0  0  0  0  0  0  0
  138.1020   76.7170  222.6800 C   0  0  0  0  0  0  0  0  0  0  0  0
  138.8610   78.0210  222.7430 C   0  0  0  0  0  0  0  0  0  0  0  0
  138.1820   79.0840  223.2610 C   0  0  0  0  0  0  0  0  0  0  0  0
  138.8440   80.2970  223.3280 C   0  0  0  0  0  0  0  0  0  0  0  0
  140.1460   80.3830  222.8770 C   0  0  0  0  0  0  0  0  0  0  0  0
  140.8360   79.3000  222.3500 C   0  0  0  0  0  0  0  0  0  0  0  0
  140.1680   78.0800  222.2820 C   0  0  0  0  0  0  0  0  0  0  0  0
  140.8630   76.8860  221.7190 C   0  0  0  0  0  0  0  0  0  0  0  0
  146.6340   73.4310  221.3390 H   0  0  0  0  0  0  0  0  0  0  0  0
  146.8870   74.5850  220.0900 H   0  0  0  0  0  0  0  0  0  0  0  0
  144.4655   75.4258  218.6891 H   0  0  0  0  0  0  0  0  0  0  0  0
  143.4818   74.0334  218.0238 H   0  0  0  0  0  0  0  0  0  0  0  0
  142.9770   74.8890  220.8125 H   0  0  0  0  0  0  0  0  0  0  0  0
  142.4172   75.9574  219.4578 H   0  0  0  0  0  0  0  0  0  0  0  0
  140.7272   74.5528  218.9199 H   0  0  0  0  0  0  0  0  0  0  0  0
  141.8074   73.1171  218.9604 H   0  0  0  0  0  0  0  0  0  0  0  0
  141.4364   71.4830  220.7291 H   0  0  0  0  0  0  0  0  0  0  0  0
  138.2294   70.8108  222.9194 H   0  0  0  0  0  0  0  0  0  0  0  0
  139.5342   69.7721  222.1195 H   0  0  0  0  0  0  0  0  0  0  0  0
  137.8821   69.0489  224.1243 H   0  0  0  0  0  0  0  0  0  0  0  0
  139.5126   68.3244  223.6045 H   0  0  0  0  0  0  0  0  0  0  0  0
  138.2552   67.8701  226.2186 H   0  0  0  0  0  0  0  0  0  0  0  0
  139.1504   68.1275  228.5155 H   0  0  0  0  0  0  0  0  0  0  0  0
  140.9496   69.8183  228.8837 H   0  0  0  0  0  0  0  0  0  0  0  0
  141.8207   71.2023  227.0382 H   0  0  0  0  0  0  0  0  0  0  0  0
  141.2134   72.1777  224.9171 H   0  0  0  0  0  0  0  0  0  0  0  0
  142.0280   70.7300  224.1882 H   0  0  0  0  0  0  0  0  0  0  0  0
  138.4500   76.8057  220.5213 H   0  0  0  0  0  0  0  0  0  0  0  0
  137.9568   75.2128  221.0624 H   0  0  0  0  0  0  0  0  0  0  0  0
  137.0166   76.8954  222.6791 H   0  0  0  0  0  0  0  0  0  0  0  0
  138.3013   76.0676  223.5452 H   0  0  0  0  0  0  0  0  0  0  0  0
  137.1450   78.9808  223.6130 H   0  0  0  0  0  0  0  0  0  0  0  0
  138.3380   81.1841  223.7366 H   0  0  0  0  0  0  0  0  0  0  0  0
  140.6598   81.3537  222.9380 H   0  0  0  0  0  0  0  0  0  0  0  0
  141.8734   79.4018  221.9987 H   0  0  0  0  0  0  0  0  0  0  0  0
  141.2603   77.1404  220.7253 H   0  0  0  0  0  0  0  0  0  0  0  0
  141.6735   76.6047  222.4074 H   0  0  0  0  0  0  0  0  0  0  0  0
  1  2  1  0
  2  3  2  0
  2  4  2  0
  2  5  1  0
  5  6  1  0
  6  7  1  0
  7  8  1  0
  8  9  1  0
  9 10  2  0
 10 11  1  0
 11 12  1  0
 12 13  1  0
 13 14  1  0
 14 15  2  0
 15 16  1  0
 16 17  2  0
 17 18  1  0
 18 19  2  0
 19 20  1  0
 10 21  1  0
 21 22  2  0
 22 23  1  0
 23 24  1  0
 24 25  1  0
 25 26  1  0
 26 27  2  0
 27 28  1  0
 28 29  2  0
 29 30  1  0
 30 31  2  0
 31 32  1  0
 22  8  1  0
 32 23  1  0
 20 11  1  0
 31 26  1  0
 19 14  1  0
  1 33  1  0
  1 34  1  0
  5 35  1  0
  5 36  1  0
  6 37  1  0
  6 38  1  0
  7 39  1  0
  7 40  1  0
  9 41  1  0
 12 42  1  0
 12 43  1  0
 13 44  1  0
 13 45  1  0
 15 46  1  0
 16 47  1  0
 17 48  1  0
 18 49  1  0
 20 50  1  0
 20 51  1  0
 24 52  1  0
 24 53  1  0
 25 54  1  0
 25 55  1  0
 27 56  1  0
 28 57  1  0
 29 58  1  0
 30 59  1  0
 32 60  1  0
 32 61  1  0
M  END
>  <smiles>  (37) 
NS(=O)(=O)CCCn1cc(N2CCc3ccccc3C2)nc1N1CCc2ccccc2C1

>  <score_type>  (37) 
oracle

>  <origin>  (37) 
autodockgpu

>  <m_score__min__energy>  (37) 
-9.8200000000000003

>  <m_primary>  (37) 
energy

>  <rmsd>  (37) 
3.7602197304467913

>  <m_score__min__rmsd>  (37) 
3.7602197304467913

>  <meeko>  (37) 
{"free_energy": -9.27, "intermolecular_energy": -11.36, "internal_energy": -1.16, "cluster_size": 35, "cluster_id": 1, "rank_in_cluster": 13}

>  <energy>  (37) 
-8.89

>  <cluster_rmsd>  (37) 
0.93

>  <cluster>  (37) 
2

$$$$

     RDKit          3D

 61 65  0  0  0  0  0  0  0  0999 V2000
  146.3220   73.2230  219.3010 N   0  0  0  0  0  0  0  0  0  0  0  0
  144.7340   73.3930  219.9090 S   0  0  0  0  0  0  0  0  0  0  0  0
  144.8020   74.1120  221.2250 O   0  0  0  0  0  0  0  0  0  0  0  0
  144.1830   71.9880  220.1020 O   0  0  0  0  0  0  0  0  0  0  0  0
  143.6280   74.1960  218.7720 C   0  0  0  0  0  0  0  0  0  0  0  0
  142.4150   74.7820  219.4170 C   0  0  0  0  0  0  0  0  0  0  0  0
  141.2030   73.8280  219.3370 C   0  0  0  0  0  0  0  0  0  0  0  0
  140.7630   73.4880  220.6730 N   0  0  0  0  0  0  0  0  0  0  0  0
  140.7850   72.2130  221.1400 C   0  0  0  0  0  0  0  0  0  0  0  0
  140.3460   72.2690  222.4420 C   0  0  0  0  0  0  0  0  0  0  0  0
  140.1720   71.1830  223.3520 N   0  0  0  0  0  0  0  0  0  0  0  0
  139.1510   70.2040  223.0680 C   0  0  0  0  0  0  0  0  0  0  0  0
  138.9570   69.1460  224.0800 C   0  0  0  0  0  0  0  0  0  0  0  0
  139.5310   69.3670  225.4050 C   0  0  0  0  0  0  0  0  0  0  0  0
  139.0770   68.6290  226.4880 C   0  0  0  0  0  0  0  0  0  0  0  0
  139.5830   68.7950  227.7500 C   0  0  0  0  0  0  0  0  0  0  0  0
  140.5840   69.7470  227.8990 C   0  0  0  0  0  0  0  0  0  0  0  0
  141.0590   70.5010  226.8440 C   0  0  0  0  0  0  0  0  0  0  0  0
  140.5210   70.3040  225.5800 C   0  0  0  0  0  0  0  0  0  0  0  0
  141.0630   71.1400  224.4920 C   0  0  0  0  0  0  0  0  0  0  0  0
  140.0830   73.5600  222.6960 N   0  0  0  0  0  0  0  0  0  0  0  0
  140.3360   74.3180  221.6130 C   0  0  0  0  0  0  0  0  0  0  0  0
  140.1110   75.7070  221.5640 N   0  0  0  0  0  0  0  0  0  0  0  0
  138.7140   76.1470  221.3730 C   0  0  0  0  0  0  0  0  0  0  0  0
  138.3570   76.7920  222.7230 C   0  0  0  0  0  0  0  0  0  0  0  0
  139.2190   78.0300  222.7720 C   0  0  0  0  0  0  0  0  0  0  0  0
  138.6450   79.1390  223.3210 C   0  0  0  0  0  0  0  0  0  0  0  0
  139.4050   80.2940  223.3760 C   0  0  0  0  0  0  0  0  0  0  0  0
  140.6940   80.2810  222.8830 C   0  0  0  0  0  0  0  0  0  0  0  0
  141.2770   79.1520  222.3240 C   0  0  0  0  0  0  0  0  0  0  0  0
  140.5110   77.9900  222.2670 C   0  0  0  0  0  0  0  0  0  0  0  0
  141.0900   76.7510  221.6710 C   0  0  0  0  0  0  0  0  0  0  0  0
  146.7090   74.1020  218.8830 H   0  0  0  0  0  0  0  0  0  0  0  0
  146.9910   72.8390  220.0160 H   0  0  0  0  0  0  0  0  0  0  0  0
  144.1771   75.0051  218.2683 H   0  0  0  0  0  0  0  0  0  0  0  0
  143.2752   73.4243  218.0720 H   0  0  0  0  0  0  0  0  0  0  0  0
  142.6379   74.9859  220.4747 H   0  0  0  0  0  0  0  0  0  0  0  0
  142.1568   75.7071  218.8809 H   0  0  0  0  0  0  0  0  0  0  0  0
  140.3828   74.3229  218.7964 H   0  0  0  0  0  0  0  0  0  0  0  0
  141.4949   72.9109  218.8044 H   0  0  0  0  0  0  0  0  0  0  0  0
  141.0930   71.3137  220.5865 H   0  0  0  0  0  0  0  0  0  0  0  0
  138.1964   70.7388  222.9555 H   0  0  0  0  0  0  0  0  0  0  0  0
  139.4901   69.6824  222.1608 H   0  0  0  0  0  0  0  0  0  0  0  0
  137.8733   69.0082  224.2091 H   0  0  0  0  0  0  0  0  0  0  0  0
  139.4978   68.2748  223.6820 H   0  0  0  0  0  0  0  0  0  0  0  0
  138.2831   67.8846  226.3279 H   0  0  0  0  0  0  0  0  0  0  0  0
  139.2155   68.2046  228.6023 H   0  0  0  0  0  0  0  0  0  0  0  0
  141.0157   69.9066  228.8981 H   0  0  0  0  0  0  0  0  0  0  0  0
  141.8520   71.2466  227.0032 H   0  0  0  0  0  0  0  0  0  0  0  0
  141.2093   72.1632  224.8683 H   0  0  0  0  0  0  0  0  0  0  0  0
  142.0161   70.6991  224.1645 H   0  0  0  0  0  0  0  0  0  0  0  0
  138.6399   76.8788  220.5551 H   0  0  0  0  0  0  0  0  0  0  0  0
  138.0380   75.3242  221.0975 H   0  0  0  0  0  0  0  0  0  0  0  0
  137.2899   77.0562  222.7607 H   0  0  0  0  0  0  0  0  0  0  0  0
  138.5323   76.1186  223.5749 H   0  0  0  0  0  0  0  0  0  0  0  0
  137.6149   79.1159  223.7062 H   0  0  0  0  0  0  0  0  0  0  0  0
  138.9856   81.2142  223.8088 H   0  0  0  0  0  0  0  0  0  0  0  0
  141.2859   81.2067  222.9353 H   0  0  0  0  0  0  0  0  0  0  0  0
  142.3074   79.1742  221.9397 H   0  0  0  0  0  0  0  0  0  0  0  0
  141.4741   76.9840  220.6669 H   0  0  0  0  0  0  0  0  0  0  0  0
  141.8975   76.3983  222.3294 H   0  0  0  0  0  0  0  0  0  0  0  0
  1  2  1  0
  2  3  2  0
  2  4  2  0
  2  5  1  0
  5  6  1  0
  6  7  1  0
  7  8  1  0
  8  9  1  0
  9 10  2  0
 10 11  1  0
 11 12  1  0
 12 13  1  0
 13 14  1  0
 14 15  2  0
 15 16  1  0
 16 17  2  0
 17 18  1  0
 18 19  2  0
 19 20  1  0
 10 21  1  0
 21 22  2  0
 22 23  1  0
 23 24  1  0
 24 25  1  0
 25 26  1  0
 26 27  2  0
 27 28  1  0
 28 29  2  0
 29 30  1  0
 30 31  2  0
 31 32  1  0
 22  8  1  0
 32 23  1  0
 20 11  1  0
 31 26  1  0
 19 14  1  0
  1 33  1  0
  1 34  1  0
  5 35  1  0
  5 36  1  0
  6 37  1  0
  6 38  1  0
  7 39  1  0
  7 40  1  0
  9 41  1  0
 12 42  1  0
 12 43  1  0
 13 44  1  0
 13 45  1  0
 15 46  1  0
 16 47  1  0
 17 48  1  0
 18 49  1  0
 20 50  1  0
 20 51  1  0
 24 52  1  0
 24 53  1  0
 25 54  1  0
 25 55  1  0
 27 56  1  0
 28 57  1  0
 29 58  1  0
 30 59  1  0
 32 60  1  0
 32 61  1  0
M  END
>  <smiles>  (38) 
NS(=O)(=O)CCCn1cc(N2CCc3ccccc3C2)nc1N1CCc2ccccc2C1

>  <score_type>  (38) 
oracle

>  <origin>  (38) 
autodockgpu

>  <m_score__min__energy>  (38) 
-9.8200000000000003

>  <m_primary>  (38) 
energy

>  <rmsd>  (38) 
3.7291644725839217

>  <m_score__min__rmsd>  (38) 
3.7291644725839217

>  <meeko>  (38) 
{"free_energy": -9.04, "intermolecular_energy": -11.13, "internal_energy": -1.26, "cluster_size": 35, "cluster_id": 1, "rank_in_cluster": 21}

>  <energy>  (38) 
-8.86

>  <cluster_rmsd>  (38) 
0.85

>  <cluster>  (38) 
2

$$$$

     RDKit          3D

 61 65  0  0  0  0  0  0  0  0999 V2000
  143.4510   76.7670  219.8530 N   0  0  0  0  0  0  0  0  0  0  0  0
  143.3440   75.0630  219.7740 S   0  0  0  0  0  0  0  0  0  0  0  0
  142.7090   74.5660  221.0400 O   0  0  0  0  0  0  0  0  0  0  0  0
  144.7670   74.5370  219.6540 O   0  0  0  0  0  0  0  0  0  0  0  0
  142.4880   74.4800  218.3290 C   0  0  0  0  0  0  0  0  0  0  0  0
  141.4790   73.4150  218.6110 C   0  0  0  0  0  0  0  0  0  0  0  0
  140.1690   74.0000  219.1800 C   0  0  0  0  0  0  0  0  0  0  0  0
  140.0630   73.6770  220.5860 N   0  0  0  0  0  0  0  0  0  0  0  0
  140.0760   72.3950  221.0370 C   0  0  0  0  0  0  0  0  0  0  0  0
  140.0030   72.4660  222.4090 C   0  0  0  0  0  0  0  0  0  0  0  0
  139.9630   71.3830  223.3380 N   0  0  0  0  0  0  0  0  0  0  0  0
  139.1190   70.2510  223.0400 C   0  0  0  0  0  0  0  0  0  0  0  0
  139.0520   69.1950  224.0710 C   0  0  0  0  0  0  0  0  0  0  0  0
  139.5310   69.5270  225.4090 C   0  0  0  0  0  0  0  0  0  0  0  0
  139.1550   68.7470  226.4930 C   0  0  0  0  0  0  0  0  0  0  0  0
  139.5780   69.0120  227.7680 C   0  0  0  0  0  0  0  0  0  0  0  0
  140.4120   70.1120  227.9300 C   0  0  0  0  0  0  0  0  0  0  0  0
  140.8060   70.9110  226.8760 C   0  0  0  0  0  0  0  0  0  0  0  0
  140.3560   70.6100  225.5980 C   0  0  0  0  0  0  0  0  0  0  0  0
  140.8040   71.5010  224.5100 C   0  0  0  0  0  0  0  0  0  0  0  0
  139.9500   73.7700  222.7170 N   0  0  0  0  0  0  0  0  0  0  0  0
  139.9860   74.5240  221.6020 C   0  0  0  0  0  0  0  0  0  0  0  0
  139.8990   75.9290  221.6080 N   0  0  0  0  0  0  0  0  0  0  0  0
  138.5630   76.5130  221.3770 C   0  0  0  0  0  0  0  0  0  0  0  0
  138.2070   77.1340  222.7390 C   0  0  0  0  0  0  0  0  0  0  0  0
  139.1830   78.2770  222.8810 C   0  0  0  0  0  0  0  0  0  0  0  0
  138.6940   79.4130  223.4560 C   0  0  0  0  0  0  0  0  0  0  0  0
  139.5600   80.4840  223.5970 C   0  0  0  0  0  0  0  0  0  0  0  0
  140.8620   80.3640  223.1590 C   0  0  0  0  0  0  0  0  0  0  0  0
  141.3590   79.2070  222.5740 C   0  0  0  0  0  0  0  0  0  0  0  0
  140.4870   78.1290  222.4310 C   0  0  0  0  0  0  0  0  0  0  0  0
  140.9690   76.8650  221.8040 C   0  0  0  0  0  0  0  0  0  0  0  0
  143.6440   77.1320  220.8150 H   0  0  0  0  0  0  0  0  0  0  0  0
  144.1500   77.1610  219.1710 H   0  0  0  0  0  0  0  0  0  0  0  0
  141.9708   75.3329  217.8653 H   0  0  0  0  0  0  0  0  0  0  0  0
  143.2456   74.0346  217.6674 H   0  0  0  0  0  0  0  0  0  0  0  0
  141.2537   72.8818  217.6756 H   0  0  0  0  0  0  0  0  0  0  0  0
  141.9033   72.7337  219.3632 H   0  0  0  0  0  0  0  0  0  0  0  0
  140.1715   75.0928  219.0547 H   0  0  0  0  0  0  0  0  0  0  0  0
  139.3124   73.5692  218.6409 H   0  0  0  0  0  0  0  0  0  0  0  0
  140.1335   71.4819  220.4263 H   0  0  0  0  0  0  0  0  0  0  0  0
  138.0980   70.6274  222.8789 H   0  0  0  0  0  0  0  0  0  0  0  0
  139.5709   69.7722  222.1588 H   0  0  0  0  0  0  0  0  0  0  0  0
  137.9987   68.8920  224.1641 H   0  0  0  0  0  0  0  0  0  0  0  0
  139.7376   68.4121  223.7146 H   0  0  0  0  0  0  0  0  0  0  0  0
  138.4935   67.8849  226.3221 H   0  0  0  0  0  0  0  0  0  0  0  0
  139.2735   68.3866  228.6201 H   0  0  0  0  0  0  0  0  0  0  0  0
  140.7729   70.3558  228.9401 H   0  0  0  0  0  0  0  0  0  0  0  0
  141.4669   71.7737  227.0463 H   0  0  0  0  0  0  0  0  0  0  0  0
  140.7740   72.5412  224.8665 H   0  0  0  0  0  0  0  0  0  0  0  0
  141.8264   71.2090  224.2280 H   0  0  0  0  0  0  0  0  0  0  0  0
  138.5997   77.2817  220.5911 H   0  0  0  0  0  0  0  0  0  0  0  0
  137.8237   75.7738  221.0348 H   0  0  0  0  0  0  0  0  0  0  0  0
  137.1702   77.5015  222.7429 H   0  0  0  0  0  0  0  0  0  0  0  0
  138.2749   76.4119  223.5661 H   0  0  0  0  0  0  0  0  0  0  0  0
  137.6496   79.4760  223.7954 H   0  0  0  0  0  0  0  0  0  0  0  0
  139.2125   81.4222  224.0543 H   0  0  0  0  0  0  0  0  0  0  0  0
  141.5375   81.2239  223.2785 H   0  0  0  0  0  0  0  0  0  0  0  0
  142.4037   79.1434  222.2355 H   0  0  0  0  0  0  0  0  0  0  0  0
  141.4202   77.1001  220.8288 H   0  0  0  0  0  0  0  0  0  0  0  0
  141.7067   76.4066  222.4790 H   0  0  0  0  0  0  0  0  0  0  0  0
  1  2  1  0
  2  3  2  0
  2  4  2  0
  2  5  1  0
  5  6  1  0
  6  7  1  0
  7  8  1  0
  8  9  1  0
  9 10  2  0
 10 11  1  0
 11 12  1  0
 12 13  1  0
 13 14  1  0
 14 15  2  0
 15 16  1  0
 16 17  2  0
 17 18  1  0
 18 19  2  0
 19 20  1  0
 10 21  1  0
 21 22  2  0
 22 23  1  0
 23 24  1  0
 24 25  1  0
 25 26  1  0
 26 27  2  0
 27 28  1  0
 28 29  2  0
 29 30  1  0
 30 31  2  0
 31 32  1  0
 22  8  1  0
 32 23  1  0
 20 11  1  0
 31 26  1  0
 19 14  1  0
  1 33  1  0
  1 34  1  0
  5 35  1  0
  5 36  1  0
  6 37  1  0
  6 38  1  0
  7 39  1  0
  7 40  1  0
  9 41  1  0
 12 42  1  0
 12 43  1  0
 13 44  1  0
 13 45  1  0
 15 46  1  0
 16 47  1  0
 17 48  1  0
 18 49  1  0
 20 50  1  0
 20 51  1  0
 24 52  1  0
 24 53  1  0
 25 54  1  0
 25 55  1  0
 27 56  1  0
 28 57  1  0
 29 58  1  0
 30 59  1  0
 32 60  1  0
 32 61  1  0
M  END
>  <smiles>  (39) 
NS(=O)(=O)CCCn1cc(N2CCc3ccccc3C2)nc1N1CCc2ccccc2C1

>  <score_type>  (39) 
oracle

>  <origin>  (39) 
autodockgpu

>  <m_score__min__energy>  (39) 
-9.8200000000000003

>  <m_primary>  (39) 
energy

>  <rmsd>  (39) 
3.4490127831292816

>  <m_score__min__rmsd>  (39) 
3.4490127831292816

>  <meeko>  (39) 
{"free_energy": -8.86, "intermolecular_energy": -10.95, "internal_energy": -1.41, "cluster_size": 9, "cluster_id": 2, "rank_in_cluster": 4}

>  <energy>  (39) 
-8.86

>  <cluster_rmsd>  (39) 
0.31

>  <cluster>  (39) 
2

$$$$

     RDKit          3D

 61 65  0  0  0  0  0  0  0  0999 V2000
  144.6760   73.7860  218.6900 N   0  0  0  0  0  0  0  0  0  0  0  0
  145.2890   72.2410  219.0900 S   0  0  0  0  0  0  0  0  0  0  0  0
  146.3680   72.4080  220.1190 O   0  0  0  0  0  0  0  0  0  0  0  0
  145.8640   71.6510  217.8100 O   0  0  0  0  0  0  0  0  0  0  0  0
  144.0310   71.1040  219.6250 C   0  0  0  0  0  0  0  0  0  0  0  0
  143.3030   71.5410  220.8540 C   0  0  0  0  0  0  0  0  0  0  0  0
  141.7880   71.7000  220.5990 C   0  0  0  0  0  0  0  0  0  0  0  0
  141.3290   72.9490  221.1670 N   0  0  0  0  0  0  0  0  0  0  0  0
  141.6870   74.1540  220.6520 C   0  0  0  0  0  0  0  0  0  0  0  0
  141.0390   75.1060  221.4050 C   0  0  0  0  0  0  0  0  0  0  0  0
  141.1120   76.5240  221.2690 N   0  0  0  0  0  0  0  0  0  0  0  0
  141.6020   77.0730  220.0270 C   0  0  0  0  0  0  0  0  0  0  0  0
  141.7330   78.5430  219.9660 C   0  0  0  0  0  0  0  0  0  0  0  0
  141.7090   79.2750  221.2300 C   0  0  0  0  0  0  0  0  0  0  0  0
  142.2010   80.5700  221.2890 C   0  0  0  0  0  0  0  0  0  0  0  0
  142.1990   81.3020  222.4460 C   0  0  0  0  0  0  0  0  0  0  0  0
  141.6760   80.6810  223.5740 C   0  0  0  0  0  0  0  0  0  0  0  0
  141.1790   79.3930  223.5520 C   0  0  0  0  0  0  0  0  0  0  0  0
  141.1980   78.6840  222.3600 C   0  0  0  0  0  0  0  0  0  0  0  0
  140.6590   77.3100  222.3970 C   0  0  0  0  0  0  0  0  0  0  0  0
  140.3300   74.4380  222.3270 N   0  0  0  0  0  0  0  0  0  0  0  0
  140.5020   73.1100  222.1900 C   0  0  0  0  0  0  0  0  0  0  0  0
  139.9190   72.1560  223.0450 N   0  0  0  0  0  0  0  0  0  0  0  0
  138.7420   71.4310  222.5270 C   0  0  0  0  0  0  0  0  0  0  0  0
  139.2620   69.9940  222.3440 C   0  0  0  0  0  0  0  0  0  0  0  0
  139.5050   69.5140  223.7540 C   0  0  0  0  0  0  0  0  0  0  0  0
  139.1910   68.2110  224.0060 C   0  0  0  0  0  0  0  0  0  0  0  0
  139.3950   67.7390  225.2910 C   0  0  0  0  0  0  0  0  0  0  0  0
  139.9010   68.5890  226.2520 C   0  0  0  0  0  0  0  0  0  0  0  0
  140.2210   69.9160  225.9950 C   0  0  0  0  0  0  0  0  0  0  0  0
  140.0140   70.3910  224.7020 C   0  0  0  0  0  0  0  0  0  0  0  0
  140.3360   71.8110  224.3740 C   0  0  0  0  0  0  0  0  0  0  0  0
  144.2360   74.2860  219.4970 H   0  0  0  0  0  0  0  0  0  0  0  0
  145.3980   74.4020  218.2340 H   0  0  0  0  0  0  0  0  0  0  0  0
  143.2995   70.9891  218.8116 H   0  0  0  0  0  0  0  0  0  0  0  0
  144.5385   70.1601  219.8732 H   0  0  0  0  0  0  0  0  0  0  0  0
  143.4540   70.7896  221.6431 H   0  0  0  0  0  0  0  0  0  0  0  0
  143.7026   72.5199  221.1574 H   0  0  0  0  0  0  0  0  0  0  0  0
  141.5969   71.6983  219.5157 H   0  0  0  0  0  0  0  0  0  0  0  0
  141.2486   70.8646  221.0693 H   0  0  0  0  0  0  0  0  0  0  0  0
  142.3613   74.3331  219.8015 H   0  0  0  0  0  0  0  0  0  0  0  0
  142.5956   76.6402  219.8385 H   0  0  0  0  0  0  0  0  0  0  0  0
  140.8430   76.8154  219.2736 H   0  0  0  0  0  0  0  0  0  0  0  0
  142.6900   78.7684  219.4728 H   0  0  0  0  0  0  0  0  0  0  0  0
  140.8354   78.8824  219.4284 H   0  0  0  0  0  0  0  0  0  0  0  0
  142.6073   81.0254  220.3738 H   0  0  0  0  0  0  0  0  0  0  0  0
  142.5913   82.3291  222.4810 H   0  0  0  0  0  0  0  0  0  0  0  0
  141.6572   81.2380  224.5224 H   0  0  0  0  0  0  0  0  0  0  0  0
  140.7738   78.9357  224.4667 H   0  0  0  0  0  0  0  0  0  0  0  0
  140.9896   76.8228  223.3261 H   0  0  0  0  0  0  0  0  0  0  0  0
  139.5617   77.3720  222.3518 H   0  0  0  0  0  0  0  0  0  0  0  0
  137.9122   71.4607  223.2485 H   0  0  0  0  0  0  0  0  0  0  0  0
  138.3437   71.8657  221.5983 H   0  0  0  0  0  0  0  0  0  0  0  0
  138.5110   69.3671  221.8410 H   0  0  0  0  0  0  0  0  0  0  0  0
  140.1651   69.9460  221.7178 H   0  0  0  0  0  0  0  0  0  0  0  0
  138.7900   67.5586  223.2163 H   0  0  0  0  0  0  0  0  0  0  0  0
  139.1557   66.6954  225.5435 H   0  0  0  0  0  0  0  0  0  0  0  0
  140.0583   68.1983  227.2682 H   0  0  0  0  0  0  0  0  0  0  0  0
  140.6233   70.5683  226.7841 H   0  0  0  0  0  0  0  0  0  0  0  0
  139.8218   72.4680  225.0909 H   0  0  0  0  0  0  0  0  0  0  0  0
  141.4269   71.9384  224.4352 H   0  0  0  0  0  0  0  0  0  0  0  0
  1  2  1  0
  2  3  2  0
  2  4  2  0
  2  5  1  0
  5  6  1  0
  6  7  1  0
  7  8  1  0
  8  9  1  0
  9 10  2  0
 10 11  1  0
 11 12  1  0
 12 13  1  0
 13 14  1  0
 14 15  2  0
 15 16  1  0
 16 17  2  0
 17 18  1  0
 18 19  2  0
 19 20  1  0
 10 21  1  0
 21 22  2  0
 22 23  1  0
 23 24  1  0
 24 25  1  0
 25 26  1  0
 26 27  2  0
 27 28  1  0
 28 29  2  0
 29 30  1  0
 30 31  2  0
 31 32  1  0
 22  8  1  0
 32 23  1  0
 20 11  1  0
 31 26  1  0
 19 14  1  0
  1 33  1  0
  1 34  1  0
  5 35  1  0
  5 36  1  0
  6 37  1  0
  6 38  1  0
  7 39  1  0
  7 40  1  0
  9 41  1  0
 12 42  1  0
 12 43  1  0
 13 44  1  0
 13 45  1  0
 15 46  1  0
 16 47  1  0
 17 48  1  0
 18 49  1  0
 20 50  1  0
 20 51  1  0
 24 52  1  0
 24 53  1  0
 25 54  1  0
 25 55  1  0
 27 56  1  0
 28 57  1  0
 29 58  1  0
 30 59  1  0
 32 60  1  0
 32 61  1  0
M  END
>  <smiles>  (40) 
NS(=O)(=O)CCCn1cc(N2CCc3ccccc3C2)nc1N1CCc2ccccc2C1

>  <score_type>  (40) 
oracle

>  <origin>  (40) 
autodockgpu

>  <m_score__min__energy>  (40) 
-9.8200000000000003

>  <m_primary>  (40) 
energy

>  <rmsd>  (40) 
9.062584363451807

>  <m_score__min__rmsd>  (40) 
9.062584363451807

>  <meeko>  (40) 
{"free_energy": -9.17, "intermolecular_energy": -11.26, "internal_energy": -1.09, "cluster_size": 35, "cluster_id": 1, "rank_in_cluster": 16}

>  <energy>  (40) 
-8.63

>  <cluster_rmsd>  (40) 
1.18

>  <cluster>  (40) 
2

$$$$

     RDKit          3D

 61 65  0  0  0  0  0  0  0  0999 V2000
  146.6570   73.7680  219.4620 N   0  0  0  0  0  0  0  0  0  0  0  0
  145.5490   72.9000  218.4930 S   0  0  0  0  0  0  0  0  0  0  0  0
  145.3680   71.5320  219.0860 O   0  0  0  0  0  0  0  0  0  0  0  0
  146.1650   72.7970  217.1050 O   0  0  0  0  0  0  0  0  0  0  0  0
  143.9980   73.7400  218.2750 C   0  0  0  0  0  0  0  0  0  0  0  0
  143.2240   73.9210  219.5400 C   0  0  0  0  0  0  0  0  0  0  0  0
  141.7840   73.3760  219.4160 C   0  0  0  0  0  0  0  0  0  0  0  0
  141.2380   73.1440  220.7350 N   0  0  0  0  0  0  0  0  0  0  0  0
  141.2440   71.9160  221.3170 C   0  0  0  0  0  0  0  0  0  0  0  0
  140.6940   72.0760  222.5670 C   0  0  0  0  0  0  0  0  0  0  0  0
  140.4630   71.0710  223.5540 N   0  0  0  0  0  0  0  0  0  0  0  0
  139.4860   70.0460  223.2780 C   0  0  0  0  0  0  0  0  0  0  0  0
  139.2270   69.0780  224.3630 C   0  0  0  0  0  0  0  0  0  0  0  0
  139.6850   69.4290  225.7040 C   0  0  0  0  0  0  0  0  0  0  0  0
  139.1560   68.7790  226.8090 C   0  0  0  0  0  0  0  0  0  0  0  0
  139.5520   69.0680  228.0880 C   0  0  0  0  0  0  0  0  0  0  0  0
  140.5210   70.0540  228.2300 C   0  0  0  0  0  0  0  0  0  0  0  0
  141.0700   70.7220  227.1540 C   0  0  0  0  0  0  0  0  0  0  0  0
  140.6410   70.4010  225.8730 C   0  0  0  0  0  0  0  0  0  0  0  0
  141.2580   71.1510  224.7610 C   0  0  0  0  0  0  0  0  0  0  0  0
  140.3860   73.3770  222.6800 N   0  0  0  0  0  0  0  0  0  0  0  0
  140.7160   74.0420  221.5570 C   0  0  0  0  0  0  0  0  0  0  0  0
  140.4680   75.4150  221.3640 N   0  0  0  0  0  0  0  0  0  0  0  0
  139.0550   75.8410  221.3630 C   0  0  0  0  0  0  0  0  0  0  0  0
  138.9310   76.6650  222.6550 C   0  0  0  0  0  0  0  0  0  0  0  0
  139.7740   77.8890  222.3870 C   0  0  0  0  0  0  0  0  0  0  0  0
  139.2910   79.0670  222.8750 C   0  0  0  0  0  0  0  0  0  0  0  0
  140.0350   80.2110  222.6420 C   0  0  0  0  0  0  0  0  0  0  0  0
  141.2170   80.1170  221.9370 C   0  0  0  0  0  0  0  0  0  0  0  0
  141.7080   78.9170  221.4400 C   0  0  0  0  0  0  0  0  0  0  0  0
  140.9580   77.7660  221.6750 C   0  0  0  0  0  0  0  0  0  0  0  0
  141.4380   76.4520  221.1570 C   0  0  0  0  0  0  0  0  0  0  0  0
  147.4470   74.1910  218.9220 H   0  0  0  0  0  0  0  0  0  0  0  0
  146.1890   74.5040  220.0520 H   0  0  0  0  0  0  0  0  0  0  0  0
  144.1993   74.7332  217.8471 H   0  0  0  0  0  0  0  0  0  0  0  0
  143.3848   73.1110  217.6129 H   0  0  0  0  0  0  0  0  0  0  0  0
  143.7384   73.3856  220.3516 H   0  0  0  0  0  0  0  0  0  0  0  0
  143.1640   74.9987  219.7522 H   0  0  0  0  0  0  0  0  0  0  0  0
  141.1594   74.1094  218.8850 H   0  0  0  0  0  0  0  0  0  0  0  0
  141.7984   72.4300  218.8549 H   0  0  0  0  0  0  0  0  0  0  0  0
  141.6153   70.9794  220.8755 H   0  0  0  0  0  0  0  0  0  0  0  0
  138.5350   70.5451  223.0404 H   0  0  0  0  0  0  0  0  0  0  0  0
  139.9079   69.4542  222.4523 H   0  0  0  0  0  0  0  0  0  0  0  0
  138.1388   68.9260  224.4159 H   0  0  0  0  0  0  0  0  0  0  0  0
  139.8142   68.1886  224.0906 H   0  0  0  0  0  0  0  0  0  0  0  0
  138.3913   68.0039  226.6528 H   0  0  0  0  0  0  0  0  0  0  0  0
  139.1252   68.5467  228.9576 H   0  0  0  0  0  0  0  0  0  0  0  0
  140.8649   70.3130  229.2423 H   0  0  0  0  0  0  0  0  0  0  0  0
  141.8355   71.4966  227.3090 H   0  0  0  0  0  0  0  0  0  0  0  0
  141.3555   72.2067  225.0541 H   0  0  0  0  0  0  0  0  0  0  0  0
  142.2425   70.7067  224.5528 H   0  0  0  0  0  0  0  0  0  0  0  0
  138.8302   76.4572  220.4800 H   0  0  0  0  0  0  0  0  0  0  0  0
  138.3516   74.9963  221.3230 H   0  0  0  0  0  0  0  0  0  0  0  0
  137.8836   76.9444  222.8421 H   0  0  0  0  0  0  0  0  0  0  0  0
  139.2601   76.1097  223.5457 H   0  0  0  0  0  0  0  0  0  0  0  0
  138.3443   79.1069  223.4337 H   0  0  0  0  0  0  0  0  0  0  0  0
  139.6870   81.1854  223.0154 H   0  0  0  0  0  0  0  0  0  0  0  0
  141.7971   81.0347  221.7604 H   0  0  0  0  0  0  0  0  0  0  0  0
  142.6545   78.8763  220.8811 H   0  0  0  0  0  0  0  0  0  0  0  0
  141.6368   76.5446  220.0791 H   0  0  0  0  0  0  0  0  0  0  0  0
  142.3530   76.1807  221.7040 H   0  0  0  0  0  0  0  0  0  0  0  0
  1  2  1  0
  2  3  2  0
  2  4  2  0
  2  5  1  0
  5  6  1  0
  6  7  1  0
  7  8  1  0
  8  9  1  0
  9 10  2  0
 10 11  1  0
 11 12  1  0
 12 13  1  0
 13 14  1  0
 14 15  2  0
 15 16  1  0
 16 17  2  0
 17 18  1  0
 18 19  2  0
 19 20  1  0
 10 21  1  0
 21 22  2  0
 22 23  1  0
 23 24  1  0
 24 25  1  0
 25 26  1  0
 26 27  2  0
 27 28  1  0
 28 29  2  0
 29 30  1  0
 30 31  2  0
 31 32  1  0
 22  8  1  0
 32 23  1  0
 20 11  1  0
 31 26  1  0
 19 14  1  0
  1 33  1  0
  1 34  1  0
  5 35  1  0
  5 36  1  0
  6 37  1  0
  6 38  1  0
  7 39  1  0
  7 40  1  0
  9 41  1  0
 12 42  1  0
 12 43  1  0
 13 44  1  0
 13 45  1  0
 15 46  1  0
 16 47  1  0
 17 48  1  0
 18 49  1  0
 20 50  1  0
 20 51  1  0
 24 52  1  0
 24 53  1  0
 25 54  1  0
 25 55  1  0
 27 56  1  0
 28 57  1  0
 29 58  1  0
 30 59  1  0
 32 60  1  0
 32 61  1  0
M  END
>  <smiles>  (41) 
NS(=O)(=O)CCCn1cc(N2CCc3ccccc3C2)nc1N1CCc2ccccc2C1

>  <score_type>  (41) 
oracle

>  <origin>  (41) 
autodockgpu

>  <m_score__min__energy>  (41) 
-9.8200000000000003

>  <m_primary>  (41) 
energy

>  <rmsd>  (41) 
4.014985330110621

>  <m_score__min__rmsd>  (41) 
4.014985330110621

>  <meeko>  (41) 
{"free_energy": -9.24, "intermolecular_energy": -11.33, "internal_energy": -0.97, "cluster_size": 35, "cluster_id": 1, "rank_in_cluster": 14}

>  <energy>  (41) 
-8.56

>  <cluster_rmsd>  (41) 
1.84

>  <cluster>  (41) 
2

$$$$

     RDKit          3D

 61 65  0  0  0  0  0  0  0  0999 V2000
  142.9480   80.0330  217.5360 N   0  0  0  0  0  0  0  0  0  0  0  0
  141.9850   78.7200  218.0580 S   0  0  0  0  0  0  0  0  0  0  0  0
  141.0170   78.3750  216.9640 O   0  0  0  0  0  0  0  0  0  0  0  0
  141.2380   79.1890  219.2980 O   0  0  0  0  0  0  0  0  0  0  0  0
  142.9390   77.3100  218.5700 C   0  0  0  0  0  0  0  0  0  0  0  0
  142.1120   76.1270  218.9570 C   0  0  0  0  0  0  0  0  0  0  0  0
  142.7780   75.3020  220.0790 C   0  0  0  0  0  0  0  0  0  0  0  0
  141.7580   74.7140  220.9200 N   0  0  0  0  0  0  0  0  0  0  0  0
  141.6740   73.3740  221.1280 C   0  0  0  0  0  0  0  0  0  0  0  0
  140.6290   73.1820  222.0020 C   0  0  0  0  0  0  0  0  0  0  0  0
  140.1320   71.9440  222.5080 N   0  0  0  0  0  0  0  0  0  0  0  0
  139.0130   71.3250  221.8390 C   0  0  0  0  0  0  0  0  0  0  0  0
  138.4870   70.0870  222.4490 C   0  0  0  0  0  0  0  0  0  0  0  0
  138.8790   69.7950  223.8250 C   0  0  0  0  0  0  0  0  0  0  0  0
  138.1430   68.8910  224.5770 C   0  0  0  0  0  0  0  0  0  0  0  0
  138.4700   68.5780  225.8700 C   0  0  0  0  0  0  0  0  0  0  0  0
  139.5850   69.2140  226.4010 C   0  0  0  0  0  0  0  0  0  0  0  0
  140.3400   70.1200  225.6830 C   0  0  0  0  0  0  0  0  0  0  0  0
  139.9770   70.4100  224.3750 C   0  0  0  0  0  0  0  0  0  0  0  0
  140.8160   71.3890  223.6570 C   0  0  0  0  0  0  0  0  0  0  0  0
  140.1380   74.3990  222.2760 N   0  0  0  0  0  0  0  0  0  0  0  0
  140.8250   75.3490  221.6140 C   0  0  0  0  0  0  0  0  0  0  0  0
  140.5090   76.7200  221.6690 N   0  0  0  0  0  0  0  0  0  0  0  0
  139.1180   77.0950  221.3460 C   0  0  0  0  0  0  0  0  0  0  0  0
  138.5580   77.5770  222.6950 C   0  0  0  0  0  0  0  0  0  0  0  0
  139.3190   78.8520  222.9690 C   0  0  0  0  0  0  0  0  0  0  0  0
  138.6060   79.8630  223.5430 C   0  0  0  0  0  0  0  0  0  0  0  0
  139.2710   81.0490  223.8030 C   0  0  0  0  0  0  0  0  0  0  0  0
  140.6070   81.1620  223.4760 C   0  0  0  0  0  0  0  0  0  0  0  0
  141.3310   80.1320  222.8910 C   0  0  0  0  0  0  0  0  0  0  0  0
  140.6610   78.9390  222.6290 C   0  0  0  0  0  0  0  0  0  0  0  0
  141.3930   77.8030  221.9960 C   0  0  0  0  0  0  0  0  0  0  0  0
  143.9490   79.9640  217.8340 H   0  0  0  0  0  0  0  0  0  0  0  0
  142.8910   80.1890  216.4970 H   0  0  0  0  0  0  0  0  0  0  0  0
  143.5961   77.0160  217.7383 H   0  0  0  0  0  0  0  0  0  0  0  0
  143.5010   77.6132  219.4657 H   0  0  0  0  0  0  0  0  0  0  0  0
  141.1308   76.4786  219.3085 H   0  0  0  0  0  0  0  0  0  0  0  0
  142.0079   75.4799  218.0736 H   0  0  0  0  0  0  0  0  0  0  0  0
  143.3895   74.5039  219.6328 H   0  0  0  0  0  0  0  0  0  0  0  0
  143.4172   75.9600  220.6859 H   0  0  0  0  0  0  0  0  0  0  0  0
  142.3144   72.5968  220.6854 H   0  0  0  0  0  0  0  0  0  0  0  0
  138.1934   72.0581  221.8094 H   0  0  0  0  0  0  0  0  0  0  0  0
  139.3921   71.0259  220.8507 H   0  0  0  0  0  0  0  0  0  0  0  0
  137.3890   70.1485  222.4250 H   0  0  0  0  0  0  0  0  0  0  0  0
  138.9254   69.2726  221.8535 H   0  0  0  0  0  0  0  0  0  0  0  0
  137.2666   68.4089  224.1193 H   0  0  0  0  0  0  0  0  0  0  0  0
  137.8797   67.8596  226.4578 H   0  0  0  0  0  0  0  0  0  0  0  0
  139.8786   68.9864  227.4364 H   0  0  0  0  0  0  0  0  0  0  0  0
  141.2154   70.6044  226.1403 H   0  0  0  0  0  0  0  0  0  0  0  0
  141.0769   72.2066  224.3451 H   0  0  0  0  0  0  0  0  0  0  0  0
  141.7174   70.8695  223.2999 H   0  0  0  0  0  0  0  0  0  0  0  0
  139.0909   77.9009  220.5977 H   0  0  0  0  0  0  0  0  0  0  0  0
  138.5392   76.2667  220.9113 H   0  0  0  0  0  0  0  0  0  0  0  0
  137.4781   77.7735  222.6228 H   0  0  0  0  0  0  0  0  0  0  0  0
  138.6774   76.8313  223.4948 H   0  0  0  0  0  0  0  0  0  0  0  0
  137.5412   79.7405  223.7904 H   0  0  0  0  0  0  0  0  0  0  0  0
  138.7395   81.8935  224.2659 H   0  0  0  0  0  0  0  0  0  0  0  0
  141.1213   82.1109  223.6884 H   0  0  0  0  0  0  0  0  0  0  0  0
  142.3958   80.2535  222.6432 H   0  0  0  0  0  0  0  0  0  0  0  0
  141.8767   78.1594  221.0746 H   0  0  0  0  0  0  0  0  0  0  0  0
  142.1394   77.4325  222.7141 H   0  0  0  0  0  0  0  0  0  0  0  0
  1  2  1  0
  2  3  2  0
  2  4  2  0
  2  5  1  0
  5  6  1  0
  6  7  1  0
  7  8  1  0
  8  9  1  0
  9 10  2  0
 10 11  1  0
 11 12  1  0
 12 13  1  0
 13 14  1  0
 14 15  2  0
 15 16  1  0
 16 17  2  0
 17 18  1  0
 18 19  2  0
 19 20  1  0
 10 21  1  0
 21 22  2  0
 22 23  1  0
 23 24  1  0
 24 25  1  0
 25 26  1  0
 26 27  2  0
 27 28  1  0
 28 29  2  0
 29 30  1  0
 30 31  2  0
 31 32  1  0
 22  8  1  0
 32 23  1  0
 20 11  1  0
 31 26  1  0
 19 14  1  0
  1 33  1  0
  1 34  1  0
  5 35  1  0
  5 36  1  0
  6 37  1  0
  6 38  1  0
  7 39  1  0
  7 40  1  0
  9 41  1  0
 12 42  1  0
 12 43  1  0
 13 44  1  0
 13 45  1  0
 15 46  1  0
 16 47  1  0
 17 48  1  0
 18 49  1  0
 20 50  1  0
 20 51  1  0
 24 52  1  0
 24 53  1  0
 25 54  1  0
 25 55  1  0
 27 56  1  0
 28 57  1  0
 29 58  1  0
 30 59  1  0
 32 60  1  0
 32 61  1  0
M  END
>  <smiles>  (42) 
NS(=O)(=O)CCCn1cc(N2CCc3ccccc3C2)nc1N1CCc2ccccc2C1

>  <score_type>  (42) 
oracle

>  <origin>  (42) 
autodockgpu

>  <m_score__min__energy>  (42) 
-9.8200000000000003

>  <m_primary>  (42) 
energy

>  <rmsd>  (42) 
3.673511209016798

>  <m_score__min__rmsd>  (42) 
3.673511209016798

>  <meeko>  (42) 
{"free_energy": -8.1, "intermolecular_energy": -10.19, "internal_energy": -1.41, "cluster_size": 1, "cluster_id": 4, "rank_in_cluster": 1}

>  <energy>  (42) 
-8.47

>  <cluster_rmsd>  (42) 
1.73

>  <cluster>  (42) 
2

$$$$

     RDKit          3D

 61 65  0  0  0  0  0  0  0  0999 V2000
  144.1560   75.4970  217.4280 N   0  0  0  0  0  0  0  0  0  0  0  0
  142.7770   76.1590  218.1910 S   0  0  0  0  0  0  0  0  0  0  0  0
  142.6600   77.6030  217.7950 O   0  0  0  0  0  0  0  0  0  0  0  0
  143.0040   76.0390  219.6910 O   0  0  0  0  0  0  0  0  0  0  0  0
  141.2850   75.2550  217.8520 C   0  0  0  0  0  0  0  0  0  0  0  0
  140.2590   75.3500  218.9340 C   0  0  0  0  0  0  0  0  0  0  0  0
  139.5710   73.9930  219.1960 C   0  0  0  0  0  0  0  0  0  0  0  0
  139.6720   73.6620  220.6010 N   0  0  0  0  0  0  0  0  0  0  0  0
  139.6540   72.3780  221.0450 C   0  0  0  0  0  0  0  0  0  0  0  0
  139.8130   72.4380  222.4100 C   0  0  0  0  0  0  0  0  0  0  0  0
  139.8390   71.3500  223.3340 N   0  0  0  0  0  0  0  0  0  0  0  0
  139.0460   70.1800  223.0430 C   0  0  0  0  0  0  0  0  0  0  0  0
  139.0450   69.1180  224.0690 C   0  0  0  0  0  0  0  0  0  0  0  0
  139.5250   69.4670  225.4030 C   0  0  0  0  0  0  0  0  0  0  0  0
  139.2020   68.6650  226.4880 C   0  0  0  0  0  0  0  0  0  0  0  0
  139.6290   68.9460  227.7580 C   0  0  0  0  0  0  0  0  0  0  0  0
  140.4110   70.0840  227.9140 C   0  0  0  0  0  0  0  0  0  0  0  0
  140.7520   70.9050  226.8580 C   0  0  0  0  0  0  0  0  0  0  0  0
  140.2990   70.5880  225.5850 C   0  0  0  0  0  0  0  0  0  0  0  0
  140.6890   71.5040  224.4960 C   0  0  0  0  0  0  0  0  0  0  0  0
  139.9170   73.7380  222.7210 N   0  0  0  0  0  0  0  0  0  0  0  0
  139.8310   74.5000  221.6140 C   0  0  0  0  0  0  0  0  0  0  0  0
  139.8600   75.9070  221.6320 N   0  0  0  0  0  0  0  0  0  0  0  0
  138.5870   76.6020  221.3580 C   0  0  0  0  0  0  0  0  0  0  0  0
  138.2320   77.2400  222.7120 C   0  0  0  0  0  0  0  0  0  0  0  0
  139.2920   78.2970  222.9040 C   0  0  0  0  0  0  0  0  0  0  0  0
  138.8770   79.4650  223.4730 C   0  0  0  0  0  0  0  0  0  0  0  0
  139.8220   80.4590  223.6580 C   0  0  0  0  0  0  0  0  0  0  0  0
  141.1260   80.2350  223.2680 C   0  0  0  0  0  0  0  0  0  0  0  0
  141.5480   79.0450  222.6890 C   0  0  0  0  0  0  0  0  0  0  0  0
  140.5960   78.0450  222.5020 C   0  0  0  0  0  0  0  0  0  0  0  0
  140.9960   76.7500  221.8790 C   0  0  0  0  0  0  0  0  0  0  0  0
  144.8300   76.2180  217.0790 H   0  0  0  0  0  0  0  0  0  0  0  0
  144.6580   74.7980  218.0350 H   0  0  0  0  0  0  0  0  0  0  0  0
  140.8458   75.6478  216.9231 H   0  0  0  0  0  0  0  0  0  0  0  0
  141.5662   74.1946  217.7716 H   0  0  0  0  0  0  0  0  0  0  0  0
  140.7489   75.6850  219.8602 H   0  0  0  0  0  0  0  0  0  0  0  0
  139.4887   76.0660  218.6114 H   0  0  0  0  0  0  0  0  0  0  0  0
  138.5107   74.0587  218.9105 H   0  0  0  0  0  0  0  0  0  0  0  0
  140.0646   73.2115  218.5997 H   0  0  0  0  0  0  0  0  0  0  0  0
  139.5358   71.4708  220.4343 H   0  0  0  0  0  0  0  0  0  0  0  0
  138.0059   70.5076  222.8989 H   0  0  0  0  0  0  0  0  0  0  0  0
  139.5073   69.7272  222.1530 H   0  0  0  0  0  0  0  0  0  0  0  0
  138.0092   68.7630  224.1743 H   0  0  0  0  0  0  0  0  0  0  0  0
  139.7638   68.3718  223.6996 H   0  0  0  0  0  0  0  0  0  0  0  0
  138.5812   67.7722  226.3221 H   0  0  0  0  0  0  0  0  0  0  0  0
  139.3664   68.3036  228.6115 H   0  0  0  0  0  0  0  0  0  0  0  0
  140.7732   70.3412  228.9203 H   0  0  0  0  0  0  0  0  0  0  0  0
  141.3736   71.7974  227.0230 H   0  0  0  0  0  0  0  0  0  0  0  0
  140.6133   72.5400  224.8578 H   0  0  0  0  0  0  0  0  0  0  0  0
  141.7206   71.2633  224.1995 H   0  0  0  0  0  0  0  0  0  0  0  0
  138.7172   77.3710  220.5823 H   0  0  0  0  0  0  0  0  0  0  0  0
  137.8025   75.9295  220.9808 H   0  0  0  0  0  0  0  0  0  0  0  0
  137.2296   77.6920  222.6809 H   0  0  0  0  0  0  0  0  0  0  0  0
  138.2090   76.5081  223.5329 H   0  0  0  0  0  0  0  0  0  0  0  0
  137.8292   79.6116  223.7740 H   0  0  0  0  0  0  0  0  0  0  0  0
  139.5358   81.4192  224.1120 H   0  0  0  0  0  0  0  0  0  0  0  0
  141.8651   81.0349  223.4225 H   0  0  0  0  0  0  0  0  0  0  0  0
  142.5960   78.8974  222.3889 H   0  0  0  0  0  0  0  0  0  0  0  0
  141.5023   76.9549  220.9242 H   0  0  0  0  0  0  0  0  0  0  0  0
  141.6668   76.2265  222.5761 H   0  0  0  0  0  0  0  0  0  0  0  0
  1  2  1  0
  2  3  2  0
  2  4  2  0
  2  5  1  0
  5  6  1  0
  6  7  1  0
  7  8  1  0
  8  9  1  0
  9 10  2  0
 10 11  1  0
 11 12  1  0
 12 13  1  0
 13 14  1  0
 14 15  2  0
 15 16  1  0
 16 17  2  0
 17 18  1  0
 18 19  2  0
 19 20  1  0
 10 21  1  0
 21 22  2  0
 22 23  1  0
 23 24  1  0
 24 25  1  0
 25 26  1  0
 26 27  2  0
 27 28  1  0
 28 29  2  0
 29 30  1  0
 30 31  2  0
 31 32  1  0
 22  8  1  0
 32 23  1  0
 20 11  1  0
 31 26  1  0
 19 14  1  0
  1 33  1  0
  1 34  1  0
  5 35  1  0
  5 36  1  0
  6 37  1  0
  6 38  1  0
  7 39  1  0
  7 40  1  0
  9 41  1  0
 12 42  1  0
 12 43  1  0
 13 44  1  0
 13 45  1  0
 15 46  1  0
 16 47  1  0
 17 48  1  0
 18 49  1  0
 20 50  1  0
 20 51  1  0
 24 52  1  0
 24 53  1  0
 25 54  1  0
 25 55  1  0
 27 56  1  0
 28 57  1  0
 29 58  1  0
 30 59  1  0
 32 60  1  0
 32 61  1  0
M  END
>  <smiles>  (43) 
NS(=O)(=O)CCCn1cc(N2CCc3ccccc3C2)nc1N1CCc2ccccc2C1

>  <score_type>  (43) 
oracle

>  <origin>  (43) 
autodockgpu

>  <m_score__min__energy>  (43) 
-9.8200000000000003

>  <m_primary>  (43) 
energy

>  <rmsd>  (43) 
3.337715743618697

>  <m_score__min__rmsd>  (43) 
3.337715743618697

>  <meeko>  (43) 
{"free_energy": -8.63, "intermolecular_energy": -10.72, "internal_energy": -1.14, "cluster_size": 9, "cluster_id": 2, "rank_in_cluster": 5}

>  <energy>  (43) 
-8.34

>  <cluster_rmsd>  (43) 
1.61

>  <cluster>  (43) 
2

$$$$

     RDKit          3D

 61 65  0  0  0  0  0  0  0  0999 V2000
  144.4360   74.5000  218.1670 N   0  0  0  0  0  0  0  0  0  0  0  0
  143.1150   75.0930  219.0750 S   0  0  0  0  0  0  0  0  0  0  0  0
  143.5240   76.3830  219.7250 O   0  0  0  0  0  0  0  0  0  0  0  0
  142.8010   74.0440  220.1310 O   0  0  0  0  0  0  0  0  0  0  0  0
  141.6300   75.2760  218.1150 C   0  0  0  0  0  0  0  0  0  0  0  0
  140.3780   75.2720  218.9310 C   0  0  0  0  0  0  0  0  0  0  0  0
  139.8500   73.8400  219.1670 C   0  0  0  0  0  0  0  0  0  0  0  0
  139.8670   73.5440  220.5830 N   0  0  0  0  0  0  0  0  0  0  0  0
  139.8570   72.2710  221.0570 C   0  0  0  0  0  0  0  0  0  0  0  0
  139.9240   72.3670  222.4280 C   0  0  0  0  0  0  0  0  0  0  0  0
  139.9190   71.3030  223.3780 N   0  0  0  0  0  0  0  0  0  0  0  0
  139.1160   70.1360  223.1020 C   0  0  0  0  0  0  0  0  0  0  0  0
  139.0830   69.0990  224.1540 C   0  0  0  0  0  0  0  0  0  0  0  0
  139.5450   69.4760  225.4870 C   0  0  0  0  0  0  0  0  0  0  0  0
  139.1930   68.7050  226.5850 C   0  0  0  0  0  0  0  0  0  0  0  0
  139.6020   69.0110  227.8560 C   0  0  0  0  0  0  0  0  0  0  0  0
  140.3960   70.1430  227.9970 C   0  0  0  0  0  0  0  0  0  0  0  0
  140.7660   70.9330  226.9280 C   0  0  0  0  0  0  0  0  0  0  0  0
  140.3310   70.5900  225.6550 C   0  0  0  0  0  0  0  0  0  0  0  0
  140.7510   71.4740  224.5500 C   0  0  0  0  0  0  0  0  0  0  0  0
  139.9710   73.6770  222.7120 N   0  0  0  0  0  0  0  0  0  0  0  0
  139.9350   74.4100  221.5840 C   0  0  0  0  0  0  0  0  0  0  0  0
  139.9240   75.8180  221.5680 N   0  0  0  0  0  0  0  0  0  0  0  0
  138.6170   76.4690  221.3500 C   0  0  0  0  0  0  0  0  0  0  0  0
  138.3180   77.1290  222.7070 C   0  0  0  0  0  0  0  0  0  0  0  0
  139.3550   78.2200  222.8160 C   0  0  0  0  0  0  0  0  0  0  0  0
  138.9380   79.3900  223.3800 C   0  0  0  0  0  0  0  0  0  0  0  0
  139.8610   80.4140  223.4900 C   0  0  0  0  0  0  0  0  0  0  0  0
  141.1480   80.2180  223.0330 C   0  0  0  0  0  0  0  0  0  0  0  0
  141.5730   79.0270  222.4590 C   0  0  0  0  0  0  0  0  0  0  0  0
  140.6420   77.9960  222.3470 C   0  0  0  0  0  0  0  0  0  0  0  0
  141.0460   76.6980  221.7320 C   0  0  0  0  0  0  0  0  0  0  0  0
  144.8120   75.1870  217.4720 H   0  0  0  0  0  0  0  0  0  0  0  0
  145.2170   74.1400  218.7750 H   0  0  0  0  0  0  0  0  0  0  0  0
  141.6852   76.2298  217.5698 H   0  0  0  0  0  0  0  0  0  0  0  0
  141.5756   74.4078  217.4418 H   0  0  0  0  0  0  0  0  0  0  0  0
  140.5865   75.7393  219.9047 H   0  0  0  0  0  0  0  0  0  0  0  0
  139.6091   75.8326  218.3791 H   0  0  0  0  0  0  0  0  0  0  0  0
  138.8198   73.7627  218.7891 H   0  0  0  0  0  0  0  0  0  0  0  0
  140.4918   73.1217  218.6358 H   0  0  0  0  0  0  0  0  0  0  0  0
  139.8055   71.3468  220.4627 H   0  0  0  0  0  0  0  0  0  0  0  0
  138.0829   70.4730  222.9314 H   0  0  0  0  0  0  0  0  0  0  0  0
  139.5872   69.6555  222.2319 H   0  0  0  0  0  0  0  0  0  0  0  0
  138.0409   68.7601  224.2501 H   0  0  0  0  0  0  0  0  0  0  0  0
  139.7973   68.3339  223.8158 H   0  0  0  0  0  0  0  0  0  0  0  0
  138.5632   67.8166  226.4296 H   0  0  0  0  0  0  0  0  0  0  0  0
  139.3169   68.3930  228.7201 H   0  0  0  0  0  0  0  0  0  0  0  0
  140.7440   70.4207  229.0029 H   0  0  0  0  0  0  0  0  0  0  0  0
  141.3962   71.8213  227.0821 H   0  0  0  0  0  0  0  0  0  0  0  0
  140.6832   72.5195  224.8852 H   0  0  0  0  0  0  0  0  0  0  0  0
  141.7839   71.2122  224.2768 H   0  0  0  0  0  0  0  0  0  0  0  0
  138.6807   77.2225  220.5511 H   0  0  0  0  0  0  0  0  0  0  0  0
  137.8337   75.7650  221.0325 H   0  0  0  0  0  0  0  0  0  0  0  0
  137.3024   77.5514  222.7215 H   0  0  0  0  0  0  0  0  0  0  0  0
  138.3618   76.4167  223.5441 H   0  0  0  0  0  0  0  0  0  0  0  0
  137.9042   79.5145  223.7347 H   0  0  0  0  0  0  0  0  0  0  0  0
  139.5716   81.3761  223.9378 H   0  0  0  0  0  0  0  0  0  0  0  0
  141.8701   81.0424  223.1276 H   0  0  0  0  0  0  0  0  0  0  0  0
  142.6071   78.9019  222.1055 H   0  0  0  0  0  0  0  0  0  0  0  0
  141.4928   76.8940  220.7461 H   0  0  0  0  0  0  0  0  0  0  0  0
  141.7697   76.2108  222.4020 H   0  0  0  0  0  0  0  0  0  0  0  0
  1  2  1  0
  2  3  2  0
  2  4  2  0
  2  5  1  0
  5  6  1  0
  6  7  1  0
  7  8  1  0
  8  9  1  0
  9 10  2  0
 10 11  1  0
 11 12  1  0
 12 13  1  0
 13 14  1  0
 14 15  2  0
 15 16  1  0
 16 17  2  0
 17 18  1  0
 18 19  2  0
 19 20  1  0
 10 21  1  0
 21 22  2  0
 22 23  1  0
 23 24  1  0
 24 25  1  0
 25 26  1  0
 26 27  2  0
 27 28  1  0
 28 29  2  0
 29 30  1  0
 30 31  2  0
 31 32  1  0
 22  8  1  0
 32 23  1  0
 20 11  1  0
 31 26  1  0
 19 14  1  0
  1 33  1  0
  1 34  1  0
  5 35  1  0
  5 36  1  0
  6 37  1  0
  6 38  1  0
  7 39  1  0
  7 40  1  0
  9 41  1  0
 12 42  1  0
 12 43  1  0
 13 44  1  0
 13 45  1  0
 15 46  1  0
 16 47  1  0
 17 48  1  0
 18 49  1  0
 20 50  1  0
 20 51  1  0
 24 52  1  0
 24 53  1  0
 25 54  1  0
 25 55  1  0
 27 56  1  0
 28 57  1  0
 29 58  1  0
 30 59  1  0
 32 60  1  0
 32 61  1  0
M  END
>  <smiles>  (44) 
NS(=O)(=O)CCCn1cc(N2CCc3ccccc3C2)nc1N1CCc2ccccc2C1

>  <score_type>  (44) 
oracle

>  <origin>  (44) 
autodockgpu

>  <m_score__min__energy>  (44) 
-9.8200000000000003

>  <m_primary>  (44) 
energy

>  <rmsd>  (44) 
3.3537399375770716

>  <m_score__min__rmsd>  (44) 
3.3537399375770716

>  <meeko>  (44) 
{"free_energy": -8.77, "intermolecular_energy": -10.86, "internal_energy": -1.29, "cluster_size": 35, "cluster_id": 1, "rank_in_cluster": 30}

>  <energy>  (44) 
-8.14

>  <cluster_rmsd>  (44) 
1.04

>  <cluster>  (44) 
2

$$$$

     RDKit          3D

 61 65  0  0  0  0  0  0  0  0999 V2000
  143.6900   76.4170  218.9790 N   0  0  0  0  0  0  0  0  0  0  0  0
  143.9150   74.7720  219.3850 S   0  0  0  0  0  0  0  0  0  0  0  0
  144.8890   74.6910  220.5240 O   0  0  0  0  0  0  0  0  0  0  0  0
  144.4870   74.0890  218.1500 O   0  0  0  0  0  0  0  0  0  0  0  0
  142.3960   73.9230  219.7490 C   0  0  0  0  0  0  0  0  0  0  0  0
  141.2700   74.2780  218.8330 C   0  0  0  0  0  0  0  0  0  0  0  0
  139.9790   73.5070  219.1840 C   0  0  0  0  0  0  0  0  0  0  0  0
  139.9550   73.2200  220.6010 N   0  0  0  0  0  0  0  0  0  0  0  0
  139.9610   71.9500  221.0840 C   0  0  0  0  0  0  0  0  0  0  0  0
  139.9780   72.0560  222.4560 C   0  0  0  0  0  0  0  0  0  0  0  0
  139.9680   70.9980  223.4130 N   0  0  0  0  0  0  0  0  0  0  0  0
  139.1180   69.8570  223.1700 C   0  0  0  0  0  0  0  0  0  0  0  0
  139.0840   68.8280  224.2290 C   0  0  0  0  0  0  0  0  0  0  0  0
  139.6010   69.1960  225.5440 C   0  0  0  0  0  0  0  0  0  0  0  0
  139.2580   68.4440  226.6580 C   0  0  0  0  0  0  0  0  0  0  0  0
  139.7170   68.7430  227.9130 C   0  0  0  0  0  0  0  0  0  0  0  0
  140.5530   69.8480  228.0220 C   0  0  0  0  0  0  0  0  0  0  0  0
  140.9140   70.6200  226.9360 C   0  0  0  0  0  0  0  0  0  0  0  0
  140.4280   70.2840  225.6800 C   0  0  0  0  0  0  0  0  0  0  0  0
  140.8420   71.1480  224.5570 C   0  0  0  0  0  0  0  0  0  0  0  0
  139.9820   73.3690  222.7320 N   0  0  0  0  0  0  0  0  0  0  0  0
  139.9660   74.0940  221.5980 C   0  0  0  0  0  0  0  0  0  0  0  0
  139.9200   75.5000  221.5720 N   0  0  0  0  0  0  0  0  0  0  0  0
  138.5950   76.1170  221.3580 C   0  0  0  0  0  0  0  0  0  0  0  0
  138.2890   76.7790  222.7120 C   0  0  0  0  0  0  0  0  0  0  0  0
  139.2990   77.8970  222.8060 C   0  0  0  0  0  0  0  0  0  0  0  0
  138.8560   79.0600  223.3640 C   0  0  0  0  0  0  0  0  0  0  0  0
  139.7540   80.1080  223.4600 C   0  0  0  0  0  0  0  0  0  0  0  0
  141.0420   79.9400  222.9960 C   0  0  0  0  0  0  0  0  0  0  0  0
  141.4930   78.7560  222.4280 C   0  0  0  0  0  0  0  0  0  0  0  0
  140.5880   77.7020  222.3300 C   0  0  0  0  0  0  0  0  0  0  0  0
  141.0200   76.4100  221.7220 C   0  0  0  0  0  0  0  0  0  0  0  0
  143.7900   77.0680  219.7930 H   0  0  0  0  0  0  0  0  0  0  0  0
  144.3120   76.7290  218.1890 H   0  0  0  0  0  0  0  0  0  0  0  0
  142.5770   72.8407  219.6722 H   0  0  0  0  0  0  0  0  0  0  0  0
  142.0933   74.2295  220.7611 H   0  0  0  0  0  0  0  0  0  0  0  0
  141.0729   75.3572  218.9130 H   0  0  0  0  0  0  0  0  0  0  0  0
  141.5636   74.0041  217.8089 H   0  0  0  0  0  0  0  0  0  0  0  0
  139.1039   74.1189  218.9196 H   0  0  0  0  0  0  0  0  0  0  0  0
  139.9526   72.5631  218.6198 H   0  0  0  0  0  0  0  0  0  0  0  0
  139.9537   71.0210  220.4950 H   0  0  0  0  0  0  0  0  0  0  0  0
  138.0918   70.2275  223.0299 H   0  0  0  0  0  0  0  0  0  0  0  0
  139.5448   69.3562  222.2885 H   0  0  0  0  0  0  0  0  0  0  0  0
  138.0347   68.5252  224.3605 H   0  0  0  0  0  0  0  0  0  0  0  0
  139.7611   68.0375  223.8731 H   0  0  0  0  0  0  0  0  0  0  0  0
  138.5938   67.5768  226.5287 H   0  0  0  0  0  0  0  0  0  0  0  0
  139.4384   68.1398  228.7897 H   0  0  0  0  0  0  0  0  0  0  0  0
  140.9430   70.1185  229.0144 H   0  0  0  0  0  0  0  0  0  0  0  0
  141.5769   71.4884  227.0641 H   0  0  0  0  0  0  0  0  0  0  0  0
  140.8191   72.1969  224.8875 H   0  0  0  0  0  0  0  0  0  0  0  0
  141.8568   70.8513  224.2533 H   0  0  0  0  0  0  0  0  0  0  0  0
  138.6346   76.8660  220.5534 H   0  0  0  0  0  0  0  0  0  0  0  0
  137.8274   75.3915  221.0507 H   0  0  0  0  0  0  0  0  0  0  0  0
  137.2632   77.1757  222.7308 H   0  0  0  0  0  0  0  0  0  0  0  0
  138.3568   76.0742  223.5538 H   0  0  0  0  0  0  0  0  0  0  0  0
  137.8218   79.1611  223.7248 H   0  0  0  0  0  0  0  0  0  0  0  0
  139.4437   81.0662  223.9022 H   0  0  0  0  0  0  0  0  0  0  0  0
  141.7441   80.7827  223.0798 H   0  0  0  0  0  0  0  0  0  0  0  0
  142.5276   78.6542  222.0684 H   0  0  0  0  0  0  0  0  0  0  0  0
  141.4550   76.6098  220.7316 H   0  0  0  0  0  0  0  0  0  0  0  0
  141.7599   75.9465  222.3911 H   0  0  0  0  0  0  0  0  0  0  0  0
  1  2  1  0
  2  3  2  0
  2  4  2  0
  2  5  1  0
  5  6  1  0
  6  7  1  0
  7  8  1  0
  8  9  1  0
  9 10  2  0
 10 11  1  0
 11 12  1  0
 12 13  1  0
 13 14  1  0
 14 15  2  0
 15 16  1  0
 16 17  2  0
 17 18  1  0
 18 19  2  0
 19 20  1  0
 10 21  1  0
 21 22  2  0
 22 23  1  0
 23 24  1  0
 24 25  1  0
 25 26  1  0
 26 27  2  0
 27 28  1  0
 28 29  2  0
 29 30  1  0
 30 31  2  0
 31 32  1  0
 22  8  1  0
 32 23  1  0
 20 11  1  0
 31 26  1  0
 19 14  1  0
  1 33  1  0
  1 34  1  0
  5 35  1  0
  5 36  1  0
  6 37  1  0
  6 38  1  0
  7 39  1  0
  7 40  1  0
  9 41  1  0
 12 42  1  0
 12 43  1  0
 13 44  1  0
 13 45  1  0
 15 46  1  0
 16 47  1  0
 17 48  1  0
 18 49  1  0
 20 50  1  0
 20 51  1  0
 24 52  1  0
 24 53  1  0
 25 54  1  0
 25 55  1  0
 27 56  1  0
 28 57  1  0
 29 58  1  0
 30 59  1  0
 32 60  1  0
 32 61  1  0
M  END
>  <smiles>  (45) 
NS(=O)(=O)CCCn1cc(N2CCc3ccccc3C2)nc1N1CCc2ccccc2C1

>  <score_type>  (45) 
oracle

>  <origin>  (45) 
autodockgpu

>  <m_score__min__energy>  (45) 
-9.8200000000000003

>  <m_primary>  (45) 
energy

>  <rmsd>  (45) 
3.6285833897915425

>  <m_score__min__rmsd>  (45) 
3.6285833897915425

>  <meeko>  (45) 
{"free_energy": -8.93, "intermolecular_energy": -11.01, "internal_energy": -1.17, "cluster_size": 35, "cluster_id": 1, "rank_in_cluster": 27}

>  <energy>  (45) 
-8.39

>  <cluster_rmsd>  (45) 
0.0

>  <cluster>  (45) 
3

$$$$

     RDKit          3D

 61 65  0  0  0  0  0  0  0  0999 V2000
  144.2330   74.2090  218.9250 N   0  0  0  0  0  0  0  0  0  0  0  0
  144.5810   72.6210  219.4540 S   0  0  0  0  0  0  0  0  0  0  0  0
  144.6050   72.6130  220.9550 O   0  0  0  0  0  0  0  0  0  0  0  0
  145.9530   72.2640  218.9010 O   0  0  0  0  0  0  0  0  0  0  0  0
  143.4630   71.4020  218.8020 C   0  0  0  0  0  0  0  0  0  0  0  0
  142.0570   71.5510  219.2850 C   0  0  0  0  0  0  0  0  0  0  0  0
  141.9710   71.5170  220.8260 C   0  0  0  0  0  0  0  0  0  0  0  0
  141.4550   72.7790  221.3110 N   0  0  0  0  0  0  0  0  0  0  0  0
  141.8180   73.9680  220.7630 C   0  0  0  0  0  0  0  0  0  0  0  0
  141.1090   74.9370  221.4360 C   0  0  0  0  0  0  0  0  0  0  0  0
  141.1620   76.3490  221.2400 N   0  0  0  0  0  0  0  0  0  0  0  0
  141.6700   76.8530  219.9870 C   0  0  0  0  0  0  0  0  0  0  0  0
  141.7780   78.3210  219.8670 C   0  0  0  0  0  0  0  0  0  0  0  0
  141.7140   79.1060  221.0970 C   0  0  0  0  0  0  0  0  0  0  0  0
  142.1830   80.4110  221.1110 C   0  0  0  0  0  0  0  0  0  0  0  0
  142.1440   81.1910  222.2360 C   0  0  0  0  0  0  0  0  0  0  0  0
  141.6060   80.6090  223.3770 C   0  0  0  0  0  0  0  0  0  0  0  0
  141.1310   79.3130  223.4010 C   0  0  0  0  0  0  0  0  0  0  0  0
  141.1880   78.5540  222.2400 C   0  0  0  0  0  0  0  0  0  0  0  0
  140.6720   77.1740  222.3240 C   0  0  0  0  0  0  0  0  0  0  0  0
  140.3620   74.2940  222.3450 N   0  0  0  0  0  0  0  0  0  0  0  0
  140.5680   72.9660  222.2770 C   0  0  0  0  0  0  0  0  0  0  0  0
  139.9560   72.0360  223.1400 N   0  0  0  0  0  0  0  0  0  0  0  0
  138.7930   71.3010  222.6060 C   0  0  0  0  0  0  0  0  0  0  0  0
  139.3120   69.8590  222.4780 C   0  0  0  0  0  0  0  0  0  0  0  0
  139.5110   69.4170  223.9080 C   0  0  0  0  0  0  0  0  0  0  0  0
  139.1850   68.1220  224.1850 C   0  0  0  0  0  0  0  0  0  0  0  0
  139.3480   67.6840  225.4880 C   0  0  0  0  0  0  0  0  0  0  0  0
  139.8280   68.5590  226.4410 C   0  0  0  0  0  0  0  0  0  0  0  0
  140.1600   69.8770  226.1580 C   0  0  0  0  0  0  0  0  0  0  0  0
  139.9940   70.3180  224.8460 C   0  0  0  0  0  0  0  0  0  0  0  0
  140.3310   71.7270  224.4900 C   0  0  0  0  0  0  0  0  0  0  0  0
  144.0940   74.8910  219.7060 H   0  0  0  0  0  0  0  0  0  0  0  0
  144.9510   74.5760  218.2480 H   0  0  0  0  0  0  0  0  0  0  0  0
  143.4629   71.4835  217.7050 H   0  0  0  0  0  0  0  0  0  0  0  0
  143.8191   70.4220  219.1524 H   0  0  0  0  0  0  0  0  0  0  0  0
  141.6582   72.5119  218.9277 H   0  0  0  0  0  0  0  0  0  0  0  0
  141.4704   70.7074  218.8922 H   0  0  0  0  0  0  0  0  0  0  0  0
  141.2998   70.7030  221.1374 H   0  0  0  0  0  0  0  0  0  0  0  0
  142.9741   71.3473  221.2444 H   0  0  0  0  0  0  0  0  0  0  0  0
  142.5357   74.1251  219.9443 H   0  0  0  0  0  0  0  0  0  0  0  0
  142.6744   76.4299  219.8382 H   0  0  0  0  0  0  0  0  0  0  0  0
  140.9325   76.5505  219.2289 H   0  0  0  0  0  0  0  0  0  0  0  0
  142.7419   78.5419  219.3853 H   0  0  0  0  0  0  0  0  0  0  0  0
  140.8864   78.6213  219.2970 H   0  0  0  0  0  0  0  0  0  0  0  0
  142.6011   80.8346  220.1859 H   0  0  0  0  0  0  0  0  0  0  0  0
  142.5193   82.2250  222.2362 H   0  0  0  0  0  0  0  0  0  0  0  0
  141.5564   81.2057  224.2998 H   0  0  0  0  0  0  0  0  0  0  0  0
  140.7137   78.8882  224.3259 H   0  0  0  0  0  0  0  0  0  0  0  0
  140.9909   76.7323  223.2796 H   0  0  0  0  0  0  0  0  0  0  0  0
  139.5750   77.2147  222.2533 H   0  0  0  0  0  0  0  0  0  0  0  0
  137.9416   71.3529  223.3006 H   0  0  0  0  0  0  0  0  0  0  0  0
  138.4253   71.7115  221.6540 H   0  0  0  0  0  0  0  0  0  0  0  0
  138.5738   69.2209  221.9702 H   0  0  0  0  0  0  0  0  0  0  0  0
  140.2331   69.7909  221.8806 H   0  0  0  0  0  0  0  0  0  0  0  0
  138.8061   67.4497  223.4011 H   0  0  0  0  0  0  0  0  0  0  0  0
  139.0973   66.6484  225.7611 H   0  0  0  0  0  0  0  0  0  0  0  0
  139.9533   68.1957  227.4717 H   0  0  0  0  0  0  0  0  0  0  0  0
  140.5405   70.5493  226.9411 H   0  0  0  0  0  0  0  0  0  0  0  0
  139.7974   72.4048  225.1725 H   0  0  0  0  0  0  0  0  0  0  0  0
  141.4199   71.8535  224.5816 H   0  0  0  0  0  0  0  0  0  0  0  0
  1  2  1  0
  2  3  2  0
  2  4  2  0
  2  5  1  0
  5  6  1  0
  6  7  1  0
  7  8  1  0
  8  9  1  0
  9 10  2  0
 10 11  1  0
 11 12  1  0
 12 13  1  0
 13 14  1  0
 14 15  2  0
 15 16  1  0
 16 17  2  0
 17 18  1  0
 18 19  2  0
 19 20  1  0
 10 21  1  0
 21 22  2  0
 22 23  1  0
 23 24  1  0
 24 25  1  0
 25 26  1  0
 26 27  2  0
 27 28  1  0
 28 29  2  0
 29 30  1  0
 30 31  2  0
 31 32  1  0
 22  8  1  0
 32 23  1  0
 20 11  1  0
 31 26  1  0
 19 14  1  0
  1 33  1  0
  1 34  1  0
  5 35  1  0
  5 36  1  0
  6 37  1  0
  6 38  1  0
  7 39  1  0
  7 40  1  0
  9 41  1  0
 12 42  1  0
 12 43  1  0
 13 44  1  0
 13 45  1  0
 15 46  1  0
 16 47  1  0
 17 48  1  0
 18 49  1  0
 20 50  1  0
 20 51  1  0
 24 52  1  0
 24 53  1  0
 25 54  1  0
 25 55  1  0
 27 56  1  0
 28 57  1  0
 29 58  1  0
 30 59  1  0
 32 60  1  0
 32 61  1  0
M  END
>  <smiles>  (46) 
NS(=O)(=O)CCCn1cc(N2CCc3ccccc3C2)nc1N1CCc2ccccc2C1

>  <score_type>  (46) 
oracle

>  <origin>  (46) 
autodockgpu

>  <m_score__min__energy>  (46) 
-9.8200000000000003

>  <m_primary>  (46) 
energy

>  <rmsd>  (46) 
8.895245847799822

>  <m_score__min__rmsd>  (46) 
8.895245847799822

>  <meeko>  (46) 
{"free_energy": -9.05, "intermolecular_energy": -11.13, "internal_energy": -1.23, "cluster_size": 35, "cluster_id": 1, "rank_in_cluster": 20}

>  <energy>  (46) 
-8.2

>  <cluster_rmsd>  (46) 
0.51

>  <cluster>  (46) 
3

$$$$

     RDKit          3D

 61 65  0  0  0  0  0  0  0  0999 V2000
  142.5110   74.5320  221.2310 N   0  0  0  0  0  0  0  0  0  0  0  0
  142.9870   74.8860  219.6280 S   0  0  0  0  0  0  0  0  0  0  0  0
  144.2440   74.1240  219.3240 O   0  0  0  0  0  0  0  0  0  0  0  0
  143.2490   76.3840  219.5680 O   0  0  0  0  0  0  0  0  0  0  0  0
  141.7120   74.5680  218.4300 C   0  0  0  0  0  0  0  0  0  0  0  0
  140.7360   75.6880  218.2730 C   0  0  0  0  0  0  0  0  0  0  0  0
  139.3560   75.3370  218.8710 C   0  0  0  0  0  0  0  0  0  0  0  0
  139.5230   74.8510  220.2230 N   0  0  0  0  0  0  0  0  0  0  0  0
  139.3370   73.5460  220.5510 C   0  0  0  0  0  0  0  0  0  0  0  0
  139.6200   73.4390  221.8930 C   0  0  0  0  0  0  0  0  0  0  0  0
  139.5500   72.2720  222.7100 N   0  0  0  0  0  0  0  0  0  0  0  0
  138.3930   71.4170  222.5910 C   0  0  0  0  0  0  0  0  0  0  0  0
  138.3310   70.2660  223.5150 C   0  0  0  0  0  0  0  0  0  0  0  0
  139.2180   70.2830  224.6750 C   0  0  0  0  0  0  0  0  0  0  0  0
  138.9550   69.4610  225.7600 C   0  0  0  0  0  0  0  0  0  0  0  0
  139.7560   69.4360  226.8710 C   0  0  0  0  0  0  0  0  0  0  0  0
  140.8580   70.2810  226.8610 C   0  0  0  0  0  0  0  0  0  0  0  0
  141.1510   71.1130  225.7990 C   0  0  0  0  0  0  0  0  0  0  0  0
  140.3150   71.1100  224.6920 C   0  0  0  0  0  0  0  0  0  0  0  0
  140.6730   72.0240  223.5890 C   0  0  0  0  0  0  0  0  0  0  0  0
  139.9600   74.6700  222.3050 N   0  0  0  0  0  0  0  0  0  0  0  0
  139.9020   75.5460  221.2850 C   0  0  0  0  0  0  0  0  0  0  0  0
  140.1600   76.9230  221.4240 N   0  0  0  0  0  0  0  0  0  0  0  0
  138.9860   77.8110  221.5380 C   0  0  0  0  0  0  0  0  0  0  0  0
  139.0590   78.3120  222.9900 C   0  0  0  0  0  0  0  0  0  0  0  0
  140.2910   79.1850  223.0110 C   0  0  0  0  0  0  0  0  0  0  0  0
  140.2110   80.3160  223.7690 C   0  0  0  0  0  0  0  0  0  0  0  0
  141.3190   81.1430  223.8060 C   0  0  0  0  0  0  0  0  0  0  0  0
  142.4460   80.7980  223.0870 C   0  0  0  0  0  0  0  0  0  0  0  0
  142.5260   79.6460  222.3160 C   0  0  0  0  0  0  0  0  0  0  0  0
  141.4090   78.8150  222.2780 C   0  0  0  0  0  0  0  0  0  0  0  0
  141.4420   77.5680  221.4600 C   0  0  0  0  0  0  0  0  0  0  0  0
  142.2850   75.3810  221.8000 H   0  0  0  0  0  0  0  0  0  0  0  0
  141.7130   73.8460  221.2740 H   0  0  0  0  0  0  0  0  0  0  0  0
  142.1896   74.3857  217.4560 H   0  0  0  0  0  0  0  0  0  0  0  0
  141.1442   73.6979  218.7913 H   0  0  0  0  0  0  0  0  0  0  0  0
  141.1300   76.5777  218.7860 H   0  0  0  0  0  0  0  0  0  0  0  0
  140.6036   75.8767  217.1974 H   0  0  0  0  0  0  0  0  0  0  0  0
  138.7218   76.2357  218.8807 H   0  0  0  0  0  0  0  0  0  0  0  0
  138.8799   74.5572  218.2585 H   0  0  0  0  0  0  0  0  0  0  0  0
  139.0225   72.7355  219.8771 H   0  0  0  0  0  0  0  0  0  0  0  0
  137.5002   72.0353  222.7657 H   0  0  0  0  0  0  0  0  0  0  0  0
  138.4537   70.9806  221.5831 H   0  0  0  0  0  0  0  0  0  0  0  0
  137.2991   70.2003  223.8904 H   0  0  0  0  0  0  0  0  0  0  0  0
  138.6699   69.4078  222.9161 H   0  0  0  0  0  0  0  0  0  0  0  0
  138.0720   68.8058  225.7276 H   0  0  0  0  0  0  0  0  0  0  0  0
  139.5376   68.7804  227.7269 H   0  0  0  0  0  0  0  0  0  0  0  0
  141.5251   70.2877  227.7356 H   0  0  0  0  0  0  0  0  0  0  0  0
  142.0339   71.7683  225.8301 H   0  0  0  0  0  0  0  0  0  0  0  0
  141.0100   72.9807  224.0146 H   0  0  0  0  0  0  0  0  0  0  0  0
  141.4713   71.5508  222.9984 H   0  0  0  0  0  0  0  0  0  0  0  0
  139.0555   78.6487  220.8284 H   0  0  0  0  0  0  0  0  0  0  0  0
  138.0385   77.3028  221.3058 H   0  0  0  0  0  0  0  0  0  0  0  0
  138.1623   78.8942  223.2488 H   0  0  0  0  0  0  0  0  0  0  0  0
  139.1082   77.4909  223.7203 H   0  0  0  0  0  0  0  0  0  0  0  0
  139.2978   80.5617  224.3309 H   0  0  0  0  0  0  0  0  0  0  0  0
  141.3024   82.0669  224.4027 H   0  0  0  0  0  0  0  0  0  0  0  0
  143.3194   81.4655  223.1267 H   0  0  0  0  0  0  0  0  0  0  0  0
  143.4393   79.3985  221.7551 H   0  0  0  0  0  0  0  0  0  0  0  0
  141.7417   77.8232  220.4329 H   0  0  0  0  0  0  0  0  0  0  0  0
  142.1619   76.8750  221.9199 H   0  0  0  0  0  0  0  0  0  0  0  0
  1  2  1  0
  2  3  2  0
  2  4  2  0
  2  5  1  0
  5  6  1  0
  6  7  1  0
  7  8  1  0
  8  9  1  0
  9 10  2  0
 10 11  1  0
 11 12  1  0
 12 13  1  0
 13 14  1  0
 14 15  2  0
 15 16  1  0
 16 17  2  0
 17 18  1  0
 18 19  2  0
 19 20  1  0
 10 21  1  0
 21 22  2  0
 22 23  1  0
 23 24  1  0
 24 25  1  0
 25 26  1  0
 26 27  2  0
 27 28  1  0
 28 29  2  0
 29 30  1  0
 30 31  2  0
 31 32  1  0
 22  8  1  0
 32 23  1  0
 20 11  1  0
 31 26  1  0
 19 14  1  0
  1 33  1  0
  1 34  1  0
  5 35  1  0
  5 36  1  0
  6 37  1  0
  6 38  1  0
  7 39  1  0
  7 40  1  0
  9 41  1  0
 12 42  1  0
 12 43  1  0
 13 44  1  0
 13 45  1  0
 15 46  1  0
 16 47  1  0
 17 48  1  0
 18 49  1  0
 20 50  1  0
 20 51  1  0
 24 52  1  0
 24 53  1  0
 25 54  1  0
 25 55  1  0
 27 56  1  0
 28 57  1  0
 29 58  1  0
 30 59  1  0
 32 60  1  0
 32 61  1  0
M  END
>  <smiles>  (47) 
NS(=O)(=O)CCCn1cc(N2CCc3ccccc3C2)nc1N1CCc2ccccc2C1

>  <score_type>  (47) 
oracle

>  <origin>  (47) 
autodockgpu

>  <m_score__min__energy>  (47) 
-9.8200000000000003

>  <m_primary>  (47) 
energy

>  <rmsd>  (47) 
3.2777714281217407

>  <m_score__min__rmsd>  (47) 
3.2777714281217407

>  <meeko>  (47) 
{"free_energy": -7.99, "intermolecular_energy": -10.08, "internal_energy": -2.32, "cluster_size": 35, "cluster_id": 1, "rank_in_cluster": 35}

>  <energy>  (47) 
-7.84

>  <cluster_rmsd>  (47) 
1.55

>  <cluster>  (47) 
3

$$$$

     RDKit          3D

 61 65  0  0  0  0  0  0  0  0999 V2000
  143.2440   76.7660  219.8510 N   0  0  0  0  0  0  0  0  0  0  0  0
  143.0500   75.0990  219.5280 S   0  0  0  0  0  0  0  0  0  0  0  0
  142.6560   74.4090  220.8010 O   0  0  0  0  0  0  0  0  0  0  0  0
  144.3970   74.5850  219.0410 O   0  0  0  0  0  0  0  0  0  0  0  0
  141.9000   74.7690  218.2120 C   0  0  0  0  0  0  0  0  0  0  0  0
  140.9890   73.6160  218.4790 C   0  0  0  0  0  0  0  0  0  0  0  0
  139.6930   74.0600  219.1930 C   0  0  0  0  0  0  0  0  0  0  0  0
  139.7640   73.7030  220.5930 N   0  0  0  0  0  0  0  0  0  0  0  0
  139.7480   72.4110  221.0120 C   0  0  0  0  0  0  0  0  0  0  0  0
  139.8730   72.4460  222.3820 C   0  0  0  0  0  0  0  0  0  0  0  0
  139.8870   71.3420  223.2850 N   0  0  0  0  0  0  0  0  0  0  0  0
  139.0760   70.1890  222.9760 C   0  0  0  0  0  0  0  0  0  0  0  0
  139.0630   69.1070  223.9820 C   0  0  0  0  0  0  0  0  0  0  0  0
  139.5550   69.4250  225.3200 C   0  0  0  0  0  0  0  0  0  0  0  0
  139.2240   68.6080  226.3910 C   0  0  0  0  0  0  0  0  0  0  0  0
  139.6610   68.8580  227.6650 C   0  0  0  0  0  0  0  0  0  0  0  0
  140.4600   69.9820  227.8380 C   0  0  0  0  0  0  0  0  0  0  0  0
  140.8090   70.8180  226.7960 C   0  0  0  0  0  0  0  0  0  0  0  0
  140.3460   70.5300  225.5200 C   0  0  0  0  0  0  0  0  0  0  0  0
  140.7440   71.4610  224.4450 C   0  0  0  0  0  0  0  0  0  0  0  0
  139.9580   73.7410  222.7190 N   0  0  0  0  0  0  0  0  0  0  0  0
  139.8910   74.5230  221.6260 C   0  0  0  0  0  0  0  0  0  0  0  0
  139.9070   75.9300  221.6710 N   0  0  0  0  0  0  0  0  0  0  0  0
  138.6400   76.6190  221.3590 C   0  0  0  0  0  0  0  0  0  0  0  0
  138.2250   77.2280  222.7090 C   0  0  0  0  0  0  0  0  0  0  0  0
  139.2680   78.2910  222.9630 C   0  0  0  0  0  0  0  0  0  0  0  0
  138.8200   79.4440  223.5360 C   0  0  0  0  0  0  0  0  0  0  0  0
  139.7480   80.4420  223.7780 C   0  0  0  0  0  0  0  0  0  0  0  0
  141.0690   80.2360  223.4360 C   0  0  0  0  0  0  0  0  0  0  0  0
  141.5230   79.0610  222.8530 C   0  0  0  0  0  0  0  0  0  0  0  0
  140.5890   78.0570  222.6090 C   0  0  0  0  0  0  0  0  0  0  0  0
  141.0250   76.7770  221.9790 C   0  0  0  0  0  0  0  0  0  0  0  0
  143.0520   77.0270  220.8460 H   0  0  0  0  0  0  0  0  0  0  0  0
  144.1890   77.1280  219.5600 H   0  0  0  0  0  0  0  0  0  0  0  0
  141.2849   75.6675  218.0562 H   0  0  0  0  0  0  0  0  0  0  0  0
  142.4961   74.5062  217.3256 H   0  0  0  0  0  0  0  0  0  0  0  0
  140.7238   73.1431  217.5219 H   0  0  0  0  0  0  0  0  0  0  0  0
  141.5163   72.9098  219.1372 H   0  0  0  0  0  0  0  0  0  0  0  0
  139.5778   75.1499  219.0984 H   0  0  0  0  0  0  0  0  0  0  0  0
  138.8306   73.5573  218.7309 H   0  0  0  0  0  0  0  0  0  0  0  0
  139.6538   71.5147  220.3814 H   0  0  0  0  0  0  0  0  0  0  0  0
  138.0402   70.5344  222.8424 H   0  0  0  0  0  0  0  0  0  0  0  0
  139.5279   69.7463  222.0761 H   0  0  0  0  0  0  0  0  0  0  0  0
  138.0224   68.7660  224.0859 H   0  0  0  0  0  0  0  0  0  0  0  0
  139.7675   68.3559  223.5952 H   0  0  0  0  0  0  0  0  0  0  0  0
  138.5883   67.7285  226.2110 H   0  0  0  0  0  0  0  0  0  0  0  0
  139.3934   68.2032  228.5074 H   0  0  0  0  0  0  0  0  0  0  0  0
  140.8298   70.2153  228.8473 H   0  0  0  0  0  0  0  0  0  0  0  0
  141.4440   71.6983  226.9745 H   0  0  0  0  0  0  0  0  0  0  0  0
  140.6855   72.4910  224.8265 H   0  0  0  0  0  0  0  0  0  0  0  0
  141.7702   71.2101  224.1386 H   0  0  0  0  0  0  0  0  0  0  0  0
  138.7941   77.4037  220.6037 H   0  0  0  0  0  0  0  0  0  0  0  0
  137.8776   75.9471  220.9379 H   0  0  0  0  0  0  0  0  0  0  0  0
  137.2206   77.6721  222.6460 H   0  0  0  0  0  0  0  0  0  0  0  0
  138.1755   76.4807  223.5146 H   0  0  0  0  0  0  0  0  0  0  0  0
  137.7595   79.5764  223.7965 H   0  0  0  0  0  0  0  0  0  0  0  0
  139.4354   81.3907  224.2387 H   0  0  0  0  0  0  0  0  0  0  0  0
  141.7945   81.0387  223.6343 H   0  0  0  0  0  0  0  0  0  0  0  0
  142.5834   78.9274  222.5928 H   0  0  0  0  0  0  0  0  0  0  0  0
  141.5675   77.0037  221.0493 H   0  0  0  0  0  0  0  0  0  0  0  0
  141.6718   76.2458  222.6928 H   0  0  0  0  0  0  0  0  0  0  0  0
  1  2  1  0
  2  3  2  0
  2  4  2  0
  2  5  1  0
  5  6  1  0
  6  7  1  0
  7  8  1  0
  8  9  1  0
  9 10  2  0
 10 11  1  0
 11 12  1  0
 12 13  1  0
 13 14  1  0
 14 15  2  0
 15 16  1  0
 16 17  2  0
 17 18  1  0
 18 19  2  0
 19 20  1  0
 10 21  1  0
 21 22  2  0
 22 23  1  0
 23 24  1  0
 24 25  1  0
 25 26  1  0
 26 27  2  0
 27 28  1  0
 28 29  2  0
 29 30  1  0
 30 31  2  0
 31 32  1  0
 22  8  1  0
 32 23  1  0
 20 11  1  0
 31 26  1  0
 19 14  1  0
  1 33  1  0
  1 34  1  0
  5 35  1  0
  5 36  1  0
  6 37  1  0
  6 38  1  0
  7 39  1  0
  7 40  1  0
  9 41  1  0
 12 42  1  0
 12 43  1  0
 13 44  1  0
 13 45  1  0
 15 46  1  0
 16 47  1  0
 17 48  1  0
 18 49  1  0
 20 50  1  0
 20 51  1  0
 24 52  1  0
 24 53  1  0
 25 54  1  0
 25 55  1  0
 27 56  1  0
 28 57  1  0
 29 58  1  0
 30 59  1  0
 32 60  1  0
 32 61  1  0
M  END
>  <smiles>  (48) 
NS(=O)(=O)CCCn1cc(N2CCc3ccccc3C2)nc1N1CCc2ccccc2C1

>  <score_type>  (48) 
oracle

>  <origin>  (48) 
autodockgpu

>  <m_score__min__energy>  (48) 
-9.8200000000000003

>  <m_primary>  (48) 
energy

>  <rmsd>  (48) 
3.334997407619894

>  <m_score__min__rmsd>  (48) 
3.334997407619894

>  <meeko>  (48) 
{"free_energy": -8.92, "intermolecular_energy": -11.01, "internal_energy": -1.48, "cluster_size": 9, "cluster_id": 2, "rank_in_cluster": 1}

>  <energy>  (48) 
-8.1

>  <cluster_rmsd>  (48) 
0.0

>  <cluster>  (48) 
4

$$$$

     RDKit          3D

 61 65  0  0  0  0  0  0  0  0999 V2000
  145.7390   73.1000  219.0390 N   0  0  0  0  0  0  0  0  0  0  0  0
  144.9320   73.2690  220.5360 S   0  0  0  0  0  0  0  0  0  0  0  0
  145.9450   73.6150  221.5890 O   0  0  0  0  0  0  0  0  0  0  0  0
  144.2880   71.9240  220.8430 O   0  0  0  0  0  0  0  0  0  0  0  0
  143.5990   74.4440  220.4860 C   0  0  0  0  0  0  0  0  0  0  0  0
  143.0380   74.6670  219.1200 C   0  0  0  0  0  0  0  0  0  0  0  0
  141.5740   74.1900  219.0130 C   0  0  0  0  0  0  0  0  0  0  0  0
  141.0610   73.9000  220.3340 N   0  0  0  0  0  0  0  0  0  0  0  0
  140.9520   72.6300  220.8070 C   0  0  0  0  0  0  0  0  0  0  0  0
  140.4760   72.7340  222.0930 C   0  0  0  0  0  0  0  0  0  0  0  0
  140.1740   71.6750  223.0000 N   0  0  0  0  0  0  0  0  0  0  0  0
  139.0350   70.8350  222.7230 C   0  0  0  0  0  0  0  0  0  0  0  0
  138.7180   69.8050  223.7330 C   0  0  0  0  0  0  0  0  0  0  0  0
  139.3280   69.9450  225.0530 C   0  0  0  0  0  0  0  0  0  0  0  0
  138.7940   69.2650  226.1380 C   0  0  0  0  0  0  0  0  0  0  0  0
  139.3290   69.3580  227.3950 C   0  0  0  0  0  0  0  0  0  0  0  0
  140.4440   70.1750  227.5370 C   0  0  0  0  0  0  0  0  0  0  0  0
  141.0010   70.8680  226.4810 C   0  0  0  0  0  0  0  0  0  0  0  0
  140.4300   70.7470  225.2210 C   0  0  0  0  0  0  0  0  0  0  0  0
  141.0640   71.5140  224.1310 C   0  0  0  0  0  0  0  0  0  0  0  0
  140.3230   74.0450  222.3330 N   0  0  0  0  0  0  0  0  0  0  0  0
  140.6790   74.7710  221.2570 C   0  0  0  0  0  0  0  0  0  0  0  0
  140.5810   76.1740  221.1950 N   0  0  0  0  0  0  0  0  0  0  0  0
  139.9230   76.8440  222.3340 C   0  0  0  0  0  0  0  0  0  0  0  0
  141.0750   77.6040  223.0130 C   0  0  0  0  0  0  0  0  0  0  0  0
  141.4460   78.6710  222.0120 C   0  0  0  0  0  0  0  0  0  0  0  0
  141.7820   79.8870  222.5290 C   0  0  0  0  0  0  0  0  0  0  0  0
  142.1220   80.8910  221.6400 C   0  0  0  0  0  0  0  0  0  0  0  0
  142.1090   80.6280  220.2850 C   0  0  0  0  0  0  0  0  0  0  0  0
  141.7670   79.3900  219.7590 C   0  0  0  0  0  0  0  0  0  0  0  0
  141.4240   78.3800  220.6550 C   0  0  0  0  0  0  0  0  0  0  0  0
  141.0440   77.0320  220.1410 C   0  0  0  0  0  0  0  0  0  0  0  0
  146.3230   73.9300  218.7810 H   0  0  0  0  0  0  0  0  0  0  0  0
  146.3190   72.2230  218.9880 H   0  0  0  0  0  0  0  0  0  0  0  0
  142.7909   74.0784  221.1366 H   0  0  0  0  0  0  0  0  0  0  0  0
  144.0103   75.4070  220.8227 H   0  0  0  0  0  0  0  0  0  0  0  0
  143.0793   75.7419  218.8899 H   0  0  0  0  0  0  0  0  0  0  0  0
  143.6389   74.0847  218.4059 H   0  0  0  0  0  0  0  0  0  0  0  0
  140.9647   74.9794  218.5487 H   0  0  0  0  0  0  0  0  0  0  0  0
  141.5301   73.2804  218.3960 H   0  0  0  0  0  0  0  0  0  0  0  0
  141.1962   71.7028  220.2678 H   0  0  0  0  0  0  0  0  0  0  0  0
  138.1548   71.4870  222.6222 H   0  0  0  0  0  0  0  0  0  0  0  0
  139.2967   70.2790  221.8106 H   0  0  0  0  0  0  0  0  0  0  0  0
  137.6269   69.8050  223.8725 H   0  0  0  0  0  0  0  0  0  0  0  0
  139.1401   68.8742  223.3263 H   0  0  0  0  0  0  0  0  0  0  0  0
  137.9100   68.6290  225.9831 H   0  0  0  0  0  0  0  0  0  0  0  0
  138.8983   68.8139  228.2485 H   0  0  0  0  0  0  0  0  0  0  0  0
  140.9019   70.2737  228.5323 H   0  0  0  0  0  0  0  0  0  0  0  0
  141.8836   71.5062  226.6353 H   0  0  0  0  0  0  0  0  0  0  0  0
  141.3419   72.5085  224.5100 H   0  0  0  0  0  0  0  0  0  0  0  0
  141.9510   70.9585  223.7924 H   0  0  0  0  0  0  0  0  0  0  0  0
  139.1442   77.5385  221.9859 H   0  0  0  0  0  0  0  0  0  0  0  0
  139.4139   76.1415  223.0103 H   0  0  0  0  0  0  0  0  0  0  0  0
  140.7423   78.0544  223.9598 H   0  0  0  0  0  0  0  0  0  0  0  0
  141.9216   76.9501  223.2693 H   0  0  0  0  0  0  0  0  0  0  0  0
  141.7827   80.0636  223.6147 H   0  0  0  0  0  0  0  0  0  0  0  0
  142.4000   81.8892  222.0093 H   0  0  0  0  0  0  0  0  0  0  0  0
  142.3821   81.4362  219.5906 H   0  0  0  0  0  0  0  0  0  0  0  0
  141.7668   79.2127  218.6734 H   0  0  0  0  0  0  0  0  0  0  0  0
  140.2423   77.1471  219.3966 H   0  0  0  0  0  0  0  0  0  0  0  0
  141.9361   76.5722  219.6909 H   0  0  0  0  0  0  0  0  0  0  0  0
  1  2  1  0
  2  3  2  0
  2  4  2  0
  2  5  1  0
  5  6  1  0
  6  7  1  0
  7  8  1  0
  8  9  1  0
  9 10  2  0
 10 11  1  0
 11 12  1  0
 12 13  1  0
 13 14  1  0
 14 15  2  0
 15 16  1  0
 16 17  2  0
 17 18  1  0
 18 19  2  0
 19 20  1  0
 10 21  1  0
 21 22  2  0
 22 23  1  0
 23 24  1  0
 24 25  1  0
 25 26  1  0
 26 27  2  0
 27 28  1  0
 28 29  2  0
 29 30  1  0
 30 31  2  0
 31 32  1  0
 22  8  1  0
 32 23  1  0
 20 11  1  0
 31 26  1  0
 19 14  1  0
  1 33  1  0
  1 34  1  0
  5 35  1  0
  5 36  1  0
  6 37  1  0
  6 38  1  0
  7 39  1  0
  7 40  1  0
  9 41  1  0
 12 42  1  0
 12 43  1  0
 13 44  1  0
 13 45  1  0
 15 46  1  0
 16 47  1  0
 17 48  1  0
 18 49  1  0
 20 50  1  0
 20 51  1  0
 24 52  1  0
 24 53  1  0
 25 54  1  0
 25 55  1  0
 27 56  1  0
 28 57  1  0
 29 58  1  0
 30 59  1  0
 32 60  1  0
 32 61  1  0
M  END
>  <smiles>  (49) 
NS(=O)(=O)CCCn1cc(N2CCc3ccccc3C2)nc1N1CCc2ccccc2C1

>  <score_type>  (49) 
oracle

>  <origin>  (49) 
autodockgpu

>  <m_score__min__energy>  (49) 
-9.8200000000000003

>  <m_primary>  (49) 
energy

>  <rmsd>  (49) 
3.7055646659040957

>  <m_score__min__rmsd>  (49) 
3.7055646659040957

>  <meeko>  (49) 
{"free_energy": -9.15, "intermolecular_energy": -11.24, "internal_energy": -1.17, "cluster_size": 35, "cluster_id": 1, "rank_in_cluster": 17}

>  <energy>  (49) 
-8.02

>  <cluster_rmsd>  (49) 
0.0

>  <cluster>  (49) 
5

$$$$

     RDKit          3D

 61 65  0  0  0  0  0  0  0  0999 V2000
  145.0390   73.9830  219.1530 N   0  0  0  0  0  0  0  0  0  0  0  0
  143.6820   74.8380  219.7430 S   0  0  0  0  0  0  0  0  0  0  0  0
  144.1120   76.2340  220.0900 O   0  0  0  0  0  0  0  0  0  0  0  0
  143.2090   74.1050  220.9900 O   0  0  0  0  0  0  0  0  0  0  0  0
  142.3030   74.8280  218.6220 C   0  0  0  0  0  0  0  0  0  0  0  0
  141.6500   73.4920  218.4770 C   0  0  0  0  0  0  0  0  0  0  0  0
  140.1700   73.5240  218.9150 C   0  0  0  0  0  0  0  0  0  0  0  0
  140.0830   73.3410  220.3470 N   0  0  0  0  0  0  0  0  0  0  0  0
  140.0660   72.1090  220.9200 C   0  0  0  0  0  0  0  0  0  0  0  0
  140.0230   72.3130  222.2790 C   0  0  0  0  0  0  0  0  0  0  0  0
  139.9700   71.3270  223.3090 N   0  0  0  0  0  0  0  0  0  0  0  0
  139.1020   70.1890  223.1280 C   0  0  0  0  0  0  0  0  0  0  0  0
  139.0220   69.2390  224.2560 C   0  0  0  0  0  0  0  0  0  0  0  0
  139.5170   69.6900  225.5530 C   0  0  0  0  0  0  0  0  0  0  0  0
  139.1340   69.0260  226.7100 C   0  0  0  0  0  0  0  0  0  0  0  0
  139.5710   69.4060  227.9510 C   0  0  0  0  0  0  0  0  0  0  0  0
  140.4280   70.4990  228.0010 C   0  0  0  0  0  0  0  0  0  0  0  0
  140.8290   71.1840  226.8710 C   0  0  0  0  0  0  0  0  0  0  0  0
  140.3640   70.7690  225.6320 C   0  0  0  0  0  0  0  0  0  0  0  0
  140.8210   71.5410  224.4600 C   0  0  0  0  0  0  0  0  0  0  0  0
  140.0160   73.6430  222.4600 N   0  0  0  0  0  0  0  0  0  0  0  0
  140.0520   74.2840  221.2770 C   0  0  0  0  0  0  0  0  0  0  0  0
  140.0080   75.6850  221.1480 N   0  0  0  0  0  0  0  0  0  0  0  0
  139.6610   76.4530  222.3600 C   0  0  0  0  0  0  0  0  0  0  0  0
  140.9720   77.1760  222.7100 C   0  0  0  0  0  0  0  0  0  0  0  0
  141.1530   78.1650  221.5840 C   0  0  0  0  0  0  0  0  0  0  0  0
  141.6550   79.3850  221.9310 C   0  0  0  0  0  0  0  0  0  0  0  0
  141.8270   80.3180  220.9240 C   0  0  0  0  0  0  0  0  0  0  0  0
  141.4920   79.9850  219.6280 C   0  0  0  0  0  0  0  0  0  0  0  0
  140.9810   78.7430  219.2750 C   0  0  0  0  0  0  0  0  0  0  0  0
  140.8070   77.8040  220.2890 C   0  0  0  0  0  0  0  0  0  0  0  0
  140.2560   76.4570  219.9640 C   0  0  0  0  0  0  0  0  0  0  0  0
  145.2320   74.1500  218.1370 H   0  0  0  0  0  0  0  0  0  0  0  0
  145.9080   74.1620  219.7190 H   0  0  0  0  0  0  0  0  0  0  0  0
  141.5520   75.5423  218.9904 H   0  0  0  0  0  0  0  0  0  0  0  0
  142.6952   75.1008  217.6311 H   0  0  0  0  0  0  0  0  0  0  0  0
  141.7022   73.1832  217.4225 H   0  0  0  0  0  0  0  0  0  0  0  0
  142.1821   72.7803  219.1254 H   0  0  0  0  0  0  0  0  0  0  0  0
  139.7286   74.4940  218.6426 H   0  0  0  0  0  0  0  0  0  0  0  0
  139.6223   72.7149  218.4097 H   0  0  0  0  0  0  0  0  0  0  0  0
  140.0832   71.1401  220.3995 H   0  0  0  0  0  0  0  0  0  0  0  0
  138.0874   70.5688  222.9375 H   0  0  0  0  0  0  0  0  0  0  0  0
  139.5381   69.6180  222.2951 H   0  0  0  0  0  0  0  0  0  0  0  0
  137.9638   68.9672  224.3835 H   0  0  0  0  0  0  0  0  0  0  0  0
  139.6894   68.4115  223.9735 H   0  0  0  0  0  0  0  0  0  0  0  0
  138.4555   68.1641  226.6273 H   0  0  0  0  0  0  0  0  0  0  0  0
  139.2596   68.8734  228.8617 H   0  0  0  0  0  0  0  0  0  0  0  0
  140.8020   70.8319  228.9804 H   0  0  0  0  0  0  0  0  0  0  0  0
  141.5073   72.0462  226.9524 H   0  0  0  0  0  0  0  0  0  0  0  0
  140.8136   72.6113  224.7140 H   0  0  0  0  0  0  0  0  0  0  0  0
  141.8353   71.2022  224.2024 H   0  0  0  0  0  0  0  0  0  0  0  0
  138.8569   77.1743  222.1523 H   0  0  0  0  0  0  0  0  0  0  0  0
  139.2879   75.8194  223.1782 H   0  0  0  0  0  0  0  0  0  0  0  0
  140.8870   77.6945  223.6764 H   0  0  0  0  0  0  0  0  0  0  0  0
  141.8232   76.4864  222.8098 H   0  0  0  0  0  0  0  0  0  0  0  0
  141.9138   79.6187  222.9743 H   0  0  0  0  0  0  0  0  0  0  0  0
  142.2272   81.3163  221.1548 H   0  0  0  0  0  0  0  0  0  0  0  0
  141.6362   80.7373  218.8385 H   0  0  0  0  0  0  0  0  0  0  0  0
  140.7228   78.5090  218.2316 H   0  0  0  0  0  0  0  0  0  0  0  0
  139.3109   76.5814  219.4152 H   0  0  0  0  0  0  0  0  0  0  0  0
  140.9983   75.9209  219.3544 H   0  0  0  0  0  0  0  0  0  0  0  0
  1  2  1  0
  2  3  2  0
  2  4  2  0
  2  5  1  0
  5  6  1  0
  6  7  1  0
  7  8  1  0
  8  9  1  0
  9 10  2  0
 10 11  1  0
 11 12  1  0
 12 13  1  0
 13 14  1  0
 14 15  2  0
 15 16  1  0
 16 17  2  0
 17 18  1  0
 18 19  2  0
 19 20  1  0
 10 21  1  0
 21 22  2  0
 22 23  1  0
 23 24  1  0
 24 25  1  0
 25 26  1  0
 26 27  2  0
 27 28  1  0
 28 29  2  0
 29 30  1  0
 30 31  2  0
 31 32  1  0
 22  8  1  0
 32 23  1  0
 20 11  1  0
 31 26  1  0
 19 14  1  0
  1 33  1  0
  1 34  1  0
  5 35  1  0
  5 36  1  0
  6 37  1  0
  6 38  1  0
  7 39  1  0
  7 40  1  0
  9 41  1  0
 12 42  1  0
 12 43  1  0
 13 44  1  0
 13 45  1  0
 15 46  1  0
 16 47  1  0
 17 48  1  0
 18 49  1  0
 20 50  1  0
 20 51  1  0
 24 52  1  0
 24 53  1  0
 25 54  1  0
 25 55  1  0
 27 56  1  0
 28 57  1  0
 29 58  1  0
 30 59  1  0
 32 60  1  0
 32 61  1  0
M  END
>  <smiles>  (50) 
NS(=O)(=O)CCCn1cc(N2CCc3ccccc3C2)nc1N1CCc2ccccc2C1

>  <score_type>  (50) 
oracle

>  <origin>  (50) 
autodockgpu

>  <m_score__min__energy>  (50) 
-9.8200000000000003

>  <m_primary>  (50) 
energy

>  <rmsd>  (50) 
3.436786845250657

>  <m_score__min__rmsd>  (50) 
3.436786845250657

>  <meeko>  (50) 
{"free_energy": -8.12, "intermolecular_energy": -10.21, "internal_energy": -1.62, "cluster_size": 35, "cluster_id": 1, "rank_in_cluster": 33}

>  <energy>  (50) 
-7.67

>  <cluster_rmsd>  (50) 
0.47

>  <cluster>  (50) 
5

$$$$
