
     RDKit          3D

 51 54  0  0  0  0  0  0  0  0999 V2000
  141.4270   73.2020  220.8140 O   0  0  0  0  0  0  0  0  0  0  0  0
  140.7360   74.0350  221.4580 C   0  0  0  0  0  0  0  0  0  0  0  0
  139.6460   73.4960  222.2390 N   0  0  0  0  0  0  0  0  0  0  0  0
  139.4580   72.0920  222.2070 C   0  0  0  0  0  0  0  0  0  0  0  0
  138.4870   71.5060  223.1240 C   0  0  0  0  0  0  0  0  0  0  0  0
  137.3830   72.1650  223.2520 O   0  0  0  0  0  0  0  0  0  0  0  0
  138.6390   70.3100  223.8700 N   0  0  0  0  0  0  0  0  0  0  0  0
  137.8630   69.1350  224.2500 C   0  0  0  0  0  0  0  0  0  0  0  0
  139.0750   68.4370  224.8300 C   0  0  0  0  0  0  0  0  0  0  0  0
  139.7400   69.7510  224.6270 C   0  0  2  0  0  0  0  0  0  0  0  0
  140.0920   70.3970  225.9270 C   0  0  0  0  0  0  0  0  0  0  0  0
  140.9690   71.5880  225.8230 C   0  0  0  0  0  0  0  0  0  0  0  0
  141.3940   72.0040  227.2120 C   0  0  0  0  0  0  0  0  0  0  0  0
  140.3750   71.5920  228.2560 C   0  0  0  0  0  0  0  0  0  0  0  0
  140.4230   70.0790  228.3420 C   0  0  0  0  0  0  0  0  0  0  0  0
  140.6370   69.4590  226.9720 C   0  0  0  0  0  0  0  0  0  0  0  0
  140.9870   75.4670  221.4430 C   0  0  0  0  0  0  0  0  0  0  0  0
  141.8220   75.9610  220.4640 C   0  0  0  0  0  0  0  0  0  0  0  0
  142.1250   77.3060  220.3630 C   0  0  0  0  0  0  0  0  0  0  0  0
  141.5500   78.1520  221.2970 C   0  0  0  0  0  0  0  0  0  0  0  0
  141.8400   79.4950  221.2110 C   0  0  0  0  0  0  0  0  0  0  0  0
  141.2670   80.3560  222.1450 C   0  0  0  0  0  0  0  0  0  0  0  0
  141.5900   81.6670  222.0110 F   0  0  0  0  0  0  0  0  0  0  0  0
  140.4320   79.8760  223.1280 C   0  0  0  0  0  0  0  0  0  0  0  0
  140.1580   78.5080  223.1860 C   0  0  0  0  0  0  0  0  0  0  0  0
  140.7140   77.6230  222.2680 C   0  0  0  0  0  0  0  0  0  0  0  0
  140.4380   76.3070  222.3420 N   0  0  0  0  0  0  0  0  0  0  0  0
  139.0960   74.2040  222.7610 H   0  0  0  0  0  0  0  0  0  0  0  0
  139.1435   71.8282  221.1865 H   0  0  0  0  0  0  0  0  0  0  0  0
  140.4243   71.6799  222.5331 H   0  0  0  0  0  0  0  0  0  0  0  0
  137.0811   69.3474  224.9940 H   0  0  0  0  0  0  0  0  0  0  0  0
  137.2664   68.6190  223.4833 H   0  0  0  0  0  0  0  0  0  0  0  0
  138.9772   68.1150  225.8773 H   0  0  0  0  0  0  0  0  0  0  0  0
  139.4734   67.4887  224.4402 H   0  0  0  0  0  0  0  0  0  0  0  0
  140.7228   69.8172  224.1374 H   0  0  0  0  0  0  0  0  0  0  0  0
  139.1047   70.7436  226.2664 H   0  0  0  0  0  0  0  0  0  0  0  0
  141.8574   71.3414  225.2231 H   0  0  0  0  0  0  0  0  0  0  0  0
  140.4246   72.4111  225.3370 H   0  0  0  0  0  0  0  0  0  0  0  0
  142.3578   71.5289  227.4474 H   0  0  0  0  0  0  0  0  0  0  0  0
  141.4806   73.1004  227.2306 H   0  0  0  0  0  0  0  0  0  0  0  0
  140.6304   72.0349  229.2299 H   0  0  0  0  0  0  0  0  0  0  0  0
  139.3678   71.9400  227.9833 H   0  0  0  0  0  0  0  0  0  0  0  0
  141.2507   69.7830  229.0033 H   0  0  0  0  0  0  0  0  0  0  0  0
  139.4621   69.7215  228.7406 H   0  0  0  0  0  0  0  0  0  0  0  0
  141.7120   69.2995  226.8017 H   0  0  0  0  0  0  0  0  0  0  0  0
  140.1183   68.4907  226.9136 H   0  0  0  0  0  0  0  0  0  0  0  0
  142.2623   75.2612  219.7384 H   0  0  0  0  0  0  0  0  0  0  0  0
  142.7927   77.6872  219.5763 H   0  0  0  0  0  0  0  0  0  0  0  0
  142.5071   79.8787  220.4250 H   0  0  0  0  0  0  0  0  0  0  0  0
  139.9847   80.5634  223.8611 H   0  0  0  0  0  0  0  0  0  0  0  0
  139.4908   78.1234  223.9714 H   0  0  0  0  0  0  0  0  0  0  0  0
  1  2  2  0
  2  3  1  0
  3  4  1  0
  4  5  1  0
  5  6  2  0
  5  7  1  0
  7  8  1  0
  8  9  1  0
  9 10  1  0
 10 11  1  0
 11 12  1  0
 12 13  1  0
 13 14  1  0
 14 15  1  0
 15 16  1  0
  2 17  1  0
 17 18  2  0
 18 19  1  0
 19 20  2  0
 20 21  1  0
 21 22  2  0
 22 23  1  0
 22 24  1  0
 24 25  2  0
 25 26  1  0
 26 27  2  0
 10  7  1  0
 16 11  1  0
 27 17  1  0
 26 20  1  0
  3 28  1  0
  4 29  1  0
  4 30  1  0
  8 31  1  0
  8 32  1  0
  9 33  1  0
  9 34  1  0
 10 35  1  6
 11 36  1  0
 12 37  1  0
 12 38  1  0
 13 39  1  0
 13 40  1  0
 14 41  1  0
 14 42  1  0
 15 43  1  0
 15 44  1  0
 16 45  1  0
 16 46  1  0
 18 47  1  0
 19 48  1  0
 21 49  1  0
 24 50  1  0
 25 51  1  0
M  END
>  <smiles>  (1) 
O=C(NCC(=O)N1CCC1C1CCCCC1)c1ccc2cc(F)ccc2n1

>  <score_type>  (1) 
oracle

>  <origin>  (1) 
autodockgpu

>  <m_score__min__energy>  (1) 
-8.9299999999999997

>  <m_primary>  (1) 
energy

>  <rmsd>  (1) 
8.604932653547907

>  <m_score__min__rmsd>  (1) 
8.604932653547907

>  <meeko>  (1) 
{"free_energy": -8.32, "intermolecular_energy": -9.81, "internal_energy": -1.51, "cluster_size": 21, "cluster_id": 2, "rank_in_cluster": 15}

>  <energy>  (1) 
-8.93

>  <cluster_rmsd>  (1) 
0.0

>  <cluster>  (1) 
1

$$$$

     RDKit          3D

 51 54  0  0  0  0  0  0  0  0999 V2000
  141.3810   73.1050  220.8510 O   0  0  0  0  0  0  0  0  0  0  0  0
  140.6780   73.9450  221.4710 C   0  0  0  0  0  0  0  0  0  0  0  0
  139.5640   73.4160  222.2250 N   0  0  0  0  0  0  0  0  0  0  0  0
  139.3690   72.0120  222.1950 C   0  0  0  0  0  0  0  0  0  0  0  0
  138.4490   71.4250  223.1620 C   0  0  0  0  0  0  0  0  0  0  0  0
  137.3500   72.0780  223.3440 O   0  0  0  0  0  0  0  0  0  0  0  0
  138.6460   70.2320  223.9030 N   0  0  0  0  0  0  0  0  0  0  0  0
  137.9080   69.0380  224.2990 C   0  0  0  0  0  0  0  0  0  0  0  0
  139.1480   68.3700  224.8520 C   0  0  0  0  0  0  0  0  0  0  0  0
  139.7770   69.7000  224.6370 C   0  0  2  0  0  0  0  0  0  0  0  0
  140.1400   70.3530  225.9300 C   0  0  0  0  0  0  0  0  0  0  0  0
  140.9760   71.5730  225.8080 C   0  0  0  0  0  0  0  0  0  0  0  0
  141.4210   71.9990  227.1880 C   0  0  0  0  0  0  0  0  0  0  0  0
  140.4410   71.5520  228.2540 C   0  0  0  0  0  0  0  0  0  0  0  0
  140.5390   70.0410  228.3350 C   0  0  0  0  0  0  0  0  0  0  0  0
  140.7400   69.4310  226.9580 C   0  0  0  0  0  0  0  0  0  0  0  0
  140.9370   75.3760  221.4550 C   0  0  0  0  0  0  0  0  0  0  0  0
  141.8070   75.8590  220.5020 C   0  0  0  0  0  0  0  0  0  0  0  0
  142.1200   77.2010  220.4020 C   0  0  0  0  0  0  0  0  0  0  0  0
  141.5190   78.0560  221.3110 C   0  0  0  0  0  0  0  0  0  0  0  0
  141.8200   79.3970  221.2270 C   0  0  0  0  0  0  0  0  0  0  0  0
  141.2200   80.2670  222.1360 C   0  0  0  0  0  0  0  0  0  0  0  0
  141.5550   81.5760  222.0040 F   0  0  0  0  0  0  0  0  0  0  0  0
  140.3510   79.7990  223.0930 C   0  0  0  0  0  0  0  0  0  0  0  0
  140.0670   78.4320  223.1500 C   0  0  0  0  0  0  0  0  0  0  0  0
  140.6490   77.5380  222.2570 C   0  0  0  0  0  0  0  0  0  0  0  0
  140.3630   76.2250  222.3300 N   0  0  0  0  0  0  0  0  0  0  0  0
  139.0040   74.1290  222.7280 H   0  0  0  0  0  0  0  0  0  0  0  0
  138.9963   71.7555  221.1924 H   0  0  0  0  0  0  0  0  0  0  0  0
  140.3506   71.5939  222.4629 H   0  0  0  0  0  0  0  0  0  0  0  0
  137.1373   69.2309  225.0598 H   0  0  0  0  0  0  0  0  0  0  0  0
  137.3081   68.5076  223.5448 H   0  0  0  0  0  0  0  0  0  0  0  0
  139.0802   68.0448  225.9006 H   0  0  0  0  0  0  0  0  0  0  0  0
  139.5610   67.4321  224.4524 H   0  0  0  0  0  0  0  0  0  0  0  0
  140.7476   69.7912  224.1275 H   0  0  0  0  0  0  0  0  0  0  0  0
  139.1507   70.6662  226.2951 H   0  0  0  0  0  0  0  0  0  0  0  0
  141.8570   71.3567  225.1859 H   0  0  0  0  0  0  0  0  0  0  0  0
  140.3939   72.3792  225.3377 H   0  0  0  0  0  0  0  0  0  0  0  0
  142.4048   71.5543  227.3988 H   0  0  0  0  0  0  0  0  0  0  0  0
  141.4734   73.0976  227.2083 H   0  0  0  0  0  0  0  0  0  0  0  0
  140.7049   72.0009  229.2229 H   0  0  0  0  0  0  0  0  0  0  0  0
  139.4170   71.8679  228.0055 H   0  0  0  0  0  0  0  0  0  0  0  0
  141.3911   69.7701  228.9757 H   0  0  0  0  0  0  0  0  0  0  0  0
  139.5999   69.6521  228.7556 H   0  0  0  0  0  0  0  0  0  0  0  0
  141.8151   69.3068  226.7614 H   0  0  0  0  0  0  0  0  0  0  0  0
  140.2520   68.4464  226.9091 H   0  0  0  0  0  0  0  0  0  0  0  0
  142.2682   75.1520  219.7967 H   0  0  0  0  0  0  0  0  0  0  0  0
  142.8151   77.5736  219.6351 H   0  0  0  0  0  0  0  0  0  0  0  0
  142.5160   79.7721  220.4623 H   0  0  0  0  0  0  0  0  0  0  0  0
  139.8840   80.4937  223.8067 H   0  0  0  0  0  0  0  0  0  0  0  0
  139.3710   78.0562  223.9144 H   0  0  0  0  0  0  0  0  0  0  0  0
  1  2  2  0
  2  3  1  0
  3  4  1  0
  4  5  1  0
  5  6  2  0
  5  7  1  0
  7  8  1  0
  8  9  1  0
  9 10  1  0
 10 11  1  0
 11 12  1  0
 12 13  1  0
 13 14  1  0
 14 15  1  0
 15 16  1  0
  2 17  1  0
 17 18  2  0
 18 19  1  0
 19 20  2  0
 20 21  1  0
 21 22  2  0
 22 23  1  0
 22 24  1  0
 24 25  2  0
 25 26  1  0
 26 27  2  0
 10  7  1  0
 16 11  1  0
 27 17  1  0
 26 20  1  0
  3 28  1  0
  4 29  1  0
  4 30  1  0
  8 31  1  0
  8 32  1  0
  9 33  1  0
  9 34  1  0
 10 35  1  6
 11 36  1  0
 12 37  1  0
 12 38  1  0
 13 39  1  0
 13 40  1  0
 14 41  1  0
 14 42  1  0
 15 43  1  0
 15 44  1  0
 16 45  1  0
 16 46  1  0
 18 47  1  0
 19 48  1  0
 21 49  1  0
 24 50  1  0
 25 51  1  0
M  END
>  <smiles>  (2) 
O=C(NCC(=O)N1CCC1C1CCCCC1)c1ccc2cc(F)ccc2n1

>  <score_type>  (2) 
oracle

>  <origin>  (2) 
autodockgpu

>  <m_score__min__energy>  (2) 
-8.9299999999999997

>  <m_primary>  (2) 
energy

>  <rmsd>  (2) 
8.578479864516577

>  <m_score__min__rmsd>  (2) 
8.578479864516577

>  <meeko>  (2) 
{"free_energy": -8.3, "intermolecular_energy": -9.79, "internal_energy": -1.52, "cluster_size": 21, "cluster_id": 2, "rank_in_cluster": 17}

>  <energy>  (2) 
-8.89

>  <cluster_rmsd>  (2) 
0.31

>  <cluster>  (2) 
1

$$$$

     RDKit          3D

 51 54  0  0  0  0  0  0  0  0999 V2000
  140.8540   71.9100  221.2340 O   0  0  0  0  0  0  0  0  0  0  0  0
  140.3650   72.3280  222.3170 C   0  0  0  0  0  0  0  0  0  0  0  0
  139.9390   73.7090  222.3360 N   0  0  0  0  0  0  0  0  0  0  0  0
  140.1090   74.4560  221.1430 C   0  0  0  0  0  0  0  0  0  0  0  0
  141.4380   74.9740  220.8390 C   0  0  0  0  0  0  0  0  0  0  0  0
  142.4200   74.2060  221.1790 O   0  0  0  0  0  0  0  0  0  0  0  0
  141.7450   76.2120  220.2200 N   0  0  0  0  0  0  0  0  0  0  0  0
  142.6910   76.7660  219.2570 C   0  0  0  0  0  0  0  0  0  0  0  0
  141.9520   78.0850  219.1870 C   0  0  0  0  0  0  0  0  0  0  0  0
  141.1770   77.5400  220.3330 C   0  0  2  0  0  0  0  0  0  0  0  0
  141.4380   78.3060  221.5880 C   0  0  0  0  0  0  0  0  0  0  0  0
  140.3790   78.2030  222.6220 C   0  0  0  0  0  0  0  0  0  0  0  0
  140.6880   79.1770  223.7350 C   0  0  0  0  0  0  0  0  0  0  0  0
  142.1740   79.4540  223.8400 C   0  0  0  0  0  0  0  0  0  0  0  0
  142.5620   80.2420  222.6030 C   0  0  0  0  0  0  0  0  0  0  0  0
  141.8020   79.7530  221.3830 C   0  0  0  0  0  0  0  0  0  0  0  0
  140.2220   71.5020  223.5050 C   0  0  0  0  0  0  0  0  0  0  0  0
  139.5760   70.2920  223.3690 C   0  0  0  0  0  0  0  0  0  0  0  0
  139.3870   69.4340  224.4350 C   0  0  0  0  0  0  0  0  0  0  0  0
  139.8780   69.8410  225.6650 C   0  0  0  0  0  0  0  0  0  0  0  0
  139.6990   68.9990  226.7390 C   0  0  0  0  0  0  0  0  0  0  0  0
  140.1890   69.3980  227.9810 C   0  0  0  0  0  0  0  0  0  0  0  0
  139.9830   68.5270  229.0010 F   0  0  0  0  0  0  0  0  0  0  0  0
  140.8350   70.6030  228.1310 C   0  0  0  0  0  0  0  0  0  0  0  0
  141.0000   71.4340  227.0200 C   0  0  0  0  0  0  0  0  0  0  0  0
  140.5230   71.0640  225.7670 C   0  0  0  0  0  0  0  0  0  0  0  0
  140.6910   71.8800  224.7090 N   0  0  0  0  0  0  0  0  0  0  0  0
  139.5390   74.0260  223.2380 H   0  0  0  0  0  0  0  0  0  0  0  0
  139.8126   73.8065  220.3062 H   0  0  0  0  0  0  0  0  0  0  0  0
  139.4934   75.3551  221.2937 H   0  0  0  0  0  0  0  0  0  0  0  0
  143.7145   76.8567  219.6496 H   0  0  0  0  0  0  0  0  0  0  0  0
  142.8887   76.2150  218.3257 H   0  0  0  0  0  0  0  0  0  0  0  0
  142.5571   78.9764  219.4089 H   0  0  0  0  0  0  0  0  0  0  0  0
  141.4856   78.4706  218.2684 H   0  0  0  0  0  0  0  0  0  0  0  0
  140.0777   77.5775  220.3414 H   0  0  0  0  0  0  0  0  0  0  0  0
  142.3276   77.7857  221.9725 H   0  0  0  0  0  0  0  0  0  0  0  0
  139.4031   78.4475  222.1772 H   0  0  0  0  0  0  0  0  0  0  0  0
  140.3449   77.1785  223.0210 H   0  0  0  0  0  0  0  0  0  0  0  0
  140.1621   80.1227  223.5375 H   0  0  0  0  0  0  0  0  0  0  0  0
  140.3541   78.7313  224.6836 H   0  0  0  0  0  0  0  0  0  0  0  0
  142.3865   80.0416  224.7453 H   0  0  0  0  0  0  0  0  0  0  0  0
  142.7462   78.5169  223.9063 H   0  0  0  0  0  0  0  0  0  0  0  0
  142.3319   81.3050  222.7674 H   0  0  0  0  0  0  0  0  0  0  0  0
  143.6382   80.1027  222.4233 H   0  0  0  0  0  0  0  0  0  0  0  0
  140.8872   80.3499  221.2531 H   0  0  0  0  0  0  0  0  0  0  0  0
  142.4282   79.8580  220.4847 H   0  0  0  0  0  0  0  0  0  0  0  0
  139.1982   69.9997  222.3781 H   0  0  0  0  0  0  0  0  0  0  0  0
  138.8699   68.4709  224.3128 H   0  0  0  0  0  0  0  0  0  0  0  0
  139.1821   68.0353  226.6199 H   0  0  0  0  0  0  0  0  0  0  0  0
  141.2179   70.9093  229.1157 H   0  0  0  0  0  0  0  0  0  0  0  0
  141.5163   72.3980  227.1384 H   0  0  0  0  0  0  0  0  0  0  0  0
  1  2  2  0
  2  3  1  0
  3  4  1  0
  4  5  1  0
  5  6  2  0
  5  7  1  0
  7  8  1  0
  8  9  1  0
  9 10  1  0
 10 11  1  0
 11 12  1  0
 12 13  1  0
 13 14  1  0
 14 15  1  0
 15 16  1  0
  2 17  1  0
 17 18  2  0
 18 19  1  0
 19 20  2  0
 20 21  1  0
 21 22  2  0
 22 23  1  0
 22 24  1  0
 24 25  2  0
 25 26  1  0
 26 27  2  0
 10  7  1  0
 16 11  1  0
 27 17  1  0
 26 20  1  0
  3 28  1  0
  4 29  1  0
  4 30  1  0
  8 31  1  0
  8 32  1  0
  9 33  1  0
  9 34  1  0
 10 35  1  6
 11 36  1  0
 12 37  1  0
 12 38  1  0
 13 39  1  0
 13 40  1  0
 14 41  1  0
 14 42  1  0
 15 43  1  0
 15 44  1  0
 16 45  1  0
 16 46  1  0
 18 47  1  0
 19 48  1  0
 21 49  1  0
 24 50  1  0
 25 51  1  0
M  END
>  <smiles>  (3) 
O=C(NCC(=O)N1CCC1C1CCCCC1)c1ccc2cc(F)ccc2n1

>  <score_type>  (3) 
oracle

>  <origin>  (3) 
autodockgpu

>  <m_score__min__energy>  (3) 
-8.9299999999999997

>  <m_primary>  (3) 
energy

>  <rmsd>  (3) 
2.773459617734296

>  <m_score__min__rmsd>  (3) 
2.773459617734296

>  <meeko>  (3) 
{"free_energy": -8.58, "intermolecular_energy": -10.07, "internal_energy": -1.16, "cluster_size": 22, "cluster_id": 1, "rank_in_cluster": 11}

>  <energy>  (3) 
-8.87

>  <cluster_rmsd>  (3) 
0.35

>  <cluster>  (3) 
1

$$$$

     RDKit          3D

 51 54  0  0  0  0  0  0  0  0999 V2000
  141.3910   72.2940  221.7230 O   0  0  0  0  0  0  0  0  0  0  0  0
  140.4780   72.4350  222.5790 C   0  0  0  0  0  0  0  0  0  0  0  0
  139.5660   73.5370  222.3680 N   0  0  0  0  0  0  0  0  0  0  0  0
  139.7840   74.3480  221.2260 C   0  0  0  0  0  0  0  0  0  0  0  0
  140.0660   75.7640  221.4310 C   0  0  0  0  0  0  0  0  0  0  0  0
  139.3820   76.3320  222.3680 O   0  0  0  0  0  0  0  0  0  0  0  0
  141.0000   76.5550  220.7150 N   0  0  0  0  0  0  0  0  0  0  0  0
  142.1990   76.3900  219.9020 C   0  0  0  0  0  0  0  0  0  0  0  0
  142.2000   77.8450  219.4850 C   0  0  0  0  0  0  0  0  0  0  0  0
  141.1320   77.9830  220.5100 C   0  0  2  0  0  0  0  0  0  0  0  0
  141.5820   78.8160  221.6660 C   0  0  0  0  0  0  0  0  0  0  0  0
  141.4430   78.1760  222.9960 C   0  0  0  0  0  0  0  0  0  0  0  0
  141.7470   79.2010  224.0650 C   0  0  0  0  0  0  0  0  0  0  0  0
  142.6870   80.2750  223.5570 C   0  0  0  0  0  0  0  0  0  0  0  0
  141.9140   81.0890  222.5380 C   0  0  0  0  0  0  0  0  0  0  0  0
  140.9990   80.2030  221.7100 C   0  0  0  0  0  0  0  0  0  0  0  0
  140.3150   71.5620  223.7300 C   0  0  0  0  0  0  0  0  0  0  0  0
  139.6560   70.3670  223.5400 C   0  0  0  0  0  0  0  0  0  0  0  0
  139.4480   69.4670  224.5680 C   0  0  0  0  0  0  0  0  0  0  0  0
  139.9350   69.8160  225.8170 C   0  0  0  0  0  0  0  0  0  0  0  0
  139.7370   68.9320  226.8530 C   0  0  0  0  0  0  0  0  0  0  0  0
  140.2230   69.2730  228.1140 C   0  0  0  0  0  0  0  0  0  0  0  0
  139.9980   68.3630  229.0950 F   0  0  0  0  0  0  0  0  0  0  0  0
  140.8820   70.4620  228.3190 C   0  0  0  0  0  0  0  0  0  0  0  0
  141.0660   71.3360  227.2450 C   0  0  0  0  0  0  0  0  0  0  0  0
  140.5940   71.0260  225.9740 C   0  0  0  0  0  0  0  0  0  0  0  0
  140.7800   71.8830  224.9530 N   0  0  0  0  0  0  0  0  0  0  0  0
  138.8240   73.6270  223.0850 H   0  0  0  0  0  0  0  0  0  0  0  0
  140.6384   73.9207  220.6806 H   0  0  0  0  0  0  0  0  0  0  0  0
  138.8209   74.3357  220.6946 H   0  0  0  0  0  0  0  0  0  0  0  0
  143.0866   76.0995  220.4831 H   0  0  0  0  0  0  0  0  0  0  0  0
  142.2132   75.6123  219.1242 H   0  0  0  0  0  0  0  0  0  0  0  0
  143.1291   78.3949  219.6955 H   0  0  0  0  0  0  0  0  0  0  0  0
  142.0867   78.1773  218.4425 H   0  0  0  0  0  0  0  0  0  0  0  0
  140.1936   78.5097  220.2819 H   0  0  0  0  0  0  0  0  0  0  0  0
  142.6577   78.9091  221.4560 H   0  0  0  0  0  0  0  0  0  0  0  0
  140.4153   77.8045  223.1218 H   0  0  0  0  0  0  0  0  0  0  0  0
  142.1427   77.3313  223.0789 H   0  0  0  0  0  0  0  0  0  0  0  0
  140.8062   79.6725  224.3853 H   0  0  0  0  0  0  0  0  0  0  0  0
  142.2350   78.6865  224.9060 H   0  0  0  0  0  0  0  0  0  0  0  0
  143.0111   80.9184  224.3883 H   0  0  0  0  0  0  0  0  0  0  0  0
  143.5865   79.8306  223.1062 H   0  0  0  0  0  0  0  0  0  0  0  0
  141.3067   81.8401  223.0643 H   0  0  0  0  0  0  0  0  0  0  0  0
  142.6326   81.5765  221.8628 H   0  0  0  0  0  0  0  0  0  0  0  0
  140.0001   80.1704  222.1694 H   0  0  0  0  0  0  0  0  0  0  0  0
  140.9099   80.6050  220.6900 H   0  0  0  0  0  0  0  0  0  0  0  0
  139.2824   70.1207  222.5351 H   0  0  0  0  0  0  0  0  0  0  0  0
  138.9197   68.5166  224.4019 H   0  0  0  0  0  0  0  0  0  0  0  0
  139.2089   67.9809  226.6901 H   0  0  0  0  0  0  0  0  0  0  0  0
  141.2605   70.7224  229.3185 H   0  0  0  0  0  0  0  0  0  0  0  0
  141.5940   72.2872  227.4075 H   0  0  0  0  0  0  0  0  0  0  0  0
  1  2  2  0
  2  3  1  0
  3  4  1  0
  4  5  1  0
  5  6  2  0
  5  7  1  0
  7  8  1  0
  8  9  1  0
  9 10  1  0
 10 11  1  0
 11 12  1  0
 12 13  1  0
 13 14  1  0
 14 15  1  0
 15 16  1  0
  2 17  1  0
 17 18  2  0
 18 19  1  0
 19 20  2  0
 20 21  1  0
 21 22  2  0
 22 23  1  0
 22 24  1  0
 24 25  2  0
 25 26  1  0
 26 27  2  0
 10  7  1  0
 16 11  1  0
 27 17  1  0
 26 20  1  0
  3 28  1  0
  4 29  1  0
  4 30  1  0
  8 31  1  0
  8 32  1  0
  9 33  1  0
  9 34  1  0
 10 35  1  6
 11 36  1  0
 12 37  1  0
 12 38  1  0
 13 39  1  0
 13 40  1  0
 14 41  1  0
 14 42  1  0
 15 43  1  0
 15 44  1  0
 16 45  1  0
 16 46  1  0
 18 47  1  0
 19 48  1  0
 21 49  1  0
 24 50  1  0
 25 51  1  0
M  END
>  <smiles>  (4) 
O=C(NCC(=O)N1CCC1C1CCCCC1)c1ccc2cc(F)ccc2n1

>  <score_type>  (4) 
oracle

>  <origin>  (4) 
autodockgpu

>  <m_score__min__energy>  (4) 
-8.9299999999999997

>  <m_primary>  (4) 
energy

>  <rmsd>  (4) 
2.810130975209803

>  <m_score__min__rmsd>  (4) 
2.810130975209803

>  <meeko>  (4) 
{"free_energy": -8.93, "intermolecular_energy": -10.42, "internal_energy": -1.11, "cluster_size": 22, "cluster_id": 1, "rank_in_cluster": 1}

>  <energy>  (4) 
-8.85

>  <cluster_rmsd>  (4) 
0.51

>  <cluster>  (4) 
1

$$$$

     RDKit          3D

 51 54  0  0  0  0  0  0  0  0999 V2000
  140.6940   74.0640  220.4080 O   0  0  0  0  0  0  0  0  0  0  0  0
  140.3280   74.8000  221.3620 C   0  0  0  0  0  0  0  0  0  0  0  0
  139.4410   74.1980  222.3310 N   0  0  0  0  0  0  0  0  0  0  0  0
  139.0700   72.8470  222.1190 C   0  0  0  0  0  0  0  0  0  0  0  0
  139.8040   71.8110  222.8370 C   0  0  0  0  0  0  0  0  0  0  0  0
  141.0910   71.8860  222.7490 O   0  0  0  0  0  0  0  0  0  0  0  0
  139.2490   70.7540  223.6030 N   0  0  0  0  0  0  0  0  0  0  0  0
  137.9710   70.0810  223.8000 C   0  0  0  0  0  0  0  0  0  0  0  0
  138.5960   68.9930  224.6460 C   0  0  0  0  0  0  0  0  0  0  0  0
  139.8050   69.8570  224.5960 C   0  0  2  0  0  0  0  0  0  0  0  0
  140.1350   70.4200  225.9390 C   0  0  0  0  0  0  0  0  0  0  0  0
  141.0590   71.5800  225.9270 C   0  0  0  0  0  0  0  0  0  0  0  0
  141.4510   71.9070  227.3490 C   0  0  0  0  0  0  0  0  0  0  0  0
  140.3810   71.4820  228.3350 C   0  0  0  0  0  0  0  0  0  0  0  0
  140.3690   69.9660  228.3430 C   0  0  0  0  0  0  0  0  0  0  0  0
  140.6080   69.4090  226.9500 C   0  0  0  0  0  0  0  0  0  0  0  0
  140.7500   76.1830  221.5160 C   0  0  0  0  0  0  0  0  0  0  0  0
  141.5340   76.7280  220.5220 C   0  0  0  0  0  0  0  0  0  0  0  0
  141.9870   78.0330  220.5720 C   0  0  0  0  0  0  0  0  0  0  0  0
  141.6200   78.7830  221.6770 C   0  0  0  0  0  0  0  0  0  0  0  0
  142.0620   80.0850  221.7440 C   0  0  0  0  0  0  0  0  0  0  0  0
  141.6990   80.8500  222.8510 C   0  0  0  0  0  0  0  0  0  0  0  0
  142.1650   82.1250  222.8630 F   0  0  0  0  0  0  0  0  0  0  0  0
  140.9170   80.3190  223.8510 C   0  0  0  0  0  0  0  0  0  0  0  0
  140.4850   78.9950  223.7510 C   0  0  0  0  0  0  0  0  0  0  0  0
  140.8300   78.2050  222.6590 C   0  0  0  0  0  0  0  0  0  0  0  0
  140.4040   76.9300  222.5820 N   0  0  0  0  0  0  0  0  0  0  0  0
  139.1590   74.8250  223.1070 H   0  0  0  0  0  0  0  0  0  0  0  0
  138.0110   72.7513  222.4006 H   0  0  0  0  0  0  0  0  0  0  0  0
  139.3033   72.6627  221.0599 H   0  0  0  0  0  0  0  0  0  0  0  0
  137.2335   70.6901  224.3433 H   0  0  0  0  0  0  0  0  0  0  0  0
  137.3767   69.7965  222.9192 H   0  0  0  0  0  0  0  0  0  0  0  0
  138.1533   68.8594  225.6441 H   0  0  0  0  0  0  0  0  0  0  0  0
  138.5981   67.9302  224.3622 H   0  0  0  0  0  0  0  0  0  0  0  0
  140.7907   69.4378  224.3457 H   0  0  0  0  0  0  0  0  0  0  0  0
  139.1499   70.7862  226.2639 H   0  0  0  0  0  0  0  0  0  0  0  0
  141.9579   71.3303  225.3441 H   0  0  0  0  0  0  0  0  0  0  0  0
  140.5626   72.4477  225.4679 H   0  0  0  0  0  0  0  0  0  0  0  0
  142.3874   71.3828  227.5906 H   0  0  0  0  0  0  0  0  0  0  0  0
  141.5787   72.9967  227.4286 H   0  0  0  0  0  0  0  0  0  0  0  0
  140.6181   71.8640  229.3389 H   0  0  0  0  0  0  0  0  0  0  0  0
  139.3978   71.8827  228.0472 H   0  0  0  0  0  0  0  0  0  0  0  0
  141.1610   69.6042  229.0152 H   0  0  0  0  0  0  0  0  0  0  0  0
  139.3819   69.6266  228.6900 H   0  0  0  0  0  0  0  0  0  0  0  0
  141.6816   69.2169  226.8072 H   0  0  0  0  0  0  0  0  0  0  0  0
  140.0566   68.4656  226.8235 H   0  0  0  0  0  0  0  0  0  0  0  0
  141.8086   76.1031  219.6594 H   0  0  0  0  0  0  0  0  0  0  0  0
  142.6105   78.4565  219.7708 H   0  0  0  0  0  0  0  0  0  0  0  0
  142.6858   80.5107  220.9442 H   0  0  0  0  0  0  0  0  0  0  0  0
  140.6351   80.9313  224.7203 H   0  0  0  0  0  0  0  0  0  0  0  0
  139.8606   78.5689  224.5501 H   0  0  0  0  0  0  0  0  0  0  0  0
  1  2  2  0
  2  3  1  0
  3  4  1  0
  4  5  1  0
  5  6  2  0
  5  7  1  0
  7  8  1  0
  8  9  1  0
  9 10  1  0
 10 11  1  0
 11 12  1  0
 12 13  1  0
 13 14  1  0
 14 15  1  0
 15 16  1  0
  2 17  1  0
 17 18  2  0
 18 19  1  0
 19 20  2  0
 20 21  1  0
 21 22  2  0
 22 23  1  0
 22 24  1  0
 24 25  2  0
 25 26  1  0
 26 27  2  0
 10  7  1  0
 16 11  1  0
 27 17  1  0
 26 20  1  0
  3 28  1  0
  4 29  1  0
  4 30  1  0
  8 31  1  0
  8 32  1  0
  9 33  1  0
  9 34  1  0
 10 35  1  6
 11 36  1  0
 12 37  1  0
 12 38  1  0
 13 39  1  0
 13 40  1  0
 14 41  1  0
 14 42  1  0
 15 43  1  0
 15 44  1  0
 16 45  1  0
 16 46  1  0
 18 47  1  0
 19 48  1  0
 21 49  1  0
 24 50  1  0
 25 51  1  0
M  END
>  <smiles>  (5) 
O=C(NCC(=O)N1CCC1C1CCCCC1)c1ccc2cc(F)ccc2n1

>  <score_type>  (5) 
oracle

>  <origin>  (5) 
autodockgpu

>  <m_score__min__energy>  (5) 
-8.9299999999999997

>  <m_primary>  (5) 
energy

>  <rmsd>  (5) 
8.650035984804289

>  <m_score__min__rmsd>  (5) 
8.650035984804289

>  <meeko>  (5) 
{"free_energy": -8.63, "intermolecular_energy": -10.12, "internal_energy": -1.38, "cluster_size": 21, "cluster_id": 2, "rank_in_cluster": 6}

>  <energy>  (5) 
-8.83

>  <cluster_rmsd>  (5) 
0.47

>  <cluster>  (5) 
1

$$$$

     RDKit          3D

 51 54  0  0  0  0  0  0  0  0999 V2000
  141.7630   73.3520  221.0330 O   0  0  0  0  0  0  0  0  0  0  0  0
  140.9920   74.1790  221.5880 C   0  0  0  0  0  0  0  0  0  0  0  0
  139.8680   73.6240  222.3070 N   0  0  0  0  0  0  0  0  0  0  0  0
  139.7400   72.2130  222.3200 C   0  0  0  0  0  0  0  0  0  0  0  0
  138.5740   71.6340  222.9790 C   0  0  0  0  0  0  0  0  0  0  0  0
  137.4720   72.2900  222.8260 O   0  0  0  0  0  0  0  0  0  0  0  0
  138.5400   70.4460  223.7520 N   0  0  0  0  0  0  0  0  0  0  0  0
  137.5870   69.4250  224.1740 C   0  0  0  0  0  0  0  0  0  0  0  0
  138.6770   68.5480  224.7510 C   0  0  0  0  0  0  0  0  0  0  0  0
  139.5480   69.7280  224.5050 C   0  0  2  0  0  0  0  0  0  0  0  0
  140.0290   70.3350  225.7830 C   0  0  0  0  0  0  0  0  0  0  0  0
  140.8770   71.5410  225.6280 C   0  0  0  0  0  0  0  0  0  0  0  0
  141.4420   71.9160  226.9790 C   0  0  0  0  0  0  0  0  0  0  0  0
  140.5420   71.4550  228.1080 C   0  0  0  0  0  0  0  0  0  0  0  0
  140.6150   69.9410  228.1360 C   0  0  0  0  0  0  0  0  0  0  0  0
  140.6900   69.3710  226.7310 C   0  0  0  0  0  0  0  0  0  0  0  0
  141.1860   75.6190  221.5320 C   0  0  0  0  0  0  0  0  0  0  0  0
  141.7360   76.1470  220.3840 C   0  0  0  0  0  0  0  0  0  0  0  0
  141.9620   77.5020  220.2300 C   0  0  0  0  0  0  0  0  0  0  0  0
  141.6090   78.3220  221.2890 C   0  0  0  0  0  0  0  0  0  0  0  0
  141.8270   79.6740  221.1530 C   0  0  0  0  0  0  0  0  0  0  0  0
  141.4760   80.5100  222.2130 C   0  0  0  0  0  0  0  0  0  0  0  0
  141.7140   81.8320  222.0210 F   0  0  0  0  0  0  0  0  0  0  0  0
  140.9260   79.9960  223.3640 C   0  0  0  0  0  0  0  0  0  0  0  0
  140.7190   78.6200  223.4680 C   0  0  0  0  0  0  0  0  0  0  0  0
  141.0580   77.7590  222.4290 C   0  0  0  0  0  0  0  0  0  0  0  0
  140.8500   76.4350  222.5500 N   0  0  0  0  0  0  0  0  0  0  0  0
  139.2520   74.3270  222.7560 H   0  0  0  0  0  0  0  0  0  0  0  0
  139.7235   71.8770  221.2727 H   0  0  0  0  0  0  0  0  0  0  0  0
  140.5937   71.8667  222.9211 H   0  0  0  0  0  0  0  0  0  0  0  0
  136.8666   69.7809  224.9252 H   0  0  0  0  0  0  0  0  0  0  0  0
  136.8975   68.9990  223.4303 H   0  0  0  0  0  0  0  0  0  0  0  0
  138.5480   68.2696  225.8073 H   0  0  0  0  0  0  0  0  0  0  0  0
  138.9040   67.5383  224.3781 H   0  0  0  0  0  0  0  0  0  0  0  0
  140.5183   69.6184  223.9986 H   0  0  0  0  0  0  0  0  0  0  0  0
  139.0800   70.6561  226.2371 H   0  0  0  0  0  0  0  0  0  0  0  0
  141.6996   71.3273  224.9296 H   0  0  0  0  0  0  0  0  0  0  0  0
  140.2759   72.3720  225.2305 H   0  0  0  0  0  0  0  0  0  0  0  0
  142.4299   71.4464  227.0956 H   0  0  0  0  0  0  0  0  0  0  0  0
  141.5198   73.0122  227.0270 H   0  0  0  0  0  0  0  0  0  0  0  0
  140.8928   71.8688  229.0649 H   0  0  0  0  0  0  0  0  0  0  0  0
  139.5082   71.7975  227.9536 H   0  0  0  0  0  0  0  0  0  0  0  0
  141.5109   69.6349  228.6961 H   0  0  0  0  0  0  0  0  0  0  0  0
  139.7056   69.5564  228.6208 H   0  0  0  0  0  0  0  0  0  0  0  0
  141.7427   69.2323  226.4436 H   0  0  0  0  0  0  0  0  0  0  0  0
  140.1780   68.3981  226.6935 H   0  0  0  0  0  0  0  0  0  0  0  0
  142.0043   75.4669  219.5621 H   0  0  0  0  0  0  0  0  0  0  0  0
  142.4022   77.9105  219.3084 H   0  0  0  0  0  0  0  0  0  0  0  0
  142.2667   80.0848  220.2322 H   0  0  0  0  0  0  0  0  0  0  0  0
  140.6519   80.6632  224.1945 H   0  0  0  0  0  0  0  0  0  0  0  0
  140.2796   78.2083  224.3886 H   0  0  0  0  0  0  0  0  0  0  0  0
  1  2  2  0
  2  3  1  0
  3  4  1  0
  4  5  1  0
  5  6  2  0
  5  7  1  0
  7  8  1  0
  8  9  1  0
  9 10  1  0
 10 11  1  0
 11 12  1  0
 12 13  1  0
 13 14  1  0
 14 15  1  0
 15 16  1  0
  2 17  1  0
 17 18  2  0
 18 19  1  0
 19 20  2  0
 20 21  1  0
 21 22  2  0
 22 23  1  0
 22 24  1  0
 24 25  2  0
 25 26  1  0
 26 27  2  0
 10  7  1  0
 16 11  1  0
 27 17  1  0
 26 20  1  0
  3 28  1  0
  4 29  1  0
  4 30  1  0
  8 31  1  0
  8 32  1  0
  9 33  1  0
  9 34  1  0
 10 35  1  6
 11 36  1  0
 12 37  1  0
 12 38  1  0
 13 39  1  0
 13 40  1  0
 14 41  1  0
 14 42  1  0
 15 43  1  0
 15 44  1  0
 16 45  1  0
 16 46  1  0
 18 47  1  0
 19 48  1  0
 21 49  1  0
 24 50  1  0
 25 51  1  0
M  END
>  <smiles>  (6) 
O=C(NCC(=O)N1CCC1C1CCCCC1)c1ccc2cc(F)ccc2n1

>  <score_type>  (6) 
oracle

>  <origin>  (6) 
autodockgpu

>  <m_score__min__energy>  (6) 
-8.9299999999999997

>  <m_primary>  (6) 
energy

>  <rmsd>  (6) 
8.624957457605086

>  <m_score__min__rmsd>  (6) 
8.624957457605086

>  <meeko>  (6) 
{"free_energy": -8.42, "intermolecular_energy": -9.91, "internal_energy": -1.43, "cluster_size": 21, "cluster_id": 2, "rank_in_cluster": 12}

>  <energy>  (6) 
-8.83

>  <cluster_rmsd>  (6) 
0.48

>  <cluster>  (6) 
1

$$$$

     RDKit          3D

 51 54  0  0  0  0  0  0  0  0999 V2000
  140.7690   74.0060  220.5680 O   0  0  0  0  0  0  0  0  0  0  0  0
  140.3190   74.7960  221.4390 C   0  0  0  0  0  0  0  0  0  0  0  0
  139.3350   74.2550  222.3490 N   0  0  0  0  0  0  0  0  0  0  0  0
  138.9710   72.8960  222.1770 C   0  0  0  0  0  0  0  0  0  0  0  0
  139.7700   71.8790  222.8510 C   0  0  0  0  0  0  0  0  0  0  0  0
  141.0490   72.0300  222.7550 O   0  0  0  0  0  0  0  0  0  0  0  0
  139.2840   70.7680  223.5860 N   0  0  0  0  0  0  0  0  0  0  0  0
  138.0590   69.9920  223.7410 C   0  0  0  0  0  0  0  0  0  0  0  0
  138.7490   68.9400  224.5820 C   0  0  0  0  0  0  0  0  0  0  0  0
  139.8860   69.8980  224.5760 C   0  0  2  0  0  0  0  0  0  0  0  0
  140.1400   70.4600  225.9360 C   0  0  0  0  0  0  0  0  0  0  0  0
  141.0520   71.6300  225.9750 C   0  0  0  0  0  0  0  0  0  0  0  0
  141.3650   71.9560  227.4180 C   0  0  0  0  0  0  0  0  0  0  0  0
  140.2500   71.5160  228.3450 C   0  0  0  0  0  0  0  0  0  0  0  0
  140.2540   70.0000  228.3480 C   0  0  0  0  0  0  0  0  0  0  0  0
  140.5700   69.4510  226.9680 C   0  0  0  0  0  0  0  0  0  0  0  0
  140.7390   76.1830  221.5570 C   0  0  0  0  0  0  0  0  0  0  0  0
  141.4550   76.7270  220.5130 C   0  0  0  0  0  0  0  0  0  0  0  0
  141.9010   78.0350  220.5250 C   0  0  0  0  0  0  0  0  0  0  0  0
  141.5970   78.7910  221.6450 C   0  0  0  0  0  0  0  0  0  0  0  0
  142.0330   80.0970  221.6750 C   0  0  0  0  0  0  0  0  0  0  0  0
  141.7320   80.8680  222.7970 C   0  0  0  0  0  0  0  0  0  0  0  0
  142.1880   82.1460  222.7700 F   0  0  0  0  0  0  0  0  0  0  0  0
  141.0180   80.3380  223.8470 C   0  0  0  0  0  0  0  0  0  0  0  0
  140.5900   79.0110  223.7830 C   0  0  0  0  0  0  0  0  0  0  0  0
  140.8740   78.2140  222.6780 C   0  0  0  0  0  0  0  0  0  0  0  0
  140.4530   76.9370  222.6370 N   0  0  0  0  0  0  0  0  0  0  0  0
  138.9840   74.9260  223.0570 H   0  0  0  0  0  0  0  0  0  0  0  0
  137.9362   72.7876  222.5340 H   0  0  0  0  0  0  0  0  0  0  0  0
  139.1315   72.7038  221.1059 H   0  0  0  0  0  0  0  0  0  0  0  0
  137.2637   70.5302  224.2775 H   0  0  0  0  0  0  0  0  0  0  0  0
  137.5090   69.6788  222.8413 H   0  0  0  0  0  0  0  0  0  0  0  0
  138.2961   68.7522  225.5667 H   0  0  0  0  0  0  0  0  0  0  0  0
  138.8418   67.8864  224.2797 H   0  0  0  0  0  0  0  0  0  0  0  0
  140.9070   69.5620  224.3420 H   0  0  0  0  0  0  0  0  0  0  0  0
  139.1355   70.8149  226.2101 H   0  0  0  0  0  0  0  0  0  0  0  0
  141.9828   71.3912  225.4397 H   0  0  0  0  0  0  0  0  0  0  0  0
  140.5722   72.4941  225.4922 H   0  0  0  0  0  0  0  0  0  0  0  0
  142.2932   71.4411  227.7068 H   0  0  0  0  0  0  0  0  0  0  0  0
  141.4759   73.0467  227.5075 H   0  0  0  0  0  0  0  0  0  0  0  0
  140.4300   71.8970  229.3611 H   0  0  0  0  0  0  0  0  0  0  0  0
  139.2790   71.9070  228.0071 H   0  0  0  0  0  0  0  0  0  0  0  0
  141.0143   69.6442  229.0589 H   0  0  0  0  0  0  0  0  0  0  0  0
  139.2542   69.6488  228.6430 H   0  0  0  0  0  0  0  0  0  0  0  0
  141.6515   69.2701  226.8805 H   0  0  0  0  0  0  0  0  0  0  0  0
  140.0348   68.5030  226.8106 H   0  0  0  0  0  0  0  0  0  0  0  0
  141.6796   76.0979  219.6390 H   0  0  0  0  0  0  0  0  0  0  0  0
  142.4711   78.4563  219.6839 H   0  0  0  0  0  0  0  0  0  0  0  0
  142.6039   80.5208  220.8356 H   0  0  0  0  0  0  0  0  0  0  0  0
  140.7867   80.9542  224.7284 H   0  0  0  0  0  0  0  0  0  0  0  0
  140.0177   78.5873  224.6214 H   0  0  0  0  0  0  0  0  0  0  0  0
  1  2  2  0
  2  3  1  0
  3  4  1  0
  4  5  1  0
  5  6  2  0
  5  7  1  0
  7  8  1  0
  8  9  1  0
  9 10  1  0
 10 11  1  0
 11 12  1  0
 12 13  1  0
 13 14  1  0
 14 15  1  0
 15 16  1  0
  2 17  1  0
 17 18  2  0
 18 19  1  0
 19 20  2  0
 20 21  1  0
 21 22  2  0
 22 23  1  0
 22 24  1  0
 24 25  2  0
 25 26  1  0
 26 27  2  0
 10  7  1  0
 16 11  1  0
 27 17  1  0
 26 20  1  0
  3 28  1  0
  4 29  1  0
  4 30  1  0
  8 31  1  0
  8 32  1  0
  9 33  1  0
  9 34  1  0
 10 35  1  6
 11 36  1  0
 12 37  1  0
 12 38  1  0
 13 39  1  0
 13 40  1  0
 14 41  1  0
 14 42  1  0
 15 43  1  0
 15 44  1  0
 16 45  1  0
 16 46  1  0
 18 47  1  0
 19 48  1  0
 21 49  1  0
 24 50  1  0
 25 51  1  0
M  END
>  <smiles>  (7) 
O=C(NCC(=O)N1CCC1C1CCCCC1)c1ccc2cc(F)ccc2n1

>  <score_type>  (7) 
oracle

>  <origin>  (7) 
autodockgpu

>  <m_score__min__energy>  (7) 
-8.9299999999999997

>  <m_primary>  (7) 
energy

>  <rmsd>  (7) 
8.65076638845628

>  <m_score__min__rmsd>  (7) 
8.65076638845628

>  <meeko>  (7) 
{"free_energy": -8.69, "intermolecular_energy": -10.18, "internal_energy": -1.37, "cluster_size": 21, "cluster_id": 2, "rank_in_cluster": 3}

>  <energy>  (7) 
-8.82

>  <cluster_rmsd>  (7) 
0.23

>  <cluster>  (7) 
1

$$$$

     RDKit          3D

 51 54  0  0  0  0  0  0  0  0999 V2000
  139.8170   71.6300  221.1150 O   0  0  0  0  0  0  0  0  0  0  0  0
  139.7790   72.1220  222.2740 C   0  0  0  0  0  0  0  0  0  0  0  0
  139.6040   73.5540  222.3560 N   0  0  0  0  0  0  0  0  0  0  0  0
  139.4930   74.2650  221.1350 C   0  0  0  0  0  0  0  0  0  0  0  0
  139.8260   75.6850  221.1320 C   0  0  0  0  0  0  0  0  0  0  0  0
  138.9590   76.4560  221.6980 O   0  0  0  0  0  0  0  0  0  0  0  0
  140.9870   76.2820  220.5780 N   0  0  0  0  0  0  0  0  0  0  0  0
  142.2910   75.8930  220.0520 C   0  0  0  0  0  0  0  0  0  0  0  0
  142.5800   77.2890  219.5450 C   0  0  0  0  0  0  0  0  0  0  0  0
  141.3580   77.6560  220.3070 C   0  0  2  0  0  0  0  0  0  0  0  0
  141.6770   78.5350  221.4720 C   0  0  0  0  0  0  0  0  0  0  0  0
  141.1410   78.0740  222.7760 C   0  0  0  0  0  0  0  0  0  0  0  0
  141.3730   79.1540  223.8070 C   0  0  0  0  0  0  0  0  0  0  0  0
  142.5720   80.0140  223.4580 C   0  0  0  0  0  0  0  0  0  0  0  0
  142.1920   80.8160  222.2280 C   0  0  0  0  0  0  0  0  0  0  0  0
  141.3450   79.9900  221.2760 C   0  0  0  0  0  0  0  0  0  0  0  0
  139.9010   71.3290  223.4860 C   0  0  0  0  0  0  0  0  0  0  0  0
  139.5070   70.0100  223.4320 C   0  0  0  0  0  0  0  0  0  0  0  0
  139.5820   69.1720  224.5280 C   0  0  0  0  0  0  0  0  0  0  0  0
  140.0760   69.7160  225.7020 C   0  0  0  0  0  0  0  0  0  0  0  0
  140.1580   68.8950  226.8050 C   0  0  0  0  0  0  0  0  0  0  0  0
  140.6540   69.4320  227.9920 C   0  0  0  0  0  0  0  0  0  0  0  0
  140.7110   68.5760  229.0440 F   0  0  0  0  0  0  0  0  0  0  0  0
  141.0510   70.7470  228.0610 C   0  0  0  0  0  0  0  0  0  0  0  0
  140.9540   71.5510  226.9230 C   0  0  0  0  0  0  0  0  0  0  0  0
  140.4640   71.0460  225.7230 C   0  0  0  0  0  0  0  0  0  0  0  0
  140.3790   71.8380  224.6380 N   0  0  0  0  0  0  0  0  0  0  0  0
  139.5740   73.9320  223.3210 H   0  0  0  0  0  0  0  0  0  0  0  0
  140.1570   73.7727  220.4093 H   0  0  0  0  0  0  0  0  0  0  0  0
  138.4189   74.2363  220.8993 H   0  0  0  0  0  0  0  0  0  0  0  0
  142.9935   75.5537  220.8275 H   0  0  0  0  0  0  0  0  0  0  0  0
  142.3526   75.0476  219.3509 H   0  0  0  0  0  0  0  0  0  0  0  0
  143.5154   77.7385  219.9096 H   0  0  0  0  0  0  0  0  0  0  0  0
  142.7269   77.5298  218.4818 H   0  0  0  0  0  0  0  0  0  0  0  0
  140.5693   78.2699  219.8476 H   0  0  0  0  0  0  0  0  0  0  0  0
  142.7722   78.4422  221.5146 H   0  0  0  0  0  0  0  0  0  0  0  0
  140.0628   77.8766  222.6836 H   0  0  0  0  0  0  0  0  0  0  0  0
  141.6500   77.1485  223.0832 H   0  0  0  0  0  0  0  0  0  0  0  0
  140.4794   79.7932  223.8610 H   0  0  0  0  0  0  0  0  0  0  0  0
  141.5692   78.6683  224.7743 H   0  0  0  0  0  0  0  0  0  0  0  0
  142.8091   80.6901  224.2927 H   0  0  0  0  0  0  0  0  0  0  0  0
  143.4603   79.3942  223.2665 H   0  0  0  0  0  0  0  0  0  0  0  0
  141.6206   81.7027  222.5399 H   0  0  0  0  0  0  0  0  0  0  0  0
  143.1138   81.1133  221.7066 H   0  0  0  0  0  0  0  0  0  0  0  0
  140.2789   80.1581  221.4885 H   0  0  0  0  0  0  0  0  0  0  0  0
  141.5537   80.2850  220.2371 H   0  0  0  0  0  0  0  0  0  0  0  0
  139.1193   69.6101  222.4835 H   0  0  0  0  0  0  0  0  0  0  0  0
  139.2638   68.1206  224.4707 H   0  0  0  0  0  0  0  0  0  0  0  0
  139.8404   67.8432  226.7506 H   0  0  0  0  0  0  0  0  0  0  0  0
  141.4408   71.1612  229.0025 H   0  0  0  0  0  0  0  0  0  0  0  0
  141.2709   72.6030  226.9767 H   0  0  0  0  0  0  0  0  0  0  0  0
  1  2  2  0
  2  3  1  0
  3  4  1  0
  4  5  1  0
  5  6  2  0
  5  7  1  0
  7  8  1  0
  8  9  1  0
  9 10  1  0
 10 11  1  0
 11 12  1  0
 12 13  1  0
 13 14  1  0
 14 15  1  0
 15 16  1  0
  2 17  1  0
 17 18  2  0
 18 19  1  0
 19 20  2  0
 20 21  1  0
 21 22  2  0
 22 23  1  0
 22 24  1  0
 24 25  2  0
 25 26  1  0
 26 27  2  0
 10  7  1  0
 16 11  1  0
 27 17  1  0
 26 20  1  0
  3 28  1  0
  4 29  1  0
  4 30  1  0
  8 31  1  0
  8 32  1  0
  9 33  1  0
  9 34  1  0
 10 35  1  6
 11 36  1  0
 12 37  1  0
 12 38  1  0
 13 39  1  0
 13 40  1  0
 14 41  1  0
 14 42  1  0
 15 43  1  0
 15 44  1  0
 16 45  1  0
 16 46  1  0
 18 47  1  0
 19 48  1  0
 21 49  1  0
 24 50  1  0
 25 51  1  0
M  END
>  <smiles>  (8) 
O=C(NCC(=O)N1CCC1C1CCCCC1)c1ccc2cc(F)ccc2n1

>  <score_type>  (8) 
oracle

>  <origin>  (8) 
autodockgpu

>  <m_score__min__energy>  (8) 
-8.9299999999999997

>  <m_primary>  (8) 
energy

>  <rmsd>  (8) 
2.6237560623740728

>  <m_score__min__rmsd>  (8) 
2.6237560623740728

>  <meeko>  (8) 
{"free_energy": -8.54, "intermolecular_energy": -10.03, "internal_energy": -1.25, "cluster_size": 22, "cluster_id": 1, "rank_in_cluster": 17}

>  <energy>  (8) 
-8.75

>  <cluster_rmsd>  (8) 
0.54

>  <cluster>  (8) 
1

$$$$

     RDKit          3D

 51 54  0  0  0  0  0  0  0  0999 V2000
  141.5610   73.1460  220.7120 O   0  0  0  0  0  0  0  0  0  0  0  0
  140.9260   73.9730  221.4190 C   0  0  0  0  0  0  0  0  0  0  0  0
  139.9530   73.4190  222.3330 N   0  0  0  0  0  0  0  0  0  0  0  0
  139.8070   72.0090  222.3480 C   0  0  0  0  0  0  0  0  0  0  0  0
  138.4800   71.4580  222.6020 C   0  0  0  0  0  0  0  0  0  0  0  0
  137.5500   71.8750  221.8090 O   0  0  0  0  0  0  0  0  0  0  0  0
  138.1270   70.5290  223.6130 N   0  0  0  0  0  0  0  0  0  0  0  0
  136.9330   69.9610  224.2280 C   0  0  0  0  0  0  0  0  0  0  0  0
  137.7350   68.9370  225.0030 C   0  0  0  0  0  0  0  0  0  0  0  0
  138.9070   69.7150  224.5230 C   0  0  2  0  0  0  0  0  0  0  0  0
  139.6090   70.4040  225.6480 C   0  0  0  0  0  0  0  0  0  0  0  0
  140.6540   71.3740  225.2400 C   0  0  0  0  0  0  0  0  0  0  0  0
  141.4010   71.8330  226.4720 C   0  0  0  0  0  0  0  0  0  0  0  0
  140.5370   71.7460  227.7140 C   0  0  0  0  0  0  0  0  0  0  0  0
  140.3220   70.2710  227.9960 C   0  0  0  0  0  0  0  0  0  0  0  0
  140.1590   69.4860  226.7070 C   0  0  0  0  0  0  0  0  0  0  0  0
  141.1290   75.4110  221.3490 C   0  0  0  0  0  0  0  0  0  0  0  0
  141.8140   75.9090  220.2630 C   0  0  0  0  0  0  0  0  0  0  0  0
  142.0610   77.2590  220.1020 C   0  0  0  0  0  0  0  0  0  0  0  0
  141.5860   78.1070  221.0900 C   0  0  0  0  0  0  0  0  0  0  0  0
  141.8210   79.4550  220.9460 C   0  0  0  0  0  0  0  0  0  0  0  0
  141.3480   80.3180  221.9340 C   0  0  0  0  0  0  0  0  0  0  0  0
  141.6110   81.6350  221.7380 F   0  0  0  0  0  0  0  0  0  0  0  0
  140.6620   79.8340  223.0230 C   0  0  0  0  0  0  0  0  0  0  0  0
  140.4400   78.4600  223.1380 C   0  0  0  0  0  0  0  0  0  0  0  0
  140.8990   77.5730  222.1690 C   0  0  0  0  0  0  0  0  0  0  0  0
  140.6750   76.2520  222.2990 N   0  0  0  0  0  0  0  0  0  0  0  0
  139.4480   74.1210  222.9040 H   0  0  0  0  0  0  0  0  0  0  0  0
  140.1328   71.6365  221.3656 H   0  0  0  0  0  0  0  0  0  0  0  0
  140.4088   71.6808  223.2083 H   0  0  0  0  0  0  0  0  0  0  0  0
  136.3903   70.6705  224.8699 H   0  0  0  0  0  0  0  0  0  0  0  0
  136.1122   69.6172  223.5814 H   0  0  0  0  0  0  0  0  0  0  0  0
  137.5796   68.9425  226.0920 H   0  0  0  0  0  0  0  0  0  0  0  0
  137.6291   67.8511  224.8632 H   0  0  0  0  0  0  0  0  0  0  0  0
  139.7733   69.2102  224.0705 H   0  0  0  0  0  0  0  0  0  0  0  0
  138.7832   70.9774  226.0945 H   0  0  0  0  0  0  0  0  0  0  0  0
  141.3538   70.8915  224.5418 H   0  0  0  0  0  0  0  0  0  0  0  0
  140.1884   72.2373  224.7421 H   0  0  0  0  0  0  0  0  0  0  0  0
  142.2880   71.1970  226.6091 H   0  0  0  0  0  0  0  0  0  0  0  0
  141.6896   72.8845  226.3271 H   0  0  0  0  0  0  0  0  0  0  0  0
  141.0464   72.2237  228.5639 H   0  0  0  0  0  0  0  0  0  0  0  0
  139.5777   72.2632  227.5645 H   0  0  0  0  0  0  0  0  0  0  0  0
  141.1902   69.8804  228.5471 H   0  0  0  0  0  0  0  0  0  0  0  0
  139.4038   70.1594  228.5914 H   0  0  0  0  0  0  0  0  0  0  0  0
  141.1356   69.0943  226.3863 H   0  0  0  0  0  0  0  0  0  0  0  0
  139.4703   68.6432  226.8664 H   0  0  0  0  0  0  0  0  0  0  0  0
  142.1771   75.2078  219.4972 H   0  0  0  0  0  0  0  0  0  0  0  0
  142.6097   77.6431  219.2294 H   0  0  0  0  0  0  0  0  0  0  0  0
  142.3681   79.8421  220.0737 H   0  0  0  0  0  0  0  0  0  0  0  0
  140.2915   80.5228  223.7965 H   0  0  0  0  0  0  0  0  0  0  0  0
  139.8927   78.0721  224.0098 H   0  0  0  0  0  0  0  0  0  0  0  0
  1  2  2  0
  2  3  1  0
  3  4  1  0
  4  5  1  0
  5  6  2  0
  5  7  1  0
  7  8  1  0
  8  9  1  0
  9 10  1  0
 10 11  1  0
 11 12  1  0
 12 13  1  0
 13 14  1  0
 14 15  1  0
 15 16  1  0
  2 17  1  0
 17 18  2  0
 18 19  1  0
 19 20  2  0
 20 21  1  0
 21 22  2  0
 22 23  1  0
 22 24  1  0
 24 25  2  0
 25 26  1  0
 26 27  2  0
 10  7  1  0
 16 11  1  0
 27 17  1  0
 26 20  1  0
  3 28  1  0
  4 29  1  0
  4 30  1  0
  8 31  1  0
  8 32  1  0
  9 33  1  0
  9 34  1  0
 10 35  1  6
 11 36  1  0
 12 37  1  0
 12 38  1  0
 13 39  1  0
 13 40  1  0
 14 41  1  0
 14 42  1  0
 15 43  1  0
 15 44  1  0
 16 45  1  0
 16 46  1  0
 18 47  1  0
 19 48  1  0
 21 49  1  0
 24 50  1  0
 25 51  1  0
M  END
>  <smiles>  (9) 
O=C(NCC(=O)N1CCC1C1CCCCC1)c1ccc2cc(F)ccc2n1

>  <score_type>  (9) 
oracle

>  <origin>  (9) 
autodockgpu

>  <m_score__min__energy>  (9) 
-8.9299999999999997

>  <m_primary>  (9) 
energy

>  <rmsd>  (9) 
8.552318599281955

>  <m_score__min__rmsd>  (9) 
8.552318599281955

>  <meeko>  (9) 
{"free_energy": -7.99, "intermolecular_energy": -9.48, "internal_energy": -1.35, "cluster_size": 21, "cluster_id": 2, "rank_in_cluster": 21}

>  <energy>  (9) 
-8.72

>  <cluster_rmsd>  (9) 
0.33

>  <cluster>  (9) 
1

$$$$

     RDKit          3D

 51 54  0  0  0  0  0  0  0  0999 V2000
  140.9890   71.9290  221.3300 O   0  0  0  0  0  0  0  0  0  0  0  0
  140.3640   72.2830  222.3650 C   0  0  0  0  0  0  0  0  0  0  0  0
  139.7330   73.5820  222.3200 N   0  0  0  0  0  0  0  0  0  0  0  0
  139.8740   74.3300  221.1240 C   0  0  0  0  0  0  0  0  0  0  0  0
  140.8290   75.4330  221.1110 C   0  0  0  0  0  0  0  0  0  0  0  0
  140.7800   76.2160  222.1360 O   0  0  0  0  0  0  0  0  0  0  0  0
  141.7820   75.7170  220.1000 N   0  0  0  0  0  0  0  0  0  0  0  0
  141.8270   76.1770  218.7170 C   0  0  0  0  0  0  0  0  0  0  0  0
  143.3330   76.3280  218.7440 C   0  0  0  0  0  0  0  0  0  0  0  0
  143.2280   75.6350  220.0550 C   0  0  2  0  0  0  0  0  0  0  0  0
  143.8490   74.2770  220.0120 C   0  0  0  0  0  0  0  0  0  0  0  0
  145.0880   74.1250  220.8130 C   0  0  0  0  0  0  0  0  0  0  0  0
  145.6990   72.7750  220.5130 C   0  0  0  0  0  0  0  0  0  0  0  0
  144.6510   71.7710  220.0770 C   0  0  0  0  0  0  0  0  0  0  0  0
  144.1600   72.2140  218.7130 C   0  0  0  0  0  0  0  0  0  0  0  0
  144.0730   73.7280  218.6280 C   0  0  0  0  0  0  0  0  0  0  0  0
  140.2610   71.4610  223.5600 C   0  0  0  0  0  0  0  0  0  0  0  0
  139.6910   70.2120  223.4310 C   0  0  0  0  0  0  0  0  0  0  0  0
  139.5460   69.3540  224.5040 C   0  0  0  0  0  0  0  0  0  0  0  0
  140.0020   69.8020  225.7340 C   0  0  0  0  0  0  0  0  0  0  0  0
  139.8660   68.9600  226.8140 C   0  0  0  0  0  0  0  0  0  0  0  0
  140.3210   69.4010  228.0560 C   0  0  0  0  0  0  0  0  0  0  0  0
  140.1600   68.5280  229.0830 F   0  0  0  0  0  0  0  0  0  0  0  0
  140.8920   70.6440  228.1990 C   0  0  0  0  0  0  0  0  0  0  0  0
  141.0140   71.4720  227.0810 C   0  0  0  0  0  0  0  0  0  0  0  0
  140.5710   71.0630  225.8280 C   0  0  0  0  0  0  0  0  0  0  0  0
  140.6980   71.8770  224.7640 N   0  0  0  0  0  0  0  0  0  0  0  0
  139.2240   73.8460  223.1830 H   0  0  0  0  0  0  0  0  0  0  0  0
  140.1759   73.6275  220.3332 H   0  0  0  0  0  0  0  0  0  0  0  0
  138.8957   74.8139  220.9874 H   0  0  0  0  0  0  0  0  0  0  0  0
  141.4741   75.4273  217.9935 H   0  0  0  0  0  0  0  0  0  0  0  0
  141.2098   77.0380  218.4209 H   0  0  0  0  0  0  0  0  0  0  0  0
  143.8759   75.7770  217.9619 H   0  0  0  0  0  0  0  0  0  0  0  0
  143.8486   77.2898  218.6060 H   0  0  0  0  0  0  0  0  0  0  0  0
  143.7450   76.0254  220.9440 H   0  0  0  0  0  0  0  0  0  0  0  0
  143.0681   73.6699  220.4933 H   0  0  0  0  0  0  0  0  0  0  0  0
  145.7999   74.9204  220.5474 H   0  0  0  0  0  0  0  0  0  0  0  0
  144.8518   74.1987  221.8848 H   0  0  0  0  0  0  0  0  0  0  0  0
  146.4398   72.8897  219.7079 H   0  0  0  0  0  0  0  0  0  0  0  0
  146.1720   72.4002  221.4327 H   0  0  0  0  0  0  0  0  0  0  0  0
  145.0934   70.7660  220.0121 H   0  0  0  0  0  0  0  0  0  0  0  0
  143.8225   71.7268  220.7992 H   0  0  0  0  0  0  0  0  0  0  0  0
  144.8581   71.8506  217.9445 H   0  0  0  0  0  0  0  0  0  0  0  0
  143.1552   71.7968  218.5511 H   0  0  0  0  0  0  0  0  0  0  0  0
  145.0109   74.1302  218.2175 H   0  0  0  0  0  0  0  0  0  0  0  0
  143.2410   74.0193  217.9700 H   0  0  0  0  0  0  0  0  0  0  0  0
  139.3399   69.8879  222.4402 H   0  0  0  0  0  0  0  0  0  0  0  0
  139.0893   68.3601  224.3876 H   0  0  0  0  0  0  0  0  0  0  0  0
  139.4103   67.9653  226.7004 H   0  0  0  0  0  0  0  0  0  0  0  0
  141.2486   70.9822  229.1831 H   0  0  0  0  0  0  0  0  0  0  0  0
  141.4694   72.4670  227.1938 H   0  0  0  0  0  0  0  0  0  0  0  0
  1  2  2  0
  2  3  1  0
  3  4  1  0
  4  5  1  0
  5  6  2  0
  5  7  1  0
  7  8  1  0
  8  9  1  0
  9 10  1  0
 10 11  1  0
 11 12  1  0
 12 13  1  0
 13 14  1  0
 14 15  1  0
 15 16  1  0
  2 17  1  0
 17 18  2  0
 18 19  1  0
 19 20  2  0
 20 21  1  0
 21 22  2  0
 22 23  1  0
 22 24  1  0
 24 25  2  0
 25 26  1  0
 26 27  2  0
 10  7  1  0
 16 11  1  0
 27 17  1  0
 26 20  1  0
  3 28  1  0
  4 29  1  0
  4 30  1  0
  8 31  1  0
  8 32  1  0
  9 33  1  0
  9 34  1  0
 10 35  1  1
 11 36  1  0
 12 37  1  0
 12 38  1  0
 13 39  1  0
 13 40  1  0
 14 41  1  0
 14 42  1  0
 15 43  1  0
 15 44  1  0
 16 45  1  0
 16 46  1  0
 18 47  1  0
 19 48  1  0
 21 49  1  0
 24 50  1  0
 25 51  1  0
M  END
>  <smiles>  (10) 
O=C(NCC(=O)N1CCC1C1CCCCC1)c1ccc2cc(F)ccc2n1

>  <score_type>  (10) 
oracle

>  <origin>  (10) 
autodockgpu

>  <m_score__min__energy>  (10) 
-8.9299999999999997

>  <m_primary>  (10) 
energy

>  <rmsd>  (10) 
2.6847098756903907

>  <m_score__min__rmsd>  (10) 
2.6847098756903907

>  <meeko>  (10) 
{"free_energy": -8.02, "intermolecular_energy": -9.51, "internal_energy": -1.48, "cluster_size": 5, "cluster_id": 3, "rank_in_cluster": 4}

>  <energy>  (10) 
-8.67

>  <cluster_rmsd>  (10) 
0.43

>  <cluster>  (10) 
1

$$$$

     RDKit          3D

 51 54  0  0  0  0  0  0  0  0999 V2000
  140.7780   71.8050  221.2170 O   0  0  0  0  0  0  0  0  0  0  0  0
  140.3320   72.2530  222.3050 C   0  0  0  0  0  0  0  0  0  0  0  0
  139.9470   73.6460  222.3150 N   0  0  0  0  0  0  0  0  0  0  0  0
  140.1060   74.3710  221.1080 C   0  0  0  0  0  0  0  0  0  0  0  0
  141.4550   74.7540  220.7080 C   0  0  0  0  0  0  0  0  0  0  0  0
  142.3610   73.8530  220.8930 O   0  0  0  0  0  0  0  0  0  0  0  0
  141.8530   75.9950  220.1490 N   0  0  0  0  0  0  0  0  0  0  0  0
  142.9240   76.5480  219.3270 C   0  0  0  0  0  0  0  0  0  0  0  0
  142.2150   77.8760  219.1740 C   0  0  0  0  0  0  0  0  0  0  0  0
  141.2890   77.3280  220.2000 C   0  0  2  0  0  0  0  0  0  0  0  0
  141.3870   78.0790  221.4880 C   0  0  0  0  0  0  0  0  0  0  0  0
  140.1600   78.0660  222.3210 C   0  0  0  0  0  0  0  0  0  0  0  0
  140.3470   79.0200  223.4790 C   0  0  0  0  0  0  0  0  0  0  0  0
  141.8100   79.1780  223.8420 C   0  0  0  0  0  0  0  0  0  0  0  0
  142.4680   79.9250  222.6980 C   0  0  0  0  0  0  0  0  0  0  0  0
  141.8950   79.4900  221.3600 C   0  0  0  0  0  0  0  0  0  0  0  0
  140.1960   71.4480  223.5090 C   0  0  0  0  0  0  0  0  0  0  0  0
  139.5380   70.2420  223.4030 C   0  0  0  0  0  0  0  0  0  0  0  0
  139.3560   69.4030  224.4860 C   0  0  0  0  0  0  0  0  0  0  0  0
  139.8670   69.8270  225.7020 C   0  0  0  0  0  0  0  0  0  0  0  0
  139.6950   69.0040  226.7920 C   0  0  0  0  0  0  0  0  0  0  0  0
  140.2050   69.4200  228.0210 C   0  0  0  0  0  0  0  0  0  0  0  0
  140.0040   68.5680  229.0580 F   0  0  0  0  0  0  0  0  0  0  0  0
  140.8630   70.6210  228.1410 C   0  0  0  0  0  0  0  0  0  0  0  0
  141.0210   71.4320  227.0150 C   0  0  0  0  0  0  0  0  0  0  0  0
  140.5240   71.0450  225.7740 C   0  0  0  0  0  0  0  0  0  0  0  0
  140.6860   71.8410  224.7010 N   0  0  0  0  0  0  0  0  0  0  0  0
  139.5800   73.9870  223.2230 H   0  0  0  0  0  0  0  0  0  0  0  0
  139.6886   73.7535  220.2990 H   0  0  0  0  0  0  0  0  0  0  0  0
  139.5947   75.3270  221.2943 H   0  0  0  0  0  0  0  0  0  0  0  0
  143.8870   76.6229  219.8534 H   0  0  0  0  0  0  0  0  0  0  0  0
  143.2381   76.0041  218.4239 H   0  0  0  0  0  0  0  0  0  0  0  0
  142.7941   78.7580  219.4848 H   0  0  0  0  0  0  0  0  0  0  0  0
  141.8795   78.2766  218.2060 H   0  0  0  0  0  0  0  0  0  0  0  0
  140.1989   77.3778  220.0617 H   0  0  0  0  0  0  0  0  0  0  0  0
  142.1515   77.4925  222.0185 H   0  0  0  0  0  0  0  0  0  0  0  0
  139.2986   78.3841  221.7153 H   0  0  0  0  0  0  0  0  0  0  0  0
  139.9763   77.0498  222.6999 H   0  0  0  0  0  0  0  0  0  0  0  0
  139.9402   80.0033  223.2005 H   0  0  0  0  0  0  0  0  0  0  0  0
  139.8187   78.6088  224.3519 H   0  0  0  0  0  0  0  0  0  0  0  0
  141.9086   79.7519  224.7752 H   0  0  0  0  0  0  0  0  0  0  0  0
  142.2854   78.1985  223.9986 H   0  0  0  0  0  0  0  0  0  0  0  0
  142.2977   81.0039  222.8282 H   0  0  0  0  0  0  0  0  0  0  0  0
  143.5447   79.7000  222.7070 H   0  0  0  0  0  0  0  0  0  0  0  0
  141.0673   80.1571  221.0774 H   0  0  0  0  0  0  0  0  0  0  0  0
  142.6742   79.5388  220.5851 H   0  0  0  0  0  0  0  0  0  0  0  0
  139.1439   69.9365  222.4225 H   0  0  0  0  0  0  0  0  0  0  0  0
  138.8294   68.4423  224.3871 H   0  0  0  0  0  0  0  0  0  0  0  0
  139.1687   68.0429  226.6958 H   0  0  0  0  0  0  0  0  0  0  0  0
  141.2616   70.9404  229.1152 H   0  0  0  0  0  0  0  0  0  0  0  0
  141.5473   72.3932  227.1107 H   0  0  0  0  0  0  0  0  0  0  0  0
  1  2  2  0
  2  3  1  0
  3  4  1  0
  4  5  1  0
  5  6  2  0
  5  7  1  0
  7  8  1  0
  8  9  1  0
  9 10  1  0
 10 11  1  0
 11 12  1  0
 12 13  1  0
 13 14  1  0
 14 15  1  0
 15 16  1  0
  2 17  1  0
 17 18  2  0
 18 19  1  0
 19 20  2  0
 20 21  1  0
 21 22  2  0
 22 23  1  0
 22 24  1  0
 24 25  2  0
 25 26  1  0
 26 27  2  0
 10  7  1  0
 16 11  1  0
 27 17  1  0
 26 20  1  0
  3 28  1  0
  4 29  1  0
  4 30  1  0
  8 31  1  0
  8 32  1  0
  9 33  1  0
  9 34  1  0
 10 35  1  6
 11 36  1  0
 12 37  1  0
 12 38  1  0
 13 39  1  0
 13 40  1  0
 14 41  1  0
 14 42  1  0
 15 43  1  0
 15 44  1  0
 16 45  1  0
 16 46  1  0
 18 47  1  0
 19 48  1  0
 21 49  1  0
 24 50  1  0
 25 51  1  0
M  END
>  <smiles>  (11) 
O=C(NCC(=O)N1CCC1C1CCCCC1)c1ccc2cc(F)ccc2n1

>  <score_type>  (11) 
oracle

>  <origin>  (11) 
autodockgpu

>  <m_score__min__energy>  (11) 
-8.9299999999999997

>  <m_primary>  (11) 
energy

>  <rmsd>  (11) 
2.7195262072221515

>  <m_score__min__rmsd>  (11) 
2.7195262072221515

>  <meeko>  (11) 
{"free_energy": -8.54, "intermolecular_energy": -10.03, "internal_energy": -1.13, "cluster_size": 22, "cluster_id": 1, "rank_in_cluster": 16}

>  <energy>  (11) 
-8.58

>  <cluster_rmsd>  (11) 
0.78

>  <cluster>  (11) 
1

$$$$

     RDKit          3D

 51 54  0  0  0  0  0  0  0  0999 V2000
  141.3530   72.3750  221.8430 O   0  0  0  0  0  0  0  0  0  0  0  0
  140.3660   72.3710  222.6260 C   0  0  0  0  0  0  0  0  0  0  0  0
  139.3200   73.3270  222.3430 N   0  0  0  0  0  0  0  0  0  0  0  0
  139.5010   74.1720  221.2200 C   0  0  0  0  0  0  0  0  0  0  0  0
  139.8390   75.5710  221.4580 C   0  0  0  0  0  0  0  0  0  0  0  0
  139.1360   76.1600  222.3680 O   0  0  0  0  0  0  0  0  0  0  0  0
  140.8440   76.3240  220.8000 N   0  0  0  0  0  0  0  0  0  0  0  0
  142.1020   76.1150  220.0930 C   0  0  0  0  0  0  0  0  0  0  0  0
  142.1660   77.5570  219.6390 C   0  0  0  0  0  0  0  0  0  0  0  0
  141.0220   77.7430  220.5690 C   0  0  2  0  0  0  0  0  0  0  0  0
  141.3930   78.5990  221.7350 C   0  0  0  0  0  0  0  0  0  0  0  0
  140.3600   78.7050  222.7940 C   0  0  0  0  0  0  0  0  0  0  0  0
  140.7950   79.7490  223.7970 C   0  0  0  0  0  0  0  0  0  0  0  0
  142.3040   79.8840  223.8440 C   0  0  0  0  0  0  0  0  0  0  0  0
  142.7310   80.5030  222.5270 C   0  0  0  0  0  0  0  0  0  0  0  0
  141.8910   79.9740  221.3770 C   0  0  0  0  0  0  0  0  0  0  0  0
  140.2480   71.4720  223.7630 C   0  0  0  0  0  0  0  0  0  0  0  0
  139.6110   70.2660  223.5630 C   0  0  0  0  0  0  0  0  0  0  0  0
  139.4460   69.3420  224.5770 C   0  0  0  0  0  0  0  0  0  0  0  0
  139.9520   69.6790  225.8230 C   0  0  0  0  0  0  0  0  0  0  0  0
  139.7970   68.7710  226.8450 C   0  0  0  0  0  0  0  0  0  0  0  0
  140.3020   69.0980  228.1020 C   0  0  0  0  0  0  0  0  0  0  0  0
  140.1200   68.1650  229.0700 F   0  0  0  0  0  0  0  0  0  0  0  0
  140.9400   70.2980  228.3160 C   0  0  0  0  0  0  0  0  0  0  0  0
  141.0800   71.1960  227.2560 C   0  0  0  0  0  0  0  0  0  0  0  0
  140.5880   70.9000  225.9890 C   0  0  0  0  0  0  0  0  0  0  0  0
  140.7330   71.7800  224.9820 N   0  0  0  0  0  0  0  0  0  0  0  0
  138.5190   73.2990  223.0010 H   0  0  0  0  0  0  0  0  0  0  0  0
  140.3103   73.7395  220.6133 H   0  0  0  0  0  0  0  0  0  0  0  0
  138.5104   74.2080  220.7432 H   0  0  0  0  0  0  0  0  0  0  0  0
  142.9332   75.8254  220.7527 H   0  0  0  0  0  0  0  0  0  0  0  0
  142.1642   75.3155  219.3400 H   0  0  0  0  0  0  0  0  0  0  0  0
  143.0859   78.0959  219.9099 H   0  0  0  0  0  0  0  0  0  0  0  0
  142.1442   77.8616  218.5823 H   0  0  0  0  0  0  0  0  0  0  0  0
  140.1165   78.2805  220.2510 H   0  0  0  0  0  0  0  0  0  0  0  0
  142.2379   78.0329  222.1540 H   0  0  0  0  0  0  0  0  0  0  0  0
  139.4000   79.0006  222.3456 H   0  0  0  0  0  0  0  0  0  0  0  0
  140.2380   77.7335  223.2953 H   0  0  0  0  0  0  0  0  0  0  0  0
  140.3586   80.7185  223.5149 H   0  0  0  0  0  0  0  0  0  0  0  0
  140.4467   79.4357  224.7923 H   0  0  0  0  0  0  0  0  0  0  0  0
  142.6000   80.5334  224.6810 H   0  0  0  0  0  0  0  0  0  0  0  0
  142.7829   78.9050  223.9931 H   0  0  0  0  0  0  0  0  0  0  0  0
  142.6108   81.5947  222.5873 H   0  0  0  0  0  0  0  0  0  0  0  0
  143.7829   80.2398  222.3417 H   0  0  0  0  0  0  0  0  0  0  0  0
  141.0358   80.6440  221.2045 H   0  0  0  0  0  0  0  0  0  0  0  0
  142.4980   79.9258  220.4609 H   0  0  0  0  0  0  0  0  0  0  0  0
  139.2206   70.0312  222.5618 H   0  0  0  0  0  0  0  0  0  0  0  0
  138.9364   68.3827  224.4035 H   0  0  0  0  0  0  0  0  0  0  0  0
  139.2874   67.8113  226.6742 H   0  0  0  0  0  0  0  0  0  0  0  0
  141.3356   70.5473  229.3116 H   0  0  0  0  0  0  0  0  0  0  0  0
  141.5892   72.1561  227.4261 H   0  0  0  0  0  0  0  0  0  0  0  0
  1  2  2  0
  2  3  1  0
  3  4  1  0
  4  5  1  0
  5  6  2  0
  5  7  1  0
  7  8  1  0
  8  9  1  0
  9 10  1  0
 10 11  1  0
 11 12  1  0
 12 13  1  0
 13 14  1  0
 14 15  1  0
 15 16  1  0
  2 17  1  0
 17 18  2  0
 18 19  1  0
 19 20  2  0
 20 21  1  0
 21 22  2  0
 22 23  1  0
 22 24  1  0
 24 25  2  0
 25 26  1  0
 26 27  2  0
 10  7  1  0
 16 11  1  0
 27 17  1  0
 26 20  1  0
  3 28  1  0
  4 29  1  0
  4 30  1  0
  8 31  1  0
  8 32  1  0
  9 33  1  0
  9 34  1  0
 10 35  1  6
 11 36  1  0
 12 37  1  0
 12 38  1  0
 13 39  1  0
 13 40  1  0
 14 41  1  0
 14 42  1  0
 15 43  1  0
 15 44  1  0
 16 45  1  0
 16 46  1  0
 18 47  1  0
 19 48  1  0
 21 49  1  0
 24 50  1  0
 25 51  1  0
M  END
>  <smiles>  (12) 
O=C(NCC(=O)N1CCC1C1CCCCC1)c1ccc2cc(F)ccc2n1

>  <score_type>  (12) 
oracle

>  <origin>  (12) 
autodockgpu

>  <m_score__min__energy>  (12) 
-8.9299999999999997

>  <m_primary>  (12) 
energy

>  <rmsd>  (12) 
2.741166441114839

>  <m_score__min__rmsd>  (12) 
2.741166441114839

>  <meeko>  (12) 
{"free_energy": -8.83, "intermolecular_energy": -10.32, "internal_energy": -1.11, "cluster_size": 22, "cluster_id": 1, "rank_in_cluster": 6}

>  <energy>  (12) 
-8.56

>  <cluster_rmsd>  (12) 
0.78

>  <cluster>  (12) 
1

$$$$

     RDKit          3D

 51 54  0  0  0  0  0  0  0  0999 V2000
  140.6890   74.0500  220.3930 O   0  0  0  0  0  0  0  0  0  0  0  0
  140.3240   74.7840  221.3480 C   0  0  0  0  0  0  0  0  0  0  0  0
  139.4370   74.1810  222.3170 N   0  0  0  0  0  0  0  0  0  0  0  0
  139.0650   72.8300  222.1020 C   0  0  0  0  0  0  0  0  0  0  0  0
  139.7830   71.7940  222.8350 C   0  0  0  0  0  0  0  0  0  0  0  0
  141.0710   71.8500  222.7470 O   0  0  0  0  0  0  0  0  0  0  0  0
  139.2130   70.7570  223.6160 N   0  0  0  0  0  0  0  0  0  0  0  0
  137.9210   70.1140  223.8320 C   0  0  0  0  0  0  0  0  0  0  0  0
  138.5300   69.0190  224.6800 C   0  0  0  0  0  0  0  0  0  0  0  0
  139.7580   69.8550  224.6100 C   0  0  2  0  0  0  0  0  0  0  0  0
  140.1150   70.4220  225.9450 C   0  0  0  0  0  0  0  0  0  0  0  0
  141.0200   71.5960  225.9100 C   0  0  0  0  0  0  0  0  0  0  0  0
  141.4440   71.9270  227.3230 C   0  0  0  0  0  0  0  0  0  0  0  0
  140.4070   71.4840  228.3360 C   0  0  0  0  0  0  0  0  0  0  0  0
  140.4200   69.9680  228.3410 C   0  0  0  0  0  0  0  0  0  0  0  0
  140.6300   69.4170  226.9410 C   0  0  0  0  0  0  0  0  0  0  0  0
  140.7460   76.1670  221.5050 C   0  0  0  0  0  0  0  0  0  0  0  0
  141.5360   76.7120  220.5160 C   0  0  0  0  0  0  0  0  0  0  0  0
  141.9910   78.0150  220.5690 C   0  0  0  0  0  0  0  0  0  0  0  0
  141.6170   78.7670  221.6710 C   0  0  0  0  0  0  0  0  0  0  0  0
  142.0610   80.0680  221.7410 C   0  0  0  0  0  0  0  0  0  0  0  0
  141.6910   80.8330  222.8460 C   0  0  0  0  0  0  0  0  0  0  0  0
  142.1580   82.1070  222.8600 F   0  0  0  0  0  0  0  0  0  0  0  0
  140.9030   80.3030  223.8400 C   0  0  0  0  0  0  0  0  0  0  0  0
  140.4710   78.9790  223.7380 C   0  0  0  0  0  0  0  0  0  0  0  0
  140.8210   78.1890  222.6480 C   0  0  0  0  0  0  0  0  0  0  0  0
  140.3940   76.9150  222.5690 N   0  0  0  0  0  0  0  0  0  0  0  0
  139.1540   74.8070  223.0940 H   0  0  0  0  0  0  0  0  0  0  0  0
  138.0010   72.7385  222.3656 H   0  0  0  0  0  0  0  0  0  0  0  0
  139.3156   72.6421  221.0475 H   0  0  0  0  0  0  0  0  0  0  0  0
  137.2033   70.7439  224.3780 H   0  0  0  0  0  0  0  0  0  0  0  0
  137.3111   69.8361  222.9597 H   0  0  0  0  0  0  0  0  0  0  0  0
  138.0952   68.9035  225.6838 H   0  0  0  0  0  0  0  0  0  0  0  0
  138.5048   67.9542  224.4050 H   0  0  0  0  0  0  0  0  0  0  0  0
  140.7307   69.4104  224.3527 H   0  0  0  0  0  0  0  0  0  0  0  0
  139.1338   70.7731  226.2970 H   0  0  0  0  0  0  0  0  0  0  0  0
  141.9070   71.3610  225.3034 H   0  0  0  0  0  0  0  0  0  0  0  0
  140.4988   72.4564  225.4651 H   0  0  0  0  0  0  0  0  0  0  0  0
  142.3944   71.4171  227.5390 H   0  0  0  0  0  0  0  0  0  0  0  0
  141.5566   73.0184  227.4013 H   0  0  0  0  0  0  0  0  0  0  0  0
  140.6641   71.8683  229.3341 H   0  0  0  0  0  0  0  0  0  0  0  0
  139.4103   71.8695  228.0752 H   0  0  0  0  0  0  0  0  0  0  0  0
  141.2358   69.6181  228.9907 H   0  0  0  0  0  0  0  0  0  0  0  0
  139.4483   69.6121  228.7138 H   0  0  0  0  0  0  0  0  0  0  0  0
  141.7022   69.2414  226.7692 H   0  0  0  0  0  0  0  0  0  0  0  0
  140.0896   68.4656  226.8274 H   0  0  0  0  0  0  0  0  0  0  0  0
  141.8139   76.0874  219.6542 H   0  0  0  0  0  0  0  0  0  0  0  0
  142.6217   78.4366  219.7725 H   0  0  0  0  0  0  0  0  0  0  0  0
  142.6913   80.4929  220.9458 H   0  0  0  0  0  0  0  0  0  0  0  0
  140.6156   80.9158  224.7071 H   0  0  0  0  0  0  0  0  0  0  0  0
  139.8426   78.5531  224.5341 H   0  0  0  0  0  0  0  0  0  0  0  0
  1  2  2  0
  2  3  1  0
  3  4  1  0
  4  5  1  0
  5  6  2  0
  5  7  1  0
  7  8  1  0
  8  9  1  0
  9 10  1  0
 10 11  1  0
 11 12  1  0
 12 13  1  0
 13 14  1  0
 14 15  1  0
 15 16  1  0
  2 17  1  0
 17 18  2  0
 18 19  1  0
 19 20  2  0
 20 21  1  0
 21 22  2  0
 22 23  1  0
 22 24  1  0
 24 25  2  0
 25 26  1  0
 26 27  2  0
 10  7  1  0
 16 11  1  0
 27 17  1  0
 26 20  1  0
  3 28  1  0
  4 29  1  0
  4 30  1  0
  8 31  1  0
  8 32  1  0
  9 33  1  0
  9 34  1  0
 10 35  1  6
 11 36  1  0
 12 37  1  0
 12 38  1  0
 13 39  1  0
 13 40  1  0
 14 41  1  0
 14 42  1  0
 15 43  1  0
 15 44  1  0
 16 45  1  0
 16 46  1  0
 18 47  1  0
 19 48  1  0
 21 49  1  0
 24 50  1  0
 25 51  1  0
M  END
>  <smiles>  (13) 
O=C(NCC(=O)N1CCC1C1CCCCC1)c1ccc2cc(F)ccc2n1

>  <score_type>  (13) 
oracle

>  <origin>  (13) 
autodockgpu

>  <m_score__min__energy>  (13) 
-8.9299999999999997

>  <m_primary>  (13) 
energy

>  <rmsd>  (13) 
8.643247144548626

>  <m_score__min__rmsd>  (13) 
8.643247144548626

>  <meeko>  (13) 
{"free_energy": -8.63, "intermolecular_energy": -10.12, "internal_energy": -1.38, "cluster_size": 21, "cluster_id": 2, "rank_in_cluster": 7}

>  <energy>  (13) 
-8.55

>  <cluster_rmsd>  (13) 
0.83

>  <cluster>  (13) 
1

$$$$

     RDKit          3D

 51 54  0  0  0  0  0  0  0  0999 V2000
  141.1070   72.1580  221.2870 O   0  0  0  0  0  0  0  0  0  0  0  0
  140.4430   72.4510  222.3150 C   0  0  0  0  0  0  0  0  0  0  0  0
  139.8140   73.7520  222.3230 N   0  0  0  0  0  0  0  0  0  0  0  0
  140.0030   74.5700  221.1810 C   0  0  0  0  0  0  0  0  0  0  0  0
  139.8380   76.0120  221.3320 C   0  0  0  0  0  0  0  0  0  0  0  0
  138.9980   76.3770  222.2420 O   0  0  0  0  0  0  0  0  0  0  0  0
  140.4980   77.0230  220.5890 N   0  0  0  0  0  0  0  0  0  0  0  0
  141.5180   77.1510  219.5540 C   0  0  0  0  0  0  0  0  0  0  0  0
  141.2500   78.6300  219.3770 C   0  0  0  0  0  0  0  0  0  0  0  0
  140.4050   78.4690  220.5890 C   0  0  2  0  0  0  0  0  0  0  0  0
  140.9720   79.2050  221.7590 C   0  0  0  0  0  0  0  0  0  0  0  0
  139.9970   80.0190  222.5250 C   0  0  0  0  0  0  0  0  0  0  0  0
  140.7470   80.8490  223.5410 C   0  0  0  0  0  0  0  0  0  0  0  0
  142.0510   80.1910  223.9480 C   0  0  0  0  0  0  0  0  0  0  0  0
  142.9670   80.2510  222.7410 C   0  0  0  0  0  0  0  0  0  0  0  0
  142.1910   80.0340  221.4540 C   0  0  0  0  0  0  0  0  0  0  0  0
  140.2930   71.5590  223.4540 C   0  0  0  0  0  0  0  0  0  0  0  0
  139.6970   70.3360  223.2360 C   0  0  0  0  0  0  0  0  0  0  0  0
  139.5060   69.4160  224.2490 C   0  0  0  0  0  0  0  0  0  0  0  0
  139.9430   69.7760  225.5140 C   0  0  0  0  0  0  0  0  0  0  0  0
  139.7610   68.8730  226.5360 C   0  0  0  0  0  0  0  0  0  0  0  0
  140.1970   69.2240  227.8130 C   0  0  0  0  0  0  0  0  0  0  0  0
  139.9910   68.2940  228.7800 F   0  0  0  0  0  0  0  0  0  0  0  0
  140.7930   70.4410  228.0460 C   0  0  0  0  0  0  0  0  0  0  0  0
  140.9620   71.3340  226.9860 C   0  0  0  0  0  0  0  0  0  0  0  0
  140.5380   71.0140  225.6990 C   0  0  0  0  0  0  0  0  0  0  0  0
  140.7100   71.8890  224.6920 N   0  0  0  0  0  0  0  0  0  0  0  0
  139.2720   73.9660  223.1810 H   0  0  0  0  0  0  0  0  0  0  0  0
  141.0272   74.3947  220.8199 H   0  0  0  0  0  0  0  0  0  0  0  0
  139.1954   74.2730  220.4957 H   0  0  0  0  0  0  0  0  0  0  0  0
  142.5348   76.9288  219.9100 H   0  0  0  0  0  0  0  0  0  0  0  0
  141.4719   76.4914  218.6749 H   0  0  0  0  0  0  0  0  0  0  0  0
  142.1255   79.2851  219.4967 H   0  0  0  0  0  0  0  0  0  0  0  0
  140.8853   79.0719  218.4380 H   0  0  0  0  0  0  0  0  0  0  0  0
  139.3814   78.8704  220.6217 H   0  0  0  0  0  0  0  0  0  0  0  0
  141.2843   78.3706  222.4042 H   0  0  0  0  0  0  0  0  0  0  0  0
  139.4486   80.6813  221.8390 H   0  0  0  0  0  0  0  0  0  0  0  0
  139.2803   79.3598  223.0367 H   0  0  0  0  0  0  0  0  0  0  0  0
  140.9658   81.8348  223.1048 H   0  0  0  0  0  0  0  0  0  0  0  0
  140.1170   80.9464  224.4374 H   0  0  0  0  0  0  0  0  0  0  0  0
  142.5013   80.7331  224.7926 H   0  0  0  0  0  0  0  0  0  0  0  0
  141.8859   79.1513  224.2671 H   0  0  0  0  0  0  0  0  0  0  0  0
  143.4513   81.2380  222.7063 H   0  0  0  0  0  0  0  0  0  0  0  0
  143.7194   79.4540  222.8337 H   0  0  0  0  0  0  0  0  0  0  0  0
  141.8837   81.0052  221.0389 H   0  0  0  0  0  0  0  0  0  0  0  0
  142.8229   79.5146  220.7185 H   0  0  0  0  0  0  0  0  0  0  0  0
  139.3614   70.0831  222.2194 H   0  0  0  0  0  0  0  0  0  0  0  0
  139.0292   68.4429  224.0602 H   0  0  0  0  0  0  0  0  0  0  0  0
  139.2839   67.8994  226.3504 H   0  0  0  0  0  0  0  0  0  0  0  0
  141.1332   70.7084  229.0573 H   0  0  0  0  0  0  0  0  0  0  0  0
  141.4387   72.3079  227.1710 H   0  0  0  0  0  0  0  0  0  0  0  0
  1  2  2  0
  2  3  1  0
  3  4  1  0
  4  5  1  0
  5  6  2  0
  5  7  1  0
  7  8  1  0
  8  9  1  0
  9 10  1  0
 10 11  1  0
 11 12  1  0
 12 13  1  0
 13 14  1  0
 14 15  1  0
 15 16  1  0
  2 17  1  0
 17 18  2  0
 18 19  1  0
 19 20  2  0
 20 21  1  0
 21 22  2  0
 22 23  1  0
 22 24  1  0
 24 25  2  0
 25 26  1  0
 26 27  2  0
 10  7  1  0
 16 11  1  0
 27 17  1  0
 26 20  1  0
  3 28  1  0
  4 29  1  0
  4 30  1  0
  8 31  1  0
  8 32  1  0
  9 33  1  0
  9 34  1  0
 10 35  1  6
 11 36  1  0
 12 37  1  0
 12 38  1  0
 13 39  1  0
 13 40  1  0
 14 41  1  0
 14 42  1  0
 15 43  1  0
 15 44  1  0
 16 45  1  0
 16 46  1  0
 18 47  1  0
 19 48  1  0
 21 49  1  0
 24 50  1  0
 25 51  1  0
M  END
>  <smiles>  (14) 
O=C(NCC(=O)N1CCC1C1CCCCC1)c1ccc2cc(F)ccc2n1

>  <score_type>  (14) 
oracle

>  <origin>  (14) 
autodockgpu

>  <m_score__min__energy>  (14) 
-8.9299999999999997

>  <m_primary>  (14) 
energy

>  <rmsd>  (14) 
2.9198522762208685

>  <m_score__min__rmsd>  (14) 
2.9198522762208685

>  <meeko>  (14) 
{"free_energy": -8.17, "intermolecular_energy": -9.67, "internal_energy": -1.26, "cluster_size": 22, "cluster_id": 1, "rank_in_cluster": 21}

>  <energy>  (14) 
-8.55

>  <cluster_rmsd>  (14) 
0.75

>  <cluster>  (14) 
1

$$$$

     RDKit          3D

 51 54  0  0  0  0  0  0  0  0999 V2000
  141.3660   72.4170  221.8760 O   0  0  0  0  0  0  0  0  0  0  0  0
  140.3710   72.4060  222.6480 C   0  0  0  0  0  0  0  0  0  0  0  0
  139.3190   73.3520  222.3500 N   0  0  0  0  0  0  0  0  0  0  0  0
  139.5050   74.1950  221.2260 C   0  0  0  0  0  0  0  0  0  0  0  0
  139.8330   75.5960  221.4640 C   0  0  0  0  0  0  0  0  0  0  0  0
  139.1250   76.1820  222.3710 O   0  0  0  0  0  0  0  0  0  0  0  0
  140.8340   76.3560  220.8060 N   0  0  0  0  0  0  0  0  0  0  0  0
  142.0940   76.1540  220.1010 C   0  0  0  0  0  0  0  0  0  0  0  0
  142.1500   77.5960  219.6450 C   0  0  0  0  0  0  0  0  0  0  0  0
  141.0020   77.7760  220.5730 C   0  0  2  0  0  0  0  0  0  0  0  0
  141.3660   78.6360  221.7390 C   0  0  0  0  0  0  0  0  0  0  0  0
  140.3340   78.7280  222.8010 C   0  0  0  0  0  0  0  0  0  0  0  0
  140.7590   79.7760  223.8030 C   0  0  0  0  0  0  0  0  0  0  0  0
  142.2660   79.9310  223.8470 C   0  0  0  0  0  0  0  0  0  0  0  0
  142.6810   80.5560  222.5290 C   0  0  0  0  0  0  0  0  0  0  0  0
  141.8450   80.0170  221.3810 C   0  0  0  0  0  0  0  0  0  0  0  0
  140.2480   71.5100  223.7870 C   0  0  0  0  0  0  0  0  0  0  0  0
  139.6090   70.3060  223.5880 C   0  0  0  0  0  0  0  0  0  0  0  0
  139.4390   69.3840  224.6030 C   0  0  0  0  0  0  0  0  0  0  0  0
  139.9430   69.7220  225.8490 C   0  0  0  0  0  0  0  0  0  0  0  0
  139.7830   68.8160  226.8730 C   0  0  0  0  0  0  0  0  0  0  0  0
  140.2860   69.1460  228.1310 C   0  0  0  0  0  0  0  0  0  0  0  0
  140.0990   68.2140  229.1000 F   0  0  0  0  0  0  0  0  0  0  0  0
  140.9260   70.3440  228.3430 C   0  0  0  0  0  0  0  0  0  0  0  0
  141.0710   71.2400  227.2820 C   0  0  0  0  0  0  0  0  0  0  0  0
  140.5800   70.9420  226.0150 C   0  0  0  0  0  0  0  0  0  0  0  0
  140.7300   71.8200  225.0060 N   0  0  0  0  0  0  0  0  0  0  0  0
  138.5110   73.3190  222.9990 H   0  0  0  0  0  0  0  0  0  0  0  0
  140.3219   73.7656  220.6275 H   0  0  0  0  0  0  0  0  0  0  0  0
  138.5187   74.2240  220.7399 H   0  0  0  0  0  0  0  0  0  0  0  0
  142.9261   75.8703  220.7622 H   0  0  0  0  0  0  0  0  0  0  0  0
  142.1620   75.3540  219.3491 H   0  0  0  0  0  0  0  0  0  0  0  0
  143.0659   78.1411  219.9171 H   0  0  0  0  0  0  0  0  0  0  0  0
  142.1287   77.8991  218.5878 H   0  0  0  0  0  0  0  0  0  0  0  0
  140.0934   78.3067  220.2525 H   0  0  0  0  0  0  0  0  0  0  0  0
  142.2196   78.0807  222.1550 H   0  0  0  0  0  0  0  0  0  0  0  0
  139.3692   79.0121  222.3555 H   0  0  0  0  0  0  0  0  0  0  0  0
  140.2248   77.7546  223.3016 H   0  0  0  0  0  0  0  0  0  0  0  0
  140.3095   80.7401  223.5228 H   0  0  0  0  0  0  0  0  0  0  0  0
  140.4179   79.4566  224.7988 H   0  0  0  0  0  0  0  0  0  0  0  0
  142.5552   80.5842  224.6835 H   0  0  0  0  0  0  0  0  0  0  0  0
  142.7586   78.9587  223.9951 H   0  0  0  0  0  0  0  0  0  0  0  0
  142.5468   81.6461  222.5903 H   0  0  0  0  0  0  0  0  0  0  0  0
  143.7356   80.3063  222.3406 H   0  0  0  0  0  0  0  0  0  0  0  0
  140.9808   80.6760  221.2113 H   0  0  0  0  0  0  0  0  0  0  0  0
  142.4502   79.9773  220.4633 H   0  0  0  0  0  0  0  0  0  0  0  0
  139.2205   70.0704  222.5862 H   0  0  0  0  0  0  0  0  0  0  0  0
  138.9272   68.4258  224.4300 H   0  0  0  0  0  0  0  0  0  0  0  0
  139.2718   67.8569  226.7033 H   0  0  0  0  0  0  0  0  0  0  0  0
  141.3201   70.5944  229.3390 H   0  0  0  0  0  0  0  0  0  0  0  0
  141.5828   72.1989  227.4511 H   0  0  0  0  0  0  0  0  0  0  0  0
  1  2  2  0
  2  3  1  0
  3  4  1  0
  4  5  1  0
  5  6  2  0
  5  7  1  0
  7  8  1  0
  8  9  1  0
  9 10  1  0
 10 11  1  0
 11 12  1  0
 12 13  1  0
 13 14  1  0
 14 15  1  0
 15 16  1  0
  2 17  1  0
 17 18  2  0
 18 19  1  0
 19 20  2  0
 20 21  1  0
 21 22  2  0
 22 23  1  0
 22 24  1  0
 24 25  2  0
 25 26  1  0
 26 27  2  0
 10  7  1  0
 16 11  1  0
 27 17  1  0
 26 20  1  0
  3 28  1  0
  4 29  1  0
  4 30  1  0
  8 31  1  0
  8 32  1  0
  9 33  1  0
  9 34  1  0
 10 35  1  6
 11 36  1  0
 12 37  1  0
 12 38  1  0
 13 39  1  0
 13 40  1  0
 14 41  1  0
 14 42  1  0
 15 43  1  0
 15 44  1  0
 16 45  1  0
 16 46  1  0
 18 47  1  0
 19 48  1  0
 21 49  1  0
 24 50  1  0
 25 51  1  0
M  END
>  <smiles>  (15) 
O=C(NCC(=O)N1CCC1C1CCCCC1)c1ccc2cc(F)ccc2n1

>  <score_type>  (15) 
oracle

>  <origin>  (15) 
autodockgpu

>  <m_score__min__energy>  (15) 
-8.9299999999999997

>  <m_primary>  (15) 
energy

>  <rmsd>  (15) 
2.7553996312819082

>  <m_score__min__rmsd>  (15) 
2.7553996312819082

>  <meeko>  (15) 
{"free_energy": -8.83, "intermolecular_energy": -10.32, "internal_energy": -1.1, "cluster_size": 22, "cluster_id": 1, "rank_in_cluster": 5}

>  <energy>  (15) 
-8.55

>  <cluster_rmsd>  (15) 
0.75

>  <cluster>  (15) 
1

$$$$

     RDKit          3D

 51 54  0  0  0  0  0  0  0  0999 V2000
  141.3270   72.3880  221.6270 O   0  0  0  0  0  0  0  0  0  0  0  0
  140.4220   72.5010  222.4960 C   0  0  0  0  0  0  0  0  0  0  0  0
  139.5110   73.6110  222.3310 N   0  0  0  0  0  0  0  0  0  0  0  0
  139.7200   74.4600  221.2150 C   0  0  0  0  0  0  0  0  0  0  0  0
  140.9400   75.2580  221.1760 C   0  0  0  0  0  0  0  0  0  0  0  0
  141.2960   75.7750  222.3050 O   0  0  0  0  0  0  0  0  0  0  0  0
  141.7510   75.5130  220.0410 N   0  0  0  0  0  0  0  0  0  0  0  0
  141.6080   75.8000  218.6190 C   0  0  0  0  0  0  0  0  0  0  0  0
  143.0810   76.1100  218.4630 C   0  0  0  0  0  0  0  0  0  0  0  0
  143.1850   75.5780  219.8470 C   0  0  2  0  0  0  0  0  0  0  0  0
  143.9540   74.2980  219.8890 C   0  0  0  0  0  0  0  0  0  0  0  0
  145.1060   74.2840  220.8240 C   0  0  0  0  0  0  0  0  0  0  0  0
  145.8920   73.0110  220.6100 C   0  0  0  0  0  0  0  0  0  0  0  0
  145.0160   71.8960  220.0740 C   0  0  0  0  0  0  0  0  0  0  0  0
  144.6330   72.2820  218.6580 C   0  0  0  0  0  0  0  0  0  0  0  0
  144.3890   73.7770  218.5450 C   0  0  0  0  0  0  0  0  0  0  0  0
  140.2690   71.5890  223.6180 C   0  0  0  0  0  0  0  0  0  0  0  0
  139.6410   70.3850  223.3840 C   0  0  0  0  0  0  0  0  0  0  0  0
  139.4440   69.4500  224.3810 C   0  0  0  0  0  0  0  0  0  0  0  0
  139.9090   69.7720  225.6460 C   0  0  0  0  0  0  0  0  0  0  0  0
  139.7220   68.8520  226.6520 C   0  0  0  0  0  0  0  0  0  0  0  0
  140.1860   69.1660  227.9290 C   0  0  0  0  0  0  0  0  0  0  0  0
  139.9730   68.2210  228.8790 F   0  0  0  0  0  0  0  0  0  0  0  0
  140.8140   70.3640  228.1770 C   0  0  0  0  0  0  0  0  0  0  0  0
  140.9870   71.2750  227.1330 C   0  0  0  0  0  0  0  0  0  0  0  0
  140.5370   70.9920  225.8470 C   0  0  0  0  0  0  0  0  0  0  0  0
  140.7130   71.8840  224.8550 N   0  0  0  0  0  0  0  0  0  0  0  0
  138.7750   73.6780  223.0570 H   0  0  0  0  0  0  0  0  0  0  0  0
  139.7166   73.8250  220.3168 H   0  0  0  0  0  0  0  0  0  0  0  0
  138.9106   75.2020  221.2812 H   0  0  0  0  0  0  0  0  0  0  0  0
  141.2769   74.9336  218.0276 H   0  0  0  0  0  0  0  0  0  0  0  0
  140.8685   76.5483  218.2977 H   0  0  0  0  0  0  0  0  0  0  0  0
  143.6065   75.5261  217.6930 H   0  0  0  0  0  0  0  0  0  0  0  0
  143.4647   77.0959  218.1617 H   0  0  0  0  0  0  0  0  0  0  0  0
  143.7360   76.1277  220.6243 H   0  0  0  0  0  0  0  0  0  0  0  0
  143.1964   73.6080  220.2889 H   0  0  0  0  0  0  0  0  0  0  0  0
  145.7508   75.1537  220.6292 H   0  0  0  0  0  0  0  0  0  0  0  0
  144.7452   74.3302  221.8621 H   0  0  0  0  0  0  0  0  0  0  0  0
  146.6999   73.2074  219.8898 H   0  0  0  0  0  0  0  0  0  0  0  0
  146.2991   72.6915  221.5807 H   0  0  0  0  0  0  0  0  0  0  0  0
  145.5713   70.9465  220.0706 H   0  0  0  0  0  0  0  0  0  0  0  0
  144.1228   71.7596  220.7013 H   0  0  0  0  0  0  0  0  0  0  0  0
  145.4479   71.9985  217.9756 H   0  0  0  0  0  0  0  0  0  0  0  0
  143.7045   71.7557  218.3917 H   0  0  0  0  0  0  0  0  0  0  0  0
  145.3163   74.2810  218.2351 H   0  0  0  0  0  0  0  0  0  0  0  0
  143.6078   73.9737  217.7960 H   0  0  0  0  0  0  0  0  0  0  0  0
  139.2843   70.1609  222.3679 H   0  0  0  0  0  0  0  0  0  0  0  0
  138.9407   68.4928  224.1800 H   0  0  0  0  0  0  0  0  0  0  0  0
  139.2195   67.8937  226.4540 H   0  0  0  0  0  0  0  0  0  0  0  0
  141.1765   70.6023  229.1879 H   0  0  0  0  0  0  0  0  0  0  0  0
  141.4882   72.2340  227.3308 H   0  0  0  0  0  0  0  0  0  0  0  0
  1  2  2  0
  2  3  1  0
  3  4  1  0
  4  5  1  0
  5  6  2  0
  5  7  1  0
  7  8  1  0
  8  9  1  0
  9 10  1  0
 10 11  1  0
 11 12  1  0
 12 13  1  0
 13 14  1  0
 14 15  1  0
 15 16  1  0
  2 17  1  0
 17 18  2  0
 18 19  1  0
 19 20  2  0
 20 21  1  0
 21 22  2  0
 22 23  1  0
 22 24  1  0
 24 25  2  0
 25 26  1  0
 26 27  2  0
 10  7  1  0
 16 11  1  0
 27 17  1  0
 26 20  1  0
  3 28  1  0
  4 29  1  0
  4 30  1  0
  8 31  1  0
  8 32  1  0
  9 33  1  0
  9 34  1  0
 10 35  1  1
 11 36  1  0
 12 37  1  0
 12 38  1  0
 13 39  1  0
 13 40  1  0
 14 41  1  0
 14 42  1  0
 15 43  1  0
 15 44  1  0
 16 45  1  0
 16 46  1  0
 18 47  1  0
 19 48  1  0
 21 49  1  0
 24 50  1  0
 25 51  1  0
M  END
>  <smiles>  (16) 
O=C(NCC(=O)N1CCC1C1CCCCC1)c1ccc2cc(F)ccc2n1

>  <score_type>  (16) 
oracle

>  <origin>  (16) 
autodockgpu

>  <m_score__min__energy>  (16) 
-8.9299999999999997

>  <m_primary>  (16) 
energy

>  <rmsd>  (16) 
2.672618232685516

>  <m_score__min__rmsd>  (16) 
2.672618232685516

>  <meeko>  (16) 
{"free_energy": -8.01, "intermolecular_energy": -9.5, "internal_energy": -1.41, "cluster_size": 5, "cluster_id": 3, "rank_in_cluster": 5}

>  <energy>  (16) 
-8.54

>  <cluster_rmsd>  (16) 
0.83

>  <cluster>  (16) 
1

$$$$

     RDKit          3D

 51 54  0  0  0  0  0  0  0  0999 V2000
  141.6890   73.2870  221.0310 O   0  0  0  0  0  0  0  0  0  0  0  0
  140.9340   74.1210  221.5970 C   0  0  0  0  0  0  0  0  0  0  0  0
  139.8150   73.5770  222.3320 N   0  0  0  0  0  0  0  0  0  0  0  0
  139.6750   72.1670  222.3480 C   0  0  0  0  0  0  0  0  0  0  0  0
  138.5670   71.5940  223.1050 C   0  0  0  0  0  0  0  0  0  0  0  0
  137.4650   72.2660  223.0620 O   0  0  0  0  0  0  0  0  0  0  0  0
  138.5890   70.3970  223.8660 N   0  0  0  0  0  0  0  0  0  0  0  0
  137.6950   69.3110  224.2480 C   0  0  0  0  0  0  0  0  0  0  0  0
  138.8230   68.5020  224.8510 C   0  0  0  0  0  0  0  0  0  0  0  0
  139.6200   69.7400  224.6430 C   0  0  2  0  0  0  0  0  0  0  0  0
  140.0200   70.3620  225.9400 C   0  0  0  0  0  0  0  0  0  0  0  0
  140.9020   71.5490  225.8250 C   0  0  0  0  0  0  0  0  0  0  0  0
  141.3760   71.9400  227.2060 C   0  0  0  0  0  0  0  0  0  0  0  0
  140.3890   71.5180  228.2760 C   0  0  0  0  0  0  0  0  0  0  0  0
  140.4280   70.0040  228.3370 C   0  0  0  0  0  0  0  0  0  0  0  0
  140.5920   69.4040  226.9520 C   0  0  0  0  0  0  0  0  0  0  0  0
  141.1400   75.5600  221.5370 C   0  0  0  0  0  0  0  0  0  0  0  0
  141.6920   76.0800  220.3870 C   0  0  0  0  0  0  0  0  0  0  0  0
  141.9290   77.4330  220.2290 C   0  0  0  0  0  0  0  0  0  0  0  0
  141.5850   78.2580  221.2870 C   0  0  0  0  0  0  0  0  0  0  0  0
  141.8140   79.6090  221.1470 C   0  0  0  0  0  0  0  0  0  0  0  0
  141.4710   80.4490  222.2050 C   0  0  0  0  0  0  0  0  0  0  0  0
  141.7200   81.7690  222.0100 F   0  0  0  0  0  0  0  0  0  0  0  0
  140.9190   79.9440  223.3580 C   0  0  0  0  0  0  0  0  0  0  0  0
  140.7000   78.5690  223.4670 C   0  0  0  0  0  0  0  0  0  0  0  0
  141.0310   77.7030  222.4290 C   0  0  0  0  0  0  0  0  0  0  0  0
  140.8120   76.3800  222.5540 N   0  0  0  0  0  0  0  0  0  0  0  0
  139.2120   74.2850  222.7890 H   0  0  0  0  0  0  0  0  0  0  0  0
  139.5618   71.8383  221.3044 H   0  0  0  0  0  0  0  0  0  0  0  0
  140.5755   71.8089  222.8685 H   0  0  0  0  0  0  0  0  0  0  0  0
  136.9295   69.6096  224.9794 H   0  0  0  0  0  0  0  0  0  0  0  0
  137.0589   68.8484  223.4790 H   0  0  0  0  0  0  0  0  0  0  0  0
  138.6806   68.2039  225.9002 H   0  0  0  0  0  0  0  0  0  0  0  0
  139.1284   67.5139  224.4764 H   0  0  0  0  0  0  0  0  0  0  0  0
  140.6103   69.7020  224.1657 H   0  0  0  0  0  0  0  0  0  0  0  0
  139.0472   70.7095  226.3179 H   0  0  0  0  0  0  0  0  0  0  0  0
  141.7681   71.3059  225.1920 H   0  0  0  0  0  0  0  0  0  0  0  0
  140.3479   72.3833  225.3701 H   0  0  0  0  0  0  0  0  0  0  0  0
  142.3436   71.4548  227.4018 H   0  0  0  0  0  0  0  0  0  0  0  0
  141.4714   73.0354  227.2392 H   0  0  0  0  0  0  0  0  0  0  0  0
  140.6795   71.9435  229.2479 H   0  0  0  0  0  0  0  0  0  0  0  0
  139.3760   71.8771  228.0416 H   0  0  0  0  0  0  0  0  0  0  0  0
  141.2746   69.6917  228.9661 H   0  0  0  0  0  0  0  0  0  0  0  0
  139.4779   69.6474  228.7614 H   0  0  0  0  0  0  0  0  0  0  0  0
  141.6595   69.2395  226.7439 H   0  0  0  0  0  0  0  0  0  0  0  0
  140.0644   68.4404  226.8960 H   0  0  0  0  0  0  0  0  0  0  0  0
  141.9531   75.3955  219.5664 H   0  0  0  0  0  0  0  0  0  0  0  0
  142.3705   77.8357  219.3055 H   0  0  0  0  0  0  0  0  0  0  0  0
  142.2558   80.0142  220.2247 H   0  0  0  0  0  0  0  0  0  0  0  0
  140.6523   80.6163  224.1868 H   0  0  0  0  0  0  0  0  0  0  0  0
  140.2583   78.1635  224.3892 H   0  0  0  0  0  0  0  0  0  0  0  0
  1  2  2  0
  2  3  1  0
  3  4  1  0
  4  5  1  0
  5  6  2  0
  5  7  1  0
  7  8  1  0
  8  9  1  0
  9 10  1  0
 10 11  1  0
 11 12  1  0
 12 13  1  0
 13 14  1  0
 14 15  1  0
 15 16  1  0
  2 17  1  0
 17 18  2  0
 18 19  1  0
 19 20  2  0
 20 21  1  0
 21 22  2  0
 22 23  1  0
 22 24  1  0
 24 25  2  0
 25 26  1  0
 26 27  2  0
 10  7  1  0
 16 11  1  0
 27 17  1  0
 26 20  1  0
  3 28  1  0
  4 29  1  0
  4 30  1  0
  8 31  1  0
  8 32  1  0
  9 33  1  0
  9 34  1  0
 10 35  1  6
 11 36  1  0
 12 37  1  0
 12 38  1  0
 13 39  1  0
 13 40  1  0
 14 41  1  0
 14 42  1  0
 15 43  1  0
 15 44  1  0
 16 45  1  0
 16 46  1  0
 18 47  1  0
 19 48  1  0
 21 49  1  0
 24 50  1  0
 25 51  1  0
M  END
>  <smiles>  (17) 
O=C(NCC(=O)N1CCC1C1CCCCC1)c1ccc2cc(F)ccc2n1

>  <score_type>  (17) 
oracle

>  <origin>  (17) 
autodockgpu

>  <m_score__min__energy>  (17) 
-8.9299999999999997

>  <m_primary>  (17) 
energy

>  <rmsd>  (17) 
8.632835364221252

>  <m_score__min__rmsd>  (17) 
8.632835364221252

>  <meeko>  (17) 
{"free_energy": -8.47, "intermolecular_energy": -9.96, "internal_energy": -1.43, "cluster_size": 21, "cluster_id": 2, "rank_in_cluster": 9}

>  <energy>  (17) 
-8.54

>  <cluster_rmsd>  (17) 
0.6

>  <cluster>  (17) 
1

$$$$

     RDKit          3D

 51 54  0  0  0  0  0  0  0  0999 V2000
  140.8580   71.8570  221.2630 O   0  0  0  0  0  0  0  0  0  0  0  0
  140.3710   72.2940  222.3380 C   0  0  0  0  0  0  0  0  0  0  0  0
  139.9540   73.6780  222.3370 N   0  0  0  0  0  0  0  0  0  0  0  0
  140.1310   74.4070  221.1340 C   0  0  0  0  0  0  0  0  0  0  0  0
  141.4460   74.9720  220.8580 C   0  0  0  0  0  0  0  0  0  0  0  0
  142.4470   74.2420  221.2220 O   0  0  0  0  0  0  0  0  0  0  0  0
  141.7210   76.2200  220.2430 N   0  0  0  0  0  0  0  0  0  0  0  0
  142.6370   76.7960  219.2640 C   0  0  0  0  0  0  0  0  0  0  0  0
  141.8780   78.1040  219.2220 C   0  0  0  0  0  0  0  0  0  0  0  0
  141.1370   77.5390  220.3800 C   0  0  2  0  0  0  0  0  0  0  0  0
  141.4150   78.2980  221.6360 C   0  0  0  0  0  0  0  0  0  0  0  0
  140.3480   78.2310  222.6630 C   0  0  0  0  0  0  0  0  0  0  0  0
  140.6810   79.1960  223.7770 C   0  0  0  0  0  0  0  0  0  0  0  0
  142.1760   79.4250  223.8900 C   0  0  0  0  0  0  0  0  0  0  0  0
  142.5950   80.1980  222.6550 C   0  0  0  0  0  0  0  0  0  0  0  0
  141.8280   79.7320  221.4300 C   0  0  0  0  0  0  0  0  0  0  0  0
  140.2200   71.4870  223.5380 C   0  0  0  0  0  0  0  0  0  0  0  0
  139.5630   70.2820  223.4210 C   0  0  0  0  0  0  0  0  0  0  0  0
  139.3660   69.4400  224.4990 C   0  0  0  0  0  0  0  0  0  0  0  0
  139.8630   69.8610  225.7230 C   0  0  0  0  0  0  0  0  0  0  0  0
  139.6770   69.0350  226.8080 C   0  0  0  0  0  0  0  0  0  0  0  0
  140.1720   69.4480  228.0450 C   0  0  0  0  0  0  0  0  0  0  0  0
  139.9580   68.5930  229.0770 F   0  0  0  0  0  0  0  0  0  0  0  0
  140.8300   70.6480  228.1760 C   0  0  0  0  0  0  0  0  0  0  0  0
  141.0020   71.4610  227.0540 C   0  0  0  0  0  0  0  0  0  0  0  0
  140.5200   71.0780  225.8060 C   0  0  0  0  0  0  0  0  0  0  0  0
  140.6950   71.8770  224.7370 N   0  0  0  0  0  0  0  0  0  0  0  0
  139.5550   74.0110  223.2340 H   0  0  0  0  0  0  0  0  0  0  0  0
  139.8863   73.7292  220.3029 H   0  0  0  0  0  0  0  0  0  0  0  0
  139.4762   75.2835  221.2477 H   0  0  0  0  0  0  0  0  0  0  0  0
  143.6677   76.8984  219.6345 H   0  0  0  0  0  0  0  0  0  0  0  0
  142.8217   76.2558  218.3237 H   0  0  0  0  0  0  0  0  0  0  0  0
  142.4752   79.0022  219.4378 H   0  0  0  0  0  0  0  0  0  0  0  0
  141.3855   78.4901  218.3174 H   0  0  0  0  0  0  0  0  0  0  0  0
  140.0377   77.5612  220.4131 H   0  0  0  0  0  0  0  0  0  0  0  0
  142.2842   77.7496  222.0280 H   0  0  0  0  0  0  0  0  0  0  0  0
  139.3833   78.5062  222.2119 H   0  0  0  0  0  0  0  0  0  0  0  0
  140.2790   77.2087  223.0631 H   0  0  0  0  0  0  0  0  0  0  0  0
  140.1869   80.1579  223.5755 H   0  0  0  0  0  0  0  0  0  0  0  0
  140.3270   78.7629  224.7242 H   0  0  0  0  0  0  0  0  0  0  0  0
  142.4027   80.0065  224.7958 H   0  0  0  0  0  0  0  0  0  0  0  0
  142.7175   78.4701  223.9607 H   0  0  0  0  0  0  0  0  0  0  0  0
  142.3971   81.2679  222.8169 H   0  0  0  0  0  0  0  0  0  0  0  0
  143.6673   80.0241  222.4820 H   0  0  0  0  0  0  0  0  0  0  0  0
  140.9344   80.3585  221.2922 H   0  0  0  0  0  0  0  0  0  0  0  0
  142.4634   79.8145  220.5359 H   0  0  0  0  0  0  0  0  0  0  0  0
  139.1817   69.9792  222.4347 H   0  0  0  0  0  0  0  0  0  0  0  0
  138.8393   68.4803  224.3910 H   0  0  0  0  0  0  0  0  0  0  0  0
  139.1517   68.0743  226.7025 H   0  0  0  0  0  0  0  0  0  0  0  0
  141.2174   70.9647  229.1556 H   0  0  0  0  0  0  0  0  0  0  0  0
  141.5279   72.4215  227.1584 H   0  0  0  0  0  0  0  0  0  0  0  0
  1  2  2  0
  2  3  1  0
  3  4  1  0
  4  5  1  0
  5  6  2  0
  5  7  1  0
  7  8  1  0
  8  9  1  0
  9 10  1  0
 10 11  1  0
 11 12  1  0
 12 13  1  0
 13 14  1  0
 14 15  1  0
 15 16  1  0
  2 17  1  0
 17 18  2  0
 18 19  1  0
 19 20  2  0
 20 21  1  0
 21 22  2  0
 22 23  1  0
 22 24  1  0
 24 25  2  0
 25 26  1  0
 26 27  2  0
 10  7  1  0
 16 11  1  0
 27 17  1  0
 26 20  1  0
  3 28  1  0
  4 29  1  0
  4 30  1  0
  8 31  1  0
  8 32  1  0
  9 33  1  0
  9 34  1  0
 10 35  1  6
 11 36  1  0
 12 37  1  0
 12 38  1  0
 13 39  1  0
 13 40  1  0
 14 41  1  0
 14 42  1  0
 15 43  1  0
 15 44  1  0
 16 45  1  0
 16 46  1  0
 18 47  1  0
 19 48  1  0
 21 49  1  0
 24 50  1  0
 25 51  1  0
M  END
>  <smiles>  (18) 
O=C(NCC(=O)N1CCC1C1CCCCC1)c1ccc2cc(F)ccc2n1

>  <score_type>  (18) 
oracle

>  <origin>  (18) 
autodockgpu

>  <m_score__min__energy>  (18) 
-8.9299999999999997

>  <m_primary>  (18) 
energy

>  <rmsd>  (18) 
2.781057624670831

>  <m_score__min__rmsd>  (18) 
2.781057624670831

>  <meeko>  (18) 
{"free_energy": -8.56, "intermolecular_energy": -10.06, "internal_energy": -1.17, "cluster_size": 22, "cluster_id": 1, "rank_in_cluster": 12}

>  <energy>  (18) 
-8.53

>  <cluster_rmsd>  (18) 
1.14

>  <cluster>  (18) 
1

$$$$

     RDKit          3D

 51 54  0  0  0  0  0  0  0  0999 V2000
  141.3380   72.7870  222.0410 O   0  0  0  0  0  0  0  0  0  0  0  0
  140.2930   72.5960  222.7170 C   0  0  0  0  0  0  0  0  0  0  0  0
  139.1410   73.3900  222.3540 N   0  0  0  0  0  0  0  0  0  0  0  0
  139.2950   74.3010  221.2790 C   0  0  0  0  0  0  0  0  0  0  0  0
  139.8860   75.6040  221.5600 C   0  0  0  0  0  0  0  0  0  0  0  0
  139.3630   76.2440  222.5530 O   0  0  0  0  0  0  0  0  0  0  0  0
  140.9560   76.2190  220.8600 N   0  0  0  0  0  0  0  0  0  0  0  0
  142.2130   75.8550  220.2160 C   0  0  0  0  0  0  0  0  0  0  0  0
  142.3870   77.2360  219.6220 C   0  0  0  0  0  0  0  0  0  0  0  0
  141.2360   77.5920  220.4930 C   0  0  2  0  0  0  0  0  0  0  0  0
  141.6370   78.5360  221.5780 C   0  0  0  0  0  0  0  0  0  0  0  0
  141.4320   78.0360  222.9590 C   0  0  0  0  0  0  0  0  0  0  0  0
  141.6930   79.1630  223.9310 C   0  0  0  0  0  0  0  0  0  0  0  0
  142.6640   80.1780  223.3620 C   0  0  0  0  0  0  0  0  0  0  0  0
  141.9450   80.8860  222.2300 C   0  0  0  0  0  0  0  0  0  0  0  0
  141.0640   79.9230  221.4540 C   0  0  0  0  0  0  0  0  0  0  0  0
  140.2080   71.6420  223.8110 C   0  0  0  0  0  0  0  0  0  0  0  0
  139.5960   70.4330  223.5610 C   0  0  0  0  0  0  0  0  0  0  0  0
  139.4630   69.4590  224.5320 C   0  0  0  0  0  0  0  0  0  0  0  0
  139.9770   69.7470  225.7860 C   0  0  0  0  0  0  0  0  0  0  0  0
  139.8540   68.7880  226.7650 C   0  0  0  0  0  0  0  0  0  0  0  0
  140.3670   69.0670  228.0310 C   0  0  0  0  0  0  0  0  0  0  0  0
  140.2160   68.0840  228.9550 F   0  0  0  0  0  0  0  0  0  0  0  0
  140.9800   70.2690  228.2950 C   0  0  0  0  0  0  0  0  0  0  0  0
  141.0880   71.2200  227.2780 C   0  0  0  0  0  0  0  0  0  0  0  0
  140.5870   70.9720  226.0040 C   0  0  0  0  0  0  0  0  0  0  0  0
  140.7010   71.9030  225.0380 N   0  0  0  0  0  0  0  0  0  0  0  0
  138.2950   73.2110  222.9250 H   0  0  0  0  0  0  0  0  0  0  0  0
  139.9283   73.8114  220.5246 H   0  0  0  0  0  0  0  0  0  0  0  0
  138.2657   74.5301  220.9660 H   0  0  0  0  0  0  0  0  0  0  0  0
  143.0065   75.5796  220.9263 H   0  0  0  0  0  0  0  0  0  0  0  0
  142.2375   74.9803  219.5494 H   0  0  0  0  0  0  0  0  0  0  0  0
  143.3351   77.7376  219.8658 H   0  0  0  0  0  0  0  0  0  0  0  0
  142.4116   77.4317  218.5398 H   0  0  0  0  0  0  0  0  0  0  0  0
  140.3776   78.1529  220.0947 H   0  0  0  0  0  0  0  0  0  0  0  0
  142.7220   78.6026  221.4096 H   0  0  0  0  0  0  0  0  0  0  0  0
  140.3970   77.6817  223.0737 H   0  0  0  0  0  0  0  0  0  0  0  0
  142.1217   77.2030  223.1601 H   0  0  0  0  0  0  0  0  0  0  0  0
  140.7416   79.6669  224.1568 H   0  0  0  0  0  0  0  0  0  0  0  0
  142.1374   78.7353  224.8418 H   0  0  0  0  0  0  0  0  0  0  0  0
  142.9532   80.9018  224.1382 H   0  0  0  0  0  0  0  0  0  0  0  0
  143.5808   79.6882  223.0019 H   0  0  0  0  0  0  0  0  0  0  0  0
  141.3190   81.6880  222.6481 H   0  0  0  0  0  0  0  0  0  0  0  0
  142.6979   81.3008  221.5436 H   0  0  0  0  0  0  0  0  0  0  0  0
  140.0443   79.9403  221.8663 H   0  0  0  0  0  0  0  0  0  0  0  0
  141.0271   80.2195  220.3954 H   0  0  0  0  0  0  0  0  0  0  0  0
  139.1997   70.2365  222.5539 H   0  0  0  0  0  0  0  0  0  0  0  0
  138.9713   68.4984  224.3190 H   0  0  0  0  0  0  0  0  0  0  0  0
  139.3636   67.8262  226.5543 H   0  0  0  0  0  0  0  0  0  0  0  0
  141.3814   70.4795  229.2973 H   0  0  0  0  0  0  0  0  0  0  0  0
  141.5779   72.1822  227.4880 H   0  0  0  0  0  0  0  0  0  0  0  0
  1  2  2  0
  2  3  1  0
  3  4  1  0
  4  5  1  0
  5  6  2  0
  5  7  1  0
  7  8  1  0
  8  9  1  0
  9 10  1  0
 10 11  1  0
 11 12  1  0
 12 13  1  0
 13 14  1  0
 14 15  1  0
 15 16  1  0
  2 17  1  0
 17 18  2  0
 18 19  1  0
 19 20  2  0
 20 21  1  0
 21 22  2  0
 22 23  1  0
 22 24  1  0
 24 25  2  0
 25 26  1  0
 26 27  2  0
 10  7  1  0
 16 11  1  0
 27 17  1  0
 26 20  1  0
  3 28  1  0
  4 29  1  0
  4 30  1  0
  8 31  1  0
  8 32  1  0
  9 33  1  0
  9 34  1  0
 10 35  1  6
 11 36  1  0
 12 37  1  0
 12 38  1  0
 13 39  1  0
 13 40  1  0
 14 41  1  0
 14 42  1  0
 15 43  1  0
 15 44  1  0
 16 45  1  0
 16 46  1  0
 18 47  1  0
 19 48  1  0
 21 49  1  0
 24 50  1  0
 25 51  1  0
M  END
>  <smiles>  (19) 
O=C(NCC(=O)N1CCC1C1CCCCC1)c1ccc2cc(F)ccc2n1

>  <score_type>  (19) 
oracle

>  <origin>  (19) 
autodockgpu

>  <m_score__min__energy>  (19) 
-8.9299999999999997

>  <m_primary>  (19) 
energy

>  <rmsd>  (19) 
2.7393954698071954

>  <m_score__min__rmsd>  (19) 
2.7393954698071954

>  <meeko>  (19) 
{"free_energy": -8.87, "intermolecular_energy": -10.36, "internal_energy": -1.09, "cluster_size": 22, "cluster_id": 1, "rank_in_cluster": 3}

>  <energy>  (19) 
-8.49

>  <cluster_rmsd>  (19) 
0.41

>  <cluster>  (19) 
1

$$$$

     RDKit          3D

 51 54  0  0  0  0  0  0  0  0999 V2000
  140.7430   73.9200  220.5630 O   0  0  0  0  0  0  0  0  0  0  0  0
  140.2960   74.7190  221.4280 C   0  0  0  0  0  0  0  0  0  0  0  0
  139.3090   74.1890  222.3410 N   0  0  0  0  0  0  0  0  0  0  0  0
  138.9400   72.8300  222.1780 C   0  0  0  0  0  0  0  0  0  0  0  0
  139.7740   71.8100  222.8040 C   0  0  0  0  0  0  0  0  0  0  0  0
  141.0460   71.9590  222.6320 O   0  0  0  0  0  0  0  0  0  0  0  0
  139.3290   70.6990  223.5640 N   0  0  0  0  0  0  0  0  0  0  0  0
  138.1300   69.8900  223.7460 C   0  0  0  0  0  0  0  0  0  0  0  0
  138.8600   68.8750  224.5990 C   0  0  0  0  0  0  0  0  0  0  0  0
  139.9670   69.8670  224.5630 C   0  0  2  0  0  0  0  0  0  0  0  0
  140.2180   70.4620  225.9100 C   0  0  0  0  0  0  0  0  0  0  0  0
  141.0830   71.6670  225.9160 C   0  0  0  0  0  0  0  0  0  0  0  0
  141.4030   72.0300  227.3480 C   0  0  0  0  0  0  0  0  0  0  0  0
  140.3190   71.5630  228.2990 C   0  0  0  0  0  0  0  0  0  0  0  0
  140.3840   70.0480  228.3270 C   0  0  0  0  0  0  0  0  0  0  0  0
  140.7020   69.4880  226.9510 C   0  0  0  0  0  0  0  0  0  0  0  0
  140.7220   76.1050  221.5360 C   0  0  0  0  0  0  0  0  0  0  0  0
  141.5200   76.6100  220.5320 C   0  0  0  0  0  0  0  0  0  0  0  0
  141.9790   77.9140  220.5390 C   0  0  0  0  0  0  0  0  0  0  0  0
  141.6010   78.7060  221.6110 C   0  0  0  0  0  0  0  0  0  0  0  0
  142.0490   80.0080  221.6350 C   0  0  0  0  0  0  0  0  0  0  0  0
  141.6750   80.8150  222.7090 C   0  0  0  0  0  0  0  0  0  0  0  0
  142.1470   82.0870  222.6780 F   0  0  0  0  0  0  0  0  0  0  0  0
  140.8800   80.3240  223.7170 C   0  0  0  0  0  0  0  0  0  0  0  0
  140.4430   78.9990  223.6610 C   0  0  0  0  0  0  0  0  0  0  0  0
  140.7980   78.1680  222.6040 C   0  0  0  0  0  0  0  0  0  0  0  0
  140.3670   76.8930  222.5690 N   0  0  0  0  0  0  0  0  0  0  0  0
  138.9610   74.8670  223.0430 H   0  0  0  0  0  0  0  0  0  0  0  0
  137.9246   72.7165  222.5855 H   0  0  0  0  0  0  0  0  0  0  0  0
  139.0474   72.6457  221.0989 H   0  0  0  0  0  0  0  0  0  0  0  0
  137.3242   70.4141  224.2809 H   0  0  0  0  0  0  0  0  0  0  0  0
  137.5807   69.5437  222.8581 H   0  0  0  0  0  0  0  0  0  0  0  0
  138.4230   68.6921  225.5918 H   0  0  0  0  0  0  0  0  0  0  0  0
  138.9817   67.8192  224.3154 H   0  0  0  0  0  0  0  0  0  0  0  0
  140.9953   69.5579  224.3243 H   0  0  0  0  0  0  0  0  0  0  0  0
  139.2047   70.7824  226.1937 H   0  0  0  0  0  0  0  0  0  0  0  0
  142.0149   71.4558  225.3711 H   0  0  0  0  0  0  0  0  0  0  0  0
  140.5625   72.5030  225.4260 H   0  0  0  0  0  0  0  0  0  0  0  0
  142.3546   71.5569  227.6318 H   0  0  0  0  0  0  0  0  0  0  0  0
  141.4721   73.1256  227.4174 H   0  0  0  0  0  0  0  0  0  0  0  0
  140.4980   71.9684  229.3058 H   0  0  0  0  0  0  0  0  0  0  0  0
  139.3284   71.9097  227.9695 H   0  0  0  0  0  0  0  0  0  0  0  0
  141.1682   69.7352  229.0321 H   0  0  0  0  0  0  0  0  0  0  0  0
  139.4034   69.6623  228.6428 H   0  0  0  0  0  0  0  0  0  0  0  0
  141.7884   69.3480  226.8503 H   0  0  0  0  0  0  0  0  0  0  0  0
  140.2027   68.5171  226.8169 H   0  0  0  0  0  0  0  0  0  0  0  0
  141.8014   75.9526  219.6962 H   0  0  0  0  0  0  0  0  0  0  0  0
  142.6149   78.3046  219.7309 H   0  0  0  0  0  0  0  0  0  0  0  0
  142.6851   80.4011  220.8282 H   0  0  0  0  0  0  0  0  0  0  0  0
  140.5907   80.9688  224.5599 H   0  0  0  0  0  0  0  0  0  0  0  0
  139.8066   78.6055  224.4673 H   0  0  0  0  0  0  0  0  0  0  0  0
  1  2  2  0
  2  3  1  0
  3  4  1  0
  4  5  1  0
  5  6  2  0
  5  7  1  0
  7  8  1  0
  8  9  1  0
  9 10  1  0
 10 11  1  0
 11 12  1  0
 12 13  1  0
 13 14  1  0
 14 15  1  0
 15 16  1  0
  2 17  1  0
 17 18  2  0
 18 19  1  0
 19 20  2  0
 20 21  1  0
 21 22  2  0
 22 23  1  0
 22 24  1  0
 24 25  2  0
 25 26  1  0
 26 27  2  0
 10  7  1  0
 16 11  1  0
 27 17  1  0
 26 20  1  0
  3 28  1  0
  4 29  1  0
  4 30  1  0
  8 31  1  0
  8 32  1  0
  9 33  1  0
  9 34  1  0
 10 35  1  6
 11 36  1  0
 12 37  1  0
 12 38  1  0
 13 39  1  0
 13 40  1  0
 14 41  1  0
 14 42  1  0
 15 43  1  0
 15 44  1  0
 16 45  1  0
 16 46  1  0
 18 47  1  0
 19 48  1  0
 21 49  1  0
 24 50  1  0
 25 51  1  0
M  END
>  <smiles>  (20) 
O=C(NCC(=O)N1CCC1C1CCCCC1)c1ccc2cc(F)ccc2n1

>  <score_type>  (20) 
oracle

>  <origin>  (20) 
autodockgpu

>  <m_score__min__energy>  (20) 
-8.9299999999999997

>  <m_primary>  (20) 
energy

>  <rmsd>  (20) 
8.62950912009605

>  <m_score__min__rmsd>  (20) 
8.62950912009605

>  <meeko>  (20) 
{"free_energy": -8.62, "intermolecular_energy": -10.12, "internal_energy": -1.39, "cluster_size": 21, "cluster_id": 2, "rank_in_cluster": 8}

>  <energy>  (20) 
-8.22

>  <cluster_rmsd>  (20) 
1.34

>  <cluster>  (20) 
1

$$$$

     RDKit          3D

 51 54  0  0  0  0  0  0  0  0999 V2000
  140.7880   72.8290  220.7910 O   0  0  0  0  0  0  0  0  0  0  0  0
  140.1880   73.7280  221.4380 C   0  0  0  0  0  0  0  0  0  0  0  0
  139.0430   73.3050  222.2120 N   0  0  0  0  0  0  0  0  0  0  0  0
  138.7060   71.9290  222.1710 C   0  0  0  0  0  0  0  0  0  0  0  0
  138.0550   71.3450  223.3380 C   0  0  0  0  0  0  0  0  0  0  0  0
  137.0290   71.9950  223.7790 O   0  0  0  0  0  0  0  0  0  0  0  0
  138.4350   70.1600  224.0170 N   0  0  0  0  0  0  0  0  0  0  0  0
  137.8590   68.8840  224.4260 C   0  0  0  0  0  0  0  0  0  0  0  0
  139.2040   68.3350  224.8530 C   0  0  0  0  0  0  0  0  0  0  0  0
  139.6720   69.7300  224.6370 C   0  0  2  0  0  0  0  0  0  0  0  0
  140.0730   70.3810  225.9200 C   0  0  0  0  0  0  0  0  0  0  0  0
  140.9810   71.5460  225.7790 C   0  0  0  0  0  0  0  0  0  0  0  0
  141.4490   71.9670  227.1530 C   0  0  0  0  0  0  0  0  0  0  0  0
  140.4430   71.5970  228.2250 C   0  0  0  0  0  0  0  0  0  0  0  0
  140.4510   70.0850  228.3300 C   0  0  0  0  0  0  0  0  0  0  0  0
  140.6150   69.4420  226.9640 C   0  0  0  0  0  0  0  0  0  0  0  0
  140.5920   75.1250  221.4320 C   0  0  0  0  0  0  0  0  0  0  0  0
  141.5450   75.5130  220.5160 C   0  0  0  0  0  0  0  0  0  0  0  0
  141.9970   76.8160  220.4290 C   0  0  0  0  0  0  0  0  0  0  0  0
  141.4490   77.7320  221.3110 C   0  0  0  0  0  0  0  0  0  0  0  0
  141.8870   79.0350  221.2390 C   0  0  0  0  0  0  0  0  0  0  0  0
  141.3420   79.9650  222.1220 C   0  0  0  0  0  0  0  0  0  0  0  0
  141.8130   81.2330  222.0030 F   0  0  0  0  0  0  0  0  0  0  0  0
  140.3900   79.5920  223.0410 C   0  0  0  0  0  0  0  0  0  0  0  0
  139.9670   78.2620  223.0870 C   0  0  0  0  0  0  0  0  0  0  0  0
  140.4910   77.3090  222.2200 C   0  0  0  0  0  0  0  0  0  0  0  0
  140.0710   76.0320  222.2810 N   0  0  0  0  0  0  0  0  0  0  0  0
  138.5710   74.0650  222.7360 H   0  0  0  0  0  0  0  0  0  0  0  0
  138.0317   71.7835  221.3142 H   0  0  0  0  0  0  0  0  0  0  0  0
  139.6752   71.4121  222.1118 H   0  0  0  0  0  0  0  0  0  0  0  0
  137.1388   68.9726  225.2527 H   0  0  0  0  0  0  0  0  0  0  0  0
  137.2558   68.3150  223.7032 H   0  0  0  0  0  0  0  0  0  0  0  0
  139.2581   67.9751  225.8910 H   0  0  0  0  0  0  0  0  0  0  0  0
  139.6766   67.4576  224.3875 H   0  0  0  0  0  0  0  0  0  0  0  0
  140.5816   69.9376  224.0544 H   0  0  0  0  0  0  0  0  0  0  0  0
  139.1042   70.7591  226.2786 H   0  0  0  0  0  0  0  0  0  0  0  0
  141.8481   71.2666  225.1625 H   0  0  0  0  0  0  0  0  0  0  0  0
  140.4495   72.3779  225.2937 H   0  0  0  0  0  0  0  0  0  0  0  0
  142.4042   71.4678  227.3728 H   0  0  0  0  0  0  0  0  0  0  0  0
  141.5665   73.0607  227.1554 H   0  0  0  0  0  0  0  0  0  0  0  0
  140.7327   72.0449  229.1870 H   0  0  0  0  0  0  0  0  0  0  0  0
  139.4398   71.9696  227.9704 H   0  0  0  0  0  0  0  0  0  0  0  0
  141.2856   69.7743  228.9757 H   0  0  0  0  0  0  0  0  0  0  0  0
  139.4903   69.7597  228.7558 H   0  0  0  0  0  0  0  0  0  0  0  0
  141.6807   69.2495  226.7711 H   0  0  0  0  0  0  0  0  0  0  0  0
  140.0676   68.4885  226.9306 H   0  0  0  0  0  0  0  0  0  0  0  0
  141.9604   74.7598  219.8303 H   0  0  0  0  0  0  0  0  0  0  0  0
  142.7580   77.1122  219.6921 H   0  0  0  0  0  0  0  0  0  0  0  0
  142.6478   79.3344  220.5032 H   0  0  0  0  0  0  0  0  0  0  0  0
  139.9656   80.3340  223.7333 H   0  0  0  0  0  0  0  0  0  0  0  0
  139.2056   77.9626  223.8223 H   0  0  0  0  0  0  0  0  0  0  0  0
  1  2  2  0
  2  3  1  0
  3  4  1  0
  4  5  1  0
  5  6  2  0
  5  7  1  0
  7  8  1  0
  8  9  1  0
  9 10  1  0
 10 11  1  0
 11 12  1  0
 12 13  1  0
 13 14  1  0
 14 15  1  0
 15 16  1  0
  2 17  1  0
 17 18  2  0
 18 19  1  0
 19 20  2  0
 20 21  1  0
 21 22  2  0
 22 23  1  0
 22 24  1  0
 24 25  2  0
 25 26  1  0
 26 27  2  0
 10  7  1  0
 16 11  1  0
 27 17  1  0
 26 20  1  0
  3 28  1  0
  4 29  1  0
  4 30  1  0
  8 31  1  0
  8 32  1  0
  9 33  1  0
  9 34  1  0
 10 35  1  6
 11 36  1  0
 12 37  1  0
 12 38  1  0
 13 39  1  0
 13 40  1  0
 14 41  1  0
 14 42  1  0
 15 43  1  0
 15 44  1  0
 16 45  1  0
 16 46  1  0
 18 47  1  0
 19 48  1  0
 21 49  1  0
 24 50  1  0
 25 51  1  0
M  END
>  <smiles>  (21) 
O=C(NCC(=O)N1CCC1C1CCCCC1)c1ccc2cc(F)ccc2n1

>  <score_type>  (21) 
oracle

>  <origin>  (21) 
autodockgpu

>  <m_score__min__energy>  (21) 
-8.9299999999999997

>  <m_primary>  (21) 
energy

>  <rmsd>  (21) 
8.452504233608936

>  <m_score__min__rmsd>  (21) 
8.452504233608936

>  <meeko>  (21) 
{"free_energy": -8.11, "intermolecular_energy": -9.6, "internal_energy": -1.52, "cluster_size": 21, "cluster_id": 2, "rank_in_cluster": 20}

>  <energy>  (21) 
-8.17

>  <cluster_rmsd>  (21) 
0.69

>  <cluster>  (21) 
1

$$$$

     RDKit          3D

 51 54  0  0  0  0  0  0  0  0999 V2000
  141.3690   72.8100  222.1110 O   0  0  0  0  0  0  0  0  0  0  0  0
  140.3160   72.5810  222.7630 C   0  0  0  0  0  0  0  0  0  0  0  0
  139.1480   73.3400  222.3800 N   0  0  0  0  0  0  0  0  0  0  0  0
  139.2950   74.2630  221.3140 C   0  0  0  0  0  0  0  0  0  0  0  0
  139.7820   75.6020  221.6250 C   0  0  0  0  0  0  0  0  0  0  0  0
  139.2110   76.1760  222.6310 O   0  0  0  0  0  0  0  0  0  0  0  0
  140.7990   76.3140  220.9400 N   0  0  0  0  0  0  0  0  0  0  0  0
  142.0530   76.0580  220.2410 C   0  0  0  0  0  0  0  0  0  0  0  0
  142.1430   77.4820  219.7360 C   0  0  0  0  0  0  0  0  0  0  0  0
  141.0020   77.7210  220.6590 C   0  0  2  0  0  0  0  0  0  0  0  0
  141.3880   78.6110  221.7940 C   0  0  0  0  0  0  0  0  0  0  0  0
  140.3640   78.7600  222.8560 C   0  0  0  0  0  0  0  0  0  0  0  0
  140.8150   79.8320  223.8220 C   0  0  0  0  0  0  0  0  0  0  0  0
  142.3250   79.9560  223.8540 C   0  0  0  0  0  0  0  0  0  0  0  0
  142.7470   80.5280  222.5150 C   0  0  0  0  0  0  0  0  0  0  0  0
  141.8960   79.9700  221.3880 C   0  0  0  0  0  0  0  0  0  0  0  0
  140.2390   71.6180  223.8500 C   0  0  0  0  0  0  0  0  0  0  0  0
  139.6700   70.3920  223.5790 C   0  0  0  0  0  0  0  0  0  0  0  0
  139.5480   69.4070  224.5410 C   0  0  0  0  0  0  0  0  0  0  0  0
  140.0250   69.7030  225.8070 C   0  0  0  0  0  0  0  0  0  0  0  0
  139.9120   68.7340  226.7780 C   0  0  0  0  0  0  0  0  0  0  0  0
  140.3900   69.0200  228.0560 C   0  0  0  0  0  0  0  0  0  0  0  0
  140.2510   68.0270  228.9700 F   0  0  0  0  0  0  0  0  0  0  0  0
  140.9590   70.2390  228.3400 C   0  0  0  0  0  0  0  0  0  0  0  0
  141.0590   71.1990  227.3310 C   0  0  0  0  0  0  0  0  0  0  0  0
  140.5920   70.9450  226.0450 C   0  0  0  0  0  0  0  0  0  0  0  0
  140.6970   71.8850  225.0880 N   0  0  0  0  0  0  0  0  0  0  0  0
  138.2950   73.1300  222.9310 H   0  0  0  0  0  0  0  0  0  0  0  0
  139.9975   73.8196  220.5930 H   0  0  0  0  0  0  0  0  0  0  0  0
  138.2699   74.4235  220.9486 H   0  0  0  0  0  0  0  0  0  0  0  0
  142.8791   75.7771  220.9108 H   0  0  0  0  0  0  0  0  0  0  0  0
  142.1004   75.2315  219.5167 H   0  0  0  0  0  0  0  0  0  0  0  0
  143.0725   78.0136  219.9880 H   0  0  0  0  0  0  0  0  0  0  0  0
  142.1267   77.7496  218.6692 H   0  0  0  0  0  0  0  0  0  0  0  0
  140.1060   78.2628  220.3218 H   0  0  0  0  0  0  0  0  0  0  0  0
  142.2308   78.0512  222.2257 H   0  0  0  0  0  0  0  0  0  0  0  0
  139.4033   79.0494  222.4050 H   0  0  0  0  0  0  0  0  0  0  0  0
  140.2375   77.8062  223.3892 H   0  0  0  0  0  0  0  0  0  0  0  0
  140.3844   80.7956  223.5121 H   0  0  0  0  0  0  0  0  0  0  0  0
  140.4717   79.5534  224.8292 H   0  0  0  0  0  0  0  0  0  0  0  0
  142.6323   80.6299  224.6673 H   0  0  0  0  0  0  0  0  0  0  0  0
  142.7972   78.9785  224.0316 H   0  0  0  0  0  0  0  0  0  0  0  0
  142.6359   81.6221  222.5409 H   0  0  0  0  0  0  0  0  0  0  0  0
  143.7952   80.2494  222.3314 H   0  0  0  0  0  0  0  0  0  0  0  0
  141.0457   80.6417  221.1987 H   0  0  0  0  0  0  0  0  0  0  0  0
  142.4968   79.8869  220.4703 H   0  0  0  0  0  0  0  0  0  0  0  0
  139.3005   70.1907  222.5626 H   0  0  0  0  0  0  0  0  0  0  0  0
  139.0927   68.4323  224.3114 H   0  0  0  0  0  0  0  0  0  0  0  0
  139.4562   67.7589  226.5514 H   0  0  0  0  0  0  0  0  0  0  0  0
  141.3317   70.4558  229.3520 H   0  0  0  0  0  0  0  0  0  0  0  0
  141.5154   72.1740  227.5568 H   0  0  0  0  0  0  0  0  0  0  0  0
  1  2  2  0
  2  3  1  0
  3  4  1  0
  4  5  1  0
  5  6  2  0
  5  7  1  0
  7  8  1  0
  8  9  1  0
  9 10  1  0
 10 11  1  0
 11 12  1  0
 12 13  1  0
 13 14  1  0
 14 15  1  0
 15 16  1  0
  2 17  1  0
 17 18  2  0
 18 19  1  0
 19 20  2  0
 20 21  1  0
 21 22  2  0
 22 23  1  0
 22 24  1  0
 24 25  2  0
 25 26  1  0
 26 27  2  0
 10  7  1  0
 16 11  1  0
 27 17  1  0
 26 20  1  0
  3 28  1  0
  4 29  1  0
  4 30  1  0
  8 31  1  0
  8 32  1  0
  9 33  1  0
  9 34  1  0
 10 35  1  6
 11 36  1  0
 12 37  1  0
 12 38  1  0
 13 39  1  0
 13 40  1  0
 14 41  1  0
 14 42  1  0
 15 43  1  0
 15 44  1  0
 16 45  1  0
 16 46  1  0
 18 47  1  0
 19 48  1  0
 21 49  1  0
 24 50  1  0
 25 51  1  0
M  END
>  <smiles>  (22) 
O=C(NCC(=O)N1CCC1C1CCCCC1)c1ccc2cc(F)ccc2n1

>  <score_type>  (22) 
oracle

>  <origin>  (22) 
autodockgpu

>  <m_score__min__energy>  (22) 
-8.9299999999999997

>  <m_primary>  (22) 
energy

>  <rmsd>  (22) 
2.7762853559050154

>  <m_score__min__rmsd>  (22) 
2.7762853559050154

>  <meeko>  (22) 
{"free_energy": -8.75, "intermolecular_energy": -10.24, "internal_energy": -1.12, "cluster_size": 22, "cluster_id": 1, "rank_in_cluster": 8}

>  <energy>  (22) 
-8.05

>  <cluster_rmsd>  (22) 
0.89

>  <cluster>  (22) 
1

$$$$

     RDKit          3D

 51 54  0  0  0  0  0  0  0  0999 V2000
  140.8120   71.9630  221.1540 O   0  0  0  0  0  0  0  0  0  0  0  0
  140.3510   72.3740  222.2510 C   0  0  0  0  0  0  0  0  0  0  0  0
  139.9470   73.7610  222.2970 N   0  0  0  0  0  0  0  0  0  0  0  0
  140.1050   74.5210  221.1110 C   0  0  0  0  0  0  0  0  0  0  0  0
  141.4270   75.0560  220.8080 C   0  0  0  0  0  0  0  0  0  0  0  0
  142.4190   74.3400  221.2210 O   0  0  0  0  0  0  0  0  0  0  0  0
  141.7170   76.2610  220.1170 N   0  0  0  0  0  0  0  0  0  0  0  0
  142.5950   76.7490  219.0600 C   0  0  0  0  0  0  0  0  0  0  0  0
  141.8920   78.0870  218.9990 C   0  0  0  0  0  0  0  0  0  0  0  0
  141.1990   77.6100  220.2250 C   0  0  2  0  0  0  0  0  0  0  0  0
  141.5850   78.4120  221.4240 C   0  0  0  0  0  0  0  0  0  0  0  0
  141.0460   77.9170  222.7140 C   0  0  0  0  0  0  0  0  0  0  0  0
  141.3530   78.9320  223.7920 C   0  0  0  0  0  0  0  0  0  0  0  0
  142.5900   79.7420  223.4610 C   0  0  0  0  0  0  0  0  0  0  0  0
  142.2350   80.6220  222.2790 C   0  0  0  0  0  0  0  0  0  0  0  0
  141.3290   79.8910  221.3040 C   0  0  0  0  0  0  0  0  0  0  0  0
  140.2180   71.5340  223.4310 C   0  0  0  0  0  0  0  0  0  0  0  0
  139.5670   70.3280  223.2890 C   0  0  0  0  0  0  0  0  0  0  0  0
  139.3870   69.4580  224.3470 C   0  0  0  0  0  0  0  0  0  0  0  0
  139.8940   69.8490  225.5750 C   0  0  0  0  0  0  0  0  0  0  0  0
  139.7240   68.9950  226.6410 C   0  0  0  0  0  0  0  0  0  0  0  0
  140.2290   69.3780  227.8820 C   0  0  0  0  0  0  0  0  0  0  0  0
  140.0320   68.4960  228.8940 F   0  0  0  0  0  0  0  0  0  0  0  0
  140.8810   70.5790  228.0390 C   0  0  0  0  0  0  0  0  0  0  0  0
  141.0360   71.4220  226.9370 C   0  0  0  0  0  0  0  0  0  0  0  0
  140.5440   71.0690  225.6840 C   0  0  0  0  0  0  0  0  0  0  0  0
  140.7030   71.8960  224.6350 N   0  0  0  0  0  0  0  0  0  0  0  0
  139.5690   74.0720  223.2110 H   0  0  0  0  0  0  0  0  0  0  0  0
  139.8129   73.8764  220.2689 H   0  0  0  0  0  0  0  0  0  0  0  0
  139.4802   75.4119  221.2722 H   0  0  0  0  0  0  0  0  0  0  0  0
  143.6497   76.8210  219.3640 H   0  0  0  0  0  0  0  0  0  0  0  0
  142.6987   76.1585  218.1378 H   0  0  0  0  0  0  0  0  0  0  0  0
  142.5393   78.9659  219.1355 H   0  0  0  0  0  0  0  0  0  0  0  0
  141.3625   78.4534  218.1071 H   0  0  0  0  0  0  0  0  0  0  0  0
  140.1058   77.6838  220.3221 H   0  0  0  0  0  0  0  0  0  0  0  0
  142.6741   78.2588  221.4417 H   0  0  0  0  0  0  0  0  0  0  0  0
  139.9574   77.7821  222.6324 H   0  0  0  0  0  0  0  0  0  0  0  0
  141.5090   76.9517  222.9668 H   0  0  0  0  0  0  0  0  0  0  0  0
  140.4963   79.6145  223.8938 H   0  0  0  0  0  0  0  0  0  0  0  0
  141.5382   78.3903  224.7313 H   0  0  0  0  0  0  0  0  0  0  0  0
  142.8776   80.3629  224.3223 H   0  0  0  0  0  0  0  0  0  0  0  0
  143.4394   79.0850  223.2224 H   0  0  0  0  0  0  0  0  0  0  0  0
  141.7181   81.5218  222.6438 H   0  0  0  0  0  0  0  0  0  0  0  0
  143.1634   80.8941  221.7555 H   0  0  0  0  0  0  0  0  0  0  0  0
  140.2771   80.1054  221.5441 H   0  0  0  0  0  0  0  0  0  0  0  0
  141.5362   80.2253  220.2767 H   0  0  0  0  0  0  0  0  0  0  0  0
  139.1772   70.0483  222.2992 H   0  0  0  0  0  0  0  0  0  0  0  0
  138.8647   68.4983  224.2198 H   0  0  0  0  0  0  0  0  0  0  0  0
  139.2027   68.0344  226.5164 H   0  0  0  0  0  0  0  0  0  0  0  0
  141.2762   70.8722  229.0228 H   0  0  0  0  0  0  0  0  0  0  0  0
  141.5566   72.3830  227.0614 H   0  0  0  0  0  0  0  0  0  0  0  0
  1  2  2  0
  2  3  1  0
  3  4  1  0
  4  5  1  0
  5  6  2  0
  5  7  1  0
  7  8  1  0
  8  9  1  0
  9 10  1  0
 10 11  1  0
 11 12  1  0
 12 13  1  0
 13 14  1  0
 14 15  1  0
 15 16  1  0
  2 17  1  0
 17 18  2  0
 18 19  1  0
 19 20  2  0
 20 21  1  0
 21 22  2  0
 22 23  1  0
 22 24  1  0
 24 25  2  0
 25 26  1  0
 26 27  2  0
 10  7  1  0
 16 11  1  0
 27 17  1  0
 26 20  1  0
  3 28  1  0
  4 29  1  0
  4 30  1  0
  8 31  1  0
  8 32  1  0
  9 33  1  0
  9 34  1  0
 10 35  1  6
 11 36  1  0
 12 37  1  0
 12 38  1  0
 13 39  1  0
 13 40  1  0
 14 41  1  0
 14 42  1  0
 15 43  1  0
 15 44  1  0
 16 45  1  0
 16 46  1  0
 18 47  1  0
 19 48  1  0
 21 49  1  0
 24 50  1  0
 25 51  1  0
M  END
>  <smiles>  (23) 
O=C(NCC(=O)N1CCC1C1CCCCC1)c1ccc2cc(F)ccc2n1

>  <score_type>  (23) 
oracle

>  <origin>  (23) 
autodockgpu

>  <m_score__min__energy>  (23) 
-8.9299999999999997

>  <m_primary>  (23) 
energy

>  <rmsd>  (23) 
2.7516824344866215

>  <m_score__min__rmsd>  (23) 
2.7516824344866215

>  <meeko>  (23) 
{"free_energy": -8.55, "intermolecular_energy": -10.04, "internal_energy": -1.19, "cluster_size": 22, "cluster_id": 1, "rank_in_cluster": 14}

>  <energy>  (23) 
-8.74

>  <cluster_rmsd>  (23) 
0.0

>  <cluster>  (23) 
2

$$$$

     RDKit          3D

 51 54  0  0  0  0  0  0  0  0999 V2000
  135.8680   70.2120  223.5870 O   0  0  0  0  0  0  0  0  0  0  0  0
  136.0190   71.4150  223.9290 C   0  0  0  0  0  0  0  0  0  0  0  0
  137.1820   72.0900  223.4010 N   0  0  0  0  0  0  0  0  0  0  0  0
  138.0370   71.3420  222.5540 C   0  0  0  0  0  0  0  0  0  0  0  0
  139.1590   70.6350  223.1590 C   0  0  0  0  0  0  0  0  0  0  0  0
  140.3210   70.9310  222.6790 O   0  0  0  0  0  0  0  0  0  0  0  0
  139.0940   69.6760  224.2010 N   0  0  0  0  0  0  0  0  0  0  0  0
  138.1360   68.7550  224.8020 C   0  0  0  0  0  0  0  0  0  0  0  0
  139.2000   68.0930  225.6510 C   0  0  0  0  0  0  0  0  0  0  0  0
  140.0600   69.2080  225.1750 C   0  0  2  0  0  0  0  0  0  0  0  0
  140.4320   70.1310  226.2880 C   0  0  0  0  0  0  0  0  0  0  0  0
  139.5920   70.0220  227.5060 C   0  0  0  0  0  0  0  0  0  0  0  0
  139.9590   71.1410  228.4530 C   0  0  0  0  0  0  0  0  0  0  0  0
  141.3920   71.5940  228.2550 C   0  0  0  0  0  0  0  0  0  0  0  0
  141.4520   72.2810  226.9040 C   0  0  0  0  0  0  0  0  0  0  0  0
  140.5630   71.5780  225.8930 C   0  0  0  0  0  0  0  0  0  0  0  0
  135.0980   72.1210  224.8060 C   0  0  0  0  0  0  0  0  0  0  0  0
  134.1570   71.3740  225.4810 C   0  0  0  0  0  0  0  0  0  0  0  0
  133.2360   71.9480  226.3380 C   0  0  0  0  0  0  0  0  0  0  0  0
  133.2950   73.3230  226.4940 C   0  0  0  0  0  0  0  0  0  0  0  0
  132.3860   73.9120  227.3440 C   0  0  0  0  0  0  0  0  0  0  0  0
  132.4370   75.2950  227.5090 C   0  0  0  0  0  0  0  0  0  0  0  0
  131.5160   75.8180  228.3580 F   0  0  0  0  0  0  0  0  0  0  0  0
  133.3710   76.0520  226.8420 C   0  0  0  0  0  0  0  0  0  0  0  0
  134.2780   75.4230  225.9880 C   0  0  0  0  0  0  0  0  0  0  0  0
  134.2550   74.0440  225.8010 C   0  0  0  0  0  0  0  0  0  0  0  0
  135.1390   73.4570  224.9730 N   0  0  0  0  0  0  0  0  0  0  0  0
  137.2800   73.0790  223.6970 H   0  0  0  0  0  0  0  0  0  0  0  0
  137.4155   70.5915  222.0437 H   0  0  0  0  0  0  0  0  0  0  0  0
  138.5074   72.0965  221.9064 H   0  0  0  0  0  0  0  0  0  0  0  0
  137.3545   69.2574  225.3910 H   0  0  0  0  0  0  0  0  0  0  0  0
  137.5128   68.1303  224.1453 H   0  0  0  0  0  0  0  0  0  0  0  0
  138.9998   68.0810  226.7326 H   0  0  0  0  0  0  0  0  0  0  0  0
  139.4762   67.0322  225.5589 H   0  0  0  0  0  0  0  0  0  0  0  0
  141.0671   69.0149  224.7769 H   0  0  0  0  0  0  0  0  0  0  0  0
  141.4351   69.7600  226.5453 H   0  0  0  0  0  0  0  0  0  0  0  0
  138.5300   70.1038  227.2311 H   0  0  0  0  0  0  0  0  0  0  0  0
  139.7631   69.0501  227.9920 H   0  0  0  0  0  0  0  0  0  0  0  0
  139.2874   71.9938  228.2748 H   0  0  0  0  0  0  0  0  0  0  0  0
  139.8560   70.7674  229.4825 H   0  0  0  0  0  0  0  0  0  0  0  0
  141.6802   72.2970  229.0504 H   0  0  0  0  0  0  0  0  0  0  0  0
  142.0847   70.7405  228.2948 H   0  0  0  0  0  0  0  0  0  0  0  0
  141.1156   73.3224  227.0153 H   0  0  0  0  0  0  0  0  0  0  0  0
  142.4896   72.2465  226.5404 H   0  0  0  0  0  0  0  0  0  0  0  0
  139.5695   72.0501  225.8825 H   0  0  0  0  0  0  0  0  0  0  0  0
  141.0056   71.6535  224.8888 H   0  0  0  0  0  0  0  0  0  0  0  0
  134.1379   70.2842  225.3331 H   0  0  0  0  0  0  0  0  0  0  0  0
  132.4904   71.3402  226.8716 H   0  0  0  0  0  0  0  0  0  0  0  0
  131.6391   73.3069  227.8788 H   0  0  0  0  0  0  0  0  0  0  0  0
  133.4030   77.1428  226.9801 H   0  0  0  0  0  0  0  0  0  0  0  0
  135.0247   76.0281  225.4529 H   0  0  0  0  0  0  0  0  0  0  0  0
  1  2  2  0
  2  3  1  0
  3  4  1  0
  4  5  1  0
  5  6  2  0
  5  7  1  0
  7  8  1  0
  8  9  1  0
  9 10  1  0
 10 11  1  0
 11 12  1  0
 12 13  1  0
 13 14  1  0
 14 15  1  0
 15 16  1  0
  2 17  1  0
 17 18  2  0
 18 19  1  0
 19 20  2  0
 20 21  1  0
 21 22  2  0
 22 23  1  0
 22 24  1  0
 24 25  2  0
 25 26  1  0
 26 27  2  0
 10  7  1  0
 16 11  1  0
 27 17  1  0
 26 20  1  0
  3 28  1  0
  4 29  1  0
  4 30  1  0
  8 31  1  0
  8 32  1  0
  9 33  1  0
  9 34  1  0
 10 35  1  6
 11 36  1  0
 12 37  1  0
 12 38  1  0
 13 39  1  0
 13 40  1  0
 14 41  1  0
 14 42  1  0
 15 43  1  0
 15 44  1  0
 16 45  1  0
 16 46  1  0
 18 47  1  0
 19 48  1  0
 21 49  1  0
 24 50  1  0
 25 51  1  0
M  END
>  <smiles>  (24) 
O=C(NCC(=O)N1CCC1C1CCCCC1)c1ccc2cc(F)ccc2n1

>  <score_type>  (24) 
oracle

>  <origin>  (24) 
autodockgpu

>  <m_score__min__energy>  (24) 
-8.9299999999999997

>  <m_primary>  (24) 
energy

>  <rmsd>  (24) 
8.042097826626447

>  <m_score__min__rmsd>  (24) 
8.042097826626447

>  <meeko>  (24) 
{"free_energy": -7.51, "intermolecular_energy": -9.0, "internal_energy": -1.69, "cluster_size": 2, "cluster_id": 4, "rank_in_cluster": 2}

>  <energy>  (24) 
-8.71

>  <cluster_rmsd>  (24) 
0.25

>  <cluster>  (24) 
2

$$$$

     RDKit          3D

 51 54  0  0  0  0  0  0  0  0999 V2000
  140.8230   72.4230  221.0850 O   0  0  0  0  0  0  0  0  0  0  0  0
  140.2850   72.7650  222.1710 C   0  0  0  0  0  0  0  0  0  0  0  0
  139.7560   74.1080  222.2280 N   0  0  0  0  0  0  0  0  0  0  0  0
  139.8900   74.9080  221.0660 C   0  0  0  0  0  0  0  0  0  0  0  0
  141.1830   75.5290  220.8040 C   0  0  0  0  0  0  0  0  0  0  0  0
  142.2060   74.8840  221.2560 O   0  0  0  0  0  0  0  0  0  0  0  0
  141.4150   76.7470  220.1140 N   0  0  0  0  0  0  0  0  0  0  0  0
  142.2870   77.2840  219.0760 C   0  0  0  0  0  0  0  0  0  0  0  0
  141.5040   78.5760  218.9900 C   0  0  0  0  0  0  0  0  0  0  0  0
  140.8120   78.0610  220.2010 C   0  0  2  0  0  0  0  0  0  0  0  0
  141.1180   78.8910  221.4050 C   0  0  0  0  0  0  0  0  0  0  0  0
  142.1760   79.9120  221.2160 C   0  0  0  0  0  0  0  0  0  0  0  0
  142.5080   80.5260  222.5570 C   0  0  0  0  0  0  0  0  0  0  0  0
  141.3290   80.4610  223.5080 C   0  0  0  0  0  0  0  0  0  0  0  0
  141.1300   79.0000  223.8600 C   0  0  0  0  0  0  0  0  0  0  0  0
  141.3920   78.1060  222.6610 C   0  0  0  0  0  0  0  0  0  0  0  0
  140.1830   71.8880  223.3270 C   0  0  0  0  0  0  0  0  0  0  0  0
  139.5330   70.6840  223.1630 C   0  0  0  0  0  0  0  0  0  0  0  0
  139.3810   69.7810  224.1970 C   0  0  0  0  0  0  0  0  0  0  0  0
  139.9160   70.1360  225.4250 C   0  0  0  0  0  0  0  0  0  0  0  0
  139.7750   69.2480  226.4670 C   0  0  0  0  0  0  0  0  0  0  0  0
  140.3080   69.5950  227.7080 C   0  0  0  0  0  0  0  0  0  0  0  0
  140.1380   68.6810  228.6960 F   0  0  0  0  0  0  0  0  0  0  0  0
  140.9590   70.7930  227.8860 C   0  0  0  0  0  0  0  0  0  0  0  0
  141.0850   71.6700  226.8070 C   0  0  0  0  0  0  0  0  0  0  0  0
  140.5640   71.3540  225.5560 C   0  0  0  0  0  0  0  0  0  0  0  0
  140.6950   72.2140  224.5290 N   0  0  0  0  0  0  0  0  0  0  0  0
  139.3170   74.3620  223.1330 H   0  0  0  0  0  0  0  0  0  0  0  0
  139.6530   74.2704  220.2016 H   0  0  0  0  0  0  0  0  0  0  0  0
  139.2098   75.7552  221.2377 H   0  0  0  0  0  0  0  0  0  0  0  0
  143.3274   77.4226  219.4053 H   0  0  0  0  0  0  0  0  0  0  0  0
  142.4499   76.6971  218.1600 H   0  0  0  0  0  0  0  0  0  0  0  0
  142.0918   79.4940  219.1377 H   0  0  0  0  0  0  0  0  0  0  0  0
  140.9754   78.9057  218.0834 H   0  0  0  0  0  0  0  0  0  0  0  0
  139.7142   78.0664  220.2704 H   0  0  0  0  0  0  0  0  0  0  0  0
  140.1664   79.4254  221.5421 H   0  0  0  0  0  0  0  0  0  0  0  0
  143.0748   79.4388  220.7937 H   0  0  0  0  0  0  0  0  0  0  0  0
  141.8225   80.6921  220.5258 H   0  0  0  0  0  0  0  0  0  0  0  0
  143.3542   79.9803  222.9998 H   0  0  0  0  0  0  0  0  0  0  0  0
  142.7631   81.5840  222.3972 H   0  0  0  0  0  0  0  0  0  0  0  0
  141.5426   81.0436  224.4163 H   0  0  0  0  0  0  0  0  0  0  0  0
  140.4245   80.8820  223.0446 H   0  0  0  0  0  0  0  0  0  0  0  0
  141.8241   78.7280  224.6689 H   0  0  0  0  0  0  0  0  0  0  0  0
  140.0872   78.8575  224.1796 H   0  0  0  0  0  0  0  0  0  0  0  0
  142.4407   77.7740  222.6688 H   0  0  0  0  0  0  0  0  0  0  0  0
  140.7375   77.2228  222.7016 H   0  0  0  0  0  0  0  0  0  0  0  0
  139.1210   70.4334  222.1744 H   0  0  0  0  0  0  0  0  0  0  0  0
  138.8590   68.8236  224.0523 H   0  0  0  0  0  0  0  0  0  0  0  0
  139.2552   68.2891  226.3245 H   0  0  0  0  0  0  0  0  0  0  0  0
  141.3763   71.0578  228.8687 H   0  0  0  0  0  0  0  0  0  0  0  0
  141.6058   72.6285  226.9484 H   0  0  0  0  0  0  0  0  0  0  0  0
  1  2  2  0
  2  3  1  0
  3  4  1  0
  4  5  1  0
  5  6  2  0
  5  7  1  0
  7  8  1  0
  8  9  1  0
  9 10  1  0
 10 11  1  0
 11 12  1  0
 12 13  1  0
 13 14  1  0
 14 15  1  0
 15 16  1  0
  2 17  1  0
 17 18  2  0
 18 19  1  0
 19 20  2  0
 20 21  1  0
 21 22  2  0
 22 23  1  0
 22 24  1  0
 24 25  2  0
 25 26  1  0
 26 27  2  0
 10  7  1  0
 16 11  1  0
 27 17  1  0
 26 20  1  0
  3 28  1  0
  4 29  1  0
  4 30  1  0
  8 31  1  0
  8 32  1  0
  9 33  1  0
  9 34  1  0
 10 35  1  6
 11 36  1  0
 12 37  1  0
 12 38  1  0
 13 39  1  0
 13 40  1  0
 14 41  1  0
 14 42  1  0
 15 43  1  0
 15 44  1  0
 16 45  1  0
 16 46  1  0
 18 47  1  0
 19 48  1  0
 21 49  1  0
 24 50  1  0
 25 51  1  0
M  END
>  <smiles>  (25) 
O=C(NCC(=O)N1CCC1C1CCCCC1)c1ccc2cc(F)ccc2n1

>  <score_type>  (25) 
oracle

>  <origin>  (25) 
autodockgpu

>  <m_score__min__energy>  (25) 
-8.9299999999999997

>  <m_primary>  (25) 
energy

>  <rmsd>  (25) 
2.8197275553008363

>  <m_score__min__rmsd>  (25) 
2.8197275553008363

>  <meeko>  (25) 
{"free_energy": -8.05, "intermolecular_energy": -9.54, "internal_energy": -1.15, "cluster_size": 22, "cluster_id": 1, "rank_in_cluster": 22}

>  <energy>  (25) 
-8.69

>  <cluster_rmsd>  (25) 
0.24

>  <cluster>  (25) 
2

$$$$

     RDKit          3D

 51 54  0  0  0  0  0  0  0  0999 V2000
  140.8970   73.9320  220.6890 O   0  0  0  0  0  0  0  0  0  0  0  0
  140.3700   74.7610  221.4770 C   0  0  0  0  0  0  0  0  0  0  0  0
  139.3040   74.2600  222.3150 N   0  0  0  0  0  0  0  0  0  0  0  0
  138.9550   72.8930  222.1730 C   0  0  0  0  0  0  0  0  0  0  0  0
  139.7760   71.8990  222.8550 C   0  0  0  0  0  0  0  0  0  0  0  0
  141.0500   72.1060  222.8040 O   0  0  0  0  0  0  0  0  0  0  0  0
  139.3150   70.7530  223.5520 N   0  0  0  0  0  0  0  0  0  0  0  0
  138.1250   69.9140  223.6410 C   0  0  0  0  0  0  0  0  0  0  0  0
  138.8300   68.8860  224.4990 C   0  0  0  0  0  0  0  0  0  0  0  0
  139.9160   69.8990  224.5560 C   0  0  2  0  0  0  0  0  0  0  0  0
  140.0820   70.4530  225.9340 C   0  0  0  0  0  0  0  0  0  0  0  0
  141.0400   71.5790  226.0510 C   0  0  0  0  0  0  0  0  0  0  0  0
  141.2460   71.8930  227.5150 C   0  0  0  0  0  0  0  0  0  0  0  0
  140.0380   71.5080  228.3450 C   0  0  0  0  0  0  0  0  0  0  0  0
  139.9710   69.9930  228.3460 C   0  0  0  0  0  0  0  0  0  0  0  0
  140.3760   69.4270  226.9960 C   0  0  0  0  0  0  0  0  0  0  0  0
  140.7800   76.1530  221.5700 C   0  0  0  0  0  0  0  0  0  0  0  0
  141.4740   76.6880  220.5060 C   0  0  0  0  0  0  0  0  0  0  0  0
  141.9090   78.0000  220.4940 C   0  0  0  0  0  0  0  0  0  0  0  0
  141.6170   78.7680  221.6090 C   0  0  0  0  0  0  0  0  0  0  0  0
  142.0430   80.0780  221.6150 C   0  0  0  0  0  0  0  0  0  0  0  0
  141.7550   80.8610  222.7320 C   0  0  0  0  0  0  0  0  0  0  0  0
  142.1990   82.1420  222.6810 F   0  0  0  0  0  0  0  0  0  0  0  0
  141.0630   80.3400  223.8000 C   0  0  0  0  0  0  0  0  0  0  0  0
  140.6460   79.0080  223.7610 C   0  0  0  0  0  0  0  0  0  0  0  0
  140.9170   78.1990  222.6620 C   0  0  0  0  0  0  0  0  0  0  0  0
  140.5070   76.9180  222.6440 N   0  0  0  0  0  0  0  0  0  0  0  0
  138.8910   74.9620  222.9560 H   0  0  0  0  0  0  0  0  0  0  0  0
  137.9265   72.7783  222.5458 H   0  0  0  0  0  0  0  0  0  0  0  0
  139.1036   72.6828  221.1035 H   0  0  0  0  0  0  0  0  0  0  0  0
  137.2800   70.4033  224.1476 H   0  0  0  0  0  0  0  0  0  0  0  0
  137.6322   69.5871  222.7135 H   0  0  0  0  0  0  0  0  0  0  0  0
  138.3443   68.6614  225.4600 H   0  0  0  0  0  0  0  0  0  0  0  0
  138.9894   67.8430  224.1879 H   0  0  0  0  0  0  0  0  0  0  0  0
  140.9617   69.6174  224.3633 H   0  0  0  0  0  0  0  0  0  0  0  0
  139.0764   70.8564  226.1239 H   0  0  0  0  0  0  0  0  0  0  0  0
  142.0002   71.2964  225.5948 H   0  0  0  0  0  0  0  0  0  0  0  0
  140.6426   72.4634  225.5314 H   0  0  0  0  0  0  0  0  0  0  0  0
  142.1215   71.3357  227.8796 H   0  0  0  0  0  0  0  0  0  0  0  0
  141.4000   72.9775  227.6152 H   0  0  0  0  0  0  0  0  0  0  0  0
  140.1501   71.8826  229.3731 H   0  0  0  0  0  0  0  0  0  0  0  0
  139.1179   71.9432  227.9278 H   0  0  0  0  0  0  0  0  0  0  0  0
  140.6516   69.6038  229.1176 H   0  0  0  0  0  0  0  0  0  0  0  0
  138.9348   69.6892  228.5556 H   0  0  0  0  0  0  0  0  0  0  0  0
  141.4514   69.1955  226.9993 H   0  0  0  0  0  0  0  0  0  0  0  0
  139.8123   68.5047  226.7921 H   0  0  0  0  0  0  0  0  0  0  0  0
  141.6890   76.0491  219.6368 H   0  0  0  0  0  0  0  0  0  0  0  0
  142.4617   78.4150  219.6383 H   0  0  0  0  0  0  0  0  0  0  0  0
  142.5960   80.4954  220.7607 H   0  0  0  0  0  0  0  0  0  0  0  0
  140.8402   80.9664  224.6764 H   0  0  0  0  0  0  0  0  0  0  0  0
  140.0928   78.5904  224.6152 H   0  0  0  0  0  0  0  0  0  0  0  0
  1  2  2  0
  2  3  1  0
  3  4  1  0
  4  5  1  0
  5  6  2  0
  5  7  1  0
  7  8  1  0
  8  9  1  0
  9 10  1  0
 10 11  1  0
 11 12  1  0
 12 13  1  0
 13 14  1  0
 14 15  1  0
 15 16  1  0
  2 17  1  0
 17 18  2  0
 18 19  1  0
 19 20  2  0
 20 21  1  0
 21 22  2  0
 22 23  1  0
 22 24  1  0
 24 25  2  0
 25 26  1  0
 26 27  2  0
 10  7  1  0
 16 11  1  0
 27 17  1  0
 26 20  1  0
  3 28  1  0
  4 29  1  0
  4 30  1  0
  8 31  1  0
  8 32  1  0
  9 33  1  0
  9 34  1  0
 10 35  1  6
 11 36  1  0
 12 37  1  0
 12 38  1  0
 13 39  1  0
 13 40  1  0
 14 41  1  0
 14 42  1  0
 15 43  1  0
 15 44  1  0
 16 45  1  0
 16 46  1  0
 18 47  1  0
 19 48  1  0
 21 49  1  0
 24 50  1  0
 25 51  1  0
M  END
>  <smiles>  (26) 
O=C(NCC(=O)N1CCC1C1CCCCC1)c1ccc2cc(F)ccc2n1

>  <score_type>  (26) 
oracle

>  <origin>  (26) 
autodockgpu

>  <m_score__min__energy>  (26) 
-8.9299999999999997

>  <m_primary>  (26) 
energy

>  <rmsd>  (26) 
8.656361545784831

>  <m_score__min__rmsd>  (26) 
8.656361545784831

>  <meeko>  (26) 
{"free_energy": -8.71, "intermolecular_energy": -10.21, "internal_energy": -1.33, "cluster_size": 21, "cluster_id": 2, "rank_in_cluster": 2}

>  <energy>  (26) 
-8.68

>  <cluster_rmsd>  (26) 
0.27

>  <cluster>  (26) 
2

$$$$

     RDKit          3D

 51 54  0  0  0  0  0  0  0  0999 V2000
  141.3390   72.2220  221.6670 O   0  0  0  0  0  0  0  0  0  0  0  0
  140.4470   72.3830  222.5420 C   0  0  0  0  0  0  0  0  0  0  0  0
  139.5520   73.5010  222.3470 N   0  0  0  0  0  0  0  0  0  0  0  0
  139.7600   74.3050  221.1980 C   0  0  0  0  0  0  0  0  0  0  0  0
  140.1890   75.6850  221.3930 C   0  0  0  0  0  0  0  0  0  0  0  0
  141.4580   75.8910  221.2720 O   0  0  0  0  0  0  0  0  0  0  0  0
  139.3600   76.7960  221.6940 N   0  0  0  0  0  0  0  0  0  0  0  0
  138.1690   77.4620  221.1800 C   0  0  0  0  0  0  0  0  0  0  0  0
  138.0620   78.3590  222.3940 C   0  0  0  0  0  0  0  0  0  0  0  0
  139.3980   77.8020  222.7360 C   0  0  2  0  0  0  0  0  0  0  0  0
  140.4650   78.8450  222.6600 C   0  0  0  0  0  0  0  0  0  0  0  0
  140.9790   79.1250  221.2970 C   0  0  0  0  0  0  0  0  0  0  0  0
  142.1750   80.0420  221.4060 C   0  0  0  0  0  0  0  0  0  0  0  0
  142.1100   80.9000  222.6540 C   0  0  0  0  0  0  0  0  0  0  0  0
  142.3070   79.9710  223.8350 C   0  0  0  0  0  0  0  0  0  0  0  0
  141.6210   78.6360  223.6020 C   0  0  0  0  0  0  0  0  0  0  0  0
  140.2920   71.5160  223.6990 C   0  0  0  0  0  0  0  0  0  0  0  0
  139.6490   70.3110  223.5160 C   0  0  0  0  0  0  0  0  0  0  0  0
  139.4500   69.4160  224.5490 C   0  0  0  0  0  0  0  0  0  0  0  0
  139.9290   69.7810  225.7970 C   0  0  0  0  0  0  0  0  0  0  0  0
  139.7400   68.9010  226.8390 C   0  0  0  0  0  0  0  0  0  0  0  0
  140.2180   69.2580  228.0990 C   0  0  0  0  0  0  0  0  0  0  0  0
  140.0030   68.3520  229.0860 F   0  0  0  0  0  0  0  0  0  0  0  0
  140.8620   70.4570  228.2970 C   0  0  0  0  0  0  0  0  0  0  0  0
  141.0370   71.3260  227.2170 C   0  0  0  0  0  0  0  0  0  0  0  0
  140.5720   71.0000  225.9470 C   0  0  0  0  0  0  0  0  0  0  0  0
  140.7500   71.8520  224.9210 N   0  0  0  0  0  0  0  0  0  0  0  0
  138.8270   73.6080  223.0790 H   0  0  0  0  0  0  0  0  0  0  0  0
  140.5273   73.8079  220.5862 H   0  0  0  0  0  0  0  0  0  0  0  0
  138.7634   74.3907  220.7403 H   0  0  0  0  0  0  0  0  0  0  0  0
  138.3434   78.0110  220.2429 H   0  0  0  0  0  0  0  0  0  0  0  0
  137.3008   76.8524  220.8893 H   0  0  0  0  0  0  0  0  0  0  0  0
  138.0416   79.4382  222.1821 H   0  0  0  0  0  0  0  0  0  0  0  0
  137.2051   78.3465  223.0836 H   0  0  0  0  0  0  0  0  0  0  0  0
  139.6103   77.4201  223.7455 H   0  0  0  0  0  0  0  0  0  0  0  0
  139.9145   79.7370  222.9936 H   0  0  0  0  0  0  0  0  0  0  0  0
  141.2782   78.1831  220.8141 H   0  0  0  0  0  0  0  0  0  0  0  0
  140.1945   79.6044  220.6931 H   0  0  0  0  0  0  0  0  0  0  0  0
  143.0900   79.4324  221.4394 H   0  0  0  0  0  0  0  0  0  0  0  0
  142.1779   80.7083  220.5308 H   0  0  0  0  0  0  0  0  0  0  0  0
  142.9052   81.6597  222.6331 H   0  0  0  0  0  0  0  0  0  0  0  0
  141.1460   81.4255  222.7218 H   0  0  0  0  0  0  0  0  0  0  0  0
  143.3837   79.8006  223.9822 H   0  0  0  0  0  0  0  0  0  0  0  0
  141.8641   80.4402  224.7259 H   0  0  0  0  0  0  0  0  0  0  0  0
  142.3348   77.9252  223.1600 H   0  0  0  0  0  0  0  0  0  0  0  0
  141.2572   78.2298  224.5574 H   0  0  0  0  0  0  0  0  0  0  0  0
  139.2813   70.0528  222.5119 H   0  0  0  0  0  0  0  0  0  0  0  0
  138.9349   68.4574  224.3884 H   0  0  0  0  0  0  0  0  0  0  0  0
  139.2254   67.9416  226.6814 H   0  0  0  0  0  0  0  0  0  0  0  0
  141.2354   70.7290  229.2953 H   0  0  0  0  0  0  0  0  0  0  0  0
  141.5518   72.2854  227.3738 H   0  0  0  0  0  0  0  0  0  0  0  0
  1  2  2  0
  2  3  1  0
  3  4  1  0
  4  5  1  0
  5  6  2  0
  5  7  1  0
  7  8  1  0
  8  9  1  0
  9 10  1  0
 10 11  1  0
 11 12  1  0
 12 13  1  0
 13 14  1  0
 14 15  1  0
 15 16  1  0
  2 17  1  0
 17 18  2  0
 18 19  1  0
 19 20  2  0
 20 21  1  0
 21 22  2  0
 22 23  1  0
 22 24  1  0
 24 25  2  0
 25 26  1  0
 26 27  2  0
 10  7  1  0
 16 11  1  0
 27 17  1  0
 26 20  1  0
  3 28  1  0
  4 29  1  0
  4 30  1  0
  8 31  1  0
  8 32  1  0
  9 33  1  0
  9 34  1  0
 10 35  1  1
 11 36  1  0
 12 37  1  0
 12 38  1  0
 13 39  1  0
 13 40  1  0
 14 41  1  0
 14 42  1  0
 15 43  1  0
 15 44  1  0
 16 45  1  0
 16 46  1  0
 18 47  1  0
 19 48  1  0
 21 49  1  0
 24 50  1  0
 25 51  1  0
M  END
>  <smiles>  (27) 
O=C(NCC(=O)N1CCC1C1CCCCC1)c1ccc2cc(F)ccc2n1

>  <score_type>  (27) 
oracle

>  <origin>  (27) 
autodockgpu

>  <m_score__min__energy>  (27) 
-8.9299999999999997

>  <m_primary>  (27) 
energy

>  <rmsd>  (27) 
2.7258836780950264

>  <m_score__min__rmsd>  (27) 
2.7258836780950264

>  <meeko>  (27) 
{"free_energy": -8.53, "intermolecular_energy": -10.02, "internal_energy": -1.11, "cluster_size": 22, "cluster_id": 1, "rank_in_cluster": 18}

>  <energy>  (27) 
-8.64

>  <cluster_rmsd>  (27) 
0.27

>  <cluster>  (27) 
2

$$$$

     RDKit          3D

 51 54  0  0  0  0  0  0  0  0999 V2000
  141.7300   73.3230  221.0220 O   0  0  0  0  0  0  0  0  0  0  0  0
  140.9720   74.1480  221.5980 C   0  0  0  0  0  0  0  0  0  0  0  0
  139.8620   73.5900  222.3370 N   0  0  0  0  0  0  0  0  0  0  0  0
  139.7330   72.1780  222.3450 C   0  0  0  0  0  0  0  0  0  0  0  0
  138.5780   71.5960  223.0180 C   0  0  0  0  0  0  0  0  0  0  0  0
  137.4700   72.2450  222.8710 O   0  0  0  0  0  0  0  0  0  0  0  0
  138.5580   70.4140  223.8010 N   0  0  0  0  0  0  0  0  0  0  0  0
  137.6220   69.3770  224.2200 C   0  0  0  0  0  0  0  0  0  0  0  0
  138.7230   68.5280  224.8170 C   0  0  0  0  0  0  0  0  0  0  0  0
  139.5720   69.7230  224.5710 C   0  0  2  0  0  0  0  0  0  0  0  0
  140.0250   70.3490  225.8490 C   0  0  0  0  0  0  0  0  0  0  0  0
  140.9290   71.5140  225.6950 C   0  0  0  0  0  0  0  0  0  0  0  0
  141.4530   71.9080  227.0570 C   0  0  0  0  0  0  0  0  0  0  0  0
  140.4900   71.5200  228.1610 C   0  0  0  0  0  0  0  0  0  0  0  0
  140.4980   70.0060  228.2370 C   0  0  0  0  0  0  0  0  0  0  0  0
  140.6060   69.3890  226.8530 C   0  0  0  0  0  0  0  0  0  0  0  0
  141.1650   75.5880  221.5450 C   0  0  0  0  0  0  0  0  0  0  0  0
  141.7300   76.1170  220.4050 C   0  0  0  0  0  0  0  0  0  0  0  0
  141.9570   77.4720  220.2550 C   0  0  0  0  0  0  0  0  0  0  0  0
  141.5900   78.2910  221.3100 C   0  0  0  0  0  0  0  0  0  0  0  0
  141.8090   79.6440  221.1790 C   0  0  0  0  0  0  0  0  0  0  0  0
  141.4440   80.4780  222.2340 C   0  0  0  0  0  0  0  0  0  0  0  0
  141.6840   81.8000  222.0470 F   0  0  0  0  0  0  0  0  0  0  0  0
  140.8800   79.9630  223.3780 C   0  0  0  0  0  0  0  0  0  0  0  0
  140.6720   78.5860  223.4790 C   0  0  0  0  0  0  0  0  0  0  0  0
  141.0250   77.7260  222.4430 C   0  0  0  0  0  0  0  0  0  0  0  0
  140.8160   76.4020  222.5600 N   0  0  0  0  0  0  0  0  0  0  0  0
  139.2570   74.2900  222.8030 H   0  0  0  0  0  0  0  0  0  0  0  0
  139.7004   71.8474  221.2964 H   0  0  0  0  0  0  0  0  0  0  0  0
  140.5953   71.8286  222.9318 H   0  0  0  0  0  0  0  0  0  0  0  0
  136.8853   69.7237  224.9596 H   0  0  0  0  0  0  0  0  0  0  0  0
  136.9505   68.9306  223.4718 H   0  0  0  0  0  0  0  0  0  0  0  0
  138.5875   68.2559  225.8742 H   0  0  0  0  0  0  0  0  0  0  0  0
  138.9752   67.5202  224.4554 H   0  0  0  0  0  0  0  0  0  0  0  0
  140.5500   69.6298  224.0761 H   0  0  0  0  0  0  0  0  0  0  0  0
  139.0719   70.7220  226.2521 H   0  0  0  0  0  0  0  0  0  0  0  0
  141.7700   71.2450  225.0390 H   0  0  0  0  0  0  0  0  0  0  0  0
  140.3803   72.3561  225.2480 H   0  0  0  0  0  0  0  0  0  0  0  0
  142.4149   71.4027  227.2289 H   0  0  0  0  0  0  0  0  0  0  0  0
  141.5736   73.0012  227.0753 H   0  0  0  0  0  0  0  0  0  0  0  0
  140.8193   71.9490  229.1189 H   0  0  0  0  0  0  0  0  0  0  0  0
  139.4785   71.8995  227.9539 H   0  0  0  0  0  0  0  0  0  0  0  0
  141.3567   69.6813  228.8430 H   0  0  0  0  0  0  0  0  0  0  0  0
  139.5542   69.6744  228.6945 H   0  0  0  0  0  0  0  0  0  0  0  0
  141.6627   69.1985  226.6142 H   0  0  0  0  0  0  0  0  0  0  0  0
  140.0553   68.4372  226.8233 H   0  0  0  0  0  0  0  0  0  0  0  0
  142.0099   75.4376  219.5864 H   0  0  0  0  0  0  0  0  0  0  0  0
  142.4086   77.8814  219.3394 H   0  0  0  0  0  0  0  0  0  0  0  0
  142.2607   80.0562  220.2646 H   0  0  0  0  0  0  0  0  0  0  0  0
  140.5955   80.6296  224.2055 H   0  0  0  0  0  0  0  0  0  0  0  0
  140.2211   78.1734  224.3936 H   0  0  0  0  0  0  0  0  0  0  0  0
  1  2  2  0
  2  3  1  0
  3  4  1  0
  4  5  1  0
  5  6  2  0
  5  7  1  0
  7  8  1  0
  8  9  1  0
  9 10  1  0
 10 11  1  0
 11 12  1  0
 12 13  1  0
 13 14  1  0
 14 15  1  0
 15 16  1  0
  2 17  1  0
 17 18  2  0
 18 19  1  0
 19 20  2  0
 20 21  1  0
 21 22  2  0
 22 23  1  0
 22 24  1  0
 24 25  2  0
 25 26  1  0
 26 27  2  0
 10  7  1  0
 16 11  1  0
 27 17  1  0
 26 20  1  0
  3 28  1  0
  4 29  1  0
  4 30  1  0
  8 31  1  0
  8 32  1  0
  9 33  1  0
  9 34  1  0
 10 35  1  6
 11 36  1  0
 12 37  1  0
 12 38  1  0
 13 39  1  0
 13 40  1  0
 14 41  1  0
 14 42  1  0
 15 43  1  0
 15 44  1  0
 16 45  1  0
 16 46  1  0
 18 47  1  0
 19 48  1  0
 21 49  1  0
 24 50  1  0
 25 51  1  0
M  END
>  <smiles>  (28) 
O=C(NCC(=O)N1CCC1C1CCCCC1)c1ccc2cc(F)ccc2n1

>  <score_type>  (28) 
oracle

>  <origin>  (28) 
autodockgpu

>  <m_score__min__energy>  (28) 
-8.9299999999999997

>  <m_primary>  (28) 
energy

>  <rmsd>  (28) 
8.62452668481649

>  <m_score__min__rmsd>  (28) 
8.62452668481649

>  <meeko>  (28) 
{"free_energy": -8.42, "intermolecular_energy": -9.91, "internal_energy": -1.42, "cluster_size": 21, "cluster_id": 2, "rank_in_cluster": 10}

>  <energy>  (28) 
-8.63

>  <cluster_rmsd>  (28) 
0.29

>  <cluster>  (28) 
2

$$$$

     RDKit          3D

 51 54  0  0  0  0  0  0  0  0999 V2000
  140.7200   73.9820  220.5190 O   0  0  0  0  0  0  0  0  0  0  0  0
  140.3000   74.7590  221.4170 C   0  0  0  0  0  0  0  0  0  0  0  0
  139.3430   74.2060  222.3470 N   0  0  0  0  0  0  0  0  0  0  0  0
  138.9690   72.8510  222.1630 C   0  0  0  0  0  0  0  0  0  0  0  0
  139.7850   71.8200  222.7950 C   0  0  0  0  0  0  0  0  0  0  0  0
  141.0600   71.9460  222.6250 O   0  0  0  0  0  0  0  0  0  0  0  0
  139.3200   70.7200  223.5590 N   0  0  0  0  0  0  0  0  0  0  0  0
  138.1070   69.9310  223.7420 C   0  0  0  0  0  0  0  0  0  0  0  0
  138.8190   68.9100  224.6030 C   0  0  0  0  0  0  0  0  0  0  0  0
  139.9420   69.8830  224.5650 C   0  0  2  0  0  0  0  0  0  0  0  0
  140.1990   70.4810  225.9090 C   0  0  0  0  0  0  0  0  0  0  0  0
  141.0740   71.6790  225.9110 C   0  0  0  0  0  0  0  0  0  0  0  0
  141.3980   72.0440  227.3410 C   0  0  0  0  0  0  0  0  0  0  0  0
  140.3110   71.5900  228.2940 C   0  0  0  0  0  0  0  0  0  0  0  0
  140.3620   70.0750  228.3280 C   0  0  0  0  0  0  0  0  0  0  0  0
  140.6750   69.5070  226.9540 C   0  0  0  0  0  0  0  0  0  0  0  0
  140.7290   76.1430  221.5440 C   0  0  0  0  0  0  0  0  0  0  0  0
  141.5050   76.6690  220.5350 C   0  0  0  0  0  0  0  0  0  0  0  0
  141.9650   77.9720  220.5600 C   0  0  0  0  0  0  0  0  0  0  0  0
  141.6100   78.7420  221.6560 C   0  0  0  0  0  0  0  0  0  0  0  0
  142.0580   80.0430  221.6980 C   0  0  0  0  0  0  0  0  0  0  0  0
  141.7080   80.8270  222.7960 C   0  0  0  0  0  0  0  0  0  0  0  0
  142.1790   82.1000  222.7820 F   0  0  0  0  0  0  0  0  0  0  0  0
  140.9340   80.3150  223.8100 C   0  0  0  0  0  0  0  0  0  0  0  0
  140.4960   78.9910  223.7360 C   0  0  0  0  0  0  0  0  0  0  0  0
  140.8280   78.1820  222.6540 C   0  0  0  0  0  0  0  0  0  0  0  0
  140.3960   76.9090  222.6010 N   0  0  0  0  0  0  0  0  0  0  0  0
  139.0170   74.8660  223.0760 H   0  0  0  0  0  0  0  0  0  0  0  0
  137.9452   72.7396  222.5496 H   0  0  0  0  0  0  0  0  0  0  0  0
  139.0958   72.6767  221.0843 H   0  0  0  0  0  0  0  0  0  0  0  0
  137.3081   70.4708  224.2714 H   0  0  0  0  0  0  0  0  0  0  0  0
  137.5545   69.5883  222.8547 H   0  0  0  0  0  0  0  0  0  0  0  0
  138.3764   68.7399  225.5955 H   0  0  0  0  0  0  0  0  0  0  0  0
  138.9248   67.8509  224.3254 H   0  0  0  0  0  0  0  0  0  0  0  0
  140.9659   69.5559  224.3312 H   0  0  0  0  0  0  0  0  0  0  0  0
  139.1883   70.8112  226.1909 H   0  0  0  0  0  0  0  0  0  0  0  0
  142.0038   71.4584  225.3662 H   0  0  0  0  0  0  0  0  0  0  0  0
  140.5599   72.5177  225.4189 H   0  0  0  0  0  0  0  0  0  0  0  0
  142.3456   71.5635  227.6258 H   0  0  0  0  0  0  0  0  0  0  0  0
  141.4767   73.1392  227.4065 H   0  0  0  0  0  0  0  0  0  0  0  0
  140.4943   71.9976  229.2991 H   0  0  0  0  0  0  0  0  0  0  0  0
  139.3234   71.9441  227.9634 H   0  0  0  0  0  0  0  0  0  0  0  0
  141.1432   69.7576  229.0344 H   0  0  0  0  0  0  0  0  0  0  0  0
  139.3780   69.6994  228.6453 H   0  0  0  0  0  0  0  0  0  0  0  0
  141.7602   69.3575  226.8537 H   0  0  0  0  0  0  0  0  0  0  0  0
  140.1674   68.5399  226.8238 H   0  0  0  0  0  0  0  0  0  0  0  0
  141.7678   76.0297  219.6793 H   0  0  0  0  0  0  0  0  0  0  0  0
  142.5844   78.3791  219.7472 H   0  0  0  0  0  0  0  0  0  0  0  0
  142.6763   80.4533  220.8859 H   0  0  0  0  0  0  0  0  0  0  0  0
  140.6621   80.9423  224.6717 H   0  0  0  0  0  0  0  0  0  0  0  0
  139.8775   78.5805  224.5477 H   0  0  0  0  0  0  0  0  0  0  0  0
  1  2  2  0
  2  3  1  0
  3  4  1  0
  4  5  1  0
  5  6  2  0
  5  7  1  0
  7  8  1  0
  8  9  1  0
  9 10  1  0
 10 11  1  0
 11 12  1  0
 12 13  1  0
 13 14  1  0
 14 15  1  0
 15 16  1  0
  2 17  1  0
 17 18  2  0
 18 19  1  0
 19 20  2  0
 20 21  1  0
 21 22  2  0
 22 23  1  0
 22 24  1  0
 24 25  2  0
 25 26  1  0
 26 27  2  0
 10  7  1  0
 16 11  1  0
 27 17  1  0
 26 20  1  0
  3 28  1  0
  4 29  1  0
  4 30  1  0
  8 31  1  0
  8 32  1  0
  9 33  1  0
  9 34  1  0
 10 35  1  6
 11 36  1  0
 12 37  1  0
 12 38  1  0
 13 39  1  0
 13 40  1  0
 14 41  1  0
 14 42  1  0
 15 43  1  0
 15 44  1  0
 16 45  1  0
 16 46  1  0
 18 47  1  0
 19 48  1  0
 21 49  1  0
 24 50  1  0
 25 51  1  0
M  END
>  <smiles>  (29) 
O=C(NCC(=O)N1CCC1C1CCCCC1)c1ccc2cc(F)ccc2n1

>  <score_type>  (29) 
oracle

>  <origin>  (29) 
autodockgpu

>  <m_score__min__energy>  (29) 
-8.9299999999999997

>  <m_primary>  (29) 
energy

>  <rmsd>  (29) 
8.626034516063148

>  <m_score__min__rmsd>  (29) 
8.626034516063148

>  <meeko>  (29) 
{"free_energy": -8.64, "intermolecular_energy": -10.13, "internal_energy": -1.39, "cluster_size": 21, "cluster_id": 2, "rank_in_cluster": 5}

>  <energy>  (29) 
-8.63

>  <cluster_rmsd>  (29) 
0.3

>  <cluster>  (29) 
2

$$$$

     RDKit          3D

 51 54  0  0  0  0  0  0  0  0999 V2000
  140.8460   73.9410  220.7190 O   0  0  0  0  0  0  0  0  0  0  0  0
  140.3290   74.7720  221.5110 C   0  0  0  0  0  0  0  0  0  0  0  0
  139.2670   74.2750  222.3560 N   0  0  0  0  0  0  0  0  0  0  0  0
  138.9110   72.9100  222.2160 C   0  0  0  0  0  0  0  0  0  0  0  0
  139.7720   71.9080  222.8350 C   0  0  0  0  0  0  0  0  0  0  0  0
  141.0400   72.1300  222.7290 O   0  0  0  0  0  0  0  0  0  0  0  0
  139.3550   70.7410  223.5240 N   0  0  0  0  0  0  0  0  0  0  0  0
  138.2020   69.8510  223.5990 C   0  0  0  0  0  0  0  0  0  0  0  0
  138.9440   68.8510  224.4610 C   0  0  0  0  0  0  0  0  0  0  0  0
  139.9840   69.9110  224.5310 C   0  0  2  0  0  0  0  0  0  0  0  0
  140.1110   70.4670  225.9120 C   0  0  0  0  0  0  0  0  0  0  0  0
  141.0650   71.5930  226.0540 C   0  0  0  0  0  0  0  0  0  0  0  0
  141.2310   71.9100  227.5220 C   0  0  0  0  0  0  0  0  0  0  0  0
  140.0020   71.5250  228.3200 C   0  0  0  0  0  0  0  0  0  0  0  0
  139.9360   70.0100  228.3210 C   0  0  0  0  0  0  0  0  0  0  0  0
  140.3780   69.4430  226.9840 C   0  0  0  0  0  0  0  0  0  0  0  0
  140.7450   76.1620  221.6000 C   0  0  0  0  0  0  0  0  0  0  0  0
  141.4280   76.6960  220.5290 C   0  0  0  0  0  0  0  0  0  0  0  0
  141.8680   78.0060  220.5130 C   0  0  0  0  0  0  0  0  0  0  0  0
  141.5930   78.7740  221.6330 C   0  0  0  0  0  0  0  0  0  0  0  0
  142.0230   80.0820  221.6350 C   0  0  0  0  0  0  0  0  0  0  0  0
  141.7520   80.8650  222.7560 C   0  0  0  0  0  0  0  0  0  0  0  0
  142.2010   82.1440  222.7010 F   0  0  0  0  0  0  0  0  0  0  0  0
  141.0720   80.3450  223.8320 C   0  0  0  0  0  0  0  0  0  0  0  0
  140.6490   79.0140  223.7970 C   0  0  0  0  0  0  0  0  0  0  0  0
  140.9040   78.2070  222.6930 C   0  0  0  0  0  0  0  0  0  0  0  0
  140.4880   76.9270  222.6790 N   0  0  0  0  0  0  0  0  0  0  0  0
  138.8610   74.9790  223.0000 H   0  0  0  0  0  0  0  0  0  0  0  0
  137.9064   72.7886  222.6473 H   0  0  0  0  0  0  0  0  0  0  0  0
  138.9959   72.7145  221.1368 H   0  0  0  0  0  0  0  0  0  0  0  0
  137.3319   70.3012  224.0992 H   0  0  0  0  0  0  0  0  0  0  0  0
  137.7324   69.5063  222.6659 H   0  0  0  0  0  0  0  0  0  0  0  0
  138.4598   68.6019  225.4168 H   0  0  0  0  0  0  0  0  0  0  0  0
  139.1518   67.8171  224.1483 H   0  0  0  0  0  0  0  0  0  0  0  0
  141.0429   69.6767  224.3472 H   0  0  0  0  0  0  0  0  0  0  0  0
  139.0997   70.8690  226.0726 H   0  0  0  0  0  0  0  0  0  0  0  0
  142.0374   71.3097  225.6249 H   0  0  0  0  0  0  0  0  0  0  0  0
  140.6815   72.4764  225.5225 H   0  0  0  0  0  0  0  0  0  0  0  0
  142.0972   71.3547  227.9110 H   0  0  0  0  0  0  0  0  0  0  0  0
  141.3806   72.9950  227.6241 H   0  0  0  0  0  0  0  0  0  0  0  0
  140.0866   71.9009  229.3503 H   0  0  0  0  0  0  0  0  0  0  0  0
  139.0930   71.9590  227.8781 H   0  0  0  0  0  0  0  0  0  0  0  0
  140.5954   69.6222  229.1114 H   0  0  0  0  0  0  0  0  0  0  0  0
  138.8946   69.7057  228.5025 H   0  0  0  0  0  0  0  0  0  0  0  0
  141.4533   69.2134  227.0168 H   0  0  0  0  0  0  0  0  0  0  0  0
  139.8214   68.5195  226.7665 H   0  0  0  0  0  0  0  0  0  0  0  0
  141.6300   76.0574  219.6564 H   0  0  0  0  0  0  0  0  0  0  0  0
  142.4115   78.4199  219.6508 H   0  0  0  0  0  0  0  0  0  0  0  0
  142.5665   80.4984  220.7740 H   0  0  0  0  0  0  0  0  0  0  0  0
  140.8631   80.9710  224.7120 H   0  0  0  0  0  0  0  0  0  0  0  0
  140.1049   78.5969  224.6573 H   0  0  0  0  0  0  0  0  0  0  0  0
  1  2  2  0
  2  3  1  0
  3  4  1  0
  4  5  1  0
  5  6  2  0
  5  7  1  0
  7  8  1  0
  8  9  1  0
  9 10  1  0
 10 11  1  0
 11 12  1  0
 12 13  1  0
 13 14  1  0
 14 15  1  0
 15 16  1  0
  2 17  1  0
 17 18  2  0
 18 19  1  0
 19 20  2  0
 20 21  1  0
 21 22  2  0
 22 23  1  0
 22 24  1  0
 24 25  2  0
 25 26  1  0
 26 27  2  0
 10  7  1  0
 16 11  1  0
 27 17  1  0
 26 20  1  0
  3 28  1  0
  4 29  1  0
  4 30  1  0
  8 31  1  0
  8 32  1  0
  9 33  1  0
  9 34  1  0
 10 35  1  6
 11 36  1  0
 12 37  1  0
 12 38  1  0
 13 39  1  0
 13 40  1  0
 14 41  1  0
 14 42  1  0
 15 43  1  0
 15 44  1  0
 16 45  1  0
 16 46  1  0
 18 47  1  0
 19 48  1  0
 21 49  1  0
 24 50  1  0
 25 51  1  0
M  END
>  <smiles>  (30) 
O=C(NCC(=O)N1CCC1C1CCCCC1)c1ccc2cc(F)ccc2n1

>  <score_type>  (30) 
oracle

>  <origin>  (30) 
autodockgpu

>  <m_score__min__energy>  (30) 
-8.9299999999999997

>  <m_primary>  (30) 
energy

>  <rmsd>  (30) 
8.64748606668476

>  <m_score__min__rmsd>  (30) 
8.64748606668476

>  <meeko>  (30) 
{"free_energy": -8.68, "intermolecular_energy": -10.17, "internal_energy": -1.31, "cluster_size": 21, "cluster_id": 2, "rank_in_cluster": 4}

>  <energy>  (30) 
-8.62

>  <cluster_rmsd>  (30) 
0.27

>  <cluster>  (30) 
2

$$$$

     RDKit          3D

 51 54  0  0  0  0  0  0  0  0999 V2000
  140.8670   71.7940  221.2260 O   0  0  0  0  0  0  0  0  0  0  0  0
  140.3780   72.2560  222.2900 C   0  0  0  0  0  0  0  0  0  0  0  0
  139.9680   73.6420  222.2590 N   0  0  0  0  0  0  0  0  0  0  0  0
  140.1520   74.3450  221.0420 C   0  0  0  0  0  0  0  0  0  0  0  0
  141.4960   74.8040  220.7090 C   0  0  0  0  0  0  0  0  0  0  0  0
  142.4420   73.9590  220.9490 O   0  0  0  0  0  0  0  0  0  0  0  0
  141.8500   76.0630  220.1600 N   0  0  0  0  0  0  0  0  0  0  0  0
  142.8850   76.6540  219.3200 C   0  0  0  0  0  0  0  0  0  0  0  0
  142.1410   77.9670  219.2080 C   0  0  0  0  0  0  0  0  0  0  0  0
  141.2560   77.3820  220.2490 C   0  0  2  0  0  0  0  0  0  0  0  0
  141.3730   78.1140  221.5460 C   0  0  0  0  0  0  0  0  0  0  0  0
  140.1510   78.1050  222.3870 C   0  0  0  0  0  0  0  0  0  0  0  0
  140.3570   79.0410  223.5560 C   0  0  0  0  0  0  0  0  0  0  0  0
  141.8240   79.1760  223.9120 C   0  0  0  0  0  0  0  0  0  0  0  0
  142.4840   79.9290  222.7740 C   0  0  0  0  0  0  0  0  0  0  0  0
  141.8980   79.5200  221.4340 C   0  0  0  0  0  0  0  0  0  0  0  0
  140.2190   71.4740  223.5060 C   0  0  0  0  0  0  0  0  0  0  0  0
  139.5600   70.2670  223.4090 C   0  0  0  0  0  0  0  0  0  0  0  0
  139.3560   69.4490  224.5040 C   0  0  0  0  0  0  0  0  0  0  0  0
  139.8460   69.8940  225.7210 C   0  0  0  0  0  0  0  0  0  0  0  0
  139.6520   69.0910  226.8220 C   0  0  0  0  0  0  0  0  0  0  0  0
  140.1410   69.5280  228.0530 C   0  0  0  0  0  0  0  0  0  0  0  0
  139.9200   68.6960  229.1010 F   0  0  0  0  0  0  0  0  0  0  0  0
  140.8000   70.7300  228.1630 C   0  0  0  0  0  0  0  0  0  0  0  0
  140.9800   71.5190  227.0250 C   0  0  0  0  0  0  0  0  0  0  0  0
  140.5050   71.1120  225.7830 C   0  0  0  0  0  0  0  0  0  0  0  0
  140.6880   71.8880  224.6990 N   0  0  0  0  0  0  0  0  0  0  0  0
  139.5670   73.9950  223.1470 H   0  0  0  0  0  0  0  0  0  0  0  0
  139.8228   73.6815  220.2288 H   0  0  0  0  0  0  0  0  0  0  0  0
  139.5713   75.2704  221.1706 H   0  0  0  0  0  0  0  0  0  0  0  0
  143.8596   76.7434  219.8221 H   0  0  0  0  0  0  0  0  0  0  0  0
  143.1877   76.1323  218.4001 H   0  0  0  0  0  0  0  0  0  0  0  0
  142.7077   78.8575  219.5176 H   0  0  0  0  0  0  0  0  0  0  0  0
  141.7700   78.3743  218.2559 H   0  0  0  0  0  0  0  0  0  0  0  0
  140.1616   77.4088  220.1415 H   0  0  0  0  0  0  0  0  0  0  0  0
  142.1342   77.5111  222.0629 H   0  0  0  0  0  0  0  0  0  0  0  0
  139.2898   78.4416  221.7912 H   0  0  0  0  0  0  0  0  0  0  0  0
  139.9573   77.0862  222.7537 H   0  0  0  0  0  0  0  0  0  0  0  0
  139.9609   80.0329  223.2930 H   0  0  0  0  0  0  0  0  0  0  0  0
  139.8290   78.6249  224.4266 H   0  0  0  0  0  0  0  0  0  0  0  0
  141.9355   79.7366  224.8518 H   0  0  0  0  0  0  0  0  0  0  0  0
  142.2881   78.1887  224.0533 H   0  0  0  0  0  0  0  0  0  0  0  0
  142.3284   81.0082  222.9196 H   0  0  0  0  0  0  0  0  0  0  0  0
  143.5576   79.6893  222.7732 H   0  0  0  0  0  0  0  0  0  0  0  0
  141.0772   80.2013  221.1655 H   0  0  0  0  0  0  0  0  0  0  0  0
  142.6731   79.5698  220.6551 H   0  0  0  0  0  0  0  0  0  0  0  0
  139.1839   69.9442  222.4270 H   0  0  0  0  0  0  0  0  0  0  0  0
  138.8284   68.4880  224.4134 H   0  0  0  0  0  0  0  0  0  0  0  0
  139.1250   68.1296  226.7334 H   0  0  0  0  0  0  0  0  0  0  0  0
  141.1817   71.0667  229.1381 H   0  0  0  0  0  0  0  0  0  0  0  0
  141.5073   72.4804  227.1126 H   0  0  0  0  0  0  0  0  0  0  0  0
  1  2  2  0
  2  3  1  0
  3  4  1  0
  4  5  1  0
  5  6  2  0
  5  7  1  0
  7  8  1  0
  8  9  1  0
  9 10  1  0
 10 11  1  0
 11 12  1  0
 12 13  1  0
 13 14  1  0
 14 15  1  0
 15 16  1  0
  2 17  1  0
 17 18  2  0
 18 19  1  0
 19 20  2  0
 20 21  1  0
 21 22  2  0
 22 23  1  0
 22 24  1  0
 24 25  2  0
 25 26  1  0
 26 27  2  0
 10  7  1  0
 16 11  1  0
 27 17  1  0
 26 20  1  0
  3 28  1  0
  4 29  1  0
  4 30  1  0
  8 31  1  0
  8 32  1  0
  9 33  1  0
  9 34  1  0
 10 35  1  6
 11 36  1  0
 12 37  1  0
 12 38  1  0
 13 39  1  0
 13 40  1  0
 14 41  1  0
 14 42  1  0
 15 43  1  0
 15 44  1  0
 16 45  1  0
 16 46  1  0
 18 47  1  0
 19 48  1  0
 21 49  1  0
 24 50  1  0
 25 51  1  0
M  END
>  <smiles>  (31) 
O=C(NCC(=O)N1CCC1C1CCCCC1)c1ccc2cc(F)ccc2n1

>  <score_type>  (31) 
oracle

>  <origin>  (31) 
autodockgpu

>  <m_score__min__energy>  (31) 
-8.9299999999999997

>  <m_primary>  (31) 
energy

>  <rmsd>  (31) 
2.74913122945053

>  <m_score__min__rmsd>  (31) 
2.74913122945053

>  <meeko>  (31) 
{"free_energy": -8.55, "intermolecular_energy": -10.04, "internal_energy": -1.15, "cluster_size": 22, "cluster_id": 1, "rank_in_cluster": 13}

>  <energy>  (31) 
-8.47

>  <cluster_rmsd>  (31) 
0.92

>  <cluster>  (31) 
2

$$$$

     RDKit          3D

 51 54  0  0  0  0  0  0  0  0999 V2000
  141.3960   72.3440  221.6850 O   0  0  0  0  0  0  0  0  0  0  0  0
  140.4830   72.4770  222.5420 C   0  0  0  0  0  0  0  0  0  0  0  0
  139.5790   73.5880  222.3480 N   0  0  0  0  0  0  0  0  0  0  0  0
  139.8030   74.4170  221.2200 C   0  0  0  0  0  0  0  0  0  0  0  0
  139.9300   75.8530  221.4360 C   0  0  0  0  0  0  0  0  0  0  0  0
  139.1820   76.3380  222.3720 O   0  0  0  0  0  0  0  0  0  0  0  0
  140.7770   76.7450  220.7310 N   0  0  0  0  0  0  0  0  0  0  0  0
  141.9790   76.7130  219.9060 C   0  0  0  0  0  0  0  0  0  0  0  0
  141.8390   78.1700  219.5230 C   0  0  0  0  0  0  0  0  0  0  0  0
  140.7730   78.1840  220.5590 C   0  0  2  0  0  0  0  0  0  0  0  0
  141.1530   79.0290  221.7300 C   0  0  0  0  0  0  0  0  0  0  0  0
  142.2000   80.0450  221.4620 C   0  0  0  0  0  0  0  0  0  0  0  0
  142.6140   80.6760  222.7710 C   0  0  0  0  0  0  0  0  0  0  0  0
  141.4970   80.6260  223.7940 C   0  0  0  0  0  0  0  0  0  0  0  0
  141.3180   79.1700  224.1780 C   0  0  0  0  0  0  0  0  0  0  0  0
  141.5050   78.2600  222.9770 C   0  0  0  0  0  0  0  0  0  0  0  0
  140.3140   71.5860  223.6780 C   0  0  0  0  0  0  0  0  0  0  0  0
  139.6580   70.3930  223.4650 C   0  0  0  0  0  0  0  0  0  0  0  0
  139.4450   69.4770  224.4770 C   0  0  0  0  0  0  0  0  0  0  0  0
  139.9220   69.8080  225.7350 C   0  0  0  0  0  0  0  0  0  0  0  0
  139.7190   68.9070  226.7560 C   0  0  0  0  0  0  0  0  0  0  0  0
  140.1950   69.2290  228.0260 C   0  0  0  0  0  0  0  0  0  0  0  0
  139.9650   68.3040  228.9910 F   0  0  0  0  0  0  0  0  0  0  0  0
  140.8500   70.4170  228.2530 C   0  0  0  0  0  0  0  0  0  0  0  0
  141.0400   71.3080  227.1950 C   0  0  0  0  0  0  0  0  0  0  0  0
  140.5770   71.0160  225.9150 C   0  0  0  0  0  0  0  0  0  0  0  0
  140.7700   71.8890  224.9090 N   0  0  0  0  0  0  0  0  0  0  0  0
  138.8360   73.6710  223.0670 H   0  0  0  0  0  0  0  0  0  0  0  0
  140.7336   74.0751  220.7434 H   0  0  0  0  0  0  0  0  0  0  0  0
  138.8886   74.3114  220.6177 H   0  0  0  0  0  0  0  0  0  0  0  0
  142.8953   76.4949  220.4741 H   0  0  0  0  0  0  0  0  0  0  0  0
  142.0594   75.9579  219.1102 H   0  0  0  0  0  0  0  0  0  0  0  0
  142.7143   78.8002  219.7390 H   0  0  0  0  0  0  0  0  0  0  0  0
  141.6847   78.5132  218.4894 H   0  0  0  0  0  0  0  0  0  0  0  0
  139.7873   78.6255  220.3506 H   0  0  0  0  0  0  0  0  0  0  0  0
  140.2120   79.5666  221.9186 H   0  0  0  0  0  0  0  0  0  0  0  0
  143.0704   79.5636  220.9922 H   0  0  0  0  0  0  0  0  0  0  0  0
  141.8067   80.8164  220.7836 H   0  0  0  0  0  0  0  0  0  0  0  0
  143.4857   80.1350  223.1679 H   0  0  0  0  0  0  0  0  0  0  0  0
  142.8589   81.7315  222.5812 H   0  0  0  0  0  0  0  0  0  0  0  0
  141.7675   81.2204  224.6792 H   0  0  0  0  0  0  0  0  0  0  0  0
  140.5660   81.0424  223.3819 H   0  0  0  0  0  0  0  0  0  0  0  0
  142.0600   78.9075  224.9464 H   0  0  0  0  0  0  0  0  0  0  0  0
  140.2968   79.0337  224.5634 H   0  0  0  0  0  0  0  0  0  0  0  0
  142.5522   77.9275  222.9238 H   0  0  0  0  0  0  0  0  0  0  0  0
  140.8546   77.3777  223.0699 H   0  0  0  0  0  0  0  0  0  0  0  0
  139.2912   70.1620  222.4540 H   0  0  0  0  0  0  0  0  0  0  0  0
  138.9205   68.5279  224.2924 H   0  0  0  0  0  0  0  0  0  0  0  0
  139.1946   67.9573  226.5742 H   0  0  0  0  0  0  0  0  0  0  0  0
  141.2208   70.6629  229.2590 H   0  0  0  0  0  0  0  0  0  0  0  0
  141.5649   72.2576  227.3761 H   0  0  0  0  0  0  0  0  0  0  0  0
  1  2  2  0
  2  3  1  0
  3  4  1  0
  4  5  1  0
  5  6  2  0
  5  7  1  0
  7  8  1  0
  8  9  1  0
  9 10  1  0
 10 11  1  0
 11 12  1  0
 12 13  1  0
 13 14  1  0
 14 15  1  0
 15 16  1  0
  2 17  1  0
 17 18  2  0
 18 19  1  0
 19 20  2  0
 20 21  1  0
 21 22  2  0
 22 23  1  0
 22 24  1  0
 24 25  2  0
 25 26  1  0
 26 27  2  0
 10  7  1  0
 16 11  1  0
 27 17  1  0
 26 20  1  0
  3 28  1  0
  4 29  1  0
  4 30  1  0
  8 31  1  0
  8 32  1  0
  9 33  1  0
  9 34  1  0
 10 35  1  6
 11 36  1  0
 12 37  1  0
 12 38  1  0
 13 39  1  0
 13 40  1  0
 14 41  1  0
 14 42  1  0
 15 43  1  0
 15 44  1  0
 16 45  1  0
 16 46  1  0
 18 47  1  0
 19 48  1  0
 21 49  1  0
 24 50  1  0
 25 51  1  0
M  END
>  <smiles>  (32) 
O=C(NCC(=O)N1CCC1C1CCCCC1)c1ccc2cc(F)ccc2n1

>  <score_type>  (32) 
oracle

>  <origin>  (32) 
autodockgpu

>  <m_score__min__energy>  (32) 
-8.9299999999999997

>  <m_primary>  (32) 
energy

>  <rmsd>  (32) 
2.8044786185323543

>  <m_score__min__rmsd>  (32) 
2.8044786185323543

>  <meeko>  (32) 
{"free_energy": -8.67, "intermolecular_energy": -10.16, "internal_energy": -1.18, "cluster_size": 22, "cluster_id": 1, "rank_in_cluster": 10}

>  <energy>  (32) 
-8.42

>  <cluster_rmsd>  (32) 
0.92

>  <cluster>  (32) 
2

$$$$

     RDKit          3D

 51 54  0  0  0  0  0  0  0  0999 V2000
  141.0890   73.6950  220.9140 O   0  0  0  0  0  0  0  0  0  0  0  0
  140.4620   74.5610  221.5800 C   0  0  0  0  0  0  0  0  0  0  0  0
  139.3150   74.0900  222.3220 N   0  0  0  0  0  0  0  0  0  0  0  0
  139.0050   72.7100  222.2320 C   0  0  0  0  0  0  0  0  0  0  0  0
  139.8030   71.7730  223.0160 C   0  0  0  0  0  0  0  0  0  0  0  0
  141.0570   72.0650  223.1140 O   0  0  0  0  0  0  0  0  0  0  0  0
  139.3390   70.6010  223.6650 N   0  0  0  0  0  0  0  0  0  0  0  0
  138.1150   69.8190  223.7990 C   0  0  0  0  0  0  0  0  0  0  0  0
  138.8310   68.6920  224.5110 C   0  0  0  0  0  0  0  0  0  0  0  0
  139.9750   69.6410  224.5450 C   0  0  2  0  0  0  0  0  0  0  0  0
  140.2900   70.0750  225.9390 C   0  0  0  0  0  0  0  0  0  0  0  0
  139.4780   69.4290  226.9990 C   0  0  0  0  0  0  0  0  0  0  0  0
  139.7710   70.1070  228.3180 C   0  0  0  0  0  0  0  0  0  0  0  0
  141.1610   70.7100  228.3400 C   0  0  0  0  0  0  0  0  0  0  0  0
  141.1480   71.8770  227.3720 C   0  0  0  0  0  0  0  0  0  0  0  0
  140.3020   71.5650  226.1500 C   0  0  0  0  0  0  0  0  0  0  0  0
  140.8370   75.9650  221.6260 C   0  0  0  0  0  0  0  0  0  0  0  0
  141.3890   76.5180  220.4910 C   0  0  0  0  0  0  0  0  0  0  0  0
  141.7800   77.8420  220.4300 C   0  0  0  0  0  0  0  0  0  0  0  0
  141.5940   78.6050  221.5720 C   0  0  0  0  0  0  0  0  0  0  0  0
  141.9770   79.9260  221.5300 C   0  0  0  0  0  0  0  0  0  0  0  0
  141.7950   80.7030  222.6720 C   0  0  0  0  0  0  0  0  0  0  0  0
  142.1910   81.9970  222.5710 F   0  0  0  0  0  0  0  0  0  0  0  0
  141.2450   80.1650  223.8120 C   0  0  0  0  0  0  0  0  0  0  0  0
  140.8670   78.8210  223.8200 C   0  0  0  0  0  0  0  0  0  0  0  0
  141.0360   78.0180  222.6960 C   0  0  0  0  0  0  0  0  0  0  0  0
  140.6650   76.7240  222.7250 N   0  0  0  0  0  0  0  0  0  0  0  0
  138.8190   74.8230  222.8640 H   0  0  0  0  0  0  0  0  0  0  0  0
  137.9578   72.5895  222.5462 H   0  0  0  0  0  0  0  0  0  0  0  0
  139.2249   72.4481  221.1865 H   0  0  0  0  0  0  0  0  0  0  0  0
  137.3465   70.3090  224.4149 H   0  0  0  0  0  0  0  0  0  0  0  0
  137.5260   69.5918  222.8982 H   0  0  0  0  0  0  0  0  0  0  0  0
  138.4177   68.4170  225.4926 H   0  0  0  0  0  0  0  0  0  0  0  0
  138.9027   67.6702  224.1100 H   0  0  0  0  0  0  0  0  0  0  0  0
  140.9825   69.3231  224.2386 H   0  0  0  0  0  0  0  0  0  0  0  0
  141.3226   69.7117  226.0470 H   0  0  0  0  0  0  0  0  0  0  0  0
  138.4092   69.5314  226.7600 H   0  0  0  0  0  0  0  0  0  0  0  0
  139.7301   68.3602  227.0639 H   0  0  0  0  0  0  0  0  0  0  0  0
  139.0328   70.9063  228.4800 H   0  0  0  0  0  0  0  0  0  0  0  0
  139.7123   69.3500  229.1139 H   0  0  0  0  0  0  0  0  0  0  0  0
  141.4053   71.0613  229.3533 H   0  0  0  0  0  0  0  0  0  0  0  0
  141.9183   69.9663  228.0513 H   0  0  0  0  0  0  0  0  0  0  0  0
  140.7334   72.7603  227.8798 H   0  0  0  0  0  0  0  0  0  0  0  0
  142.1798   72.0689  227.0426 H   0  0  0  0  0  0  0  0  0  0  0  0
  139.2747   71.9245  226.3094 H   0  0  0  0  0  0  0  0  0  0  0  0
  140.7226   72.0654  225.2653 H   0  0  0  0  0  0  0  0  0  0  0  0
  141.5231   75.8834  219.6026 H   0  0  0  0  0  0  0  0  0  0  0  0
  142.2187   78.2707  219.5169 H   0  0  0  0  0  0  0  0  0  0  0  0
  142.4156   80.3575  220.6182 H   0  0  0  0  0  0  0  0  0  0  0  0
  141.1044   80.7872  224.7082 H   0  0  0  0  0  0  0  0  0  0  0  0
  140.4277   78.3890  224.7312 H   0  0  0  0  0  0  0  0  0  0  0  0
  1  2  2  0
  2  3  1  0
  3  4  1  0
  4  5  1  0
  5  6  2  0
  5  7  1  0
  7  8  1  0
  8  9  1  0
  9 10  1  0
 10 11  1  0
 11 12  1  0
 12 13  1  0
 13 14  1  0
 14 15  1  0
 15 16  1  0
  2 17  1  0
 17 18  2  0
 18 19  1  0
 19 20  2  0
 20 21  1  0
 21 22  2  0
 22 23  1  0
 22 24  1  0
 24 25  2  0
 25 26  1  0
 26 27  2  0
 10  7  1  0
 16 11  1  0
 27 17  1  0
 26 20  1  0
  3 28  1  0
  4 29  1  0
  4 30  1  0
  8 31  1  0
  8 32  1  0
  9 33  1  0
  9 34  1  0
 10 35  1  6
 11 36  1  0
 12 37  1  0
 12 38  1  0
 13 39  1  0
 13 40  1  0
 14 41  1  0
 14 42  1  0
 15 43  1  0
 15 44  1  0
 16 45  1  0
 16 46  1  0
 18 47  1  0
 19 48  1  0
 21 49  1  0
 24 50  1  0
 25 51  1  0
M  END
>  <smiles>  (33) 
O=C(NCC(=O)N1CCC1C1CCCCC1)c1ccc2cc(F)ccc2n1

>  <score_type>  (33) 
oracle

>  <origin>  (33) 
autodockgpu

>  <m_score__min__energy>  (33) 
-8.9299999999999997

>  <m_primary>  (33) 
energy

>  <rmsd>  (33) 
8.822744907957073

>  <m_score__min__rmsd>  (33) 
8.822744907957073

>  <meeko>  (33) 
{"free_energy": -8.42, "intermolecular_energy": -9.91, "internal_energy": -1.24, "cluster_size": 21, "cluster_id": 2, "rank_in_cluster": 11}

>  <energy>  (33) 
-8.42

>  <cluster_rmsd>  (33) 
0.41

>  <cluster>  (33) 
2

$$$$

     RDKit          3D

 51 54  0  0  0  0  0  0  0  0999 V2000
  140.4930   71.7080  221.1640 O   0  0  0  0  0  0  0  0  0  0  0  0
  140.1610   72.1680  222.2880 C   0  0  0  0  0  0  0  0  0  0  0  0
  139.8170   73.5710  222.3310 N   0  0  0  0  0  0  0  0  0  0  0  0
  139.8840   74.2920  221.1120 C   0  0  0  0  0  0  0  0  0  0  0  0
  140.7910   75.4320  221.0360 C   0  0  0  0  0  0  0  0  0  0  0  0
  140.6730   76.2940  221.9910 O   0  0  0  0  0  0  0  0  0  0  0  0
  141.7650   75.6760  220.0350 N   0  0  0  0  0  0  0  0  0  0  0  0
  141.8390   76.0670  218.6320 C   0  0  0  0  0  0  0  0  0  0  0  0
  143.3420   76.2360  218.6860 C   0  0  0  0  0  0  0  0  0  0  0  0
  143.2120   75.6080  220.0280 C   0  0  2  0  0  0  0  0  0  0  0  0
  143.8480   74.2570  220.0680 C   0  0  0  0  0  0  0  0  0  0  0  0
  142.9640   73.1570  220.5260 C   0  0  0  0  0  0  0  0  0  0  0  0
  143.7940   71.9060  220.7010 C   0  0  0  0  0  0  0  0  0  0  0  0
  145.0110   71.9110  219.7980 C   0  0  0  0  0  0  0  0  0  0  0  0
  145.9390   72.9910  220.3190 C   0  0  0  0  0  0  0  0  0  0  0  0
  145.1560   74.1950  220.8110 C   0  0  0  0  0  0  0  0  0  0  0  0
  140.1150   71.3670  223.5010 C   0  0  0  0  0  0  0  0  0  0  0  0
  139.5540   70.1110  223.4180 C   0  0  0  0  0  0  0  0  0  0  0  0
  139.4610   69.2710  224.5110 C   0  0  0  0  0  0  0  0  0  0  0  0
  139.9610   69.7460  225.7130 C   0  0  0  0  0  0  0  0  0  0  0  0
  139.8770   68.9230  226.8130 C   0  0  0  0  0  0  0  0  0  0  0  0
  140.3770   69.3900  228.0280 C   0  0  0  0  0  0  0  0  0  0  0  0
  140.2660   68.5350  229.0760 F   0  0  0  0  0  0  0  0  0  0  0  0
  140.9390   70.6420  228.1250 C   0  0  0  0  0  0  0  0  0  0  0  0
  141.0080   71.4510  226.9890 C   0  0  0  0  0  0  0  0  0  0  0  0
  140.5190   71.0140  225.7620 C   0  0  0  0  0  0  0  0  0  0  0  0
  140.5950   71.8100  224.6790 N   0  0  0  0  0  0  0  0  0  0  0  0
  139.5450   73.9220  223.2680 H   0  0  0  0  0  0  0  0  0  0  0  0
  140.1864   73.5814  220.3286 H   0  0  0  0  0  0  0  0  0  0  0  0
  138.8821   74.7320  220.9993 H   0  0  0  0  0  0  0  0  0  0  0  0
  141.5109   75.2783  217.9390 H   0  0  0  0  0  0  0  0  0  0  0  0
  141.2207   76.9055  218.2790 H   0  0  0  0  0  0  0  0  0  0  0  0
  143.9088   75.6526  217.9455 H   0  0  0  0  0  0  0  0  0  0  0  0
  143.8514   77.1952  218.5117 H   0  0  0  0  0  0  0  0  0  0  0  0
  143.7031   76.0481  220.9084 H   0  0  0  0  0  0  0  0  0  0  0  0
  144.0582   74.0894  219.0014 H   0  0  0  0  0  0  0  0  0  0  0  0
  142.5004   73.4303  221.4854 H   0  0  0  0  0  0  0  0  0  0  0  0
  142.1725   72.9795  219.7830 H   0  0  0  0  0  0  0  0  0  0  0  0
  144.1267   71.8422  221.7475 H   0  0  0  0  0  0  0  0  0  0  0  0
  143.1709   71.0402  220.4325 H   0  0  0  0  0  0  0  0  0  0  0  0
  145.5120   70.9323  219.8324 H   0  0  0  0  0  0  0  0  0  0  0  0
  144.7264   72.1055  218.7534 H   0  0  0  0  0  0  0  0  0  0  0  0
  146.5322   72.5840  221.1511 H   0  0  0  0  0  0  0  0  0  0  0  0
  146.5952   73.3135  219.4972 H   0  0  0  0  0  0  0  0  0  0  0  0
  144.9646   74.0964  221.8897 H   0  0  0  0  0  0  0  0  0  0  0  0
  145.7321   75.1149  220.6328 H   0  0  0  0  0  0  0  0  0  0  0  0
  139.1669   69.7653  222.4481 H   0  0  0  0  0  0  0  0  0  0  0  0
  139.0106   68.2707  224.4307 H   0  0  0  0  0  0  0  0  0  0  0  0
  139.4269   67.9223  226.7356 H   0  0  0  0  0  0  0  0  0  0  0  0
  141.3301   71.0022  229.0880 H   0  0  0  0  0  0  0  0  0  0  0  0
  141.4572   72.4522  227.0656 H   0  0  0  0  0  0  0  0  0  0  0  0
  1  2  2  0
  2  3  1  0
  3  4  1  0
  4  5  1  0
  5  6  2  0
  5  7  1  0
  7  8  1  0
  8  9  1  0
  9 10  1  0
 10 11  1  0
 11 12  1  0
 12 13  1  0
 13 14  1  0
 14 15  1  0
 15 16  1  0
  2 17  1  0
 17 18  2  0
 18 19  1  0
 19 20  2  0
 20 21  1  0
 21 22  2  0
 22 23  1  0
 22 24  1  0
 24 25  2  0
 25 26  1  0
 26 27  2  0
 10  7  1  0
 16 11  1  0
 27 17  1  0
 26 20  1  0
  3 28  1  0
  4 29  1  0
  4 30  1  0
  8 31  1  0
  8 32  1  0
  9 33  1  0
  9 34  1  0
 10 35  1  1
 11 36  1  0
 12 37  1  0
 12 38  1  0
 13 39  1  0
 13 40  1  0
 14 41  1  0
 14 42  1  0
 15 43  1  0
 15 44  1  0
 16 45  1  0
 16 46  1  0
 18 47  1  0
 19 48  1  0
 21 49  1  0
 24 50  1  0
 25 51  1  0
M  END
>  <smiles>  (34) 
O=C(NCC(=O)N1CCC1C1CCCCC1)c1ccc2cc(F)ccc2n1

>  <score_type>  (34) 
oracle

>  <origin>  (34) 
autodockgpu

>  <m_score__min__energy>  (34) 
-8.9299999999999997

>  <m_primary>  (34) 
energy

>  <rmsd>  (34) 
2.4644248742453105

>  <m_score__min__rmsd>  (34) 
2.4644248742453105

>  <meeko>  (34) 
{"free_energy": -8.13, "intermolecular_energy": -9.62, "internal_energy": -1.57, "cluster_size": 5, "cluster_id": 3, "rank_in_cluster": 3}

>  <energy>  (34) 
-8.42

>  <cluster_rmsd>  (34) 
0.92

>  <cluster>  (34) 
2

$$$$

     RDKit          3D

 51 54  0  0  0  0  0  0  0  0999 V2000
  140.7460   71.8660  221.2550 O   0  0  0  0  0  0  0  0  0  0  0  0
  140.2980   72.3070  222.3460 C   0  0  0  0  0  0  0  0  0  0  0  0
  139.8930   73.6950  222.3580 N   0  0  0  0  0  0  0  0  0  0  0  0
  140.0360   74.4220  221.1500 C   0  0  0  0  0  0  0  0  0  0  0  0
  139.9690   75.8780  221.2110 C   0  0  0  0  0  0  0  0  0  0  0  0
  138.9900   76.3550  221.9050 O   0  0  0  0  0  0  0  0  0  0  0  0
  140.8570   76.7940  220.5930 N   0  0  0  0  0  0  0  0  0  0  0  0
  142.0610   76.7880  219.7690 C   0  0  0  0  0  0  0  0  0  0  0  0
  141.9840   78.2790  219.5240 C   0  0  0  0  0  0  0  0  0  0  0  0
  140.9150   78.2420  220.5560 C   0  0  2  0  0  0  0  0  0  0  0  0
  141.3250   78.9560  221.8010 C   0  0  0  0  0  0  0  0  0  0  0  0
  141.4420   78.1030  223.0090 C   0  0  0  0  0  0  0  0  0  0  0  0
  141.6660   78.9900  224.2120 C   0  0  0  0  0  0  0  0  0  0  0  0
  142.3410   80.2920  223.8300 C   0  0  0  0  0  0  0  0  0  0  0  0
  141.3320   81.0880  223.0250 C   0  0  0  0  0  0  0  0  0  0  0  0
  140.5110   80.1810  222.1260 C   0  0  0  0  0  0  0  0  0  0  0  0
  140.1790   71.5010  223.5500 C   0  0  0  0  0  0  0  0  0  0  0  0
  139.5470   70.2810  223.4440 C   0  0  0  0  0  0  0  0  0  0  0  0
  139.3820   69.4390  224.5280 C   0  0  0  0  0  0  0  0  0  0  0  0
  139.8830   69.8740  225.7440 C   0  0  0  0  0  0  0  0  0  0  0  0
  139.7280   69.0490  226.8340 C   0  0  0  0  0  0  0  0  0  0  0  0
  140.2280   69.4760  228.0630 C   0  0  0  0  0  0  0  0  0  0  0  0
  140.0450   68.6210  229.1010 F   0  0  0  0  0  0  0  0  0  0  0  0
  140.8600   70.6910  228.1830 C   0  0  0  0  0  0  0  0  0  0  0  0
  141.0010   71.5040  227.0570 C   0  0  0  0  0  0  0  0  0  0  0  0
  140.5130   71.1060  225.8160 C   0  0  0  0  0  0  0  0  0  0  0  0
  140.6590   71.9050  224.7420 N   0  0  0  0  0  0  0  0  0  0  0  0
  139.5250   74.0310  223.2670 H   0  0  0  0  0  0  0  0  0  0  0  0
  141.0152   74.1579  220.7240 H   0  0  0  0  0  0  0  0  0  0  0  0
  139.1592   74.1331  220.5519 H   0  0  0  0  0  0  0  0  0  0  0  0
  142.9647   76.4791  220.3148 H   0  0  0  0  0  0  0  0  0  0  0  0
  142.1134   76.1077  218.9062 H   0  0  0  0  0  0  0  0  0  0  0  0
  142.8841   78.8486  219.7984 H   0  0  0  0  0  0  0  0  0  0  0  0
  141.8487   78.7232  218.5268 H   0  0  0  0  0  0  0  0  0  0  0  0
  139.9502   78.7433  220.3888 H   0  0  0  0  0  0  0  0  0  0  0  0
  142.3388   79.2866  221.5311 H   0  0  0  0  0  0  0  0  0  0  0  0
  140.5164   77.5241  223.1438 H   0  0  0  0  0  0  0  0  0  0  0  0
  142.2867   77.4076  222.8950 H   0  0  0  0  0  0  0  0  0  0  0  0
  140.6939   79.2148  224.6752 H   0  0  0  0  0  0  0  0  0  0  0  0
  142.3230   78.4561  224.9143 H   0  0  0  0  0  0  0  0  0  0  0  0
  142.6286   80.8490  224.7339 H   0  0  0  0  0  0  0  0  0  0  0  0
  143.2546   80.1068  223.2460 H   0  0  0  0  0  0  0  0  0  0  0  0
  140.6574   81.6153  223.7155 H   0  0  0  0  0  0  0  0  0  0  0  0
  141.8770   81.8050  222.3934 H   0  0  0  0  0  0  0  0  0  0  0  0
  139.5871   79.8845  222.6442 H   0  0  0  0  0  0  0  0  0  0  0  0
  140.2472   80.7118  221.1994 H   0  0  0  0  0  0  0  0  0  0  0  0
  139.1606   69.9664  222.4633 H   0  0  0  0  0  0  0  0  0  0  0  0
  138.8757   68.4674  224.4293 H   0  0  0  0  0  0  0  0  0  0  0  0
  139.2222   68.0769  226.7380 H   0  0  0  0  0  0  0  0  0  0  0  0
  141.2510   71.0195  229.1573 H   0  0  0  0  0  0  0  0  0  0  0  0
  141.5067   72.4762  227.1523 H   0  0  0  0  0  0  0  0  0  0  0  0
  1  2  2  0
  2  3  1  0
  3  4  1  0
  4  5  1  0
  5  6  2  0
  5  7  1  0
  7  8  1  0
  8  9  1  0
  9 10  1  0
 10 11  1  0
 11 12  1  0
 12 13  1  0
 13 14  1  0
 14 15  1  0
 15 16  1  0
  2 17  1  0
 17 18  2  0
 18 19  1  0
 19 20  2  0
 20 21  1  0
 21 22  2  0
 22 23  1  0
 22 24  1  0
 24 25  2  0
 25 26  1  0
 26 27  2  0
 10  7  1  0
 16 11  1  0
 27 17  1  0
 26 20  1  0
  3 28  1  0
  4 29  1  0
  4 30  1  0
  8 31  1  0
  8 32  1  0
  9 33  1  0
  9 34  1  0
 10 35  1  6
 11 36  1  0
 12 37  1  0
 12 38  1  0
 13 39  1  0
 13 40  1  0
 14 41  1  0
 14 42  1  0
 15 43  1  0
 15 44  1  0
 16 45  1  0
 16 46  1  0
 18 47  1  0
 19 48  1  0
 21 49  1  0
 24 50  1  0
 25 51  1  0
M  END
>  <smiles>  (35) 
O=C(NCC(=O)N1CCC1C1CCCCC1)c1ccc2cc(F)ccc2n1

>  <score_type>  (35) 
oracle

>  <origin>  (35) 
autodockgpu

>  <m_score__min__energy>  (35) 
-8.9299999999999997

>  <m_primary>  (35) 
energy

>  <rmsd>  (35) 
2.824091874178476

>  <m_score__min__rmsd>  (35) 
2.824091874178476

>  <meeko>  (35) 
{"free_energy": -8.49, "intermolecular_energy": -9.98, "internal_energy": -1.25, "cluster_size": 22, "cluster_id": 1, "rank_in_cluster": 19}

>  <energy>  (35) 
-8.41

>  <cluster_rmsd>  (35) 
0.87

>  <cluster>  (35) 
2

$$$$

     RDKit          3D

 51 54  0  0  0  0  0  0  0  0999 V2000
  141.5420   73.3810  220.8100 O   0  0  0  0  0  0  0  0  0  0  0  0
  140.8460   74.1970  221.4690 C   0  0  0  0  0  0  0  0  0  0  0  0
  139.7580   73.6360  222.2380 N   0  0  0  0  0  0  0  0  0  0  0  0
  139.5790   72.2310  222.1780 C   0  0  0  0  0  0  0  0  0  0  0  0
  138.5890   71.6250  223.0610 C   0  0  0  0  0  0  0  0  0  0  0  0
  137.4720   72.2660  223.1570 O   0  0  0  0  0  0  0  0  0  0  0  0
  138.7350   70.4260  223.8040 N   0  0  0  0  0  0  0  0  0  0  0  0
  137.9650   69.2390  224.1560 C   0  0  0  0  0  0  0  0  0  0  0  0
  139.1690   68.5540  224.7660 C   0  0  0  0  0  0  0  0  0  0  0  0
  139.8220   69.8780  224.5890 C   0  0  2  0  0  0  0  0  0  0  0  0
  140.1280   70.5210  225.9020 C   0  0  0  0  0  0  0  0  0  0  0  0
  141.0540   71.6780  225.8380 C   0  0  0  0  0  0  0  0  0  0  0  0
  141.4190   72.0890  227.2450 C   0  0  0  0  0  0  0  0  0  0  0  0
  140.3310   71.7240  228.2350 C   0  0  0  0  0  0  0  0  0  0  0  0
  140.3170   70.2110  228.3330 C   0  0  0  0  0  0  0  0  0  0  0  0
  140.5810   69.5720  226.9800 C   0  0  0  0  0  0  0  0  0  0  0  0
  141.0870   75.6310  221.4830 C   0  0  0  0  0  0  0  0  0  0  0  0
  141.8010   76.1700  220.4350 C   0  0  0  0  0  0  0  0  0  0  0  0
  142.0850   77.5200  220.3530 C   0  0  0  0  0  0  0  0  0  0  0  0
  141.6190   78.3240  221.3800 C   0  0  0  0  0  0  0  0  0  0  0  0
  141.8920   79.6710  221.3150 C   0  0  0  0  0  0  0  0  0  0  0  0
  141.4280   80.4900  222.3440 C   0  0  0  0  0  0  0  0  0  0  0  0
  141.7280   81.8080  222.2260 F   0  0  0  0  0  0  0  0  0  0  0  0
  140.7150   79.9650  223.3960 C   0  0  0  0  0  0  0  0  0  0  0  0
  140.4550   78.5930  223.4310 C   0  0  0  0  0  0  0  0  0  0  0  0
  140.9040   77.7490  222.4200 C   0  0  0  0  0  0  0  0  0  0  0  0
  140.6430   76.4300  222.4720 N   0  0  0  0  0  0  0  0  0  0  0  0
  139.2030   74.3290  222.7730 H   0  0  0  0  0  0  0  0  0  0  0  0
  139.2912   71.9825  221.1458 H   0  0  0  0  0  0  0  0  0  0  0  0
  140.5394   71.8185  222.5208 H   0  0  0  0  0  0  0  0  0  0  0  0
  137.1598   69.4368  224.8789 H   0  0  0  0  0  0  0  0  0  0  0  0
  137.3972   68.7194  223.3702 H   0  0  0  0  0  0  0  0  0  0  0  0
  139.0461   68.2247  225.8083 H   0  0  0  0  0  0  0  0  0  0  0  0
  139.5909   67.6133  224.3825 H   0  0  0  0  0  0  0  0  0  0  0  0
  140.8173   69.9605  224.1280 H   0  0  0  0  0  0  0  0  0  0  0  0
  139.1378   70.9069  226.1857 H   0  0  0  0  0  0  0  0  0  0  0  0
  141.9634   71.3935  225.2884 H   0  0  0  0  0  0  0  0  0  0  0  0
  140.5680   72.5168  225.3182 H   0  0  0  0  0  0  0  0  0  0  0  0
  142.3502   71.5802  227.5349 H   0  0  0  0  0  0  0  0  0  0  0  0
  141.5455   73.1816  227.2615 H   0  0  0  0  0  0  0  0  0  0  0  0
  140.5505   72.1651  229.2185 H   0  0  0  0  0  0  0  0  0  0  0  0
  139.3537   72.1071  227.9062 H   0  0  0  0  0  0  0  0  0  0  0  0
  141.0960   69.8897  229.0400 H   0  0  0  0  0  0  0  0  0  0  0  0
  139.3233   69.8929  228.6813 H   0  0  0  0  0  0  0  0  0  0  0  0
  141.6568   69.3716  226.8687 H   0  0  0  0  0  0  0  0  0  0  0  0
  140.0308   68.6229  226.8997 H   0  0  0  0  0  0  0  0  0  0  0  0
  142.1571   75.5028  219.6362 H   0  0  0  0  0  0  0  0  0  0  0  0
  142.6555   77.9372  219.5101 H   0  0  0  0  0  0  0  0  0  0  0  0
  142.4616   80.0911  220.4730 H   0  0  0  0  0  0  0  0  0  0  0  0
  140.3527   80.6194  224.2026 H   0  0  0  0  0  0  0  0  0  0  0  0
  139.8852   78.1724  224.2727 H   0  0  0  0  0  0  0  0  0  0  0  0
  1  2  2  0
  2  3  1  0
  3  4  1  0
  4  5  1  0
  5  6  2  0
  5  7  1  0
  7  8  1  0
  8  9  1  0
  9 10  1  0
 10 11  1  0
 11 12  1  0
 12 13  1  0
 13 14  1  0
 14 15  1  0
 15 16  1  0
  2 17  1  0
 17 18  2  0
 18 19  1  0
 19 20  2  0
 20 21  1  0
 21 22  2  0
 22 23  1  0
 22 24  1  0
 24 25  2  0
 25 26  1  0
 26 27  2  0
 10  7  1  0
 16 11  1  0
 27 17  1  0
 26 20  1  0
  3 28  1  0
  4 29  1  0
  4 30  1  0
  8 31  1  0
  8 32  1  0
  9 33  1  0
  9 34  1  0
 10 35  1  6
 11 36  1  0
 12 37  1  0
 12 38  1  0
 13 39  1  0
 13 40  1  0
 14 41  1  0
 14 42  1  0
 15 43  1  0
 15 44  1  0
 16 45  1  0
 16 46  1  0
 18 47  1  0
 19 48  1  0
 21 49  1  0
 24 50  1  0
 25 51  1  0
M  END
>  <smiles>  (36) 
O=C(NCC(=O)N1CCC1C1CCCCC1)c1ccc2cc(F)ccc2n1

>  <score_type>  (36) 
oracle

>  <origin>  (36) 
autodockgpu

>  <m_score__min__energy>  (36) 
-8.9299999999999997

>  <m_primary>  (36) 
energy

>  <rmsd>  (36) 
8.610307397569423

>  <m_score__min__rmsd>  (36) 
8.610307397569423

>  <meeko>  (36) 
{"free_energy": -8.39, "intermolecular_energy": -9.88, "internal_energy": -1.47, "cluster_size": 21, "cluster_id": 2, "rank_in_cluster": 14}

>  <energy>  (36) 
-8.39

>  <cluster_rmsd>  (36) 
0.9

>  <cluster>  (36) 
2

$$$$

     RDKit          3D

 51 54  0  0  0  0  0  0  0  0999 V2000
  141.0770   71.9620  221.3790 O   0  0  0  0  0  0  0  0  0  0  0  0
  140.4150   72.3180  222.3900 C   0  0  0  0  0  0  0  0  0  0  0  0
  139.7910   73.6200  222.3210 N   0  0  0  0  0  0  0  0  0  0  0  0
  139.9820   74.3680  221.1320 C   0  0  0  0  0  0  0  0  0  0  0  0
  140.1300   75.8150  221.2460 C   0  0  0  0  0  0  0  0  0  0  0  0
  139.3400   76.3840  222.0950 O   0  0  0  0  0  0  0  0  0  0  0  0
  141.0380   76.6330  220.5280 N   0  0  0  0  0  0  0  0  0  0  0  0
  142.2110   76.5000  219.6720 C   0  0  0  0  0  0  0  0  0  0  0  0
  142.1950   77.9680  219.3050 C   0  0  0  0  0  0  0  0  0  0  0  0
  141.1600   78.0680  220.3670 C   0  0  2  0  0  0  0  0  0  0  0  0
  141.6450   78.8620  221.5360 C   0  0  0  0  0  0  0  0  0  0  0  0
  141.4440   78.2240  222.8600 C   0  0  0  0  0  0  0  0  0  0  0  0
  141.7960   79.2200  223.9400 C   0  0  0  0  0  0  0  0  0  0  0  0
  142.8120   80.2350  223.4550 C   0  0  0  0  0  0  0  0  0  0  0  0
  142.1090   81.1040  222.4300 C   0  0  0  0  0  0  0  0  0  0  0  0
  141.1530   80.2840  221.5820 C   0  0  0  0  0  0  0  0  0  0  0  0
  140.2620   71.4960  223.5790 C   0  0  0  0  0  0  0  0  0  0  0  0
  139.6290   70.2800  223.4410 C   0  0  0  0  0  0  0  0  0  0  0  0
  139.4330   69.4240  224.5080 C   0  0  0  0  0  0  0  0  0  0  0  0
  139.9040   69.8410  225.7420 C   0  0  0  0  0  0  0  0  0  0  0  0
  139.7180   69.0020  226.8170 C   0  0  0  0  0  0  0  0  0  0  0  0
  140.1880   69.4110  228.0640 C   0  0  0  0  0  0  0  0  0  0  0  0
  139.9760   68.5420  229.0850 F   0  0  0  0  0  0  0  0  0  0  0  0
  140.8220   70.6220  228.2170 C   0  0  0  0  0  0  0  0  0  0  0  0
  140.9940   71.4490  227.1050 C   0  0  0  0  0  0  0  0  0  0  0  0
  140.5370   71.0700  225.8470 C   0  0  0  0  0  0  0  0  0  0  0  0
  140.7130   71.8820  224.7880 N   0  0  0  0  0  0  0  0  0  0  0  0
  139.2510   73.8860  223.1650 H   0  0  0  0  0  0  0  0  0  0  0  0
  140.8917   73.9839  220.6472 H   0  0  0  0  0  0  0  0  0  0  0  0
  139.0459   74.2324  220.5704 H   0  0  0  0  0  0  0  0  0  0  0  0
  143.1175   76.1932  220.2144 H   0  0  0  0  0  0  0  0  0  0  0  0
  142.2023   75.7492  218.8682 H   0  0  0  0  0  0  0  0  0  0  0  0
  143.1290   78.5137  219.5045 H   0  0  0  0  0  0  0  0  0  0  0  0
  142.0477   78.3347  218.2784 H   0  0  0  0  0  0  0  0  0  0  0  0
  140.2139   78.5993  220.1862 H   0  0  0  0  0  0  0  0  0  0  0  0
  142.7276   78.8853  221.3425 H   0  0  0  0  0  0  0  0  0  0  0  0
  140.3927   77.9187  222.9673 H   0  0  0  0  0  0  0  0  0  0  0  0
  142.0866   77.3356  222.9477 H   0  0  0  0  0  0  0  0  0  0  0  0
  140.8824   79.7492  224.2487 H   0  0  0  0  0  0  0  0  0  0  0  0
  142.2364   78.6697  224.7845 H   0  0  0  0  0  0  0  0  0  0  0  0
  143.1633   80.8507  224.2962 H   0  0  0  0  0  0  0  0  0  0  0  0
  143.6884   79.7367  223.0151 H   0  0  0  0  0  0  0  0  0  0  0  0
  141.5428   81.8892  222.9524 H   0  0  0  0  0  0  0  0  0  0  0  0
  142.8679   81.5491  221.7697 H   0  0  0  0  0  0  0  0  0  0  0  0
  140.1469   80.3132  222.0257 H   0  0  0  0  0  0  0  0  0  0  0  0
  141.1073   80.6974  220.5636 H   0  0  0  0  0  0  0  0  0  0  0  0
  139.2669   69.9800  222.4465 H   0  0  0  0  0  0  0  0  0  0  0  0
  138.9261   68.4558  224.3831 H   0  0  0  0  0  0  0  0  0  0  0  0
  139.2113   68.0333  226.6953 H   0  0  0  0  0  0  0  0  0  0  0  0
  141.1898   70.9358  229.2051 H   0  0  0  0  0  0  0  0  0  0  0  0
  141.5002   72.4181  227.2261 H   0  0  0  0  0  0  0  0  0  0  0  0
  1  2  2  0
  2  3  1  0
  3  4  1  0
  4  5  1  0
  5  6  2  0
  5  7  1  0
  7  8  1  0
  8  9  1  0
  9 10  1  0
 10 11  1  0
 11 12  1  0
 12 13  1  0
 13 14  1  0
 14 15  1  0
 15 16  1  0
  2 17  1  0
 17 18  2  0
 18 19  1  0
 19 20  2  0
 20 21  1  0
 21 22  2  0
 22 23  1  0
 22 24  1  0
 24 25  2  0
 25 26  1  0
 26 27  2  0
 10  7  1  0
 16 11  1  0
 27 17  1  0
 26 20  1  0
  3 28  1  0
  4 29  1  0
  4 30  1  0
  8 31  1  0
  8 32  1  0
  9 33  1  0
  9 34  1  0
 10 35  1  6
 11 36  1  0
 12 37  1  0
 12 38  1  0
 13 39  1  0
 13 40  1  0
 14 41  1  0
 14 42  1  0
 15 43  1  0
 15 44  1  0
 16 45  1  0
 16 46  1  0
 18 47  1  0
 19 48  1  0
 21 49  1  0
 24 50  1  0
 25 51  1  0
M  END
>  <smiles>  (37) 
O=C(NCC(=O)N1CCC1C1CCCCC1)c1ccc2cc(F)ccc2n1

>  <score_type>  (37) 
oracle

>  <origin>  (37) 
autodockgpu

>  <m_score__min__energy>  (37) 
-8.9299999999999997

>  <m_primary>  (37) 
energy

>  <rmsd>  (37) 
2.7784814853976285

>  <m_score__min__rmsd>  (37) 
2.7784814853976285

>  <meeko>  (37) 
{"free_energy": -8.82, "intermolecular_energy": -10.31, "internal_energy": -1.17, "cluster_size": 22, "cluster_id": 1, "rank_in_cluster": 7}

>  <energy>  (37) 
-8.32

>  <cluster_rmsd>  (37) 
1.01

>  <cluster>  (37) 
2

$$$$

     RDKit          3D

 51 54  0  0  0  0  0  0  0  0999 V2000
  141.4910   73.4660  220.9960 O   0  0  0  0  0  0  0  0  0  0  0  0
  140.7740   74.3150  221.5900 C   0  0  0  0  0  0  0  0  0  0  0  0
  139.6530   73.7940  222.3390 N   0  0  0  0  0  0  0  0  0  0  0  0
  139.4680   72.3890  222.3360 C   0  0  0  0  0  0  0  0  0  0  0  0
  139.7580   71.6540  223.5620 C   0  0  0  0  0  0  0  0  0  0  0  0
  140.6920   72.1580  224.2990 O   0  0  0  0  0  0  0  0  0  0  0  0
  139.1260   70.4650  224.0080 N   0  0  0  0  0  0  0  0  0  0  0  0
  137.7880   69.8960  224.1170 C   0  0  0  0  0  0  0  0  0  0  0  0
  138.3240   68.5340  224.5020 C   0  0  0  0  0  0  0  0  0  0  0  0
  139.6280   69.2420  224.5990 C   0  0  2  0  0  0  0  0  0  0  0  0
  140.1200   69.2980  226.0090 C   0  0  0  0  0  0  0  0  0  0  0  0
  139.6150   68.2240  226.8970 C   0  0  0  0  0  0  0  0  0  0  0  0
  140.0360   68.5270  228.3170 C   0  0  0  0  0  0  0  0  0  0  0  0
  141.3040   69.3560  228.3590 C   0  0  0  0  0  0  0  0  0  0  0  0
  140.9470   70.7300  227.8270 C   0  0  0  0  0  0  0  0  0  0  0  0
  139.9510   70.6330  226.6850 C   0  0  0  0  0  0  0  0  0  0  0  0
  141.0240   75.7470  221.5480 C   0  0  0  0  0  0  0  0  0  0  0  0
  141.5870   76.2650  220.4020 C   0  0  0  0  0  0  0  0  0  0  0  0
  141.8660   77.6110  220.2610 C   0  0  0  0  0  0  0  0  0  0  0  0
  141.5530   78.4330  221.3320 C   0  0  0  0  0  0  0  0  0  0  0  0
  141.8230   79.7770  221.2090 C   0  0  0  0  0  0  0  0  0  0  0  0
  141.5120   80.6140  222.2800 C   0  0  0  0  0  0  0  0  0  0  0  0
  141.8010   81.9280  222.1020 F   0  0  0  0  0  0  0  0  0  0  0  0
  140.9490   80.1100  223.4300 C   0  0  0  0  0  0  0  0  0  0  0  0
  140.6880   78.7410  223.5200 C   0  0  0  0  0  0  0  0  0  0  0  0
  140.9860   77.8790  222.4690 C   0  0  0  0  0  0  0  0  0  0  0  0
  140.7270   76.5630  222.5780 N   0  0  0  0  0  0  0  0  0  0  0  0
  139.0820   74.5140  222.8200 H   0  0  0  0  0  0  0  0  0  0  0  0
  138.4144   72.1991  222.0831 H   0  0  0  0  0  0  0  0  0  0  0  0
  140.2093   72.0176  221.6132 H   0  0  0  0  0  0  0  0  0  0  0  0
  137.1747   70.3639  224.9012 H   0  0  0  0  0  0  0  0  0  0  0  0
  137.1025   69.9769  223.2605 H   0  0  0  0  0  0  0  0  0  0  0  0
  137.9379   68.1257  225.4476 H   0  0  0  0  0  0  0  0  0  0  0  0
  138.1691   67.6281  223.8975 H   0  0  0  0  0  0  0  0  0  0  0  0
  140.5315   68.8320  224.1241 H   0  0  0  0  0  0  0  0  0  0  0  0
  141.1970   69.1266  225.8651 H   0  0  0  0  0  0  0  0  0  0  0  0
  138.5174   68.1812  226.8380 H   0  0  0  0  0  0  0  0  0  0  0  0
  140.0293   67.2544  226.5834 H   0  0  0  0  0  0  0  0  0  0  0  0
  139.2295   69.0830  228.8174 H   0  0  0  0  0  0  0  0  0  0  0  0
  140.2320   67.5730  228.8284 H   0  0  0  0  0  0  0  0  0  0  0  0
  141.6714   69.4340  229.3929 H   0  0  0  0  0  0  0  0  0  0  0  0
  142.0983   68.8931  227.7550 H   0  0  0  0  0  0  0  0  0  0  0  0
  140.5052   71.3259  228.6392 H   0  0  0  0  0  0  0  0  0  0  0  0
  141.8637   71.2078  227.4510 H   0  0  0  0  0  0  0  0  0  0  0  0
  138.9275   70.7220  227.0780 H   0  0  0  0  0  0  0  0  0  0  0  0
  140.1284   71.4438  225.9631 H   0  0  0  0  0  0  0  0  0  0  0  0
  141.8224   75.5838  219.5710 H   0  0  0  0  0  0  0  0  0  0  0  0
  142.3160   78.0118  219.3407 H   0  0  0  0  0  0  0  0  0  0  0  0
  142.2725   80.1804  220.2896 H   0  0  0  0  0  0  0  0  0  0  0  0
  140.7071   80.7783  224.2695 H   0  0  0  0  0  0  0  0  0  0  0  0
  140.2385   78.3365  224.4389 H   0  0  0  0  0  0  0  0  0  0  0  0
  1  2  2  0
  2  3  1  0
  3  4  1  0
  4  5  1  0
  5  6  2  0
  5  7  1  0
  7  8  1  0
  8  9  1  0
  9 10  1  0
 10 11  1  0
 11 12  1  0
 12 13  1  0
 13 14  1  0
 14 15  1  0
 15 16  1  0
  2 17  1  0
 17 18  2  0
 18 19  1  0
 19 20  2  0
 20 21  1  0
 21 22  2  0
 22 23  1  0
 22 24  1  0
 24 25  2  0
 25 26  1  0
 26 27  2  0
 10  7  1  0
 16 11  1  0
 27 17  1  0
 26 20  1  0
  3 28  1  0
  4 29  1  0
  4 30  1  0
  8 31  1  0
  8 32  1  0
  9 33  1  0
  9 34  1  0
 10 35  1  6
 11 36  1  0
 12 37  1  0
 12 38  1  0
 13 39  1  0
 13 40  1  0
 14 41  1  0
 14 42  1  0
 15 43  1  0
 15 44  1  0
 16 45  1  0
 16 46  1  0
 18 47  1  0
 19 48  1  0
 21 49  1  0
 24 50  1  0
 25 51  1  0
M  END
>  <smiles>  (38) 
O=C(NCC(=O)N1CCC1C1CCCCC1)c1ccc2cc(F)ccc2n1

>  <score_type>  (38) 
oracle

>  <origin>  (38) 
autodockgpu

>  <m_score__min__energy>  (38) 
-8.9299999999999997

>  <m_primary>  (38) 
energy

>  <rmsd>  (38) 
8.992731905420113

>  <m_score__min__rmsd>  (38) 
8.992731905420113

>  <meeko>  (38) 
{"free_energy": -8.31, "intermolecular_energy": -9.8, "internal_energy": -1.23, "cluster_size": 21, "cluster_id": 2, "rank_in_cluster": 16}

>  <energy>  (38) 
-8.31

>  <cluster_rmsd>  (38) 
0.79

>  <cluster>  (38) 
2

$$$$

     RDKit          3D

 51 54  0  0  0  0  0  0  0  0999 V2000
  141.1280   73.7800  220.6240 O   0  0  0  0  0  0  0  0  0  0  0  0
  140.6120   74.5720  221.4570 C   0  0  0  0  0  0  0  0  0  0  0  0
  139.6220   74.0100  222.3460 N   0  0  0  0  0  0  0  0  0  0  0  0
  139.3260   72.6310  222.2000 C   0  0  0  0  0  0  0  0  0  0  0  0
  139.8520   71.7060  223.1970 C   0  0  0  0  0  0  0  0  0  0  0  0
  141.0750   71.9170  223.5550 O   0  0  0  0  0  0  0  0  0  0  0  0
  139.1610   70.6210  223.7960 N   0  0  0  0  0  0  0  0  0  0  0  0
  137.7970   70.1380  223.9710 C   0  0  0  0  0  0  0  0  0  0  0  0
  138.2640   68.8160  224.5400 C   0  0  0  0  0  0  0  0  0  0  0  0
  139.6010   69.4660  224.5510 C   0  0  2  0  0  0  0  0  0  0  0  0
  140.0950   69.6890  225.9430 C   0  0  0  0  0  0  0  0  0  0  0  0
  139.4800   68.8210  226.9770 C   0  0  0  0  0  0  0  0  0  0  0  0
  139.9280   69.2950  228.3400 C   0  0  0  0  0  0  0  0  0  0  0  0
  141.2750   69.9870  228.2770 C   0  0  0  0  0  0  0  0  0  0  0  0
  141.0620   71.2920  227.5340 C   0  0  0  0  0  0  0  0  0  0  0  0
  140.0630   71.1220  226.4030 C   0  0  0  0  0  0  0  0  0  0  0  0
  140.9640   75.9790  221.5490 C   0  0  0  0  0  0  0  0  0  0  0  0
  141.5500   76.5670  220.4490 C   0  0  0  0  0  0  0  0  0  0  0  0
  141.9230   77.8980  220.4340 C   0  0  0  0  0  0  0  0  0  0  0  0
  141.6820   78.6300  221.5850 C   0  0  0  0  0  0  0  0  0  0  0  0
  142.0470   79.9580  221.5880 C   0  0  0  0  0  0  0  0  0  0  0  0
  141.8100   80.7050  222.7410 C   0  0  0  0  0  0  0  0  0  0  0  0
  142.1910   82.0060  222.6850 F   0  0  0  0  0  0  0  0  0  0  0  0
  141.2270   80.1310  223.8470 C   0  0  0  0  0  0  0  0  0  0  0  0
  140.8690   78.7820  223.8090 C   0  0  0  0  0  0  0  0  0  0  0  0
  141.0910   78.0090  222.6740 C   0  0  0  0  0  0  0  0  0  0  0  0
  140.7400   76.7100  222.6590 N   0  0  0  0  0  0  0  0  0  0  0  0
  139.2160   74.6830  223.0220 H   0  0  0  0  0  0  0  0  0  0  0  0
  138.2307   72.5297  222.2062 H   0  0  0  0  0  0  0  0  0  0  0  0
  139.8287   72.3408  221.2656 H   0  0  0  0  0  0  0  0  0  0  0  0
  137.2071   70.7370  224.6804 H   0  0  0  0  0  0  0  0  0  0  0  0
  137.1172   70.1358  223.1062 H   0  0  0  0  0  0  0  0  0  0  0  0
  137.8570   68.5584  225.5289 H   0  0  0  0  0  0  0  0  0  0  0  0
  138.0651   67.8455  224.0619 H   0  0  0  0  0  0  0  0  0  0  0  0
  140.4832   68.9507  224.1433 H   0  0  0  0  0  0  0  0  0  0  0  0
  141.1491   69.3898  225.8457 H   0  0  0  0  0  0  0  0  0  0  0  0
  138.3839   68.8816  226.9064 H   0  0  0  0  0  0  0  0  0  0  0  0
  139.7922   67.7775  226.8230 H   0  0  0  0  0  0  0  0  0  0  0  0
  139.1825   70.0009  228.7349 H   0  0  0  0  0  0  0  0  0  0  0  0
  140.0237   68.4163  228.9947 H   0  0  0  0  0  0  0  0  0  0  0  0
  141.6466   70.1859  229.2930 H   0  0  0  0  0  0  0  0  0  0  0  0
  142.0186   69.3581  227.7656 H   0  0  0  0  0  0  0  0  0  0  0  0
  140.6827   72.0478  228.2374 H   0  0  0  0  0  0  0  0  0  0  0  0
  142.0237   71.6101  227.1051 H   0  0  0  0  0  0  0  0  0  0  0  0
  139.0534   71.3739  226.7597 H   0  0  0  0  0  0  0  0  0  0  0  0
  140.3239   71.7897  225.5686 H   0  0  0  0  0  0  0  0  0  0  0  0
  141.7271   75.9559  219.5517 H   0  0  0  0  0  0  0  0  0  0  0  0
  142.3897   78.3548  219.5488 H   0  0  0  0  0  0  0  0  0  0  0  0
  142.5133   80.4172  220.7039 H   0  0  0  0  0  0  0  0  0  0  0  0
  141.0447   80.7288  224.7522 H   0  0  0  0  0  0  0  0  0  0  0  0
  140.4029   78.3220  224.6928 H   0  0  0  0  0  0  0  0  0  0  0  0
  1  2  2  0
  2  3  1  0
  3  4  1  0
  4  5  1  0
  5  6  2  0
  5  7  1  0
  7  8  1  0
  8  9  1  0
  9 10  1  0
 10 11  1  0
 11 12  1  0
 12 13  1  0
 13 14  1  0
 14 15  1  0
 15 16  1  0
  2 17  1  0
 17 18  2  0
 18 19  1  0
 19 20  2  0
 20 21  1  0
 21 22  2  0
 22 23  1  0
 22 24  1  0
 24 25  2  0
 25 26  1  0
 26 27  2  0
 10  7  1  0
 16 11  1  0
 27 17  1  0
 26 20  1  0
  3 28  1  0
  4 29  1  0
  4 30  1  0
  8 31  1  0
  8 32  1  0
  9 33  1  0
  9 34  1  0
 10 35  1  6
 11 36  1  0
 12 37  1  0
 12 38  1  0
 13 39  1  0
 13 40  1  0
 14 41  1  0
 14 42  1  0
 15 43  1  0
 15 44  1  0
 16 45  1  0
 16 46  1  0
 18 47  1  0
 19 48  1  0
 21 49  1  0
 24 50  1  0
 25 51  1  0
M  END
>  <smiles>  (39) 
O=C(NCC(=O)N1CCC1C1CCCCC1)c1ccc2cc(F)ccc2n1

>  <score_type>  (39) 
oracle

>  <origin>  (39) 
autodockgpu

>  <m_score__min__energy>  (39) 
-8.9299999999999997

>  <m_primary>  (39) 
energy

>  <rmsd>  (39) 
8.909193618477705

>  <m_score__min__rmsd>  (39) 
8.909193618477705

>  <meeko>  (39) 
{"free_energy": -8.26, "intermolecular_energy": -9.75, "internal_energy": -1.32, "cluster_size": 21, "cluster_id": 2, "rank_in_cluster": 19}

>  <energy>  (39) 
-8.3

>  <cluster_rmsd>  (39) 
1.05

>  <cluster>  (39) 
2

$$$$

     RDKit          3D

 51 54  0  0  0  0  0  0  0  0999 V2000
  140.9850   71.8660  221.3450 O   0  0  0  0  0  0  0  0  0  0  0  0
  140.3690   72.2640  222.3690 C   0  0  0  0  0  0  0  0  0  0  0  0
  139.7930   73.5870  222.2960 N   0  0  0  0  0  0  0  0  0  0  0  0
  139.9720   74.3070  221.0870 C   0  0  0  0  0  0  0  0  0  0  0  0
  140.9900   75.3500  221.0520 C   0  0  0  0  0  0  0  0  0  0  0  0
  141.0710   76.0770  222.1170 O   0  0  0  0  0  0  0  0  0  0  0  0
  141.8780   75.6330  219.9830 N   0  0  0  0  0  0  0  0  0  0  0  0
  141.8340   75.9550  218.5620 C   0  0  0  0  0  0  0  0  0  0  0  0
  143.3140   76.2700  218.5170 C   0  0  0  0  0  0  0  0  0  0  0  0
  143.3220   75.7040  219.8910 C   0  0  2  0  0  0  0  0  0  0  0  0
  144.0890   74.4240  219.9560 C   0  0  0  0  0  0  0  0  0  0  0  0
  143.2820   73.2190  220.2640 C   0  0  0  0  0  0  0  0  0  0  0  0
  144.2150   72.0520  220.4900 C   0  0  0  0  0  0  0  0  0  0  0  0
  145.5190   72.2250  219.7370 C   0  0  0  0  0  0  0  0  0  0  0  0
  146.2620   73.3660  220.4040 C   0  0  0  0  0  0  0  0  0  0  0  0
  145.3040   74.4590  220.8450 C   0  0  0  0  0  0  0  0  0  0  0  0
  140.2250   71.4690  223.5780 C   0  0  0  0  0  0  0  0  0  0  0  0
  139.5830   70.2550  223.4740 C   0  0  0  0  0  0  0  0  0  0  0  0
  139.3930   69.4240  224.5620 C   0  0  0  0  0  0  0  0  0  0  0  0
  139.8800   69.8660  225.7810 C   0  0  0  0  0  0  0  0  0  0  0  0
  139.7010   69.0510  226.8760 C   0  0  0  0  0  0  0  0  0  0  0  0
  140.1870   69.4850  228.1090 C   0  0  0  0  0  0  0  0  0  0  0  0
  139.9810   68.6410  229.1510 F   0  0  0  0  0  0  0  0  0  0  0  0
  140.8300   70.6950  228.2280 C   0  0  0  0  0  0  0  0  0  0  0  0
  140.9950   71.4960  227.0960 C   0  0  0  0  0  0  0  0  0  0  0  0
  140.5220   71.0920  225.8520 C   0  0  0  0  0  0  0  0  0  0  0  0
  140.6910   71.8800  224.7730 N   0  0  0  0  0  0  0  0  0  0  0  0
  139.2900   73.8880  223.1510 H   0  0  0  0  0  0  0  0  0  0  0  0
  140.2272   73.5755  220.3062 H   0  0  0  0  0  0  0  0  0  0  0  0
  139.0235   74.8463  220.9473 H   0  0  0  0  0  0  0  0  0  0  0  0
  141.5472   75.1032  217.9278 H   0  0  0  0  0  0  0  0  0  0  0  0
  141.1169   76.7105  218.2083 H   0  0  0  0  0  0  0  0  0  0  0  0
  143.8935   75.7058  217.7715 H   0  0  0  0  0  0  0  0  0  0  0  0
  143.7155   77.2633  218.2677 H   0  0  0  0  0  0  0  0  0  0  0  0
  143.8162   76.2351  220.7179 H   0  0  0  0  0  0  0  0  0  0  0  0
  144.4350   74.3310  218.9160 H   0  0  0  0  0  0  0  0  0  0  0  0
  142.6850   73.3959  221.1708 H   0  0  0  0  0  0  0  0  0  0  0  0
  142.6047   72.9988  219.4257 H   0  0  0  0  0  0  0  0  0  0  0  0
  144.4319   71.9717  221.5654 H   0  0  0  0  0  0  0  0  0  0  0  0
  143.7222   71.1412  220.1191 H   0  0  0  0  0  0  0  0  0  0  0  0
  146.1140   71.3015  219.7931 H   0  0  0  0  0  0  0  0  0  0  0  0
  145.3354   72.4414  218.6742 H   0  0  0  0  0  0  0  0  0  0  0  0
  146.7968   72.9803  221.2845 H   0  0  0  0  0  0  0  0  0  0  0  0
  146.9695   73.7936  219.6783 H   0  0  0  0  0  0  0  0  0  0  0  0
  145.0035   74.2886  221.8893 H   0  0  0  0  0  0  0  0  0  0  0  0
  145.7951   75.4404  220.7699 H   0  0  0  0  0  0  0  0  0  0  0  0
  139.2082   69.9355  222.4904 H   0  0  0  0  0  0  0  0  0  0  0  0
  138.8789   68.4565  224.4643 H   0  0  0  0  0  0  0  0  0  0  0  0
  139.1880   68.0826  226.7808 H   0  0  0  0  0  0  0  0  0  0  0  0
  141.2104   71.0284  229.2048 H   0  0  0  0  0  0  0  0  0  0  0  0
  141.5085   72.4643  227.1899 H   0  0  0  0  0  0  0  0  0  0  0  0
  1  2  2  0
  2  3  1  0
  3  4  1  0
  4  5  1  0
  5  6  2  0
  5  7  1  0
  7  8  1  0
  8  9  1  0
  9 10  1  0
 10 11  1  0
 11 12  1  0
 12 13  1  0
 13 14  1  0
 14 15  1  0
 15 16  1  0
  2 17  1  0
 17 18  2  0
 18 19  1  0
 19 20  2  0
 20 21  1  0
 21 22  2  0
 22 23  1  0
 22 24  1  0
 24 25  2  0
 25 26  1  0
 26 27  2  0
 10  7  1  0
 16 11  1  0
 27 17  1  0
 26 20  1  0
  3 28  1  0
  4 29  1  0
  4 30  1  0
  8 31  1  0
  8 32  1  0
  9 33  1  0
  9 34  1  0
 10 35  1  1
 11 36  1  0
 12 37  1  0
 12 38  1  0
 13 39  1  0
 13 40  1  0
 14 41  1  0
 14 42  1  0
 15 43  1  0
 15 44  1  0
 16 45  1  0
 16 46  1  0
 18 47  1  0
 19 48  1  0
 21 49  1  0
 24 50  1  0
 25 51  1  0
M  END
>  <smiles>  (40) 
O=C(NCC(=O)N1CCC1C1CCCCC1)c1ccc2cc(F)ccc2n1

>  <score_type>  (40) 
oracle

>  <origin>  (40) 
autodockgpu

>  <m_score__min__energy>  (40) 
-8.9299999999999997

>  <m_primary>  (40) 
energy

>  <rmsd>  (40) 
2.5036724913008226

>  <m_score__min__rmsd>  (40) 
2.5036724913008226

>  <meeko>  (40) 
{"free_energy": -8.3, "intermolecular_energy": -9.79, "internal_energy": -1.48, "cluster_size": 5, "cluster_id": 3, "rank_in_cluster": 1}

>  <energy>  (40) 
-8.29

>  <cluster_rmsd>  (40) 
0.97

>  <cluster>  (40) 
2

$$$$

     RDKit          3D

 51 54  0  0  0  0  0  0  0  0999 V2000
  141.3080   72.5530  221.8840 O   0  0  0  0  0  0  0  0  0  0  0  0
  140.3060   72.4590  222.6400 C   0  0  0  0  0  0  0  0  0  0  0  0
  139.1920   73.3290  222.3390 N   0  0  0  0  0  0  0  0  0  0  0  0
  139.3310   74.1990  221.2290 C   0  0  0  0  0  0  0  0  0  0  0  0
  139.7420   75.5760  221.4810 C   0  0  0  0  0  0  0  0  0  0  0  0
  139.0520   76.2020  222.3750 O   0  0  0  0  0  0  0  0  0  0  0  0
  140.8050   76.2720  220.8510 N   0  0  0  0  0  0  0  0  0  0  0  0
  142.0880   75.9960  220.2150 C   0  0  0  0  0  0  0  0  0  0  0  0
  142.2260   77.4190  219.7190 C   0  0  0  0  0  0  0  0  0  0  0  0
  141.0440   77.6760  220.5830 C   0  0  2  0  0  0  0  0  0  0  0  0
  141.3870   78.5580  221.7390 C   0  0  0  0  0  0  0  0  0  0  0  0
  140.3550   78.6360  222.8010 C   0  0  0  0  0  0  0  0  0  0  0  0
  140.7550   79.7060  223.7910 C   0  0  0  0  0  0  0  0  0  0  0  0
  142.2580   79.8980  223.8300 C   0  0  0  0  0  0  0  0  0  0  0  0
  142.6550   80.5190  222.5050 C   0  0  0  0  0  0  0  0  0  0  0  0
  141.8320   79.9470  221.3640 C   0  0  0  0  0  0  0  0  0  0  0  0
  140.2330   71.5400  223.7650 C   0  0  0  0  0  0  0  0  0  0  0  0
  139.6490   70.3100  223.5520 C   0  0  0  0  0  0  0  0  0  0  0  0
  139.5300   69.3660  224.5530 C   0  0  0  0  0  0  0  0  0  0  0  0
  140.0260   69.7080  225.8010 C   0  0  0  0  0  0  0  0  0  0  0  0
  139.9170   68.7790  226.8110 C   0  0  0  0  0  0  0  0  0  0  0  0
  140.4130   69.1120  228.0710 C   0  0  0  0  0  0  0  0  0  0  0  0
  140.2760   68.1580  229.0260 F   0  0  0  0  0  0  0  0  0  0  0  0
  140.9970   70.3360  228.2990 C   0  0  0  0  0  0  0  0  0  0  0  0
  141.0930   71.2540  227.2510 C   0  0  0  0  0  0  0  0  0  0  0  0
  140.6080   70.9530  225.9820 C   0  0  0  0  0  0  0  0  0  0  0  0
  140.7090   71.8520  224.9860 N   0  0  0  0  0  0  0  0  0  0  0  0
  138.3800   73.2280  222.9750 H   0  0  0  0  0  0  0  0  0  0  0  0
  140.0786   73.7531  220.5564 H   0  0  0  0  0  0  0  0  0  0  0  0
  138.3127   74.2880  220.8226 H   0  0  0  0  0  0  0  0  0  0  0  0
  142.8749   75.7004  220.9245 H   0  0  0  0  0  0  0  0  0  0  0  0
  142.1583   75.1699  219.4921 H   0  0  0  0  0  0  0  0  0  0  0  0
  143.1500   77.9350  220.0191 H   0  0  0  0  0  0  0  0  0  0  0  0
  142.2678   77.6881  218.6532 H   0  0  0  0  0  0  0  0  0  0  0  0
  140.1754   78.2329  220.2017 H   0  0  0  0  0  0  0  0  0  0  0  0
  142.2541   78.0288  222.1610 H   0  0  0  0  0  0  0  0  0  0  0  0
  139.3828   78.8908  222.3538 H   0  0  0  0  0  0  0  0  0  0  0  0
  140.2710   77.6659  223.3126 H   0  0  0  0  0  0  0  0  0  0  0  0
  140.2815   80.6555  223.5008 H   0  0  0  0  0  0  0  0  0  0  0  0
  140.4230   79.3902  224.7910 H   0  0  0  0  0  0  0  0  0  0  0  0
  142.5329   80.5667  224.6591 H   0  0  0  0  0  0  0  0  0  0  0  0
  142.7743   78.9395  223.9870 H   0  0  0  0  0  0  0  0  0  0  0  0
  142.4931   81.6059  222.5549 H   0  0  0  0  0  0  0  0  0  0  0  0
  143.7153   80.2939  222.3177 H   0  0  0  0  0  0  0  0  0  0  0  0
  140.9518   80.5827  221.1874 H   0  0  0  0  0  0  0  0  0  0  0  0
  142.4372   79.9118  220.4461 H   0  0  0  0  0  0  0  0  0  0  0  0
  139.2641   70.0718  222.5494 H   0  0  0  0  0  0  0  0  0  0  0  0
  139.0629   68.3874  224.3681 H   0  0  0  0  0  0  0  0  0  0  0  0
  139.4508   67.7995  226.6289 H   0  0  0  0  0  0  0  0  0  0  0  0
  141.3846   70.5894  229.2968 H   0  0  0  0  0  0  0  0  0  0  0  0
  141.5606   72.2331  227.4320 H   0  0  0  0  0  0  0  0  0  0  0  0
  1  2  2  0
  2  3  1  0
  3  4  1  0
  4  5  1  0
  5  6  2  0
  5  7  1  0
  7  8  1  0
  8  9  1  0
  9 10  1  0
 10 11  1  0
 11 12  1  0
 12 13  1  0
 13 14  1  0
 14 15  1  0
 15 16  1  0
  2 17  1  0
 17 18  2  0
 18 19  1  0
 19 20  2  0
 20 21  1  0
 21 22  2  0
 22 23  1  0
 22 24  1  0
 24 25  2  0
 25 26  1  0
 26 27  2  0
 10  7  1  0
 16 11  1  0
 27 17  1  0
 26 20  1  0
  3 28  1  0
  4 29  1  0
  4 30  1  0
  8 31  1  0
  8 32  1  0
  9 33  1  0
  9 34  1  0
 10 35  1  6
 11 36  1  0
 12 37  1  0
 12 38  1  0
 13 39  1  0
 13 40  1  0
 14 41  1  0
 14 42  1  0
 15 43  1  0
 15 44  1  0
 16 45  1  0
 16 46  1  0
 18 47  1  0
 19 48  1  0
 21 49  1  0
 24 50  1  0
 25 51  1  0
M  END
>  <smiles>  (41) 
O=C(NCC(=O)N1CCC1C1CCCCC1)c1ccc2cc(F)ccc2n1

>  <score_type>  (41) 
oracle

>  <origin>  (41) 
autodockgpu

>  <m_score__min__energy>  (41) 
-8.9299999999999997

>  <m_primary>  (41) 
energy

>  <rmsd>  (41) 
2.729399741183985

>  <m_score__min__rmsd>  (41) 
2.729399741183985

>  <meeko>  (41) 
{"free_energy": -8.85, "intermolecular_energy": -10.34, "internal_energy": -1.09, "cluster_size": 22, "cluster_id": 1, "rank_in_cluster": 4}

>  <energy>  (41) 
-8.26

>  <cluster_rmsd>  (41) 
0.53

>  <cluster>  (41) 
2

$$$$

     RDKit          3D

 51 54  0  0  0  0  0  0  0  0999 V2000
  141.2750   72.4550  221.7750 O   0  0  0  0  0  0  0  0  0  0  0  0
  140.3220   72.4490  222.5990 C   0  0  0  0  0  0  0  0  0  0  0  0
  139.2640   73.4040  222.3610 N   0  0  0  0  0  0  0  0  0  0  0  0
  139.3970   74.2510  221.2320 C   0  0  0  0  0  0  0  0  0  0  0  0
  139.9040   75.6030  221.4410 C   0  0  0  0  0  0  0  0  0  0  0  0
  139.2640   76.3010  222.3190 O   0  0  0  0  0  0  0  0  0  0  0  0
  141.0070   76.2050  220.7850 N   0  0  0  0  0  0  0  0  0  0  0  0
  142.2870   75.8290  220.1950 C   0  0  0  0  0  0  0  0  0  0  0  0
  142.4980   77.2060  219.6050 C   0  0  0  0  0  0  0  0  0  0  0  0
  141.3150   77.5740  220.4260 C   0  0  2  0  0  0  0  0  0  0  0  0
  141.6790   78.5190  221.5240 C   0  0  0  0  0  0  0  0  0  0  0  0
  141.4270   78.0180  222.8970 C   0  0  0  0  0  0  0  0  0  0  0  0
  141.6550   79.1460  223.8770 C   0  0  0  0  0  0  0  0  0  0  0  0
  142.6450   80.1610  223.3420 C   0  0  0  0  0  0  0  0  0  0  0  0
  141.9650   80.8690  222.1860 C   0  0  0  0  0  0  0  0  0  0  0  0
  141.1100   79.9060  221.3800 C   0  0  0  0  0  0  0  0  0  0  0  0
  140.2530   71.5490  223.7390 C   0  0  0  0  0  0  0  0  0  0  0  0
  139.6880   70.3070  223.5410 C   0  0  0  0  0  0  0  0  0  0  0  0
  139.5740   69.3790  224.5580 C   0  0  0  0  0  0  0  0  0  0  0  0
  140.0540   69.7490  225.8040 C   0  0  0  0  0  0  0  0  0  0  0  0
  139.9490   68.8370  226.8290 C   0  0  0  0  0  0  0  0  0  0  0  0
  140.4300   69.1980  228.0870 C   0  0  0  0  0  0  0  0  0  0  0  0
  140.2980   68.2590  229.0570 F   0  0  0  0  0  0  0  0  0  0  0  0
  140.9950   70.4340  228.2980 C   0  0  0  0  0  0  0  0  0  0  0  0
  141.0860   71.3350  227.2360 C   0  0  0  0  0  0  0  0  0  0  0  0
  140.6170   71.0050  225.9680 C   0  0  0  0  0  0  0  0  0  0  0  0
  140.7140   71.8890  224.9580 N   0  0  0  0  0  0  0  0  0  0  0  0
  138.4920   73.3760  223.0520 H   0  0  0  0  0  0  0  0  0  0  0  0
  140.0793   73.7518  220.5282 H   0  0  0  0  0  0  0  0  0  0  0  0
  138.3659   74.3980  220.8782 H   0  0  0  0  0  0  0  0  0  0  0  0
  143.0476   75.5491  220.9388 H   0  0  0  0  0  0  0  0  0  0  0  0
  142.3317   74.9523  219.5322 H   0  0  0  0  0  0  0  0  0  0  0  0
  143.4394   77.7003  219.8869 H   0  0  0  0  0  0  0  0  0  0  0  0
  142.5698   77.3983  218.5243 H   0  0  0  0  0  0  0  0  0  0  0  0
  140.4786   78.1405  219.9906 H   0  0  0  0  0  0  0  0  0  0  0  0
  142.7691   78.5872  221.3931 H   0  0  0  0  0  0  0  0  0  0  0  0
  140.3887   77.6636  222.9764 H   0  0  0  0  0  0  0  0  0  0  0  0
  142.1088   77.1845  223.1216 H   0  0  0  0  0  0  0  0  0  0  0  0
  140.6965   79.6501  224.0698 H   0  0  0  0  0  0  0  0  0  0  0  0
  142.0682   78.7184  224.8024 H   0  0  0  0  0  0  0  0  0  0  0  0
  142.9073   80.8847  224.1278 H   0  0  0  0  0  0  0  0  0  0  0  0
  143.5737   79.6714  223.0137 H   0  0  0  0  0  0  0  0  0  0  0  0
  141.3254   81.6713  222.5826 H   0  0  0  0  0  0  0  0  0  0  0  0
  142.7410   81.2832  221.5255 H   0  0  0  0  0  0  0  0  0  0  0  0
  140.0769   79.9233  221.7574 H   0  0  0  0  0  0  0  0  0  0  0  0
  141.1085   80.2025  220.3207 H   0  0  0  0  0  0  0  0  0  0  0  0
  139.3154   70.0462  222.5394 H   0  0  0  0  0  0  0  0  0  0  0  0
  139.1225   68.3908  224.3863 H   0  0  0  0  0  0  0  0  0  0  0  0
  139.4972   67.8484  226.6603 H   0  0  0  0  0  0  0  0  0  0  0  0
  141.3715   70.7098  229.2941 H   0  0  0  0  0  0  0  0  0  0  0  0
  141.5367   72.3242  227.4043 H   0  0  0  0  0  0  0  0  0  0  0  0
  1  2  2  0
  2  3  1  0
  3  4  1  0
  4  5  1  0
  5  6  2  0
  5  7  1  0
  7  8  1  0
  8  9  1  0
  9 10  1  0
 10 11  1  0
 11 12  1  0
 12 13  1  0
 13 14  1  0
 14 15  1  0
 15 16  1  0
  2 17  1  0
 17 18  2  0
 18 19  1  0
 19 20  2  0
 20 21  1  0
 21 22  2  0
 22 23  1  0
 22 24  1  0
 24 25  2  0
 25 26  1  0
 26 27  2  0
 10  7  1  0
 16 11  1  0
 27 17  1  0
 26 20  1  0
  3 28  1  0
  4 29  1  0
  4 30  1  0
  8 31  1  0
  8 32  1  0
  9 33  1  0
  9 34  1  0
 10 35  1  6
 11 36  1  0
 12 37  1  0
 12 38  1  0
 13 39  1  0
 13 40  1  0
 14 41  1  0
 14 42  1  0
 15 43  1  0
 15 44  1  0
 16 45  1  0
 16 46  1  0
 18 47  1  0
 19 48  1  0
 21 49  1  0
 24 50  1  0
 25 51  1  0
M  END
>  <smiles>  (42) 
O=C(NCC(=O)N1CCC1C1CCCCC1)c1ccc2cc(F)ccc2n1

>  <score_type>  (42) 
oracle

>  <origin>  (42) 
autodockgpu

>  <m_score__min__energy>  (42) 
-8.9299999999999997

>  <m_primary>  (42) 
energy

>  <rmsd>  (42) 
2.7150455232763733

>  <m_score__min__rmsd>  (42) 
2.7150455232763733

>  <meeko>  (42) 
{"free_energy": -8.89, "intermolecular_energy": -10.38, "internal_energy": -1.12, "cluster_size": 22, "cluster_id": 1, "rank_in_cluster": 2}

>  <energy>  (42) 
-8.11

>  <cluster_rmsd>  (42) 
1.17

>  <cluster>  (42) 
2

$$$$

     RDKit          3D

 51 54  0  0  0  0  0  0  0  0999 V2000
  141.4810   73.4630  220.9700 O   0  0  0  0  0  0  0  0  0  0  0  0
  140.7190   74.2650  221.5720 C   0  0  0  0  0  0  0  0  0  0  0  0
  139.6010   73.6800  222.2770 N   0  0  0  0  0  0  0  0  0  0  0  0
  139.4680   72.2700  222.2250 C   0  0  0  0  0  0  0  0  0  0  0  0
  138.5020   71.6360  223.1150 C   0  0  0  0  0  0  0  0  0  0  0  0
  137.3780   72.2600  223.2420 O   0  0  0  0  0  0  0  0  0  0  0  0
  138.6800   70.4290  223.8380 N   0  0  0  0  0  0  0  0  0  0  0  0
  137.9340   69.2240  224.1830 C   0  0  0  0  0  0  0  0  0  0  0  0
  139.1580   68.5490  224.7630 C   0  0  0  0  0  0  0  0  0  0  0  0
  139.7880   69.8850  224.5960 C   0  0  2  0  0  0  0  0  0  0  0  0
  140.1050   70.5130  225.9140 C   0  0  0  0  0  0  0  0  0  0  0  0
  141.0100   71.6870  225.8530 C   0  0  0  0  0  0  0  0  0  0  0  0
  141.3920   72.0820  227.2600 C   0  0  0  0  0  0  0  0  0  0  0  0
  140.3270   71.6820  228.2620 C   0  0  0  0  0  0  0  0  0  0  0  0
  140.3410   70.1680  228.3360 C   0  0  0  0  0  0  0  0  0  0  0  0
  140.5920   69.5560  226.9690 C   0  0  0  0  0  0  0  0  0  0  0  0
  140.9170   75.7050  221.5820 C   0  0  0  0  0  0  0  0  0  0  0  0
  140.9340   76.3580  220.3680 C   0  0  0  0  0  0  0  0  0  0  0  0
  141.1160   77.7240  220.2670 C   0  0  0  0  0  0  0  0  0  0  0  0
  141.2840   78.4240  221.4510 C   0  0  0  0  0  0  0  0  0  0  0  0
  141.4660   79.7860  221.3700 C   0  0  0  0  0  0  0  0  0  0  0  0
  141.6350   80.5020  222.5540 C   0  0  0  0  0  0  0  0  0  0  0  0
  141.8110   81.8400  222.4120 F   0  0  0  0  0  0  0  0  0  0  0  0
  141.6210   79.8640  223.7720 C   0  0  0  0  0  0  0  0  0  0  0  0
  141.4330   78.4810  223.8180 C   0  0  0  0  0  0  0  0  0  0  0  0
  141.2610   77.7380  222.6550 C   0  0  0  0  0  0  0  0  0  0  0  0
  141.0820   76.4050  222.7210 N   0  0  0  0  0  0  0  0  0  0  0  0
  138.9920   74.3620  222.7650 H   0  0  0  0  0  0  0  0  0  0  0  0
  139.1846   72.0068  221.1953 H   0  0  0  0  0  0  0  0  0  0  0  0
  140.4428   71.8913  222.5663 H   0  0  0  0  0  0  0  0  0  0  0  0
  137.1373   69.3975  224.9214 H   0  0  0  0  0  0  0  0  0  0  0  0
  137.3620   68.7078  223.3979 H   0  0  0  0  0  0  0  0  0  0  0  0
  139.0570   68.2022  225.8020 H   0  0  0  0  0  0  0  0  0  0  0  0
  139.5879   67.6209  224.3583 H   0  0  0  0  0  0  0  0  0  0  0  0
  140.7742   69.9889  224.1201 H   0  0  0  0  0  0  0  0  0  0  0  0
  139.1131   70.8771  226.2199 H   0  0  0  0  0  0  0  0  0  0  0  0
  141.9146   71.4271  225.2837 H   0  0  0  0  0  0  0  0  0  0  0  0
  140.5009   72.5254  225.3551 H   0  0  0  0  0  0  0  0  0  0  0  0
  142.3367   71.5851  227.5260 H   0  0  0  0  0  0  0  0  0  0  0  0
  141.5002   73.1762  227.2922 H   0  0  0  0  0  0  0  0  0  0  0  0
  140.5551   72.1114  229.2487 H   0  0  0  0  0  0  0  0  0  0  0  0
  139.3378   72.0528  227.9554 H   0  0  0  0  0  0  0  0  0  0  0  0
  141.1379   69.8493  229.0241 H   0  0  0  0  0  0  0  0  0  0  0  0
  139.3594   69.8268  228.6966 H   0  0  0  0  0  0  0  0  0  0  0  0
  141.6690   69.3759  226.8364 H   0  0  0  0  0  0  0  0  0  0  0  0
  140.0559   68.5993  226.8829 H   0  0  0  0  0  0  0  0  0  0  0  0
  140.7979   75.7711  219.4476 H   0  0  0  0  0  0  0  0  0  0  0  0
  141.1270   78.2324  219.2916 H   0  0  0  0  0  0  0  0  0  0  0  0
  141.4778   80.2964  220.3957 H   0  0  0  0  0  0  0  0  0  0  0  0
  141.7566   80.4373  224.7009 H   0  0  0  0  0  0  0  0  0  0  0  0
  141.4207   77.9699  224.7920 H   0  0  0  0  0  0  0  0  0  0  0  0
  1  2  2  0
  2  3  1  0
  3  4  1  0
  4  5  1  0
  5  6  2  0
  5  7  1  0
  7  8  1  0
  8  9  1  0
  9 10  1  0
 10 11  1  0
 11 12  1  0
 12 13  1  0
 13 14  1  0
 14 15  1  0
 15 16  1  0
  2 17  1  0
 17 18  2  0
 18 19  1  0
 19 20  2  0
 20 21  1  0
 21 22  2  0
 22 23  1  0
 22 24  1  0
 24 25  2  0
 25 26  1  0
 26 27  2  0
 10  7  1  0
 16 11  1  0
 27 17  1  0
 26 20  1  0
  3 28  1  0
  4 29  1  0
  4 30  1  0
  8 31  1  0
  8 32  1  0
  9 33  1  0
  9 34  1  0
 10 35  1  6
 11 36  1  0
 12 37  1  0
 12 38  1  0
 13 39  1  0
 13 40  1  0
 14 41  1  0
 14 42  1  0
 15 43  1  0
 15 44  1  0
 16 45  1  0
 16 46  1  0
 18 47  1  0
 19 48  1  0
 21 49  1  0
 24 50  1  0
 25 51  1  0
M  END
>  <smiles>  (43) 
O=C(NCC(=O)N1CCC1C1CCCCC1)c1ccc2cc(F)ccc2n1

>  <score_type>  (43) 
oracle

>  <origin>  (43) 
autodockgpu

>  <m_score__min__energy>  (43) 
-8.9299999999999997

>  <m_primary>  (43) 
energy

>  <rmsd>  (43) 
8.570478930427912

>  <m_score__min__rmsd>  (43) 
8.570478930427912

>  <meeko>  (43) 
{"free_energy": -8.41, "intermolecular_energy": -9.9, "internal_energy": -1.32, "cluster_size": 21, "cluster_id": 2, "rank_in_cluster": 13}

>  <energy>  (43) 
-7.99

>  <cluster_rmsd>  (43) 
1.11

>  <cluster>  (43) 
2

$$$$

     RDKit          3D

 51 54  0  0  0  0  0  0  0  0999 V2000
  140.9930   73.8100  220.6550 O   0  0  0  0  0  0  0  0  0  0  0  0
  140.4010   74.6420  221.3920 C   0  0  0  0  0  0  0  0  0  0  0  0
  139.3070   74.1300  222.1860 N   0  0  0  0  0  0  0  0  0  0  0  0
  139.0060   72.7500  222.0610 C   0  0  0  0  0  0  0  0  0  0  0  0
  139.7980   71.8000  222.8340 C   0  0  0  0  0  0  0  0  0  0  0  0
  141.0750   71.9970  222.8070 O   0  0  0  0  0  0  0  0  0  0  0  0
  139.3080   70.7070  223.5930 N   0  0  0  0  0  0  0  0  0  0  0  0
  138.0770   69.9480  223.7760 C   0  0  0  0  0  0  0  0  0  0  0  0
  138.7660   68.9040  224.6270 C   0  0  0  0  0  0  0  0  0  0  0  0
  139.9130   69.8490  224.5910 C   0  0  2  0  0  0  0  0  0  0  0  0
  140.1890   70.4320  225.9380 C   0  0  0  0  0  0  0  0  0  0  0  0
  141.0740   71.6220  225.9410 C   0  0  0  0  0  0  0  0  0  0  0  0
  141.4170   71.9710  227.3710 C   0  0  0  0  0  0  0  0  0  0  0  0
  140.3370   71.5160  228.3330 C   0  0  0  0  0  0  0  0  0  0  0  0
  140.3760   70.0000  228.3510 C   0  0  0  0  0  0  0  0  0  0  0  0
  140.6690   69.4440  226.9680 C   0  0  0  0  0  0  0  0  0  0  0  0
  140.7650   76.0470  221.4690 C   0  0  0  0  0  0  0  0  0  0  0  0
  141.1570   76.6720  220.3050 C   0  0  0  0  0  0  0  0  0  0  0  0
  141.5230   78.0040  220.2700 C   0  0  0  0  0  0  0  0  0  0  0  0
  141.4820   78.6990  221.4680 C   0  0  0  0  0  0  0  0  0  0  0  0
  141.8440   80.0270  221.4520 C   0  0  0  0  0  0  0  0  0  0  0  0
  141.8060   80.7360  222.6510 C   0  0  0  0  0  0  0  0  0  0  0  0
  142.1730   82.0400  222.5740 F   0  0  0  0  0  0  0  0  0  0  0  0
  141.4180   80.1250  223.8210 C   0  0  0  0  0  0  0  0  0  0  0  0
  141.0570   78.7760  223.8010 C   0  0  0  0  0  0  0  0  0  0  0  0
  141.0830   78.0400  222.6200 C   0  0  0  0  0  0  0  0  0  0  0  0
  140.7330   76.7410  222.6230 N   0  0  0  0  0  0  0  0  0  0  0  0
  138.8400   74.8350  222.7850 H   0  0  0  0  0  0  0  0  0  0  0  0
  137.9553   72.6169  222.3582 H   0  0  0  0  0  0  0  0  0  0  0  0
  139.2418   72.5130  221.0130 H   0  0  0  0  0  0  0  0  0  0  0  0
  137.2941   70.5043  224.3123 H   0  0  0  0  0  0  0  0  0  0  0  0
  137.5125   69.6252  222.8888 H   0  0  0  0  0  0  0  0  0  0  0  0
  138.3230   68.7383  225.6201 H   0  0  0  0  0  0  0  0  0  0  0  0
  138.8441   67.8444  224.3420 H   0  0  0  0  0  0  0  0  0  0  0  0
  140.9277   69.4984  224.3514 H   0  0  0  0  0  0  0  0  0  0  0  0
  139.1844   70.7676  226.2348 H   0  0  0  0  0  0  0  0  0  0  0  0
  141.9957   71.3985  225.3838 H   0  0  0  0  0  0  0  0  0  0  0  0
  140.5618   72.4696  225.4622 H   0  0  0  0  0  0  0  0  0  0  0  0
  142.3642   71.4808  227.6404 H   0  0  0  0  0  0  0  0  0  0  0  0
  141.5046   73.0650  227.4458 H   0  0  0  0  0  0  0  0  0  0  0  0
  140.5356   71.9118  229.3399 H   0  0  0  0  0  0  0  0  0  0  0  0
  139.3485   71.8815  228.0179 H   0  0  0  0  0  0  0  0  0  0  0  0
  141.1624   69.6691  229.0453 H   0  0  0  0  0  0  0  0  0  0  0  0
  139.3926   69.6290  228.6756 H   0  0  0  0  0  0  0  0  0  0  0  0
  141.7518   69.2873  226.8540 H   0  0  0  0  0  0  0  0  0  0  0  0
  140.1522   68.4823  226.8338 H   0  0  0  0  0  0  0  0  0  0  0  0
  141.1793   76.0905  219.3715 H   0  0  0  0  0  0  0  0  0  0  0  0
  141.8329   78.4906  219.3334 H   0  0  0  0  0  0  0  0  0  0  0  0
  142.1552   80.5158  220.5170 H   0  0  0  0  0  0  0  0  0  0  0  0
  141.3924   80.6931  224.7626 H   0  0  0  0  0  0  0  0  0  0  0  0
  140.7465   78.2862  224.7357 H   0  0  0  0  0  0  0  0  0  0  0  0
  1  2  2  0
  2  3  1  0
  3  4  1  0
  4  5  1  0
  5  6  2  0
  5  7  1  0
  7  8  1  0
  8  9  1  0
  9 10  1  0
 10 11  1  0
 11 12  1  0
 12 13  1  0
 13 14  1  0
 14 15  1  0
 15 16  1  0
  2 17  1  0
 17 18  2  0
 18 19  1  0
 19 20  2  0
 20 21  1  0
 21 22  2  0
 22 23  1  0
 22 24  1  0
 24 25  2  0
 25 26  1  0
 26 27  2  0
 10  7  1  0
 16 11  1  0
 27 17  1  0
 26 20  1  0
  3 28  1  0
  4 29  1  0
  4 30  1  0
  8 31  1  0
  8 32  1  0
  9 33  1  0
  9 34  1  0
 10 35  1  6
 11 36  1  0
 12 37  1  0
 12 38  1  0
 13 39  1  0
 13 40  1  0
 14 41  1  0
 14 42  1  0
 15 43  1  0
 15 44  1  0
 16 45  1  0
 16 46  1  0
 18 47  1  0
 19 48  1  0
 21 49  1  0
 24 50  1  0
 25 51  1  0
M  END
>  <smiles>  (44) 
O=C(NCC(=O)N1CCC1C1CCCCC1)c1ccc2cc(F)ccc2n1

>  <score_type>  (44) 
oracle

>  <origin>  (44) 
autodockgpu

>  <m_score__min__energy>  (44) 
-8.9299999999999997

>  <m_primary>  (44) 
energy

>  <rmsd>  (44) 
8.613728178314394

>  <m_score__min__rmsd>  (44) 
8.613728178314394

>  <meeko>  (44) 
{"free_energy": -8.74, "intermolecular_energy": -10.23, "internal_energy": -1.24, "cluster_size": 21, "cluster_id": 2, "rank_in_cluster": 1}

>  <energy>  (44) 
-8.3

>  <cluster_rmsd>  (44) 
0.0

>  <cluster>  (44) 
3

$$$$

     RDKit          3D

 51 54  0  0  0  0  0  0  0  0999 V2000
  140.8230   72.0450  221.1500 O   0  0  0  0  0  0  0  0  0  0  0  0
  140.3580   72.4310  222.2540 C   0  0  0  0  0  0  0  0  0  0  0  0
  139.9540   73.8160  222.3300 N   0  0  0  0  0  0  0  0  0  0  0  0
  140.1180   74.6040  221.1630 C   0  0  0  0  0  0  0  0  0  0  0  0
  141.4620   75.0510  220.8180 C   0  0  0  0  0  0  0  0  0  0  0  0
  142.4170   74.2640  221.1880 O   0  0  0  0  0  0  0  0  0  0  0  0
  141.8090   76.2410  220.1290 N   0  0  0  0  0  0  0  0  0  0  0  0
  142.7510   76.7000  219.1140 C   0  0  0  0  0  0  0  0  0  0  0  0
  142.0750   78.0490  218.9980 C   0  0  0  0  0  0  0  0  0  0  0  0
  141.3100   77.6000  220.1910 C   0  0  2  0  0  0  0  0  0  0  0  0
  141.6450   78.4120  221.3990 C   0  0  0  0  0  0  0  0  0  0  0  0
  141.0600   77.9220  222.6710 C   0  0  0  0  0  0  0  0  0  0  0  0
  141.3190   78.9450  223.7520 C   0  0  0  0  0  0  0  0  0  0  0  0
  142.5640   79.7600  223.4640 C   0  0  0  0  0  0  0  0  0  0  0  0
  142.2490   80.6310  222.2640 C   0  0  0  0  0  0  0  0  0  0  0  0
  141.3850   79.8880  221.2600 C   0  0  0  0  0  0  0  0  0  0  0  0
  140.2200   71.5640  223.4140 C   0  0  0  0  0  0  0  0  0  0  0  0
  139.5610   70.3650  223.2420 C   0  0  0  0  0  0  0  0  0  0  0  0
  139.3760   69.4710  224.2790 C   0  0  0  0  0  0  0  0  0  0  0  0
  139.8840   69.8300  225.5170 C   0  0  0  0  0  0  0  0  0  0  0  0
  139.7090   68.9510  226.5620 C   0  0  0  0  0  0  0  0  0  0  0  0
  140.2160   69.3010  227.8120 C   0  0  0  0  0  0  0  0  0  0  0  0
  140.0130   68.3960  228.8020 F   0  0  0  0  0  0  0  0  0  0  0  0
  140.8750   70.4940  227.9970 C   0  0  0  0  0  0  0  0  0  0  0  0
  141.0360   71.3620  226.9160 C   0  0  0  0  0  0  0  0  0  0  0  0
  140.5420   71.0420  225.6550 C   0  0  0  0  0  0  0  0  0  0  0  0
  140.7060   71.8940  224.6260 N   0  0  0  0  0  0  0  0  0  0  0  0
  139.5720   74.1060  223.2500 H   0  0  0  0  0  0  0  0  0  0  0  0
  139.7429   74.0128  220.3146 H   0  0  0  0  0  0  0  0  0  0  0  0
  139.5692   75.5321  221.3809 H   0  0  0  0  0  0  0  0  0  0  0  0
  143.7890   76.7588  219.4733 H   0  0  0  0  0  0  0  0  0  0  0  0
  142.8938   76.0952  218.2064 H   0  0  0  0  0  0  0  0  0  0  0  0
  142.7289   78.9190  219.1576 H   0  0  0  0  0  0  0  0  0  0  0  0
  141.6002   78.4119  218.0745 H   0  0  0  0  0  0  0  0  0  0  0  0
  140.2146   77.6932  220.2279 H   0  0  0  0  0  0  0  0  0  0  0  0
  142.7335   78.2653  221.4590 H   0  0  0  0  0  0  0  0  0  0  0  0
  139.9761   77.7796  222.5488 H   0  0  0  0  0  0  0  0  0  0  0  0
  141.5189   76.9614  222.9478 H   0  0  0  0  0  0  0  0  0  0  0  0
  140.4554   79.6233  223.8155 H   0  0  0  0  0  0  0  0  0  0  0  0
  141.4703   78.4106  224.7015 H   0  0  0  0  0  0  0  0  0  0  0  0
  142.8151   80.3874  224.3319 H   0  0  0  0  0  0  0  0  0  0  0  0
  143.4257   79.1067  223.2624 H   0  0  0  0  0  0  0  0  0  0  0  0
  141.7131   81.5297  222.6033 H   0  0  0  0  0  0  0  0  0  0  0  0
  143.1948   80.9062  221.7745 H   0  0  0  0  0  0  0  0  0  0  0  0
  140.3235   80.0972  221.4586 H   0  0  0  0  0  0  0  0  0  0  0  0
  141.6291   80.2172  220.2392 H   0  0  0  0  0  0  0  0  0  0  0  0
  139.1695   70.1118  222.2457 H   0  0  0  0  0  0  0  0  0  0  0  0
  138.8491   68.5172  224.1285 H   0  0  0  0  0  0  0  0  0  0  0  0
  139.1824   67.9967  226.4141 H   0  0  0  0  0  0  0  0  0  0  0  0
  141.2714   70.7615  228.9876 H   0  0  0  0  0  0  0  0  0  0  0  0
  141.5629   72.3163  227.0634 H   0  0  0  0  0  0  0  0  0  0  0  0
  1  2  2  0
  2  3  1  0
  3  4  1  0
  4  5  1  0
  5  6  2  0
  5  7  1  0
  7  8  1  0
  8  9  1  0
  9 10  1  0
 10 11  1  0
 11 12  1  0
 12 13  1  0
 13 14  1  0
 14 15  1  0
 15 16  1  0
  2 17  1  0
 17 18  2  0
 18 19  1  0
 19 20  2  0
 20 21  1  0
 21 22  2  0
 22 23  1  0
 22 24  1  0
 24 25  2  0
 25 26  1  0
 26 27  2  0
 10  7  1  0
 16 11  1  0
 27 17  1  0
 26 20  1  0
  3 28  1  0
  4 29  1  0
  4 30  1  0
  8 31  1  0
  8 32  1  0
  9 33  1  0
  9 34  1  0
 10 35  1  6
 11 36  1  0
 12 37  1  0
 12 38  1  0
 13 39  1  0
 13 40  1  0
 14 41  1  0
 14 42  1  0
 15 43  1  0
 15 44  1  0
 16 45  1  0
 16 46  1  0
 18 47  1  0
 19 48  1  0
 21 49  1  0
 24 50  1  0
 25 51  1  0
M  END
>  <smiles>  (45) 
O=C(NCC(=O)N1CCC1C1CCCCC1)c1ccc2cc(F)ccc2n1

>  <score_type>  (45) 
oracle

>  <origin>  (45) 
autodockgpu

>  <m_score__min__energy>  (45) 
-8.9299999999999997

>  <m_primary>  (45) 
energy

>  <rmsd>  (45) 
2.7743731678071857

>  <m_score__min__rmsd>  (45) 
2.7743731678071857

>  <meeko>  (45) 
{"free_energy": -8.55, "intermolecular_energy": -10.04, "internal_energy": -1.17, "cluster_size": 22, "cluster_id": 1, "rank_in_cluster": 15}

>  <energy>  (45) 
-8.3

>  <cluster_rmsd>  (45) 
0.11

>  <cluster>  (45) 
3

$$$$

     RDKit          3D

 51 54  0  0  0  0  0  0  0  0999 V2000
  141.4060   73.4140  220.8640 O   0  0  0  0  0  0  0  0  0  0  0  0
  140.7370   74.2350  221.5440 C   0  0  0  0  0  0  0  0  0  0  0  0
  139.6610   73.6850  222.3370 N   0  0  0  0  0  0  0  0  0  0  0  0
  139.4620   72.2830  222.2760 C   0  0  0  0  0  0  0  0  0  0  0  0
  138.3110   71.7200  222.9720 C   0  0  0  0  0  0  0  0  0  0  0  0
  137.2030   72.3640  222.8130 O   0  0  0  0  0  0  0  0  0  0  0  0
  138.2970   70.5600  223.7870 N   0  0  0  0  0  0  0  0  0  0  0  0
  137.3540   69.5610  224.2760 C   0  0  0  0  0  0  0  0  0  0  0  0
  138.4580   68.6980  224.8470 C   0  0  0  0  0  0  0  0  0  0  0  0
  139.3260   69.8620  224.5300 C   0  0  2  0  0  0  0  0  0  0  0  0
  139.8530   70.5100  225.7690 C   0  0  0  0  0  0  0  0  0  0  0  0
  140.8790   71.5570  225.5460 C   0  0  0  0  0  0  0  0  0  0  0  0
  141.4510   71.9720  226.8820 C   0  0  0  0  0  0  0  0  0  0  0  0
  140.4580   71.7580  228.0060 C   0  0  0  0  0  0  0  0  0  0  0  0
  140.2990   70.2600  228.1730 C   0  0  0  0  0  0  0  0  0  0  0  0
  140.3310   69.5530  226.8280 C   0  0  0  0  0  0  0  0  0  0  0  0
  140.9980   75.6660  221.5570 C   0  0  0  0  0  0  0  0  0  0  0  0
  141.7330   76.1930  220.5180 C   0  0  0  0  0  0  0  0  0  0  0  0
  142.0360   77.5390  220.4370 C   0  0  0  0  0  0  0  0  0  0  0  0
  141.5670   78.3510  221.4560 C   0  0  0  0  0  0  0  0  0  0  0  0
  141.8600   79.6950  221.3920 C   0  0  0  0  0  0  0  0  0  0  0  0
  141.3930   80.5220  222.4120 C   0  0  0  0  0  0  0  0  0  0  0  0
  141.7120   81.8360  222.2950 F   0  0  0  0  0  0  0  0  0  0  0  0
  140.6580   80.0090  223.4560 C   0  0  0  0  0  0  0  0  0  0  0  0
  140.3790   78.6420  223.4900 C   0  0  0  0  0  0  0  0  0  0  0  0
  140.8300   77.7890  222.4870 C   0  0  0  0  0  0  0  0  0  0  0  0
  140.5510   76.4730  222.5390 N   0  0  0  0  0  0  0  0  0  0  0  0
  139.1290   74.3830  222.8880 H   0  0  0  0  0  0  0  0  0  0  0  0
  139.3652   72.0131  221.2140 H   0  0  0  0  0  0  0  0  0  0  0  0
  140.3316   71.8609  222.8011 H   0  0  0  0  0  0  0  0  0  0  0  0
  136.6609   69.9476  225.0377 H   0  0  0  0  0  0  0  0  0  0  0  0
  136.6378   69.1135  223.5711 H   0  0  0  0  0  0  0  0  0  0  0  0
  138.3633   68.4582  225.9164 H   0  0  0  0  0  0  0  0  0  0  0  0
  138.6668   67.6742  224.5031 H   0  0  0  0  0  0  0  0  0  0  0  0
  140.2777   69.7283  223.9949 H   0  0  0  0  0  0  0  0  0  0  0  0
  138.9496   71.0097  226.1487 H   0  0  0  0  0  0  0  0  0  0  0  0
  141.6816   71.1581  224.9083 H   0  0  0  0  0  0  0  0  0  0  0  0
  140.4237   72.4261  225.0486 H   0  0  0  0  0  0  0  0  0  0  0  0
  142.3530   71.3759  227.0846 H   0  0  0  0  0  0  0  0  0  0  0  0
  141.6906   73.0446  226.8349 H   0  0  0  0  0  0  0  0  0  0  0  0
  140.8381   72.2042  228.9368 H   0  0  0  0  0  0  0  0  0  0  0  0
  139.4932   72.2333  227.7751 H   0  0  0  0  0  0  0  0  0  0  0  0
  141.1197   69.8792  228.7987 H   0  0  0  0  0  0  0  0  0  0  0  0
  139.3268   70.0627  228.6483 H   0  0  0  0  0  0  0  0  0  0  0  0
  141.3591   69.2338  226.6018 H   0  0  0  0  0  0  0  0  0  0  0  0
  139.6797   68.6670  226.8544 H   0  0  0  0  0  0  0  0  0  0  0  0
  142.0911   75.5194  219.7255 H   0  0  0  0  0  0  0  0  0  0  0  0
  142.6231   77.9468  219.6009 H   0  0  0  0  0  0  0  0  0  0  0  0
  142.4475   80.1053  220.5574 H   0  0  0  0  0  0  0  0  0  0  0  0
  140.2938   80.6701  224.2562 H   0  0  0  0  0  0  0  0  0  0  0  0
  139.7920   78.2313  224.3247 H   0  0  0  0  0  0  0  0  0  0  0  0
  1  2  2  0
  2  3  1  0
  3  4  1  0
  4  5  1  0
  5  6  2  0
  5  7  1  0
  7  8  1  0
  8  9  1  0
  9 10  1  0
 10 11  1  0
 11 12  1  0
 12 13  1  0
 13 14  1  0
 14 15  1  0
 15 16  1  0
  2 17  1  0
 17 18  2  0
 18 19  1  0
 19 20  2  0
 20 21  1  0
 21 22  2  0
 22 23  1  0
 22 24  1  0
 24 25  2  0
 25 26  1  0
 26 27  2  0
 10  7  1  0
 16 11  1  0
 27 17  1  0
 26 20  1  0
  3 28  1  0
  4 29  1  0
  4 30  1  0
  8 31  1  0
  8 32  1  0
  9 33  1  0
  9 34  1  0
 10 35  1  6
 11 36  1  0
 12 37  1  0
 12 38  1  0
 13 39  1  0
 13 40  1  0
 14 41  1  0
 14 42  1  0
 15 43  1  0
 15 44  1  0
 16 45  1  0
 16 46  1  0
 18 47  1  0
 19 48  1  0
 21 49  1  0
 24 50  1  0
 25 51  1  0
M  END
>  <smiles>  (46) 
O=C(NCC(=O)N1CCC1C1CCCCC1)c1ccc2cc(F)ccc2n1

>  <score_type>  (46) 
oracle

>  <origin>  (46) 
autodockgpu

>  <m_score__min__energy>  (46) 
-8.9299999999999997

>  <m_primary>  (46) 
energy

>  <rmsd>  (46) 
8.580795539530962

>  <m_score__min__rmsd>  (46) 
8.580795539530962

>  <meeko>  (46) 
{"free_energy": -8.29, "intermolecular_energy": -9.78, "internal_energy": -1.47, "cluster_size": 21, "cluster_id": 2, "rank_in_cluster": 18}

>  <energy>  (46) 
-8.13

>  <cluster_rmsd>  (46) 
0.29

>  <cluster>  (46) 
3

$$$$

     RDKit          3D

 51 54  0  0  0  0  0  0  0  0999 V2000
  141.3380   71.9300  221.5540 O   0  0  0  0  0  0  0  0  0  0  0  0
  140.5570   72.2510  222.4880 C   0  0  0  0  0  0  0  0  0  0  0  0
  139.8340   73.4920  222.3210 N   0  0  0  0  0  0  0  0  0  0  0  0
  140.0690   74.2240  221.1300 C   0  0  0  0  0  0  0  0  0  0  0  0
  140.1370   75.6780  221.2190 C   0  0  0  0  0  0  0  0  0  0  0  0
  139.2760   76.2220  222.0130 O   0  0  0  0  0  0  0  0  0  0  0  0
  141.0400   76.5280  220.5300 N   0  0  0  0  0  0  0  0  0  0  0  0
  142.2390   76.4360  219.7060 C   0  0  0  0  0  0  0  0  0  0  0  0
  142.1890   77.9050  219.3470 C   0  0  0  0  0  0  0  0  0  0  0  0
  141.1230   77.9660  220.3820 C   0  0  2  0  0  0  0  0  0  0  0  0
  141.5520   78.7670  221.5680 C   0  0  0  0  0  0  0  0  0  0  0  0
  140.8160   78.4780  222.8230 C   0  0  0  0  0  0  0  0  0  0  0  0
  141.2190   79.4920  223.8690 C   0  0  0  0  0  0  0  0  0  0  0  0
  142.6160   80.0280  223.6190 C   0  0  0  0  0  0  0  0  0  0  0  0
  142.5440   80.8710  222.3610 C   0  0  0  0  0  0  0  0  0  0  0  0
  141.6010   80.2550  221.3430 C   0  0  0  0  0  0  0  0  0  0  0  0
  140.3650   71.4490  223.6860 C   0  0  0  0  0  0  0  0  0  0  0  0
  139.6950   70.2520  223.5550 C   0  0  0  0  0  0  0  0  0  0  0  0
  139.4600   69.4160  224.6290 C   0  0  0  0  0  0  0  0  0  0  0  0
  139.9310   69.8330  225.8640 C   0  0  0  0  0  0  0  0  0  0  0  0
  139.7070   69.0130  226.9460 C   0  0  0  0  0  0  0  0  0  0  0  0
  140.1760   69.4220  228.1940 C   0  0  0  0  0  0  0  0  0  0  0  0
  139.9250   68.5730  229.2220 F   0  0  0  0  0  0  0  0  0  0  0  0
  140.8470   70.6140  228.3390 C   0  0  0  0  0  0  0  0  0  0  0  0
  141.0580   71.4210  227.2200 C   0  0  0  0  0  0  0  0  0  0  0  0
  140.6020   71.0420  225.9610 C   0  0  0  0  0  0  0  0  0  0  0  0
  140.8150   71.8360  224.8950 N   0  0  0  0  0  0  0  0  0  0  0  0
  139.1960   73.7300  223.1030 H   0  0  0  0  0  0  0  0  0  0  0  0
  141.0277   73.8769  220.7172 H   0  0  0  0  0  0  0  0  0  0  0  0
  139.1817   74.0292  220.5098 H   0  0  0  0  0  0  0  0  0  0  0  0
  143.1392   76.1529  220.2713 H   0  0  0  0  0  0  0  0  0  0  0  0
  142.2747   75.6905  218.8979 H   0  0  0  0  0  0  0  0  0  0  0  0
  143.1004   78.4772  219.5748 H   0  0  0  0  0  0  0  0  0  0  0  0
  142.0585   78.2743  218.3191 H   0  0  0  0  0  0  0  0  0  0  0  0
  140.1661   78.4694  220.1798 H   0  0  0  0  0  0  0  0  0  0  0  0
  142.5849   78.4130  221.7017 H   0  0  0  0  0  0  0  0  0  0  0  0
  139.7333   78.5455  222.6405 H   0  0  0  0  0  0  0  0  0  0  0  0
  141.0582   77.4637  223.1731 H   0  0  0  0  0  0  0  0  0  0  0  0
  140.5062   80.3296  223.8474 H   0  0  0  0  0  0  0  0  0  0  0  0
  141.2119   78.9950  224.8503 H   0  0  0  0  0  0  0  0  0  0  0  0
  142.9428   80.6443  224.4695 H   0  0  0  0  0  0  0  0  0  0  0  0
  143.3385   79.2068  223.5026 H   0  0  0  0  0  0  0  0  0  0  0  0
  142.1830   81.8766  222.6226 H   0  0  0  0  0  0  0  0  0  0  0  0
  143.5495   80.9241  221.9182 H   0  0  0  0  0  0  0  0  0  0  0  0
  140.5944   80.6812  221.4657 H   0  0  0  0  0  0  0  0  0  0  0  0
  141.9580   80.4683  220.3246 H   0  0  0  0  0  0  0  0  0  0  0  0
  139.3347   69.9517  222.5600 H   0  0  0  0  0  0  0  0  0  0  0  0
  138.9237   68.4630  224.5097 H   0  0  0  0  0  0  0  0  0  0  0  0
  139.1716   68.0592  226.8295 H   0  0  0  0  0  0  0  0  0  0  0  0
  141.2137   70.9281  229.3273 H   0  0  0  0  0  0  0  0  0  0  0  0
  141.5947   72.3742  227.3354 H   0  0  0  0  0  0  0  0  0  0  0  0
  1  2  2  0
  2  3  1  0
  3  4  1  0
  4  5  1  0
  5  6  2  0
  5  7  1  0
  7  8  1  0
  8  9  1  0
  9 10  1  0
 10 11  1  0
 11 12  1  0
 12 13  1  0
 13 14  1  0
 14 15  1  0
 15 16  1  0
  2 17  1  0
 17 18  2  0
 18 19  1  0
 19 20  2  0
 20 21  1  0
 21 22  2  0
 22 23  1  0
 22 24  1  0
 24 25  2  0
 25 26  1  0
 26 27  2  0
 10  7  1  0
 16 11  1  0
 27 17  1  0
 26 20  1  0
  3 28  1  0
  4 29  1  0
  4 30  1  0
  8 31  1  0
  8 32  1  0
  9 33  1  0
  9 34  1  0
 10 35  1  6
 11 36  1  0
 12 37  1  0
 12 38  1  0
 13 39  1  0
 13 40  1  0
 14 41  1  0
 14 42  1  0
 15 43  1  0
 15 44  1  0
 16 45  1  0
 16 46  1  0
 18 47  1  0
 19 48  1  0
 21 49  1  0
 24 50  1  0
 25 51  1  0
M  END
>  <smiles>  (47) 
O=C(NCC(=O)N1CCC1C1CCCCC1)c1ccc2cc(F)ccc2n1

>  <score_type>  (47) 
oracle

>  <origin>  (47) 
autodockgpu

>  <m_score__min__energy>  (47) 
-8.9299999999999997

>  <m_primary>  (47) 
energy

>  <rmsd>  (47) 
2.7943256898909388

>  <m_score__min__rmsd>  (47) 
2.7943256898909388

>  <meeko>  (47) 
{"free_energy": -8.72, "intermolecular_energy": -10.22, "internal_energy": -1.14, "cluster_size": 22, "cluster_id": 1, "rank_in_cluster": 9}

>  <energy>  (47) 
-8.02

>  <cluster_rmsd>  (47) 
0.5

>  <cluster>  (47) 
3

$$$$

     RDKit          3D

 51 54  0  0  0  0  0  0  0  0999 V2000
  134.2300   69.0180  226.1680 O   0  0  0  0  0  0  0  0  0  0  0  0
  134.6380   70.1860  225.9320 C   0  0  0  0  0  0  0  0  0  0  0  0
  135.8980   70.2960  225.2330 N   0  0  0  0  0  0  0  0  0  0  0  0
  136.5520   69.0880  224.8820 C   0  0  0  0  0  0  0  0  0  0  0  0
  137.9960   69.1200  224.6810 C   0  0  0  0  0  0  0  0  0  0  0  0
  138.3930   69.7670  223.6360 O   0  0  0  0  0  0  0  0  0  0  0  0
  138.9810   68.5220  225.5070 N   0  0  0  0  0  0  0  0  0  0  0  0
  139.1310   67.3800  226.4020 C   0  0  0  0  0  0  0  0  0  0  0  0
  140.6240   67.5920  226.5330 C   0  0  0  0  0  0  0  0  0  0  0  0
  140.3540   68.8660  225.8150 C   0  0  2  0  0  0  0  0  0  0  0  0
  140.5970   70.0530  226.6880 C   0  0  0  0  0  0  0  0  0  0  0  0
  139.6350   70.2230  227.8040 C   0  0  0  0  0  0  0  0  0  0  0  0
  139.8890   71.5580  228.4670 C   0  0  0  0  0  0  0  0  0  0  0  0
  141.3300   71.9990  228.3030 C   0  0  0  0  0  0  0  0  0  0  0  0
  141.5230   72.3250  226.8340 C   0  0  0  0  0  0  0  0  0  0  0  0
  140.7530   71.3570  225.9530 C   0  0  0  0  0  0  0  0  0  0  0  0
  133.9120   71.3840  226.3240 C   0  0  0  0  0  0  0  0  0  0  0  0
  132.7700   71.2230  227.0790 C   0  0  0  0  0  0  0  0  0  0  0  0
  132.0090   72.2950  227.5020 C   0  0  0  0  0  0  0  0  0  0  0  0
  132.4420   73.5580  227.1340 C   0  0  0  0  0  0  0  0  0  0  0  0
  131.6960   74.6390  227.5470 C   0  0  0  0  0  0  0  0  0  0  0  0
  132.1230   75.9150  227.1820 C   0  0  0  0  0  0  0  0  0  0  0  0
  131.3480   76.9400  227.6180 F   0  0  0  0  0  0  0  0  0  0  0  0
  133.2600   76.0900  226.4290 C   0  0  0  0  0  0  0  0  0  0  0  0
  133.9940   74.9720  226.0270 C   0  0  0  0  0  0  0  0  0  0  0  0
  133.5950   73.6850  226.3750 C   0  0  0  0  0  0  0  0  0  0  0  0
  134.3160   72.6210  225.9760 N   0  0  0  0  0  0  0  0  0  0  0  0
  136.2080   71.2680  225.0500 H   0  0  0  0  0  0  0  0  0  0  0  0
  136.3502   68.3628  225.6841 H   0  0  0  0  0  0  0  0  0  0  0  0
  136.1443   68.8347  223.8922 H   0  0  0  0  0  0  0  0  0  0  0  0
  138.5868   67.4920  227.3514 H   0  0  0  0  0  0  0  0  0  0  0  0
  138.7579   66.3967  226.0795 H   0  0  0  0  0  0  0  0  0  0  0  0
  140.9959   67.7010  227.5625 H   0  0  0  0  0  0  0  0  0  0  0  0
  141.3722   66.8565  226.2025 H   0  0  0  0  0  0  0  0  0  0  0  0
  140.9640   69.1685  224.9511 H   0  0  0  0  0  0  0  0  0  0  0  0
  141.5714   69.7966  227.1293 H   0  0  0  0  0  0  0  0  0  0  0  0
  138.6070   70.1937  227.4137 H   0  0  0  0  0  0  0  0  0  0  0  0
  139.7640   69.4117  228.5356 H   0  0  0  0  0  0  0  0  0  0  0  0
  139.2309   72.3131  228.0122 H   0  0  0  0  0  0  0  0  0  0  0  0
  139.6825   71.4522  229.5423 H   0  0  0  0  0  0  0  0  0  0  0  0
  141.5259   72.8899  228.9177 H   0  0  0  0  0  0  0  0  0  0  0  0
  142.0241   71.2096  228.6271 H   0  0  0  0  0  0  0  0  0  0  0  0
  141.1648   73.3473  226.6429 H   0  0  0  0  0  0  0  0  0  0  0  0
  142.5933   72.2391  226.5949 H   0  0  0  0  0  0  0  0  0  0  0  0
  139.7610   71.7738  225.7245 H   0  0  0  0  0  0  0  0  0  0  0  0
  141.2981   71.1931  225.0117 H   0  0  0  0  0  0  0  0  0  0  0  0
  132.4540   70.2059  227.3540 H   0  0  0  0  0  0  0  0  0  0  0  0
  131.0997   72.1521  228.1042 H   0  0  0  0  0  0  0  0  0  0  0  0
  130.7863   74.4995  228.1495 H   0  0  0  0  0  0  0  0  0  0  0  0
  133.5884   77.1010  226.1459 H   0  0  0  0  0  0  0  0  0  0  0  0
  134.9038   75.1112  225.4245 H   0  0  0  0  0  0  0  0  0  0  0  0
  1  2  2  0
  2  3  1  0
  3  4  1  0
  4  5  1  0
  5  6  2  0
  5  7  1  0
  7  8  1  0
  8  9  1  0
  9 10  1  0
 10 11  1  0
 11 12  1  0
 12 13  1  0
 13 14  1  0
 14 15  1  0
 15 16  1  0
  2 17  1  0
 17 18  2  0
 18 19  1  0
 19 20  2  0
 20 21  1  0
 21 22  2  0
 22 23  1  0
 22 24  1  0
 24 25  2  0
 25 26  1  0
 26 27  2  0
 10  7  1  0
 16 11  1  0
 27 17  1  0
 26 20  1  0
  3 28  1  0
  4 29  1  0
  4 30  1  0
  8 31  1  0
  8 32  1  0
  9 33  1  0
  9 34  1  0
 10 35  1  6
 11 36  1  0
 12 37  1  0
 12 38  1  0
 13 39  1  0
 13 40  1  0
 14 41  1  0
 14 42  1  0
 15 43  1  0
 15 44  1  0
 16 45  1  0
 16 46  1  0
 18 47  1  0
 19 48  1  0
 21 49  1  0
 24 50  1  0
 25 51  1  0
M  END
>  <smiles>  (48) 
O=C(NCC(=O)N1CCC1C1CCCCC1)c1ccc2cc(F)ccc2n1

>  <score_type>  (48) 
oracle

>  <origin>  (48) 
autodockgpu

>  <m_score__min__energy>  (48) 
-8.9299999999999997

>  <m_primary>  (48) 
energy

>  <rmsd>  (48) 
9.151453584666237

>  <m_score__min__rmsd>  (48) 
9.151453584666237

>  <meeko>  (48) 
{"free_energy": -7.82, "intermolecular_energy": -9.31, "internal_energy": -1.48, "cluster_size": 2, "cluster_id": 4, "rank_in_cluster": 1}

>  <energy>  (48) 
-8.01

>  <cluster_rmsd>  (48) 
0.52

>  <cluster>  (48) 
3

$$$$

     RDKit          3D

 51 54  0  0  0  0  0  0  0  0999 V2000
  141.1450   71.8920  221.4500 O   0  0  0  0  0  0  0  0  0  0  0  0
  140.4220   72.2520  222.4160 C   0  0  0  0  0  0  0  0  0  0  0  0
  139.7470   73.5220  222.2730 N   0  0  0  0  0  0  0  0  0  0  0  0
  139.9590   74.2370  221.0680 C   0  0  0  0  0  0  0  0  0  0  0  0
  140.9740   75.2830  221.0570 C   0  0  0  0  0  0  0  0  0  0  0  0
  141.0780   75.9610  222.1520 O   0  0  0  0  0  0  0  0  0  0  0  0
  141.8370   75.6170  219.9830 N   0  0  0  0  0  0  0  0  0  0  0  0
  141.7620   75.9860  218.5740 C   0  0  0  0  0  0  0  0  0  0  0  0
  143.2350   76.3270  218.5130 C   0  0  0  0  0  0  0  0  0  0  0  0
  143.2780   75.7160  219.8670 C   0  0  2  0  0  0  0  0  0  0  0  0
  144.0670   74.4470  219.8750 C   0  0  0  0  0  0  0  0  0  0  0  0
  143.2680   73.2070  220.0250 C   0  0  0  0  0  0  0  0  0  0  0  0
  144.2090   72.0400  220.2130 C   0  0  0  0  0  0  0  0  0  0  0  0
  145.5560   72.2980  219.5670 C   0  0  0  0  0  0  0  0  0  0  0  0
  146.2280   73.3900  220.3770 C   0  0  0  0  0  0  0  0  0  0  0  0
  145.2200   74.4250  220.8430 C   0  0  0  0  0  0  0  0  0  0  0  0
  140.2520   71.4650  223.6270 C   0  0  0  0  0  0  0  0  0  0  0  0
  139.5830   70.2650  223.5220 C   0  0  0  0  0  0  0  0  0  0  0  0
  139.3680   69.4430  224.6110 C   0  0  0  0  0  0  0  0  0  0  0  0
  139.8560   69.8770  225.8330 C   0  0  0  0  0  0  0  0  0  0  0  0
  139.6510   69.0710  226.9300 C   0  0  0  0  0  0  0  0  0  0  0  0
  140.1370   69.4980  228.1640 C   0  0  0  0  0  0  0  0  0  0  0  0
  139.9050   68.6630  229.2080 F   0  0  0  0  0  0  0  0  0  0  0  0
  140.8060   70.6940  228.2840 C   0  0  0  0  0  0  0  0  0  0  0  0
  140.9970   71.4880  227.1510 C   0  0  0  0  0  0  0  0  0  0  0  0
  140.5240   71.0900  225.9040 C   0  0  0  0  0  0  0  0  0  0  0  0
  140.7180   71.8700  224.8240 N   0  0  0  0  0  0  0  0  0  0  0  0
  139.1570   73.7920  223.0820 H   0  0  0  0  0  0  0  0  0  0  0  0
  140.2389   73.5029  220.2981 H   0  0  0  0  0  0  0  0  0  0  0  0
  139.0134   74.7731  220.8993 H   0  0  0  0  0  0  0  0  0  0  0  0
  141.4774   75.1513  217.9165 H   0  0  0  0  0  0  0  0  0  0  0  0
  141.0266   76.7410  218.2591 H   0  0  0  0  0  0  0  0  0  0  0  0
  143.8096   75.7976  217.7386 H   0  0  0  0  0  0  0  0  0  0  0  0
  143.6156   77.3347  218.2899 H   0  0  0  0  0  0  0  0  0  0  0  0
  143.7789   76.2280  220.7019 H   0  0  0  0  0  0  0  0  0  0  0  0
  144.4822   74.4493  218.8564 H   0  0  0  0  0  0  0  0  0  0  0  0
  142.6094   73.2956  220.9016 H   0  0  0  0  0  0  0  0  0  0  0  0
  142.6520   73.0490  219.1275 H   0  0  0  0  0  0  0  0  0  0  0  0
  144.3564   71.8705  221.2898 H   0  0  0  0  0  0  0  0  0  0  0  0
  143.7614   71.1571  219.7333 H   0  0  0  0  0  0  0  0  0  0  0  0
  146.1662   71.3830  219.5851 H   0  0  0  0  0  0  0  0  0  0  0  0
  145.4384   72.6014  218.5162 H   0  0  0  0  0  0  0  0  0  0  0  0
  146.7120   72.9390  221.2558 H   0  0  0  0  0  0  0  0  0  0  0  0
  146.9720   73.8899  219.7393 H   0  0  0  0  0  0  0  0  0  0  0  0
  144.8555   74.1608  221.8467 H   0  0  0  0  0  0  0  0  0  0  0  0
  145.6935   75.4170  220.8840 H   0  0  0  0  0  0  0  0  0  0  0  0
  139.2072   69.9508  222.5371 H   0  0  0  0  0  0  0  0  0  0  0  0
  138.8333   68.4867  224.5125 H   0  0  0  0  0  0  0  0  0  0  0  0
  139.1170   68.1140  226.8347 H   0  0  0  0  0  0  0  0  0  0  0  0
  141.1867   71.0217  229.2626 H   0  0  0  0  0  0  0  0  0  0  0  0
  141.5308   72.4451  227.2459 H   0  0  0  0  0  0  0  0  0  0  0  0
  1  2  2  0
  2  3  1  0
  3  4  1  0
  4  5  1  0
  5  6  2  0
  5  7  1  0
  7  8  1  0
  8  9  1  0
  9 10  1  0
 10 11  1  0
 11 12  1  0
 12 13  1  0
 13 14  1  0
 14 15  1  0
 15 16  1  0
  2 17  1  0
 17 18  2  0
 18 19  1  0
 19 20  2  0
 20 21  1  0
 21 22  2  0
 22 23  1  0
 22 24  1  0
 24 25  2  0
 25 26  1  0
 26 27  2  0
 10  7  1  0
 16 11  1  0
 27 17  1  0
 26 20  1  0
  3 28  1  0
  4 29  1  0
  4 30  1  0
  8 31  1  0
  8 32  1  0
  9 33  1  0
  9 34  1  0
 10 35  1  1
 11 36  1  0
 12 37  1  0
 12 38  1  0
 13 39  1  0
 13 40  1  0
 14 41  1  0
 14 42  1  0
 15 43  1  0
 15 44  1  0
 16 45  1  0
 16 46  1  0
 18 47  1  0
 19 48  1  0
 21 49  1  0
 24 50  1  0
 25 51  1  0
M  END
>  <smiles>  (49) 
O=C(NCC(=O)N1CCC1C1CCCCC1)c1ccc2cc(F)ccc2n1

>  <score_type>  (49) 
oracle

>  <origin>  (49) 
autodockgpu

>  <m_score__min__energy>  (49) 
-8.9299999999999997

>  <m_primary>  (49) 
energy

>  <rmsd>  (49) 
2.4646943973702435

>  <m_score__min__rmsd>  (49) 
2.4646943973702435

>  <meeko>  (49) 
{"free_energy": -8.3, "intermolecular_energy": -9.79, "internal_energy": -1.45, "cluster_size": 5, "cluster_id": 3, "rank_in_cluster": 2}

>  <energy>  (49) 
-7.82

>  <cluster_rmsd>  (49) 
0.0

>  <cluster>  (49) 
4

$$$$

     RDKit          3D

 51 54  0  0  0  0  0  0  0  0999 V2000
  140.0520   71.7570  221.0930 O   0  0  0  0  0  0  0  0  0  0  0  0
  139.9160   72.2250  222.2540 C   0  0  0  0  0  0  0  0  0  0  0  0
  139.6890   73.6490  222.3480 N   0  0  0  0  0  0  0  0  0  0  0  0
  139.6390   74.3790  221.1330 C   0  0  0  0  0  0  0  0  0  0  0  0
  140.0040   75.7910  221.1640 C   0  0  0  0  0  0  0  0  0  0  0  0
  141.2200   76.0540  220.8180 O   0  0  0  0  0  0  0  0  0  0  0  0
  139.1660   76.8750  221.5290 N   0  0  0  0  0  0  0  0  0  0  0  0
  138.0020   77.5960  221.0240 C   0  0  0  0  0  0  0  0  0  0  0  0
  137.8420   78.3770  222.3100 C   0  0  0  0  0  0  0  0  0  0  0  0
  139.1580   77.7800  222.6600 C   0  0  2  0  0  0  0  0  0  0  0  0
  140.2310   78.8170  222.7320 C   0  0  0  0  0  0  0  0  0  0  0  0
  141.5360   78.3400  223.2520 C   0  0  0  0  0  0  0  0  0  0  0  0
  142.4460   79.5290  223.4500 C   0  0  0  0  0  0  0  0  0  0  0  0
  142.0900   80.6680  222.5150 C   0  0  0  0  0  0  0  0  0  0  0  0
  140.7490   81.2070  222.9720 C   0  0  0  0  0  0  0  0  0  0  0  0
  139.8390   80.0850  223.4410 C   0  0  0  0  0  0  0  0  0  0  0  0
  139.9800   71.4140  223.4590 C   0  0  0  0  0  0  0  0  0  0  0  0
  139.5370   70.1120  223.3790 C   0  0  0  0  0  0  0  0  0  0  0  0
  139.5540   69.2580  224.4660 C   0  0  0  0  0  0  0  0  0  0  0  0
  140.0400   69.7690  225.6580 C   0  0  0  0  0  0  0  0  0  0  0  0
  140.0650   68.9330  226.7520 C   0  0  0  0  0  0  0  0  0  0  0  0
  140.5530   69.4360  227.9570 C   0  0  0  0  0  0  0  0  0  0  0  0
  140.5520   68.5670  228.9990 F   0  0  0  0  0  0  0  0  0  0  0  0
  140.9980   70.7340  228.0510 C   0  0  0  0  0  0  0  0  0  0  0  0
  140.9590   71.5550  226.9220 C   0  0  0  0  0  0  0  0  0  0  0  0
  140.4790   71.0830  225.7050 C   0  0  0  0  0  0  0  0  0  0  0  0
  140.4490   71.8910  224.6290 N   0  0  0  0  0  0  0  0  0  0  0  0
  139.5780   74.0070  223.3140 H   0  0  0  0  0  0  0  0  0  0  0  0
  140.3182   73.8816  220.4250 H   0  0  0  0  0  0  0  0  0  0  0  0
  138.5743   74.3777  220.8567 H   0  0  0  0  0  0  0  0  0  0  0  0
  138.2221   78.2282  220.1512 H   0  0  0  0  0  0  0  0  0  0  0  0
  137.1460   77.0232  220.6378 H   0  0  0  0  0  0  0  0  0  0  0  0
  137.8357   79.4714  222.1989 H   0  0  0  0  0  0  0  0  0  0  0  0
  136.9538   78.3074  222.9551 H   0  0  0  0  0  0  0  0  0  0  0  0
  139.3210   77.3041  223.6383 H   0  0  0  0  0  0  0  0  0  0  0  0
  140.3675   79.0552  221.6668 H   0  0  0  0  0  0  0  0  0  0  0  0
  141.3854   77.8259  224.2127 H   0  0  0  0  0  0  0  0  0  0  0  0
  141.9891   77.6381  222.5364 H   0  0  0  0  0  0  0  0  0  0  0  0
  142.3550   79.8787  224.4890 H   0  0  0  0  0  0  0  0  0  0  0  0
  143.4764   79.2132  223.2297 H   0  0  0  0  0  0  0  0  0  0  0  0
  142.8543   81.4571  222.5712 H   0  0  0  0  0  0  0  0  0  0  0  0
  142.0416   80.3220  221.4720 H   0  0  0  0  0  0  0  0  0  0  0  0
  140.9088   81.9106  223.8023 H   0  0  0  0  0  0  0  0  0  0  0  0
  140.2686   81.7140  222.1222 H   0  0  0  0  0  0  0  0  0  0  0  0
  139.9474   79.9502  224.5273 H   0  0  0  0  0  0  0  0  0  0  0  0
  138.7915   80.3326  223.2140 H   0  0  0  0  0  0  0  0  0  0  0  0
  139.1565   69.7389  222.4167 H   0  0  0  0  0  0  0  0  0  0  0  0
  139.1979   68.2202  224.3878 H   0  0  0  0  0  0  0  0  0  0  0  0
  139.7090   67.8949  226.6769 H   0  0  0  0  0  0  0  0  0  0  0  0
  141.3810   71.1218  229.0065 H   0  0  0  0  0  0  0  0  0  0  0  0
  141.3142   72.5934  226.9966 H   0  0  0  0  0  0  0  0  0  0  0  0
  1  2  2  0
  2  3  1  0
  3  4  1  0
  4  5  1  0
  5  6  2  0
  5  7  1  0
  7  8  1  0
  8  9  1  0
  9 10  1  0
 10 11  1  0
 11 12  1  0
 12 13  1  0
 13 14  1  0
 14 15  1  0
 15 16  1  0
  2 17  1  0
 17 18  2  0
 18 19  1  0
 19 20  2  0
 20 21  1  0
 21 22  2  0
 22 23  1  0
 22 24  1  0
 24 25  2  0
 25 26  1  0
 26 27  2  0
 10  7  1  0
 16 11  1  0
 27 17  1  0
 26 20  1  0
  3 28  1  0
  4 29  1  0
  4 30  1  0
  8 31  1  0
  8 32  1  0
  9 33  1  0
  9 34  1  0
 10 35  1  1
 11 36  1  0
 12 37  1  0
 12 38  1  0
 13 39  1  0
 13 40  1  0
 14 41  1  0
 14 42  1  0
 15 43  1  0
 15 44  1  0
 16 45  1  0
 16 46  1  0
 18 47  1  0
 19 48  1  0
 21 49  1  0
 24 50  1  0
 25 51  1  0
M  END
>  <smiles>  (50) 
O=C(NCC(=O)N1CCC1C1CCCCC1)c1ccc2cc(F)ccc2n1

>  <score_type>  (50) 
oracle

>  <origin>  (50) 
autodockgpu

>  <m_score__min__energy>  (50) 
-8.9299999999999997

>  <m_primary>  (50) 
energy

>  <rmsd>  (50) 
2.960273136363635

>  <m_score__min__rmsd>  (50) 
2.960273136363635

>  <meeko>  (50) 
{"free_energy": -8.22, "intermolecular_energy": -9.72, "internal_energy": -1.24, "cluster_size": 22, "cluster_id": 1, "rank_in_cluster": 20}

>  <energy>  (50) 
-7.51

>  <cluster_rmsd>  (50) 
1.55

>  <cluster>  (50) 
4

$$$$

     RDKit          3D

 51 54  0  0  0  0  0  0  0  0999 V2000
  141.1600   71.8460  221.3550 O   0  0  0  0  0  0  0  0  0  0  0  0
  140.4760   72.2650  222.3020 C   0  0  0  0  0  0  0  0  0  0  0  0
  139.8720   73.5620  222.3480 N   0  0  0  0  0  0  0  0  0  0  0  0
  140.0480   74.4810  221.2540 C   0  0  0  0  0  0  0  0  0  0  0  0
  139.7130   75.8770  221.5120 C   0  0  0  0  0  0  0  0  0  0  0  0
  138.9120   76.0790  222.5060 O   0  0  0  0  0  0  0  0  0  0  0  0
  140.1700   77.0080  220.7990 N   0  0  0  0  0  0  0  0  0  0  0  0
  139.7990   77.9010  219.7210 C   0  0  0  0  0  0  0  0  0  0  0  0
  141.2850   78.0900  219.4700 C   0  0  0  0  0  0  0  0  0  0  0  0
  141.3970   77.8170  220.9280 C   0  0  1  0  0  0  0  0  0  0  0  0
  141.2590   79.0100  221.8450 C   0  0  0  0  0  0  0  0  0  0  0  0
  142.1930   80.1100  221.4010 C   0  0  0  0  0  0  0  0  0  0  0  0
  142.1720   81.2510  222.3840 C   0  0  0  0  0  0  0  0  0  0  0  0
  142.7310   80.7300  223.7020 C   0  0  0  0  0  0  0  0  0  0  0  0
  141.7380   79.7150  224.2060 C   0  0  0  0  0  0  0  0  0  0  0  0
  141.5630   78.5700  223.2380 C   0  0  0  0  0  0  0  0  0  0  0  0
  140.2630   71.3810  223.4660 C   0  0  0  0  0  0  0  0  0  0  0  0
  139.5980   70.1850  223.3330 C   0  0  0  0  0  0  0  0  0  0  0  0
  139.3910   69.3450  224.4250 C   0  0  0  0  0  0  0  0  0  0  0  0
  139.8580   69.7040  225.6790 C   0  0  0  0  0  0  0  0  0  0  0  0
  139.6700   68.8930  226.7880 C   0  0  0  0  0  0  0  0  0  0  0  0
  140.1510   69.2830  228.0280 C   0  0  0  0  0  0  0  0  0  0  0  0
  139.9700   68.4940  229.1160 F   0  0  0  0  0  0  0  0  0  0  0  0
  140.8240   70.5050  228.1380 C   0  0  0  0  0  0  0  0  0  0  0  0
  140.9990   71.3030  227.0070 C   0  0  0  0  0  0  0  0  0  0  0  0
  140.5200   70.9130  225.7690 C   0  0  0  0  0  0  0  0  0  0  0  0
  140.7030   71.7020  224.6950 N   0  0  0  0  0  0  0  0  0  0  0  0
  139.2990   73.8200  223.2010 H   0  0  0  0  0  0  0  0  0  0  0  0
  141.1051   74.4420  220.9524 H   0  0  0  0  0  0  0  0  0  0  0  0
  139.3379   74.1509  220.4815 H   0  0  0  0  0  0  0  0  0  0  0  0
  139.2498   77.4236  218.8961 H   0  0  0  0  0  0  0  0  0  0  0  0
  139.1221   78.7537  219.8782 H   0  0  0  0  0  0  0  0  0  0  0  0
  141.7525   77.3433  218.8113 H   0  0  0  0  0  0  0  0  0  0  0  0
  141.7142   78.9760  218.9793 H   0  0  0  0  0  0  0  0  0  0  0  0
  142.3287   77.4206  221.3579 H   0  0  0  0  0  0  0  0  0  0  0  0
  140.2346   79.4090  221.8084 H   0  0  0  0  0  0  0  0  0  0  0  0
  143.2156   79.7105  221.3324 H   0  0  0  0  0  0  0  0  0  0  0  0
  141.8633   80.4810  220.4194 H   0  0  0  0  0  0  0  0  0  0  0  0
  142.7948   82.0782  222.0127 H   0  0  0  0  0  0  0  0  0  0  0  0
  141.1472   81.6271  222.5194 H   0  0  0  0  0  0  0  0  0  0  0  0
  143.7111   80.2575  223.5406 H   0  0  0  0  0  0  0  0  0  0  0  0
  142.8754   81.5447  224.4269 H   0  0  0  0  0  0  0  0  0  0  0  0
  142.0937   79.3165  225.1676 H   0  0  0  0  0  0  0  0  0  0  0  0
  140.7657   80.2167  224.3200 H   0  0  0  0  0  0  0  0  0  0  0  0
  142.4925   77.9820  223.2225 H   0  0  0  0  0  0  0  0  0  0  0  0
  140.7023   77.9803  223.5864 H   0  0  0  0  0  0  0  0  0  0  0  0
  139.2216   69.8851  222.3438 H   0  0  0  0  0  0  0  0  0  0  0  0
  138.8551   68.3937  224.2912 H   0  0  0  0  0  0  0  0  0  0  0  0
  139.1371   67.9364  226.6832 H   0  0  0  0  0  0  0  0  0  0  0  0
  141.2135   70.8351  229.1123 H   0  0  0  0  0  0  0  0  0  0  0  0
  141.5289   72.2623  227.1016 H   0  0  0  0  0  0  0  0  0  0  0  0
  1  2  2  0
  2  3  1  0
  3  4  1  0
  4  5  1  0
  5  6  2  0
  5  7  1  0
  7  8  1  0
  8  9  1  0
  9 10  1  0
 10 11  1  0
 11 12  1  0
 12 13  1  0
 13 14  1  0
 14 15  1  0
 15 16  1  0
  2 17  1  0
 17 18  2  0
 18 19  1  0
 19 20  2  0
 20 21  1  0
 21 22  2  0
 22 23  1  0
 22 24  1  0
 24 25  2  0
 25 26  1  0
 26 27  2  0
 10  7  1  0
 16 11  1  0
 27 17  1  0
 26 20  1  0
  3 28  1  0
  4 29  1  0
  4 30  1  0
  8 31  1  0
  8 32  1  0
  9 33  1  0
  9 34  1  0
 10 35  1  6
 11 36  1  0
 12 37  1  0
 12 38  1  0
 13 39  1  0
 13 40  1  0
 14 41  1  0
 14 42  1  0
 15 43  1  0
 15 44  1  0
 16 45  1  0
 16 46  1  0
 18 47  1  0
 19 48  1  0
 21 49  1  0
 24 50  1  0
 25 51  1  0
M  END
>  <smiles>  (51) 
O=C(NCC(=O)N1CCC1C1CCCCC1)c1ccc2cc(F)ccc2n1

>  <score_type>  (51) 
oracle

>  <origin>  (51) 
autodockgpu

>  <m_score__min__energy>  (51) 
-8.6799999999999997

>  <m_primary>  (51) 
energy

>  <rmsd>  (51) 
2.7437637880537973

>  <m_score__min__rmsd>  (51) 
2.7437637880537973

>  <meeko>  (51) 
{"free_energy": -8.4, "intermolecular_energy": -9.89, "internal_energy": -1.43, "cluster_size": 39, "cluster_id": 1, "rank_in_cluster": 12}

>  <energy>  (51) 
-8.68

>  <cluster_rmsd>  (51) 
0.0

>  <cluster>  (51) 
1

$$$$

     RDKit          3D

 51 54  0  0  0  0  0  0  0  0999 V2000
  139.7410   71.4280  221.0460 O   0  0  0  0  0  0  0  0  0  0  0  0
  139.6900   71.9600  222.1660 C   0  0  0  0  0  0  0  0  0  0  0  0
  139.6090   73.3730  222.3850 N   0  0  0  0  0  0  0  0  0  0  0  0
  139.5910   74.2780  221.2660 C   0  0  0  0  0  0  0  0  0  0  0  0
  140.3260   75.5280  221.4240 C   0  0  0  0  0  0  0  0  0  0  0  0
  141.2770   75.5030  222.2980 O   0  0  0  0  0  0  0  0  0  0  0  0
  140.1080   76.7380  220.7270 N   0  0  0  0  0  0  0  0  0  0  0  0
  139.0910   77.4640  219.9970 C   0  0  0  0  0  0  0  0  0  0  0  0
  140.2200   78.0960  219.2030 C   0  0  0  0  0  0  0  0  0  0  0  0
  140.9960   77.8850  220.4550 C   0  0  1  0  0  0  0  0  0  0  0  0
  140.9180   78.9870  221.4850 C   0  0  0  0  0  0  0  0  0  0  0  0
  141.7860   80.1480  221.0620 C   0  0  0  0  0  0  0  0  0  0  0  0
  141.8310   81.1960  222.1420 C   0  0  0  0  0  0  0  0  0  0  0  0
  142.5180   80.5760  223.3530 C   0  0  0  0  0  0  0  0  0  0  0  0
  141.5950   79.4930  223.8480 C   0  0  0  0  0  0  0  0  0  0  0  0
  141.3560   78.4340  222.8000 C   0  0  0  0  0  0  0  0  0  0  0  0
  139.7170   71.0930  223.3620 C   0  0  0  0  0  0  0  0  0  0  0  0
  139.2250   69.8110  223.3150 C   0  0  0  0  0  0  0  0  0  0  0  0
  139.2440   68.9860  224.4380 C   0  0  0  0  0  0  0  0  0  0  0  0
  139.7650   69.4500  225.6350 C   0  0  0  0  0  0  0  0  0  0  0  0
  139.8010   68.6570  226.7730 C   0  0  0  0  0  0  0  0  0  0  0  0
  140.3300   69.1530  227.9540 C   0  0  0  0  0  0  0  0  0  0  0  0
  140.3670   68.3830  229.0690 F   0  0  0  0  0  0  0  0  0  0  0  0
  140.8230   70.4620  227.9750 C   0  0  0  0  0  0  0  0  0  0  0  0
  140.7760   71.2390  226.8180 C   0  0  0  0  0  0  0  0  0  0  0  0
  140.2480   70.7440  225.6390 C   0  0  0  0  0  0  0  0  0  0  0  0
  140.2150   71.5150  224.5370 N   0  0  0  0  0  0  0  0  0  0  0  0
  139.5620   73.7250  223.3830 H   0  0  0  0  0  0  0  0  0  0  0  0
  140.0167   73.7478  220.4013 H   0  0  0  0  0  0  0  0  0  0  0  0
  138.5380   74.5739  221.1498 H   0  0  0  0  0  0  0  0  0  0  0  0
  138.4100   76.8335  219.4065 H   0  0  0  0  0  0  0  0  0  0  0  0
  138.3291   78.0705  220.5085 H   0  0  0  0  0  0  0  0  0  0  0  0
  140.5642   77.5217  218.3302 H   0  0  0  0  0  0  0  0  0  0  0  0
  140.1386   79.0658  218.6904 H   0  0  0  0  0  0  0  0  0  0  0  0
  142.0922   77.7971  220.4318 H   0  0  0  0  0  0  0  0  0  0  0  0
  139.8866   79.3585  221.5756 H   0  0  0  0  0  0  0  0  0  0  0  0
  142.8060   79.7850  220.8676 H   0  0  0  0  0  0  0  0  0  0  0  0
  141.3616   80.5951  220.1510 H   0  0  0  0  0  0  0  0  0  0  0  0
  142.4006   82.0702  221.7936 H   0  0  0  0  0  0  0  0  0  0  0  0
  140.8153   81.5294  222.4011 H   0  0  0  0  0  0  0  0  0  0  0  0
  143.4887   80.1473  223.0633 H   0  0  0  0  0  0  0  0  0  0  0  0
  142.7116   81.3267  224.1333 H   0  0  0  0  0  0  0  0  0  0  0  0
  142.0439   79.0210  224.7344 H   0  0  0  0  0  0  0  0  0  0  0  0
  140.6272   79.9554  224.0918 H   0  0  0  0  0  0  0  0  0  0  0  0
  142.2919   77.8760  222.6489 H   0  0  0  0  0  0  0  0  0  0  0  0
  140.5426   77.7916  223.1683 H   0  0  0  0  0  0  0  0  0  0  0  0
  138.8077   69.4281  222.3720 H   0  0  0  0  0  0  0  0  0  0  0  0
  138.8441   67.9633  224.3739 H   0  0  0  0  0  0  0  0  0  0  0  0
  139.4080   67.6302  226.7376 H   0  0  0  0  0  0  0  0  0  0  0  0
  141.2465   70.8772  228.9015 H   0  0  0  0  0  0  0  0  0  0  0  0
  141.1669   72.2669  226.8433 H   0  0  0  0  0  0  0  0  0  0  0  0
  1  2  2  0
  2  3  1  0
  3  4  1  0
  4  5  1  0
  5  6  2  0
  5  7  1  0
  7  8  1  0
  8  9  1  0
  9 10  1  0
 10 11  1  0
 11 12  1  0
 12 13  1  0
 13 14  1  0
 14 15  1  0
 15 16  1  0
  2 17  1  0
 17 18  2  0
 18 19  1  0
 19 20  2  0
 20 21  1  0
 21 22  2  0
 22 23  1  0
 22 24  1  0
 24 25  2  0
 25 26  1  0
 26 27  2  0
 10  7  1  0
 16 11  1  0
 27 17  1  0
 26 20  1  0
  3 28  1  0
  4 29  1  0
  4 30  1  0
  8 31  1  0
  8 32  1  0
  9 33  1  0
  9 34  1  0
 10 35  1  6
 11 36  1  0
 12 37  1  0
 12 38  1  0
 13 39  1  0
 13 40  1  0
 14 41  1  0
 14 42  1  0
 15 43  1  0
 15 44  1  0
 16 45  1  0
 16 46  1  0
 18 47  1  0
 19 48  1  0
 21 49  1  0
 24 50  1  0
 25 51  1  0
M  END
>  <smiles>  (52) 
O=C(NCC(=O)N1CCC1C1CCCCC1)c1ccc2cc(F)ccc2n1

>  <score_type>  (52) 
oracle

>  <origin>  (52) 
autodockgpu

>  <m_score__min__energy>  (52) 
-8.6799999999999997

>  <m_primary>  (52) 
energy

>  <rmsd>  (52) 
2.4562781024898173

>  <m_score__min__rmsd>  (52) 
2.4562781024898173

>  <meeko>  (52) 
{"free_energy": -8.19, "intermolecular_energy": -9.68, "internal_energy": -1.34, "cluster_size": 39, "cluster_id": 1, "rank_in_cluster": 29}

>  <energy>  (52) 
-8.64

>  <cluster_rmsd>  (52) 
0.4

>  <cluster>  (52) 
1

$$$$

     RDKit          3D

 51 54  0  0  0  0  0  0  0  0999 V2000
  139.8140   71.0200  221.2090 O   0  0  0  0  0  0  0  0  0  0  0  0
  139.8400   71.5850  222.3140 C   0  0  0  0  0  0  0  0  0  0  0  0
  139.8880   73.0050  222.4920 N   0  0  0  0  0  0  0  0  0  0  0  0
  139.9200   73.8760  221.3480 C   0  0  0  0  0  0  0  0  0  0  0  0
  139.8060   75.3060  221.6110 C   0  0  0  0  0  0  0  0  0  0  0  0
  139.2300   75.6190  222.7240 O   0  0  0  0  0  0  0  0  0  0  0  0
  140.2560   76.3630  220.7880 N   0  0  0  0  0  0  0  0  0  0  0  0
  139.9470   77.0580  219.5560 C   0  0  0  0  0  0  0  0  0  0  0  0
  141.4330   77.3440  219.4340 C   0  0  0  0  0  0  0  0  0  0  0  0
  141.3970   77.2910  220.9210 C   0  0  1  0  0  0  0  0  0  0  0  0
  141.0640   78.5830  221.6290 C   0  0  0  0  0  0  0  0  0  0  0  0
  141.8340   79.7220  221.0060 C   0  0  0  0  0  0  0  0  0  0  0  0
  141.6240   80.9930  221.7870 C   0  0  0  0  0  0  0  0  0  0  0  0
  142.2260   80.7840  223.1710 C   0  0  0  0  0  0  0  0  0  0  0  0
  141.3840   79.7280  223.8390 C   0  0  0  0  0  0  0  0  0  0  0  0
  141.4010   78.4270  223.0740 C   0  0  0  0  0  0  0  0  0  0  0  0
  139.8220   70.7530  223.5350 C   0  0  0  0  0  0  0  0  0  0  0  0
  139.2640   69.4970  223.5240 C   0  0  0  0  0  0  0  0  0  0  0  0
  139.2420   68.7050  224.6700 C   0  0  0  0  0  0  0  0  0  0  0  0
  139.7870   69.1750  225.8530 C   0  0  0  0  0  0  0  0  0  0  0  0
  139.7830   68.4140  227.0140 C   0  0  0  0  0  0  0  0  0  0  0  0
  140.3380   68.9160  228.1800 C   0  0  0  0  0  0  0  0  0  0  0  0
  140.3360   68.1770  229.3170 F   0  0  0  0  0  0  0  0  0  0  0  0
  140.8990   70.1970  228.1640 C   0  0  0  0  0  0  0  0  0  0  0  0
  140.8910   70.9420  226.9850 C   0  0  0  0  0  0  0  0  0  0  0  0
  140.3370   70.4410  225.8210 C   0  0  0  0  0  0  0  0  0  0  0  0
  140.3430   71.1810  224.6970 N   0  0  0  0  0  0  0  0  0  0  0  0
  139.8990   73.3870  223.4800 H   0  0  0  0  0  0  0  0  0  0  0  0
  140.8743   73.7077  220.8274 H   0  0  0  0  0  0  0  0  0  0  0  0
  139.0256   73.6173  220.7622 H   0  0  0  0  0  0  0  0  0  0  0  0
  139.5340   76.4214  218.7596 H   0  0  0  0  0  0  0  0  0  0  0  0
  139.1949   77.8595  219.5131 H   0  0  0  0  0  0  0  0  0  0  0  0
  142.0279   76.5575  218.9467 H   0  0  0  0  0  0  0  0  0  0  0  0
  141.8481   78.1873  218.8625 H   0  0  0  0  0  0  0  0  0  0  0  0
  142.3002   77.0462  221.4993 H   0  0  0  0  0  0  0  0  0  0  0  0
  139.9927   78.8130  221.5315 H   0  0  0  0  0  0  0  0  0  0  0  0
  142.9056   79.4738  221.0005 H   0  0  0  0  0  0  0  0  0  0  0  0
  141.4736   79.8736  219.9778 H   0  0  0  0  0  0  0  0  0  0  0  0
  142.1256   81.8316  221.2819 H   0  0  0  0  0  0  0  0  0  0  0  0
  140.5523   81.2294  221.8620 H   0  0  0  0  0  0  0  0  0  0  0  0
  143.2685   80.4435  223.0862 H   0  0  0  0  0  0  0  0  0  0  0  0
  142.2326   81.7185  223.7512 H   0  0  0  0  0  0  0  0  0  0  0  0
  141.7745   79.5500  224.8519 H   0  0  0  0  0  0  0  0  0  0  0  0
  140.3459   80.0904  223.8720 H   0  0  0  0  0  0  0  0  0  0  0  0
  142.4076   77.9903  223.1518 H   0  0  0  0  0  0  0  0  0  0  0  0
  140.6305   77.7798  223.5184 H   0  0  0  0  0  0  0  0  0  0  0  0
  138.8263   69.1095  222.5922 H   0  0  0  0  0  0  0  0  0  0  0  0
  138.7901   67.7027  224.6349 H   0  0  0  0  0  0  0  0  0  0  0  0
  139.3374   67.4083  227.0082 H   0  0  0  0  0  0  0  0  0  0  0  0
  141.3451   70.6155  229.0782 H   0  0  0  0  0  0  0  0  0  0  0  0
  141.3344   71.9487  226.9808 H   0  0  0  0  0  0  0  0  0  0  0  0
  1  2  2  0
  2  3  1  0
  3  4  1  0
  4  5  1  0
  5  6  2  0
  5  7  1  0
  7  8  1  0
  8  9  1  0
  9 10  1  0
 10 11  1  0
 11 12  1  0
 12 13  1  0
 13 14  1  0
 14 15  1  0
 15 16  1  0
  2 17  1  0
 17 18  2  0
 18 19  1  0
 19 20  2  0
 20 21  1  0
 21 22  2  0
 22 23  1  0
 22 24  1  0
 24 25  2  0
 25 26  1  0
 26 27  2  0
 10  7  1  0
 16 11  1  0
 27 17  1  0
 26 20  1  0
  3 28  1  0
  4 29  1  0
  4 30  1  0
  8 31  1  0
  8 32  1  0
  9 33  1  0
  9 34  1  0
 10 35  1  1
 11 36  1  0
 12 37  1  0
 12 38  1  0
 13 39  1  0
 13 40  1  0
 14 41  1  0
 14 42  1  0
 15 43  1  0
 15 44  1  0
 16 45  1  0
 16 46  1  0
 18 47  1  0
 19 48  1  0
 21 49  1  0
 24 50  1  0
 25 51  1  0
M  END
>  <smiles>  (53) 
O=C(NCC(=O)N1CCC1C1CCCCC1)c1ccc2cc(F)ccc2n1

>  <score_type>  (53) 
oracle

>  <origin>  (53) 
autodockgpu

>  <m_score__min__energy>  (53) 
-8.6799999999999997

>  <m_primary>  (53) 
energy

>  <rmsd>  (53) 
2.3674723775274904

>  <m_score__min__rmsd>  (53) 
2.3674723775274904

>  <meeko>  (53) 
{"free_energy": -8.34, "intermolecular_energy": -9.83, "internal_energy": -1.53, "cluster_size": 39, "cluster_id": 1, "rank_in_cluster": 19}

>  <energy>  (53) 
-8.6

>  <cluster_rmsd>  (53) 
0.42

>  <cluster>  (53) 
1

$$$$

     RDKit          3D

 51 54  0  0  0  0  0  0  0  0999 V2000
  141.1640   71.9260  221.2560 O   0  0  0  0  0  0  0  0  0  0  0  0
  140.4400   72.3430  222.1740 C   0  0  0  0  0  0  0  0  0  0  0  0
  139.7770   73.6120  222.1650 N   0  0  0  0  0  0  0  0  0  0  0  0
  139.9360   74.5030  221.0460 C   0  0  0  0  0  0  0  0  0  0  0  0
  140.9620   75.5320  221.1700 C   0  0  0  0  0  0  0  0  0  0  0  0
  141.0490   76.0890  222.3330 O   0  0  0  0  0  0  0  0  0  0  0  0
  141.8560   75.9700  220.1670 N   0  0  0  0  0  0  0  0  0  0  0  0
  142.5510   77.1500  219.6970 C   0  0  0  0  0  0  0  0  0  0  0  0
  142.4910   76.5390  218.3080 C   0  0  0  0  0  0  0  0  0  0  0  0
  142.5080   75.2520  219.0550 C   0  0  1  0  0  0  0  0  0  0  0  0
  143.8700   74.6930  219.3930 C   0  0  0  0  0  0  0  0  0  0  0  0
  144.2760   73.6700  218.3600 C   0  0  0  0  0  0  0  0  0  0  0  0
  145.5660   73.0010  218.7570 C   0  0  0  0  0  0  0  0  0  0  0  0
  145.3030   72.2230  220.0400 C   0  0  0  0  0  0  0  0  0  0  0  0
  145.0130   73.2520  221.1010 C   0  0  0  0  0  0  0  0  0  0  0  0
  143.8060   74.0910  220.7570 C   0  0  0  0  0  0  0  0  0  0  0  0
  140.2410   71.4870  223.3610 C   0  0  0  0  0  0  0  0  0  0  0  0
  139.5980   70.2760  223.2580 C   0  0  0  0  0  0  0  0  0  0  0  0
  139.4040   69.4620  224.3720 C   0  0  0  0  0  0  0  0  0  0  0  0
  139.8610   69.8630  225.6170 C   0  0  0  0  0  0  0  0  0  0  0  0
  139.6850   69.0780  226.7480 C   0  0  0  0  0  0  0  0  0  0  0  0
  140.1550   69.5110  227.9780 C   0  0  0  0  0  0  0  0  0  0  0  0
  139.9870   68.7480  229.0870 F   0  0  0  0  0  0  0  0  0  0  0  0
  140.8050   70.7470  228.0560 C   0  0  0  0  0  0  0  0  0  0  0  0
  140.9690   71.5170  226.9040 C   0  0  0  0  0  0  0  0  0  0  0  0
  140.5000   71.0860  225.6770 C   0  0  0  0  0  0  0  0  0  0  0  0
  140.6710   71.8490  224.5820 N   0  0  0  0  0  0  0  0  0  0  0  0
  139.1730   73.8700  222.9970 H   0  0  0  0  0  0  0  0  0  0  0  0
  140.1816   73.8916  220.1651 H   0  0  0  0  0  0  0  0  0  0  0  0
  138.9844   75.0501  220.9740 H   0  0  0  0  0  0  0  0  0  0  0  0
  141.9909   78.0899  219.8109 H   0  0  0  0  0  0  0  0  0  0  0  0
  143.4984   77.4842  220.1451 H   0  0  0  0  0  0  0  0  0  0  0  0
  141.5719   76.7445  217.7397 H   0  0  0  0  0  0  0  0  0  0  0  0
  143.1954   76.7865  217.5001 H   0  0  0  0  0  0  0  0  0  0  0  0
  142.0897   74.3364  218.6114 H   0  0  0  0  0  0  0  0  0  0  0  0
  144.6276   75.4905  219.3864 H   0  0  0  0  0  0  0  0  0  0  0  0
  143.4858   72.9097  218.2737 H   0  0  0  0  0  0  0  0  0  0  0  0
  144.4214   74.1778  217.3951 H   0  0  0  0  0  0  0  0  0  0  0  0
  145.8932   72.3147  217.9621 H   0  0  0  0  0  0  0  0  0  0  0  0
  146.3578   73.7485  218.9128 H   0  0  0  0  0  0  0  0  0  0  0  0
  144.4392   71.5543  219.9106 H   0  0  0  0  0  0  0  0  0  0  0  0
  146.1645   71.5960  220.3133 H   0  0  0  0  0  0  0  0  0  0  0  0
  144.8276   72.7366  222.0549 H   0  0  0  0  0  0  0  0  0  0  0  0
  145.8833   73.9208  221.1740 H   0  0  0  0  0  0  0  0  0  0  0  0
  142.9110   73.4541  220.8151 H   0  0  0  0  0  0  0  0  0  0  0  0
  143.7733   74.9222  221.4768 H   0  0  0  0  0  0  0  0  0  0  0  0
  139.2294   69.9432  222.2765 H   0  0  0  0  0  0  0  0  0  0  0  0
  138.8862   68.4976  224.2627 H   0  0  0  0  0  0  0  0  0  0  0  0
  139.1708   68.1089  226.6680 H   0  0  0  0  0  0  0  0  0  0  0  0
  141.1855   71.1107  229.0219 H   0  0  0  0  0  0  0  0  0  0  0  0
  141.4823   72.4874  226.9736 H   0  0  0  0  0  0  0  0  0  0  0  0
  1  2  2  0
  2  3  1  0
  3  4  1  0
  4  5  1  0
  5  6  2  0
  5  7  1  0
  7  8  1  0
  8  9  1  0
  9 10  1  0
 10 11  1  0
 11 12  1  0
 12 13  1  0
 13 14  1  0
 14 15  1  0
 15 16  1  0
  2 17  1  0
 17 18  2  0
 18 19  1  0
 19 20  2  0
 20 21  1  0
 21 22  2  0
 22 23  1  0
 22 24  1  0
 24 25  2  0
 25 26  1  0
 26 27  2  0
 10  7  1  0
 16 11  1  0
 27 17  1  0
 26 20  1  0
  3 28  1  0
  4 29  1  0
  4 30  1  0
  8 31  1  0
  8 32  1  0
  9 33  1  0
  9 34  1  0
 10 35  1  6
 11 36  1  0
 12 37  1  0
 12 38  1  0
 13 39  1  0
 13 40  1  0
 14 41  1  0
 14 42  1  0
 15 43  1  0
 15 44  1  0
 16 45  1  0
 16 46  1  0
 18 47  1  0
 19 48  1  0
 21 49  1  0
 24 50  1  0
 25 51  1  0
M  END
>  <smiles>  (54) 
O=C(NCC(=O)N1CCC1C1CCCCC1)c1ccc2cc(F)ccc2n1

>  <score_type>  (54) 
oracle

>  <origin>  (54) 
autodockgpu

>  <m_score__min__energy>  (54) 
-8.6799999999999997

>  <m_primary>  (54) 
energy

>  <rmsd>  (54) 
2.6402414991083

>  <m_score__min__rmsd>  (54) 
2.6402414991083

>  <meeko>  (54) 
{"free_energy": -7.93, "intermolecular_energy": -9.42, "internal_energy": -1.5, "cluster_size": 2, "cluster_id": 3, "rank_in_cluster": 2}

>  <energy>  (54) 
-8.59

>  <cluster_rmsd>  (54) 
1.03

>  <cluster>  (54) 
1

$$$$

     RDKit          3D

 51 54  0  0  0  0  0  0  0  0999 V2000
  141.3210   72.4960  221.7870 O   0  0  0  0  0  0  0  0  0  0  0  0
  140.3100   72.5410  222.5060 C   0  0  0  0  0  0  0  0  0  0  0  0
  139.2330   73.4670  222.3260 N   0  0  0  0  0  0  0  0  0  0  0  0
  139.2820   74.4350  221.2630 C   0  0  0  0  0  0  0  0  0  0  0  0
  140.1970   75.5560  221.4400 C   0  0  0  0  0  0  0  0  0  0  0  0
  141.1310   75.3740  222.3140 O   0  0  0  0  0  0  0  0  0  0  0  0
  140.1670   76.7960  220.7630 N   0  0  0  0  0  0  0  0  0  0  0  0
  139.3090   77.6260  219.9430 C   0  0  0  0  0  0  0  0  0  0  0  0
  140.5740   78.1730  219.3070 C   0  0  0  0  0  0  0  0  0  0  0  0
  141.1760   77.8660  220.6330 C   0  0  1  0  0  0  0  0  0  0  0  0
  141.0690   78.9480  221.6820 C   0  0  0  0  0  0  0  0  0  0  0  0
  141.9330   80.1240  221.2960 C   0  0  0  0  0  0  0  0  0  0  0  0
  141.9500   81.1520  222.3970 C   0  0  0  0  0  0  0  0  0  0  0  0
  142.6220   80.5150  223.6070 C   0  0  0  0  0  0  0  0  0  0  0  0
  141.7010   79.4150  224.0660 C   0  0  0  0  0  0  0  0  0  0  0  0
  141.4900   78.3740  222.9940 C   0  0  0  0  0  0  0  0  0  0  0  0
  140.1970   71.5840  223.6260 C   0  0  0  0  0  0  0  0  0  0  0  0
  139.5960   70.3610  223.4510 C   0  0  0  0  0  0  0  0  0  0  0  0
  139.4830   69.4520  224.5020 C   0  0  0  0  0  0  0  0  0  0  0  0
  139.9800   69.7710  225.7550 C   0  0  0  0  0  0  0  0  0  0  0  0
  139.8850   68.8910  226.8240 C   0  0  0  0  0  0  0  0  0  0  0  0
  140.3940   69.2420  228.0650 C   0  0  0  0  0  0  0  0  0  0  0  0
  140.3040   68.3860  229.1130 F   0  0  0  0  0  0  0  0  0  0  0  0
  141.0000   70.4940  228.2160 C   0  0  0  0  0  0  0  0  0  0  0  0
  141.0830   71.3600  227.1260 C   0  0  0  0  0  0  0  0  0  0  0  0
  140.5760   71.0100  225.8880 C   0  0  0  0  0  0  0  0  0  0  0  0
  140.6680   71.8650  224.8530 N   0  0  0  0  0  0  0  0  0  0  0  0
  138.4100   73.4160  222.9910 H   0  0  0  0  0  0  0  0  0  0  0  0
  139.5762   73.9065  220.3442 H   0  0  0  0  0  0  0  0  0  0  0  0
  138.2779   74.8833  221.2337 H   0  0  0  0  0  0  0  0  0  0  0  0
  138.6517   77.0717  219.2570 H   0  0  0  0  0  0  0  0  0  0  0  0
  138.5462   78.2860  220.3818 H   0  0  0  0  0  0  0  0  0  0  0  0
  140.9688   77.5903  218.4617 H   0  0  0  0  0  0  0  0  0  0  0  0
  140.6369   79.1577  218.8207 H   0  0  0  0  0  0  0  0  0  0  0  0
  142.2557   77.6817  220.7342 H   0  0  0  0  0  0  0  0  0  0  0  0
  140.0327   79.3082  221.7616 H   0  0  0  0  0  0  0  0  0  0  0  0
  142.9594   79.7738  221.1122 H   0  0  0  0  0  0  0  0  0  0  0  0
  141.5201   80.5846  220.3864 H   0  0  0  0  0  0  0  0  0  0  0  0
  142.5173   82.0378  222.0752 H   0  0  0  0  0  0  0  0  0  0  0  0
  140.9270   81.4714  222.6451 H   0  0  0  0  0  0  0  0  0  0  0  0
  143.6012   80.1003  223.3255 H   0  0  0  0  0  0  0  0  0  0  0  0
  142.7957   81.2524  224.4045 H   0  0  0  0  0  0  0  0  0  0  0  0
  142.1391   78.9304  224.9510 H   0  0  0  0  0  0  0  0  0  0  0  0
  140.7249   79.8639  224.3022 H   0  0  0  0  0  0  0  0  0  0  0  0
  142.4336   77.8277  222.8485 H   0  0  0  0  0  0  0  0  0  0  0  0
  140.6766   77.7173  223.3361 H   0  0  0  0  0  0  0  0  0  0  0  0
  139.1959   70.0937  222.4618 H   0  0  0  0  0  0  0  0  0  0  0  0
  138.9979   68.4789  224.3358 H   0  0  0  0  0  0  0  0  0  0  0  0
  139.4041   67.9114  226.6862 H   0  0  0  0  0  0  0  0  0  0  0  0
  141.4098   70.7944  229.1916 H   0  0  0  0  0  0  0  0  0  0  0  0
  141.5618   72.3421  227.2538 H   0  0  0  0  0  0  0  0  0  0  0  0
  1  2  2  0
  2  3  1  0
  3  4  1  0
  4  5  1  0
  5  6  2  0
  5  7  1  0
  7  8  1  0
  8  9  1  0
  9 10  1  0
 10 11  1  0
 11 12  1  0
 12 13  1  0
 13 14  1  0
 14 15  1  0
 15 16  1  0
  2 17  1  0
 17 18  2  0
 18 19  1  0
 19 20  2  0
 20 21  1  0
 21 22  2  0
 22 23  1  0
 22 24  1  0
 24 25  2  0
 25 26  1  0
 26 27  2  0
 10  7  1  0
 16 11  1  0
 27 17  1  0
 26 20  1  0
  3 28  1  0
  4 29  1  0
  4 30  1  0
  8 31  1  0
  8 32  1  0
  9 33  1  0
  9 34  1  0
 10 35  1  6
 11 36  1  0
 12 37  1  0
 12 38  1  0
 13 39  1  0
 13 40  1  0
 14 41  1  0
 14 42  1  0
 15 43  1  0
 15 44  1  0
 16 45  1  0
 16 46  1  0
 18 47  1  0
 19 48  1  0
 21 49  1  0
 24 50  1  0
 25 51  1  0
M  END
>  <smiles>  (55) 
O=C(NCC(=O)N1CCC1C1CCCCC1)c1ccc2cc(F)ccc2n1

>  <score_type>  (55) 
oracle

>  <origin>  (55) 
autodockgpu

>  <m_score__min__energy>  (55) 
-8.6799999999999997

>  <m_primary>  (55) 
energy

>  <rmsd>  (55) 
2.608213994605338

>  <m_score__min__rmsd>  (55) 
2.608213994605338

>  <meeko>  (55) 
{"free_energy": -8.68, "intermolecular_energy": -10.17, "internal_energy": -1.06, "cluster_size": 39, "cluster_id": 1, "rank_in_cluster": 1}

>  <energy>  (55) 
-8.53

>  <cluster_rmsd>  (55) 
0.65

>  <cluster>  (55) 
1

$$$$

     RDKit          3D

 51 54  0  0  0  0  0  0  0  0999 V2000
  139.2540   71.3300  221.1260 O   0  0  0  0  0  0  0  0  0  0  0  0
  139.4220   71.8850  222.2240 C   0  0  0  0  0  0  0  0  0  0  0  0
  139.4380   73.3030  222.4170 N   0  0  0  0  0  0  0  0  0  0  0  0
  139.2610   74.1870  221.2950 C   0  0  0  0  0  0  0  0  0  0  0  0
  139.3230   75.6170  221.5730 C   0  0  0  0  0  0  0  0  0  0  0  0
  138.6550   76.0090  222.6070 O   0  0  0  0  0  0  0  0  0  0  0  0
  140.0300   76.5980  220.8410 N   0  0  0  0  0  0  0  0  0  0  0  0
  139.9600   77.3830  219.6260 C   0  0  0  0  0  0  0  0  0  0  0  0
  141.4780   77.3850  219.6300 C   0  0  0  0  0  0  0  0  0  0  0  0
  141.3080   77.2860  221.1060 C   0  0  1  0  0  0  0  0  0  0  0  0
  141.1660   78.5920  221.8520 C   0  0  0  0  0  0  0  0  0  0  0  0
  142.0900   79.6270  221.2580 C   0  0  0  0  0  0  0  0  0  0  0  0
  142.0660   80.8910  222.0760 C   0  0  0  0  0  0  0  0  0  0  0  0
  142.6340   80.5580  223.4500 C   0  0  0  0  0  0  0  0  0  0  0  0
  141.6500   79.6150  224.0920 C   0  0  0  0  0  0  0  0  0  0  0  0
  141.4790   78.3470  223.2900 C   0  0  0  0  0  0  0  0  0  0  0  0
  139.6230   71.0400  223.4190 C   0  0  0  0  0  0  0  0  0  0  0  0
  139.3080   69.7020  223.3990 C   0  0  0  0  0  0  0  0  0  0  0  0
  139.4920   68.8980  224.5210 C   0  0  0  0  0  0  0  0  0  0  0  0
  140.0020   69.4380  225.6900 C   0  0  0  0  0  0  0  0  0  0  0  0
  140.1990   68.6670  226.8270 C   0  0  0  0  0  0  0  0  0  0  0  0
  140.7120   69.2410  227.9800 C   0  0  0  0  0  0  0  0  0  0  0  0
  140.9060   68.4920  229.0940 F   0  0  0  0  0  0  0  0  0  0  0  0
  141.0240   70.6050  227.9750 C   0  0  0  0  0  0  0  0  0  0  0  0
  140.8160   71.3580  226.8190 C   0  0  0  0  0  0  0  0  0  0  0  0
  140.3050   70.7850  225.6680 C   0  0  0  0  0  0  0  0  0  0  0  0
  140.1150   71.5350  224.5680 N   0  0  0  0  0  0  0  0  0  0  0  0
  139.5810   73.6760  223.3980 H   0  0  0  0  0  0  0  0  0  0  0  0
  140.0468   73.9556  220.5609 H   0  0  0  0  0  0  0  0  0  0  0  0
  138.2352   74.0049  220.9420 H   0  0  0  0  0  0  0  0  0  0  0  0
  139.5028   76.8657  218.7697 H   0  0  0  0  0  0  0  0  0  0  0  0
  139.3773   78.3142  219.5679 H   0  0  0  0  0  0  0  0  0  0  0  0
  141.9539   76.5177  219.1490 H   0  0  0  0  0  0  0  0  0  0  0  0
  142.0898   78.1536  219.1351 H   0  0  0  0  0  0  0  0  0  0  0  0
  142.0973   76.8525  221.7377 H   0  0  0  0  0  0  0  0  0  0  0  0
  140.1390   78.9765  221.7663 H   0  0  0  0  0  0  0  0  0  0  0  0
  143.1150   79.2281  221.2390 H   0  0  0  0  0  0  0  0  0  0  0  0
  141.7529   79.8590  220.2370 H   0  0  0  0  0  0  0  0  0  0  0  0
  142.6819   81.6633  221.5921 H   0  0  0  0  0  0  0  0  0  0  0  0
  141.0394   81.2761  222.1641 H   0  0  0  0  0  0  0  0  0  0  0  0
  143.6167   80.0741  223.3497 H   0  0  0  0  0  0  0  0  0  0  0  0
  142.7759   81.4646  224.0565 H   0  0  0  0  0  0  0  0  0  0  0  0
  142.0120   79.3537  225.0973 H   0  0  0  0  0  0  0  0  0  0  0  0
  140.6747   80.1215  224.1406 H   0  0  0  0  0  0  0  0  0  0  0  0
  142.4126   77.7683  223.3498 H   0  0  0  0  0  0  0  0  0  0  0  0
  140.6244   77.8041  223.7200 H   0  0  0  0  0  0  0  0  0  0  0  0
  138.9024   69.2575  222.4782 H   0  0  0  0  0  0  0  0  0  0  0  0
  139.2314   67.8302  224.4787 H   0  0  0  0  0  0  0  0  0  0  0  0
  139.9471   67.5963  226.8133 H   0  0  0  0  0  0  0  0  0  0  0  0
  141.4316   71.0816  228.8787 H   0  0  0  0  0  0  0  0  0  0  0  0
  141.0635   72.4298  226.8228 H   0  0  0  0  0  0  0  0  0  0  0  0
  1  2  2  0
  2  3  1  0
  3  4  1  0
  4  5  1  0
  5  6  2  0
  5  7  1  0
  7  8  1  0
  8  9  1  0
  9 10  1  0
 10 11  1  0
 11 12  1  0
 12 13  1  0
 13 14  1  0
 14 15  1  0
 15 16  1  0
  2 17  1  0
 17 18  2  0
 18 19  1  0
 19 20  2  0
 20 21  1  0
 21 22  2  0
 22 23  1  0
 22 24  1  0
 24 25  2  0
 25 26  1  0
 26 27  2  0
 10  7  1  0
 16 11  1  0
 27 17  1  0
 26 20  1  0
  3 28  1  0
  4 29  1  0
  4 30  1  0
  8 31  1  0
  8 32  1  0
  9 33  1  0
  9 34  1  0
 10 35  1  1
 11 36  1  0
 12 37  1  0
 12 38  1  0
 13 39  1  0
 13 40  1  0
 14 41  1  0
 14 42  1  0
 15 43  1  0
 15 44  1  0
 16 45  1  0
 16 46  1  0
 18 47  1  0
 19 48  1  0
 21 49  1  0
 24 50  1  0
 25 51  1  0
M  END
>  <smiles>  (56) 
O=C(NCC(=O)N1CCC1C1CCCCC1)c1ccc2cc(F)ccc2n1

>  <score_type>  (56) 
oracle

>  <origin>  (56) 
autodockgpu

>  <m_score__min__energy>  (56) 
-8.6799999999999997

>  <m_primary>  (56) 
energy

>  <rmsd>  (56) 
2.4184032336037995

>  <m_score__min__rmsd>  (56) 
2.4184032336037995

>  <meeko>  (56) 
{"free_energy": -8.09, "intermolecular_energy": -9.58, "internal_energy": -1.44, "cluster_size": 39, "cluster_id": 1, "rank_in_cluster": 31}

>  <energy>  (56) 
-8.52

>  <cluster_rmsd>  (56) 
0.84

>  <cluster>  (56) 
1

$$$$

     RDKit          3D

 51 54  0  0  0  0  0  0  0  0999 V2000
  141.1080   71.9840  221.2880 O   0  0  0  0  0  0  0  0  0  0  0  0
  140.4790   72.4300  222.2610 C   0  0  0  0  0  0  0  0  0  0  0  0
  139.9420   73.7550  222.3360 N   0  0  0  0  0  0  0  0  0  0  0  0
  140.1240   74.6710  221.2410 C   0  0  0  0  0  0  0  0  0  0  0  0
  139.0330   75.6040  220.9800 C   0  0  0  0  0  0  0  0  0  0  0  0
  138.6440   75.6700  219.7500 O   0  0  0  0  0  0  0  0  0  0  0  0
  138.3700   76.4240  221.9210 N   0  0  0  0  0  0  0  0  0  0  0  0
  137.5230   76.3570  223.0930 C   0  0  0  0  0  0  0  0  0  0  0  0
  136.9500   77.6950  222.6620 C   0  0  0  0  0  0  0  0  0  0  0  0
  138.2980   77.8920  222.0630 C   0  0  1  0  0  0  0  0  0  0  0  0
  139.3540   78.4780  222.9700 C   0  0  0  0  0  0  0  0  0  0  0  0
  139.3740   79.9810  222.8300 C   0  0  0  0  0  0  0  0  0  0  0  0
  140.5130   80.5710  223.6190 C   0  0  0  0  0  0  0  0  0  0  0  0
  141.8100   80.0730  222.9940 C   0  0  0  0  0  0  0  0  0  0  0  0
  141.8480   78.5860  223.2370 C   0  0  0  0  0  0  0  0  0  0  0  0
  140.6720   77.8820  222.6040 C   0  0  0  0  0  0  0  0  0  0  0  0
  140.2650   71.5490  223.4280 C   0  0  0  0  0  0  0  0  0  0  0  0
  139.5870   70.3600  223.2990 C   0  0  0  0  0  0  0  0  0  0  0  0
  139.3790   69.5230  224.3930 C   0  0  0  0  0  0  0  0  0  0  0  0
  139.8560   69.8800  225.6440 C   0  0  0  0  0  0  0  0  0  0  0  0
  139.6670   69.0710  226.7560 C   0  0  0  0  0  0  0  0  0  0  0  0
  140.1590   69.4580  227.9930 C   0  0  0  0  0  0  0  0  0  0  0  0
  139.9770   68.6720  229.0830 F   0  0  0  0  0  0  0  0  0  0  0  0
  140.8440   70.6730  228.0970 C   0  0  0  0  0  0  0  0  0  0  0  0
  141.0210   71.4680  226.9640 C   0  0  0  0  0  0  0  0  0  0  0  0
  140.5310   71.0820  225.7300 C   0  0  0  0  0  0  0  0  0  0  0  0
  140.7150   71.8680  224.6530 N   0  0  0  0  0  0  0  0  0  0  0  0
  139.4130   74.0350  223.2100 H   0  0  0  0  0  0  0  0  0  0  0  0
  141.0271   75.2636  221.4486 H   0  0  0  0  0  0  0  0  0  0  0  0
  140.1859   74.0394  220.3425 H   0  0  0  0  0  0  0  0  0  0  0  0
  136.8021   75.5262  223.0928 H   0  0  0  0  0  0  0  0  0  0  0  0
  137.9354   76.1982  224.1003 H   0  0  0  0  0  0  0  0  0  0  0  0
  136.1166   77.6444  221.9458 H   0  0  0  0  0  0  0  0  0  0  0  0
  136.4780   78.4089  223.3531 H   0  0  0  0  0  0  0  0  0  0  0  0
  138.4452   78.5804  221.2177 H   0  0  0  0  0  0  0  0  0  0  0  0
  139.1328   78.2447  224.0220 H   0  0  0  0  0  0  0  0  0  0  0  0
  139.4949   80.2438  221.7687 H   0  0  0  0  0  0  0  0  0  0  0  0
  138.4271   80.3861  223.2165 H   0  0  0  0  0  0  0  0  0  0  0  0
  140.4719   81.6693  223.5738 H   0  0  0  0  0  0  0  0  0  0  0  0
  140.4506   80.2682  224.6747 H   0  0  0  0  0  0  0  0  0  0  0  0
  141.8189   80.2836  221.9144 H   0  0  0  0  0  0  0  0  0  0  0  0
  142.6855   80.5741  223.4327 H   0  0  0  0  0  0  0  0  0  0  0  0
  142.7772   78.1796  222.8109 H   0  0  0  0  0  0  0  0  0  0  0  0
  141.8025   78.4167  224.3229 H   0  0  0  0  0  0  0  0  0  0  0  0
  140.7845   77.9304  221.5108 H   0  0  0  0  0  0  0  0  0  0  0  0
  140.6744   76.8476  222.9783 H   0  0  0  0  0  0  0  0  0  0  0  0
  139.2011   70.0637  222.3124 H   0  0  0  0  0  0  0  0  0  0  0  0
  138.8345   68.5760  224.2634 H   0  0  0  0  0  0  0  0  0  0  0  0
  139.1248   68.1192  226.6553 H   0  0  0  0  0  0  0  0  0  0  0  0
  141.2419   71.0007  229.0687 H   0  0  0  0  0  0  0  0  0  0  0  0
  141.5616   72.4217  227.0544 H   0  0  0  0  0  0  0  0  0  0  0  0
  1  2  2  0
  2  3  1  0
  3  4  1  0
  4  5  1  0
  5  6  2  0
  5  7  1  0
  7  8  1  0
  8  9  1  0
  9 10  1  0
 10 11  1  0
 11 12  1  0
 12 13  1  0
 13 14  1  0
 14 15  1  0
 15 16  1  0
  2 17  1  0
 17 18  2  0
 18 19  1  0
 19 20  2  0
 20 21  1  0
 21 22  2  0
 22 23  1  0
 22 24  1  0
 24 25  2  0
 25 26  1  0
 26 27  2  0
 10  7  1  0
 16 11  1  0
 27 17  1  0
 26 20  1  0
  3 28  1  0
  4 29  1  0
  4 30  1  0
  8 31  1  0
  8 32  1  0
  9 33  1  0
  9 34  1  0
 10 35  1  6
 11 36  1  0
 12 37  1  0
 12 38  1  0
 13 39  1  0
 13 40  1  0
 14 41  1  0
 14 42  1  0
 15 43  1  0
 15 44  1  0
 16 45  1  0
 16 46  1  0
 18 47  1  0
 19 48  1  0
 21 49  1  0
 24 50  1  0
 25 51  1  0
M  END
>  <smiles>  (57) 
O=C(NCC(=O)N1CCC1C1CCCCC1)c1ccc2cc(F)ccc2n1

>  <score_type>  (57) 
oracle

>  <origin>  (57) 
autodockgpu

>  <m_score__min__energy>  (57) 
-8.6799999999999997

>  <m_primary>  (57) 
energy

>  <rmsd>  (57) 
3.4099996747285433

>  <m_score__min__rmsd>  (57) 
3.4099996747285433

>  <meeko>  (57) 
{"free_energy": -7.89, "intermolecular_energy": -9.39, "internal_energy": -1.16, "cluster_size": 39, "cluster_id": 1, "rank_in_cluster": 39}

>  <energy>  (57) 
-8.49

>  <cluster_rmsd>  (57) 
0.62

>  <cluster>  (57) 
1

$$$$

     RDKit          3D

 51 54  0  0  0  0  0  0  0  0999 V2000
  141.1940   71.9770  221.3260 O   0  0  0  0  0  0  0  0  0  0  0  0
  140.4790   72.3860  222.2550 C   0  0  0  0  0  0  0  0  0  0  0  0
  139.8360   73.6650  222.2740 N   0  0  0  0  0  0  0  0  0  0  0  0
  140.0060   74.5760  221.1730 C   0  0  0  0  0  0  0  0  0  0  0  0
  139.4990   75.9310  221.3600 C   0  0  0  0  0  0  0  0  0  0  0  0
  138.5460   76.0490  222.2260 O   0  0  0  0  0  0  0  0  0  0  0  0
  139.9380   77.1040  220.7060 N   0  0  0  0  0  0  0  0  0  0  0  0
  139.5190   78.0880  219.7310 C   0  0  0  0  0  0  0  0  0  0  0  0
  140.9880   78.2610  219.3870 C   0  0  0  0  0  0  0  0  0  0  0  0
  141.1960   77.8700  220.8080 C   0  0  1  0  0  0  0  0  0  0  0  0
  141.1580   78.9890  221.8220 C   0  0  0  0  0  0  0  0  0  0  0  0
  142.1120   80.0850  221.4120 C   0  0  0  0  0  0  0  0  0  0  0  0
  142.1930   81.1430  222.4800 C   0  0  0  0  0  0  0  0  0  0  0  0
  142.8010   80.4970  223.7190 C   0  0  0  0  0  0  0  0  0  0  0  0
  141.7950   79.4830  224.1980 C   0  0  0  0  0  0  0  0  0  0  0  0
  141.5190   78.4270  223.1560 C   0  0  0  0  0  0  0  0  0  0  0  0
  140.2690   71.5080  223.4250 C   0  0  0  0  0  0  0  0  0  0  0  0
  139.6200   70.3040  223.2960 C   0  0  0  0  0  0  0  0  0  0  0  0
  139.4170   69.4700  224.3930 C   0  0  0  0  0  0  0  0  0  0  0  0
  139.8700   69.8450  225.6480 C   0  0  0  0  0  0  0  0  0  0  0  0
  139.6850   69.0400  226.7620 C   0  0  0  0  0  0  0  0  0  0  0  0
  140.1520   69.4470  228.0030 C   0  0  0  0  0  0  0  0  0  0  0  0
  139.9740   68.6640  229.0960 F   0  0  0  0  0  0  0  0  0  0  0  0
  140.8080   70.6780  228.1070 C   0  0  0  0  0  0  0  0  0  0  0  0
  140.9810   71.4680  226.9710 C   0  0  0  0  0  0  0  0  0  0  0  0
  140.5160   71.0630  225.7330 C   0  0  0  0  0  0  0  0  0  0  0  0
  140.6960   71.8450  224.6540 N   0  0  0  0  0  0  0  0  0  0  0  0
  139.2390   73.9150  223.1130 H   0  0  0  0  0  0  0  0  0  0  0  0
  141.0835   74.6491  220.9641 H   0  0  0  0  0  0  0  0  0  0  0  0
  139.4068   74.1536  220.3529 H   0  0  0  0  0  0  0  0  0  0  0  0
  138.8987   77.6910  218.9139 H   0  0  0  0  0  0  0  0  0  0  0  0
  138.8808   78.9416  220.0033 H   0  0  0  0  0  0  0  0  0  0  0  0
  141.3851   77.5582  218.6397 H   0  0  0  0  0  0  0  0  0  0  0  0
  141.4070   79.1728  218.9364 H   0  0  0  0  0  0  0  0  0  0  0  0
  142.1437   77.4184  221.1365 H   0  0  0  0  0  0  0  0  0  0  0  0
  140.1507   79.4277  221.8765 H   0  0  0  0  0  0  0  0  0  0  0  0
  143.1115   79.6539  221.2535 H   0  0  0  0  0  0  0  0  0  0  0  0
  141.7451   80.5458  220.4830 H   0  0  0  0  0  0  0  0  0  0  0  0
  142.8289   81.9732  222.1388 H   0  0  0  0  0  0  0  0  0  0  0  0
  141.1939   81.5455  222.7034 H   0  0  0  0  0  0  0  0  0  0  0  0
  143.7501   80.0025  223.4649 H   0  0  0  0  0  0  0  0  0  0  0  0
  143.0191   81.2446  224.4959 H   0  0  0  0  0  0  0  0  0  0  0  0
  142.1853   78.9954  225.1035 H   0  0  0  0  0  0  0  0  0  0  0  0
  140.8524   80.0106  224.4060 H   0  0  0  0  0  0  0  0  0  0  0  0
  142.4205   77.8074  223.0406 H   0  0  0  0  0  0  0  0  0  0  0  0
  140.6547   77.8438  223.5066 H   0  0  0  0  0  0  0  0  0  0  0  0
  139.2534   69.9924  222.3068 H   0  0  0  0  0  0  0  0  0  0  0  0
  138.8953   68.5104  224.2628 H   0  0  0  0  0  0  0  0  0  0  0  0
  139.1661   68.0754  226.6610 H   0  0  0  0  0  0  0  0  0  0  0  0
  141.1860   71.0216  229.0812 H   0  0  0  0  0  0  0  0  0  0  0  0
  141.4986   72.4344  227.0615 H   0  0  0  0  0  0  0  0  0  0  0  0
  1  2  2  0
  2  3  1  0
  3  4  1  0
  4  5  1  0
  5  6  2  0
  5  7  1  0
  7  8  1  0
  8  9  1  0
  9 10  1  0
 10 11  1  0
 11 12  1  0
 12 13  1  0
 13 14  1  0
 14 15  1  0
 15 16  1  0
  2 17  1  0
 17 18  2  0
 18 19  1  0
 19 20  2  0
 20 21  1  0
 21 22  2  0
 22 23  1  0
 22 24  1  0
 24 25  2  0
 25 26  1  0
 26 27  2  0
 10  7  1  0
 16 11  1  0
 27 17  1  0
 26 20  1  0
  3 28  1  0
  4 29  1  0
  4 30  1  0
  8 31  1  0
  8 32  1  0
  9 33  1  0
  9 34  1  0
 10 35  1  6
 11 36  1  0
 12 37  1  0
 12 38  1  0
 13 39  1  0
 13 40  1  0
 14 41  1  0
 14 42  1  0
 15 43  1  0
 15 44  1  0
 16 45  1  0
 16 46  1  0
 18 47  1  0
 19 48  1  0
 21 49  1  0
 24 50  1  0
 25 51  1  0
M  END
>  <smiles>  (58) 
O=C(NCC(=O)N1CCC1C1CCCCC1)c1ccc2cc(F)ccc2n1

>  <score_type>  (58) 
oracle

>  <origin>  (58) 
autodockgpu

>  <m_score__min__energy>  (58) 
-8.6799999999999997

>  <m_primary>  (58) 
energy

>  <rmsd>  (58) 
2.7732741743557985

>  <m_score__min__rmsd>  (58) 
2.7732741743557985

>  <meeko>  (58) 
{"free_energy": -8.39, "intermolecular_energy": -9.89, "internal_energy": -1.42, "cluster_size": 39, "cluster_id": 1, "rank_in_cluster": 14}

>  <energy>  (58) 
-8.46

>  <cluster_rmsd>  (58) 
0.63

>  <cluster>  (58) 
1

$$$$

     RDKit          3D

 51 54  0  0  0  0  0  0  0  0999 V2000
  133.4630   70.1310  226.5030 O   0  0  0  0  0  0  0  0  0  0  0  0
  133.8920   71.2310  226.1200 C   0  0  0  0  0  0  0  0  0  0  0  0
  134.9940   71.3980  225.2210 N   0  0  0  0  0  0  0  0  0  0  0  0
  135.6880   70.2470  224.7070 C   0  0  0  0  0  0  0  0  0  0  0  0
  136.9960   70.4860  224.1080 C   0  0  0  0  0  0  0  0  0  0  0  0
  137.2330   71.7090  223.7670 O   0  0  0  0  0  0  0  0  0  0  0  0
  138.0130   69.5320  223.8730 N   0  0  0  0  0  0  0  0  0  0  0  0
  139.0070   69.1470  222.8940 C   0  0  0  0  0  0  0  0  0  0  0  0
  138.8470   67.7260  223.4040 C   0  0  0  0  0  0  0  0  0  0  0  0
  138.5010   68.4000  224.6840 C   0  0  1  0  0  0  0  0  0  0  0  0
  139.6580   68.7440  225.5930 C   0  0  0  0  0  0  0  0  0  0  0  0
  140.2600   67.4800  226.1590 C   0  0  0  0  0  0  0  0  0  0  0  0
  141.3210   67.8090  227.1750 C   0  0  0  0  0  0  0  0  0  0  0  0
  140.6370   68.5090  228.3420 C   0  0  0  0  0  0  0  0  0  0  0  0
  140.1380   69.8250  227.8070 C   0  0  0  0  0  0  0  0  0  0  0  0
  139.1540   69.6380  226.6770 C   0  0  0  0  0  0  0  0  0  0  0  0
  133.2360   72.4580  226.6170 C   0  0  0  0  0  0  0  0  0  0  0  0
  132.0310   72.3960  227.2760 C   0  0  0  0  0  0  0  0  0  0  0  0
  131.4040   73.5480  227.7480 C   0  0  0  0  0  0  0  0  0  0  0  0
  131.9900   74.7880  227.5580 C   0  0  0  0  0  0  0  0  0  0  0  0
  131.3940   75.9550  228.0140 C   0  0  0  0  0  0  0  0  0  0  0  0
  132.0090   77.1800  227.8070 C   0  0  0  0  0  0  0  0  0  0  0  0
  131.4310   78.3250  228.2500 F   0  0  0  0  0  0  0  0  0  0  0  0
  133.2340   77.2160  227.1320 C   0  0  0  0  0  0  0  0  0  0  0  0
  133.8120   76.0280  226.6840 C   0  0  0  0  0  0  0  0  0  0  0  0
  133.1990   74.8060  226.8910 C   0  0  0  0  0  0  0  0  0  0  0  0
  133.7790   73.6750  226.4480 N   0  0  0  0  0  0  0  0  0  0  0  0
  135.2770   72.3820  224.9500 H   0  0  0  0  0  0  0  0  0  0  0  0
  135.8263   69.5415  225.5396 H   0  0  0  0  0  0  0  0  0  0  0  0
  135.0582   69.8712  223.8872 H   0  0  0  0  0  0  0  0  0  0  0  0
  138.7043   69.2972  221.8472 H   0  0  0  0  0  0  0  0  0  0  0  0
  139.9897   69.6382  222.8381 H   0  0  0  0  0  0  0  0  0  0  0  0
  138.0358   67.1454  222.9405 H   0  0  0  0  0  0  0  0  0  0  0  0
  139.6236   66.9525  223.3112 H   0  0  0  0  0  0  0  0  0  0  0  0
  137.8788   67.8951  225.4376 H   0  0  0  0  0  0  0  0  0  0  0  0
  140.4479   69.2661  225.0332 H   0  0  0  0  0  0  0  0  0  0  0  0
  139.4689   66.8869  226.6411 H   0  0  0  0  0  0  0  0  0  0  0  0
  140.7183   66.9069  225.3395 H   0  0  0  0  0  0  0  0  0  0  0  0
  141.8064   66.8854  227.5235 H   0  0  0  0  0  0  0  0  0  0  0  0
  142.0924   68.4569  226.7332 H   0  0  0  0  0  0  0  0  0  0  0  0
  139.7959   67.9033  228.7102 H   0  0  0  0  0  0  0  0  0  0  0  0
  141.3295   68.6548  229.1841 H   0  0  0  0  0  0  0  0  0  0  0  0
  139.6438   70.3753  228.6212 H   0  0  0  0  0  0  0  0  0  0  0  0
  141.0018   70.3836  227.4173 H   0  0  0  0  0  0  0  0  0  0  0  0
  138.2310   69.2024  227.0871 H   0  0  0  0  0  0  0  0  0  0  0  0
  138.9834   70.6277  226.2282 H   0  0  0  0  0  0  0  0  0  0  0  0
  131.5524   71.4183  227.4339 H   0  0  0  0  0  0  0  0  0  0  0  0
  130.4405   73.4717  228.2732 H   0  0  0  0  0  0  0  0  0  0  0  0
  130.4300   75.9080  228.5417 H   0  0  0  0  0  0  0  0  0  0  0  0
  133.7392   78.1770  226.9553 H   0  0  0  0  0  0  0  0  0  0  0  0
  134.7757   76.0642  226.1549 H   0  0  0  0  0  0  0  0  0  0  0  0
  1  2  2  0
  2  3  1  0
  3  4  1  0
  4  5  1  0
  5  6  2  0
  5  7  1  0
  7  8  1  0
  8  9  1  0
  9 10  1  0
 10 11  1  0
 11 12  1  0
 12 13  1  0
 13 14  1  0
 14 15  1  0
 15 16  1  0
  2 17  1  0
 17 18  2  0
 18 19  1  0
 19 20  2  0
 20 21  1  0
 21 22  2  0
 22 23  1  0
 22 24  1  0
 24 25  2  0
 25 26  1  0
 26 27  2  0
 10  7  1  0
 16 11  1  0
 27 17  1  0
 26 20  1  0
  3 28  1  0
  4 29  1  0
  4 30  1  0
  8 31  1  0
  8 32  1  0
  9 33  1  0
  9 34  1  0
 10 35  1  1
 11 36  1  0
 12 37  1  0
 12 38  1  0
 13 39  1  0
 13 40  1  0
 14 41  1  0
 14 42  1  0
 15 43  1  0
 15 44  1  0
 16 45  1  0
 16 46  1  0
 18 47  1  0
 19 48  1  0
 21 49  1  0
 24 50  1  0
 25 51  1  0
M  END
>  <smiles>  (59) 
O=C(NCC(=O)N1CCC1C1CCCCC1)c1ccc2cc(F)ccc2n1

>  <score_type>  (59) 
oracle

>  <origin>  (59) 
autodockgpu

>  <m_score__min__energy>  (59) 
-8.6799999999999997

>  <m_primary>  (59) 
energy

>  <rmsd>  (59) 
9.199716677298701

>  <m_score__min__rmsd>  (59) 
9.199716677298701

>  <meeko>  (59) 
{"free_energy": -7.55, "intermolecular_energy": -9.04, "internal_energy": -1.75, "cluster_size": 2, "cluster_id": 4, "rank_in_cluster": 1}

>  <energy>  (59) 
-8.43

>  <cluster_rmsd>  (59) 
0.71

>  <cluster>  (59) 
1

$$$$

     RDKit          3D

 51 54  0  0  0  0  0  0  0  0999 V2000
  141.3820   72.2920  221.5600 O   0  0  0  0  0  0  0  0  0  0  0  0
  140.4910   72.5440  222.3860 C   0  0  0  0  0  0  0  0  0  0  0  0
  139.6460   73.6990  222.3330 N   0  0  0  0  0  0  0  0  0  0  0  0
  139.8070   74.6650  221.2790 C   0  0  0  0  0  0  0  0  0  0  0  0
  139.3080   76.0100  221.5410 C   0  0  0  0  0  0  0  0  0  0  0  0
  138.3760   76.0890  222.4320 O   0  0  0  0  0  0  0  0  0  0  0  0
  139.7370   77.2120  220.9330 N   0  0  0  0  0  0  0  0  0  0  0  0
  139.2390   78.4810  220.4470 C   0  0  0  0  0  0  0  0  0  0  0  0
  140.3850   78.4620  219.4510 C   0  0  0  0  0  0  0  0  0  0  0  0
  141.0730   77.6740  220.5100 C   0  0  1  0  0  0  0  0  0  0  0  0
  141.8150   78.4670  221.5600 C   0  0  0  0  0  0  0  0  0  0  0  0
  141.1590   78.2770  222.9060 C   0  0  0  0  0  0  0  0  0  0  0  0
  141.7990   79.1690  223.9370 C   0  0  0  0  0  0  0  0  0  0  0  0
  141.5180   80.6110  223.5310 C   0  0  0  0  0  0  0  0  0  0  0  0
  142.2690   80.8380  222.2460 C   0  0  0  0  0  0  0  0  0  0  0  0
  141.8120   79.9030  221.1530 C   0  0  0  0  0  0  0  0  0  0  0  0
  140.2760   71.6030  223.5040 C   0  0  0  0  0  0  0  0  0  0  0  0
  139.6050   70.4190  223.3110 C   0  0  0  0  0  0  0  0  0  0  0  0
  139.3970   69.5250  224.3590 C   0  0  0  0  0  0  0  0  0  0  0  0
  139.8680   69.8180  225.6290 C   0  0  0  0  0  0  0  0  0  0  0  0
  139.6790   68.9510  226.6960 C   0  0  0  0  0  0  0  0  0  0  0  0
  140.1640   69.2760  227.9530 C   0  0  0  0  0  0  0  0  0  0  0  0
  139.9820   68.4330  229.0000 F   0  0  0  0  0  0  0  0  0  0  0  0
  140.8430   70.4870  228.1230 C   0  0  0  0  0  0  0  0  0  0  0  0
  141.0200   71.3400  227.0340 C   0  0  0  0  0  0  0  0  0  0  0  0
  140.5360   71.0170  225.7800 C   0  0  0  0  0  0  0  0  0  0  0  0
  140.7210   71.8590  224.7460 N   0  0  0  0  0  0  0  0  0  0  0  0
  138.9090   73.8170  223.0840 H   0  0  0  0  0  0  0  0  0  0  0  0
  140.8824   74.7450  221.0617 H   0  0  0  0  0  0  0  0  0  0  0  0
  139.1964   74.2876  220.4455 H   0  0  0  0  0  0  0  0  0  0  0  0
  138.2365   78.4398  219.9960 H   0  0  0  0  0  0  0  0  0  0  0  0
  139.0664   79.3344  221.1193 H   0  0  0  0  0  0  0  0  0  0  0  0
  140.1877   77.9229  218.5126 H   0  0  0  0  0  0  0  0  0  0  0  0
  140.8086   79.3660  218.9892 H   0  0  0  0  0  0  0  0  0  0  0  0
  141.8905   76.9826  220.2578 H   0  0  0  0  0  0  0  0  0  0  0  0
  142.8548   78.1182  221.6452 H   0  0  0  0  0  0  0  0  0  0  0  0
  140.0904   78.5255  222.8259 H   0  0  0  0  0  0  0  0  0  0  0  0
  141.2831   77.2291  223.2168 H   0  0  0  0  0  0  0  0  0  0  0  0
  141.3677   78.9669  224.9285 H   0  0  0  0  0  0  0  0  0  0  0  0
  142.8822   78.9850  223.9906 H   0  0  0  0  0  0  0  0  0  0  0  0
  140.4395   80.7600  223.3741 H   0  0  0  0  0  0  0  0  0  0  0  0
  141.8362   81.3172  224.3120 H   0  0  0  0  0  0  0  0  0  0  0  0
  142.1061   81.8751  221.9176 H   0  0  0  0  0  0  0  0  0  0  0  0
  143.3350   80.6443  222.4360 H   0  0  0  0  0  0  0  0  0  0  0  0
  140.7880   80.1807  220.8625 H   0  0  0  0  0  0  0  0  0  0  0  0
  142.5234   80.0054  220.3203 H   0  0  0  0  0  0  0  0  0  0  0  0
  139.2245   70.1724  222.3088 H   0  0  0  0  0  0  0  0  0  0  0  0
  138.8573   68.5837  224.1779 H   0  0  0  0  0  0  0  0  0  0  0  0
  139.1426   68.0028  226.5436 H   0  0  0  0  0  0  0  0  0  0  0  0
  141.2359   70.7655  229.1120 H   0  0  0  0  0  0  0  0  0  0  0  0
  141.5561   72.2900  227.1758 H   0  0  0  0  0  0  0  0  0  0  0  0
  1  2  2  0
  2  3  1  0
  3  4  1  0
  4  5  1  0
  5  6  2  0
  5  7  1  0
  7  8  1  0
  8  9  1  0
  9 10  1  0
 10 11  1  0
 11 12  1  0
 12 13  1  0
 13 14  1  0
 14 15  1  0
 15 16  1  0
  2 17  1  0
 17 18  2  0
 18 19  1  0
 19 20  2  0
 20 21  1  0
 21 22  2  0
 22 23  1  0
 22 24  1  0
 24 25  2  0
 25 26  1  0
 26 27  2  0
 10  7  1  0
 16 11  1  0
 27 17  1  0
 26 20  1  0
  3 28  1  0
  4 29  1  0
  4 30  1  0
  8 31  1  0
  8 32  1  0
  9 33  1  0
  9 34  1  0
 10 35  1  6
 11 36  1  0
 12 37  1  0
 12 38  1  0
 13 39  1  0
 13 40  1  0
 14 41  1  0
 14 42  1  0
 15 43  1  0
 15 44  1  0
 16 45  1  0
 16 46  1  0
 18 47  1  0
 19 48  1  0
 21 49  1  0
 24 50  1  0
 25 51  1  0
M  END
>  <smiles>  (60) 
O=C(NCC(=O)N1CCC1C1CCCCC1)c1ccc2cc(F)ccc2n1

>  <score_type>  (60) 
oracle

>  <origin>  (60) 
autodockgpu

>  <m_score__min__energy>  (60) 
-8.6799999999999997

>  <m_primary>  (60) 
energy

>  <rmsd>  (60) 
2.8602728879968033

>  <m_score__min__rmsd>  (60) 
2.8602728879968033

>  <meeko>  (60) 
{"free_energy": -8.37, "intermolecular_energy": -9.86, "internal_energy": -1.25, "cluster_size": 39, "cluster_id": 1, "rank_in_cluster": 17}

>  <energy>  (60) 
-8.43

>  <cluster_rmsd>  (60) 
0.7

>  <cluster>  (60) 
1

$$$$

     RDKit          3D

 51 54  0  0  0  0  0  0  0  0999 V2000
  135.5820   70.8300  223.8240 O   0  0  0  0  0  0  0  0  0  0  0  0
  135.6540   72.0590  223.9770 C   0  0  0  0  0  0  0  0  0  0  0  0
  136.5830   72.9040  223.2890 N   0  0  0  0  0  0  0  0  0  0  0  0
  137.5210   72.3380  222.3550 C   0  0  0  0  0  0  0  0  0  0  0  0
  138.7500   71.7880  222.9150 C   0  0  0  0  0  0  0  0  0  0  0  0
  139.7760   72.5720  222.8720 O   0  0  0  0  0  0  0  0  0  0  0  0
  138.9270   70.5100  223.4920 N   0  0  0  0  0  0  0  0  0  0  0  0
  139.3350   69.1600  223.1650 C   0  0  0  0  0  0  0  0  0  0  0  0
  138.4090   68.6930  224.2730 C   0  0  0  0  0  0  0  0  0  0  0  0
  138.7230   70.0200  224.8690 C   0  0  1  0  0  0  0  0  0  0  0  0
  139.9560   70.0880  225.7390 C   0  0  0  0  0  0  0  0  0  0  0  0
  139.6490   69.5350  227.1100 C   0  0  0  0  0  0  0  0  0  0  0  0
  140.8240   69.7230  228.0320 C   0  0  0  0  0  0  0  0  0  0  0  0
  141.0250   71.2220  228.2170 C   0  0  0  0  0  0  0  0  0  0  0  0
  141.4470   71.7570  226.8740 C   0  0  0  0  0  0  0  0  0  0  0  0
  140.4010   71.5100  225.8150 C   0  0  0  0  0  0  0  0  0  0  0  0
  134.7300   72.7080  224.9300 C   0  0  0  0  0  0  0  0  0  0  0  0
  133.8330   71.9660  225.6590 C   0  0  0  0  0  0  0  0  0  0  0  0
  132.9570   72.5690  226.5590 C   0  0  0  0  0  0  0  0  0  0  0  0
  132.9750   73.9430  226.7360 C   0  0  0  0  0  0  0  0  0  0  0  0
  132.1180   74.5770  227.6230 C   0  0  0  0  0  0  0  0  0  0  0  0
  132.1640   75.9550  227.7750 C   0  0  0  0  0  0  0  0  0  0  0  0
  131.3280   76.5800  228.6410 F   0  0  0  0  0  0  0  0  0  0  0  0
  133.0860   76.6870  227.0200 C   0  0  0  0  0  0  0  0  0  0  0  0
  133.9370   76.0250  226.1350 C   0  0  0  0  0  0  0  0  0  0  0  0
  133.8920   74.6510  225.9830 C   0  0  0  0  0  0  0  0  0  0  0  0
  134.7240   74.0390  225.1220 N   0  0  0  0  0  0  0  0  0  0  0  0
  136.5580   73.9450  223.4860 H   0  0  0  0  0  0  0  0  0  0  0  0
  137.0078   71.5276  221.8166 H   0  0  0  0  0  0  0  0  0  0  0  0
  137.8419   73.1782  221.7216 H   0  0  0  0  0  0  0  0  0  0  0  0
  139.0512   68.8251  222.1564 H   0  0  0  0  0  0  0  0  0  0  0  0
  140.3941   68.8650  223.1290 H   0  0  0  0  0  0  0  0  0  0  0  0
  137.3594   68.5420  223.9804 H   0  0  0  0  0  0  0  0  0  0  0  0
  138.5284   67.7392  224.8078 H   0  0  0  0  0  0  0  0  0  0  0  0
  138.0297   70.4999  225.5755 H   0  0  0  0  0  0  0  0  0  0  0  0
  140.7655   69.4799  225.3091 H   0  0  0  0  0  0  0  0  0  0  0  0
  138.7762   70.0606  227.5248 H   0  0  0  0  0  0  0  0  0  0  0  0
  139.4376   68.4593  227.0195 H   0  0  0  0  0  0  0  0  0  0  0  0
  140.6191   69.2488  229.0031 H   0  0  0  0  0  0  0  0  0  0  0  0
  141.7274   69.2601  227.6081 H   0  0  0  0  0  0  0  0  0  0  0  0
  140.0859   71.6960  228.5386 H   0  0  0  0  0  0  0  0  0  0  0  0
  141.7800   71.4335  228.9885 H   0  0  0  0  0  0  0  0  0  0  0  0
  141.6166   72.8404  226.9603 H   0  0  0  0  0  0  0  0  0  0  0  0
  142.3666   71.2340  226.5728 H   0  0  0  0  0  0  0  0  0  0  0  0
  139.5254   72.1375  226.0373 H   0  0  0  0  0  0  0  0  0  0  0  0
  140.8569   71.7589  224.8453 H   0  0  0  0  0  0  0  0  0  0  0  0
  133.8057   70.8740  225.5296 H   0  0  0  0  0  0  0  0  0  0  0  0
  132.2485   71.9520  227.1311 H   0  0  0  0  0  0  0  0  0  0  0  0
  131.3990   73.9849  228.2082 H   0  0  0  0  0  0  0  0  0  0  0  0
  133.1399   77.7808  227.1237 H   0  0  0  0  0  0  0  0  0  0  0  0
  134.6595   76.6083  225.5452 H   0  0  0  0  0  0  0  0  0  0  0  0
  1  2  2  0
  2  3  1  0
  3  4  1  0
  4  5  1  0
  5  6  2  0
  5  7  1  0
  7  8  1  0
  8  9  1  0
  9 10  1  0
 10 11  1  0
 11 12  1  0
 12 13  1  0
 13 14  1  0
 14 15  1  0
 15 16  1  0
  2 17  1  0
 17 18  2  0
 18 19  1  0
 19 20  2  0
 20 21  1  0
 21 22  2  0
 22 23  1  0
 22 24  1  0
 24 25  2  0
 25 26  1  0
 26 27  2  0
 10  7  1  0
 16 11  1  0
 27 17  1  0
 26 20  1  0
  3 28  1  0
  4 29  1  0
  4 30  1  0
  8 31  1  0
  8 32  1  0
  9 33  1  0
  9 34  1  0
 10 35  1  1
 11 36  1  0
 12 37  1  0
 12 38  1  0
 13 39  1  0
 13 40  1  0
 14 41  1  0
 14 42  1  0
 15 43  1  0
 15 44  1  0
 16 45  1  0
 16 46  1  0
 18 47  1  0
 19 48  1  0
 21 49  1  0
 24 50  1  0
 25 51  1  0
M  END
>  <smiles>  (61) 
O=C(NCC(=O)N1CCC1C1CCCCC1)c1ccc2cc(F)ccc2n1

>  <score_type>  (61) 
oracle

>  <origin>  (61) 
autodockgpu

>  <m_score__min__energy>  (61) 
-8.6799999999999997

>  <m_primary>  (61) 
energy

>  <rmsd>  (61) 
8.050644137038914

>  <m_score__min__rmsd>  (61) 
8.050644137038914

>  <meeko>  (61) 
{"free_energy": -7.52, "intermolecular_energy": -9.01, "internal_energy": -1.73, "cluster_size": 2, "cluster_id": 4, "rank_in_cluster": 2}

>  <energy>  (61) 
-8.4

>  <cluster_rmsd>  (61) 
0.65

>  <cluster>  (61) 
1

$$$$

     RDKit          3D

 51 54  0  0  0  0  0  0  0  0999 V2000
  141.0590   73.0580  222.3530 O   0  0  0  0  0  0  0  0  0  0  0  0
  139.9440   72.6600  222.7270 C   0  0  0  0  0  0  0  0  0  0  0  0
  138.7000   73.1530  222.2180 N   0  0  0  0  0  0  0  0  0  0  0  0
  138.6880   74.1820  221.2130 C   0  0  0  0  0  0  0  0  0  0  0  0
  139.2870   75.4610  221.5770 C   0  0  0  0  0  0  0  0  0  0  0  0
  139.4050   75.6740  222.8460 O   0  0  0  0  0  0  0  0  0  0  0  0
  139.7470   76.4680  220.6990 N   0  0  0  0  0  0  0  0  0  0  0  0
  139.3670   77.2020  219.5110 C   0  0  0  0  0  0  0  0  0  0  0  0
  140.8500   77.3250  219.2060 C   0  0  0  0  0  0  0  0  0  0  0  0
  140.9900   77.2640  220.6860 C   0  0  1  0  0  0  0  0  0  0  0  0
  140.8910   78.5790  221.4220 C   0  0  0  0  0  0  0  0  0  0  0  0
  141.8360   79.5840  220.8080 C   0  0  0  0  0  0  0  0  0  0  0  0
  141.8540   80.8550  221.6150 C   0  0  0  0  0  0  0  0  0  0  0  0
  142.4280   80.5190  222.9860 C   0  0  0  0  0  0  0  0  0  0  0  0
  141.4270   79.6090  223.6480 C   0  0  0  0  0  0  0  0  0  0  0  0
  141.2120   78.3390  222.8590 C   0  0  0  0  0  0  0  0  0  0  0  0
  139.8800   71.6130  223.7670 C   0  0  0  0  0  0  0  0  0  0  0  0
  139.2210   70.4290  223.5350 C   0  0  0  0  0  0  0  0  0  0  0  0
  139.1540   69.4350  224.5090 C   0  0  0  0  0  0  0  0  0  0  0  0
  139.7560   69.6250  225.7420 C   0  0  0  0  0  0  0  0  0  0  0  0
  139.7090   68.6580  226.7360 C   0  0  0  0  0  0  0  0  0  0  0  0
  140.3230   68.8820  227.9580 C   0  0  0  0  0  0  0  0  0  0  0  0
  140.2800   67.9400  228.9330 F   0  0  0  0  0  0  0  0  0  0  0  0
  140.9860   70.0960  228.1690 C   0  0  0  0  0  0  0  0  0  0  0  0
  141.0190   71.0520  227.1540 C   0  0  0  0  0  0  0  0  0  0  0  0
  140.4070   70.8290  225.9340 C   0  0  0  0  0  0  0  0  0  0  0  0
  140.4530   71.7680  224.9720 N   0  0  0  0  0  0  0  0  0  0  0  0
  137.8020   72.7400  222.5990 H   0  0  0  0  0  0  0  0  0  0  0  0
  139.2299   73.7978  220.3363 H   0  0  0  0  0  0  0  0  0  0  0  0
  137.6246   74.4010  221.0366 H   0  0  0  0  0  0  0  0  0  0  0  0
  138.7924   76.6206  218.7749 H   0  0  0  0  0  0  0  0  0  0  0  0
  138.7073   78.0811  219.5562 H   0  0  0  0  0  0  0  0  0  0  0  0
  141.2912   76.4822  218.6536 H   0  0  0  0  0  0  0  0  0  0  0  0
  141.2820   78.1224  218.5835 H   0  0  0  0  0  0  0  0  0  0  0  0
  141.9244   76.9166  221.1510 H   0  0  0  0  0  0  0  0  0  0  0  0
  139.8736   78.9898  221.3443 H   0  0  0  0  0  0  0  0  0  0  0  0
  142.8498   79.1580  220.7816 H   0  0  0  0  0  0  0  0  0  0  0  0
  141.4944   79.8157  219.7884 H   0  0  0  0  0  0  0  0  0  0  0  0
  142.4847   81.6067  221.1178 H   0  0  0  0  0  0  0  0  0  0  0  0
  140.8388   81.2677  221.7106 H   0  0  0  0  0  0  0  0  0  0  0  0
  143.3962   80.0078  222.8794 H   0  0  0  0  0  0  0  0  0  0  0  0
  142.6005   81.4271  223.5823 H   0  0  0  0  0  0  0  0  0  0  0  0
  141.7940   79.3466  224.6512 H   0  0  0  0  0  0  0  0  0  0  0  0
  140.4665   80.1422  223.7040 H   0  0  0  0  0  0  0  0  0  0  0  0
  142.1295   77.7348  222.9147 H   0  0  0  0  0  0  0  0  0  0  0  0
  140.3467   77.8248  223.3026 H   0  0  0  0  0  0  0  0  0  0  0  0
  138.7370   70.2631  222.5612 H   0  0  0  0  0  0  0  0  0  0  0  0
  138.6212   68.4960  224.2981 H   0  0  0  0  0  0  0  0  0  0  0  0
  139.1822   67.7098  226.5533 H   0  0  0  0  0  0  0  0  0  0  0  0
  141.4793   70.2956  229.1317 H   0  0  0  0  0  0  0  0  0  0  0  0
  141.5429   72.0035  227.3275 H   0  0  0  0  0  0  0  0  0  0  0  0
  1  2  2  0
  2  3  1  0
  3  4  1  0
  4  5  1  0
  5  6  2  0
  5  7  1  0
  7  8  1  0
  8  9  1  0
  9 10  1  0
 10 11  1  0
 11 12  1  0
 12 13  1  0
 13 14  1  0
 14 15  1  0
 15 16  1  0
  2 17  1  0
 17 18  2  0
 18 19  1  0
 19 20  2  0
 20 21  1  0
 21 22  2  0
 22 23  1  0
 22 24  1  0
 24 25  2  0
 25 26  1  0
 26 27  2  0
 10  7  1  0
 16 11  1  0
 27 17  1  0
 26 20  1  0
  3 28  1  0
  4 29  1  0
  4 30  1  0
  8 31  1  0
  8 32  1  0
  9 33  1  0
  9 34  1  0
 10 35  1  6
 11 36  1  0
 12 37  1  0
 12 38  1  0
 13 39  1  0
 13 40  1  0
 14 41  1  0
 14 42  1  0
 15 43  1  0
 15 44  1  0
 16 45  1  0
 16 46  1  0
 18 47  1  0
 19 48  1  0
 21 49  1  0
 24 50  1  0
 25 51  1  0
M  END
>  <smiles>  (62) 
O=C(NCC(=O)N1CCC1C1CCCCC1)c1ccc2cc(F)ccc2n1

>  <score_type>  (62) 
oracle

>  <origin>  (62) 
autodockgpu

>  <m_score__min__energy>  (62) 
-8.6799999999999997

>  <m_primary>  (62) 
energy

>  <rmsd>  (62) 
2.349003332100506

>  <m_score__min__rmsd>  (62) 
2.349003332100506

>  <meeko>  (62) 
{"free_energy": -8.13, "intermolecular_energy": -9.62, "internal_energy": -1.11, "cluster_size": 39, "cluster_id": 1, "rank_in_cluster": 30}

>  <energy>  (62) 
-8.4

>  <cluster_rmsd>  (62) 
0.62

>  <cluster>  (62) 
1

$$$$

     RDKit          3D

 51 54  0  0  0  0  0  0  0  0999 V2000
  141.2620   72.0750  221.3840 O   0  0  0  0  0  0  0  0  0  0  0  0
  140.5180   72.4560  222.3020 C   0  0  0  0  0  0  0  0  0  0  0  0
  139.8470   73.7210  222.3230 N   0  0  0  0  0  0  0  0  0  0  0  0
  140.0220   74.6500  221.2380 C   0  0  0  0  0  0  0  0  0  0  0  0
  139.3720   75.9480  221.3760 C   0  0  0  0  0  0  0  0  0  0  0  0
  138.3510   75.9730  222.1680 O   0  0  0  0  0  0  0  0  0  0  0  0
  139.7430   77.1580  220.7480 N   0  0  0  0  0  0  0  0  0  0  0  0
  139.2420   78.1700  219.8420 C   0  0  0  0  0  0  0  0  0  0  0  0
  140.6820   78.3960  219.4180 C   0  0  0  0  0  0  0  0  0  0  0  0
  140.9850   77.9530  220.8070 C   0  0  1  0  0  0  0  0  0  0  0  0
  140.9830   79.0280  221.8670 C   0  0  0  0  0  0  0  0  0  0  0  0
  141.8760   80.1690  221.4440 C   0  0  0  0  0  0  0  0  0  0  0  0
  141.9980   81.1840  222.5500 C   0  0  0  0  0  0  0  0  0  0  0  0
  142.7030   80.5070  223.7180 C   0  0  0  0  0  0  0  0  0  0  0  0
  141.7600   79.4440  224.2170 C   0  0  0  0  0  0  0  0  0  0  0  0
  141.4460   78.4230  223.1500 C   0  0  0  0  0  0  0  0  0  0  0  0
  140.3010   71.5590  223.4550 C   0  0  0  0  0  0  0  0  0  0  0  0
  139.6750   70.3450  223.2980 C   0  0  0  0  0  0  0  0  0  0  0  0
  139.4650   69.4930  224.3800 C   0  0  0  0  0  0  0  0  0  0  0  0
  139.8880   69.8580  225.6470 C   0  0  0  0  0  0  0  0  0  0  0  0
  139.6950   69.0350  226.7470 C   0  0  0  0  0  0  0  0  0  0  0  0
  140.1320   69.4320  228.0020 C   0  0  0  0  0  0  0  0  0  0  0  0
  139.9460   68.6310  229.0800 F   0  0  0  0  0  0  0  0  0  0  0  0
  140.7650   70.6720  228.1350 C   0  0  0  0  0  0  0  0  0  0  0  0
  140.9460   71.4810  227.0140 C   0  0  0  0  0  0  0  0  0  0  0  0
  140.5120   71.0850  225.7620 C   0  0  0  0  0  0  0  0  0  0  0  0
  140.6990   71.8850  224.6970 N   0  0  0  0  0  0  0  0  0  0  0  0
  139.2260   73.9470  223.1500 H   0  0  0  0  0  0  0  0  0  0  0  0
  141.1013   74.8283  221.1227 H   0  0  0  0  0  0  0  0  0  0  0  0
  139.5394   74.1758  220.3707 H   0  0  0  0  0  0  0  0  0  0  0  0
  138.5827   77.7904  219.0475 H   0  0  0  0  0  0  0  0  0  0  0  0
  138.6016   78.9946  220.1881 H   0  0  0  0  0  0  0  0  0  0  0  0
  141.0498   77.7350  218.6193 H   0  0  0  0  0  0  0  0  0  0  0  0
  141.0507   79.3361  218.9817 H   0  0  0  0  0  0  0  0  0  0  0  0
  141.9613   77.5137  221.0595 H   0  0  0  0  0  0  0  0  0  0  0  0
  139.9698   79.4336  222.0045 H   0  0  0  0  0  0  0  0  0  0  0  0
  142.8745   79.7761  221.2020 H   0  0  0  0  0  0  0  0  0  0  0  0
  141.4352   80.6565  220.5620 H   0  0  0  0  0  0  0  0  0  0  0  0
  142.5871   82.0464  222.2048 H   0  0  0  0  0  0  0  0  0  0  0  0
  141.0049   81.5460  222.8545 H   0  0  0  0  0  0  0  0  0  0  0  0
  143.6470   80.0527  223.3825 H   0  0  0  0  0  0  0  0  0  0  0  0
  142.9501   81.2286  224.5106 H   0  0  0  0  0  0  0  0  0  0  0  0
  142.2226   78.9321  225.0737 H   0  0  0  0  0  0  0  0  0  0  0  0
  140.8186   79.9331  224.5079 H   0  0  0  0  0  0  0  0  0  0  0  0
  142.3550   77.8365  222.9506 H   0  0  0  0  0  0  0  0  0  0  0  0
  140.6232   77.7996  223.5300 H   0  0  0  0  0  0  0  0  0  0  0  0
  139.3331   70.0403  222.2979 H   0  0  0  0  0  0  0  0  0  0  0  0
  138.9614   68.5270  224.2274 H   0  0  0  0  0  0  0  0  0  0  0  0
  139.1935   68.0638  226.6234 H   0  0  0  0  0  0  0  0  0  0  0  0
  141.1189   71.0079  229.1208 H   0  0  0  0  0  0  0  0  0  0  0  0
  141.4446   72.4549  227.1278 H   0  0  0  0  0  0  0  0  0  0  0  0
  1  2  2  0
  2  3  1  0
  3  4  1  0
  4  5  1  0
  5  6  2  0
  5  7  1  0
  7  8  1  0
  8  9  1  0
  9 10  1  0
 10 11  1  0
 11 12  1  0
 12 13  1  0
 13 14  1  0
 14 15  1  0
 15 16  1  0
  2 17  1  0
 17 18  2  0
 18 19  1  0
 19 20  2  0
 20 21  1  0
 21 22  2  0
 22 23  1  0
 22 24  1  0
 24 25  2  0
 25 26  1  0
 26 27  2  0
 10  7  1  0
 16 11  1  0
 27 17  1  0
 26 20  1  0
  3 28  1  0
  4 29  1  0
  4 30  1  0
  8 31  1  0
  8 32  1  0
  9 33  1  0
  9 34  1  0
 10 35  1  6
 11 36  1  0
 12 37  1  0
 12 38  1  0
 13 39  1  0
 13 40  1  0
 14 41  1  0
 14 42  1  0
 15 43  1  0
 15 44  1  0
 16 45  1  0
 16 46  1  0
 18 47  1  0
 19 48  1  0
 21 49  1  0
 24 50  1  0
 25 51  1  0
M  END
>  <smiles>  (63) 
O=C(NCC(=O)N1CCC1C1CCCCC1)c1ccc2cc(F)ccc2n1

>  <score_type>  (63) 
oracle

>  <origin>  (63) 
autodockgpu

>  <m_score__min__energy>  (63) 
-8.6799999999999997

>  <m_primary>  (63) 
energy

>  <rmsd>  (63) 
2.816787581381282

>  <m_score__min__rmsd>  (63) 
2.816787581381282

>  <meeko>  (63) 
{"free_energy": -8.34, "intermolecular_energy": -9.83, "internal_energy": -1.41, "cluster_size": 39, "cluster_id": 1, "rank_in_cluster": 18}

>  <energy>  (63) 
-8.4

>  <cluster_rmsd>  (63) 
0.66

>  <cluster>  (63) 
1

$$$$

     RDKit          3D

 51 54  0  0  0  0  0  0  0  0999 V2000
  141.2850   72.1870  221.5370 O   0  0  0  0  0  0  0  0  0  0  0  0
  140.4010   72.4400  222.3710 C   0  0  0  0  0  0  0  0  0  0  0  0
  139.5210   73.5670  222.2960 N   0  0  0  0  0  0  0  0  0  0  0  0
  139.6350   74.5020  221.2070 C   0  0  0  0  0  0  0  0  0  0  0  0
  140.0410   75.8600  221.5510 C   0  0  0  0  0  0  0  0  0  0  0  0
  141.3100   76.0920  221.4770 O   0  0  0  0  0  0  0  0  0  0  0  0
  139.2020   76.9270  221.9440 N   0  0  0  0  0  0  0  0  0  0  0  0
  138.0200   77.2160  222.7280 C   0  0  0  0  0  0  0  0  0  0  0  0
  137.7650   78.3720  221.7760 C   0  0  0  0  0  0  0  0  0  0  0  0
  139.2480   78.3710  221.6430 C   0  0  1  0  0  0  0  0  0  0  0  0
  140.0110   79.1910  222.6570 C   0  0  0  0  0  0  0  0  0  0  0  0
  140.4060   80.5170  222.0520 C   0  0  0  0  0  0  0  0  0  0  0  0
  141.2870   81.2880  222.9980 C   0  0  0  0  0  0  0  0  0  0  0  0
  142.5800   80.4990  223.1670 C   0  0  0  0  0  0  0  0  0  0  0  0
  142.2030   79.2260  223.8780 C   0  0  0  0  0  0  0  0  0  0  0  0
  141.2080   78.4120  223.0860 C   0  0  0  0  0  0  0  0  0  0  0  0
  140.2340   71.5300  223.5230 C   0  0  0  0  0  0  0  0  0  0  0  0
  139.5980   70.3200  223.3800 C   0  0  0  0  0  0  0  0  0  0  0  0
  139.4340   69.4560  224.4600 C   0  0  0  0  0  0  0  0  0  0  0  0
  139.9150   69.8050  225.7120 C   0  0  0  0  0  0  0  0  0  0  0  0
  139.7700   68.9700  226.8100 C   0  0  0  0  0  0  0  0  0  0  0  0
  140.2640   69.3510  228.0470 C   0  0  0  0  0  0  0  0  0  0  0  0
  140.1250   68.5390  229.1240 F   0  0  0  0  0  0  0  0  0  0  0  0
  140.9060   70.5880  228.1660 C   0  0  0  0  0  0  0  0  0  0  0  0
  141.0390   71.4100  227.0470 C   0  0  0  0  0  0  0  0  0  0  0  0
  140.5470   71.0290  225.8120 C   0  0  0  0  0  0  0  0  0  0  0  0
  140.6880   71.8420  224.7490 N   0  0  0  0  0  0  0  0  0  0  0  0
  138.7930   73.6890  223.0560 H   0  0  0  0  0  0  0  0  0  0  0  0
  140.3760   74.1014  220.4996 H   0  0  0  0  0  0  0  0  0  0  0  0
  138.6176   74.5982  220.8001 H   0  0  0  0  0  0  0  0  0  0  0  0
  137.2526   76.4281  222.7112 H   0  0  0  0  0  0  0  0  0  0  0  0
  138.0651   77.3587  223.8178 H   0  0  0  0  0  0  0  0  0  0  0  0
  137.2075   78.1187  220.8622 H   0  0  0  0  0  0  0  0  0  0  0  0
  137.1752   79.2624  222.0393 H   0  0  0  0  0  0  0  0  0  0  0  0
  139.7348   78.7766  220.7439 H   0  0  0  0  0  0  0  0  0  0  0  0
  139.3839   79.4007  223.5361 H   0  0  0  0  0  0  0  0  0  0  0  0
  140.9518   80.3383  221.1138 H   0  0  0  0  0  0  0  0  0  0  0  0
  139.4961   81.1033  221.8564 H   0  0  0  0  0  0  0  0  0  0  0  0
  141.5056   82.2823  222.5814 H   0  0  0  0  0  0  0  0  0  0  0  0
  140.7871   81.4244  223.9683 H   0  0  0  0  0  0  0  0  0  0  0  0
  143.0196   80.2717  222.1846 H   0  0  0  0  0  0  0  0  0  0  0  0
  143.3279   81.0706  223.7361 H   0  0  0  0  0  0  0  0  0  0  0  0
  143.1103   78.6241  224.0347 H   0  0  0  0  0  0  0  0  0  0  0  0
  141.7360   79.4964  224.8365 H   0  0  0  0  0  0  0  0  0  0  0  0
  141.7114   78.0241  222.1881 H   0  0  0  0  0  0  0  0  0  0  0  0
  140.8513   77.6063  223.7445 H   0  0  0  0  0  0  0  0  0  0  0  0
  139.2107   70.0281  222.3927 H   0  0  0  0  0  0  0  0  0  0  0  0
  138.9209   68.4933  224.3188 H   0  0  0  0  0  0  0  0  0  0  0  0
  139.2608   68.0014  226.6982 H   0  0  0  0  0  0  0  0  0  0  0  0
  141.3047   70.9115  229.1388 H   0  0  0  0  0  0  0  0  0  0  0  0
  141.5456   72.3811  227.1489 H   0  0  0  0  0  0  0  0  0  0  0  0
  1  2  2  0
  2  3  1  0
  3  4  1  0
  4  5  1  0
  5  6  2  0
  5  7  1  0
  7  8  1  0
  8  9  1  0
  9 10  1  0
 10 11  1  0
 11 12  1  0
 12 13  1  0
 13 14  1  0
 14 15  1  0
 15 16  1  0
  2 17  1  0
 17 18  2  0
 18 19  1  0
 19 20  2  0
 20 21  1  0
 21 22  2  0
 22 23  1  0
 22 24  1  0
 24 25  2  0
 25 26  1  0
 26 27  2  0
 10  7  1  0
 16 11  1  0
 27 17  1  0
 26 20  1  0
  3 28  1  0
  4 29  1  0
  4 30  1  0
  8 31  1  0
  8 32  1  0
  9 33  1  0
  9 34  1  0
 10 35  1  6
 11 36  1  0
 12 37  1  0
 12 38  1  0
 13 39  1  0
 13 40  1  0
 14 41  1  0
 14 42  1  0
 15 43  1  0
 15 44  1  0
 16 45  1  0
 16 46  1  0
 18 47  1  0
 19 48  1  0
 21 49  1  0
 24 50  1  0
 25 51  1  0
M  END
>  <smiles>  (64) 
O=C(NCC(=O)N1CCC1C1CCCCC1)c1ccc2cc(F)ccc2n1

>  <score_type>  (64) 
oracle

>  <origin>  (64) 
autodockgpu

>  <m_score__min__energy>  (64) 
-8.6799999999999997

>  <m_primary>  (64) 
energy

>  <rmsd>  (64) 
3.172818663174302

>  <m_score__min__rmsd>  (64) 
3.172818663174302

>  <meeko>  (64) 
{"free_energy": -8.59, "intermolecular_energy": -10.08, "internal_energy": -0.99, "cluster_size": 39, "cluster_id": 1, "rank_in_cluster": 4}

>  <energy>  (64) 
-8.39

>  <cluster_rmsd>  (64) 
0.65

>  <cluster>  (64) 
1

$$$$

     RDKit          3D

 51 54  0  0  0  0  0  0  0  0999 V2000
  139.9440   71.0570  221.1780 O   0  0  0  0  0  0  0  0  0  0  0  0
  139.8760   71.6090  222.2870 C   0  0  0  0  0  0  0  0  0  0  0  0
  139.8140   73.0270  222.4800 N   0  0  0  0  0  0  0  0  0  0  0  0
  139.8370   73.9120  221.3450 C   0  0  0  0  0  0  0  0  0  0  0  0
  139.8220   75.3420  221.6300 C   0  0  0  0  0  0  0  0  0  0  0  0
  139.3090   75.6730  222.7690 O   0  0  0  0  0  0  0  0  0  0  0  0
  140.3070   76.3810  220.8040 N   0  0  0  0  0  0  0  0  0  0  0  0
  140.0490   77.0500  219.5470 C   0  0  0  0  0  0  0  0  0  0  0  0
  141.5390   77.3320  219.4770 C   0  0  0  0  0  0  0  0  0  0  0  0
  141.4440   77.3090  220.9630 C   0  0  1  0  0  0  0  0  0  0  0  0
  141.0870   78.6160  221.6300 C   0  0  0  0  0  0  0  0  0  0  0  0
  141.8540   79.7470  220.9880 C   0  0  0  0  0  0  0  0  0  0  0  0
  141.6180   81.0350  221.7320 C   0  0  0  0  0  0  0  0  0  0  0  0
  142.2010   80.8710  223.1300 C   0  0  0  0  0  0  0  0  0  0  0  0
  141.3600   79.8240  223.8130 C   0  0  0  0  0  0  0  0  0  0  0  0
  141.4020   78.5030  223.0840 C   0  0  0  0  0  0  0  0  0  0  0  0
  139.8600   70.7630  223.4990 C   0  0  0  0  0  0  0  0  0  0  0  0
  139.3260   69.4970  223.4680 C   0  0  0  0  0  0  0  0  0  0  0  0
  139.3050   68.6930  224.6060 C   0  0  0  0  0  0  0  0  0  0  0  0
  139.8280   69.1600  225.8000 C   0  0  0  0  0  0  0  0  0  0  0  0
  139.8240   68.3870  226.9520 C   0  0  0  0  0  0  0  0  0  0  0  0
  140.3570   68.8870  228.1300 C   0  0  0  0  0  0  0  0  0  0  0  0
  140.3560   68.1350  229.2590 F   0  0  0  0  0  0  0  0  0  0  0  0
  140.8940   70.1780  228.1350 C   0  0  0  0  0  0  0  0  0  0  0  0
  140.8850   70.9360  226.9630 C   0  0  0  0  0  0  0  0  0  0  0  0
  140.3540   70.4370  225.7870 C   0  0  0  0  0  0  0  0  0  0  0  0
  140.3590   71.1890  224.6720 N   0  0  0  0  0  0  0  0  0  0  0  0
  139.7490   73.3970  223.4700 H   0  0  0  0  0  0  0  0  0  0  0  0
  140.7508   73.6958  220.7720 H   0  0  0  0  0  0  0  0  0  0  0  0
  138.8991   73.7147  220.8051 H   0  0  0  0  0  0  0  0  0  0  0  0
  139.6664   76.3972  218.7486 H   0  0  0  0  0  0  0  0  0  0  0  0
  139.3009   77.8515  219.4579 H   0  0  0  0  0  0  0  0  0  0  0  0
  142.1511   76.5352  219.0293 H   0  0  0  0  0  0  0  0  0  0  0  0
  141.9778   78.1629  218.9052 H   0  0  0  0  0  0  0  0  0  0  0  0
  142.3226   77.0739  221.5817 H   0  0  0  0  0  0  0  0  0  0  0  0
  140.0151   78.8315  221.5093 H   0  0  0  0  0  0  0  0  0  0  0  0
  142.9283   79.5110  221.0049 H   0  0  0  0  0  0  0  0  0  0  0  0
  141.5079   79.8673  219.9508 H   0  0  0  0  0  0  0  0  0  0  0  0
  142.1175   81.8658  221.2121 H   0  0  0  0  0  0  0  0  0  0  0  0
  140.5425   81.2598  221.7851 H   0  0  0  0  0  0  0  0  0  0  0  0
  143.2484   80.5403  223.0705 H   0  0  0  0  0  0  0  0  0  0  0  0
  142.1889   81.8209  223.6846 H   0  0  0  0  0  0  0  0  0  0  0  0
  141.7366   79.6775  224.8361 H   0  0  0  0  0  0  0  0  0  0  0  0
  140.3178   80.1759  223.8200 H   0  0  0  0  0  0  0  0  0  0  0  0
  142.4114   78.0788  223.1897 H   0  0  0  0  0  0  0  0  0  0  0  0
  140.6305   77.8605  223.5335 H   0  0  0  0  0  0  0  0  0  0  0  0
  138.9072   69.1110  222.5269 H   0  0  0  0  0  0  0  0  0  0  0  0
  138.8712   67.6834  224.5556 H   0  0  0  0  0  0  0  0  0  0  0  0
  139.3964   67.3737  226.9306 H   0  0  0  0  0  0  0  0  0  0  0  0
  141.3218   70.5946  229.0588 H   0  0  0  0  0  0  0  0  0  0  0  0
  141.3088   71.9510  226.9747 H   0  0  0  0  0  0  0  0  0  0  0  0
  1  2  2  0
  2  3  1  0
  3  4  1  0
  4  5  1  0
  5  6  2  0
  5  7  1  0
  7  8  1  0
  8  9  1  0
  9 10  1  0
 10 11  1  0
 11 12  1  0
 12 13  1  0
 13 14  1  0
 14 15  1  0
 15 16  1  0
  2 17  1  0
 17 18  2  0
 18 19  1  0
 19 20  2  0
 20 21  1  0
 21 22  2  0
 22 23  1  0
 22 24  1  0
 24 25  2  0
 25 26  1  0
 26 27  2  0
 10  7  1  0
 16 11  1  0
 27 17  1  0
 26 20  1  0
  3 28  1  0
  4 29  1  0
  4 30  1  0
  8 31  1  0
  8 32  1  0
  9 33  1  0
  9 34  1  0
 10 35  1  1
 11 36  1  0
 12 37  1  0
 12 38  1  0
 13 39  1  0
 13 40  1  0
 14 41  1  0
 14 42  1  0
 15 43  1  0
 15 44  1  0
 16 45  1  0
 16 46  1  0
 18 47  1  0
 19 48  1  0
 21 49  1  0
 24 50  1  0
 25 51  1  0
M  END
>  <smiles>  (65) 
O=C(NCC(=O)N1CCC1C1CCCCC1)c1ccc2cc(F)ccc2n1

>  <score_type>  (65) 
oracle

>  <origin>  (65) 
autodockgpu

>  <m_score__min__energy>  (65) 
-8.6799999999999997

>  <m_primary>  (65) 
energy

>  <rmsd>  (65) 
2.363269252953807

>  <m_score__min__rmsd>  (65) 
2.363269252953807

>  <meeko>  (65) 
{"free_energy": -8.32, "intermolecular_energy": -9.81, "internal_energy": -1.54, "cluster_size": 39, "cluster_id": 1, "rank_in_cluster": 23}

>  <energy>  (65) 
-8.38

>  <cluster_rmsd>  (65) 
0.79

>  <cluster>  (65) 
1

$$$$

     RDKit          3D

 51 54  0  0  0  0  0  0  0  0999 V2000
  140.4270   70.8380  221.9010 O   0  0  0  0  0  0  0  0  0  0  0  0
  139.6630   71.7850  222.1480 C   0  0  0  0  0  0  0  0  0  0  0  0
  138.3350   71.6370  222.6610 N   0  0  0  0  0  0  0  0  0  0  0  0
  137.8000   70.3250  222.9140 C   0  0  0  0  0  0  0  0  0  0  0  0
  137.7250   69.9070  224.3100 C   0  0  0  0  0  0  0  0  0  0  0  0
  136.7180   70.3730  224.9720 O   0  0  0  0  0  0  0  0  0  0  0  0
  138.6220   69.0570  224.9950 N   0  0  0  0  0  0  0  0  0  0  0  0
  139.5330   67.9530  224.7790 C   0  0  0  0  0  0  0  0  0  0  0  0
  139.2380   67.5300  226.2070 C   0  0  0  0  0  0  0  0  0  0  0  0
  139.0130   68.9870  226.4160 C   0  0  1  0  0  0  0  0  0  0  0  0
  140.2320   69.8080  226.7640 C   0  0  0  0  0  0  0  0  0  0  0  0
  140.0340   70.4790  228.1020 C   0  0  0  0  0  0  0  0  0  0  0  0
  141.1770   71.4130  228.4000 C   0  0  0  0  0  0  0  0  0  0  0  0
  141.1410   72.5270  227.3610 C   0  0  0  0  0  0  0  0  0  0  0  0
  141.4560   71.8760  226.0390 C   0  0  0  0  0  0  0  0  0  0  0  0
  140.4480   70.8110  225.6810 C   0  0  0  0  0  0  0  0  0  0  0  0
  140.1400   73.1610  221.9010 C   0  0  0  0  0  0  0  0  0  0  0  0
  141.3100   73.3900  221.2160 C   0  0  0  0  0  0  0  0  0  0  0  0
  141.7690   74.6840  220.9780 C   0  0  0  0  0  0  0  0  0  0  0  0
  141.0460   75.7740  221.4340 C   0  0  0  0  0  0  0  0  0  0  0  0
  141.4730   77.0770  221.2160 C   0  0  0  0  0  0  0  0  0  0  0  0
  140.7240   78.1450  221.6860 C   0  0  0  0  0  0  0  0  0  0  0  0
  141.1360   79.4190  221.4760 F   0  0  0  0  0  0  0  0  0  0  0  0
  139.5380   77.8840  222.3810 C   0  0  0  0  0  0  0  0  0  0  0  0
  139.1310   76.5660  222.5870 C   0  0  0  0  0  0  0  0  0  0  0  0
  139.8780   75.5000  222.1180 C   0  0  0  0  0  0  0  0  0  0  0  0
  139.4620   74.2390  222.3310 N   0  0  0  0  0  0  0  0  0  0  0  0
  137.7670   72.5110  222.8470 H   0  0  0  0  0  0  0  0  0  0  0  0
  136.7806   70.2953  222.5017 H   0  0  0  0  0  0  0  0  0  0  0  0
  138.5069   69.6278  222.4406 H   0  0  0  0  0  0  0  0  0  0  0  0
  139.2115   67.2346  224.0105 H   0  0  0  0  0  0  0  0  0  0  0  0
  140.5606   68.1086  224.4188 H   0  0  0  0  0  0  0  0  0  0  0  0
  138.3525   66.8907  226.3380 H   0  0  0  0  0  0  0  0  0  0  0  0
  139.9220   66.9232  226.8185 H   0  0  0  0  0  0  0  0  0  0  0  0
  138.3669   69.3481  227.2297 H   0  0  0  0  0  0  0  0  0  0  0  0
  141.1214   69.1655  226.8427 H   0  0  0  0  0  0  0  0  0  0  0  0
  139.0947   71.0511  228.0842 H   0  0  0  0  0  0  0  0  0  0  0  0
  139.9938   69.7064  228.8840 H   0  0  0  0  0  0  0  0  0  0  0  0
  141.0628   71.8365  229.4088 H   0  0  0  0  0  0  0  0  0  0  0  0
  142.1364   70.8764  228.3596 H   0  0  0  0  0  0  0  0  0  0  0  0
  140.1431   72.9888  227.3309 H   0  0  0  0  0  0  0  0  0  0  0  0
  141.8627   73.3222  227.5993 H   0  0  0  0  0  0  0  0  0  0  0  0
  141.4533   72.6463  225.2538 H   0  0  0  0  0  0  0  0  0  0  0  0
  142.4428   71.3970  226.1217 H   0  0  0  0  0  0  0  0  0  0  0  0
  139.4872   71.3002  225.4628 H   0  0  0  0  0  0  0  0  0  0  0  0
  140.8464   70.2676  224.8115 H   0  0  0  0  0  0  0  0  0  0  0  0
  141.8955   72.5344  220.8484 H   0  0  0  0  0  0  0  0  0  0  0  0
  142.7079   74.8403  220.4266 H   0  0  0  0  0  0  0  0  0  0  0  0
  142.4088   77.2627  220.6685 H   0  0  0  0  0  0  0  0  0  0  0  0
  138.9284   78.7158  222.7637 H   0  0  0  0  0  0  0  0  0  0  0  0
  138.1968   76.3699  223.1337 H   0  0  0  0  0  0  0  0  0  0  0  0
  1  2  2  0
  2  3  1  0
  3  4  1  0
  4  5  1  0
  5  6  2  0
  5  7  1  0
  7  8  1  0
  8  9  1  0
  9 10  1  0
 10 11  1  0
 11 12  1  0
 12 13  1  0
 13 14  1  0
 14 15  1  0
 15 16  1  0
  2 17  1  0
 17 18  2  0
 18 19  1  0
 19 20  2  0
 20 21  1  0
 21 22  2  0
 22 23  1  0
 22 24  1  0
 24 25  2  0
 25 26  1  0
 26 27  2  0
 10  7  1  0
 16 11  1  0
 27 17  1  0
 26 20  1  0
  3 28  1  0
  4 29  1  0
  4 30  1  0
  8 31  1  0
  8 32  1  0
  9 33  1  0
  9 34  1  0
 10 35  1  1
 11 36  1  0
 12 37  1  0
 12 38  1  0
 13 39  1  0
 13 40  1  0
 14 41  1  0
 14 42  1  0
 15 43  1  0
 15 44  1  0
 16 45  1  0
 16 46  1  0
 18 47  1  0
 19 48  1  0
 21 49  1  0
 24 50  1  0
 25 51  1  0
M  END
>  <smiles>  (66) 
O=C(NCC(=O)N1CCC1C1CCCCC1)c1ccc2cc(F)ccc2n1

>  <score_type>  (66) 
oracle

>  <origin>  (66) 
autodockgpu

>  <m_score__min__energy>  (66) 
-8.6799999999999997

>  <m_primary>  (66) 
energy

>  <rmsd>  (66) 
8.437116997251412

>  <m_score__min__rmsd>  (66) 
8.437116997251412

>  <meeko>  (66) 
{"free_energy": -7.35, "intermolecular_energy": -8.84, "internal_energy": -1.8, "cluster_size": 1, "cluster_id": 5, "rank_in_cluster": 1}

>  <energy>  (66) 
-8.37

>  <cluster_rmsd>  (66) 
0.64

>  <cluster>  (66) 
1

$$$$

     RDKit          3D

 51 54  0  0  0  0  0  0  0  0999 V2000
  141.0740   71.5370  221.3310 O   0  0  0  0  0  0  0  0  0  0  0  0
  140.4690   72.0270  222.2980 C   0  0  0  0  0  0  0  0  0  0  0  0
  139.9640   73.3660  222.3390 N   0  0  0  0  0  0  0  0  0  0  0  0
  140.1540   74.2450  221.2160 C   0  0  0  0  0  0  0  0  0  0  0  0
  139.9740   75.6710  221.4620 C   0  0  0  0  0  0  0  0  0  0  0  0
  139.2790   75.9670  222.5110 O   0  0  0  0  0  0  0  0  0  0  0  0
  140.4770   76.7400  220.6870 N   0  0  0  0  0  0  0  0  0  0  0  0
  140.2600   77.4420  219.4400 C   0  0  0  0  0  0  0  0  0  0  0  0
  141.7470   77.7470  219.4410 C   0  0  0  0  0  0  0  0  0  0  0  0
  141.5910   77.6800  220.9200 C   0  0  1  0  0  0  0  0  0  0  0  0
  141.1860   78.9620  221.6090 C   0  0  0  0  0  0  0  0  0  0  0  0
  142.0220   80.1080  221.0930 C   0  0  0  0  0  0  0  0  0  0  0  0
  141.7310   81.3660  221.8680 C   0  0  0  0  0  0  0  0  0  0  0  0
  142.1770   81.1320  223.3060 C   0  0  0  0  0  0  0  0  0  0  0  0
  141.2640   80.0690  223.8600 C   0  0  0  0  0  0  0  0  0  0  0  0
  141.3620   78.7810  223.0800 C   0  0  0  0  0  0  0  0  0  0  0  0
  140.2470   71.1860  223.4930 C   0  0  0  0  0  0  0  0  0  0  0  0
  139.5360   70.0130  223.4080 C   0  0  0  0  0  0  0  0  0  0  0  0
  139.3220   69.2140  224.5290 C   0  0  0  0  0  0  0  0  0  0  0  0
  139.8260   69.5930  225.7620 C   0  0  0  0  0  0  0  0  0  0  0  0
  139.6310   68.8220  226.9000 C   0  0  0  0  0  0  0  0  0  0  0  0
  140.1510   69.2310  228.1180 C   0  0  0  0  0  0  0  0  0  0  0  0
  139.9640   68.4830  229.2330 F   0  0  0  0  0  0  0  0  0  0  0  0
  140.8700   70.4300  228.1770 C   0  0  0  0  0  0  0  0  0  0  0  0
  141.0510   71.1860  227.0200 C   0  0  0  0  0  0  0  0  0  0  0  0
  140.5330   70.7780  225.8040 C   0  0  0  0  0  0  0  0  0  0  0  0
  140.7230   71.5270  224.7020 N   0  0  0  0  0  0  0  0  0  0  0  0
  139.4530   73.6840  223.2110 H   0  0  0  0  0  0  0  0  0  0  0  0
  141.1798   74.0974  220.8471 H   0  0  0  0  0  0  0  0  0  0  0  0
  139.3644   73.9735  220.4999 H   0  0  0  0  0  0  0  0  0  0  0  0
  139.9209   76.8076  218.6078 H   0  0  0  0  0  0  0  0  0  0  0  0
  139.5036   78.2347  219.3427 H   0  0  0  0  0  0  0  0  0  0  0  0
  142.3894   76.9722  218.9972 H   0  0  0  0  0  0  0  0  0  0  0  0
  142.1963   78.6003  218.9118 H   0  0  0  0  0  0  0  0  0  0  0  0
  142.4469   77.4406  221.5682 H   0  0  0  0  0  0  0  0  0  0  0  0
  140.1325   79.1981  221.3986 H   0  0  0  0  0  0  0  0  0  0  0  0
  143.0873   79.8555  221.2000 H   0  0  0  0  0  0  0  0  0  0  0  0
  141.7763   80.2783  220.0344 H   0  0  0  0  0  0  0  0  0  0  0  0
  142.2869   82.2107  221.4352 H   0  0  0  0  0  0  0  0  0  0  0  0
  140.6580   81.6052  221.8294 H   0  0  0  0  0  0  0  0  0  0  0  0
  143.2217   80.7884  223.3304 H   0  0  0  0  0  0  0  0  0  0  0  0
  142.1224   82.0570  223.8988 H   0  0  0  0  0  0  0  0  0  0  0  0
  141.5403   79.8729  224.9065 H   0  0  0  0  0  0  0  0  0  0  0  0
  140.2294   80.4352  223.7850 H   0  0  0  0  0  0  0  0  0  0  0  0
  142.3530   78.3390  223.2605 H   0  0  0  0  0  0  0  0  0  0  0  0
  140.5459   78.1297  223.4262 H   0  0  0  0  0  0  0  0  0  0  0  0
  139.1279   69.6989  222.4360 H   0  0  0  0  0  0  0  0  0  0  0  0
  138.7507   68.2788  224.4344 H   0  0  0  0  0  0  0  0  0  0  0  0
  139.0617   67.8830  226.8348 H   0  0  0  0  0  0  0  0  0  0  0  0
  141.2909   70.7747  229.1331 H   0  0  0  0  0  0  0  0  0  0  0  0
  141.6178   72.1271  227.0751 H   0  0  0  0  0  0  0  0  0  0  0  0
  1  2  2  0
  2  3  1  0
  3  4  1  0
  4  5  1  0
  5  6  2  0
  5  7  1  0
  7  8  1  0
  8  9  1  0
  9 10  1  0
 10 11  1  0
 11 12  1  0
 12 13  1  0
 13 14  1  0
 14 15  1  0
 15 16  1  0
  2 17  1  0
 17 18  2  0
 18 19  1  0
 19 20  2  0
 20 21  1  0
 21 22  2  0
 22 23  1  0
 22 24  1  0
 24 25  2  0
 25 26  1  0
 26 27  2  0
 10  7  1  0
 16 11  1  0
 27 17  1  0
 26 20  1  0
  3 28  1  0
  4 29  1  0
  4 30  1  0
  8 31  1  0
  8 32  1  0
  9 33  1  0
  9 34  1  0
 10 35  1  1
 11 36  1  0
 12 37  1  0
 12 38  1  0
 13 39  1  0
 13 40  1  0
 14 41  1  0
 14 42  1  0
 15 43  1  0
 15 44  1  0
 16 45  1  0
 16 46  1  0
 18 47  1  0
 19 48  1  0
 21 49  1  0
 24 50  1  0
 25 51  1  0
M  END
>  <smiles>  (67) 
O=C(NCC(=O)N1CCC1C1CCCCC1)c1ccc2cc(F)ccc2n1

>  <score_type>  (67) 
oracle

>  <origin>  (67) 
autodockgpu

>  <m_score__min__energy>  (67) 
-8.6799999999999997

>  <m_primary>  (67) 
energy

>  <rmsd>  (67) 
2.604323980986885

>  <m_score__min__rmsd>  (67) 
2.604323980986885

>  <meeko>  (67) 
{"free_energy": -8.43, "intermolecular_energy": -9.92, "internal_energy": -1.43, "cluster_size": 39, "cluster_id": 1, "rank_in_cluster": 10}

>  <energy>  (67) 
-8.37

>  <cluster_rmsd>  (67) 
0.73

>  <cluster>  (67) 
1

$$$$

     RDKit          3D

 51 54  0  0  0  0  0  0  0  0999 V2000
  140.1340   71.7930  221.0310 O   0  0  0  0  0  0  0  0  0  0  0  0
  139.9160   72.3200  222.1330 C   0  0  0  0  0  0  0  0  0  0  0  0
  139.6550   73.7140  222.3230 N   0  0  0  0  0  0  0  0  0  0  0  0
  139.6410   74.6070  221.1940 C   0  0  0  0  0  0  0  0  0  0  0  0
  140.8620   75.3660  220.9450 C   0  0  0  0  0  0  0  0  0  0  0  0
  141.9480   74.8250  221.3880 O   0  0  0  0  0  0  0  0  0  0  0  0
  140.9730   76.6060  220.2770 N   0  0  0  0  0  0  0  0  0  0  0  0
  140.3910   77.3730  219.1960 C   0  0  0  0  0  0  0  0  0  0  0  0
  141.7520   78.0250  219.0270 C   0  0  0  0  0  0  0  0  0  0  0  0
  141.8780   77.7530  220.4850 C   0  0  1  0  0  0  0  0  0  0  0  0
  141.3320   78.8130  221.4120 C   0  0  0  0  0  0  0  0  0  0  0  0
  142.0760   80.1100  221.2040 C   0  0  0  0  0  0  0  0  0  0  0  0
  141.6420   81.1370  222.2170 C   0  0  0  0  0  0  0  0  0  0  0  0
  142.0580   80.6290  223.5920 C   0  0  0  0  0  0  0  0  0  0  0  0
  141.2290   79.3980  223.8510 C   0  0  0  0  0  0  0  0  0  0  0  0
  141.4730   78.3260  222.8160 C   0  0  0  0  0  0  0  0  0  0  0  0
  139.9270   71.4660  223.3390 C   0  0  0  0  0  0  0  0  0  0  0  0
  139.4390   70.1820  223.2990 C   0  0  0  0  0  0  0  0  0  0  0  0
  139.4440   69.3690  224.4300 C   0  0  0  0  0  0  0  0  0  0  0  0
  139.9460   69.8480  225.6300 C   0  0  0  0  0  0  0  0  0  0  0  0
  139.9660   69.0670  226.7770 C   0  0  0  0  0  0  0  0  0  0  0  0
  140.4760   69.5780  227.9600 C   0  0  0  0  0  0  0  0  0  0  0  0
  140.4990   68.8190  229.0840 F   0  0  0  0  0  0  0  0  0  0  0  0
  140.9660   70.8880  227.9750 C   0  0  0  0  0  0  0  0  0  0  0  0
  140.9340   71.6520  226.8080 C   0  0  0  0  0  0  0  0  0  0  0  0
  140.4250   71.1430  225.6270 C   0  0  0  0  0  0  0  0  0  0  0  0
  140.4060   71.9020  224.5170 N   0  0  0  0  0  0  0  0  0  0  0  0
  139.4730   74.0630  223.3070 H   0  0  0  0  0  0  0  0  0  0  0  0
  139.4327   74.0064  220.2963 H   0  0  0  0  0  0  0  0  0  0  0  0
  138.8749   75.3602  221.4301 H   0  0  0  0  0  0  0  0  0  0  0  0
  140.0572   76.7750  218.3352 H   0  0  0  0  0  0  0  0  0  0  0  0
  139.4747   77.9663  219.3315 H   0  0  0  0  0  0  0  0  0  0  0  0
  142.4594   77.4838  218.3815 H   0  0  0  0  0  0  0  0  0  0  0  0
  141.9033   79.0162  218.5745 H   0  0  0  0  0  0  0  0  0  0  0  0
  142.8662   77.6529  220.9576 H   0  0  0  0  0  0  0  0  0  0  0  0
  140.2693   79.0022  221.2003 H   0  0  0  0  0  0  0  0  0  0  0  0
  143.1556   79.9291  221.3120 H   0  0  0  0  0  0  0  0  0  0  0  0
  141.8534   80.4894  220.1958 H   0  0  0  0  0  0  0  0  0  0  0  0
  142.1312   82.1000  222.0087 H   0  0  0  0  0  0  0  0  0  0  0  0
  140.5533   81.2882  222.1731 H   0  0  0  0  0  0  0  0  0  0  0  0
  143.1286   80.3765  223.5978 H   0  0  0  0  0  0  0  0  0  0  0  0
  141.8975   81.3921  224.3678 H   0  0  0  0  0  0  0  0  0  0  0  0
  141.4856   78.9990  224.8434 H   0  0  0  0  0  0  0  0  0  0  0  0
  140.1683   79.6849  223.8007 H   0  0  0  0  0  0  0  0  0  0  0  0
  142.4938   77.9385  222.9496 H   0  0  0  0  0  0  0  0  0  0  0  0
  140.7095   77.5488  222.9679 H   0  0  0  0  0  0  0  0  0  0  0  0
  139.0361   69.7881  222.3543 H   0  0  0  0  0  0  0  0  0  0  0  0
  139.0486   68.3442  224.3707 H   0  0  0  0  0  0  0  0  0  0  0  0
  139.5758   68.0390  226.7471 H   0  0  0  0  0  0  0  0  0  0  0  0
  141.3749   71.3141  228.9030 H   0  0  0  0  0  0  0  0  0  0  0  0
  141.3219   72.6812  226.8276 H   0  0  0  0  0  0  0  0  0  0  0  0
  1  2  2  0
  2  3  1  0
  3  4  1  0
  4  5  1  0
  5  6  2  0
  5  7  1  0
  7  8  1  0
  8  9  1  0
  9 10  1  0
 10 11  1  0
 11 12  1  0
 12 13  1  0
 13 14  1  0
 14 15  1  0
 15 16  1  0
  2 17  1  0
 17 18  2  0
 18 19  1  0
 19 20  2  0
 20 21  1  0
 21 22  2  0
 22 23  1  0
 22 24  1  0
 24 25  2  0
 25 26  1  0
 26 27  2  0
 10  7  1  0
 16 11  1  0
 27 17  1  0
 26 20  1  0
  3 28  1  0
  4 29  1  0
  4 30  1  0
  8 31  1  0
  8 32  1  0
  9 33  1  0
  9 34  1  0
 10 35  1  1
 11 36  1  0
 12 37  1  0
 12 38  1  0
 13 39  1  0
 13 40  1  0
 14 41  1  0
 14 42  1  0
 15 43  1  0
 15 44  1  0
 16 45  1  0
 16 46  1  0
 18 47  1  0
 19 48  1  0
 21 49  1  0
 24 50  1  0
 25 51  1  0
M  END
>  <smiles>  (68) 
O=C(NCC(=O)N1CCC1C1CCCCC1)c1ccc2cc(F)ccc2n1

>  <score_type>  (68) 
oracle

>  <origin>  (68) 
autodockgpu

>  <m_score__min__energy>  (68) 
-8.6799999999999997

>  <m_primary>  (68) 
energy

>  <rmsd>  (68) 
2.5425911434902755

>  <m_score__min__rmsd>  (68) 
2.5425911434902755

>  <meeko>  (68) 
{"free_energy": -8.29, "intermolecular_energy": -9.78, "internal_energy": -1.26, "cluster_size": 39, "cluster_id": 1, "rank_in_cluster": 24}

>  <energy>  (68) 
-8.34

>  <cluster_rmsd>  (68) 
0.68

>  <cluster>  (68) 
1

$$$$

     RDKit          3D

 51 54  0  0  0  0  0  0  0  0999 V2000
  140.8770   73.9350  220.4450 O   0  0  0  0  0  0  0  0  0  0  0  0
  140.4210   74.6480  221.3530 C   0  0  0  0  0  0  0  0  0  0  0  0
  139.4730   74.2030  222.3290 N   0  0  0  0  0  0  0  0  0  0  0  0
  138.9780   72.8520  222.2920 C   0  0  0  0  0  0  0  0  0  0  0  0
  139.7820   71.8410  222.9690 C   0  0  0  0  0  0  0  0  0  0  0  0
  141.0370   72.1240  223.0900 O   0  0  0  0  0  0  0  0  0  0  0  0
  139.3340   70.6100  223.4980 N   0  0  0  0  0  0  0  0  0  0  0  0
  139.0670   69.2380  223.1200 C   0  0  0  0  0  0  0  0  0  0  0  0
  138.0180   69.2200  224.2180 C   0  0  0  0  0  0  0  0  0  0  0  0
  138.9110   70.2240  224.8580 C   0  0  1  0  0  0  0  0  0  0  0  0
  140.0230   69.6760  225.7210 C   0  0  0  0  0  0  0  0  0  0  0  0
  139.7140   68.2520  226.1150 C   0  0  0  0  0  0  0  0  0  0  0  0
  140.7410   67.7380  227.0900 C   0  0  0  0  0  0  0  0  0  0  0  0
  140.6170   68.5640  228.3640 C   0  0  0  0  0  0  0  0  0  0  0  0
  141.0400   69.9630  227.9980 C   0  0  0  0  0  0  0  0  0  0  0  0
  140.1630   70.5530  226.9210 C   0  0  0  0  0  0  0  0  0  0  0  0
  140.8750   76.0510  221.4460 C   0  0  0  0  0  0  0  0  0  0  0  0
  141.6410   76.6120  220.4520 C   0  0  0  0  0  0  0  0  0  0  0  0
  142.0740   77.9340  220.5310 C   0  0  0  0  0  0  0  0  0  0  0  0
  141.7390   78.7140  221.6250 C   0  0  0  0  0  0  0  0  0  0  0  0
  142.1530   80.0330  221.7370 C   0  0  0  0  0  0  0  0  0  0  0  0
  141.7980   80.7850  222.8460 C   0  0  0  0  0  0  0  0  0  0  0  0
  142.2010   82.0750  222.9610 F   0  0  0  0  0  0  0  0  0  0  0  0
  141.0200   80.1900  223.8440 C   0  0  0  0  0  0  0  0  0  0  0  0
  140.6160   78.8620  223.7080 C   0  0  0  0  0  0  0  0  0  0  0  0
  140.9690   78.1110  222.6010 C   0  0  0  0  0  0  0  0  0  0  0  0
  140.5670   76.8320  222.4950 N   0  0  0  0  0  0  0  0  0  0  0  0
  139.1530   74.8890  223.0690 H   0  0  0  0  0  0  0  0  0  0  0  0
  137.9804   72.8498  222.7554 H   0  0  0  0  0  0  0  0  0  0  0  0
  138.9916   72.5682  221.2293 H   0  0  0  0  0  0  0  0  0  0  0  0
  138.6700   69.1100  222.1021 H   0  0  0  0  0  0  0  0  0  0  0  0
  139.8656   68.4835  223.0659 H   0  0  0  0  0  0  0  0  0  0  0  0
  137.0228   69.5881  223.9281 H   0  0  0  0  0  0  0  0  0  0  0  0
  137.6715   68.3033  224.7176 H   0  0  0  0  0  0  0  0  0  0  0  0
  138.5164   70.9479  225.5862 H   0  0  0  0  0  0  0  0  0  0  0  0
  140.9734   69.6683  225.1673 H   0  0  0  0  0  0  0  0  0  0  0  0
  138.7195   68.2140  226.5836 H   0  0  0  0  0  0  0  0  0  0  0  0
  139.7336   67.6219  225.2136 H   0  0  0  0  0  0  0  0  0  0  0  0
  140.5516   66.6771  227.3104 H   0  0  0  0  0  0  0  0  0  0  0  0
  141.7532   67.8257  226.6685 H   0  0  0  0  0  0  0  0  0  0  0  0
  139.5766   68.5609  228.7212 H   0  0  0  0  0  0  0  0  0  0  0  0
  141.2415   68.1537  229.1712 H   0  0  0  0  0  0  0  0  0  0  0  0
  140.9793   70.5986  228.8937 H   0  0  0  0  0  0  0  0  0  0  0  0
  142.0692   69.9178  227.6125 H   0  0  0  0  0  0  0  0  0  0  0  0
  139.1625   70.7276  227.3434 H   0  0  0  0  0  0  0  0  0  0  0  0
  140.6429   71.4847  226.5869 H   0  0  0  0  0  0  0  0  0  0  0  0
  141.9176   76.0054  219.5771 H   0  0  0  0  0  0  0  0  0  0  0  0
  142.6845   78.3598  219.7210 H   0  0  0  0  0  0  0  0  0  0  0  0
  142.7656   80.4842  220.9425 H   0  0  0  0  0  0  0  0  0  0  0  0
  140.7276   80.7674  224.7334 H   0  0  0  0  0  0  0  0  0  0  0  0
  140.0037   78.4020  224.4976 H   0  0  0  0  0  0  0  0  0  0  0  0
  1  2  2  0
  2  3  1  0
  3  4  1  0
  4  5  1  0
  5  6  2  0
  5  7  1  0
  7  8  1  0
  8  9  1  0
  9 10  1  0
 10 11  1  0
 11 12  1  0
 12 13  1  0
 13 14  1  0
 14 15  1  0
 15 16  1  0
  2 17  1  0
 17 18  2  0
 18 19  1  0
 19 20  2  0
 20 21  1  0
 21 22  2  0
 22 23  1  0
 22 24  1  0
 24 25  2  0
 25 26  1  0
 26 27  2  0
 10  7  1  0
 16 11  1  0
 27 17  1  0
 26 20  1  0
  3 28  1  0
  4 29  1  0
  4 30  1  0
  8 31  1  0
  8 32  1  0
  9 33  1  0
  9 34  1  0
 10 35  1  1
 11 36  1  0
 12 37  1  0
 12 38  1  0
 13 39  1  0
 13 40  1  0
 14 41  1  0
 14 42  1  0
 15 43  1  0
 15 44  1  0
 16 45  1  0
 16 46  1  0
 18 47  1  0
 19 48  1  0
 21 49  1  0
 24 50  1  0
 25 51  1  0
M  END
>  <smiles>  (69) 
O=C(NCC(=O)N1CCC1C1CCCCC1)c1ccc2cc(F)ccc2n1

>  <score_type>  (69) 
oracle

>  <origin>  (69) 
autodockgpu

>  <m_score__min__energy>  (69) 
-8.6799999999999997

>  <m_primary>  (69) 
energy

>  <rmsd>  (69) 
8.854200212694655

>  <m_score__min__rmsd>  (69) 
8.854200212694655

>  <meeko>  (69) 
{"free_energy": -8.35, "intermolecular_energy": -9.85, "internal_energy": -1.31, "cluster_size": 6, "cluster_id": 2, "rank_in_cluster": 2}

>  <energy>  (69) 
-8.34

>  <cluster_rmsd>  (69) 
0.89

>  <cluster>  (69) 
1

$$$$

     RDKit          3D

 51 54  0  0  0  0  0  0  0  0999 V2000
  140.5220   71.8620  221.0790 O   0  0  0  0  0  0  0  0  0  0  0  0
  140.0810   72.3300  222.1410 C   0  0  0  0  0  0  0  0  0  0  0  0
  139.5860   73.6650  222.2900 N   0  0  0  0  0  0  0  0  0  0  0  0
  139.5870   74.5650  221.1670 C   0  0  0  0  0  0  0  0  0  0  0  0
  140.8160   75.3130  220.9290 C   0  0  0  0  0  0  0  0  0  0  0  0
  141.8960   74.7560  221.3660 O   0  0  0  0  0  0  0  0  0  0  0  0
  140.9410   76.5610  220.2760 N   0  0  0  0  0  0  0  0  0  0  0  0
  140.3750   77.3440  219.1980 C   0  0  0  0  0  0  0  0  0  0  0  0
  141.7410   77.9880  219.0500 C   0  0  0  0  0  0  0  0  0  0  0  0
  141.8520   77.6990  220.5060 C   0  0  1  0  0  0  0  0  0  0  0  0
  141.3040   78.7520  221.4400 C   0  0  0  0  0  0  0  0  0  0  0  0
  142.0450   80.0520  221.2410 C   0  0  0  0  0  0  0  0  0  0  0  0
  141.6080   81.0710  222.2600 C   0  0  0  0  0  0  0  0  0  0  0  0
  142.0240   80.5550  223.6310 C   0  0  0  0  0  0  0  0  0  0  0  0
  141.1980   79.3200  223.8820 C   0  0  0  0  0  0  0  0  0  0  0  0
  141.4440   78.2560  222.8400 C   0  0  0  0  0  0  0  0  0  0  0  0
  140.0610   71.4660  223.3390 C   0  0  0  0  0  0  0  0  0  0  0  0
  139.5320   70.1990  223.2870 C   0  0  0  0  0  0  0  0  0  0  0  0
  139.5080   69.3770  224.4130 C   0  0  0  0  0  0  0  0  0  0  0  0
  140.0220   69.8290  225.6170 C   0  0  0  0  0  0  0  0  0  0  0  0
  140.0150   69.0390  226.7570 C   0  0  0  0  0  0  0  0  0  0  0  0
  140.5390   69.5230  227.9460 C   0  0  0  0  0  0  0  0  0  0  0  0
  140.5340   68.7550  229.0640 F   0  0  0  0  0  0  0  0  0  0  0  0
  141.0700   70.8170  227.9720 C   0  0  0  0  0  0  0  0  0  0  0  0
  141.0660   71.5910  226.8120 C   0  0  0  0  0  0  0  0  0  0  0  0
  140.5440   71.1080  225.6260 C   0  0  0  0  0  0  0  0  0  0  0  0
  140.5520   71.8770  224.5210 N   0  0  0  0  0  0  0  0  0  0  0  0
  139.2240   73.9640  223.2390 H   0  0  0  0  0  0  0  0  0  0  0  0
  139.3774   73.9722  220.2644 H   0  0  0  0  0  0  0  0  0  0  0  0
  138.8274   75.3244  221.4042 H   0  0  0  0  0  0  0  0  0  0  0  0
  140.0458   76.7579  218.3273 H   0  0  0  0  0  0  0  0  0  0  0  0
  139.4614   77.9420  219.3310 H   0  0  0  0  0  0  0  0  0  0  0  0
  142.4508   77.4493  218.4051 H   0  0  0  0  0  0  0  0  0  0  0  0
  141.9029   78.9833  218.6105 H   0  0  0  0  0  0  0  0  0  0  0  0
  142.8351   77.5870  220.9866 H   0  0  0  0  0  0  0  0  0  0  0  0
  140.2411   78.9409  221.2288 H   0  0  0  0  0  0  0  0  0  0  0  0
  143.1250   79.8729  221.3486 H   0  0  0  0  0  0  0  0  0  0  0  0
  141.8222   80.4374  220.2351 H   0  0  0  0  0  0  0  0  0  0  0  0
  142.0951   82.0365  222.0584 H   0  0  0  0  0  0  0  0  0  0  0  0
  140.5190   81.2202  222.2163 H   0  0  0  0  0  0  0  0  0  0  0  0
  143.0952   80.3051  223.6357 H   0  0  0  0  0  0  0  0  0  0  0  0
  141.8608   81.3126  224.4116 H   0  0  0  0  0  0  0  0  0  0  0  0
  141.4560   78.9148  224.8716 H   0  0  0  0  0  0  0  0  0  0  0  0
  140.1366   79.6047  223.8341 H   0  0  0  0  0  0  0  0  0  0  0  0
  142.4651   77.8687  222.9719 H   0  0  0  0  0  0  0  0  0  0  0  0
  140.6809   77.4772  222.9857 H   0  0  0  0  0  0  0  0  0  0  0  0
  139.1192   69.8257  222.3382 H   0  0  0  0  0  0  0  0  0  0  0  0
  139.0794   68.3662  224.3448 H   0  0  0  0  0  0  0  0  0  0  0  0
  139.5920   68.0243  226.7177 H   0  0  0  0  0  0  0  0  0  0  0  0
  141.4894   71.2227  228.9045 H   0  0  0  0  0  0  0  0  0  0  0  0
  141.4868   72.6069  226.8410 H   0  0  0  0  0  0  0  0  0  0  0  0
  1  2  2  0
  2  3  1  0
  3  4  1  0
  4  5  1  0
  5  6  2  0
  5  7  1  0
  7  8  1  0
  8  9  1  0
  9 10  1  0
 10 11  1  0
 11 12  1  0
 12 13  1  0
 13 14  1  0
 14 15  1  0
 15 16  1  0
  2 17  1  0
 17 18  2  0
 18 19  1  0
 19 20  2  0
 20 21  1  0
 21 22  2  0
 22 23  1  0
 22 24  1  0
 24 25  2  0
 25 26  1  0
 26 27  2  0
 10  7  1  0
 16 11  1  0
 27 17  1  0
 26 20  1  0
  3 28  1  0
  4 29  1  0
  4 30  1  0
  8 31  1  0
  8 32  1  0
  9 33  1  0
  9 34  1  0
 10 35  1  1
 11 36  1  0
 12 37  1  0
 12 38  1  0
 13 39  1  0
 13 40  1  0
 14 41  1  0
 14 42  1  0
 15 43  1  0
 15 44  1  0
 16 45  1  0
 16 46  1  0
 18 47  1  0
 19 48  1  0
 21 49  1  0
 24 50  1  0
 25 51  1  0
M  END
>  <smiles>  (70) 
O=C(NCC(=O)N1CCC1C1CCCCC1)c1ccc2cc(F)ccc2n1

>  <score_type>  (70) 
oracle

>  <origin>  (70) 
autodockgpu

>  <m_score__min__energy>  (70) 
-8.6799999999999997

>  <m_primary>  (70) 
energy

>  <rmsd>  (70) 
2.5335935247936843

>  <m_score__min__rmsd>  (70) 
2.5335935247936843

>  <meeko>  (70) 
{"free_energy": -8.37, "intermolecular_energy": -9.87, "internal_energy": -1.19, "cluster_size": 39, "cluster_id": 1, "rank_in_cluster": 16}

>  <energy>  (70) 
-8.34

>  <cluster_rmsd>  (70) 
0.85

>  <cluster>  (70) 
1

$$$$

     RDKit          3D

 51 54  0  0  0  0  0  0  0  0999 V2000
  140.9790   73.8700  220.3210 O   0  0  0  0  0  0  0  0  0  0  0  0
  140.4620   74.5650  221.2090 C   0  0  0  0  0  0  0  0  0  0  0  0
  139.4880   74.0860  222.1430 N   0  0  0  0  0  0  0  0  0  0  0  0
  139.0410   72.7190  222.0840 C   0  0  0  0  0  0  0  0  0  0  0  0
  139.7810   71.7530  222.8860 C   0  0  0  0  0  0  0  0  0  0  0  0
  141.0450   71.9930  223.0150 O   0  0  0  0  0  0  0  0  0  0  0  0
  139.2660   70.6050  223.5290 N   0  0  0  0  0  0  0  0  0  0  0  0
  138.8490   69.2430  223.2650 C   0  0  0  0  0  0  0  0  0  0  0  0
  137.8870   69.3930  224.4310 C   0  0  0  0  0  0  0  0  0  0  0  0
  138.9120   70.3460  224.9380 C   0  0  1  0  0  0  0  0  0  0  0  0
  140.0320   69.7500  225.7580 C   0  0  0  0  0  0  0  0  0  0  0  0
  139.6940   68.3260  226.1310 C   0  0  0  0  0  0  0  0  0  0  0  0
  140.7330   67.7630  227.0650 C   0  0  0  0  0  0  0  0  0  0  0  0
  140.6670   68.5650  228.3590 C   0  0  0  0  0  0  0  0  0  0  0  0
  141.1170   69.9590  228.0110 C   0  0  0  0  0  0  0  0  0  0  0  0
  140.2280   70.5960  226.9710 C   0  0  0  0  0  0  0  0  0  0  0  0
  140.8640   75.9820  221.3220 C   0  0  0  0  0  0  0  0  0  0  0  0
  141.7320   76.5440  220.4170 C   0  0  0  0  0  0  0  0  0  0  0  0
  142.1180   77.8790  220.5160 C   0  0  0  0  0  0  0  0  0  0  0  0
  141.6280   78.6720  221.5400 C   0  0  0  0  0  0  0  0  0  0  0  0
  141.9910   80.0050  221.6700 C   0  0  0  0  0  0  0  0  0  0  0  0
  141.4810   80.7700  222.7070 C   0  0  0  0  0  0  0  0  0  0  0  0
  141.8320   82.0740  222.8390 F   0  0  0  0  0  0  0  0  0  0  0  0
  140.6000   80.1740  223.6160 C   0  0  0  0  0  0  0  0  0  0  0  0
  140.2510   78.8330  223.4640 C   0  0  0  0  0  0  0  0  0  0  0  0
  140.7590   78.0690  222.4280 C   0  0  0  0  0  0  0  0  0  0  0  0
  140.4060   76.7770  222.3050 N   0  0  0  0  0  0  0  0  0  0  0  0
  139.1140   74.7600  222.8700 H   0  0  0  0  0  0  0  0  0  0  0  0
  137.9931   72.6963  222.4179 H   0  0  0  0  0  0  0  0  0  0  0  0
  139.1976   72.4085  221.0404 H   0  0  0  0  0  0  0  0  0  0  0  0
  138.3676   69.0903  222.2878 H   0  0  0  0  0  0  0  0  0  0  0  0
  139.5701   68.4142  223.2084 H   0  0  0  0  0  0  0  0  0  0  0  0
  136.9102   69.8350  224.1850 H   0  0  0  0  0  0  0  0  0  0  0  0
  137.4975   68.5462  225.0151 H   0  0  0  0  0  0  0  0  0  0  0  0
  138.6389   71.1476  225.6401 H   0  0  0  0  0  0  0  0  0  0  0  0
  140.9666   69.7289  225.1782 H   0  0  0  0  0  0  0  0  0  0  0  0
  138.7124   68.3053  226.6271 H   0  0  0  0  0  0  0  0  0  0  0  0
  139.6704   67.7153  225.2164 H   0  0  0  0  0  0  0  0  0  0  0  0
  140.5204   66.7031  227.2686 H   0  0  0  0  0  0  0  0  0  0  0  0
  141.7352   67.8316  226.6169 H   0  0  0  0  0  0  0  0  0  0  0  0
  139.6372   68.5818  228.7454 H   0  0  0  0  0  0  0  0  0  0  0  0
  141.3027   68.1210  229.1393 H   0  0  0  0  0  0  0  0  0  0  0  0
  141.0976   70.5763  228.9213 H   0  0  0  0  0  0  0  0  0  0  0  0
  142.1337   69.8946  227.5961 H   0  0  0  0  0  0  0  0  0  0  0  0
  139.2443   70.7883  227.4242 H   0  0  0  0  0  0  0  0  0  0  0  0
  140.7242   71.5215  226.6437 H   0  0  0  0  0  0  0  0  0  0  0  0
  142.1301   75.9273  219.5978 H   0  0  0  0  0  0  0  0  0  0  0  0
  142.8143   78.3045  219.7783 H   0  0  0  0  0  0  0  0  0  0  0  0
  142.6864   80.4563  220.9470 H   0  0  0  0  0  0  0  0  0  0  0  0
  140.1842   80.7616  224.4477 H   0  0  0  0  0  0  0  0  0  0  0  0
  139.5572   78.3724  224.1827 H   0  0  0  0  0  0  0  0  0  0  0  0
  1  2  2  0
  2  3  1  0
  3  4  1  0
  4  5  1  0
  5  6  2  0
  5  7  1  0
  7  8  1  0
  8  9  1  0
  9 10  1  0
 10 11  1  0
 11 12  1  0
 12 13  1  0
 13 14  1  0
 14 15  1  0
 15 16  1  0
  2 17  1  0
 17 18  2  0
 18 19  1  0
 19 20  2  0
 20 21  1  0
 21 22  2  0
 22 23  1  0
 22 24  1  0
 24 25  2  0
 25 26  1  0
 26 27  2  0
 10  7  1  0
 16 11  1  0
 27 17  1  0
 26 20  1  0
  3 28  1  0
  4 29  1  0
  4 30  1  0
  8 31  1  0
  8 32  1  0
  9 33  1  0
  9 34  1  0
 10 35  1  1
 11 36  1  0
 12 37  1  0
 12 38  1  0
 13 39  1  0
 13 40  1  0
 14 41  1  0
 14 42  1  0
 15 43  1  0
 15 44  1  0
 16 45  1  0
 16 46  1  0
 18 47  1  0
 19 48  1  0
 21 49  1  0
 24 50  1  0
 25 51  1  0
M  END
>  <smiles>  (71) 
O=C(NCC(=O)N1CCC1C1CCCCC1)c1ccc2cc(F)ccc2n1

>  <score_type>  (71) 
oracle

>  <origin>  (71) 
autodockgpu

>  <m_score__min__energy>  (71) 
-8.6799999999999997

>  <m_primary>  (71) 
energy

>  <rmsd>  (71) 
8.85693953641101

>  <m_score__min__rmsd>  (71) 
8.85693953641101

>  <meeko>  (71) 
{"free_energy": -8.31, "intermolecular_energy": -9.8, "internal_energy": -1.28, "cluster_size": 6, "cluster_id": 2, "rank_in_cluster": 4}

>  <energy>  (71) 
-8.33

>  <cluster_rmsd>  (71) 
0.86

>  <cluster>  (71) 
1

$$$$

     RDKit          3D

 51 54  0  0  0  0  0  0  0  0999 V2000
  141.0140   71.6450  221.2960 O   0  0  0  0  0  0  0  0  0  0  0  0
  140.4220   72.1200  222.2790 C   0  0  0  0  0  0  0  0  0  0  0  0
  139.9130   73.4560  222.3450 N   0  0  0  0  0  0  0  0  0  0  0  0
  140.0820   74.3500  221.2290 C   0  0  0  0  0  0  0  0  0  0  0  0
  139.7540   75.7530  221.4590 C   0  0  0  0  0  0  0  0  0  0  0  0
  138.9290   75.9760  222.4280 O   0  0  0  0  0  0  0  0  0  0  0  0
  140.2420   76.8700  220.7450 N   0  0  0  0  0  0  0  0  0  0  0  0
  139.9360   77.7210  219.6140 C   0  0  0  0  0  0  0  0  0  0  0  0
  141.4320   77.9320  219.4650 C   0  0  0  0  0  0  0  0  0  0  0  0
  141.4420   77.7080  220.9370 C   0  0  1  0  0  0  0  0  0  0  0  0
  141.2160   78.9260  221.8010 C   0  0  0  0  0  0  0  0  0  0  0  0
  141.9840   80.1000  221.2440 C   0  0  0  0  0  0  0  0  0  0  0  0
  141.8830   81.2840  222.1690 C   0  0  0  0  0  0  0  0  0  0  0  0
  142.5760   80.9070  223.4730 C   0  0  0  0  0  0  0  0  0  0  0  0
  141.7430   79.8130  224.0880 C   0  0  0  0  0  0  0  0  0  0  0  0
  141.6510   78.6030  223.1910 C   0  0  0  0  0  0  0  0  0  0  0  0
  140.2220   71.2630  223.4660 C   0  0  0  0  0  0  0  0  0  0  0  0
  139.5650   70.0600  223.3650 C   0  0  0  0  0  0  0  0  0  0  0  0
  139.3710   69.2460  224.4790 C   0  0  0  0  0  0  0  0  0  0  0  0
  139.8420   69.6400  225.7210 C   0  0  0  0  0  0  0  0  0  0  0  0
  139.6670   68.8550  226.8520 C   0  0  0  0  0  0  0  0  0  0  0  0
  140.1510   69.2800  228.0790 C   0  0  0  0  0  0  0  0  0  0  0  0
  139.9830   68.5170  229.1870 F   0  0  0  0  0  0  0  0  0  0  0  0
  140.8150   70.5090  228.1540 C   0  0  0  0  0  0  0  0  0  0  0  0
  140.9780   71.2790  227.0030 C   0  0  0  0  0  0  0  0  0  0  0  0
  140.4950   70.8550  225.7780 C   0  0  0  0  0  0  0  0  0  0  0  0
  140.6660   71.6180  224.6830 N   0  0  0  0  0  0  0  0  0  0  0  0
  139.4140   73.7620  223.2280 H   0  0  0  0  0  0  0  0  0  0  0  0
  141.1362   74.3005  220.9187 H   0  0  0  0  0  0  0  0  0  0  0  0
  139.3637   74.0053  220.4706 H   0  0  0  0  0  0  0  0  0  0  0  0
  139.4573   77.2069  218.7675 H   0  0  0  0  0  0  0  0  0  0  0  0
  139.2347   78.5647  219.6938 H   0  0  0  0  0  0  0  0  0  0  0  0
  141.9598   77.1743  218.8672 H   0  0  0  0  0  0  0  0  0  0  0  0
  141.8799   78.8103  218.9772 H   0  0  0  0  0  0  0  0  0  0  0  0
  142.3464   77.3448  221.4470 H   0  0  0  0  0  0  0  0  0  0  0  0
  140.1509   79.2009  221.8115 H   0  0  0  0  0  0  0  0  0  0  0  0
  143.0414   79.8193  221.1297 H   0  0  0  0  0  0  0  0  0  0  0  0
  141.5563   80.3738  220.2682 H   0  0  0  0  0  0  0  0  0  0  0  0
  142.3794   82.1561  221.7184 H   0  0  0  0  0  0  0  0  0  0  0  0
  140.8300   81.5446  222.3512 H   0  0  0  0  0  0  0  0  0  0  0  0
  143.5949   80.5441  223.2727 H   0  0  0  0  0  0  0  0  0  0  0  0
  142.6631   81.7724  224.1464 H   0  0  0  0  0  0  0  0  0  0  0  0
  142.1988   79.5135  225.0433 H   0  0  0  0  0  0  0  0  0  0  0  0
  140.7257   80.2034  224.2387 H   0  0  0  0  0  0  0  0  0  0  0  0
  142.6419   78.1277  223.1444 H   0  0  0  0  0  0  0  0  0  0  0  0
  140.8894   77.9368  223.6224 H   0  0  0  0  0  0  0  0  0  0  0  0
  139.1850   69.7335  222.3857 H   0  0  0  0  0  0  0  0  0  0  0  0
  138.8422   68.2874  224.3721 H   0  0  0  0  0  0  0  0  0  0  0  0
  139.1420   67.8915  226.7742 H   0  0  0  0  0  0  0  0  0  0  0  0
  141.2071   70.8667  229.1175 H   0  0  0  0  0  0  0  0  0  0  0  0
  141.5017   72.2440  227.0705 H   0  0  0  0  0  0  0  0  0  0  0  0
  1  2  2  0
  2  3  1  0
  3  4  1  0
  4  5  1  0
  5  6  2  0
  5  7  1  0
  7  8  1  0
  8  9  1  0
  9 10  1  0
 10 11  1  0
 11 12  1  0
 12 13  1  0
 13 14  1  0
 14 15  1  0
 15 16  1  0
  2 17  1  0
 17 18  2  0
 18 19  1  0
 19 20  2  0
 20 21  1  0
 21 22  2  0
 22 23  1  0
 22 24  1  0
 24 25  2  0
 25 26  1  0
 26 27  2  0
 10  7  1  0
 16 11  1  0
 27 17  1  0
 26 20  1  0
  3 28  1  0
  4 29  1  0
  4 30  1  0
  8 31  1  0
  8 32  1  0
  9 33  1  0
  9 34  1  0
 10 35  1  1
 11 36  1  0
 12 37  1  0
 12 38  1  0
 13 39  1  0
 13 40  1  0
 14 41  1  0
 14 42  1  0
 15 43  1  0
 15 44  1  0
 16 45  1  0
 16 46  1  0
 18 47  1  0
 19 48  1  0
 21 49  1  0
 24 50  1  0
 25 51  1  0
M  END
>  <smiles>  (72) 
O=C(NCC(=O)N1CCC1C1CCCCC1)c1ccc2cc(F)ccc2n1

>  <score_type>  (72) 
oracle

>  <origin>  (72) 
autodockgpu

>  <m_score__min__energy>  (72) 
-8.6799999999999997

>  <m_primary>  (72) 
energy

>  <rmsd>  (72) 
2.661875109776495

>  <m_score__min__rmsd>  (72) 
2.661875109776495

>  <meeko>  (72) 
{"free_energy": -8.4, "intermolecular_energy": -9.89, "internal_energy": -1.43, "cluster_size": 39, "cluster_id": 1, "rank_in_cluster": 11}

>  <energy>  (72) 
-8.33

>  <cluster_rmsd>  (72) 
0.74

>  <cluster>  (72) 
1

$$$$

     RDKit          3D

 51 54  0  0  0  0  0  0  0  0999 V2000
  140.4430   71.9370  221.0320 O   0  0  0  0  0  0  0  0  0  0  0  0
  140.0270   72.3730  222.1170 C   0  0  0  0  0  0  0  0  0  0  0  0
  139.5550   73.7090  222.3210 N   0  0  0  0  0  0  0  0  0  0  0  0
  139.5510   74.6490  221.2310 C   0  0  0  0  0  0  0  0  0  0  0  0
  140.8240   75.2810  220.9070 C   0  0  0  0  0  0  0  0  0  0  0  0
  141.8760   74.6210  221.2660 O   0  0  0  0  0  0  0  0  0  0  0  0
  141.0200   76.5160  220.2490 N   0  0  0  0  0  0  0  0  0  0  0  0
  140.5550   77.2900  219.1170 C   0  0  0  0  0  0  0  0  0  0  0  0
  141.9370   77.9160  219.0740 C   0  0  0  0  0  0  0  0  0  0  0  0
  141.9230   77.6480  220.5380 C   0  0  1  0  0  0  0  0  0  0  0  0
  141.3130   78.7210  221.4080 C   0  0  0  0  0  0  0  0  0  0  0  0
  142.0400   80.0270  221.1990 C   0  0  0  0  0  0  0  0  0  0  0  0
  141.5380   81.0720  222.1610 C   0  0  0  0  0  0  0  0  0  0  0  0
  141.8970   80.6100  223.5670 C   0  0  0  0  0  0  0  0  0  0  0  0
  141.0810   79.3690  223.8220 C   0  0  0  0  0  0  0  0  0  0  0  0
  141.3950   78.2750  222.8300 C   0  0  0  0  0  0  0  0  0  0  0  0
  140.0140   71.4680  223.2850 C   0  0  0  0  0  0  0  0  0  0  0  0
  139.5720   70.1720  223.1680 C   0  0  0  0  0  0  0  0  0  0  0  0
  139.5550   69.3110  224.2630 C   0  0  0  0  0  0  0  0  0  0  0  0
  139.9860   69.7520  225.5030 C   0  0  0  0  0  0  0  0  0  0  0  0
  139.9830   68.9230  226.6160 C   0  0  0  0  0  0  0  0  0  0  0  0
  140.4230   69.3970  227.8420 C   0  0  0  0  0  0  0  0  0  0  0  0
  140.4210   68.5920  228.9330 F   0  0  0  0  0  0  0  0  0  0  0  0
  140.8660   70.7210  227.9340 C   0  0  0  0  0  0  0  0  0  0  0  0
  140.8600   71.5340  226.8010 C   0  0  0  0  0  0  0  0  0  0  0  0
  140.4210   71.0610  225.5770 C   0  0  0  0  0  0  0  0  0  0  0  0
  140.4250   71.8670  224.5000 N   0  0  0  0  0  0  0  0  0  0  0  0
  139.2120   73.9800  223.2860 H   0  0  0  0  0  0  0  0  0  0  0  0
  139.2051   74.1164  220.3328 H   0  0  0  0  0  0  0  0  0  0  0  0
  138.8961   75.4696  221.5593 H   0  0  0  0  0  0  0  0  0  0  0  0
  140.2915   76.6952  218.2300 H   0  0  0  0  0  0  0  0  0  0  0  0
  139.6412   77.9005  219.1658 H   0  0  0  0  0  0  0  0  0  0  0  0
  142.6910   77.3593  218.4981 H   0  0  0  0  0  0  0  0  0  0  0  0
  142.1476   78.9025  218.6354 H   0  0  0  0  0  0  0  0  0  0  0  0
  142.8612   77.5324  221.1005 H   0  0  0  0  0  0  0  0  0  0  0  0
  140.2582   78.8825  221.1410 H   0  0  0  0  0  0  0  0  0  0  0  0
  143.1166   79.8719  221.3629 H   0  0  0  0  0  0  0  0  0  0  0  0
  141.8582   80.3740  220.1711 H   0  0  0  0  0  0  0  0  0  0  0  0
  142.0180   82.0388  221.9493 H   0  0  0  0  0  0  0  0  0  0  0  0
  140.4500   81.1998  222.0611 H   0  0  0  0  0  0  0  0  0  0  0  0
  142.9709   80.3802  223.6305 H   0  0  0  0  0  0  0  0  0  0  0  0
  141.6840   81.3904  224.3124 H   0  0  0  0  0  0  0  0  0  0  0  0
  141.2984   79.0026  224.8361 H   0  0  0  0  0  0  0  0  0  0  0  0
  140.0183   79.6318  223.7146 H   0  0  0  0  0  0  0  0  0  0  0  0
  142.4153   77.9120  223.0230 H   0  0  0  0  0  0  0  0  0  0  0  0
  140.6397   77.4870  222.9666 H   0  0  0  0  0  0  0  0  0  0  0  0
  139.2247   69.8072  222.1901 H   0  0  0  0  0  0  0  0  0  0  0  0
  139.1981   68.2775  224.1423 H   0  0  0  0  0  0  0  0  0  0  0  0
  139.6299   67.8852  226.5249 H   0  0  0  0  0  0  0  0  0  0  0  0
  141.2179   71.1194  228.8971 H   0  0  0  0  0  0  0  0  0  0  0  0
  141.2116   72.5731  226.8820 H   0  0  0  0  0  0  0  0  0  0  0  0
  1  2  2  0
  2  3  1  0
  3  4  1  0
  4  5  1  0
  5  6  2  0
  5  7  1  0
  7  8  1  0
  8  9  1  0
  9 10  1  0
 10 11  1  0
 11 12  1  0
 12 13  1  0
 13 14  1  0
 14 15  1  0
 15 16  1  0
  2 17  1  0
 17 18  2  0
 18 19  1  0
 19 20  2  0
 20 21  1  0
 21 22  2  0
 22 23  1  0
 22 24  1  0
 24 25  2  0
 25 26  1  0
 26 27  2  0
 10  7  1  0
 16 11  1  0
 27 17  1  0
 26 20  1  0
  3 28  1  0
  4 29  1  0
  4 30  1  0
  8 31  1  0
  8 32  1  0
  9 33  1  0
  9 34  1  0
 10 35  1  1
 11 36  1  0
 12 37  1  0
 12 38  1  0
 13 39  1  0
 13 40  1  0
 14 41  1  0
 14 42  1  0
 15 43  1  0
 15 44  1  0
 16 45  1  0
 16 46  1  0
 18 47  1  0
 19 48  1  0
 21 49  1  0
 24 50  1  0
 25 51  1  0
M  END
>  <smiles>  (73) 
O=C(NCC(=O)N1CCC1C1CCCCC1)c1ccc2cc(F)ccc2n1

>  <score_type>  (73) 
oracle

>  <origin>  (73) 
autodockgpu

>  <m_score__min__energy>  (73) 
-8.6799999999999997

>  <m_primary>  (73) 
energy

>  <rmsd>  (73) 
2.519971578860947

>  <m_score__min__rmsd>  (73) 
2.519971578860947

>  <meeko>  (73) 
{"free_energy": -8.28, "intermolecular_energy": -9.77, "internal_energy": -1.21, "cluster_size": 39, "cluster_id": 1, "rank_in_cluster": 25}

>  <energy>  (73) 
-8.32

>  <cluster_rmsd>  (73) 
0.88

>  <cluster>  (73) 
1

$$$$

     RDKit          3D

 51 54  0  0  0  0  0  0  0  0999 V2000
  140.7840   73.9280  220.3580 O   0  0  0  0  0  0  0  0  0  0  0  0
  140.3760   74.6310  221.2950 C   0  0  0  0  0  0  0  0  0  0  0  0
  139.4690   74.1790  222.3070 N   0  0  0  0  0  0  0  0  0  0  0  0
  138.9620   72.8330  222.2740 C   0  0  0  0  0  0  0  0  0  0  0  0
  139.7760   71.8100  222.9210 C   0  0  0  0  0  0  0  0  0  0  0  0
  141.0370   72.0790  223.0030 O   0  0  0  0  0  0  0  0  0  0  0  0
  139.3320   70.5820  223.4600 N   0  0  0  0  0  0  0  0  0  0  0  0
  139.0760   69.2040  223.0950 C   0  0  0  0  0  0  0  0  0  0  0  0
  138.0190   69.1920  224.1850 C   0  0  0  0  0  0  0  0  0  0  0  0
  138.9020   70.2080  224.8210 C   0  0  1  0  0  0  0  0  0  0  0  0
  140.0110   69.6760  225.6970 C   0  0  0  0  0  0  0  0  0  0  0  0
  139.6710   68.2810  226.1660 C   0  0  0  0  0  0  0  0  0  0  0  0
  140.6980   67.7900  227.1530 C   0  0  0  0  0  0  0  0  0  0  0  0
  140.6120   68.6820  228.3850 C   0  0  0  0  0  0  0  0  0  0  0  0
  141.0650   70.0490  227.9450 C   0  0  0  0  0  0  0  0  0  0  0  0
  140.1880   70.6070  226.8490 C   0  0  0  0  0  0  0  0  0  0  0  0
  140.8450   76.0290  221.3870 C   0  0  0  0  0  0  0  0  0  0  0  0
  141.6630   76.5630  220.4200 C   0  0  0  0  0  0  0  0  0  0  0  0
  142.1110   77.8800  220.4980 C   0  0  0  0  0  0  0  0  0  0  0  0
  141.7360   78.6830  221.5630 C   0  0  0  0  0  0  0  0  0  0  0  0
  142.1640   79.9980  221.6730 C   0  0  0  0  0  0  0  0  0  0  0  0
  141.7690   80.7730  222.7520 C   0  0  0  0  0  0  0  0  0  0  0  0
  142.1830   82.0590  222.8650 F   0  0  0  0  0  0  0  0  0  0  0  0
  140.9360   80.2050  223.7230 C   0  0  0  0  0  0  0  0  0  0  0  0
  140.5210   78.8800  223.5890 C   0  0  0  0  0  0  0  0  0  0  0  0
  140.9140   78.1070  222.5120 C   0  0  0  0  0  0  0  0  0  0  0  0
  140.4990   76.8310  222.4080 N   0  0  0  0  0  0  0  0  0  0  0  0
  139.1880   74.8580  223.0700 H   0  0  0  0  0  0  0  0  0  0  0  0
  137.9777   72.8355  222.7650 H   0  0  0  0  0  0  0  0  0  0  0  0
  138.9438   72.5571  221.2093 H   0  0  0  0  0  0  0  0  0  0  0  0
  138.6876   69.0624  222.0756 H   0  0  0  0  0  0  0  0  0  0  0  0
  139.8794   68.4537  223.0552 H   0  0  0  0  0  0  0  0  0  0  0  0
  137.0240   69.5515  223.8837 H   0  0  0  0  0  0  0  0  0  0  0  0
  137.6736   68.2789  224.6918 H   0  0  0  0  0  0  0  0  0  0  0  0
  138.4982   70.9370  225.5390 H   0  0  0  0  0  0  0  0  0  0  0  0
  140.9538   69.6167  225.1334 H   0  0  0  0  0  0  0  0  0  0  0  0
  138.6823   68.2923  226.6481 H   0  0  0  0  0  0  0  0  0  0  0  0
  139.6622   67.6064  225.2972 H   0  0  0  0  0  0  0  0  0  0  0  0
  140.4849   66.7467  227.4290 H   0  0  0  0  0  0  0  0  0  0  0  0
  141.7063   67.8301  226.7152 H   0  0  0  0  0  0  0  0  0  0  0  0
  139.5767   68.7237  228.7543 H   0  0  0  0  0  0  0  0  0  0  0  0
  141.2370   68.2965  229.2040 H   0  0  0  0  0  0  0  0  0  0  0  0
  141.0317   70.7297  228.8084 H   0  0  0  0  0  0  0  0  0  0  0  0
  142.0879   69.9588  227.5506 H   0  0  0  0  0  0  0  0  0  0  0  0
  139.1976   70.8276  227.2738 H   0  0  0  0  0  0  0  0  0  0  0  0
  140.6864   71.5085  226.4630 H   0  0  0  0  0  0  0  0  0  0  0  0
  141.9699   75.9385  219.5681 H   0  0  0  0  0  0  0  0  0  0  0  0
  142.7649   78.2838  219.7110 H   0  0  0  0  0  0  0  0  0  0  0  0
  142.8194   80.4273  220.9009 H   0  0  0  0  0  0  0  0  0  0  0  0
  140.6100   80.8010  224.5882 H   0  0  0  0  0  0  0  0  0  0  0  0
  139.8670   78.4406  224.3566 H   0  0  0  0  0  0  0  0  0  0  0  0
  1  2  2  0
  2  3  1  0
  3  4  1  0
  4  5  1  0
  5  6  2  0
  5  7  1  0
  7  8  1  0
  8  9  1  0
  9 10  1  0
 10 11  1  0
 11 12  1  0
 12 13  1  0
 13 14  1  0
 14 15  1  0
 15 16  1  0
  2 17  1  0
 17 18  2  0
 18 19  1  0
 19 20  2  0
 20 21  1  0
 21 22  2  0
 22 23  1  0
 22 24  1  0
 24 25  2  0
 25 26  1  0
 26 27  2  0
 10  7  1  0
 16 11  1  0
 27 17  1  0
 26 20  1  0
  3 28  1  0
  4 29  1  0
  4 30  1  0
  8 31  1  0
  8 32  1  0
  9 33  1  0
  9 34  1  0
 10 35  1  1
 11 36  1  0
 12 37  1  0
 12 38  1  0
 13 39  1  0
 13 40  1  0
 14 41  1  0
 14 42  1  0
 15 43  1  0
 15 44  1  0
 16 45  1  0
 16 46  1  0
 18 47  1  0
 19 48  1  0
 21 49  1  0
 24 50  1  0
 25 51  1  0
M  END
>  <smiles>  (74) 
O=C(NCC(=O)N1CCC1C1CCCCC1)c1ccc2cc(F)ccc2n1

>  <score_type>  (74) 
oracle

>  <origin>  (74) 
autodockgpu

>  <m_score__min__energy>  (74) 
-8.6799999999999997

>  <m_primary>  (74) 
energy

>  <rmsd>  (74) 
8.861662038237315

>  <m_score__min__rmsd>  (74) 
8.861662038237315

>  <meeko>  (74) 
{"free_energy": -8.33, "intermolecular_energy": -9.82, "internal_energy": -1.33, "cluster_size": 6, "cluster_id": 2, "rank_in_cluster": 3}

>  <energy>  (74) 
-8.29

>  <cluster_rmsd>  (74) 
0.69

>  <cluster>  (74) 
1

$$$$

     RDKit          3D

 51 54  0  0  0  0  0  0  0  0999 V2000
  141.3540   72.2860  221.5840 O   0  0  0  0  0  0  0  0  0  0  0  0
  140.4460   72.5300  222.3950 C   0  0  0  0  0  0  0  0  0  0  0  0
  139.5720   73.6600  222.3100 N   0  0  0  0  0  0  0  0  0  0  0  0
  139.7210   74.6110  221.2400 C   0  0  0  0  0  0  0  0  0  0  0  0
  139.2600   75.9690  221.5020 C   0  0  0  0  0  0  0  0  0  0  0  0
  138.3990   76.0860  222.4580 O   0  0  0  0  0  0  0  0  0  0  0  0
  139.6570   77.1480  220.8310 N   0  0  0  0  0  0  0  0  0  0  0  0
  139.1760   78.1430  219.8960 C   0  0  0  0  0  0  0  0  0  0  0  0
  140.6180   78.3160  219.4550 C   0  0  0  0  0  0  0  0  0  0  0  0
  140.9210   77.9110  220.8550 C   0  0  1  0  0  0  0  0  0  0  0  0
  140.9560   79.0200  221.8800 C   0  0  0  0  0  0  0  0  0  0  0  0
  141.8510   80.1360  221.3990 C   0  0  0  0  0  0  0  0  0  0  0  0
  142.0100   81.1850  222.4680 C   0  0  0  0  0  0  0  0  0  0  0  0
  142.7360   80.5380  223.6400 C   0  0  0  0  0  0  0  0  0  0  0  0
  141.7940   79.5020  224.1960 C   0  0  0  0  0  0  0  0  0  0  0  0
  141.4430   78.4510  223.1710 C   0  0  0  0  0  0  0  0  0  0  0  0
  140.2430   71.6040  223.5280 C   0  0  0  0  0  0  0  0  0  0  0  0
  139.5690   70.4180  223.3580 C   0  0  0  0  0  0  0  0  0  0  0  0
  139.3710   69.5390  224.4210 C   0  0  0  0  0  0  0  0  0  0  0  0
  139.8560   69.8480  225.6810 C   0  0  0  0  0  0  0  0  0  0  0  0
  139.6770   68.9970  226.7620 C   0  0  0  0  0  0  0  0  0  0  0  0
  140.1760   69.3380  228.0090 C   0  0  0  0  0  0  0  0  0  0  0  0
  140.0050   68.5090  229.0690 F   0  0  0  0  0  0  0  0  0  0  0  0
  140.8580   70.5500  228.1550 C   0  0  0  0  0  0  0  0  0  0  0  0
  141.0240   71.3890  227.0530 C   0  0  0  0  0  0  0  0  0  0  0  0
  140.5270   71.0490  225.8080 C   0  0  0  0  0  0  0  0  0  0  0  0
  140.7010   71.8760  224.7620 N   0  0  0  0  0  0  0  0  0  0  0  0
  138.8230   73.7730  223.0500 H   0  0  0  0  0  0  0  0  0  0  0  0
  140.7905   74.6648  220.9884 H   0  0  0  0  0  0  0  0  0  0  0  0
  139.0766   74.2382  220.4302 H   0  0  0  0  0  0  0  0  0  0  0  0
  138.5005   77.7557  219.1190 H   0  0  0  0  0  0  0  0  0  0  0  0
  138.5605   78.9954  220.2193 H   0  0  0  0  0  0  0  0  0  0  0  0
  140.9615   77.6196  218.6759 H   0  0  0  0  0  0  0  0  0  0  0  0
  141.0079   79.2312  218.9856 H   0  0  0  0  0  0  0  0  0  0  0  0
  141.8876   77.4545  221.1144 H   0  0  0  0  0  0  0  0  0  0  0  0
  139.9509   79.4417  222.0284 H   0  0  0  0  0  0  0  0  0  0  0  0
  142.8392   79.7239  221.1469 H   0  0  0  0  0  0  0  0  0  0  0  0
  141.3948   80.5995  220.5118 H   0  0  0  0  0  0  0  0  0  0  0  0
  142.5994   82.0293  222.0810 H   0  0  0  0  0  0  0  0  0  0  0  0
  141.0284   81.5679  222.7841 H   0  0  0  0  0  0  0  0  0  0  0  0
  143.6666   80.0625  223.2968 H   0  0  0  0  0  0  0  0  0  0  0  0
  143.0099   81.2819  224.4026 H   0  0  0  0  0  0  0  0  0  0  0  0
  142.2721   79.0127  225.0574 H   0  0  0  0  0  0  0  0  0  0  0  0
  140.8653   80.0110  224.4935 H   0  0  0  0  0  0  0  0  0  0  0  0
  142.3403   77.8474  222.9694 H   0  0  0  0  0  0  0  0  0  0  0  0
  140.6227   77.8501  223.5905 H   0  0  0  0  0  0  0  0  0  0  0  0
  139.1783   70.1577  222.3632 H   0  0  0  0  0  0  0  0  0  0  0  0
  138.8276   68.5964  224.2589 H   0  0  0  0  0  0  0  0  0  0  0  0
  139.1369   68.0480  226.6287 H   0  0  0  0  0  0  0  0  0  0  0  0
  141.2623   70.8409  229.1358 H   0  0  0  0  0  0  0  0  0  0  0  0
  141.5614   72.3408  227.1768 H   0  0  0  0  0  0  0  0  0  0  0  0
  1  2  2  0
  2  3  1  0
  3  4  1  0
  4  5  1  0
  5  6  2  0
  5  7  1  0
  7  8  1  0
  8  9  1  0
  9 10  1  0
 10 11  1  0
 11 12  1  0
 12 13  1  0
 13 14  1  0
 14 15  1  0
 15 16  1  0
  2 17  1  0
 17 18  2  0
 18 19  1  0
 19 20  2  0
 20 21  1  0
 21 22  2  0
 22 23  1  0
 22 24  1  0
 24 25  2  0
 25 26  1  0
 26 27  2  0
 10  7  1  0
 16 11  1  0
 27 17  1  0
 26 20  1  0
  3 28  1  0
  4 29  1  0
  4 30  1  0
  8 31  1  0
  8 32  1  0
  9 33  1  0
  9 34  1  0
 10 35  1  6
 11 36  1  0
 12 37  1  0
 12 38  1  0
 13 39  1  0
 13 40  1  0
 14 41  1  0
 14 42  1  0
 15 43  1  0
 15 44  1  0
 16 45  1  0
 16 46  1  0
 18 47  1  0
 19 48  1  0
 21 49  1  0
 24 50  1  0
 25 51  1  0
M  END
>  <smiles>  (75) 
O=C(NCC(=O)N1CCC1C1CCCCC1)c1ccc2cc(F)ccc2n1

>  <score_type>  (75) 
oracle

>  <origin>  (75) 
autodockgpu

>  <m_score__min__energy>  (75) 
-8.6799999999999997

>  <m_primary>  (75) 
energy

>  <rmsd>  (75) 
2.7828953909549803

>  <m_score__min__rmsd>  (75) 
2.7828953909549803

>  <meeko>  (75) 
{"free_energy": -8.46, "intermolecular_energy": -9.96, "internal_energy": -1.37, "cluster_size": 39, "cluster_id": 1, "rank_in_cluster": 8}

>  <energy>  (75) 
-8.28

>  <cluster_rmsd>  (75) 
0.69

>  <cluster>  (75) 
1

$$$$

     RDKit          3D

 51 54  0  0  0  0  0  0  0  0999 V2000
  138.5850   71.7480  221.6280 O   0  0  0  0  0  0  0  0  0  0  0  0
  139.5060   71.9350  222.4390 C   0  0  0  0  0  0  0  0  0  0  0  0
  140.4850   72.9730  222.3240 N   0  0  0  0  0  0  0  0  0  0  0  0
  140.4470   73.8810  221.2080 C   0  0  0  0  0  0  0  0  0  0  0  0
  140.1710   75.2800  221.5110 C   0  0  0  0  0  0  0  0  0  0  0  0
  139.5870   75.4960  222.6430 O   0  0  0  0  0  0  0  0  0  0  0  0
  140.4760   76.4030  220.7080 N   0  0  0  0  0  0  0  0  0  0  0  0
  140.0450   77.0990  219.5140 C   0  0  0  0  0  0  0  0  0  0  0  0
  141.4880   77.5410  219.3430 C   0  0  0  0  0  0  0  0  0  0  0  0
  141.5210   77.4380  220.8280 C   0  0  1  0  0  0  0  0  0  0  0  0
  141.0900   78.6670  221.5930 C   0  0  0  0  0  0  0  0  0  0  0  0
  141.7650   79.8900  221.0220 C   0  0  0  0  0  0  0  0  0  0  0  0
  141.4580   81.1040  221.8600 C   0  0  0  0  0  0  0  0  0  0  0  0
  142.0800   80.8810  223.2330 C   0  0  0  0  0  0  0  0  0  0  0  0
  141.3270   79.7340  223.8530 C   0  0  0  0  0  0  0  0  0  0  0  0
  141.4430   78.4730  223.0300 C   0  0  0  0  0  0  0  0  0  0  0  0
  139.6140   71.0330  223.6050 C   0  0  0  0  0  0  0  0  0  0  0  0
  139.1010   69.7590  223.5610 C   0  0  0  0  0  0  0  0  0  0  0  0
  139.1980   68.9010  224.6550 C   0  0  0  0  0  0  0  0  0  0  0  0
  139.8190   69.3240  225.8190 C   0  0  0  0  0  0  0  0  0  0  0  0
  139.9330   68.4970  226.9280 C   0  0  0  0  0  0  0  0  0  0  0  0
  140.5610   68.9520  228.0760 C   0  0  0  0  0  0  0  0  0  0  0  0
  140.6750   68.1490  229.1630 F   0  0  0  0  0  0  0  0  0  0  0  0
  141.0740   70.2540  228.0950 C   0  0  0  0  0  0  0  0  0  0  0  0
  140.9460   71.0640  226.9670 C   0  0  0  0  0  0  0  0  0  0  0  0
  140.3200   70.6110  225.8210 C   0  0  0  0  0  0  0  0  0  0  0  0
  140.2100   71.4140  224.7470 N   0  0  0  0  0  0  0  0  0  0  0  0
  141.2260   73.0520  223.0760 H   0  0  0  0  0  0  0  0  0  0  0  0
  141.4255   73.8352  220.7076 H   0  0  0  0  0  0  0  0  0  0  0  0
  139.5996   73.5462  220.5918 H   0  0  0  0  0  0  0  0  0  0  0  0
  139.6653   76.4474  218.7132 H   0  0  0  0  0  0  0  0  0  0  0  0
  139.2138   77.8193  219.5286 H   0  0  0  0  0  0  0  0  0  0  0  0
  142.1386   76.8358  218.8050 H   0  0  0  0  0  0  0  0  0  0  0  0
  141.7901   78.4399  218.7856 H   0  0  0  0  0  0  0  0  0  0  0  0
  142.4680   77.2688  221.3615 H   0  0  0  0  0  0  0  0  0  0  0  0
  140.0037   78.8164  221.5055 H   0  0  0  0  0  0  0  0  0  0  0  0
  142.8529   79.7279  221.0050 H   0  0  0  0  0  0  0  0  0  0  0  0
  141.3899   80.0588  220.0018 H   0  0  0  0  0  0  0  0  0  0  0  0
  141.8897   82.0017  221.3933 H   0  0  0  0  0  0  0  0  0  0  0  0
  140.3713   81.2511  221.9459 H   0  0  0  0  0  0  0  0  0  0  0  0
  143.1457   80.6278  223.1324 H   0  0  0  0  0  0  0  0  0  0  0  0
  142.0152   81.7862  223.8546 H   0  0  0  0  0  0  0  0  0  0  0  0
  141.7345   79.5423  224.8566 H   0  0  0  0  0  0  0  0  0  0  0  0
  140.2638   80.0117  223.9028 H   0  0  0  0  0  0  0  0  0  0  0  0
  142.4808   78.1131  223.0883 H   0  0  0  0  0  0  0  0  0  0  0  0
  140.7269   77.7483  223.4447 H   0  0  0  0  0  0  0  0  0  0  0  0
  138.6039   69.4094  222.6441 H   0  0  0  0  0  0  0  0  0  0  0  0
  138.7804   67.8852  224.5941 H   0  0  0  0  0  0  0  0  0  0  0  0
  139.5232   67.4767  226.8952 H   0  0  0  0  0  0  0  0  0  0  0  0
  141.5760   70.6368  228.9958 H   0  0  0  0  0  0  0  0  0  0  0  0
  141.3522   72.0860  226.9898 H   0  0  0  0  0  0  0  0  0  0  0  0
  1  2  2  0
  2  3  1  0
  3  4  1  0
  4  5  1  0
  5  6  2  0
  5  7  1  0
  7  8  1  0
  8  9  1  0
  9 10  1  0
 10 11  1  0
 11 12  1  0
 12 13  1  0
 13 14  1  0
 14 15  1  0
 15 16  1  0
  2 17  1  0
 17 18  2  0
 18 19  1  0
 19 20  2  0
 20 21  1  0
 21 22  2  0
 22 23  1  0
 22 24  1  0
 24 25  2  0
 25 26  1  0
 26 27  2  0
 10  7  1  0
 16 11  1  0
 27 17  1  0
 26 20  1  0
  3 28  1  0
  4 29  1  0
  4 30  1  0
  8 31  1  0
  8 32  1  0
  9 33  1  0
  9 34  1  0
 10 35  1  1
 11 36  1  0
 12 37  1  0
 12 38  1  0
 13 39  1  0
 13 40  1  0
 14 41  1  0
 14 42  1  0
 15 43  1  0
 15 44  1  0
 16 45  1  0
 16 46  1  0
 18 47  1  0
 19 48  1  0
 21 49  1  0
 24 50  1  0
 25 51  1  0
M  END
>  <smiles>  (76) 
O=C(NCC(=O)N1CCC1C1CCCCC1)c1ccc2cc(F)ccc2n1

>  <score_type>  (76) 
oracle

>  <origin>  (76) 
autodockgpu

>  <m_score__min__energy>  (76) 
-8.6799999999999997

>  <m_primary>  (76) 
energy

>  <rmsd>  (76) 
2.4759615106763904

>  <m_score__min__rmsd>  (76) 
2.4759615106763904

>  <meeko>  (76) 
{"free_energy": -8.06, "intermolecular_energy": -9.55, "internal_energy": -1.31, "cluster_size": 39, "cluster_id": 1, "rank_in_cluster": 32}

>  <energy>  (76) 
-8.27

>  <cluster_rmsd>  (76) 
0.93

>  <cluster>  (76) 
1

$$$$

     RDKit          3D

 51 54  0  0  0  0  0  0  0  0999 V2000
  140.2450   71.2550  221.1150 O   0  0  0  0  0  0  0  0  0  0  0  0
  140.0000   71.7770  222.2140 C   0  0  0  0  0  0  0  0  0  0  0  0
  139.7680   73.1760  222.4070 N   0  0  0  0  0  0  0  0  0  0  0  0
  139.8190   74.0800  221.2880 C   0  0  0  0  0  0  0  0  0  0  0  0
  139.8130   75.5050  221.5970 C   0  0  0  0  0  0  0  0  0  0  0  0
  139.3080   75.8200  222.7440 O   0  0  0  0  0  0  0  0  0  0  0  0
  140.2980   76.5550  220.7850 N   0  0  0  0  0  0  0  0  0  0  0  0
  140.0410   77.2410  219.5360 C   0  0  0  0  0  0  0  0  0  0  0  0
  141.5310   77.5240  219.4730 C   0  0  0  0  0  0  0  0  0  0  0  0
  141.4340   77.4820  220.9570 C   0  0  1  0  0  0  0  0  0  0  0  0
  141.0750   78.7800  221.6410 C   0  0  0  0  0  0  0  0  0  0  0  0
  141.8420   79.9190  221.0150 C   0  0  0  0  0  0  0  0  0  0  0  0
  141.6050   81.1980  221.7750 C   0  0  0  0  0  0  0  0  0  0  0  0
  142.1870   81.0150  223.1710 C   0  0  0  0  0  0  0  0  0  0  0  0
  141.3460   79.9590  223.8400 C   0  0  0  0  0  0  0  0  0  0  0  0
  141.3900   78.6480  223.0940 C   0  0  0  0  0  0  0  0  0  0  0  0
  139.9430   70.9120  223.4100 C   0  0  0  0  0  0  0  0  0  0  0  0
  139.3370   69.6800  223.3620 C   0  0  0  0  0  0  0  0  0  0  0  0
  139.2780   68.8580  224.4850 C   0  0  0  0  0  0  0  0  0  0  0  0
  139.8350   69.2730  225.6840 C   0  0  0  0  0  0  0  0  0  0  0  0
  139.7940   68.4810  226.8220 C   0  0  0  0  0  0  0  0  0  0  0  0
  140.3620   68.9280  228.0050 C   0  0  0  0  0  0  0  0  0  0  0  0
  140.3250   68.1580  229.1210 F   0  0  0  0  0  0  0  0  0  0  0  0
  140.9720   70.1870  228.0280 C   0  0  0  0  0  0  0  0  0  0  0  0
  141.0000   70.9640  226.8700 C   0  0  0  0  0  0  0  0  0  0  0  0
  140.4330   70.5180  225.6890 C   0  0  0  0  0  0  0  0  0  0  0  0
  140.4740   71.2880  224.5870 N   0  0  0  0  0  0  0  0  0  0  0  0
  139.5580   73.5200  223.3870 H   0  0  0  0  0  0  0  0  0  0  0  0
  140.7403   73.8644  220.7269 H   0  0  0  0  0  0  0  0  0  0  0  0
  138.8885   73.9013  220.7292 H   0  0  0  0  0  0  0  0  0  0  0  0
  139.6600   76.5989  218.7282 H   0  0  0  0  0  0  0  0  0  0  0  0
  139.2926   78.0432  219.4561 H   0  0  0  0  0  0  0  0  0  0  0  0
  142.1441   76.7331  219.0162 H   0  0  0  0  0  0  0  0  0  0  0  0
  141.9706   78.3625  218.9129 H   0  0  0  0  0  0  0  0  0  0  0  0
  142.3123   77.2399  221.5734 H   0  0  0  0  0  0  0  0  0  0  0  0
  140.0030   78.9962  221.5225 H   0  0  0  0  0  0  0  0  0  0  0  0
  142.9163   79.6831  221.0302 H   0  0  0  0  0  0  0  0  0  0  0  0
  141.4967   80.0525  219.9792 H   0  0  0  0  0  0  0  0  0  0  0  0
  142.1050   82.0354  221.2663 H   0  0  0  0  0  0  0  0  0  0  0  0
  140.5296   81.4229  221.8297 H   0  0  0  0  0  0  0  0  0  0  0  0
  143.2344   80.6851  223.1076 H   0  0  0  0  0  0  0  0  0  0  0  0
  142.1741   81.9574  223.7381 H   0  0  0  0  0  0  0  0  0  0  0  0
  141.7217   79.7996  224.8615 H   0  0  0  0  0  0  0  0  0  0  0  0
  140.3036   80.3100  223.8510 H   0  0  0  0  0  0  0  0  0  0  0  0
  142.3999   78.2238  223.1944 H   0  0  0  0  0  0  0  0  0  0  0  0
  140.6195   77.9984  223.5348 H   0  0  0  0  0  0  0  0  0  0  0  0
  138.8895   69.3358  222.4179 H   0  0  0  0  0  0  0  0  0  0  0  0
  138.7873   67.8757  224.4198 H   0  0  0  0  0  0  0  0  0  0  0  0
  139.3089   67.4944  226.7857 H   0  0  0  0  0  0  0  0  0  0  0  0
  141.4278   70.5627  228.9560 H   0  0  0  0  0  0  0  0  0  0  0  0
  141.4829   71.9520  226.8960 H   0  0  0  0  0  0  0  0  0  0  0  0
  1  2  2  0
  2  3  1  0
  3  4  1  0
  4  5  1  0
  5  6  2  0
  5  7  1  0
  7  8  1  0
  8  9  1  0
  9 10  1  0
 10 11  1  0
 11 12  1  0
 12 13  1  0
 13 14  1  0
 14 15  1  0
 15 16  1  0
  2 17  1  0
 17 18  2  0
 18 19  1  0
 19 20  2  0
 20 21  1  0
 21 22  2  0
 22 23  1  0
 22 24  1  0
 24 25  2  0
 25 26  1  0
 26 27  2  0
 10  7  1  0
 16 11  1  0
 27 17  1  0
 26 20  1  0
  3 28  1  0
  4 29  1  0
  4 30  1  0
  8 31  1  0
  8 32  1  0
  9 33  1  0
  9 34  1  0
 10 35  1  1
 11 36  1  0
 12 37  1  0
 12 38  1  0
 13 39  1  0
 13 40  1  0
 14 41  1  0
 14 42  1  0
 15 43  1  0
 15 44  1  0
 16 45  1  0
 16 46  1  0
 18 47  1  0
 19 48  1  0
 21 49  1  0
 24 50  1  0
 25 51  1  0
M  END
>  <smiles>  (77) 
O=C(NCC(=O)N1CCC1C1CCCCC1)c1ccc2cc(F)ccc2n1

>  <score_type>  (77) 
oracle

>  <origin>  (77) 
autodockgpu

>  <m_score__min__energy>  (77) 
-8.6799999999999997

>  <m_primary>  (77) 
energy

>  <rmsd>  (77) 
2.42730057170003

>  <m_score__min__rmsd>  (77) 
2.42730057170003

>  <meeko>  (77) 
{"free_energy": -8.38, "intermolecular_energy": -9.88, "internal_energy": -1.5, "cluster_size": 39, "cluster_id": 1, "rank_in_cluster": 15}

>  <energy>  (77) 
-8.26

>  <cluster_rmsd>  (77) 
0.96

>  <cluster>  (77) 
1

$$$$

     RDKit          3D

 51 54  0  0  0  0  0  0  0  0999 V2000
  141.3160   72.6140  222.0140 O   0  0  0  0  0  0  0  0  0  0  0  0
  140.2400   72.5190  222.6250 C   0  0  0  0  0  0  0  0  0  0  0  0
  139.0790   73.3070  222.3410 N   0  0  0  0  0  0  0  0  0  0  0  0
  139.1130   74.2940  221.2950 C   0  0  0  0  0  0  0  0  0  0  0  0
  140.0920   75.3650  221.4370 C   0  0  0  0  0  0  0  0  0  0  0  0
  139.8840   76.1760  222.4210 O   0  0  0  0  0  0  0  0  0  0  0  0
  141.2260   75.5980  220.6260 N   0  0  0  0  0  0  0  0  0  0  0  0
  142.1420   76.6440  220.2240 C   0  0  0  0  0  0  0  0  0  0  0  0
  142.3060   75.8920  218.9150 C   0  0  0  0  0  0  0  0  0  0  0  0
  142.0090   74.7000  219.7560 C   0  0  1  0  0  0  0  0  0  0  0  0
  143.1900   74.0510  220.4380 C   0  0  0  0  0  0  0  0  0  0  0  0
  144.4470   74.8330  220.1430 C   0  0  0  0  0  0  0  0  0  0  0  0
  145.6540   74.1230  220.6980 C   0  0  0  0  0  0  0  0  0  0  0  0
  145.7930   72.8040  219.9490 C   0  0  0  0  0  0  0  0  0  0  0  0
  144.5960   71.9740  220.3350 C   0  0  0  0  0  0  0  0  0  0  0  0
  143.2990   72.6440  219.9510 C   0  0  0  0  0  0  0  0  0  0  0  0
  140.1350   71.5340  223.7220 C   0  0  0  0  0  0  0  0  0  0  0  0
  139.5140   70.3240  223.5270 C   0  0  0  0  0  0  0  0  0  0  0  0
  139.4090   69.3900  224.5550 C   0  0  0  0  0  0  0  0  0  0  0  0
  139.9340   69.6680  225.8060 C   0  0  0  0  0  0  0  0  0  0  0  0
  139.8480   68.7610  226.8530 C   0  0  0  0  0  0  0  0  0  0  0  0
  140.3860   69.0720  228.0920 C   0  0  0  0  0  0  0  0  0  0  0  0
  140.3040   68.1900  229.1190 F   0  0  0  0  0  0  0  0  0  0  0  0
  141.0120   70.3110  228.2650 C   0  0  0  0  0  0  0  0  0  0  0  0
  141.0860   71.2050  227.1970 C   0  0  0  0  0  0  0  0  0  0  0  0
  140.5500   70.8940  225.9600 C   0  0  0  0  0  0  0  0  0  0  0  0
  140.6340   71.7750  224.9460 N   0  0  0  0  0  0  0  0  0  0  0  0
  138.2060   73.1410  222.9180 H   0  0  0  0  0  0  0  0  0  0  0  0
  139.3251   73.7716  220.3505 H   0  0  0  0  0  0  0  0  0  0  0  0
  138.1326   74.7913  221.3348 H   0  0  0  0  0  0  0  0  0  0  0  0
  141.6881   77.6414  220.1280 H   0  0  0  0  0  0  0  0  0  0  0  0
  143.0054   76.9306  220.8424 H   0  0  0  0  0  0  0  0  0  0  0  0
  141.5603   76.1224  218.1399 H   0  0  0  0  0  0  0  0  0  0  0  0
  143.1905   75.9782  218.2667 H   0  0  0  0  0  0  0  0  0  0  0  0
  141.5885   73.7859  219.3115 H   0  0  0  0  0  0  0  0  0  0  0  0
  143.0512   74.0451  221.5292 H   0  0  0  0  0  0  0  0  0  0  0  0
  144.5593   74.9401  219.0540 H   0  0  0  0  0  0  0  0  0  0  0  0
  144.3686   75.8230  220.6159 H   0  0  0  0  0  0  0  0  0  0  0  0
  146.5538   74.7375  220.5469 H   0  0  0  0  0  0  0  0  0  0  0  0
  145.5372   73.9456  221.7773 H   0  0  0  0  0  0  0  0  0  0  0  0
  145.8005   72.9808  218.8633 H   0  0  0  0  0  0  0  0  0  0  0  0
  146.7337   72.2946  220.2049 H   0  0  0  0  0  0  0  0  0  0  0  0
  144.6584   71.0013  219.8251 H   0  0  0  0  0  0  0  0  0  0  0  0
  144.6052   71.8501  221.4280 H   0  0  0  0  0  0  0  0  0  0  0  0
  143.2204   72.6480  218.8538 H   0  0  0  0  0  0  0  0  0  0  0  0
  142.4867   72.0732  220.4247 H   0  0  0  0  0  0  0  0  0  0  0  0
  139.0913   70.0881  222.5392 H   0  0  0  0  0  0  0  0  0  0  0  0
  138.9073   68.4282  224.3725 H   0  0  0  0  0  0  0  0  0  0  0  0
  139.3511   67.7918  226.6990 H   0  0  0  0  0  0  0  0  0  0  0  0
  141.4445   70.5793  229.2402 H   0  0  0  0  0  0  0  0  0  0  0  0
  141.5805   72.1770  227.3411 H   0  0  0  0  0  0  0  0  0  0  0  0
  1  2  2  0
  2  3  1  0
  3  4  1  0
  4  5  1  0
  5  6  2  0
  5  7  1  0
  7  8  1  0
  8  9  1  0
  9 10  1  0
 10 11  1  0
 11 12  1  0
 12 13  1  0
 13 14  1  0
 14 15  1  0
 15 16  1  0
  2 17  1  0
 17 18  2  0
 18 19  1  0
 19 20  2  0
 20 21  1  0
 21 22  2  0
 22 23  1  0
 22 24  1  0
 24 25  2  0
 25 26  1  0
 26 27  2  0
 10  7  1  0
 16 11  1  0
 27 17  1  0
 26 20  1  0
  3 28  1  0
  4 29  1  0
  4 30  1  0
  8 31  1  0
  8 32  1  0
  9 33  1  0
  9 34  1  0
 10 35  1  6
 11 36  1  0
 12 37  1  0
 12 38  1  0
 13 39  1  0
 13 40  1  0
 14 41  1  0
 14 42  1  0
 15 43  1  0
 15 44  1  0
 16 45  1  0
 16 46  1  0
 18 47  1  0
 19 48  1  0
 21 49  1  0
 24 50  1  0
 25 51  1  0
M  END
>  <smiles>  (78) 
O=C(NCC(=O)N1CCC1C1CCCCC1)c1ccc2cc(F)ccc2n1

>  <score_type>  (78) 
oracle

>  <origin>  (78) 
autodockgpu

>  <m_score__min__energy>  (78) 
-8.6799999999999997

>  <m_primary>  (78) 
energy

>  <rmsd>  (78) 
2.6533649711727074

>  <m_score__min__rmsd>  (78) 
2.6533649711727074

>  <meeko>  (78) 
{"free_energy": -8.15, "intermolecular_energy": -9.64, "internal_energy": -1.17, "cluster_size": 2, "cluster_id": 3, "rank_in_cluster": 1}

>  <energy>  (78) 
-8.25

>  <cluster_rmsd>  (78) 
0.74

>  <cluster>  (78) 
1

$$$$

     RDKit          3D

 51 54  0  0  0  0  0  0  0  0999 V2000
  140.9790   72.1900  221.4300 O   0  0  0  0  0  0  0  0  0  0  0  0
  140.1530   72.4810  222.3100 C   0  0  0  0  0  0  0  0  0  0  0  0
  139.3110   73.6380  222.2740 N   0  0  0  0  0  0  0  0  0  0  0  0
  139.3940   74.5590  221.1710 C   0  0  0  0  0  0  0  0  0  0  0  0
  140.5020   75.5080  221.1940 C   0  0  0  0  0  0  0  0  0  0  0  0
  141.4870   75.1890  221.9680 O   0  0  0  0  0  0  0  0  0  0  0  0
  140.6060   76.7140  220.4650 N   0  0  0  0  0  0  0  0  0  0  0  0
  139.9580   77.4680  219.4130 C   0  0  0  0  0  0  0  0  0  0  0  0
  141.3250   78.0410  219.0860 C   0  0  0  0  0  0  0  0  0  0  0  0
  141.5810   77.8200  220.5350 C   0  0  1  0  0  0  0  0  0  0  0  0
  141.1800   78.9410  221.4640 C   0  0  0  0  0  0  0  0  0  0  0  0
  142.1850   80.0650  221.3770 C   0  0  0  0  0  0  0  0  0  0  0  0
  141.8790   81.1290  222.3980 C   0  0  0  0  0  0  0  0  0  0  0  0
  142.0620   80.5060  223.7760 C   0  0  0  0  0  0  0  0  0  0  0  0
  140.9830   79.4630  223.9110 C   0  0  0  0  0  0  0  0  0  0  0  0
  141.0960   78.3950  222.8500 C   0  0  0  0  0  0  0  0  0  0  0  0
  140.0210   71.5870  223.4790 C   0  0  0  0  0  0  0  0  0  0  0  0
  139.3190   70.4090  223.3900 C   0  0  0  0  0  0  0  0  0  0  0  0
  139.1880   69.5600  224.4870 C   0  0  0  0  0  0  0  0  0  0  0  0
  139.7680   69.8930  225.7000 C   0  0  0  0  0  0  0  0  0  0  0  0
  139.6580   69.0720  226.8130 C   0  0  0  0  0  0  0  0  0  0  0  0
  140.2520   69.4360  228.0110 C   0  0  0  0  0  0  0  0  0  0  0  0
  140.1470   68.6380  229.1030 F   0  0  0  0  0  0  0  0  0  0  0  0
  140.9600   70.6420  228.0760 C   0  0  0  0  0  0  0  0  0  0  0  0
  141.0560   71.4490  226.9420 C   0  0  0  0  0  0  0  0  0  0  0  0
  140.4640   71.0860  225.7460 C   0  0  0  0  0  0  0  0  0  0  0  0
  140.5720   71.8840  224.6690 N   0  0  0  0  0  0  0  0  0  0  0  0
  138.6320   73.7920  223.0730 H   0  0  0  0  0  0  0  0  0  0  0  0
  139.4807   73.9671  220.2479 H   0  0  0  0  0  0  0  0  0  0  0  0
  138.4843   75.1738  221.2376 H   0  0  0  0  0  0  0  0  0  0  0  0
  139.5129   76.8555  218.6150 H   0  0  0  0  0  0  0  0  0  0  0  0
  139.0889   78.1129  219.6101 H   0  0  0  0  0  0  0  0  0  0  0  0
  141.9387   77.4390  218.3997 H   0  0  0  0  0  0  0  0  0  0  0  0
  141.4782   79.0047  218.5783 H   0  0  0  0  0  0  0  0  0  0  0  0
  142.6053   77.6880  220.9138 H   0  0  0  0  0  0  0  0  0  0  0  0
  140.1996   79.3490  221.1769 H   0  0  0  0  0  0  0  0  0  0  0  0
  143.1925   79.6645  221.5629 H   0  0  0  0  0  0  0  0  0  0  0  0
  142.1325   80.5111  220.3729 H   0  0  0  0  0  0  0  0  0  0  0  0
  142.5682   81.9774  222.2747 H   0  0  0  0  0  0  0  0  0  0  0  0
  140.8514   81.5014  222.2741 H   0  0  0  0  0  0  0  0  0  0  0  0
  143.0552   80.0399  223.8552 H   0  0  0  0  0  0  0  0  0  0  0  0
  141.9906   81.2626  224.5713 H   0  0  0  0  0  0  0  0  0  0  0  0
  141.0667   78.9909  224.9010 H   0  0  0  0  0  0  0  0  0  0  0  0
  140.0100   79.9617  223.7902 H   0  0  0  0  0  0  0  0  0  0  0  0
  142.0020   77.8030  223.0467 H   0  0  0  0  0  0  0  0  0  0  0  0
  140.1810   77.7868  222.9038 H   0  0  0  0  0  0  0  0  0  0  0  0
  138.8513   70.1309  222.4340 H   0  0  0  0  0  0  0  0  0  0  0  0
  138.6219   68.6219  224.3894 H   0  0  0  0  0  0  0  0  0  0  0  0
  139.0970   68.1283  226.7443 H   0  0  0  0  0  0  0  0  0  0  0  0
  141.4384   70.9519  229.0168 H   0  0  0  0  0  0  0  0  0  0  0  0
  141.6148   72.3947  227.0005 H   0  0  0  0  0  0  0  0  0  0  0  0
  1  2  2  0
  2  3  1  0
  3  4  1  0
  4  5  1  0
  5  6  2  0
  5  7  1  0
  7  8  1  0
  8  9  1  0
  9 10  1  0
 10 11  1  0
 11 12  1  0
 12 13  1  0
 13 14  1  0
 14 15  1  0
 15 16  1  0
  2 17  1  0
 17 18  2  0
 18 19  1  0
 19 20  2  0
 20 21  1  0
 21 22  2  0
 22 23  1  0
 22 24  1  0
 24 25  2  0
 25 26  1  0
 26 27  2  0
 10  7  1  0
 16 11  1  0
 27 17  1  0
 26 20  1  0
  3 28  1  0
  4 29  1  0
  4 30  1  0
  8 31  1  0
  8 32  1  0
  9 33  1  0
  9 34  1  0
 10 35  1  6
 11 36  1  0
 12 37  1  0
 12 38  1  0
 13 39  1  0
 13 40  1  0
 14 41  1  0
 14 42  1  0
 15 43  1  0
 15 44  1  0
 16 45  1  0
 16 46  1  0
 18 47  1  0
 19 48  1  0
 21 49  1  0
 24 50  1  0
 25 51  1  0
M  END
>  <smiles>  (79) 
O=C(NCC(=O)N1CCC1C1CCCCC1)c1ccc2cc(F)ccc2n1

>  <score_type>  (79) 
oracle

>  <origin>  (79) 
autodockgpu

>  <m_score__min__energy>  (79) 
-8.6799999999999997

>  <m_primary>  (79) 
energy

>  <rmsd>  (79) 
2.576674894047514

>  <m_score__min__rmsd>  (79) 
2.576674894047514

>  <meeko>  (79) 
{"free_energy": -8.6, "intermolecular_energy": -10.09, "internal_energy": -1.1, "cluster_size": 39, "cluster_id": 1, "rank_in_cluster": 3}

>  <energy>  (79) 
-8.19

>  <cluster_rmsd>  (79) 
0.6

>  <cluster>  (79) 
1

$$$$

     RDKit          3D

 51 54  0  0  0  0  0  0  0  0999 V2000
  138.3880   71.2440  221.4790 O   0  0  0  0  0  0  0  0  0  0  0  0
  138.9930   71.7070  222.4590 C   0  0  0  0  0  0  0  0  0  0  0  0
  139.4460   73.0620  222.5600 N   0  0  0  0  0  0  0  0  0  0  0  0
  139.2180   73.9830  221.4790 C   0  0  0  0  0  0  0  0  0  0  0  0
  139.9750   75.2290  221.5090 C   0  0  0  0  0  0  0  0  0  0  0  0
  141.1740   75.1350  221.9830 O   0  0  0  0  0  0  0  0  0  0  0  0
  139.5410   76.5020  221.0770 N   0  0  0  0  0  0  0  0  0  0  0  0
  138.3420   77.2460  220.7520 C   0  0  0  0  0  0  0  0  0  0  0  0
  139.1940   78.0530  219.7900 C   0  0  0  0  0  0  0  0  0  0  0  0
  140.2860   77.7330  220.7500 C   0  0  1  0  0  0  0  0  0  0  0  0
  140.4540   78.6830  221.9120 C   0  0  0  0  0  0  0  0  0  0  0  0
  141.0390   79.9880  221.4290 C   0  0  0  0  0  0  0  0  0  0  0  0
  141.3440   80.8940  222.5930 C   0  0  0  0  0  0  0  0  0  0  0  0
  142.4340   80.2250  223.4210 C   0  0  0  0  0  0  0  0  0  0  0  0
  141.8140   78.9800  224.0010 C   0  0  0  0  0  0  0  0  0  0  0  0
  141.3370   78.0340  222.9250 C   0  0  0  0  0  0  0  0  0  0  0  0
  139.2740   70.8150  223.6020 C   0  0  0  0  0  0  0  0  0  0  0  0
  138.9290   69.4860  223.5610 C   0  0  0  0  0  0  0  0  0  0  0  0
  139.1890   68.6370  224.6350 C   0  0  0  0  0  0  0  0  0  0  0  0
  139.8060   69.1240  225.7750 C   0  0  0  0  0  0  0  0  0  0  0  0
  140.0810   68.3070  226.8630 C   0  0  0  0  0  0  0  0  0  0  0  0
  140.7000   68.8280  227.9890 C   0  0  0  0  0  0  0  0  0  0  0  0
  140.9710   68.0360  229.0550 F   0  0  0  0  0  0  0  0  0  0  0  0
  141.0410   70.1850  228.0050 C   0  0  0  0  0  0  0  0  0  0  0  0
  140.7540   70.9840  226.8990 C   0  0  0  0  0  0  0  0  0  0  0  0
  140.1360   70.4650  225.7750 C   0  0  0  0  0  0  0  0  0  0  0  0
  139.8710   71.2590  224.7220 N   0  0  0  0  0  0  0  0  0  0  0  0
  139.9470   73.3600  223.4450 H   0  0  0  0  0  0  0  0  0  0  0  0
  139.4668   73.4644  220.5413 H   0  0  0  0  0  0  0  0  0  0  0  0
  138.1639   74.2831  221.5726 H   0  0  0  0  0  0  0  0  0  0  0  0
  137.5473   76.6527  220.2761 H   0  0  0  0  0  0  0  0  0  0  0  0
  137.7275   77.7262  221.5278 H   0  0  0  0  0  0  0  0  0  0  0  0
  139.3075   77.6237  218.7836 H   0  0  0  0  0  0  0  0  0  0  0  0
  138.9469   79.0739  219.4633 H   0  0  0  0  0  0  0  0  0  0  0  0
  141.3375   77.7239  220.4271 H   0  0  0  0  0  0  0  0  0  0  0  0
  139.4804   78.9066  222.3725 H   0  0  0  0  0  0  0  0  0  0  0  0
  141.9677   79.7852  220.8754 H   0  0  0  0  0  0  0  0  0  0  0  0
  140.3074   80.4846  220.7747 H   0  0  0  0  0  0  0  0  0  0  0  0
  141.6959   81.8699  222.2272 H   0  0  0  0  0  0  0  0  0  0  0  0
  140.4426   81.0601  223.2011 H   0  0  0  0  0  0  0  0  0  0  0  0
  143.2912   79.9630  222.7833 H   0  0  0  0  0  0  0  0  0  0  0  0
  142.8060   80.8940  224.2110 H   0  0  0  0  0  0  0  0  0  0  0  0
  142.5632   78.4652  224.6204 H   0  0  0  0  0  0  0  0  0  0  0  0
  140.9424   79.2811  224.6007 H   0  0  0  0  0  0  0  0  0  0  0  0
  142.2164   77.6225  222.4080 H   0  0  0  0  0  0  0  0  0  0  0  0
  140.7419   77.2529  223.4208 H   0  0  0  0  0  0  0  0  0  0  0  0
  138.4378   69.0840  222.6626 H   0  0  0  0  0  0  0  0  0  0  0  0
  138.9031   67.5764  224.5770 H   0  0  0  0  0  0  0  0  0  0  0  0
  139.8068   67.2422  226.8318 H   0  0  0  0  0  0  0  0  0  0  0  0
  141.5338   70.6199  228.8871 H   0  0  0  0  0  0  0  0  0  0  0  0
  141.0247   72.0500  226.9204 H   0  0  0  0  0  0  0  0  0  0  0  0
  1  2  2  0
  2  3  1  0
  3  4  1  0
  4  5  1  0
  5  6  2  0
  5  7  1  0
  7  8  1  0
  8  9  1  0
  9 10  1  0
 10 11  1  0
 11 12  1  0
 12 13  1  0
 13 14  1  0
 14 15  1  0
 15 16  1  0
  2 17  1  0
 17 18  2  0
 18 19  1  0
 19 20  2  0
 20 21  1  0
 21 22  2  0
 22 23  1  0
 22 24  1  0
 24 25  2  0
 25 26  1  0
 26 27  2  0
 10  7  1  0
 16 11  1  0
 27 17  1  0
 26 20  1  0
  3 28  1  0
  4 29  1  0
  4 30  1  0
  8 31  1  0
  8 32  1  0
  9 33  1  0
  9 34  1  0
 10 35  1  6
 11 36  1  0
 12 37  1  0
 12 38  1  0
 13 39  1  0
 13 40  1  0
 14 41  1  0
 14 42  1  0
 15 43  1  0
 15 44  1  0
 16 45  1  0
 16 46  1  0
 18 47  1  0
 19 48  1  0
 21 49  1  0
 24 50  1  0
 25 51  1  0
M  END
>  <smiles>  (80) 
O=C(NCC(=O)N1CCC1C1CCCCC1)c1ccc2cc(F)ccc2n1

>  <score_type>  (80) 
oracle

>  <origin>  (80) 
autodockgpu

>  <m_score__min__energy>  (80) 
-8.6799999999999997

>  <m_primary>  (80) 
energy

>  <rmsd>  (80) 
2.5021822240403235

>  <m_score__min__rmsd>  (80) 
2.5021822240403235

>  <meeko>  (80) 
{"free_energy": -7.98, "intermolecular_energy": -9.47, "internal_energy": -1.5, "cluster_size": 39, "cluster_id": 1, "rank_in_cluster": 36}

>  <energy>  (80) 
-8.13

>  <cluster_rmsd>  (80) 
0.66

>  <cluster>  (80) 
1

$$$$

     RDKit          3D

 51 54  0  0  0  0  0  0  0  0999 V2000
  140.9690   73.8320  220.5630 O   0  0  0  0  0  0  0  0  0  0  0  0
  140.4520   74.5810  221.4070 C   0  0  0  0  0  0  0  0  0  0  0  0
  139.4410   74.1730  222.3350 N   0  0  0  0  0  0  0  0  0  0  0  0
  138.9530   72.8190  222.3230 C   0  0  0  0  0  0  0  0  0  0  0  0
  139.7930   71.8150  222.9660 C   0  0  0  0  0  0  0  0  0  0  0  0
  141.0410   72.1290  223.0800 O   0  0  0  0  0  0  0  0  0  0  0  0
  139.3850   70.5590  223.4710 N   0  0  0  0  0  0  0  0  0  0  0  0
  139.1880   69.1820  223.0720 C   0  0  0  0  0  0  0  0  0  0  0  0
  138.1120   69.1060  224.1410 C   0  0  0  0  0  0  0  0  0  0  0  0
  138.9430   70.1400  224.8150 C   0  0  1  0  0  0  0  0  0  0  0  0
  140.0550   69.6320  225.7020 C   0  0  0  0  0  0  0  0  0  0  0  0
  139.7400   68.2310  226.1680 C   0  0  0  0  0  0  0  0  0  0  0  0
  140.7670   67.7610  227.1650 C   0  0  0  0  0  0  0  0  0  0  0  0
  140.6500   68.6510  228.3960 C   0  0  0  0  0  0  0  0  0  0  0  0
  141.0790   70.0280  227.9590 C   0  0  0  0  0  0  0  0  0  0  0  0
  140.2020   70.5670  226.8550 C   0  0  0  0  0  0  0  0  0  0  0  0
  140.8950   75.9890  221.4690 C   0  0  0  0  0  0  0  0  0  0  0  0
  141.6210   76.5470  220.4440 C   0  0  0  0  0  0  0  0  0  0  0  0
  142.0440   77.8730  220.4940 C   0  0  0  0  0  0  0  0  0  0  0  0
  141.7370   78.6620  221.5910 C   0  0  0  0  0  0  0  0  0  0  0  0
  142.1420   79.9860  221.6740 C   0  0  0  0  0  0  0  0  0  0  0  0
  141.8170   80.7470  222.7870 C   0  0  0  0  0  0  0  0  0  0  0  0
  142.2100   82.0420  222.8740 F   0  0  0  0  0  0  0  0  0  0  0  0
  141.0770   80.1560  223.8160 C   0  0  0  0  0  0  0  0  0  0  0  0
  140.6820   78.8230  223.7080 C   0  0  0  0  0  0  0  0  0  0  0  0
  141.0060   78.0630  222.5980 C   0  0  0  0  0  0  0  0  0  0  0  0
  140.6130   76.7790  222.5190 N   0  0  0  0  0  0  0  0  0  0  0  0
  139.0700   74.8890  223.0220 H   0  0  0  0  0  0  0  0  0  0  0  0
  137.9770   72.8118  222.8304 H   0  0  0  0  0  0  0  0  0  0  0  0
  138.9206   72.5325  221.2615 H   0  0  0  0  0  0  0  0  0  0  0  0
  138.8241   69.0488  222.0425 H   0  0  0  0  0  0  0  0  0  0  0  0
  140.0198   68.4633  223.0317 H   0  0  0  0  0  0  0  0  0  0  0  0
  137.1098   69.4341  223.8282 H   0  0  0  0  0  0  0  0  0  0  0  0
  137.7925   68.1695  224.6216 H   0  0  0  0  0  0  0  0  0  0  0  0
  138.4976   70.8374  225.5397 H   0  0  0  0  0  0  0  0  0  0  0  0
  141.0042   69.5926  225.1475 H   0  0  0  0  0  0  0  0  0  0  0  0
  138.7467   68.2218  226.6404 H   0  0  0  0  0  0  0  0  0  0  0  0
  139.7541   67.5564  225.2992 H   0  0  0  0  0  0  0  0  0  0  0  0
  140.5728   66.7135  227.4389 H   0  0  0  0  0  0  0  0  0  0  0  0
  141.7787   67.8217  226.7374 H   0  0  0  0  0  0  0  0  0  0  0  0
  139.6104   68.6711  228.7550 H   0  0  0  0  0  0  0  0  0  0  0  0
  141.2744   68.2788  229.2216 H   0  0  0  0  0  0  0  0  0  0  0  0
  141.0233   70.7083  228.8216 H   0  0  0  0  0  0  0  0  0  0  0  0
  142.1072   69.9586  227.5744 H   0  0  0  0  0  0  0  0  0  0  0  0
  139.2033   70.7676  227.2702 H   0  0  0  0  0  0  0  0  0  0  0  0
  140.6857   71.4782  226.4731 H   0  0  0  0  0  0  0  0  0  0  0  0
  141.8731   75.9338  219.5663 H   0  0  0  0  0  0  0  0  0  0  0  0
  142.6237   78.2953  219.6600 H   0  0  0  0  0  0  0  0  0  0  0  0
  142.7229   80.4339  220.8543 H   0  0  0  0  0  0  0  0  0  0  0  0
  140.8073   80.7408  224.7078 H   0  0  0  0  0  0  0  0  0  0  0  0
  140.1006   78.3660  224.5224 H   0  0  0  0  0  0  0  0  0  0  0  0
  1  2  2  0
  2  3  1  0
  3  4  1  0
  4  5  1  0
  5  6  2  0
  5  7  1  0
  7  8  1  0
  8  9  1  0
  9 10  1  0
 10 11  1  0
 11 12  1  0
 12 13  1  0
 13 14  1  0
 14 15  1  0
 15 16  1  0
  2 17  1  0
 17 18  2  0
 18 19  1  0
 19 20  2  0
 20 21  1  0
 21 22  2  0
 22 23  1  0
 22 24  1  0
 24 25  2  0
 25 26  1  0
 26 27  2  0
 10  7  1  0
 16 11  1  0
 27 17  1  0
 26 20  1  0
  3 28  1  0
  4 29  1  0
  4 30  1  0
  8 31  1  0
  8 32  1  0
  9 33  1  0
  9 34  1  0
 10 35  1  1
 11 36  1  0
 12 37  1  0
 12 38  1  0
 13 39  1  0
 13 40  1  0
 14 41  1  0
 14 42  1  0
 15 43  1  0
 15 44  1  0
 16 45  1  0
 16 46  1  0
 18 47  1  0
 19 48  1  0
 21 49  1  0
 24 50  1  0
 25 51  1  0
M  END
>  <smiles>  (81) 
O=C(NCC(=O)N1CCC1C1CCCCC1)c1ccc2cc(F)ccc2n1

>  <score_type>  (81) 
oracle

>  <origin>  (81) 
autodockgpu

>  <m_score__min__energy>  (81) 
-8.6799999999999997

>  <m_primary>  (81) 
energy

>  <rmsd>  (81) 
8.849129411038264

>  <m_score__min__rmsd>  (81) 
8.849129411038264

>  <meeko>  (81) 
{"free_energy": -8.36, "intermolecular_energy": -9.85, "internal_energy": -1.3, "cluster_size": 6, "cluster_id": 2, "rank_in_cluster": 1}

>  <energy>  (81) 
-8.09

>  <cluster_rmsd>  (81) 
0.9

>  <cluster>  (81) 
1

$$$$

     RDKit          3D

 51 54  0  0  0  0  0  0  0  0999 V2000
  139.5220   71.0800  221.1820 O   0  0  0  0  0  0  0  0  0  0  0  0
  139.6550   71.6200  222.2920 C   0  0  0  0  0  0  0  0  0  0  0  0
  139.7460   73.0350  222.4930 N   0  0  0  0  0  0  0  0  0  0  0  0
  139.6940   73.9310  221.3680 C   0  0  0  0  0  0  0  0  0  0  0  0
  139.7570   75.3570  221.6640 C   0  0  0  0  0  0  0  0  0  0  0  0
  139.2520   75.7090  222.8000 O   0  0  0  0  0  0  0  0  0  0  0  0
  140.3060   76.3730  220.8500 N   0  0  0  0  0  0  0  0  0  0  0  0
  140.1220   77.0360  219.5760 C   0  0  0  0  0  0  0  0  0  0  0  0
  141.6210   77.2750  219.5690 C   0  0  0  0  0  0  0  0  0  0  0  0
  141.4610   77.2710  221.0490 C   0  0  1  0  0  0  0  0  0  0  0  0
  141.1130   78.5950  221.6880 C   0  0  0  0  0  0  0  0  0  0  0  0
  141.8730   79.7080  221.0090 C   0  0  0  0  0  0  0  0  0  0  0  0
  141.6470   81.0150  221.7230 C   0  0  0  0  0  0  0  0  0  0  0  0
  142.2460   80.8840  223.1180 C   0  0  0  0  0  0  0  0  0  0  0  0
  141.4120   79.8560  223.8370 C   0  0  0  0  0  0  0  0  0  0  0  0
  141.4450   78.5170  223.1400 C   0  0  0  0  0  0  0  0  0  0  0  0
  139.7270   70.7620  223.4920 C   0  0  0  0  0  0  0  0  0  0  0  0
  139.2320   69.4800  223.4740 C   0  0  0  0  0  0  0  0  0  0  0  0
  139.2950   68.6640  224.6010 C   0  0  0  0  0  0  0  0  0  0  0  0
  139.8640   69.1360  225.7730 C   0  0  0  0  0  0  0  0  0  0  0  0
  139.9440   68.3510  226.9140 C   0  0  0  0  0  0  0  0  0  0  0  0
  140.5200   68.8550  228.0700 C   0  0  0  0  0  0  0  0  0  0  0  0
  140.6010   68.0920  229.1880 F   0  0  0  0  0  0  0  0  0  0  0  0
  141.0160   70.1630  228.0620 C   0  0  0  0  0  0  0  0  0  0  0  0
  140.9240   70.9310  226.9010 C   0  0  0  0  0  0  0  0  0  0  0  0
  140.3490   70.4280  225.7480 C   0  0  0  0  0  0  0  0  0  0  0  0
  140.2730   71.1920  224.6430 N   0  0  0  0  0  0  0  0  0  0  0  0
  139.8500   73.3960  223.4840 H   0  0  0  0  0  0  0  0  0  0  0  0
  140.5416   73.6893  220.7098 H   0  0  0  0  0  0  0  0  0  0  0  0
  138.7031   73.7725  220.9175 H   0  0  0  0  0  0  0  0  0  0  0  0
  139.7560   76.3858  218.7677 H   0  0  0  0  0  0  0  0  0  0  0  0
  139.4017   77.8572  219.4466 H   0  0  0  0  0  0  0  0  0  0  0  0
  142.2290   76.4564  219.1564 H   0  0  0  0  0  0  0  0  0  0  0  0
  142.1079   78.0870  219.0090 H   0  0  0  0  0  0  0  0  0  0  0  0
  142.3052   77.0184  221.7075 H   0  0  0  0  0  0  0  0  0  0  0  0
  140.0400   78.8094  221.5752 H   0  0  0  0  0  0  0  0  0  0  0  0
  142.9472   79.4712  221.0192 H   0  0  0  0  0  0  0  0  0  0  0  0
  141.5147   79.8025  219.9733 H   0  0  0  0  0  0  0  0  0  0  0  0
  142.1417   81.8318  221.1770 H   0  0  0  0  0  0  0  0  0  0  0  0
  140.5726   81.2434  221.7824 H   0  0  0  0  0  0  0  0  0  0  0  0
  143.2921   80.5499  223.0543 H   0  0  0  0  0  0  0  0  0  0  0  0
  142.2414   81.8474  223.6489 H   0  0  0  0  0  0  0  0  0  0  0  0
  141.8003   79.7346  224.8590 H   0  0  0  0  0  0  0  0  0  0  0  0
  140.3703   80.2091  223.8480 H   0  0  0  0  0  0  0  0  0  0  0  0
  142.4554   78.0948  223.2442 H   0  0  0  0  0  0  0  0  0  0  0  0
  140.6789   77.8859  223.6141 H   0  0  0  0  0  0  0  0  0  0  0  0
  138.7770   69.0907  222.5513 H   0  0  0  0  0  0  0  0  0  0  0  0
  138.8917   67.6414  224.5606 H   0  0  0  0  0  0  0  0  0  0  0  0
  139.5488   67.3245  226.9015 H   0  0  0  0  0  0  0  0  0  0  0  0
  141.4768   70.5843  228.9676 H   0  0  0  0  0  0  0  0  0  0  0  0
  141.3171   71.9584  226.9026 H   0  0  0  0  0  0  0  0  0  0  0  0
  1  2  2  0
  2  3  1  0
  3  4  1  0
  4  5  1  0
  5  6  2  0
  5  7  1  0
  7  8  1  0
  8  9  1  0
  9 10  1  0
 10 11  1  0
 11 12  1  0
 12 13  1  0
 13 14  1  0
 14 15  1  0
 15 16  1  0
  2 17  1  0
 17 18  2  0
 18 19  1  0
 19 20  2  0
 20 21  1  0
 21 22  2  0
 22 23  1  0
 22 24  1  0
 24 25  2  0
 25 26  1  0
 26 27  2  0
 10  7  1  0
 16 11  1  0
 27 17  1  0
 26 20  1  0
  3 28  1  0
  4 29  1  0
  4 30  1  0
  8 31  1  0
  8 32  1  0
  9 33  1  0
  9 34  1  0
 10 35  1  1
 11 36  1  0
 12 37  1  0
 12 38  1  0
 13 39  1  0
 13 40  1  0
 14 41  1  0
 14 42  1  0
 15 43  1  0
 15 44  1  0
 16 45  1  0
 16 46  1  0
 18 47  1  0
 19 48  1  0
 21 49  1  0
 24 50  1  0
 25 51  1  0
M  END
>  <smiles>  (82) 
O=C(NCC(=O)N1CCC1C1CCCCC1)c1ccc2cc(F)ccc2n1

>  <score_type>  (82) 
oracle

>  <origin>  (82) 
autodockgpu

>  <m_score__min__energy>  (82) 
-8.6799999999999997

>  <m_primary>  (82) 
energy

>  <rmsd>  (82) 
2.3486596818994574

>  <m_score__min__rmsd>  (82) 
2.3486596818994574

>  <meeko>  (82) 
{"free_energy": -8.27, "intermolecular_energy": -9.76, "internal_energy": -1.52, "cluster_size": 39, "cluster_id": 1, "rank_in_cluster": 26}

>  <energy>  (82) 
-8.06

>  <cluster_rmsd>  (82) 
1.05

>  <cluster>  (82) 
1

$$$$

     RDKit          3D

 51 54  0  0  0  0  0  0  0  0999 V2000
  141.0240   72.9770  222.1630 O   0  0  0  0  0  0  0  0  0  0  0  0
  139.9590   72.6380  222.7030 C   0  0  0  0  0  0  0  0  0  0  0  0
  138.6750   73.1710  222.3600 N   0  0  0  0  0  0  0  0  0  0  0  0
  138.5600   74.1750  221.3360 C   0  0  0  0  0  0  0  0  0  0  0  0
  138.9950   75.5220  221.6870 C   0  0  0  0  0  0  0  0  0  0  0  0
  138.4440   76.0220  222.7440 O   0  0  0  0  0  0  0  0  0  0  0  0
  139.9420   76.3180  221.0050 N   0  0  0  0  0  0  0  0  0  0  0  0
  140.2210   76.8930  219.7060 C   0  0  0  0  0  0  0  0  0  0  0  0
  141.6940   76.7930  220.0620 C   0  0  0  0  0  0  0  0  0  0  0  0
  141.1960   76.9520  221.4560 C   0  0  1  0  0  0  0  0  0  0  0  0
  141.0300   78.3700  221.9500 C   0  0  0  0  0  0  0  0  0  0  0  0
  141.7770   79.3200  221.0450 C   0  0  0  0  0  0  0  0  0  0  0  0
  141.7400   80.7190  221.6000 C   0  0  0  0  0  0  0  0  0  0  0  0
  142.5010   80.7080  222.9200 C   0  0  0  0  0  0  0  0  0  0  0  0
  141.6930   79.8550  223.8620 C   0  0  0  0  0  0  0  0  0  0  0  0
  141.5380   78.4430  223.3510 C   0  0  0  0  0  0  0  0  0  0  0  0
  140.0010   71.6200  223.7730 C   0  0  0  0  0  0  0  0  0  0  0  0
  139.5470   70.3420  223.5500 C   0  0  0  0  0  0  0  0  0  0  0  0
  139.5820   69.3750  224.5530 C   0  0  0  0  0  0  0  0  0  0  0  0
  140.0810   69.6890  225.8060 C   0  0  0  0  0  0  0  0  0  0  0  0
  140.1310   68.7520  226.8290 C   0  0  0  0  0  0  0  0  0  0  0  0
  140.6370   69.1010  228.0710 C   0  0  0  0  0  0  0  0  0  0  0  0
  140.6880   68.1890  229.0740 F   0  0  0  0  0  0  0  0  0  0  0  0
  141.0930   70.4080  228.2720 C   0  0  0  0  0  0  0  0  0  0  0  0
  141.0310   71.3310  227.2290 C   0  0  0  0  0  0  0  0  0  0  0  0
  140.5270   70.9840  225.9880 C   0  0  0  0  0  0  0  0  0  0  0  0
  140.4790   71.8940  224.9990 N   0  0  0  0  0  0  0  0  0  0  0  0
  137.8250   72.8080  222.8770 H   0  0  0  0  0  0  0  0  0  0  0  0
  139.1609   73.8443  220.4761 H   0  0  0  0  0  0  0  0  0  0  0  0
  137.4817   74.2624  221.1369 H   0  0  0  0  0  0  0  0  0  0  0  0
  139.9109   76.2727  218.8521 H   0  0  0  0  0  0  0  0  0  0  0  0
  139.7648   77.8389  219.3786 H   0  0  0  0  0  0  0  0  0  0  0  0
  142.1711   75.8278  219.8368 H   0  0  0  0  0  0  0  0  0  0  0  0
  142.4754   77.4256  219.6157 H   0  0  0  0  0  0  0  0  0  0  0  0
  141.7793   76.5767  222.3097 H   0  0  0  0  0  0  0  0  0  0  0  0
  139.9696   78.6622  221.9359 H   0  0  0  0  0  0  0  0  0  0  0  0
  142.8235   78.9918  220.9610 H   0  0  0  0  0  0  0  0  0  0  0  0
  141.2973   79.3181  220.0551 H   0  0  0  0  0  0  0  0  0  0  0  0
  142.2192   81.4152  220.8960 H   0  0  0  0  0  0  0  0  0  0  0  0
  140.7016   81.0475  221.7541 H   0  0  0  0  0  0  0  0  0  0  0  0
  143.5031   80.2768  222.7791 H   0  0  0  0  0  0  0  0  0  0  0  0
  142.6348   81.7260  223.3148 H   0  0  0  0  0  0  0  0  0  0  0  0
  142.1989   79.8263  224.8383 H   0  0  0  0  0  0  0  0  0  0  0  0
  140.6900   80.2983  223.9478 H   0  0  0  0  0  0  0  0  0  0  0  0
  142.5196   77.9482  223.3918 H   0  0  0  0  0  0  0  0  0  0  0  0
  140.7940   77.9468  223.9914 H   0  0  0  0  0  0  0  0  0  0  0  0
  139.1479   70.0771  222.5598 H   0  0  0  0  0  0  0  0  0  0  0  0
  139.2122   68.3594  224.3487 H   0  0  0  0  0  0  0  0  0  0  0  0
  139.7676   67.7287  226.6531 H   0  0  0  0  0  0  0  0  0  0  0  0
  141.4992   70.7065  229.2497 H   0  0  0  0  0  0  0  0  0  0  0  0
  141.3905   72.3571  227.3962 H   0  0  0  0  0  0  0  0  0  0  0  0
  1  2  2  0
  2  3  1  0
  3  4  1  0
  4  5  1  0
  5  6  2  0
  5  7  1  0
  7  8  1  0
  8  9  1  0
  9 10  1  0
 10 11  1  0
 11 12  1  0
 12 13  1  0
 13 14  1  0
 14 15  1  0
 15 16  1  0
  2 17  1  0
 17 18  2  0
 18 19  1  0
 19 20  2  0
 20 21  1  0
 21 22  2  0
 22 23  1  0
 22 24  1  0
 24 25  2  0
 25 26  1  0
 26 27  2  0
 10  7  1  0
 16 11  1  0
 27 17  1  0
 26 20  1  0
  3 28  1  0
  4 29  1  0
  4 30  1  0
  8 31  1  0
  8 32  1  0
  9 33  1  0
  9 34  1  0
 10 35  1  1
 11 36  1  0
 12 37  1  0
 12 38  1  0
 13 39  1  0
 13 40  1  0
 14 41  1  0
 14 42  1  0
 15 43  1  0
 15 44  1  0
 16 45  1  0
 16 46  1  0
 18 47  1  0
 19 48  1  0
 21 49  1  0
 24 50  1  0
 25 51  1  0
M  END
>  <smiles>  (83) 
O=C(NCC(=O)N1CCC1C1CCCCC1)c1ccc2cc(F)ccc2n1

>  <score_type>  (83) 
oracle

>  <origin>  (83) 
autodockgpu

>  <m_score__min__energy>  (83) 
-8.6799999999999997

>  <m_primary>  (83) 
energy

>  <rmsd>  (83) 
2.3994055698986867

>  <m_score__min__rmsd>  (83) 
2.3994055698986867

>  <meeko>  (83) 
{"free_energy": -8.52, "intermolecular_energy": -10.01, "internal_energy": -1.12, "cluster_size": 39, "cluster_id": 1, "rank_in_cluster": 6}

>  <energy>  (83) 
-8.03

>  <cluster_rmsd>  (83) 
0.92

>  <cluster>  (83) 
1

$$$$

     RDKit          3D

 51 54  0  0  0  0  0  0  0  0999 V2000
  141.4100   72.2310  221.6040 O   0  0  0  0  0  0  0  0  0  0  0  0
  140.5160   72.5030  222.4210 C   0  0  0  0  0  0  0  0  0  0  0  0
  139.6760   73.6590  222.3430 N   0  0  0  0  0  0  0  0  0  0  0  0
  139.8450   74.6050  221.2710 C   0  0  0  0  0  0  0  0  0  0  0  0
  139.2380   75.9180  221.4550 C   0  0  0  0  0  0  0  0  0  0  0  0
  138.2630   75.9630  222.3010 O   0  0  0  0  0  0  0  0  0  0  0  0
  139.6050   77.1240  220.8150 N   0  0  0  0  0  0  0  0  0  0  0  0
  139.0830   78.1540  219.9430 C   0  0  0  0  0  0  0  0  0  0  0  0
  140.5050   78.3480  219.4470 C   0  0  0  0  0  0  0  0  0  0  0  0
  140.8680   77.8880  220.8150 C   0  0  1  0  0  0  0  0  0  0  0  0
  140.9470   78.9540  221.8810 C   0  0  0  0  0  0  0  0  0  0  0  0
  141.8580   80.0680  221.4270 C   0  0  0  0  0  0  0  0  0  0  0  0
  142.0600   81.0710  222.5320 C   0  0  0  0  0  0  0  0  0  0  0  0
  142.7920   80.3630  223.6650 C   0  0  0  0  0  0  0  0  0  0  0  0
  141.8370   79.3270  224.1980 C   0  0  0  0  0  0  0  0  0  0  0  0
  141.4440   78.3250  223.1400 C   0  0  0  0  0  0  0  0  0  0  0  0
  140.2930   71.5830  223.5560 C   0  0  0  0  0  0  0  0  0  0  0  0
  139.6150   70.4000  223.3830 C   0  0  0  0  0  0  0  0  0  0  0  0
  139.3990   69.5270  224.4470 C   0  0  0  0  0  0  0  0  0  0  0  0
  139.8680   69.8400  225.7120 C   0  0  0  0  0  0  0  0  0  0  0  0
  139.6710   68.9950  226.7950 C   0  0  0  0  0  0  0  0  0  0  0  0
  140.1540   69.3400  228.0470 C   0  0  0  0  0  0  0  0  0  0  0  0
  139.9650   68.5180  229.1090 F   0  0  0  0  0  0  0  0  0  0  0  0
  140.8400   70.5500  228.1970 C   0  0  0  0  0  0  0  0  0  0  0  0
  141.0250   71.3820  227.0930 C   0  0  0  0  0  0  0  0  0  0  0  0
  140.5430   71.0380  225.8430 C   0  0  0  0  0  0  0  0  0  0  0  0
  140.7350   71.8600  224.7950 N   0  0  0  0  0  0  0  0  0  0  0  0
  138.9360   73.7950  223.0890 H   0  0  0  0  0  0  0  0  0  0  0  0
  140.9250   74.7544  221.1254 H   0  0  0  0  0  0  0  0  0  0  0  0
  139.3224   74.1628  220.4100 H   0  0  0  0  0  0  0  0  0  0  0  0
  138.3746   77.7965  219.1811 H   0  0  0  0  0  0  0  0  0  0  0  0
  138.4814   78.9912  220.3266 H   0  0  0  0  0  0  0  0  0  0  0  0
  140.8149   77.6841  218.6265 H   0  0  0  0  0  0  0  0  0  0  0  0
  140.8738   79.2821  218.9981 H   0  0  0  0  0  0  0  0  0  0  0  0
  141.8452   77.4236  221.0138 H   0  0  0  0  0  0  0  0  0  0  0  0
  139.9544   79.3910  222.0645 H   0  0  0  0  0  0  0  0  0  0  0  0
  142.8320   79.6445  221.1407 H   0  0  0  0  0  0  0  0  0  0  0  0
  141.3963   80.5756  220.5673 H   0  0  0  0  0  0  0  0  0  0  0  0
  142.6616   81.9163  222.1666 H   0  0  0  0  0  0  0  0  0  0  0  0
  141.0932   81.4631  222.8807 H   0  0  0  0  0  0  0  0  0  0  0  0
  143.7055   79.8810  223.2866 H   0  0  0  0  0  0  0  0  0  0  0  0
  143.0959   81.0706  224.4505 H   0  0  0  0  0  0  0  0  0  0  0  0
  142.3193   78.7940  225.0306 H   0  0  0  0  0  0  0  0  0  0  0  0
  140.9256   79.8442  224.5324 H   0  0  0  0  0  0  0  0  0  0  0  0
  142.3236   77.7102  222.8986 H   0  0  0  0  0  0  0  0  0  0  0  0
  140.6177   77.7267  223.5514 H   0  0  0  0  0  0  0  0  0  0  0  0
  139.2354   70.1373  222.3846 H   0  0  0  0  0  0  0  0  0  0  0  0
  138.8541   68.5858  224.2818 H   0  0  0  0  0  0  0  0  0  0  0  0
  139.1292   68.0474  226.6590 H   0  0  0  0  0  0  0  0  0  0  0  0
  141.2319   70.8441  229.1818 H   0  0  0  0  0  0  0  0  0  0  0  0
  141.5656   72.3317  227.2190 H   0  0  0  0  0  0  0  0  0  0  0  0
  1  2  2  0
  2  3  1  0
  3  4  1  0
  4  5  1  0
  5  6  2  0
  5  7  1  0
  7  8  1  0
  8  9  1  0
  9 10  1  0
 10 11  1  0
 11 12  1  0
 12 13  1  0
 13 14  1  0
 14 15  1  0
 15 16  1  0
  2 17  1  0
 17 18  2  0
 18 19  1  0
 19 20  2  0
 20 21  1  0
 21 22  2  0
 22 23  1  0
 22 24  1  0
 24 25  2  0
 25 26  1  0
 26 27  2  0
 10  7  1  0
 16 11  1  0
 27 17  1  0
 26 20  1  0
  3 28  1  0
  4 29  1  0
  4 30  1  0
  8 31  1  0
  8 32  1  0
  9 33  1  0
  9 34  1  0
 10 35  1  6
 11 36  1  0
 12 37  1  0
 12 38  1  0
 13 39  1  0
 13 40  1  0
 14 41  1  0
 14 42  1  0
 15 43  1  0
 15 44  1  0
 16 45  1  0
 16 46  1  0
 18 47  1  0
 19 48  1  0
 21 49  1  0
 24 50  1  0
 25 51  1  0
M  END
>  <smiles>  (84) 
O=C(NCC(=O)N1CCC1C1CCCCC1)c1ccc2cc(F)ccc2n1

>  <score_type>  (84) 
oracle

>  <origin>  (84) 
autodockgpu

>  <m_score__min__energy>  (84) 
-8.6799999999999997

>  <m_primary>  (84) 
energy

>  <rmsd>  (84) 
2.7955901108654633

>  <m_score__min__rmsd>  (84) 
2.7955901108654633

>  <meeko>  (84) 
{"free_energy": -8.4, "intermolecular_energy": -9.89, "internal_energy": -1.41, "cluster_size": 39, "cluster_id": 1, "rank_in_cluster": 13}

>  <energy>  (84) 
-8.03

>  <cluster_rmsd>  (84) 
0.94

>  <cluster>  (84) 
1

$$$$

     RDKit          3D

 51 54  0  0  0  0  0  0  0  0999 V2000
  141.2190   72.4610  221.6860 O   0  0  0  0  0  0  0  0  0  0  0  0
  140.2550   72.5580  222.4620 C   0  0  0  0  0  0  0  0  0  0  0  0
  139.2240   73.5450  222.3470 N   0  0  0  0  0  0  0  0  0  0  0  0
  139.2670   74.5150  221.2850 C   0  0  0  0  0  0  0  0  0  0  0  0
  140.2960   75.5440  221.3800 C   0  0  0  0  0  0  0  0  0  0  0  0
  141.3870   75.1820  221.9700 O   0  0  0  0  0  0  0  0  0  0  0  0
  140.2240   76.8700  220.8960 N   0  0  0  0  0  0  0  0  0  0  0  0
  139.2800   77.9360  220.6360 C   0  0  0  0  0  0  0  0  0  0  0  0
  140.2180   78.3940  219.5330 C   0  0  0  0  0  0  0  0  0  0  0  0
  141.2650   77.7910  220.4020 C   0  0  1  0  0  0  0  0  0  0  0  0
  141.8520   78.6890  221.4650 C   0  0  0  0  0  0  0  0  0  0  0  0
  141.2930   78.3170  222.8170 C   0  0  0  0  0  0  0  0  0  0  0  0
  141.7580   79.2910  223.8680 C   0  0  0  0  0  0  0  0  0  0  0  0
  141.1630   80.6520  223.5260 C   0  0  0  0  0  0  0  0  0  0  0  0
  141.8100   81.0780  222.2340 C   0  0  0  0  0  0  0  0  0  0  0  0
  141.5300   80.1040  221.1150 C   0  0  0  0  0  0  0  0  0  0  0  0
  140.1520   71.6030  223.5850 C   0  0  0  0  0  0  0  0  0  0  0  0
  139.5640   70.3730  223.4130 C   0  0  0  0  0  0  0  0  0  0  0  0
  139.4610   69.4660  224.4650 C   0  0  0  0  0  0  0  0  0  0  0  0
  139.9550   69.7920  225.7170 C   0  0  0  0  0  0  0  0  0  0  0  0
  139.8700   68.9140  226.7880 C   0  0  0  0  0  0  0  0  0  0  0  0
  140.3750   69.2730  228.0280 C   0  0  0  0  0  0  0  0  0  0  0  0
  140.2950   68.4190  229.0780 F   0  0  0  0  0  0  0  0  0  0  0  0
  140.9680   70.5310  228.1770 C   0  0  0  0  0  0  0  0  0  0  0  0
  141.0420   71.3960  227.0850 C   0  0  0  0  0  0  0  0  0  0  0  0
  140.5380   71.0380  225.8470 C   0  0  0  0  0  0  0  0  0  0  0  0
  140.6210   71.8910  224.8110 N   0  0  0  0  0  0  0  0  0  0  0  0
  138.4390   73.5370  223.0580 H   0  0  0  0  0  0  0  0  0  0  0  0
  139.4258   73.9706  220.3424 H   0  0  0  0  0  0  0  0  0  0  0  0
  138.3109   75.0552  221.3476 H   0  0  0  0  0  0  0  0  0  0  0  0
  138.2912   77.6008  220.2896 H   0  0  0  0  0  0  0  0  0  0  0  0
  138.9384   78.6170  221.4294 H   0  0  0  0  0  0  0  0  0  0  0  0
  140.0746   77.9072  218.5570 H   0  0  0  0  0  0  0  0  0  0  0  0
  140.2580   79.4256  219.1533 H   0  0  0  0  0  0  0  0  0  0  0  0
  142.2174   77.4407  219.9775 H   0  0  0  0  0  0  0  0  0  0  0  0
  142.9444   78.5692  221.5128 H   0  0  0  0  0  0  0  0  0  0  0  0
  140.1941   78.3321  222.7707 H   0  0  0  0  0  0  0  0  0  0  0  0
  141.6482   77.3106  223.0835 H   0  0  0  0  0  0  0  0  0  0  0  0
  141.4101   78.9675  224.8601 H   0  0  0  0  0  0  0  0  0  0  0  0
  142.8566   79.3426  223.8897 H   0  0  0  0  0  0  0  0  0  0  0  0
  140.0734   80.5712  223.3988 H   0  0  0  0  0  0  0  0  0  0  0  0
  141.3456   81.3833  224.3272 H   0  0  0  0  0  0  0  0  0  0  0  0
  141.4202   82.0668  221.9504 H   0  0  0  0  0  0  0  0  0  0  0  0
  142.8980   81.1106  222.3927 H   0  0  0  0  0  0  0  0  0  0  0  0
  140.4620   80.1652  220.8588 H   0  0  0  0  0  0  0  0  0  0  0  0
  142.1773   80.3847  220.2711 H   0  0  0  0  0  0  0  0  0  0  0  0
  139.1666   70.0992  222.4245 H   0  0  0  0  0  0  0  0  0  0  0  0
  138.9858   68.4876  224.3008 H   0  0  0  0  0  0  0  0  0  0  0  0
  139.3998   67.9288  226.6525 H   0  0  0  0  0  0  0  0  0  0  0  0
  141.3747   70.8373  229.1521 H   0  0  0  0  0  0  0  0  0  0  0  0
  141.5108   72.3832  227.2107 H   0  0  0  0  0  0  0  0  0  0  0  0
  1  2  2  0
  2  3  1  0
  3  4  1  0
  4  5  1  0
  5  6  2  0
  5  7  1  0
  7  8  1  0
  8  9  1  0
  9 10  1  0
 10 11  1  0
 11 12  1  0
 12 13  1  0
 13 14  1  0
 14 15  1  0
 15 16  1  0
  2 17  1  0
 17 18  2  0
 18 19  1  0
 19 20  2  0
 20 21  1  0
 21 22  2  0
 22 23  1  0
 22 24  1  0
 24 25  2  0
 25 26  1  0
 26 27  2  0
 10  7  1  0
 16 11  1  0
 27 17  1  0
 26 20  1  0
  3 28  1  0
  4 29  1  0
  4 30  1  0
  8 31  1  0
  8 32  1  0
  9 33  1  0
  9 34  1  0
 10 35  1  6
 11 36  1  0
 12 37  1  0
 12 38  1  0
 13 39  1  0
 13 40  1  0
 14 41  1  0
 14 42  1  0
 15 43  1  0
 15 44  1  0
 16 45  1  0
 16 46  1  0
 18 47  1  0
 19 48  1  0
 21 49  1  0
 24 50  1  0
 25 51  1  0
M  END
>  <smiles>  (85) 
O=C(NCC(=O)N1CCC1C1CCCCC1)c1ccc2cc(F)ccc2n1

>  <score_type>  (85) 
oracle

>  <origin>  (85) 
autodockgpu

>  <m_score__min__energy>  (85) 
-8.6799999999999997

>  <m_primary>  (85) 
energy

>  <rmsd>  (85) 
2.695921445489041

>  <m_score__min__rmsd>  (85) 
2.695921445489041

>  <meeko>  (85) 
{"free_energy": -8.64, "intermolecular_energy": -10.13, "internal_energy": -0.88, "cluster_size": 39, "cluster_id": 1, "rank_in_cluster": 2}

>  <energy>  (85) 
-8.03

>  <cluster_rmsd>  (85) 
0.91

>  <cluster>  (85) 
1

$$$$

     RDKit          3D

 51 54  0  0  0  0  0  0  0  0999 V2000
  140.7840   71.5400  221.1750 O   0  0  0  0  0  0  0  0  0  0  0  0
  140.3400   72.0360  222.2230 C   0  0  0  0  0  0  0  0  0  0  0  0
  139.9540   73.4070  222.3640 N   0  0  0  0  0  0  0  0  0  0  0  0
  140.0770   74.3120  221.2520 C   0  0  0  0  0  0  0  0  0  0  0  0
  140.0840   75.7360  221.5640 C   0  0  0  0  0  0  0  0  0  0  0  0
  139.6040   76.0510  222.7220 O   0  0  0  0  0  0  0  0  0  0  0  0
  140.5580   76.7860  220.7450 N   0  0  0  0  0  0  0  0  0  0  0  0
  140.3230   77.4300  219.4700 C   0  0  0  0  0  0  0  0  0  0  0  0
  141.8020   77.7750  219.4570 C   0  0  0  0  0  0  0  0  0  0  0  0
  141.6460   77.7640  220.9380 C   0  0  1  0  0  0  0  0  0  0  0  0
  141.2070   79.0620  221.5730 C   0  0  0  0  0  0  0  0  0  0  0  0
  142.1630   80.1680  221.1960 C   0  0  0  0  0  0  0  0  0  0  0  0
  141.8220   81.4360  221.9330 C   0  0  0  0  0  0  0  0  0  0  0  0
  142.0430   81.1770  223.4180 C   0  0  0  0  0  0  0  0  0  0  0  0
  141.0100   80.1570  223.8230 C   0  0  0  0  0  0  0  0  0  0  0  0
  141.1580   78.8680  223.0520 C   0  0  0  0  0  0  0  0  0  0  0  0
  140.1980   71.1700  223.4110 C   0  0  0  0  0  0  0  0  0  0  0  0
  139.5620   69.9540  223.3260 C   0  0  0  0  0  0  0  0  0  0  0  0
  139.4220   69.1310  224.4410 C   0  0  0  0  0  0  0  0  0  0  0  0
  139.9270   69.5270  225.6690 C   0  0  0  0  0  0  0  0  0  0  0  0
  139.8050   68.7330  226.8000 C   0  0  0  0  0  0  0  0  0  0  0  0
  140.3220   69.1610  228.0120 C   0  0  0  0  0  0  0  0  0  0  0  0
  140.2070   68.3890  229.1210 F   0  0  0  0  0  0  0  0  0  0  0  0
  140.9640   70.4030  228.0720 C   0  0  0  0  0  0  0  0  0  0  0  0
  141.0730   71.1820  226.9210 C   0  0  0  0  0  0  0  0  0  0  0  0
  140.5570   70.7550  225.7110 C   0  0  0  0  0  0  0  0  0  0  0  0
  140.6760   71.5270  224.6150 N   0  0  0  0  0  0  0  0  0  0  0  0
  139.5790   73.7300  223.3010 H   0  0  0  0  0  0  0  0  0  0  0  0
  141.0200   74.0793  220.7357 H   0  0  0  0  0  0  0  0  0  0  0  0
  139.1712   74.1529  220.6485 H   0  0  0  0  0  0  0  0  0  0  0  0
  140.0014   76.7529  218.6649 H   0  0  0  0  0  0  0  0  0  0  0  0
  139.5457   78.1975  219.3408 H   0  0  0  0  0  0  0  0  0  0  0  0
  142.4654   77.0004  219.0449 H   0  0  0  0  0  0  0  0  0  0  0  0
  142.2287   78.6175  218.8930 H   0  0  0  0  0  0  0  0  0  0  0  0
  142.5071   77.5736  221.5954 H   0  0  0  0  0  0  0  0  0  0  0  0
  140.2081   79.3500  221.2134 H   0  0  0  0  0  0  0  0  0  0  0  0
  143.1880   79.8639  221.4545 H   0  0  0  0  0  0  0  0  0  0  0  0
  142.0829   80.3533  220.1147 H   0  0  0  0  0  0  0  0  0  0  0  0
  142.4739   82.2544  221.5936 H   0  0  0  0  0  0  0  0  0  0  0  0
  140.7784   81.7262  221.7418 H   0  0  0  0  0  0  0  0  0  0  0  0
  143.0558   80.7838  223.5903 H   0  0  0  0  0  0  0  0  0  0  0  0
  141.9465   82.1018  224.0058 H   0  0  0  0  0  0  0  0  0  0  0  0
  141.1224   79.9441  224.8963 H   0  0  0  0  0  0  0  0  0  0  0  0
  140.0159   80.5732  223.6028 H   0  0  0  0  0  0  0  0  0  0  0  0
  142.0896   78.3770  223.3699 H   0  0  0  0  0  0  0  0  0  0  0  0
  140.2696   78.2569  223.2692 H   0  0  0  0  0  0  0  0  0  0  0  0
  139.1557   69.6246  222.3583 H   0  0  0  0  0  0  0  0  0  0  0  0
  138.9085   68.1628  224.3463 H   0  0  0  0  0  0  0  0  0  0  0  0
  139.2959   67.7601  226.7343 H   0  0  0  0  0  0  0  0  0  0  0  0
  141.3811   70.7633  229.0239 H   0  0  0  0  0  0  0  0  0  0  0  0
  141.5800   72.1566  226.9764 H   0  0  0  0  0  0  0  0  0  0  0  0
  1  2  2  0
  2  3  1  0
  3  4  1  0
  4  5  1  0
  5  6  2  0
  5  7  1  0
  7  8  1  0
  8  9  1  0
  9 10  1  0
 10 11  1  0
 11 12  1  0
 12 13  1  0
 13 14  1  0
 14 15  1  0
 15 16  1  0
  2 17  1  0
 17 18  2  0
 18 19  1  0
 19 20  2  0
 20 21  1  0
 21 22  2  0
 22 23  1  0
 22 24  1  0
 24 25  2  0
 25 26  1  0
 26 27  2  0
 10  7  1  0
 16 11  1  0
 27 17  1  0
 26 20  1  0
  3 28  1  0
  4 29  1  0
  4 30  1  0
  8 31  1  0
  8 32  1  0
  9 33  1  0
  9 34  1  0
 10 35  1  1
 11 36  1  0
 12 37  1  0
 12 38  1  0
 13 39  1  0
 13 40  1  0
 14 41  1  0
 14 42  1  0
 15 43  1  0
 15 44  1  0
 16 45  1  0
 16 46  1  0
 18 47  1  0
 19 48  1  0
 21 49  1  0
 24 50  1  0
 25 51  1  0
M  END
>  <smiles>  (86) 
O=C(NCC(=O)N1CCC1C1CCCCC1)c1ccc2cc(F)ccc2n1

>  <score_type>  (86) 
oracle

>  <origin>  (86) 
autodockgpu

>  <m_score__min__energy>  (86) 
-8.6799999999999997

>  <m_primary>  (86) 
energy

>  <rmsd>  (86) 
2.6117622534378357

>  <m_score__min__rmsd>  (86) 
2.6117622534378357

>  <meeko>  (86) 
{"free_energy": -8.43, "intermolecular_energy": -9.92, "internal_energy": -1.48, "cluster_size": 39, "cluster_id": 1, "rank_in_cluster": 9}

>  <energy>  (86) 
-7.98

>  <cluster_rmsd>  (86) 
0.99

>  <cluster>  (86) 
1

$$$$

     RDKit          3D

 51 54  0  0  0  0  0  0  0  0999 V2000
  139.3320   71.0740  221.1910 O   0  0  0  0  0  0  0  0  0  0  0  0
  139.5440   71.6110  222.2900 C   0  0  0  0  0  0  0  0  0  0  0  0
  139.6890   73.0220  222.4840 N   0  0  0  0  0  0  0  0  0  0  0  0
  139.6010   73.9190  221.3620 C   0  0  0  0  0  0  0  0  0  0  0  0
  139.6980   75.3440  221.6540 C   0  0  0  0  0  0  0  0  0  0  0  0
  139.1940   75.7120  222.7850 O   0  0  0  0  0  0  0  0  0  0  0  0
  140.2800   76.3430  220.8410 N   0  0  0  0  0  0  0  0  0  0  0  0
  140.1340   76.9930  219.5560 C   0  0  0  0  0  0  0  0  0  0  0  0
  141.6370   77.2120  219.5820 C   0  0  0  0  0  0  0  0  0  0  0  0
  141.4420   77.2280  221.0570 C   0  0  1  0  0  0  0  0  0  0  0  0
  141.0970   78.5630  221.6720 C   0  0  0  0  0  0  0  0  0  0  0  0
  141.8230   79.6670  220.9430 C   0  0  0  0  0  0  0  0  0  0  0  0
  141.6030   80.9900  221.6290 C   0  0  0  0  0  0  0  0  0  0  0  0
  142.2450   80.9020  223.0080 C   0  0  0  0  0  0  0  0  0  0  0  0
  141.4470   79.8830  223.7780 C   0  0  0  0  0  0  0  0  0  0  0  0
  141.4750   78.5270  223.1160 C   0  0  0  0  0  0  0  0  0  0  0  0
  139.6600   70.7510  223.4860 C   0  0  0  0  0  0  0  0  0  0  0  0
  139.2070   69.4540  223.4690 C   0  0  0  0  0  0  0  0  0  0  0  0
  139.3100   68.6350  224.5920 C   0  0  0  0  0  0  0  0  0  0  0  0
  139.8770   69.1210  225.7590 C   0  0  0  0  0  0  0  0  0  0  0  0
  139.9970   68.3350  226.8960 C   0  0  0  0  0  0  0  0  0  0  0  0
  140.5700   68.8530  228.0460 C   0  0  0  0  0  0  0  0  0  0  0  0
  140.6890   68.0900  229.1610 F   0  0  0  0  0  0  0  0  0  0  0  0
  141.0220   70.1770  228.0380 C   0  0  0  0  0  0  0  0  0  0  0  0
  140.8910   70.9470  226.8820 C   0  0  0  0  0  0  0  0  0  0  0  0
  140.3190   70.4290  225.7340 C   0  0  0  0  0  0  0  0  0  0  0  0
  140.2040   71.1940  224.6320 N   0  0  0  0  0  0  0  0  0  0  0  0
  139.8600   73.3800  223.4660 H   0  0  0  0  0  0  0  0  0  0  0  0
  140.4152   73.6649  220.6674 H   0  0  0  0  0  0  0  0  0  0  0  0
  138.5889   73.7754  220.9557 H   0  0  0  0  0  0  0  0  0  0  0  0
  139.7783   76.3382  218.7468 H   0  0  0  0  0  0  0  0  0  0  0  0
  139.4278   77.8219  219.4001 H   0  0  0  0  0  0  0  0  0  0  0  0
  142.2433   76.3804  219.1937 H   0  0  0  0  0  0  0  0  0  0  0  0
  142.1481   78.0106  219.0243 H   0  0  0  0  0  0  0  0  0  0  0  0
  142.2670   76.9723  221.7382 H   0  0  0  0  0  0  0  0  0  0  0  0
  140.0184   78.7610  221.5861 H   0  0  0  0  0  0  0  0  0  0  0  0
  142.8998   79.4426  220.9273 H   0  0  0  0  0  0  0  0  0  0  0  0
  141.4324   79.7306  219.9167 H   0  0  0  0  0  0  0  0  0  0  0  0
  142.0716   81.7974  221.0472 H   0  0  0  0  0  0  0  0  0  0  0  0
  140.5283   81.2085  221.7147 H   0  0  0  0  0  0  0  0  0  0  0  0
  143.2930   80.5793  222.9210 H   0  0  0  0  0  0  0  0  0  0  0  0
  142.2434   81.8786  223.5142 H   0  0  0  0  0  0  0  0  0  0  0  0
  141.8680   79.7930  224.7903 H   0  0  0  0  0  0  0  0  0  0  0  0
  140.4017   80.2239  223.8113 H   0  0  0  0  0  0  0  0  0  0  0  0
  142.4933   78.1194  223.1996 H   0  0  0  0  0  0  0  0  0  0  0  0
  140.7319   77.8998  223.6302 H   0  0  0  0  0  0  0  0  0  0  0  0
  138.7537   69.0537  222.5501 H   0  0  0  0  0  0  0  0  0  0  0  0
  138.9401   67.5999  224.5517 H   0  0  0  0  0  0  0  0  0  0  0  0
  139.6356   67.2961  226.8843 H   0  0  0  0  0  0  0  0  0  0  0  0
  141.4792   70.6095  228.9402 H   0  0  0  0  0  0  0  0  0  0  0  0
  141.2498   71.9868  226.8835 H   0  0  0  0  0  0  0  0  0  0  0  0
  1  2  2  0
  2  3  1  0
  3  4  1  0
  4  5  1  0
  5  6  2  0
  5  7  1  0
  7  8  1  0
  8  9  1  0
  9 10  1  0
 10 11  1  0
 11 12  1  0
 12 13  1  0
 13 14  1  0
 14 15  1  0
 15 16  1  0
  2 17  1  0
 17 18  2  0
 18 19  1  0
 19 20  2  0
 20 21  1  0
 21 22  2  0
 22 23  1  0
 22 24  1  0
 24 25  2  0
 25 26  1  0
 26 27  2  0
 10  7  1  0
 16 11  1  0
 27 17  1  0
 26 20  1  0
  3 28  1  0
  4 29  1  0
  4 30  1  0
  8 31  1  0
  8 32  1  0
  9 33  1  0
  9 34  1  0
 10 35  1  1
 11 36  1  0
 12 37  1  0
 12 38  1  0
 13 39  1  0
 13 40  1  0
 14 41  1  0
 14 42  1  0
 15 43  1  0
 15 44  1  0
 16 45  1  0
 16 46  1  0
 18 47  1  0
 19 48  1  0
 21 49  1  0
 24 50  1  0
 25 51  1  0
M  END
>  <smiles>  (87) 
O=C(NCC(=O)N1CCC1C1CCCCC1)c1ccc2cc(F)ccc2n1

>  <score_type>  (87) 
oracle

>  <origin>  (87) 
autodockgpu

>  <m_score__min__energy>  (87) 
-8.6799999999999997

>  <m_primary>  (87) 
energy

>  <rmsd>  (87) 
2.3114956826927946

>  <m_score__min__rmsd>  (87) 
2.3114956826927946

>  <meeko>  (87) 
{"free_energy": -8.26, "intermolecular_energy": -9.75, "internal_energy": -1.51, "cluster_size": 39, "cluster_id": 1, "rank_in_cluster": 27}

>  <energy>  (87) 
-7.94

>  <cluster_rmsd>  (87) 
0.95

>  <cluster>  (87) 
1

$$$$

     RDKit          3D

 51 54  0  0  0  0  0  0  0  0999 V2000
  138.5220   71.2760  221.4240 O   0  0  0  0  0  0  0  0  0  0  0  0
  139.0720   71.7450  222.4340 C   0  0  0  0  0  0  0  0  0  0  0  0
  139.4890   73.1080  222.5640 N   0  0  0  0  0  0  0  0  0  0  0  0
  139.2890   74.0330  221.4790 C   0  0  0  0  0  0  0  0  0  0  0  0
  140.2580   75.1150  221.3550 C   0  0  0  0  0  0  0  0  0  0  0  0
  141.3920   74.9110  221.9400 O   0  0  0  0  0  0  0  0  0  0  0  0
  140.0860   76.3380  220.6690 N   0  0  0  0  0  0  0  0  0  0  0  0
  139.1040   77.0980  219.9240 C   0  0  0  0  0  0  0  0  0  0  0  0
  140.2670   77.7120  219.1640 C   0  0  0  0  0  0  0  0  0  0  0  0
  141.0080   77.4670  220.4320 C   0  0  1  0  0  0  0  0  0  0  0  0
  140.9320   78.5580  221.4730 C   0  0  0  0  0  0  0  0  0  0  0  0
  141.8250   79.7090  221.0770 C   0  0  0  0  0  0  0  0  0  0  0  0
  141.8710   80.7430  222.1710 C   0  0  0  0  0  0  0  0  0  0  0  0
  142.5270   80.0980  223.3850 C   0  0  0  0  0  0  0  0  0  0  0  0
  141.5790   79.0250  223.8530 C   0  0  0  0  0  0  0  0  0  0  0  0
  141.3380   77.9820  222.7880 C   0  0  0  0  0  0  0  0  0  0  0  0
  139.3200   70.8510  223.5830 C   0  0  0  0  0  0  0  0  0  0  0  0
  138.9390   69.5310  223.5460 C   0  0  0  0  0  0  0  0  0  0  0  0
  139.1690   68.6800  224.6250 C   0  0  0  0  0  0  0  0  0  0  0  0
  139.7910   69.1560  225.7680 C   0  0  0  0  0  0  0  0  0  0  0  0
  140.0360   68.3370  226.8610 C   0  0  0  0  0  0  0  0  0  0  0  0
  140.6610   68.8460  227.9880 C   0  0  0  0  0  0  0  0  0  0  0  0
  140.9030   68.0520  229.0600 F   0  0  0  0  0  0  0  0  0  0  0  0
  141.0380   70.1940  228.0010 C   0  0  0  0  0  0  0  0  0  0  0  0
  140.7810   70.9950  226.8890 C   0  0  0  0  0  0  0  0  0  0  0  0
  140.1570   70.4870  225.7640 C   0  0  0  0  0  0  0  0  0  0  0  0
  139.9210   71.2830  224.7050 N   0  0  0  0  0  0  0  0  0  0  0  0
  139.9420   73.4110  223.4730 H   0  0  0  0  0  0  0  0  0  0  0  0
  139.3102   73.4574  220.5419 H   0  0  0  0  0  0  0  0  0  0  0  0
  138.3296   74.5268  221.6928 H   0  0  0  0  0  0  0  0  0  0  0  0
  138.4220   76.4915  219.3099 H   0  0  0  0  0  0  0  0  0  0  0  0
  138.3452   77.7169  220.4252 H   0  0  0  0  0  0  0  0  0  0  0  0
  140.6179   77.1399  218.2925 H   0  0  0  0  0  0  0  0  0  0  0  0
  140.2212   78.6895  218.6616 H   0  0  0  0  0  0  0  0  0  0  0  0
  142.1020   77.3526  220.4336 H   0  0  0  0  0  0  0  0  0  0  0  0
  139.9060   78.9467  221.5520 H   0  0  0  0  0  0  0  0  0  0  0  0
  142.8417   79.3315  220.8930 H   0  0  0  0  0  0  0  0  0  0  0  0
  141.4218   80.1741  220.1653 H   0  0  0  0  0  0  0  0  0  0  0  0
  142.4612   81.6111  221.8424 H   0  0  0  0  0  0  0  0  0  0  0  0
  140.8569   81.0903  222.4180 H   0  0  0  0  0  0  0  0  0  0  0  0
  143.4951   79.6566  223.1060 H   0  0  0  0  0  0  0  0  0  0  0  0
  142.7195   80.8367  224.1770 H   0  0  0  0  0  0  0  0  0  0  0  0
  142.0067   78.5350  224.7401 H   0  0  0  0  0  0  0  0  0  0  0  0
  140.6154   79.5007  224.0881 H   0  0  0  0  0  0  0  0  0  0  0  0
  142.2659   77.4087  222.6456 H   0  0  0  0  0  0  0  0  0  0  0  0
  140.5071   77.3504  223.1353 H   0  0  0  0  0  0  0  0  0  0  0  0
  138.4424   69.1384  222.6464 H   0  0  0  0  0  0  0  0  0  0  0  0
  138.8558   67.6270  224.5693 H   0  0  0  0  0  0  0  0  0  0  0  0
  139.7330   67.2799  226.8326 H   0  0  0  0  0  0  0  0  0  0  0  0
  141.5351   70.6198  228.8851 H   0  0  0  0  0  0  0  0  0  0  0  0
  141.0808   72.0532  226.9068 H   0  0  0  0  0  0  0  0  0  0  0  0
  1  2  2  0
  2  3  1  0
  3  4  1  0
  4  5  1  0
  5  6  2  0
  5  7  1  0
  7  8  1  0
  8  9  1  0
  9 10  1  0
 10 11  1  0
 11 12  1  0
 12 13  1  0
 13 14  1  0
 14 15  1  0
 15 16  1  0
  2 17  1  0
 17 18  2  0
 18 19  1  0
 19 20  2  0
 20 21  1  0
 21 22  2  0
 22 23  1  0
 22 24  1  0
 24 25  2  0
 25 26  1  0
 26 27  2  0
 10  7  1  0
 16 11  1  0
 27 17  1  0
 26 20  1  0
  3 28  1  0
  4 29  1  0
  4 30  1  0
  8 31  1  0
  8 32  1  0
  9 33  1  0
  9 34  1  0
 10 35  1  6
 11 36  1  0
 12 37  1  0
 12 38  1  0
 13 39  1  0
 13 40  1  0
 14 41  1  0
 14 42  1  0
 15 43  1  0
 15 44  1  0
 16 45  1  0
 16 46  1  0
 18 47  1  0
 19 48  1  0
 21 49  1  0
 24 50  1  0
 25 51  1  0
M  END
>  <smiles>  (88) 
O=C(NCC(=O)N1CCC1C1CCCCC1)c1ccc2cc(F)ccc2n1

>  <score_type>  (88) 
oracle

>  <origin>  (88) 
autodockgpu

>  <m_score__min__energy>  (88) 
-8.6799999999999997

>  <m_primary>  (88) 
energy

>  <rmsd>  (88) 
2.2945105217892867

>  <m_score__min__rmsd>  (88) 
2.2945105217892867

>  <meeko>  (88) 
{"free_energy": -8.03, "intermolecular_energy": -9.52, "internal_energy": -1.53, "cluster_size": 39, "cluster_id": 1, "rank_in_cluster": 35}

>  <energy>  (88) 
-7.92

>  <cluster_rmsd>  (88) 
1.0

>  <cluster>  (88) 
1

$$$$

     RDKit          3D

 51 54  0  0  0  0  0  0  0  0999 V2000
  140.7090   71.4530  221.1720 O   0  0  0  0  0  0  0  0  0  0  0  0
  140.2650   71.9670  222.2110 C   0  0  0  0  0  0  0  0  0  0  0  0
  139.8630   73.3370  222.3250 N   0  0  0  0  0  0  0  0  0  0  0  0
  139.9700   74.2180  221.1930 C   0  0  0  0  0  0  0  0  0  0  0  0
  139.7540   75.6380  221.4460 C   0  0  0  0  0  0  0  0  0  0  0  0
  138.9750   75.9100  222.4410 O   0  0  0  0  0  0  0  0  0  0  0  0
  140.3040   76.7250  220.7300 N   0  0  0  0  0  0  0  0  0  0  0  0
  140.1180   77.5040  219.5230 C   0  0  0  0  0  0  0  0  0  0  0  0
  141.6170   77.7410  219.5370 C   0  0  0  0  0  0  0  0  0  0  0  0
  141.4590   77.6000  221.0100 C   0  0  1  0  0  0  0  0  0  0  0  0
  141.1130   78.8580  221.7700 C   0  0  0  0  0  0  0  0  0  0  0  0
  141.5440   80.0700  220.9790 C   0  0  0  0  0  0  0  0  0  0  0  0
  141.3350   81.3270  221.7820 C   0  0  0  0  0  0  0  0  0  0  0  0
  142.2640   81.2590  222.9880 C   0  0  0  0  0  0  0  0  0  0  0  0
  141.7620   80.1220  223.8390 C   0  0  0  0  0  0  0  0  0  0  0  0
  141.7920   78.8070  223.0970 C   0  0  0  0  0  0  0  0  0  0  0  0
  140.1390   71.1250  223.4180 C   0  0  0  0  0  0  0  0  0  0  0  0
  139.5150   69.9020  223.3630 C   0  0  0  0  0  0  0  0  0  0  0  0
  139.3910   69.1010  224.4970 C   0  0  0  0  0  0  0  0  0  0  0  0
  139.8990   69.5290  225.7120 C   0  0  0  0  0  0  0  0  0  0  0  0
  139.7930   68.7570  226.8610 C   0  0  0  0  0  0  0  0  0  0  0  0
  140.3130   69.2160  228.0610 C   0  0  0  0  0  0  0  0  0  0  0  0
  140.2120   68.4670  229.1870 F   0  0  0  0  0  0  0  0  0  0  0  0
  140.9430   70.4650  228.0900 C   0  0  0  0  0  0  0  0  0  0  0  0
  141.0360   71.2210  226.9210 C   0  0  0  0  0  0  0  0  0  0  0  0
  140.5170   70.7630  225.7240 C   0  0  0  0  0  0  0  0  0  0  0  0
  140.6210   71.5130  224.6120 N   0  0  0  0  0  0  0  0  0  0  0  0
  139.4890   73.6750  223.2570 H   0  0  0  0  0  0  0  0  0  0  0  0
  140.9815   74.1037  220.7760 H   0  0  0  0  0  0  0  0  0  0  0  0
  139.1573   73.9180  220.5151 H   0  0  0  0  0  0  0  0  0  0  0  0
  139.7505   76.9322  218.6582 H   0  0  0  0  0  0  0  0  0  0  0  0
  139.3980   78.3340  219.4712 H   0  0  0  0  0  0  0  0  0  0  0  0
  142.2236   76.9636  219.0495 H   0  0  0  0  0  0  0  0  0  0  0  0
  142.1041   78.6011  219.0543 H   0  0  0  0  0  0  0  0  0  0  0  0
  142.3040   77.2874  221.6410 H   0  0  0  0  0  0  0  0  0  0  0  0
  140.0263   78.9306  221.9240 H   0  0  0  0  0  0  0  0  0  0  0  0
  142.6102   79.9759  220.7251 H   0  0  0  0  0  0  0  0  0  0  0  0
  140.9391   80.1294  220.0622 H   0  0  0  0  0  0  0  0  0  0  0  0
  141.5776   82.2084  221.1701 H   0  0  0  0  0  0  0  0  0  0  0  0
  140.2867   81.4114  222.1044 H   0  0  0  0  0  0  0  0  0  0  0  0
  143.2971   81.0657  222.6636 H   0  0  0  0  0  0  0  0  0  0  0  0
  142.2680   82.2070  223.5459 H   0  0  0  0  0  0  0  0  0  0  0  0
  142.3969   80.0401  224.7335 H   0  0  0  0  0  0  0  0  0  0  0  0
  140.7180   80.3356  224.1118 H   0  0  0  0  0  0  0  0  0  0  0  0
  142.8421   78.5194  222.9402 H   0  0  0  0  0  0  0  0  0  0  0  0
  141.2470   78.0756  223.7118 H   0  0  0  0  0  0  0  0  0  0  0  0
  139.1053   69.5482  222.4054 H   0  0  0  0  0  0  0  0  0  0  0  0
  138.8878   68.1254  224.4265 H   0  0  0  0  0  0  0  0  0  0  0  0
  139.2944   67.7774  226.8189 H   0  0  0  0  0  0  0  0  0  0  0  0
  141.3634   70.8495  229.0310 H   0  0  0  0  0  0  0  0  0  0  0  0
  141.5326   72.2020  226.9523 H   0  0  0  0  0  0  0  0  0  0  0  0
  1  2  2  0
  2  3  1  0
  3  4  1  0
  4  5  1  0
  5  6  2  0
  5  7  1  0
  7  8  1  0
  8  9  1  0
  9 10  1  0
 10 11  1  0
 11 12  1  0
 12 13  1  0
 13 14  1  0
 14 15  1  0
 15 16  1  0
  2 17  1  0
 17 18  2  0
 18 19  1  0
 19 20  2  0
 20 21  1  0
 21 22  2  0
 22 23  1  0
 22 24  1  0
 24 25  2  0
 25 26  1  0
 26 27  2  0
 10  7  1  0
 16 11  1  0
 27 17  1  0
 26 20  1  0
  3 28  1  0
  4 29  1  0
  4 30  1  0
  8 31  1  0
  8 32  1  0
  9 33  1  0
  9 34  1  0
 10 35  1  1
 11 36  1  0
 12 37  1  0
 12 38  1  0
 13 39  1  0
 13 40  1  0
 14 41  1  0
 14 42  1  0
 15 43  1  0
 15 44  1  0
 16 45  1  0
 16 46  1  0
 18 47  1  0
 19 48  1  0
 21 49  1  0
 24 50  1  0
 25 51  1  0
M  END
>  <smiles>  (89) 
O=C(NCC(=O)N1CCC1C1CCCCC1)c1ccc2cc(F)ccc2n1

>  <score_type>  (89) 
oracle

>  <origin>  (89) 
autodockgpu

>  <m_score__min__energy>  (89) 
-8.6799999999999997

>  <m_primary>  (89) 
energy

>  <rmsd>  (89) 
2.5300764454400193

>  <m_score__min__rmsd>  (89) 
2.5300764454400193

>  <meeko>  (89) 
{"free_energy": -8.33, "intermolecular_energy": -9.82, "internal_energy": -1.39, "cluster_size": 39, "cluster_id": 1, "rank_in_cluster": 22}

>  <energy>  (89) 
-7.89

>  <cluster_rmsd>  (89) 
1.55

>  <cluster>  (89) 
1

$$$$

     RDKit          3D

 51 54  0  0  0  0  0  0  0  0999 V2000
  137.2230   75.6640  222.2290 O   0  0  0  0  0  0  0  0  0  0  0  0
  138.4510   75.8140  222.3280 C   0  0  0  0  0  0  0  0  0  0  0  0
  139.4070   74.7600  222.1700 N   0  0  0  0  0  0  0  0  0  0  0  0
  138.9650   73.4200  221.8860 C   0  0  0  0  0  0  0  0  0  0  0  0
  139.8460   72.3370  222.3090 C   0  0  0  0  0  0  0  0  0  0  0  0
  141.1100   72.5980  222.2500 O   0  0  0  0  0  0  0  0  0  0  0  0
  139.4620   71.0590  222.7730 N   0  0  0  0  0  0  0  0  0  0  0  0
  139.4440   69.6640  222.3830 C   0  0  0  0  0  0  0  0  0  0  0  0
  138.2170   69.5130  223.2630 C   0  0  0  0  0  0  0  0  0  0  0  0
  138.8400   70.6210  224.0380 C   0  0  1  0  0  0  0  0  0  0  0  0
  139.8270   70.2170  225.1070 C   0  0  0  0  0  0  0  0  0  0  0  0
  139.1630   69.2900  226.0960 C   0  0  0  0  0  0  0  0  0  0  0  0
  140.0900   68.9900  227.2450 C   0  0  0  0  0  0  0  0  0  0  0  0
  140.3340   70.2970  227.9890 C   0  0  0  0  0  0  0  0  0  0  0  0
  141.1030   71.1810  227.0420 C   0  0  0  0  0  0  0  0  0  0  0  0
  140.3300   71.4530  225.7740 C   0  0  0  0  0  0  0  0  0  0  0  0
  138.9770   77.1610  222.6300 C   0  0  0  0  0  0  0  0  0  0  0  0
  138.1290   78.2330  222.7790 C   0  0  0  0  0  0  0  0  0  0  0  0
  138.6150   79.5070  223.0630 C   0  0  0  0  0  0  0  0  0  0  0  0
  139.9770   79.7190  223.2010 C   0  0  0  0  0  0  0  0  0  0  0  0
  140.4970   80.9740  223.4840 C   0  0  0  0  0  0  0  0  0  0  0  0
  141.8660   81.1490  223.6160 C   0  0  0  0  0  0  0  0  0  0  0  0
  142.3790   82.3740  223.8920 F   0  0  0  0  0  0  0  0  0  0  0  0
  142.7070   80.0430  223.4590 C   0  0  0  0  0  0  0  0  0  0  0  0
  142.1590   78.7920  223.1750 C   0  0  0  0  0  0  0  0  0  0  0  0
  140.7940   78.6160  223.0440 C   0  0  0  0  0  0  0  0  0  0  0  0
  140.2920   77.3980  222.7690 N   0  0  0  0  0  0  0  0  0  0  0  0
  140.4350   74.9950  222.2660 H   0  0  0  0  0  0  0  0  0  0  0  0
  137.9956   73.2757  222.3854 H   0  0  0  0  0  0  0  0  0  0  0  0
  138.9303   73.3531  220.7886 H   0  0  0  0  0  0  0  0  0  0  0  0
  139.2666   69.4879  221.3118 H   0  0  0  0  0  0  0  0  0  0  0  0
  140.3257   69.0163  222.4978 H   0  0  0  0  0  0  0  0  0  0  0  0
  137.2573   69.7531  222.7821 H   0  0  0  0  0  0  0  0  0  0  0  0
  137.8986   68.5592  223.7089 H   0  0  0  0  0  0  0  0  0  0  0  0
  138.2276   71.2880  224.6626 H   0  0  0  0  0  0  0  0  0  0  0  0
  140.6762   69.6759  224.6642 H   0  0  0  0  0  0  0  0  0  0  0  0
  138.2504   69.7672  226.4826 H   0  0  0  0  0  0  0  0  0  0  0  0
  138.9125   68.3478  225.5866 H   0  0  0  0  0  0  0  0  0  0  0  0
  139.6267   68.2547  227.9193 H   0  0  0  0  0  0  0  0  0  0  0  0
  141.0382   68.5696  226.8786 H   0  0  0  0  0  0  0  0  0  0  0  0
  139.3767   70.7675  228.2578 H   0  0  0  0  0  0  0  0  0  0  0  0
  140.8905   70.1293  228.9229 H   0  0  0  0  0  0  0  0  0  0  0  0
  141.3152   72.1378  227.5415 H   0  0  0  0  0  0  0  0  0  0  0  0
  142.0335   70.6614  226.7696 H   0  0  0  0  0  0  0  0  0  0  0  0
  139.4683   72.0904  226.0215 H   0  0  0  0  0  0  0  0  0  0  0  0
  141.0218   71.9410  225.0717 H   0  0  0  0  0  0  0  0  0  0  0  0
  137.0448   78.0814  222.6718 H   0  0  0  0  0  0  0  0  0  0  0  0
  137.9150   80.3477  223.1781 H   0  0  0  0  0  0  0  0  0  0  0  0
  139.8206   81.8331  223.6040 H   0  0  0  0  0  0  0  0  0  0  0  0
  143.7963   80.1589  223.5590 H   0  0  0  0  0  0  0  0  0  0  0  0
  142.8273   77.9269  223.0527 H   0  0  0  0  0  0  0  0  0  0  0  0
  1  2  2  0
  2  3  1  0
  3  4  1  0
  4  5  1  0
  5  6  2  0
  5  7  1  0
  7  8  1  0
  8  9  1  0
  9 10  1  0
 10 11  1  0
 11 12  1  0
 12 13  1  0
 13 14  1  0
 14 15  1  0
 15 16  1  0
  2 17  1  0
 17 18  2  0
 18 19  1  0
 19 20  2  0
 20 21  1  0
 21 22  2  0
 22 23  1  0
 22 24  1  0
 24 25  2  0
 25 26  1  0
 26 27  2  0
 10  7  1  0
 16 11  1  0
 27 17  1  0
 26 20  1  0
  3 28  1  0
  4 29  1  0
  4 30  1  0
  8 31  1  0
  8 32  1  0
  9 33  1  0
  9 34  1  0
 10 35  1  1
 11 36  1  0
 12 37  1  0
 12 38  1  0
 13 39  1  0
 13 40  1  0
 14 41  1  0
 14 42  1  0
 15 43  1  0
 15 44  1  0
 16 45  1  0
 16 46  1  0
 18 47  1  0
 19 48  1  0
 21 49  1  0
 24 50  1  0
 25 51  1  0
M  END
>  <smiles>  (90) 
O=C(NCC(=O)N1CCC1C1CCCCC1)c1ccc2cc(F)ccc2n1

>  <score_type>  (90) 
oracle

>  <origin>  (90) 
autodockgpu

>  <m_score__min__energy>  (90) 
-8.6799999999999997

>  <m_primary>  (90) 
energy

>  <rmsd>  (90) 
8.813134870939743

>  <m_score__min__rmsd>  (90) 
8.813134870939743

>  <meeko>  (90) 
{"free_energy": -7.75, "intermolecular_energy": -9.24, "internal_energy": -1.65, "cluster_size": 6, "cluster_id": 2, "rank_in_cluster": 6}

>  <energy>  (90) 
-8.36

>  <cluster_rmsd>  (90) 
0.0

>  <cluster>  (90) 
2

$$$$

     RDKit          3D

 51 54  0  0  0  0  0  0  0  0999 V2000
  138.4390   71.2410  221.4810 O   0  0  0  0  0  0  0  0  0  0  0  0
  139.0230   71.7150  222.4680 C   0  0  0  0  0  0  0  0  0  0  0  0
  139.4570   73.0760  222.5710 N   0  0  0  0  0  0  0  0  0  0  0  0
  139.2310   73.9910  221.4830 C   0  0  0  0  0  0  0  0  0  0  0  0
  140.1560   75.1130  221.3700 C   0  0  0  0  0  0  0  0  0  0  0  0
  141.2920   74.9560  221.9650 O   0  0  0  0  0  0  0  0  0  0  0  0
  139.9400   76.3300  220.6840 N   0  0  0  0  0  0  0  0  0  0  0  0
  138.9160   77.0730  219.9800 C   0  0  0  0  0  0  0  0  0  0  0  0
  140.0360   77.6940  219.1630 C   0  0  0  0  0  0  0  0  0  0  0  0
  140.8370   77.4660  220.3970 C   0  0  1  0  0  0  0  0  0  0  0  0
  140.7970   78.5640  221.4330 C   0  0  0  0  0  0  0  0  0  0  0  0
  141.7280   79.6820  221.0330 C   0  0  0  0  0  0  0  0  0  0  0  0
  141.8080   80.7200  222.1210 C   0  0  0  0  0  0  0  0  0  0  0  0
  142.4430   80.0590  223.3380 C   0  0  0  0  0  0  0  0  0  0  0  0
  141.4600   79.0200  223.8110 C   0  0  0  0  0  0  0  0  0  0  0  0
  141.1850   77.9810  222.7510 C   0  0  0  0  0  0  0  0  0  0  0  0
  139.3000   70.8310  223.6180 C   0  0  0  0  0  0  0  0  0  0  0  0
  138.9410   69.5040  223.5910 C   0  0  0  0  0  0  0  0  0  0  0  0
  139.1960   68.6630  224.6710 C   0  0  0  0  0  0  0  0  0  0  0  0
  139.8230   69.1540  225.8050 C   0  0  0  0  0  0  0  0  0  0  0  0
  140.0930   68.3450  226.8990 C   0  0  0  0  0  0  0  0  0  0  0  0
  140.7230   68.8700  228.0170 C   0  0  0  0  0  0  0  0  0  0  0  0
  140.9890   68.0840  229.0900 F   0  0  0  0  0  0  0  0  0  0  0  0
  141.0770   70.2230  228.0200 C   0  0  0  0  0  0  0  0  0  0  0  0
  140.7950   71.0150  226.9070 C   0  0  0  0  0  0  0  0  0  0  0  0
  140.1670   70.4910  225.7910 C   0  0  0  0  0  0  0  0  0  0  0  0
  139.9060   71.2780  224.7310 N   0  0  0  0  0  0  0  0  0  0  0  0
  139.9400   73.3830  223.4610 H   0  0  0  0  0  0  0  0  0  0  0  0
  139.2874   73.4165  220.5467 H   0  0  0  0  0  0  0  0  0  0  0  0
  138.2491   74.4440  221.6845 H   0  0  0  0  0  0  0  0  0  0  0  0
  138.2135   76.4543  219.4023 H   0  0  0  0  0  0  0  0  0  0  0  0
  138.1738   77.6871  220.5111 H   0  0  0  0  0  0  0  0  0  0  0  0
  140.3527   77.1195  218.2800 H   0  0  0  0  0  0  0  0  0  0  0  0
  139.9564   78.6673  218.6567 H   0  0  0  0  0  0  0  0  0  0  0  0
  141.9311   77.3630  220.3488 H   0  0  0  0  0  0  0  0  0  0  0  0
  139.7842   78.9864  221.5093 H   0  0  0  0  0  0  0  0  0  0  0  0
  142.7316   79.2695  220.8524 H   0  0  0  0  0  0  0  0  0  0  0  0
  141.3411   80.1557  220.1187 H   0  0  0  0  0  0  0  0  0  0  0  0
  142.4264   81.5665  221.7878 H   0  0  0  0  0  0  0  0  0  0  0  0
  140.8062   81.1026  222.3662 H   0  0  0  0  0  0  0  0  0  0  0  0
  143.3959   79.5845  223.0608 H   0  0  0  0  0  0  0  0  0  0  0  0
  142.6603   80.7945  224.1266 H   0  0  0  0  0  0  0  0  0  0  0  0
  141.8713   78.5203  224.7005 H   0  0  0  0  0  0  0  0  0  0  0  0
  140.5127   79.5282  224.0439 H   0  0  0  0  0  0  0  0  0  0  0  0
  142.0939   77.3775  222.6108 H   0  0  0  0  0  0  0  0  0  0  0  0
  140.3342   77.3783  223.1015 H   0  0  0  0  0  0  0  0  0  0  0  0
  138.4423   69.0986  222.6983 H   0  0  0  0  0  0  0  0  0  0  0  0
  138.8987   67.6050  224.6239 H   0  0  0  0  0  0  0  0  0  0  0  0
  139.8063   67.2832  226.8795 H   0  0  0  0  0  0  0  0  0  0  0  0
  141.5760   70.6610  228.8970 H   0  0  0  0  0  0  0  0  0  0  0  0
  141.0777   72.0780  226.9167 H   0  0  0  0  0  0  0  0  0  0  0  0
  1  2  2  0
  2  3  1  0
  3  4  1  0
  4  5  1  0
  5  6  2  0
  5  7  1  0
  7  8  1  0
  8  9  1  0
  9 10  1  0
 10 11  1  0
 11 12  1  0
 12 13  1  0
 13 14  1  0
 14 15  1  0
 15 16  1  0
  2 17  1  0
 17 18  2  0
 18 19  1  0
 19 20  2  0
 20 21  1  0
 21 22  2  0
 22 23  1  0
 22 24  1  0
 24 25  2  0
 25 26  1  0
 26 27  2  0
 10  7  1  0
 16 11  1  0
 27 17  1  0
 26 20  1  0
  3 28  1  0
  4 29  1  0
  4 30  1  0
  8 31  1  0
  8 32  1  0
  9 33  1  0
  9 34  1  0
 10 35  1  6
 11 36  1  0
 12 37  1  0
 12 38  1  0
 13 39  1  0
 13 40  1  0
 14 41  1  0
 14 42  1  0
 15 43  1  0
 15 44  1  0
 16 45  1  0
 16 46  1  0
 18 47  1  0
 19 48  1  0
 21 49  1  0
 24 50  1  0
 25 51  1  0
M  END
>  <smiles>  (91) 
O=C(NCC(=O)N1CCC1C1CCCCC1)c1ccc2cc(F)ccc2n1

>  <score_type>  (91) 
oracle

>  <origin>  (91) 
autodockgpu

>  <m_score__min__energy>  (91) 
-8.6799999999999997

>  <m_primary>  (91) 
energy

>  <rmsd>  (91) 
2.276993934519241

>  <m_score__min__rmsd>  (91) 
2.276993934519241

>  <meeko>  (91) 
{"free_energy": -8.03, "intermolecular_energy": -9.52, "internal_energy": -1.55, "cluster_size": 39, "cluster_id": 1, "rank_in_cluster": 34}

>  <energy>  (91) 
-8.35

>  <cluster_rmsd>  (91) 
0.09

>  <cluster>  (91) 
2

$$$$

     RDKit          3D

 51 54  0  0  0  0  0  0  0  0999 V2000
  140.0290   71.8200  220.9990 O   0  0  0  0  0  0  0  0  0  0  0  0
  139.8880   72.3360  222.1190 C   0  0  0  0  0  0  0  0  0  0  0  0
  139.6810   73.7350  222.3420 N   0  0  0  0  0  0  0  0  0  0  0  0
  139.6350   74.6450  221.2290 C   0  0  0  0  0  0  0  0  0  0  0  0
  140.8790   75.3260  220.8890 C   0  0  0  0  0  0  0  0  0  0  0  0
  141.9600   74.6880  221.1940 O   0  0  0  0  0  0  0  0  0  0  0  0
  141.0180   76.5880  220.2670 N   0  0  0  0  0  0  0  0  0  0  0  0
  140.4690   77.3970  219.1990 C   0  0  0  0  0  0  0  0  0  0  0  0
  141.8390   78.0410  219.0860 C   0  0  0  0  0  0  0  0  0  0  0  0
  141.9270   77.7190  220.5360 C   0  0  1  0  0  0  0  0  0  0  0  0
  141.3670   78.7510  221.4860 C   0  0  0  0  0  0  0  0  0  0  0  0
  142.1480   80.0370  221.3660 C   0  0  0  0  0  0  0  0  0  0  0  0
  141.6950   81.0300  222.4030 C   0  0  0  0  0  0  0  0  0  0  0  0
  142.0400   80.4530  223.7710 C   0  0  0  0  0  0  0  0  0  0  0  0
  141.1730   79.2330  223.9410 C   0  0  0  0  0  0  0  0  0  0  0  0
  141.4360   78.2020  222.8710 C   0  0  0  0  0  0  0  0  0  0  0  0
  139.9370   71.4630  223.3100 C   0  0  0  0  0  0  0  0  0  0  0  0
  139.5230   70.1540  223.2430 C   0  0  0  0  0  0  0  0  0  0  0  0
  139.5640   69.3230  224.3610 C   0  0  0  0  0  0  0  0  0  0  0  0
  140.0270   69.8080  225.5730 C   0  0  0  0  0  0  0  0  0  0  0  0
  140.0820   69.0100  226.7070 C   0  0  0  0  0  0  0  0  0  0  0  0
  140.5520   69.5280  227.9040 C   0  0  0  0  0  0  0  0  0  0  0  0
  140.6080   68.7520  229.0150 F   0  0  0  0  0  0  0  0  0  0  0  0
  140.9660   70.8630  227.9450 C   0  0  0  0  0  0  0  0  0  0  0  0
  140.9010   71.6450  226.7920 C   0  0  0  0  0  0  0  0  0  0  0  0
  140.4330   71.1280  225.5970 C   0  0  0  0  0  0  0  0  0  0  0  0
  140.3800   71.9040  224.4990 N   0  0  0  0  0  0  0  0  0  0  0  0
  139.5640   74.0730  223.3390 H   0  0  0  0  0  0  0  0  0  0  0  0
  139.3147   74.0744  220.3448 H   0  0  0  0  0  0  0  0  0  0  0  0
  138.9427   75.4429  221.5359 H   0  0  0  0  0  0  0  0  0  0  0  0
  140.1514   76.8319  218.3103 H   0  0  0  0  0  0  0  0  0  0  0  0
  139.5547   77.9939  219.3323 H   0  0  0  0  0  0  0  0  0  0  0  0
  142.5574   77.5152  218.4399 H   0  0  0  0  0  0  0  0  0  0  0  0
  142.0099   79.0455  218.6715 H   0  0  0  0  0  0  0  0  0  0  0  0
  142.9027   77.5946  221.0284 H   0  0  0  0  0  0  0  0  0  0  0  0
  140.3187   78.9747  221.2390 H   0  0  0  0  0  0  0  0  0  0  0  0
  143.2177   79.8253  221.5109 H   0  0  0  0  0  0  0  0  0  0  0  0
  141.9769   80.4642  220.3669 H   0  0  0  0  0  0  0  0  0  0  0  0
  142.2149   81.9884  222.2576 H   0  0  0  0  0  0  0  0  0  0  0  0
  140.6131   81.2105  222.3202 H   0  0  0  0  0  0  0  0  0  0  0  0
  143.1033   80.1741  223.8105 H   0  0  0  0  0  0  0  0  0  0  0  0
  141.8637   81.1859  224.5721 H   0  0  0  0  0  0  0  0  0  0  0  0
  141.3783   78.7851  224.9245 H   0  0  0  0  0  0  0  0  0  0  0  0
  140.1221   79.5477  223.8600 H   0  0  0  0  0  0  0  0  0  0  0  0
  142.4409   77.7837  223.0301 H   0  0  0  0  0  0  0  0  0  0  0  0
  140.6482   77.4391  222.9562 H   0  0  0  0  0  0  0  0  0  0  0  0
  139.1519   69.7543  222.2877 H   0  0  0  0  0  0  0  0  0  0  0  0
  139.2277   68.2788  224.2807 H   0  0  0  0  0  0  0  0  0  0  0  0
  139.7513   67.9621  226.6559 H   0  0  0  0  0  0  0  0  0  0  0  0
  141.3419   71.2952  228.8841 H   0  0  0  0  0  0  0  0  0  0  0  0
  141.2285   72.6943  226.8335 H   0  0  0  0  0  0  0  0  0  0  0  0
  1  2  2  0
  2  3  1  0
  3  4  1  0
  4  5  1  0
  5  6  2  0
  5  7  1  0
  7  8  1  0
  8  9  1  0
  9 10  1  0
 10 11  1  0
 11 12  1  0
 12 13  1  0
 13 14  1  0
 14 15  1  0
 15 16  1  0
  2 17  1  0
 17 18  2  0
 18 19  1  0
 19 20  2  0
 20 21  1  0
 21 22  2  0
 22 23  1  0
 22 24  1  0
 24 25  2  0
 25 26  1  0
 26 27  2  0
 10  7  1  0
 16 11  1  0
 27 17  1  0
 26 20  1  0
  3 28  1  0
  4 29  1  0
  4 30  1  0
  8 31  1  0
  8 32  1  0
  9 33  1  0
  9 34  1  0
 10 35  1  1
 11 36  1  0
 12 37  1  0
 12 38  1  0
 13 39  1  0
 13 40  1  0
 14 41  1  0
 14 42  1  0
 15 43  1  0
 15 44  1  0
 16 45  1  0
 16 46  1  0
 18 47  1  0
 19 48  1  0
 21 49  1  0
 24 50  1  0
 25 51  1  0
M  END
>  <smiles>  (92) 
O=C(NCC(=O)N1CCC1C1CCCCC1)c1ccc2cc(F)ccc2n1

>  <score_type>  (92) 
oracle

>  <origin>  (92) 
autodockgpu

>  <m_score__min__energy>  (92) 
-8.6799999999999997

>  <m_primary>  (92) 
energy

>  <rmsd>  (92) 
2.570284532883538

>  <m_score__min__rmsd>  (92) 
2.570284532883538

>  <meeko>  (92) 
{"free_energy": -8.25, "intermolecular_energy": -9.74, "internal_energy": -1.3, "cluster_size": 39, "cluster_id": 1, "rank_in_cluster": 28}

>  <energy>  (92) 
-8.33

>  <cluster_rmsd>  (92) 
0.11

>  <cluster>  (92) 
2

$$$$

     RDKit          3D

 51 54  0  0  0  0  0  0  0  0999 V2000
  141.2000   71.9660  221.3960 O   0  0  0  0  0  0  0  0  0  0  0  0
  140.4180   72.3150  222.2940 C   0  0  0  0  0  0  0  0  0  0  0  0
  139.6680   73.5340  222.2800 N   0  0  0  0  0  0  0  0  0  0  0  0
  139.8010   74.4530  221.1800 C   0  0  0  0  0  0  0  0  0  0  0  0
  139.8940   75.8690  221.5170 C   0  0  0  0  0  0  0  0  0  0  0  0
  139.3800   76.2010  222.6560 O   0  0  0  0  0  0  0  0  0  0  0  0
  140.4820   76.8930  220.7420 N   0  0  0  0  0  0  0  0  0  0  0  0
  140.3830   77.5440  219.4520 C   0  0  0  0  0  0  0  0  0  0  0  0
  141.8720   77.8190  219.5620 C   0  0  0  0  0  0  0  0  0  0  0  0
  141.5960   77.8200  221.0240 C   0  0  1  0  0  0  0  0  0  0  0  0
  141.1670   79.1380  221.6230 C   0  0  0  0  0  0  0  0  0  0  0  0
  142.1570   80.2160  221.2530 C   0  0  0  0  0  0  0  0  0  0  0  0
  141.8230   81.5050  221.9570 C   0  0  0  0  0  0  0  0  0  0  0  0
  141.9970   81.2690  223.4520 C   0  0  0  0  0  0  0  0  0  0  0  0
  140.9310   80.2790  223.8460 C   0  0  0  0  0  0  0  0  0  0  0  0
  141.0720   78.9730  223.1030 C   0  0  0  0  0  0  0  0  0  0  0  0
  140.2400   71.4270  223.4610 C   0  0  0  0  0  0  0  0  0  0  0  0
  139.5880   70.2230  223.3390 C   0  0  0  0  0  0  0  0  0  0  0  0
  139.4140   69.3800  224.4340 C   0  0  0  0  0  0  0  0  0  0  0  0
  139.9000   69.7440  225.6790 C   0  0  0  0  0  0  0  0  0  0  0  0
  139.7460   68.9290  226.7920 C   0  0  0  0  0  0  0  0  0  0  0  0
  140.2450   69.3250  228.0220 C   0  0  0  0  0  0  0  0  0  0  0  0
  140.0970   68.5330  229.1130 F   0  0  0  0  0  0  0  0  0  0  0  0
  140.9040   70.5550  228.1200 C   0  0  0  0  0  0  0  0  0  0  0  0
  141.0470   71.3560  226.9870 C   0  0  0  0  0  0  0  0  0  0  0  0
  140.5490   70.9610  225.7580 C   0  0  0  0  0  0  0  0  0  0  0  0
  140.7000   71.7530  224.6810 N   0  0  0  0  0  0  0  0  0  0  0  0
  139.0200   73.7350  223.0940 H   0  0  0  0  0  0  0  0  0  0  0  0
  140.7123   74.1814  220.6271 H   0  0  0  0  0  0  0  0  0  0  0  0
  138.8682   74.3532  220.6056 H   0  0  0  0  0  0  0  0  0  0  0  0
  140.0976   76.8805  218.6224 H   0  0  0  0  0  0  0  0  0  0  0  0
  139.6558   78.3466  219.2596 H   0  0  0  0  0  0  0  0  0  0  0  0
  142.5298   77.0128  219.2051 H   0  0  0  0  0  0  0  0  0  0  0  0
  142.3824   78.6393  219.0360 H   0  0  0  0  0  0  0  0  0  0  0  0
  142.3916   77.5921  221.7486 H   0  0  0  0  0  0  0  0  0  0  0  0
  140.1848   79.4400  221.2306 H   0  0  0  0  0  0  0  0  0  0  0  0
  143.1675   79.8951  221.5460 H   0  0  0  0  0  0  0  0  0  0  0  0
  142.1113   80.3825  220.1666 H   0  0  0  0  0  0  0  0  0  0  0  0
  142.5016   82.3030  221.6213 H   0  0  0  0  0  0  0  0  0  0  0  0
  140.7917   81.8137  221.7311 H   0  0  0  0  0  0  0  0  0  0  0  0
  142.9957   80.8574  223.6598 H   0  0  0  0  0  0  0  0  0  0  0  0
  141.9045   82.2064  224.0201 H   0  0  0  0  0  0  0  0  0  0  0  0
  141.0088   80.0838  224.9257 H   0  0  0  0  0  0  0  0  0  0  0  0
  139.9528   80.7123  223.5902 H   0  0  0  0  0  0  0  0  0  0  0  0
  141.9831   78.4679  223.4563 H   0  0  0  0  0  0  0  0  0  0  0  0
  140.1644   78.3856  223.3057 H   0  0  0  0  0  0  0  0  0  0  0  0
  139.1959   69.9193  222.3572 H   0  0  0  0  0  0  0  0  0  0  0  0
  138.8887   68.4216  224.3097 H   0  0  0  0  0  0  0  0  0  0  0  0
  139.2255   67.9646  226.6969 H   0  0  0  0  0  0  0  0  0  0  0  0
  141.3080   70.8893  229.0870 H   0  0  0  0  0  0  0  0  0  0  0  0
  141.5665   72.3218  227.0724 H   0  0  0  0  0  0  0  0  0  0  0  0
  1  2  2  0
  2  3  1  0
  3  4  1  0
  4  5  1  0
  5  6  2  0
  5  7  1  0
  7  8  1  0
  8  9  1  0
  9 10  1  0
 10 11  1  0
 11 12  1  0
 12 13  1  0
 13 14  1  0
 14 15  1  0
 15 16  1  0
  2 17  1  0
 17 18  2  0
 18 19  1  0
 19 20  2  0
 20 21  1  0
 21 22  2  0
 22 23  1  0
 22 24  1  0
 24 25  2  0
 25 26  1  0
 26 27  2  0
 10  7  1  0
 16 11  1  0
 27 17  1  0
 26 20  1  0
  3 28  1  0
  4 29  1  0
  4 30  1  0
  8 31  1  0
  8 32  1  0
  9 33  1  0
  9 34  1  0
 10 35  1  1
 11 36  1  0
 12 37  1  0
 12 38  1  0
 13 39  1  0
 13 40  1  0
 14 41  1  0
 14 42  1  0
 15 43  1  0
 15 44  1  0
 16 45  1  0
 16 46  1  0
 18 47  1  0
 19 48  1  0
 21 49  1  0
 24 50  1  0
 25 51  1  0
M  END
>  <smiles>  (93) 
O=C(NCC(=O)N1CCC1C1CCCCC1)c1ccc2cc(F)ccc2n1

>  <score_type>  (93) 
oracle

>  <origin>  (93) 
autodockgpu

>  <m_score__min__energy>  (93) 
-8.6799999999999997

>  <m_primary>  (93) 
energy

>  <rmsd>  (93) 
2.6658459751653805

>  <m_score__min__rmsd>  (93) 
2.6658459751653805

>  <meeko>  (93) 
{"free_energy": -8.53, "intermolecular_energy": -10.02, "internal_energy": -1.29, "cluster_size": 39, "cluster_id": 1, "rank_in_cluster": 5}

>  <energy>  (93) 
-8.31

>  <cluster_rmsd>  (93) 
0.26

>  <cluster>  (93) 
2

$$$$

     RDKit          3D

 51 54  0  0  0  0  0  0  0  0999 V2000
  138.5470   71.2400  221.4090 O   0  0  0  0  0  0  0  0  0  0  0  0
  139.0970   71.7140  222.4160 C   0  0  0  0  0  0  0  0  0  0  0  0
  139.5100   73.0790  222.5420 N   0  0  0  0  0  0  0  0  0  0  0  0
  139.3050   73.9990  221.4550 C   0  0  0  0  0  0  0  0  0  0  0  0
  140.2210   75.1310  221.3740 C   0  0  0  0  0  0  0  0  0  0  0  0
  141.3500   74.9730  221.9830 O   0  0  0  0  0  0  0  0  0  0  0  0
  140.0040   76.3570  220.7060 N   0  0  0  0  0  0  0  0  0  0  0  0
  138.9810   77.1100  220.0120 C   0  0  0  0  0  0  0  0  0  0  0  0
  140.1010   77.7440  219.2070 C   0  0  0  0  0  0  0  0  0  0  0  0
  140.9010   77.4990  220.4380 C   0  0  1  0  0  0  0  0  0  0  0  0
  140.8580   78.5810  221.4910 C   0  0  0  0  0  0  0  0  0  0  0  0
  141.7950   79.7020  221.1140 C   0  0  0  0  0  0  0  0  0  0  0  0
  141.8720   80.7220  222.2190 C   0  0  0  0  0  0  0  0  0  0  0  0
  142.4950   80.0400  223.4300 C   0  0  0  0  0  0  0  0  0  0  0  0
  141.5050   78.9980  223.8800 C   0  0  0  0  0  0  0  0  0  0  0  0
  141.2340   77.9760  222.8020 C   0  0  0  0  0  0  0  0  0  0  0  0
  139.3500   70.8240  223.5670 C   0  0  0  0  0  0  0  0  0  0  0  0
  138.9750   69.5020  223.5340 C   0  0  0  0  0  0  0  0  0  0  0  0
  139.2090   68.6550  224.6150 C   0  0  0  0  0  0  0  0  0  0  0  0
  139.8310   69.1360  225.7560 C   0  0  0  0  0  0  0  0  0  0  0  0
  140.0800   68.3220  226.8510 C   0  0  0  0  0  0  0  0  0  0  0  0
  140.7050   68.8360  227.9760 C   0  0  0  0  0  0  0  0  0  0  0  0
  140.9510   68.0450  229.0500 F   0  0  0  0  0  0  0  0  0  0  0  0
  141.0770   70.1850  227.9850 C   0  0  0  0  0  0  0  0  0  0  0  0
  140.8150   70.9830  226.8710 C   0  0  0  0  0  0  0  0  0  0  0  0
  140.1920   70.4690  225.7480 C   0  0  0  0  0  0  0  0  0  0  0  0
  139.9510   71.2610  224.6870 N   0  0  0  0  0  0  0  0  0  0  0  0
  139.9640   73.3850  223.4490 H   0  0  0  0  0  0  0  0  0  0  0  0
  139.3926   73.4314  220.5168 H   0  0  0  0  0  0  0  0  0  0  0  0
  138.3137   74.4412  221.6333 H   0  0  0  0  0  0  0  0  0  0  0  0
  138.2799   76.4998  219.4237 H   0  0  0  0  0  0  0  0  0  0  0  0
  138.2376   77.7153  220.5514 H   0  0  0  0  0  0  0  0  0  0  0  0
  140.4196   77.1831  218.3160 H   0  0  0  0  0  0  0  0  0  0  0  0
  140.0208   78.7248  218.7155 H   0  0  0  0  0  0  0  0  0  0  0  0
  141.9954   77.3986  220.3899 H   0  0  0  0  0  0  0  0  0  0  0  0
  139.8464   79.0062  221.5677 H   0  0  0  0  0  0  0  0  0  0  0  0
  142.7983   79.2891  220.9325 H   0  0  0  0  0  0  0  0  0  0  0  0
  141.4151   80.1915  220.2051 H   0  0  0  0  0  0  0  0  0  0  0  0
  142.4965   81.5708  221.9036 H   0  0  0  0  0  0  0  0  0  0  0  0
  140.8700   81.1047  222.4631 H   0  0  0  0  0  0  0  0  0  0  0  0
  143.4481   79.5660  223.1525 H   0  0  0  0  0  0  0  0  0  0  0  0
  142.7090   80.7625  224.2313 H   0  0  0  0  0  0  0  0  0  0  0  0
  141.9079   78.4833  224.7648 H   0  0  0  0  0  0  0  0  0  0  0  0
  140.5579   79.5062  224.1138 H   0  0  0  0  0  0  0  0  0  0  0  0
  142.1417   77.3713  222.6591 H   0  0  0  0  0  0  0  0  0  0  0  0
  140.3787   77.3708  223.1369 H   0  0  0  0  0  0  0  0  0  0  0  0
  138.4800   69.1047  222.6356 H   0  0  0  0  0  0  0  0  0  0  0  0
  138.8990   67.6009  224.5626 H   0  0  0  0  0  0  0  0  0  0  0  0
  139.7801   67.2640  226.8264 H   0  0  0  0  0  0  0  0  0  0  0  0
  141.5742   70.6146  228.8672 H   0  0  0  0  0  0  0  0  0  0  0  0
  141.1099   72.0426  226.8860 H   0  0  0  0  0  0  0  0  0  0  0  0
  1  2  2  0
  2  3  1  0
  3  4  1  0
  4  5  1  0
  5  6  2  0
  5  7  1  0
  7  8  1  0
  8  9  1  0
  9 10  1  0
 10 11  1  0
 11 12  1  0
 12 13  1  0
 13 14  1  0
 14 15  1  0
 15 16  1  0
  2 17  1  0
 17 18  2  0
 18 19  1  0
 19 20  2  0
 20 21  1  0
 21 22  2  0
 22 23  1  0
 22 24  1  0
 24 25  2  0
 25 26  1  0
 26 27  2  0
 10  7  1  0
 16 11  1  0
 27 17  1  0
 26 20  1  0
  3 28  1  0
  4 29  1  0
  4 30  1  0
  8 31  1  0
  8 32  1  0
  9 33  1  0
  9 34  1  0
 10 35  1  6
 11 36  1  0
 12 37  1  0
 12 38  1  0
 13 39  1  0
 13 40  1  0
 14 41  1  0
 14 42  1  0
 15 43  1  0
 15 44  1  0
 16 45  1  0
 16 46  1  0
 18 47  1  0
 19 48  1  0
 21 49  1  0
 24 50  1  0
 25 51  1  0
M  END
>  <smiles>  (94) 
O=C(NCC(=O)N1CCC1C1CCCCC1)c1ccc2cc(F)ccc2n1

>  <score_type>  (94) 
oracle

>  <origin>  (94) 
autodockgpu

>  <m_score__min__energy>  (94) 
-8.6799999999999997

>  <m_primary>  (94) 
energy

>  <rmsd>  (94) 
2.3059955379366825

>  <m_score__min__rmsd>  (94) 
2.3059955379366825

>  <meeko>  (94) 
{"free_energy": -8.03, "intermolecular_energy": -9.53, "internal_energy": -1.54, "cluster_size": 39, "cluster_id": 1, "rank_in_cluster": 33}

>  <energy>  (94) 
-7.88

>  <cluster_rmsd>  (94) 
1.51

>  <cluster>  (94) 
2

$$$$

     RDKit          3D

 51 54  0  0  0  0  0  0  0  0999 V2000
  140.0390   71.1080  221.1710 O   0  0  0  0  0  0  0  0  0  0  0  0
  139.9140   71.6530  222.2800 C   0  0  0  0  0  0  0  0  0  0  0  0
  139.7980   73.0670  222.4750 N   0  0  0  0  0  0  0  0  0  0  0  0
  139.8330   73.9580  221.3450 C   0  0  0  0  0  0  0  0  0  0  0  0
  139.8190   75.3860  221.6370 C   0  0  0  0  0  0  0  0  0  0  0  0
  139.3080   75.7120  222.7780 O   0  0  0  0  0  0  0  0  0  0  0  0
  140.3030   76.4290  220.8150 N   0  0  0  0  0  0  0  0  0  0  0  0
  140.0380   77.1090  219.5650 C   0  0  0  0  0  0  0  0  0  0  0  0
  141.5290   77.3850  219.4870 C   0  0  0  0  0  0  0  0  0  0  0  0
  141.4450   77.3510  220.9730 C   0  0  1  0  0  0  0  0  0  0  0  0
  141.0990   78.6550  221.6520 C   0  0  0  0  0  0  0  0  0  0  0  0
  141.8710   79.7860  221.0180 C   0  0  0  0  0  0  0  0  0  0  0  0
  141.6470   81.0690  221.7730 C   0  0  0  0  0  0  0  0  0  0  0  0
  142.2330   80.8890  223.1680 C   0  0  0  0  0  0  0  0  0  0  0  0
  141.3870   79.8420  223.8450 C   0  0  0  0  0  0  0  0  0  0  0  0
  141.4180   78.5270  223.1040 C   0  0  0  0  0  0  0  0  0  0  0  0
  139.8840   70.8020  223.4870 C   0  0  0  0  0  0  0  0  0  0  0  0
  139.3260   69.5460  223.4500 C   0  0  0  0  0  0  0  0  0  0  0  0
  139.2920   68.7360  224.5840 C   0  0  0  0  0  0  0  0  0  0  0  0
  139.8250   69.1880  225.7800 C   0  0  0  0  0  0  0  0  0  0  0  0
  139.8080   68.4080  226.9280 C   0  0  0  0  0  0  0  0  0  0  0  0
  140.3500   68.8920  228.1080 C   0  0  0  0  0  0  0  0  0  0  0  0
  140.3360   68.1350  229.2330 F   0  0  0  0  0  0  0  0  0  0  0  0
  140.9110   70.1740  228.1190 C   0  0  0  0  0  0  0  0  0  0  0  0
  140.9150   70.9370  226.9510 C   0  0  0  0  0  0  0  0  0  0  0  0
  140.3740   70.4550  225.7730 C   0  0  0  0  0  0  0  0  0  0  0  0
  140.3920   71.2120  224.6610 N   0  0  0  0  0  0  0  0  0  0  0  0
  139.6870   73.4310  223.4630 H   0  0  0  0  0  0  0  0  0  0  0  0
  140.7511   73.7425  220.7788 H   0  0  0  0  0  0  0  0  0  0  0  0
  138.8992   73.7659  220.7962 H   0  0  0  0  0  0  0  0  0  0  0  0
  139.6469   76.4641  218.7643 H   0  0  0  0  0  0  0  0  0  0  0  0
  139.2925   77.9141  219.4874 H   0  0  0  0  0  0  0  0  0  0  0  0
  142.1344   76.5890  219.0288 H   0  0  0  0  0  0  0  0  0  0  0  0
  141.9673   78.2186  218.9186 H   0  0  0  0  0  0  0  0  0  0  0  0
  142.3267   77.1072  221.5839 H   0  0  0  0  0  0  0  0  0  0  0  0
  140.0283   78.8790  221.5360 H   0  0  0  0  0  0  0  0  0  0  0  0
  142.9436   79.5425  221.0292 H   0  0  0  0  0  0  0  0  0  0  0  0
  141.5215   79.9177  219.9833 H   0  0  0  0  0  0  0  0  0  0  0  0
  142.1512   81.9003  221.2584 H   0  0  0  0  0  0  0  0  0  0  0  0
  140.5734   81.3014  221.8312 H   0  0  0  0  0  0  0  0  0  0  0  0
  143.2779   80.5516  223.1025 H   0  0  0  0  0  0  0  0  0  0  0  0
  142.2289   81.8343  223.7305 H   0  0  0  0  0  0  0  0  0  0  0  0
  141.7659   79.6841  224.8655 H   0  0  0  0  0  0  0  0  0  0  0  0
  140.3473   80.2008  223.8589 H   0  0  0  0  0  0  0  0  0  0  0  0
  142.4249   78.0953  223.2026 H   0  0  0  0  0  0  0  0  0  0  0  0
  140.6438   77.8855  223.5503 H   0  0  0  0  0  0  0  0  0  0  0  0
  138.8983   69.1732  222.5076 H   0  0  0  0  0  0  0  0  0  0  0  0
  138.8404   67.7345  224.5289 H   0  0  0  0  0  0  0  0  0  0  0  0
  139.3629   67.4024  226.9010 H   0  0  0  0  0  0  0  0  0  0  0  0
  141.3469   70.5783  229.0445 H   0  0  0  0  0  0  0  0  0  0  0  0
  141.3580   71.9437  226.9674 H   0  0  0  0  0  0  0  0  0  0  0  0
  1  2  2  0
  2  3  1  0
  3  4  1  0
  4  5  1  0
  5  6  2  0
  5  7  1  0
  7  8  1  0
  8  9  1  0
  9 10  1  0
 10 11  1  0
 11 12  1  0
 12 13  1  0
 13 14  1  0
 14 15  1  0
 15 16  1  0
  2 17  1  0
 17 18  2  0
 18 19  1  0
 19 20  2  0
 20 21  1  0
 21 22  2  0
 22 23  1  0
 22 24  1  0
 24 25  2  0
 25 26  1  0
 26 27  2  0
 10  7  1  0
 16 11  1  0
 27 17  1  0
 26 20  1  0
  3 28  1  0
  4 29  1  0
  4 30  1  0
  8 31  1  0
  8 32  1  0
  9 33  1  0
  9 34  1  0
 10 35  1  1
 11 36  1  0
 12 37  1  0
 12 38  1  0
 13 39  1  0
 13 40  1  0
 14 41  1  0
 14 42  1  0
 15 43  1  0
 15 44  1  0
 16 45  1  0
 16 46  1  0
 18 47  1  0
 19 48  1  0
 21 49  1  0
 24 50  1  0
 25 51  1  0
M  END
>  <smiles>  (95) 
O=C(NCC(=O)N1CCC1C1CCCCC1)c1ccc2cc(F)ccc2n1

>  <score_type>  (95) 
oracle

>  <origin>  (95) 
autodockgpu

>  <m_score__min__energy>  (95) 
-8.6799999999999997

>  <m_primary>  (95) 
energy

>  <rmsd>  (95) 
2.3866171322312826

>  <m_score__min__rmsd>  (95) 
2.3866171322312826

>  <meeko>  (95) 
{"free_energy": -8.34, "intermolecular_energy": -9.83, "internal_energy": -1.53, "cluster_size": 39, "cluster_id": 1, "rank_in_cluster": 20}

>  <energy>  (95) 
-7.75

>  <cluster_rmsd>  (95) 
1.58

>  <cluster>  (95) 
2

$$$$

     RDKit          3D

 51 54  0  0  0  0  0  0  0  0999 V2000
  140.0110   71.0230  221.2150 O   0  0  0  0  0  0  0  0  0  0  0  0
  139.9220   71.5870  222.3170 C   0  0  0  0  0  0  0  0  0  0  0  0
  139.8540   73.0060  222.4930 N   0  0  0  0  0  0  0  0  0  0  0  0
  139.8970   73.8790  221.3500 C   0  0  0  0  0  0  0  0  0  0  0  0
  139.7740   75.3080  221.6130 C   0  0  0  0  0  0  0  0  0  0  0  0
  139.2150   75.6180  222.7360 O   0  0  0  0  0  0  0  0  0  0  0  0
  140.2000   76.3680  220.7800 N   0  0  0  0  0  0  0  0  0  0  0  0
  139.8510   77.0710  219.5630 C   0  0  0  0  0  0  0  0  0  0  0  0
  141.3330   77.3520  219.3910 C   0  0  0  0  0  0  0  0  0  0  0  0
  141.3480   77.2910  220.8790 C   0  0  1  0  0  0  0  0  0  0  0  0
  141.0450   78.5800  221.6040 C   0  0  0  0  0  0  0  0  0  0  0  0
  141.8270   79.7140  220.9850 C   0  0  0  0  0  0  0  0  0  0  0  0
  141.6470   80.9780  221.7830 C   0  0  0  0  0  0  0  0  0  0  0  0
  142.2610   80.7440  223.1580 C   0  0  0  0  0  0  0  0  0  0  0  0
  141.4090   79.6950  223.8240 C   0  0  0  0  0  0  0  0  0  0  0  0
  141.3950   78.4030  223.0440 C   0  0  0  0  0  0  0  0  0  0  0  0
  139.8850   70.7540  223.5370 C   0  0  0  0  0  0  0  0  0  0  0  0
  139.3090   69.5060  223.5220 C   0  0  0  0  0  0  0  0  0  0  0  0
  139.2680   68.7140  224.6670 C   0  0  0  0  0  0  0  0  0  0  0  0
  139.8130   69.1750  225.8540 C   0  0  0  0  0  0  0  0  0  0  0  0
  139.7910   68.4140  227.0140 C   0  0  0  0  0  0  0  0  0  0  0  0
  140.3460   68.9070  228.1840 C   0  0  0  0  0  0  0  0  0  0  0  0
  140.3270   68.1670  229.3200 F   0  0  0  0  0  0  0  0  0  0  0  0
  140.9260   70.1800  228.1720 C   0  0  0  0  0  0  0  0  0  0  0  0
  140.9350   70.9260  226.9940 C   0  0  0  0  0  0  0  0  0  0  0  0
  140.3820   70.4340  225.8260 C   0  0  0  0  0  0  0  0  0  0  0  0
  140.4050   71.1750  224.7030 N   0  0  0  0  0  0  0  0  0  0  0  0
  139.7710   73.3870  223.4780 H   0  0  0  0  0  0  0  0  0  0  0  0
  140.8585   73.7152  220.8413 H   0  0  0  0  0  0  0  0  0  0  0  0
  139.0111   73.6175  220.7527 H   0  0  0  0  0  0  0  0  0  0  0  0
  139.4080   76.4403  218.7781 H   0  0  0  0  0  0  0  0  0  0  0  0
  139.1010   77.8756  219.5505 H   0  0  0  0  0  0  0  0  0  0  0  0
  141.9075   76.5659  218.8792 H   0  0  0  0  0  0  0  0  0  0  0  0
  141.7315   78.1967  218.8099 H   0  0  0  0  0  0  0  0  0  0  0  0
  142.2692   77.0397  221.4251 H   0  0  0  0  0  0  0  0  0  0  0  0
  139.9767   78.8283  221.5203 H   0  0  0  0  0  0  0  0  0  0  0  0
  142.8942   79.4483  220.9641 H   0  0  0  0  0  0  0  0  0  0  0  0
  141.4576   79.8837  219.9629 H   0  0  0  0  0  0  0  0  0  0  0  0
  142.1564   81.8142  221.2817 H   0  0  0  0  0  0  0  0  0  0  0  0
  140.5801   81.2301  221.8733 H   0  0  0  0  0  0  0  0  0  0  0  0
  143.2967   80.3872  223.0577 H   0  0  0  0  0  0  0  0  0  0  0  0
  142.2898   81.6719  223.7481 H   0  0  0  0  0  0  0  0  0  0  0  0
  141.8082   79.4987  224.8301 H   0  0  0  0  0  0  0  0  0  0  0  0
  140.3777   80.0745  223.8737 H   0  0  0  0  0  0  0  0  0  0  0  0
  142.3947   77.9482  223.1059 H   0  0  0  0  0  0  0  0  0  0  0  0
  140.6177   77.7648  223.4895 H   0  0  0  0  0  0  0  0  0  0  0  0
  138.8718   69.1252  222.5872 H   0  0  0  0  0  0  0  0  0  0  0  0
  138.8011   67.7188  224.6285 H   0  0  0  0  0  0  0  0  0  0  0  0
  139.3309   67.4149  227.0048 H   0  0  0  0  0  0  0  0  0  0  0  0
  141.3735   70.5911  229.0889 H   0  0  0  0  0  0  0  0  0  0  0  0
  141.3915   71.9268  226.9938 H   0  0  0  0  0  0  0  0  0  0  0  0
  1  2  2  0
  2  3  1  0
  3  4  1  0
  4  5  1  0
  5  6  2  0
  5  7  1  0
  7  8  1  0
  8  9  1  0
  9 10  1  0
 10 11  1  0
 11 12  1  0
 12 13  1  0
 13 14  1  0
 14 15  1  0
 15 16  1  0
  2 17  1  0
 17 18  2  0
 18 19  1  0
 19 20  2  0
 20 21  1  0
 21 22  2  0
 22 23  1  0
 22 24  1  0
 24 25  2  0
 25 26  1  0
 26 27  2  0
 10  7  1  0
 16 11  1  0
 27 17  1  0
 26 20  1  0
  3 28  1  0
  4 29  1  0
  4 30  1  0
  8 31  1  0
  8 32  1  0
  9 33  1  0
  9 34  1  0
 10 35  1  6
 11 36  1  0
 12 37  1  0
 12 38  1  0
 13 39  1  0
 13 40  1  0
 14 41  1  0
 14 42  1  0
 15 43  1  0
 15 44  1  0
 16 45  1  0
 16 46  1  0
 18 47  1  0
 19 48  1  0
 21 49  1  0
 24 50  1  0
 25 51  1  0
M  END
>  <smiles>  (96) 
O=C(NCC(=O)N1CCC1C1CCCCC1)c1ccc2cc(F)ccc2n1

>  <score_type>  (96) 
oracle

>  <origin>  (96) 
autodockgpu

>  <m_score__min__energy>  (96) 
-8.6799999999999997

>  <m_primary>  (96) 
energy

>  <rmsd>  (96) 
2.3610705986720166

>  <m_score__min__rmsd>  (96) 
2.3610705986720166

>  <meeko>  (96) 
{"free_energy": -8.33, "intermolecular_energy": -9.83, "internal_energy": -1.53, "cluster_size": 39, "cluster_id": 1, "rank_in_cluster": 21}

>  <energy>  (96) 
-8.15

>  <cluster_rmsd>  (96) 
0.0

>  <cluster>  (96) 
3

$$$$

     RDKit          3D

 51 54  0  0  0  0  0  0  0  0999 V2000
  137.2890   75.7060  222.0740 O   0  0  0  0  0  0  0  0  0  0  0  0
  138.5070   75.8400  222.2730 C   0  0  0  0  0  0  0  0  0  0  0  0
  139.4550   74.7690  222.2180 N   0  0  0  0  0  0  0  0  0  0  0  0
  139.0170   73.4290  221.9260 C   0  0  0  0  0  0  0  0  0  0  0  0
  139.8140   72.3430  222.4860 C   0  0  0  0  0  0  0  0  0  0  0  0
  141.0800   72.5800  222.5840 O   0  0  0  0  0  0  0  0  0  0  0  0
  139.3470   71.0840  222.9270 N   0  0  0  0  0  0  0  0  0  0  0  0
  139.1490   69.7220  222.4780 C   0  0  0  0  0  0  0  0  0  0  0  0
  138.0030   69.6420  223.4700 C   0  0  0  0  0  0  0  0  0  0  0  0
  138.8080   70.6390  224.2270 C   0  0  1  0  0  0  0  0  0  0  0  0
  139.8470   70.0830  225.1710 C   0  0  0  0  0  0  0  0  0  0  0  0
  139.2820   68.8970  225.9150 C   0  0  0  0  0  0  0  0  0  0  0  0
  140.2530   68.4170  226.9610 C   0  0  0  0  0  0  0  0  0  0  0  0
  140.4040   69.5290  227.9920 C   0  0  0  0  0  0  0  0  0  0  0  0
  141.0760   70.6730  227.2780 C   0  0  0  0  0  0  0  0  0  0  0  0
  140.2580   71.1670  226.1100 C   0  0  0  0  0  0  0  0  0  0  0  0
  139.0270   77.1850  222.5910 C   0  0  0  0  0  0  0  0  0  0  0  0
  138.1740   78.2500  222.7610 C   0  0  0  0  0  0  0  0  0  0  0  0
  138.6560   79.5220  223.0600 C   0  0  0  0  0  0  0  0  0  0  0  0
  140.0170   79.7400  223.1930 C   0  0  0  0  0  0  0  0  0  0  0  0
  140.5320   80.9930  223.4900 C   0  0  0  0  0  0  0  0  0  0  0  0
  141.9000   81.1750  223.6160 C   0  0  0  0  0  0  0  0  0  0  0  0
  142.4090   82.3980  223.9060 F   0  0  0  0  0  0  0  0  0  0  0  0
  142.7470   80.0750  223.4380 C   0  0  0  0  0  0  0  0  0  0  0  0
  142.2040   78.8250  223.1400 C   0  0  0  0  0  0  0  0  0  0  0  0
  140.8390   78.6440  223.0140 C   0  0  0  0  0  0  0  0  0  0  0  0
  140.3420   77.4270  222.7260 N   0  0  0  0  0  0  0  0  0  0  0  0
  140.4750   74.9910  222.3960 H   0  0  0  0  0  0  0  0  0  0  0  0
  137.9917   73.3223  222.3098 H   0  0  0  0  0  0  0  0  0  0  0  0
  139.1121   73.3248  220.8351 H   0  0  0  0  0  0  0  0  0  0  0  0
  138.8523   69.6237  221.4233 H   0  0  0  0  0  0  0  0  0  0  0  0
  139.9668   68.9864  222.4735 H   0  0  0  0  0  0  0  0  0  0  0  0
  137.0310   70.0007  223.1004 H   0  0  0  0  0  0  0  0  0  0  0  0
  137.6328   68.7004  223.9018 H   0  0  0  0  0  0  0  0  0  0  0  0
  138.3298   71.3265  224.9402 H   0  0  0  0  0  0  0  0  0  0  0  0
  140.7296   69.7361  224.6136 H   0  0  0  0  0  0  0  0  0  0  0  0
  138.3409   69.1910  226.4028 H   0  0  0  0  0  0  0  0  0  0  0  0
  139.1004   68.0822  225.1986 H   0  0  0  0  0  0  0  0  0  0  0  0
  139.8656   67.5076  227.4437 H   0  0  0  0  0  0  0  0  0  0  0  0
  141.2251   68.1769  226.5056 H   0  0  0  0  0  0  0  0  0  0  0  0
  139.4172   69.8394  228.3659 H   0  0  0  0  0  0  0  0  0  0  0  0
  140.9927   69.1954  228.8593 H   0  0  0  0  0  0  0  0  0  0  0  0
  141.2178   71.5010  227.9881 H   0  0  0  0  0  0  0  0  0  0  0  0
  142.0403   70.3129  226.8902 H   0  0  0  0  0  0  0  0  0  0  0  0
  139.3511   71.6520  226.5003 H   0  0  0  0  0  0  0  0  0  0  0  0
  140.8921   71.8638  225.5423 H   0  0  0  0  0  0  0  0  0  0  0  0
  137.0899   78.0943  222.6589 H   0  0  0  0  0  0  0  0  0  0  0  0
  137.9524   80.3573  223.1911 H   0  0  0  0  0  0  0  0  0  0  0  0
  139.8514   81.8464  223.6262 H   0  0  0  0  0  0  0  0  0  0  0  0
  143.8363   80.1956  223.5327 H   0  0  0  0  0  0  0  0  0  0  0  0
  142.8760   77.9651  223.0023 H   0  0  0  0  0  0  0  0  0  0  0  0
  1  2  2  0
  2  3  1  0
  3  4  1  0
  4  5  1  0
  5  6  2  0
  5  7  1  0
  7  8  1  0
  8  9  1  0
  9 10  1  0
 10 11  1  0
 11 12  1  0
 12 13  1  0
 13 14  1  0
 14 15  1  0
 15 16  1  0
  2 17  1  0
 17 18  2  0
 18 19  1  0
 19 20  2  0
 20 21  1  0
 21 22  2  0
 22 23  1  0
 22 24  1  0
 24 25  2  0
 25 26  1  0
 26 27  2  0
 10  7  1  0
 16 11  1  0
 27 17  1  0
 26 20  1  0
  3 28  1  0
  4 29  1  0
  4 30  1  0
  8 31  1  0
  8 32  1  0
  9 33  1  0
  9 34  1  0
 10 35  1  1
 11 36  1  0
 12 37  1  0
 12 38  1  0
 13 39  1  0
 13 40  1  0
 14 41  1  0
 14 42  1  0
 15 43  1  0
 15 44  1  0
 16 45  1  0
 16 46  1  0
 18 47  1  0
 19 48  1  0
 21 49  1  0
 24 50  1  0
 25 51  1  0
M  END
>  <smiles>  (97) 
O=C(NCC(=O)N1CCC1C1CCCCC1)c1ccc2cc(F)ccc2n1

>  <score_type>  (97) 
oracle

>  <origin>  (97) 
autodockgpu

>  <m_score__min__energy>  (97) 
-8.6799999999999997

>  <m_primary>  (97) 
energy

>  <rmsd>  (97) 
8.848025942805382

>  <m_score__min__rmsd>  (97) 
8.848025942805382

>  <meeko>  (97) 
{"free_energy": -7.88, "intermolecular_energy": -9.37, "internal_energy": -1.61, "cluster_size": 6, "cluster_id": 2, "rank_in_cluster": 5}

>  <energy>  (97) 
-7.93

>  <cluster_rmsd>  (97) 
0.85

>  <cluster>  (97) 
3

$$$$

     RDKit          3D

 51 54  0  0  0  0  0  0  0  0999 V2000
  138.2990   71.2440  221.5780 O   0  0  0  0  0  0  0  0  0  0  0  0
  138.9490   71.6770  222.5430 C   0  0  0  0  0  0  0  0  0  0  0  0
  139.4380   73.0190  222.6480 N   0  0  0  0  0  0  0  0  0  0  0  0
  139.1950   73.9620  221.5880 C   0  0  0  0  0  0  0  0  0  0  0  0
  139.9950   75.1810  221.6010 C   0  0  0  0  0  0  0  0  0  0  0  0
  141.0590   75.1370  222.3340 O   0  0  0  0  0  0  0  0  0  0  0  0
  139.7320   76.3810  220.9030 N   0  0  0  0  0  0  0  0  0  0  0  0
  138.6550   77.1250  220.2830 C   0  0  0  0  0  0  0  0  0  0  0  0
  139.6960   77.6980  219.3390 C   0  0  0  0  0  0  0  0  0  0  0  0
  140.6150   77.4900  220.4910 C   0  0  1  0  0  0  0  0  0  0  0  0
  140.6990   78.6180  221.4920 C   0  0  0  0  0  0  0  0  0  0  0  0
  141.7260   79.6290  221.0400 C   0  0  0  0  0  0  0  0  0  0  0  0
  141.9250   80.6870  222.0930 C   0  0  0  0  0  0  0  0  0  0  0  0
  142.5160   80.0060  223.3210 C   0  0  0  0  0  0  0  0  0  0  0  0
  141.4470   79.0820  223.8420 C   0  0  0  0  0  0  0  0  0  0  0  0
  141.0540   78.0420  222.8220 C   0  0  0  0  0  0  0  0  0  0  0  0
  139.2470   70.7620  223.6630 C   0  0  0  0  0  0  0  0  0  0  0  0
  138.9160   69.4300  223.5930 C   0  0  0  0  0  0  0  0  0  0  0  0
  139.1920   68.5590  224.6450 C   0  0  0  0  0  0  0  0  0  0  0  0
  139.8110   69.0250  225.7930 C   0  0  0  0  0  0  0  0  0  0  0  0
  140.1010   68.1870  226.8590 C   0  0  0  0  0  0  0  0  0  0  0  0
  140.7230   68.6880  227.9930 C   0  0  0  0  0  0  0  0  0  0  0  0
  141.0090   67.8730  229.0380 F   0  0  0  0  0  0  0  0  0  0  0  0
  141.0490   70.0470  228.0390 C   0  0  0  0  0  0  0  0  0  0  0  0
  140.7470   70.8690  226.9530 C   0  0  0  0  0  0  0  0  0  0  0  0
  140.1270   70.3700  225.8220 C   0  0  0  0  0  0  0  0  0  0  0  0
  139.8460   71.1850  224.7890 N   0  0  0  0  0  0  0  0  0  0  0  0
  139.9760   73.2910  223.5190 H   0  0  0  0  0  0  0  0  0  0  0  0
  139.3857   73.4481  220.6343 H   0  0  0  0  0  0  0  0  0  0  0  0
  138.1565   74.2957  221.7299 H   0  0  0  0  0  0  0  0  0  0  0  0
  137.8865   76.5047  219.7987 H   0  0  0  0  0  0  0  0  0  0  0  0
  137.9819   77.7697  220.8672 H   0  0  0  0  0  0  0  0  0  0  0  0
  139.9107   77.0915  218.4468 H   0  0  0  0  0  0  0  0  0  0  0  0
  139.5822   78.6577  218.8137 H   0  0  0  0  0  0  0  0  0  0  0  0
  141.6965   77.3638  220.3346 H   0  0  0  0  0  0  0  0  0  0  0  0
  139.7326   79.1374  221.5712 H   0  0  0  0  0  0  0  0  0  0  0  0
  142.6819   79.1165  220.8568 H   0  0  0  0  0  0  0  0  0  0  0  0
  141.3695   80.1092  220.1167 H   0  0  0  0  0  0  0  0  0  0  0  0
  142.6153   81.4595  221.7233 H   0  0  0  0  0  0  0  0  0  0  0  0
  140.9689   81.1711  222.3411 H   0  0  0  0  0  0  0  0  0  0  0  0
  143.4139   79.4336  223.0449 H   0  0  0  0  0  0  0  0  0  0  0  0
  142.8173   80.7410  224.0819 H   0  0  0  0  0  0  0  0  0  0  0  0
  141.8246   78.5730  224.7411 H   0  0  0  0  0  0  0  0  0  0  0  0
  140.5572   79.6865  224.0717 H   0  0  0  0  0  0  0  0  0  0  0  0
  141.8981   77.3495  222.6876 H   0  0  0  0  0  0  0  0  0  0  0  0
  140.1562   77.5353  223.2056 H   0  0  0  0  0  0  0  0  0  0  0  0
  138.4234   69.0438  222.6885 H   0  0  0  0  0  0  0  0  0  0  0  0
  138.9172   67.4970  224.5634 H   0  0  0  0  0  0  0  0  0  0  0  0
  139.8367   67.1206  226.8051 H   0  0  0  0  0  0  0  0  0  0  0  0
  141.5419   70.4665  228.9284 H   0  0  0  0  0  0  0  0  0  0  0  0
  141.0076   71.9368  226.9973 H   0  0  0  0  0  0  0  0  0  0  0  0
  1  2  2  0
  2  3  1  0
  3  4  1  0
  4  5  1  0
  5  6  2  0
  5  7  1  0
  7  8  1  0
  8  9  1  0
  9 10  1  0
 10 11  1  0
 11 12  1  0
 12 13  1  0
 13 14  1  0
 14 15  1  0
 15 16  1  0
  2 17  1  0
 17 18  2  0
 18 19  1  0
 19 20  2  0
 20 21  1  0
 21 22  2  0
 22 23  1  0
 22 24  1  0
 24 25  2  0
 25 26  1  0
 26 27  2  0
 10  7  1  0
 16 11  1  0
 27 17  1  0
 26 20  1  0
  3 28  1  0
  4 29  1  0
  4 30  1  0
  8 31  1  0
  8 32  1  0
  9 33  1  0
  9 34  1  0
 10 35  1  6
 11 36  1  0
 12 37  1  0
 12 38  1  0
 13 39  1  0
 13 40  1  0
 14 41  1  0
 14 42  1  0
 15 43  1  0
 15 44  1  0
 16 45  1  0
 16 46  1  0
 18 47  1  0
 19 48  1  0
 21 49  1  0
 24 50  1  0
 25 51  1  0
M  END
>  <smiles>  (98) 
O=C(NCC(=O)N1CCC1C1CCCCC1)c1ccc2cc(F)ccc2n1

>  <score_type>  (98) 
oracle

>  <origin>  (98) 
autodockgpu

>  <m_score__min__energy>  (98) 
-8.6799999999999997

>  <m_primary>  (98) 
energy

>  <rmsd>  (98) 
2.318066757306943

>  <m_score__min__rmsd>  (98) 
2.318066757306943

>  <meeko>  (98) 
{"free_energy": -7.92, "intermolecular_energy": -9.41, "internal_energy": -1.61, "cluster_size": 39, "cluster_id": 1, "rank_in_cluster": 38}

>  <energy>  (98) 
-7.55

>  <cluster_rmsd>  (98) 
0.0

>  <cluster>  (98) 
4

$$$$

     RDKit          3D

 51 54  0  0  0  0  0  0  0  0999 V2000
  138.4100   71.2780  221.4740 O   0  0  0  0  0  0  0  0  0  0  0  0
  139.0050   71.7290  222.4660 C   0  0  0  0  0  0  0  0  0  0  0  0
  139.4540   73.0830  222.5880 N   0  0  0  0  0  0  0  0  0  0  0  0
  139.2350   74.0180  221.5160 C   0  0  0  0  0  0  0  0  0  0  0  0
  140.0390   75.2350  221.5350 C   0  0  0  0  0  0  0  0  0  0  0  0
  141.0980   75.1870  222.2740 O   0  0  0  0  0  0  0  0  0  0  0  0
  139.7820   76.4360  220.8360 N   0  0  0  0  0  0  0  0  0  0  0  0
  138.7170   77.1700  220.1850 C   0  0  0  0  0  0  0  0  0  0  0  0
  139.7820   77.7630  219.2800 C   0  0  0  0  0  0  0  0  0  0  0  0
  140.6640   77.5590  220.4610 C   0  0  1  0  0  0  0  0  0  0  0  0
  140.7000   78.6820  221.4710 C   0  0  0  0  0  0  0  0  0  0  0  0
  141.6790   79.7410  221.0260 C   0  0  0  0  0  0  0  0  0  0  0  0
  141.8330   80.7980  222.0880 C   0  0  0  0  0  0  0  0  0  0  0  0
  142.4560   80.1340  223.3090 C   0  0  0  0  0  0  0  0  0  0  0  0
  141.4300   79.1590  223.8240 C   0  0  0  0  0  0  0  0  0  0  0  0
  141.0830   78.1100  222.7950 C   0  0  0  0  0  0  0  0  0  0  0  0
  139.2760   70.8240  223.6010 C   0  0  0  0  0  0  0  0  0  0  0  0
  138.9180   69.4980  223.5460 C   0  0  0  0  0  0  0  0  0  0  0  0
  139.1680   68.6360  224.6120 C   0  0  0  0  0  0  0  0  0  0  0  0
  139.7880   69.1060  225.7580 C   0  0  0  0  0  0  0  0  0  0  0  0
  140.0530   68.2770  226.8390 C   0  0  0  0  0  0  0  0  0  0  0  0
  140.6760   68.7810  227.9700 C   0  0  0  0  0  0  0  0  0  0  0  0
  140.9370   67.9750  229.0290 F   0  0  0  0  0  0  0  0  0  0  0  0
  141.0290   70.1340  228.0000 C   0  0  0  0  0  0  0  0  0  0  0  0
  140.7520   70.9460  226.9010 C   0  0  0  0  0  0  0  0  0  0  0  0
  140.1310   70.4440  225.7720 C   0  0  0  0  0  0  0  0  0  0  0  0
  139.8750   71.2500  224.7250 N   0  0  0  0  0  0  0  0  0  0  0  0
  139.9460   73.3710  223.4820 H   0  0  0  0  0  0  0  0  0  0  0  0
  139.4426   73.4958  220.5704 H   0  0  0  0  0  0  0  0  0  0  0  0
  138.1950   74.3562  221.6347 H   0  0  0  0  0  0  0  0  0  0  0  0
  137.9734   76.5431  219.6711 H   0  0  0  0  0  0  0  0  0  0  0  0
  138.0162   77.8020  220.7502 H   0  0  0  0  0  0  0  0  0  0  0  0
  140.0346   77.1654  218.3917 H   0  0  0  0  0  0  0  0  0  0  0  0
  139.6734   78.7247  218.7572 H   0  0  0  0  0  0  0  0  0  0  0  0
  141.7517   77.4473  220.3408 H   0  0  0  0  0  0  0  0  0  0  0  0
  139.7121   79.1583  221.5563 H   0  0  0  0  0  0  0  0  0  0  0  0
  142.6565   79.2734  220.8365 H   0  0  0  0  0  0  0  0  0  0  0  0
  141.2993   80.2126  220.1076 H   0  0  0  0  0  0  0  0  0  0  0  0
  142.4875   81.6036  221.7238 H   0  0  0  0  0  0  0  0  0  0  0  0
  140.8568   81.2368  222.3418 H   0  0  0  0  0  0  0  0  0  0  0  0
  143.3779   79.6044  223.0267 H   0  0  0  0  0  0  0  0  0  0  0  0
  142.7258   80.8754  224.0755 H   0  0  0  0  0  0  0  0  0  0  0  0
  141.8310   78.6604  224.7187 H   0  0  0  0  0  0  0  0  0  0  0  0
  140.5142   79.7210  224.0598 H   0  0  0  0  0  0  0  0  0  0  0  0
  141.9575   77.4580  222.6533 H   0  0  0  0  0  0  0  0  0  0  0  0
  140.2103   77.5587  223.1751 H   0  0  0  0  0  0  0  0  0  0  0  0
  138.4245   69.1097  222.6428 H   0  0  0  0  0  0  0  0  0  0  0  0
  138.8720   67.5788  224.5431 H   0  0  0  0  0  0  0  0  0  0  0  0
  139.7674   67.2155  226.7981 H   0  0  0  0  0  0  0  0  0  0  0  0
  141.5234   70.5560  228.8874 H   0  0  0  0  0  0  0  0  0  0  0  0
  141.0335   72.0089  226.9327 H   0  0  0  0  0  0  0  0  0  0  0  0
  1  2  2  0
  2  3  1  0
  3  4  1  0
  4  5  1  0
  5  6  2  0
  5  7  1  0
  7  8  1  0
  8  9  1  0
  9 10  1  0
 10 11  1  0
 11 12  1  0
 12 13  1  0
 13 14  1  0
 14 15  1  0
 15 16  1  0
  2 17  1  0
 17 18  2  0
 18 19  1  0
 19 20  2  0
 20 21  1  0
 21 22  2  0
 22 23  1  0
 22 24  1  0
 24 25  2  0
 25 26  1  0
 26 27  2  0
 10  7  1  0
 16 11  1  0
 27 17  1  0
 26 20  1  0
  3 28  1  0
  4 29  1  0
  4 30  1  0
  8 31  1  0
  8 32  1  0
  9 33  1  0
  9 34  1  0
 10 35  1  6
 11 36  1  0
 12 37  1  0
 12 38  1  0
 13 39  1  0
 13 40  1  0
 14 41  1  0
 14 42  1  0
 15 43  1  0
 15 44  1  0
 16 45  1  0
 16 46  1  0
 18 47  1  0
 19 48  1  0
 21 49  1  0
 24 50  1  0
 25 51  1  0
M  END
>  <smiles>  (99) 
O=C(NCC(=O)N1CCC1C1CCCCC1)c1ccc2cc(F)ccc2n1

>  <score_type>  (99) 
oracle

>  <origin>  (99) 
autodockgpu

>  <m_score__min__energy>  (99) 
-8.6799999999999997

>  <m_primary>  (99) 
energy

>  <rmsd>  (99) 
2.3214811747991773

>  <m_score__min__rmsd>  (99) 
2.3214811747991773

>  <meeko>  (99) 
{"free_energy": -7.94, "intermolecular_energy": -9.44, "internal_energy": -1.6, "cluster_size": 39, "cluster_id": 1, "rank_in_cluster": 37}

>  <energy>  (99) 
-7.52

>  <cluster_rmsd>  (99) 
1.71

>  <cluster>  (99) 
4

$$$$

     RDKit          3D

 51 54  0  0  0  0  0  0  0  0999 V2000
  141.2220   72.0760  221.4090 O   0  0  0  0  0  0  0  0  0  0  0  0
  140.4150   72.4060  222.2920 C   0  0  0  0  0  0  0  0  0  0  0  0
  139.6320   73.6040  222.2610 N   0  0  0  0  0  0  0  0  0  0  0  0
  139.7590   74.5230  221.1610 C   0  0  0  0  0  0  0  0  0  0  0  0
  139.4600   75.9230  221.4390 C   0  0  0  0  0  0  0  0  0  0  0  0
  138.6220   76.1280  222.4010 O   0  0  0  0  0  0  0  0  0  0  0  0
  139.9870   77.0550  220.7780 N   0  0  0  0  0  0  0  0  0  0  0  0
  139.6890   77.9970  219.7200 C   0  0  0  0  0  0  0  0  0  0  0  0
  141.1880   78.1280  219.5180 C   0  0  0  0  0  0  0  0  0  0  0  0
  141.2440   77.8050  220.9700 C   0  0  1  0  0  0  0  0  0  0  0  0
  141.1300   78.9730  221.9200 C   0  0  0  0  0  0  0  0  0  0  0  0
  141.8960   80.1540  221.3770 C   0  0  0  0  0  0  0  0  0  0  0  0
  141.9110   81.2810  222.3770 C   0  0  0  0  0  0  0  0  0  0  0  0
  142.6870   80.8000  223.5970 C   0  0  0  0  0  0  0  0  0  0  0  0
  141.8620   79.6970  224.2090 C   0  0  0  0  0  0  0  0  0  0  0  0
  141.6570   78.5490  223.2510 C   0  0  0  0  0  0  0  0  0  0  0  0
  140.2400   71.5170  223.4590 C   0  0  0  0  0  0  0  0  0  0  0  0
  139.5980   70.3080  223.3360 C   0  0  0  0  0  0  0  0  0  0  0  0
  139.4280   69.4640  224.4310 C   0  0  0  0  0  0  0  0  0  0  0  0
  139.9080   69.8320  225.6770 C   0  0  0  0  0  0  0  0  0  0  0  0
  139.7560   69.0160  226.7890 C   0  0  0  0  0  0  0  0  0  0  0  0
  140.2500   69.4150  228.0210 C   0  0  0  0  0  0  0  0  0  0  0  0
  140.1050   68.6220  229.1110 F   0  0  0  0  0  0  0  0  0  0  0  0
  140.8990   70.6510  228.1200 C   0  0  0  0  0  0  0  0  0  0  0  0
  141.0390   71.4520  226.9870 C   0  0  0  0  0  0  0  0  0  0  0  0
  140.5470   71.0540  225.7570 C   0  0  0  0  0  0  0  0  0  0  0  0
  140.6950   71.8470  224.6800 N   0  0  0  0  0  0  0  0  0  0  0  0
  138.9650   73.7900  223.0630 H   0  0  0  0  0  0  0  0  0  0  0  0
  140.7966   74.4692  220.7999 H   0  0  0  0  0  0  0  0  0  0  0  0
  139.0009   74.2053  220.4300 H   0  0  0  0  0  0  0  0  0  0  0  0
  139.1449   77.5708  218.8642 H   0  0  0  0  0  0  0  0  0  0  0  0
  139.0456   78.8737  219.8859 H   0  0  0  0  0  0  0  0  0  0  0  0
  141.6425   77.3822  218.8492 H   0  0  0  0  0  0  0  0  0  0  0  0
  141.6697   79.0089  219.0686 H   0  0  0  0  0  0  0  0  0  0  0  0
  142.1439   77.3548  221.4144 H   0  0  0  0  0  0  0  0  0  0  0  0
  140.0798   79.2813  222.0295 H   0  0  0  0  0  0  0  0  0  0  0  0
  142.9303   79.8467  221.1630 H   0  0  0  0  0  0  0  0  0  0  0  0
  141.4047   80.5028  220.4567 H   0  0  0  0  0  0  0  0  0  0  0  0
  142.4041   82.1628  221.9418 H   0  0  0  0  0  0  0  0  0  0  0  0
  140.8857   81.5645  222.6569 H   0  0  0  0  0  0  0  0  0  0  0  0
  143.6731   80.4169  223.2956 H   0  0  0  0  0  0  0  0  0  0  0  0
  142.8584   81.6179  224.3124 H   0  0  0  0  0  0  0  0  0  0  0  0
  142.3773   79.3236  225.1062 H   0  0  0  0  0  0  0  0  0  0  0  0
  140.8744   80.1103  224.4617 H   0  0  0  0  0  0  0  0  0  0  0  0
  142.6230   78.0453  223.0990 H   0  0  0  0  0  0  0  0  0  0  0  0
  140.9059   77.8823  223.6998 H   0  0  0  0  0  0  0  0  0  0  0  0
  139.2108   70.0008  222.3533 H   0  0  0  0  0  0  0  0  0  0  0  0
  138.9105   68.5015  224.3057 H   0  0  0  0  0  0  0  0  0  0  0  0
  139.2414   68.0486  226.6924 H   0  0  0  0  0  0  0  0  0  0  0  0
  141.2972   70.9894  229.0879 H   0  0  0  0  0  0  0  0  0  0  0  0
  141.5518   72.4213  227.0733 H   0  0  0  0  0  0  0  0  0  0  0  0
  1  2  2  0
  2  3  1  0
  3  4  1  0
  4  5  1  0
  5  6  2  0
  5  7  1  0
  7  8  1  0
  8  9  1  0
  9 10  1  0
 10 11  1  0
 11 12  1  0
 12 13  1  0
 13 14  1  0
 14 15  1  0
 15 16  1  0
  2 17  1  0
 17 18  2  0
 18 19  1  0
 19 20  2  0
 20 21  1  0
 21 22  2  0
 22 23  1  0
 22 24  1  0
 24 25  2  0
 25 26  1  0
 26 27  2  0
 10  7  1  0
 16 11  1  0
 27 17  1  0
 26 20  1  0
  3 28  1  0
  4 29  1  0
  4 30  1  0
  8 31  1  0
  8 32  1  0
  9 33  1  0
  9 34  1  0
 10 35  1  6
 11 36  1  0
 12 37  1  0
 12 38  1  0
 13 39  1  0
 13 40  1  0
 14 41  1  0
 14 42  1  0
 15 43  1  0
 15 44  1  0
 16 45  1  0
 16 46  1  0
 18 47  1  0
 19 48  1  0
 21 49  1  0
 24 50  1  0
 25 51  1  0
M  END
>  <smiles>  (100) 
O=C(NCC(=O)N1CCC1C1CCCCC1)c1ccc2cc(F)ccc2n1

>  <score_type>  (100) 
oracle

>  <origin>  (100) 
autodockgpu

>  <m_score__min__energy>  (100) 
-8.6799999999999997

>  <m_primary>  (100) 
energy

>  <rmsd>  (100) 
2.7376571463760238

>  <m_score__min__rmsd>  (100) 
2.7376571463760238

>  <meeko>  (100) 
{"free_energy": -8.49, "intermolecular_energy": -9.98, "internal_energy": -1.35, "cluster_size": 39, "cluster_id": 1, "rank_in_cluster": 7}

>  <energy>  (100) 
-7.35

>  <cluster_rmsd>  (100) 
0.0

>  <cluster>  (100) 
5

$$$$
