
     RDKit          3D

 57 60  0  0  0  0  0  0  0  0999 V2000
  144.1430   74.4820  220.1080 C   0  0  0  0  0  0  0  0  0  0  0  0
  142.9260   75.0120  219.5710 N   0  0  0  0  0  0  0  0  0  0  0  0
  141.7310   74.1360  219.7850 C   0  0  0  0  0  0  0  0  0  0  0  0
  141.4550   74.2720  221.2720 C   0  0  0  0  0  0  0  0  0  0  0  0
  141.0410   75.6170  221.5470 N   0  0  0  0  0  0  0  0  0  0  0  0
  139.7050   76.0690  221.5540 C   0  0  0  0  0  0  0  0  0  0  0  0
  138.7780   75.2390  221.3000 O   0  0  0  0  0  0  0  0  0  0  0  0
  139.3430   77.4530  221.8420 C   0  0  0  0  0  0  0  0  0  0  0  0
  139.4910   77.9720  223.0990 C   0  0  0  0  0  0  0  0  0  0  0  0
  139.1730   79.2650  223.4520 C   0  0  0  0  0  0  0  0  0  0  0  0
  138.6700   80.0860  222.4650 C   0  0  0  0  0  0  0  0  0  0  0  0
  138.3520   81.3720  222.8140 C   0  0  0  0  0  0  0  0  0  0  0  0
  137.8470   82.2190  221.8550 C   0  0  0  0  0  0  0  0  0  0  0  0
  137.4240   83.8840  222.2550 Cl  0  0  0  0  0  0  0  0  0  0  0  0
  137.6860   81.7280  220.5850 C   0  0  0  0  0  0  0  0  0  0  0  0
  138.0060   80.4260  220.2250 C   0  0  0  0  0  0  0  0  0  0  0  0
  138.5170   79.5680  221.1960 C   0  0  0  0  0  0  0  0  0  0  0  0
  138.8450   78.2840  220.8890 N   0  0  0  0  0  0  0  0  0  0  0  0
  142.6920   76.2000  218.8920 C   0  0  0  0  0  0  0  0  0  0  0  0
  143.7710   76.7400  218.3560 O   0  0  0  0  0  0  0  0  0  0  0  0
  141.5010   76.9950  218.6370 C   0  0  0  0  0  0  0  0  0  0  0  0
  141.2820   78.0590  219.5410 N   0  0  0  0  0  0  0  0  0  0  0  0
  141.8180   79.3510  219.1500 C   0  0  0  0  0  0  0  0  0  0  0  0
  142.4230   79.4010  218.0480 O   0  0  0  0  0  0  0  0  0  0  0  0
  141.6510   80.5230  220.0080 C   0  0  0  0  0  0  0  0  0  0  0  0
  141.2530   81.7000  219.4060 C   0  0  0  0  0  0  0  0  0  0  0  0
  141.0810   82.8430  220.1780 C   0  0  0  0  0  0  0  0  0  0  0  0
  141.3060   82.8200  221.5580 C   0  0  0  0  0  0  0  0  0  0  0  0
  141.7020   81.6310  222.1300 C   0  0  0  0  0  0  0  0  0  0  0  0
  141.9310   81.5920  223.5090 C   0  0  0  0  0  0  0  0  0  0  0  0
  142.3320   80.4130  224.1230 C   0  0  0  0  0  0  0  0  0  0  0  0
  142.4980   79.2860  223.3450 C   0  0  0  0  0  0  0  0  0  0  0  0
  142.2770   79.2970  221.9730 C   0  0  0  0  0  0  0  0  0  0  0  0
  141.8820   80.4690  221.3810 C   0  0  0  0  0  0  0  0  0  0  0  0
  144.0981   74.5016  221.2069 H   0  0  0  0  0  0  0  0  0  0  0  0
  144.2743   73.4452  219.7648 H   0  0  0  0  0  0  0  0  0  0  0  0
  144.9915   75.0921  219.7648 H   0  0  0  0  0  0  0  0  0  0  0  0
  140.8740   74.4880  219.1920 H   0  0  0  0  0  0  0  0  0  0  0  0
  141.9013   73.0948  219.4739 H   0  0  0  0  0  0  0  0  0  0  0  0
  140.6576   73.5731  221.5649 H   0  0  0  0  0  0  0  0  0  0  0  0
  142.3659   74.0386  221.8428 H   0  0  0  0  0  0  0  0  0  0  0  0
  141.7790   76.3460  221.7650 H   0  0  0  0  0  0  0  0  0  0  0  0
  139.8916   77.3112  223.8819 H   0  0  0  0  0  0  0  0  0  0  0  0
  139.3148   79.6282  224.4806 H   0  0  0  0  0  0  0  0  0  0  0  0
  138.4984   81.7223  223.8464 H   0  0  0  0  0  0  0  0  0  0  0  0
  137.2830   82.3995  219.8125 H   0  0  0  0  0  0  0  0  0  0  0  0
  137.8587   80.0783  219.1919 H   0  0  0  0  0  0  0  0  0  0  0  0
  141.5856   77.4197  217.6258 H   0  0  0  0  0  0  0  0  0  0  0  0
  140.6471   76.3121  218.7572 H   0  0  0  0  0  0  0  0  0  0  0  0
  140.7970   78.0740  220.4490 H   0  0  0  0  0  0  0  0  0  0  0  0
  141.0730   81.7330  218.3213 H   0  0  0  0  0  0  0  0  0  0  0  0
  140.7632   83.7795  219.6963 H   0  0  0  0  0  0  0  0  0  0  0  0
  141.1708   83.7248  222.1688 H   0  0  0  0  0  0  0  0  0  0  0  0
  141.7925   82.5018  224.1115 H   0  0  0  0  0  0  0  0  0  0  0  0
  142.5136   80.3783  225.2074 H   0  0  0  0  0  0  0  0  0  0  0  0
  142.8154   78.3489  223.8258 H   0  0  0  0  0  0  0  0  0  0  0  0
  142.4160   78.3846  221.3745 H   0  0  0  0  0  0  0  0  0  0  0  0
  1  2  1  0
  2  3  1  0
  3  4  1  0
  4  5  1  0
  5  6  1  0
  6  7  2  0
  6  8  1  0
  8  9  2  0
  9 10  1  0
 10 11  2  0
 11 12  1  0
 12 13  2  0
 13 14  1  0
 13 15  1  0
 15 16  2  0
 16 17  1  0
 17 18  2  0
  2 19  1  0
 19 20  2  0
 19 21  1  0
 21 22  1  0
 22 23  1  0
 23 24  2  0
 23 25  1  0
 25 26  2  0
 26 27  1  0
 27 28  2  0
 28 29  1  0
 29 30  2  0
 30 31  1  0
 31 32  2  0
 32 33  1  0
 33 34  2  0
 18  8  1  0
 34 25  1  0
 17 11  1  0
 34 29  1  0
  1 35  1  0
  1 36  1  0
  1 37  1  0
  3 38  1  0
  3 39  1  0
  4 40  1  0
  4 41  1  0
  5 42  1  0
  9 43  1  0
 10 44  1  0
 12 45  1  0
 15 46  1  0
 16 47  1  0
 21 48  1  0
 21 49  1  0
 22 50  1  0
 26 51  1  0
 27 52  1  0
 28 53  1  0
 30 54  1  0
 31 55  1  0
 32 56  1  0
 33 57  1  0
M  END
>  <smiles>  (1) 
CN(CCNC(=O)c1ccc2cc(Cl)ccc2n1)C(=O)CNC(=O)c1cccc2ccccc12

>  <score_type>  (1) 
oracle

>  <origin>  (1) 
autodockgpu

>  <m_score__min__energy>  (1) 
-9.7200000000000006

>  <m_primary>  (1) 
energy

>  <rmsd>  (1) 
8.211487780436162

>  <m_score__min__rmsd>  (1) 
8.211487780436162

>  <meeko>  (1) 
{"free_energy": -5.95, "intermolecular_energy": -8.34, "internal_energy": -4.67, "cluster_size": 13, "cluster_id": 7, "rank_in_cluster": 8}

>  <energy>  (1) 
-9.72

>  <cluster_rmsd>  (1) 
0.0

>  <cluster>  (1) 
1

$$$$

     RDKit          3D

 57 60  0  0  0  0  0  0  0  0999 V2000
  143.7780   73.9590  218.2120 C   0  0  0  0  0  0  0  0  0  0  0  0
  143.4530   75.2930  218.6180 N   0  0  0  0  0  0  0  0  0  0  0  0
  143.5250   75.5170  220.0960 C   0  0  0  0  0  0  0  0  0  0  0  0
  142.2550   74.8680  220.6150 C   0  0  0  0  0  0  0  0  0  0  0  0
  141.4020   75.8840  221.1590 N   0  0  0  0  0  0  0  0  0  0  0  0
  140.0190   75.9990  220.9100 C   0  0  0  0  0  0  0  0  0  0  0  0
  139.4610   75.1480  220.1500 O   0  0  0  0  0  0  0  0  0  0  0  0
  139.1990   77.0570  221.4930 C   0  0  0  0  0  0  0  0  0  0  0  0
  137.9470   77.3230  221.0100 C   0  0  0  0  0  0  0  0  0  0  0  0
  137.1120   78.3020  221.5040 C   0  0  0  0  0  0  0  0  0  0  0  0
  137.5790   79.0630  222.5540 C   0  0  0  0  0  0  0  0  0  0  0  0
  136.7510   80.0380  223.0440 C   0  0  0  0  0  0  0  0  0  0  0  0
  137.1850   80.8170  224.0920 C   0  0  0  0  0  0  0  0  0  0  0  0
  136.1560   82.0850  224.7600 Cl  0  0  0  0  0  0  0  0  0  0  0  0
  138.4360   80.5750  224.5970 C   0  0  0  0  0  0  0  0  0  0  0  0
  139.2800   79.5890  224.1040 C   0  0  0  0  0  0  0  0  0  0  0  0
  138.8410   78.8000  223.0430 C   0  0  0  0  0  0  0  0  0  0  0  0
  139.6340   77.8230  222.5270 N   0  0  0  0  0  0  0  0  0  0  0  0
  143.0860   76.3940  217.8560 C   0  0  0  0  0  0  0  0  0  0  0  0
  143.9120   76.6660  216.8620 O   0  0  0  0  0  0  0  0  0  0  0  0
  141.9740   77.3310  217.9120 C   0  0  0  0  0  0  0  0  0  0  0  0
  142.1580   78.4340  218.7750 N   0  0  0  0  0  0  0  0  0  0  0  0
  140.9600   79.1680  219.1400 C   0  0  0  0  0  0  0  0  0  0  0  0
  139.8750   78.7520  218.6560 O   0  0  0  0  0  0  0  0  0  0  0  0
  141.0310   80.3280  220.0270 C   0  0  0  0  0  0  0  0  0  0  0  0
  140.5500   81.5290  219.5430 C   0  0  0  0  0  0  0  0  0  0  0  0
  140.5960   82.6600  220.3490 C   0  0  0  0  0  0  0  0  0  0  0  0
  141.1220   82.6030  221.6430 C   0  0  0  0  0  0  0  0  0  0  0  0
  141.5920   81.3910  222.0980 C   0  0  0  0  0  0  0  0  0  0  0  0
  142.1220   81.3170  223.3900 C   0  0  0  0  0  0  0  0  0  0  0  0
  142.6070   80.1140  223.8850 C   0  0  0  0  0  0  0  0  0  0  0  0
  142.5550   78.9980  223.0750 C   0  0  0  0  0  0  0  0  0  0  0  0
  142.0350   79.0430  221.7880 C   0  0  0  0  0  0  0  0  0  0  0  0
  141.5590   80.2390  221.3130 C   0  0  0  0  0  0  0  0  0  0  0  0
  143.9308   73.3317  219.1026 H   0  0  0  0  0  0  0  0  0  0  0  0
  142.9538   73.5476  217.6108 H   0  0  0  0  0  0  0  0  0  0  0  0
  144.6990   73.9728  217.6108 H   0  0  0  0  0  0  0  0  0  0  0  0
  144.4162   75.0346  220.5238 H   0  0  0  0  0  0  0  0  0  0  0  0
  143.6032   76.5808  220.3648 H   0  0  0  0  0  0  0  0  0  0  0  0
  141.7387   74.3554  219.7900 H   0  0  0  0  0  0  0  0  0  0  0  0
  142.5042   74.1340  221.3954 H   0  0  0  0  0  0  0  0  0  0  0  0
  141.8210   76.6160  221.7990 H   0  0  0  0  0  0  0  0  0  0  0  0
  137.5818   76.7139  220.1700 H   0  0  0  0  0  0  0  0  0  0  0  0
  136.1122   78.4694  221.0770 H   0  0  0  0  0  0  0  0  0  0  0  0
  135.7542   80.1959  222.6064 H   0  0  0  0  0  0  0  0  0  0  0  0
  138.7892   81.1933  225.4354 H   0  0  0  0  0  0  0  0  0  0  0  0
  140.2766   79.4337  224.5429 H   0  0  0  0  0  0  0  0  0  0  0  0
  141.8043   77.7184  216.8965 H   0  0  0  0  0  0  0  0  0  0  0  0
  141.1205   76.7670  218.3163 H   0  0  0  0  0  0  0  0  0  0  0  0
  143.0170   78.8150  219.1970 H   0  0  0  0  0  0  0  0  0  0  0  0
  140.1335   81.5897  218.5267 H   0  0  0  0  0  0  0  0  0  0  0  0
  140.2123   83.6157  219.9626 H   0  0  0  0  0  0  0  0  0  0  0  0
  141.1594   83.4997  222.2790 H   0  0  0  0  0  0  0  0  0  0  0  0
  142.1549   82.2189  224.0189 H   0  0  0  0  0  0  0  0  0  0  0  0
  143.0238   80.0518  224.9011 H   0  0  0  0  0  0  0  0  0  0  0  0
  142.9378   78.0418  223.4612 H   0  0  0  0  0  0  0  0  0  0  0  0
  142.0054   78.1387  221.1625 H   0  0  0  0  0  0  0  0  0  0  0  0
  1  2  1  0
  2  3  1  0
  3  4  1  0
  4  5  1  0
  5  6  1  0
  6  7  2  0
  6  8  1  0
  8  9  2  0
  9 10  1  0
 10 11  2  0
 11 12  1  0
 12 13  2  0
 13 14  1  0
 13 15  1  0
 15 16  2  0
 16 17  1  0
 17 18  2  0
  2 19  1  0
 19 20  2  0
 19 21  1  0
 21 22  1  0
 22 23  1  0
 23 24  2  0
 23 25  1  0
 25 26  2  0
 26 27  1  0
 27 28  2  0
 28 29  1  0
 29 30  2  0
 30 31  1  0
 31 32  2  0
 32 33  1  0
 33 34  2  0
 18  8  1  0
 34 25  1  0
 17 11  1  0
 34 29  1  0
  1 35  1  0
  1 36  1  0
  1 37  1  0
  3 38  1  0
  3 39  1  0
  4 40  1  0
  4 41  1  0
  5 42  1  0
  9 43  1  0
 10 44  1  0
 12 45  1  0
 15 46  1  0
 16 47  1  0
 21 48  1  0
 21 49  1  0
 22 50  1  0
 26 51  1  0
 27 52  1  0
 28 53  1  0
 30 54  1  0
 31 55  1  0
 32 56  1  0
 33 57  1  0
M  END
>  <smiles>  (2) 
CN(CCNC(=O)c1ccc2cc(Cl)ccc2n1)C(=O)CNC(=O)c1cccc2ccccc12

>  <score_type>  (2) 
oracle

>  <origin>  (2) 
autodockgpu

>  <m_score__min__energy>  (2) 
-9.7200000000000006

>  <m_primary>  (2) 
energy

>  <rmsd>  (2) 
8.21084797232025

>  <m_score__min__rmsd>  (2) 
8.21084797232025

>  <meeko>  (2) 
{"free_energy": -6.61, "intermolecular_energy": -8.99, "internal_energy": -3.85, "cluster_size": 4, "cluster_id": 9, "rank_in_cluster": 3}

>  <energy>  (2) 
-9.39

>  <cluster_rmsd>  (2) 
0.71

>  <cluster>  (2) 
1

$$$$

     RDKit          3D

 57 60  0  0  0  0  0  0  0  0999 V2000
  141.3700   75.3480  218.8830 C   0  0  0  0  0  0  0  0  0  0  0  0
  140.8490   75.5000  220.2080 N   0  0  0  0  0  0  0  0  0  0  0  0
  140.9090   76.9020  220.7300 C   0  0  0  0  0  0  0  0  0  0  0  0
  139.4710   77.3790  220.6270 C   0  0  0  0  0  0  0  0  0  0  0  0
  138.6860   76.7040  221.6190 N   0  0  0  0  0  0  0  0  0  0  0  0
  137.4570   76.0560  221.3760 C   0  0  0  0  0  0  0  0  0  0  0  0
  136.9880   76.0550  220.1960 O   0  0  0  0  0  0  0  0  0  0  0  0
  136.6990   75.3840  222.4280 C   0  0  0  0  0  0  0  0  0  0  0  0
  136.0180   76.1020  223.3720 C   0  0  0  0  0  0  0  0  0  0  0  0
  135.2820   75.5440  224.3950 C   0  0  0  0  0  0  0  0  0  0  0  0
  135.2360   74.1680  224.4650 C   0  0  0  0  0  0  0  0  0  0  0  0
  134.5050   73.6120  225.4830 C   0  0  0  0  0  0  0  0  0  0  0  0
  134.4360   72.2420  225.5840 C   0  0  0  0  0  0  0  0  0  0  0  0
  133.5080   71.4780  226.8750 Cl  0  0  0  0  0  0  0  0  0  0  0  0
  135.1100   71.4950  224.6520 C   0  0  0  0  0  0  0  0  0  0  0  0
  135.8510   72.0520  223.6190 C   0  0  0  0  0  0  0  0  0  0  0  0
  135.9220   73.4400  223.5170 C   0  0  0  0  0  0  0  0  0  0  0  0
  136.6360   74.0300  222.5220 N   0  0  0  0  0  0  0  0  0  0  0  0
  140.3050   74.5560  221.0670 C   0  0  0  0  0  0  0  0  0  0  0  0
  140.2890   74.9220  222.3360 O   0  0  0  0  0  0  0  0  0  0  0  0
  139.7410   73.2290  220.8760 C   0  0  0  0  0  0  0  0  0  0  0  0
  139.2210   72.6210  222.0410 N   0  0  0  0  0  0  0  0  0  0  0  0
  139.7030   71.2830  222.3340 C   0  0  0  0  0  0  0  0  0  0  0  0
  140.5360   70.7940  221.5260 O   0  0  0  0  0  0  0  0  0  0  0  0
  139.2330   70.5570  223.5130 C   0  0  0  0  0  0  0  0  0  0  0  0
  138.1880   69.6710  223.3400 C   0  0  0  0  0  0  0  0  0  0  0  0
  137.7060   68.9580  224.4300 C   0  0  0  0  0  0  0  0  0  0  0  0
  138.2610   69.1230  225.7030 C   0  0  0  0  0  0  0  0  0  0  0  0
  139.3030   70.0140  225.8440 C   0  0  0  0  0  0  0  0  0  0  0  0
  139.8690   70.1910  227.1100 C   0  0  0  0  0  0  0  0  0  0  0  0
  140.9200   71.0800  227.2930 C   0  0  0  0  0  0  0  0  0  0  0  0
  141.3900   71.7810  226.2020 C   0  0  0  0  0  0  0  0  0  0  0  0
  140.8460   71.6250  224.9330 C   0  0  0  0  0  0  0  0  0  0  0  0
  139.8080   70.7430  224.7680 C   0  0  0  0  0  0  0  0  0  0  0  0
  142.4247   75.0403  218.9368 H   0  0  0  0  0  0  0  0  0  0  0  0
  140.7912   74.5813  218.3471 H   0  0  0  0  0  0  0  0  0  0  0  0
  141.2943   76.3057  218.3471 H   0  0  0  0  0  0  0  0  0  0  0  0
  141.2552   76.9186  221.7740 H   0  0  0  0  0  0  0  0  0  0  0  0
  141.6127   77.5376  220.1725 H   0  0  0  0  0  0  0  0  0  0  0  0
  139.4288   78.4647  220.7986 H   0  0  0  0  0  0  0  0  0  0  0  0
  139.0756   77.1577  219.6246 H   0  0  0  0  0  0  0  0  0  0  0  0
  139.0350   76.6770  222.6190 H   0  0  0  0  0  0  0  0  0  0  0  0
  136.0606   77.1995  223.3106 H   0  0  0  0  0  0  0  0  0  0  0  0
  134.7523   76.1718  225.1266 H   0  0  0  0  0  0  0  0  0  0  0  0
  133.9814   74.2521  226.2083 H   0  0  0  0  0  0  0  0  0  0  0  0
  135.0608   70.3987  224.7270 H   0  0  0  0  0  0  0  0  0  0  0  0
  136.3726   71.4097  222.8942 H   0  0  0  0  0  0  0  0  0  0  0  0
  138.9261   73.3084  220.1414 H   0  0  0  0  0  0  0  0  0  0  0  0
  140.5724   72.5897  220.5441 H   0  0  0  0  0  0  0  0  0  0  0  0
  138.5430   72.9730  222.7310 H   0  0  0  0  0  0  0  0  0  0  0  0
  137.7402   69.5308  222.3451 H   0  0  0  0  0  0  0  0  0  0  0  0
  136.8742   68.2520  224.2897 H   0  0  0  0  0  0  0  0  0  0  0  0
  137.8775   68.5586  226.5658 H   0  0  0  0  0  0  0  0  0  0  0  0
  139.4792   69.6222  227.9670 H   0  0  0  0  0  0  0  0  0  0  0  0
  141.3684   71.2222  228.2873 H   0  0  0  0  0  0  0  0  0  0  0  0
  142.2225   72.4864  226.3411 H   0  0  0  0  0  0  0  0  0  0  0  0
  141.2390   72.1963  224.0791 H   0  0  0  0  0  0  0  0  0  0  0  0
  1  2  1  0
  2  3  1  0
  3  4  1  0
  4  5  1  0
  5  6  1  0
  6  7  2  0
  6  8  1  0
  8  9  2  0
  9 10  1  0
 10 11  2  0
 11 12  1  0
 12 13  2  0
 13 14  1  0
 13 15  1  0
 15 16  2  0
 16 17  1  0
 17 18  2  0
  2 19  1  0
 19 20  2  0
 19 21  1  0
 21 22  1  0
 22 23  1  0
 23 24  2  0
 23 25  1  0
 25 26  2  0
 26 27  1  0
 27 28  2  0
 28 29  1  0
 29 30  2  0
 30 31  1  0
 31 32  2  0
 32 33  1  0
 33 34  2  0
 18  8  1  0
 34 25  1  0
 17 11  1  0
 34 29  1  0
  1 35  1  0
  1 36  1  0
  1 37  1  0
  3 38  1  0
  3 39  1  0
  4 40  1  0
  4 41  1  0
  5 42  1  0
  9 43  1  0
 10 44  1  0
 12 45  1  0
 15 46  1  0
 16 47  1  0
 21 48  1  0
 21 49  1  0
 22 50  1  0
 26 51  1  0
 27 52  1  0
 28 53  1  0
 30 54  1  0
 31 55  1  0
 32 56  1  0
 33 57  1  0
M  END
>  <smiles>  (3) 
CN(CCNC(=O)c1ccc2cc(Cl)ccc2n1)C(=O)CNC(=O)c1cccc2ccccc12

>  <score_type>  (3) 
oracle

>  <origin>  (3) 
autodockgpu

>  <m_score__min__energy>  (3) 
-9.7200000000000006

>  <m_primary>  (3) 
energy

>  <rmsd>  (3) 
4.994552188441573

>  <m_score__min__rmsd>  (3) 
4.994552188441573

>  <meeko>  (3) 
{"free_energy": -6.94, "intermolecular_energy": -9.33, "internal_energy": -3.84, "cluster_size": 3, "cluster_id": 3, "rank_in_cluster": 3}

>  <energy>  (3) 
-6.56

>  <cluster_rmsd>  (3) 
1.95

>  <cluster>  (3) 
1

$$$$

     RDKit          3D

 57 60  0  0  0  0  0  0  0  0999 V2000
  144.1080   73.8010  217.7710 C   0  0  0  0  0  0  0  0  0  0  0  0
  143.2880   74.5790  218.6500 N   0  0  0  0  0  0  0  0  0  0  0  0
  142.3280   73.7700  219.4650 C   0  0  0  0  0  0  0  0  0  0  0  0
  142.5750   74.2520  220.8840 C   0  0  0  0  0  0  0  0  0  0  0  0
  141.7870   75.4280  221.1180 N   0  0  0  0  0  0  0  0  0  0  0  0
  140.4890   75.4370  221.6690 C   0  0  0  0  0  0  0  0  0  0  0  0
  139.9540   74.3310  221.9930 O   0  0  0  0  0  0  0  0  0  0  0  0
  139.7340   76.6670  221.8850 C   0  0  0  0  0  0  0  0  0  0  0  0
  138.7150   77.0240  221.0450 C   0  0  0  0  0  0  0  0  0  0  0  0
  137.9560   78.1660  221.1790 C   0  0  0  0  0  0  0  0  0  0  0  0
  138.2510   79.0020  222.2350 C   0  0  0  0  0  0  0  0  0  0  0  0
  137.4980   80.1390  222.3690 C   0  0  0  0  0  0  0  0  0  0  0  0
  137.7640   80.9960  223.4110 C   0  0  0  0  0  0  0  0  0  0  0  0
  136.8230   82.4730  223.6280 Cl  0  0  0  0  0  0  0  0  0  0  0  0
  138.7800   80.6670  224.2710 C   0  0  0  0  0  0  0  0  0  0  0  0
  139.5470   79.5170  224.1400 C   0  0  0  0  0  0  0  0  0  0  0  0
  139.2780   78.6480  223.0840 C   0  0  0  0  0  0  0  0  0  0  0  0
  140.0030   77.5100  222.9170 N   0  0  0  0  0  0  0  0  0  0  0  0
  143.2510   75.9510  218.8560 C   0  0  0  0  0  0  0  0  0  0  0  0
  144.0860   76.3830  219.7840 O   0  0  0  0  0  0  0  0  0  0  0  0
  142.4810   77.0360  218.2670 C   0  0  0  0  0  0  0  0  0  0  0  0
  142.4620   78.2360  219.0140 N   0  0  0  0  0  0  0  0  0  0  0  0
  141.1630   78.8610  219.1860 C   0  0  0  0  0  0  0  0  0  0  0  0
  140.1810   78.2770  218.6580 O   0  0  0  0  0  0  0  0  0  0  0  0
  141.0240   80.1060  219.9400 C   0  0  0  0  0  0  0  0  0  0  0  0
  140.3480   81.1450  219.3320 C   0  0  0  0  0  0  0  0  0  0  0  0
  140.1890   82.3500  220.0070 C   0  0  0  0  0  0  0  0  0  0  0  0
  140.7040   82.5270  221.2960 C   0  0  0  0  0  0  0  0  0  0  0  0
  141.3730   81.4720  221.8760 C   0  0  0  0  0  0  0  0  0  0  0  0
  141.8940   81.6320  223.1640 C   0  0  0  0  0  0  0  0  0  0  0  0
  142.5740   80.5930  223.7830 C   0  0  0  0  0  0  0  0  0  0  0  0
  142.7240   79.4030  223.1020 C   0  0  0  0  0  0  0  0  0  0  0  0
  142.2170   79.2150  221.8220 C   0  0  0  0  0  0  0  0  0  0  0  0
  141.5470   80.2520  221.2230 C   0  0  0  0  0  0  0  0  0  0  0  0
  144.7798   73.1636  218.3646 H   0  0  0  0  0  0  0  0  0  0  0  0
  143.4689   73.1693  217.1366 H   0  0  0  0  0  0  0  0  0  0  0  0
  144.7052   74.4724  217.1366 H   0  0  0  0  0  0  0  0  0  0  0  0
  141.2898   73.9653  219.1584 H   0  0  0  0  0  0  0  0  0  0  0  0
  142.4744   72.6860  219.3488 H   0  0  0  0  0  0  0  0  0  0  0  0
  142.2859   73.4657  221.5969 H   0  0  0  0  0  0  0  0  0  0  0  0
  143.6416   74.4846  221.0188 H   0  0  0  0  0  0  0  0  0  0  0  0
  142.1910   76.3740  220.8650 H   0  0  0  0  0  0  0  0  0  0  0  0
  138.4857   76.3527  220.2043 H   0  0  0  0  0  0  0  0  0  0  0  0
  137.1470   78.4014  220.4718 H   0  0  0  0  0  0  0  0  0  0  0  0
  136.6928   80.3628  221.6538 H   0  0  0  0  0  0  0  0  0  0  0  0
  138.9984   81.3483  225.1066 H   0  0  0  0  0  0  0  0  0  0  0  0
  140.3520   79.2959  224.8563 H   0  0  0  0  0  0  0  0  0  0  0  0
  142.9076   77.2579  217.2777 H   0  0  0  0  0  0  0  0  0  0  0  0
  141.4394   76.6846  218.2280 H   0  0  0  0  0  0  0  0  0  0  0  0
  143.2300   78.7540  219.4640 H   0  0  0  0  0  0  0  0  0  0  0  0
  139.9375   81.0201  218.3191 H   0  0  0  0  0  0  0  0  0  0  0  0
  139.6503   83.1766  219.5205 H   0  0  0  0  0  0  0  0  0  0  0  0
  140.5783   83.4803  221.8302 H   0  0  0  0  0  0  0  0  0  0  0  0
  141.7636   82.5890  223.6904 H   0  0  0  0  0  0  0  0  0  0  0  0
  142.9850   80.7158  224.7959 H   0  0  0  0  0  0  0  0  0  0  0  0
  143.2624   78.5760  223.5879 H   0  0  0  0  0  0  0  0  0  0  0  0
  142.3498   78.2558  221.3002 H   0  0  0  0  0  0  0  0  0  0  0  0
  1  2  1  0
  2  3  1  0
  3  4  1  0
  4  5  1  0
  5  6  1  0
  6  7  2  0
  6  8  1  0
  8  9  2  0
  9 10  1  0
 10 11  2  0
 11 12  1  0
 12 13  2  0
 13 14  1  0
 13 15  1  0
 15 16  2  0
 16 17  1  0
 17 18  2  0
  2 19  1  0
 19 20  2  0
 19 21  1  0
 21 22  1  0
 22 23  1  0
 23 24  2  0
 23 25  1  0
 25 26  2  0
 26 27  1  0
 27 28  2  0
 28 29  1  0
 29 30  2  0
 30 31  1  0
 31 32  2  0
 32 33  1  0
 33 34  2  0
 18  8  1  0
 34 25  1  0
 17 11  1  0
 34 29  1  0
  1 35  1  0
  1 36  1  0
  1 37  1  0
  3 38  1  0
  3 39  1  0
  4 40  1  0
  4 41  1  0
  5 42  1  0
  9 43  1  0
 10 44  1  0
 12 45  1  0
 15 46  1  0
 16 47  1  0
 21 48  1  0
 21 49  1  0
 22 50  1  0
 26 51  1  0
 27 52  1  0
 28 53  1  0
 30 54  1  0
 31 55  1  0
 32 56  1  0
 33 57  1  0
M  END
>  <smiles>  (4) 
CN(CCNC(=O)c1ccc2cc(Cl)ccc2n1)C(=O)CNC(=O)c1cccc2ccccc12

>  <score_type>  (4) 
oracle

>  <origin>  (4) 
autodockgpu

>  <m_score__min__energy>  (4) 
-9.7200000000000006

>  <m_primary>  (4) 
energy

>  <rmsd>  (4) 
8.172296967449459

>  <m_score__min__rmsd>  (4) 
8.172296967449459

>  <meeko>  (4) 
{"free_energy": -7.08, "intermolecular_energy": -9.47, "internal_energy": -4.67, "cluster_size": 13, "cluster_id": 7, "rank_in_cluster": 2}

>  <energy>  (4) 
-9.66

>  <cluster_rmsd>  (4) 
0.0

>  <cluster>  (4) 
2

$$$$

     RDKit          3D

 57 60  0  0  0  0  0  0  0  0999 V2000
  135.7670   73.3150  223.0810 C   0  0  0  0  0  0  0  0  0  0  0  0
  136.5650   73.3490  221.8920 N   0  0  0  0  0  0  0  0  0  0  0  0
  135.7710   73.4650  220.6280 C   0  0  0  0  0  0  0  0  0  0  0  0
  135.2060   74.8720  220.6920 C   0  0  0  0  0  0  0  0  0  0  0  0
  136.2450   75.7720  221.1010 N   0  0  0  0  0  0  0  0  0  0  0  0
  136.1390   76.7070  222.1520 C   0  0  0  0  0  0  0  0  0  0  0  0
  135.0500   76.7770  222.8010 O   0  0  0  0  0  0  0  0  0  0  0  0
  137.2320   77.6000  222.5240 C   0  0  0  0  0  0  0  0  0  0  0  0
  136.9810   78.8460  223.0300 C   0  0  0  0  0  0  0  0  0  0  0  0
  137.9550   79.7460  223.4050 C   0  0  0  0  0  0  0  0  0  0  0  0
  139.2690   79.3580  223.2550 C   0  0  0  0  0  0  0  0  0  0  0  0
  140.2380   80.2530  223.6260 C   0  0  0  0  0  0  0  0  0  0  0  0
  141.5600   79.8990  223.4900 C   0  0  0  0  0  0  0  0  0  0  0  0
  142.8460   81.0150  223.9540 Cl  0  0  0  0  0  0  0  0  0  0  0  0
  141.8440   78.6560  222.9850 C   0  0  0  0  0  0  0  0  0  0  0  0
  140.8670   77.7450  222.6070 C   0  0  0  0  0  0  0  0  0  0  0  0
  139.5270   78.1030  222.7440 C   0  0  0  0  0  0  0  0  0  0  0  0
  138.5360   77.2440  222.3870 N   0  0  0  0  0  0  0  0  0  0  0  0
  137.9430   73.2930  221.7390 C   0  0  0  0  0  0  0  0  0  0  0  0
  138.5300   74.4740  221.6690 O   0  0  0  0  0  0  0  0  0  0  0  0
  138.9000   72.2020  221.6360 C   0  0  0  0  0  0  0  0  0  0  0  0
  138.8230   71.2330  222.6610 N   0  0  0  0  0  0  0  0  0  0  0  0
  139.8380   71.3150  223.6960 C   0  0  0  0  0  0  0  0  0  0  0  0
  140.6860   72.2380  223.5830 O   0  0  0  0  0  0  0  0  0  0  0  0
  139.8560   70.3630  224.8060 C   0  0  0  0  0  0  0  0  0  0  0  0
  139.3220   69.1100  224.5790 C   0  0  0  0  0  0  0  0  0  0  0  0
  139.3150   68.1710  225.6030 C   0  0  0  0  0  0  0  0  0  0  0  0
  139.8410   68.4740  226.8630 C   0  0  0  0  0  0  0  0  0  0  0  0
  140.3670   69.7310  227.0590 C   0  0  0  0  0  0  0  0  0  0  0  0
  140.8970   70.0510  228.3130 C   0  0  0  0  0  0  0  0  0  0  0  0
  141.4360   71.3070  228.5510 C   0  0  0  0  0  0  0  0  0  0  0  0
  141.4370   72.2310  227.5250 C   0  0  0  0  0  0  0  0  0  0  0  0
  140.9170   71.9410  226.2700 C   0  0  0  0  0  0  0  0  0  0  0  0
  140.3880   70.6950  226.0500 C   0  0  0  0  0  0  0  0  0  0  0  0
  136.4228   73.3429  223.9637 H   0  0  0  0  0  0  0  0  0  0  0  0
  135.0944   74.1853  223.0962 H   0  0  0  0  0  0  0  0  0  0  0  0
  135.1709   72.3906  223.0962 H   0  0  0  0  0  0  0  0  0  0  0  0
  136.4160   73.3401  219.7457 H   0  0  0  0  0  0  0  0  0  0  0  0
  134.9914   72.6940  220.5397 H   0  0  0  0  0  0  0  0  0  0  0  0
  134.8328   75.1655  219.6997 H   0  0  0  0  0  0  0  0  0  0  0  0
  134.3766   74.9079  221.4136 H   0  0  0  0  0  0  0  0  0  0  0  0
  137.1720   75.7510  220.5900 H   0  0  0  0  0  0  0  0  0  0  0  0
  135.9302   79.1502  223.1454 H   0  0  0  0  0  0  0  0  0  0  0  0
  137.6939   80.7355  223.8083 H   0  0  0  0  0  0  0  0  0  0  0  0
  139.9627   81.2398  224.0266 H   0  0  0  0  0  0  0  0  0  0  0  0
  142.8993   78.3662  222.8738 H   0  0  0  0  0  0  0  0  0  0  0  0
  141.1453   76.7589  222.2068 H   0  0  0  0  0  0  0  0  0  0  0  0
  138.7339   71.6938  220.6747 H   0  0  0  0  0  0  0  0  0  0  0  0
  139.8956   72.6611  221.7254 H   0  0  0  0  0  0  0  0  0  0  0  0
  138.1560   70.4620  222.8010 H   0  0  0  0  0  0  0  0  0  0  0  0
  138.9046   68.8568  223.5933 H   0  0  0  0  0  0  0  0  0  0  0  0
  138.8890   67.1735  225.4198 H   0  0  0  0  0  0  0  0  0  0  0  0
  139.8346   67.7301  227.6733 H   0  0  0  0  0  0  0  0  0  0  0  0
  140.8864   69.3006  229.1173 H   0  0  0  0  0  0  0  0  0  0  0  0
  141.8538   71.5614  229.5363 H   0  0  0  0  0  0  0  0  0  0  0  0
  141.8632   73.2286  227.7072 H   0  0  0  0  0  0  0  0  0  0  0  0
  140.9293   72.6951  225.4693 H   0  0  0  0  0  0  0  0  0  0  0  0
  1  2  1  0
  2  3  1  0
  3  4  1  0
  4  5  1  0
  5  6  1  0
  6  7  2  0
  6  8  1  0
  8  9  2  0
  9 10  1  0
 10 11  2  0
 11 12  1  0
 12 13  2  0
 13 14  1  0
 13 15  1  0
 15 16  2  0
 16 17  1  0
 17 18  2  0
  2 19  1  0
 19 20  2  0
 19 21  1  0
 21 22  1  0
 22 23  1  0
 23 24  2  0
 23 25  1  0
 25 26  2  0
 26 27  1  0
 27 28  2  0
 28 29  1  0
 29 30  2  0
 30 31  1  0
 31 32  2  0
 32 33  1  0
 33 34  2  0
 18  8  1  0
 34 25  1  0
 17 11  1  0
 34 29  1  0
  1 35  1  0
  1 36  1  0
  1 37  1  0
  3 38  1  0
  3 39  1  0
  4 40  1  0
  4 41  1  0
  5 42  1  0
  9 43  1  0
 10 44  1  0
 12 45  1  0
 15 46  1  0
 16 47  1  0
 21 48  1  0
 21 49  1  0
 22 50  1  0
 26 51  1  0
 27 52  1  0
 28 53  1  0
 30 54  1  0
 31 55  1  0
 32 56  1  0
 33 57  1  0
M  END
>  <smiles>  (5) 
CN(CCNC(=O)c1ccc2cc(Cl)ccc2n1)C(=O)CNC(=O)c1cccc2ccccc12

>  <score_type>  (5) 
oracle

>  <origin>  (5) 
autodockgpu

>  <m_score__min__energy>  (5) 
-9.7200000000000006

>  <m_primary>  (5) 
energy

>  <rmsd>  (5) 
4.027342060763134

>  <m_score__min__rmsd>  (5) 
4.027342060763134

>  <meeko>  (5) 
{"free_energy": -8.62, "intermolecular_energy": -11.01, "internal_energy": -2.26, "cluster_size": 2, "cluster_id": 4, "rank_in_cluster": 2}

>  <energy>  (5) 
-9.62

>  <cluster_rmsd>  (5) 
0.39

>  <cluster>  (5) 
2

$$$$

     RDKit          3D

 57 60  0  0  0  0  0  0  0  0999 V2000
  134.8490   75.5770  224.2950 C   0  0  0  0  0  0  0  0  0  0  0  0
  135.4310   75.9100  223.0300 N   0  0  0  0  0  0  0  0  0  0  0  0
  135.6820   74.7300  222.1440 C   0  0  0  0  0  0  0  0  0  0  0  0
  137.1620   74.4520  222.3360 C   0  0  0  0  0  0  0  0  0  0  0  0
  137.9170   75.4860  221.6890 N   0  0  0  0  0  0  0  0  0  0  0  0
  139.3230   75.5910  221.7020 C   0  0  0  0  0  0  0  0  0  0  0  0
  139.9960   74.7140  222.3280 O   0  0  0  0  0  0  0  0  0  0  0  0
  140.0390   76.6680  221.0240 C   0  0  0  0  0  0  0  0  0  0  0  0
  141.3900   76.5970  220.8260 C   0  0  0  0  0  0  0  0  0  0  0  0
  142.1380   77.5690  220.1970 C   0  0  0  0  0  0  0  0  0  0  0  0
  141.4710   78.6860  219.7410 C   0  0  0  0  0  0  0  0  0  0  0  0
  142.2130   79.6540  219.1160 C   0  0  0  0  0  0  0  0  0  0  0  0
  141.5810   80.7820  218.6480 C   0  0  0  0  0  0  0  0  0  0  0  0
  142.4910   82.0560  217.8360 Cl  0  0  0  0  0  0  0  0  0  0  0  0
  140.2260   80.8820  218.8330 C   0  0  0  0  0  0  0  0  0  0  0  0
  139.4680   79.9050  219.4650 C   0  0  0  0  0  0  0  0  0  0  0  0
  140.1090   78.7620  219.9390 C   0  0  0  0  0  0  0  0  0  0  0  0
  139.4070   77.7800  220.5650 N   0  0  0  0  0  0  0  0  0  0  0  0
  135.7920   77.1460  222.5100 C   0  0  0  0  0  0  0  0  0  0  0  0
  135.7800   77.2040  221.1910 O   0  0  0  0  0  0  0  0  0  0  0  0
  136.1880   78.4120  223.1080 C   0  0  0  0  0  0  0  0  0  0  0  0
  137.3180   79.0270  222.5240 N   0  0  0  0  0  0  0  0  0  0  0  0
  137.8740   80.1590  223.2440 C   0  0  0  0  0  0  0  0  0  0  0  0
  137.3010   80.4820  224.3160 O   0  0  0  0  0  0  0  0  0  0  0  0
  139.0430   80.8720  222.7320 C   0  0  0  0  0  0  0  0  0  0  0  0
  138.8250   82.0830  222.1050 C   0  0  0  0  0  0  0  0  0  0  0  0
  139.9040   82.8000  221.6010 C   0  0  0  0  0  0  0  0  0  0  0  0
  141.2100   82.3140  221.7180 C   0  0  0  0  0  0  0  0  0  0  0  0
  141.3960   81.1040  222.3500 C   0  0  0  0  0  0  0  0  0  0  0  0
  142.6960   80.6040  222.4750 C   0  0  0  0  0  0  0  0  0  0  0  0
  142.9250   79.3880  223.1040 C   0  0  0  0  0  0  0  0  0  0  0  0
  141.8450   78.6870  223.6000 C   0  0  0  0  0  0  0  0  0  0  0  0
  140.5430   79.1600  223.4900 C   0  0  0  0  0  0  0  0  0  0  0  0
  140.3330   80.3630  222.8650 C   0  0  0  0  0  0  0  0  0  0  0  0
  135.4953   75.9468  225.1047 H   0  0  0  0  0  0  0  0  0  0  0  0
  133.8562   76.0438  224.3761 H   0  0  0  0  0  0  0  0  0  0  0  0
  134.7483   74.4846  224.3761 H   0  0  0  0  0  0  0  0  0  0  0  0
  135.0759   73.8671  222.4571 H   0  0  0  0  0  0  0  0  0  0  0  0
  135.4138   74.9177  221.0938 H   0  0  0  0  0  0  0  0  0  0  0  0
  137.3989   74.4389  223.4101 H   0  0  0  0  0  0  0  0  0  0  0  0
  137.4174   73.4753  221.8992 H   0  0  0  0  0  0  0  0  0  0  0  0
  137.4000   76.2390  221.1540 H   0  0  0  0  0  0  0  0  0  0  0  0
  141.9157   75.7034  221.1937 H   0  0  0  0  0  0  0  0  0  0  0  0
  143.2243   77.4578  220.0641 H   0  0  0  0  0  0  0  0  0  0  0  0
  143.2988   79.5304  218.9905 H   0  0  0  0  0  0  0  0  0  0  0  0
  139.7134   81.7818  218.4620 H   0  0  0  0  0  0  0  0  0  0  0  0
  138.3823   80.0309  219.5891 H   0  0  0  0  0  0  0  0  0  0  0  0
  135.3403   79.1079  223.0235 H   0  0  0  0  0  0  0  0  0  0  0  0
  136.4681   78.1839  224.1470 H   0  0  0  0  0  0  0  0  0  0  0  0
  137.8240   78.8050  221.6550 H   0  0  0  0  0  0  0  0  0  0  0  0
  137.8032   82.4780  222.0050 H   0  0  0  0  0  0  0  0  0  0  0  0
  139.7278   83.7646  221.1024 H   0  0  0  0  0  0  0  0  0  0  0  0
  142.0633   82.8809  221.3174 H   0  0  0  0  0  0  0  0  0  0  0  0
  143.5431   81.1784  222.0720 H   0  0  0  0  0  0  0  0  0  0  0  0
  143.9461   78.9915  223.2049 H   0  0  0  0  0  0  0  0  0  0  0  0
  142.0203   77.7224  224.0987 H   0  0  0  0  0  0  0  0  0  0  0  0
  139.6991   78.5824  223.8953 H   0  0  0  0  0  0  0  0  0  0  0  0
  1  2  1  0
  2  3  1  0
  3  4  1  0
  4  5  1  0
  5  6  1  0
  6  7  2  0
  6  8  1  0
  8  9  2  0
  9 10  1  0
 10 11  2  0
 11 12  1  0
 12 13  2  0
 13 14  1  0
 13 15  1  0
 15 16  2  0
 16 17  1  0
 17 18  2  0
  2 19  1  0
 19 20  2  0
 19 21  1  0
 21 22  1  0
 22 23  1  0
 23 24  2  0
 23 25  1  0
 25 26  2  0
 26 27  1  0
 27 28  2  0
 28 29  1  0
 29 30  2  0
 30 31  1  0
 31 32  2  0
 32 33  1  0
 33 34  2  0
 18  8  1  0
 34 25  1  0
 17 11  1  0
 34 29  1  0
  1 35  1  0
  1 36  1  0
  1 37  1  0
  3 38  1  0
  3 39  1  0
  4 40  1  0
  4 41  1  0
  5 42  1  0
  9 43  1  0
 10 44  1  0
 12 45  1  0
 15 46  1  0
 16 47  1  0
 21 48  1  0
 21 49  1  0
 22 50  1  0
 26 51  1  0
 27 52  1  0
 28 53  1  0
 30 54  1  0
 31 55  1  0
 32 56  1  0
 33 57  1  0
M  END
>  <smiles>  (6) 
CN(CCNC(=O)c1ccc2cc(Cl)ccc2n1)C(=O)CNC(=O)c1cccc2ccccc12

>  <score_type>  (6) 
oracle

>  <origin>  (6) 
autodockgpu

>  <m_score__min__energy>  (6) 
-9.7200000000000006

>  <m_primary>  (6) 
energy

>  <rmsd>  (6) 
8.578760932040453

>  <m_score__min__rmsd>  (6) 
8.578760932040453

>  <meeko>  (6) 
{"free_energy": -6.14, "intermolecular_energy": -8.52, "internal_energy": -5.62, "cluster_size": 2, "cluster_id": 11, "rank_in_cluster": 1}

>  <energy>  (6) 
-9.5

>  <cluster_rmsd>  (6) 
1.51

>  <cluster>  (6) 
2

$$$$

     RDKit          3D

 57 60  0  0  0  0  0  0  0  0999 V2000
  143.9350   76.0060  219.9430 C   0  0  0  0  0  0  0  0  0  0  0  0
  143.0950   75.8950  218.7890 N   0  0  0  0  0  0  0  0  0  0  0  0
  142.3380   74.6060  218.7060 C   0  0  0  0  0  0  0  0  0  0  0  0
  141.9090   74.3550  220.1400 C   0  0  0  0  0  0  0  0  0  0  0  0
  141.0890   75.4470  220.5780 N   0  0  0  0  0  0  0  0  0  0  0  0
  140.1290   75.3760  221.6090 C   0  0  0  0  0  0  0  0  0  0  0  0
  139.9590   74.2720  222.2130 O   0  0  0  0  0  0  0  0  0  0  0  0
  139.3210   76.5230  222.0130 C   0  0  0  0  0  0  0  0  0  0  0  0
  138.0050   76.6190  221.6520 C   0  0  0  0  0  0  0  0  0  0  0  0
  137.1770   77.6660  221.9910 C   0  0  0  0  0  0  0  0  0  0  0  0
  137.7200   78.6850  222.7460 C   0  0  0  0  0  0  0  0  0  0  0  0
  136.8980   79.7280  223.0830 C   0  0  0  0  0  0  0  0  0  0  0  0
  137.4060   80.7610  223.8350 C   0  0  0  0  0  0  0  0  0  0  0  0
  136.3880   82.1260  224.2970 Cl  0  0  0  0  0  0  0  0  0  0  0  0
  138.7220   80.6950  224.2130 C   0  0  0  0  0  0  0  0  0  0  0  0
  139.5600   79.6410  223.8740 C   0  0  0  0  0  0  0  0  0  0  0  0
  139.0460   78.5940  223.1120 C   0  0  0  0  0  0  0  0  0  0  0  0
  139.8300   77.5410  222.7560 N   0  0  0  0  0  0  0  0  0  0  0  0
  142.8810   76.7910  217.7510 C   0  0  0  0  0  0  0  0  0  0  0  0
  143.8200   76.7820  216.8230 O   0  0  0  0  0  0  0  0  0  0  0  0
  141.8330   77.7570  217.4560 C   0  0  0  0  0  0  0  0  0  0  0  0
  141.9000   78.9630  218.1900 N   0  0  0  0  0  0  0  0  0  0  0  0
  140.9490   79.1040  219.2770 C   0  0  0  0  0  0  0  0  0  0  0  0
  140.1580   78.1420  219.4640 O   0  0  0  0  0  0  0  0  0  0  0  0
  140.9270   80.3100  220.1030 C   0  0  0  0  0  0  0  0  0  0  0  0
  140.2650   81.4130  219.6010 C   0  0  0  0  0  0  0  0  0  0  0  0
  140.2160   82.5840  220.3480 C   0  0  0  0  0  0  0  0  0  0  0  0
  140.8280   82.6630  221.6040 C   0  0  0  0  0  0  0  0  0  0  0  0
  141.4790   81.5460  222.0780 C   0  0  0  0  0  0  0  0  0  0  0  0
  142.0970   81.6090  223.3320 C   0  0  0  0  0  0  0  0  0  0  0  0
  142.7630   80.5060  223.8450 C   0  0  0  0  0  0  0  0  0  0  0  0
  142.8040   79.3490  223.0920 C   0  0  0  0  0  0  0  0  0  0  0  0
  142.2000   79.2580  221.8450 C   0  0  0  0  0  0  0  0  0  0  0  0
  141.5450   80.3580  221.3510 C   0  0  0  0  0  0  0  0  0  0  0  0
  143.3214   75.9249  220.8523 H   0  0  0  0  0  0  0  0  0  0  0  0
  144.6822   75.1988  219.9317 H   0  0  0  0  0  0  0  0  0  0  0  0
  144.4468   76.9796  219.9317 H   0  0  0  0  0  0  0  0  0  0  0  0
  141.4639   74.7050  218.0456 H   0  0  0  0  0  0  0  0  0  0  0  0
  142.9365   73.7835  218.2873 H   0  0  0  0  0  0  0  0  0  0  0  0
  141.3359   73.4177  220.1952 H   0  0  0  0  0  0  0  0  0  0  0  0
  142.7961   74.2732  220.7853 H   0  0  0  0  0  0  0  0  0  0  0  0
  141.1940   76.3890  220.1060 H   0  0  0  0  0  0  0  0  0  0  0  0
  137.5787   75.8036  221.0493 H   0  0  0  0  0  0  0  0  0  0  0  0
  136.1244   77.6889  221.6724 H   0  0  0  0  0  0  0  0  0  0  0  0
  135.8475   79.7388  222.7569 H   0  0  0  0  0  0  0  0  0  0  0  0
  139.1347   81.5180  224.8149 H   0  0  0  0  0  0  0  0  0  0  0  0
  140.6102   79.6328  224.2010 H   0  0  0  0  0  0  0  0  0  0  0  0
  141.8918   78.0064  216.3863 H   0  0  0  0  0  0  0  0  0  0  0  0
  140.8863   77.2770  217.7448 H   0  0  0  0  0  0  0  0  0  0  0  0
  142.5220   79.7760  218.0810 H   0  0  0  0  0  0  0  0  0  0  0  0
  139.7791   81.3651  218.6153 H   0  0  0  0  0  0  0  0  0  0  0  0
  139.6884   83.4616  219.9461 H   0  0  0  0  0  0  0  0  0  0  0  0
  140.7902   83.5899  222.1951 H   0  0  0  0  0  0  0  0  0  0  0  0
  142.0542   82.5406  223.9153 H   0  0  0  0  0  0  0  0  0  0  0  0
  143.2484   80.5517  224.8310 H   0  0  0  0  0  0  0  0  0  0  0  0
  143.3321   78.4713  223.4930 H   0  0  0  0  0  0  0  0  0  0  0  0
  142.2456   78.3241  221.2655 H   0  0  0  0  0  0  0  0  0  0  0  0
  1  2  1  0
  2  3  1  0
  3  4  1  0
  4  5  1  0
  5  6  1  0
  6  7  2  0
  6  8  1  0
  8  9  2  0
  9 10  1  0
 10 11  2  0
 11 12  1  0
 12 13  2  0
 13 14  1  0
 13 15  1  0
 15 16  2  0
 16 17  1  0
 17 18  2  0
  2 19  1  0
 19 20  2  0
 19 21  1  0
 21 22  1  0
 22 23  1  0
 23 24  2  0
 23 25  1  0
 25 26  2  0
 26 27  1  0
 27 28  2  0
 28 29  1  0
 29 30  2  0
 30 31  1  0
 31 32  2  0
 32 33  1  0
 33 34  2  0
 18  8  1  0
 34 25  1  0
 17 11  1  0
 34 29  1  0
  1 35  1  0
  1 36  1  0
  1 37  1  0
  3 38  1  0
  3 39  1  0
  4 40  1  0
  4 41  1  0
  5 42  1  0
  9 43  1  0
 10 44  1  0
 12 45  1  0
 15 46  1  0
 16 47  1  0
 21 48  1  0
 21 49  1  0
 22 50  1  0
 26 51  1  0
 27 52  1  0
 28 53  1  0
 30 54  1  0
 31 55  1  0
 32 56  1  0
 33 57  1  0
M  END
>  <smiles>  (7) 
CN(CCNC(=O)c1ccc2cc(Cl)ccc2n1)C(=O)CNC(=O)c1cccc2ccccc12

>  <score_type>  (7) 
oracle

>  <origin>  (7) 
autodockgpu

>  <m_score__min__energy>  (7) 
-9.7200000000000006

>  <m_primary>  (7) 
energy

>  <rmsd>  (7) 
8.397431925632855

>  <m_score__min__rmsd>  (7) 
8.397431925632855

>  <meeko>  (7) 
{"free_energy": -6.72, "intermolecular_energy": -9.1, "internal_energy": -4.28, "cluster_size": 4, "cluster_id": 9, "rank_in_cluster": 2}

>  <energy>  (7) 
-9.46

>  <cluster_rmsd>  (7) 
1.17

>  <cluster>  (7) 
2

$$$$

     RDKit          3D

 57 60  0  0  0  0  0  0  0  0999 V2000
  138.9570   69.0630  220.3260 C   0  0  0  0  0  0  0  0  0  0  0  0
  139.2890   70.4460  220.1610 N   0  0  0  0  0  0  0  0  0  0  0  0
  140.5410   70.6840  219.3760 C   0  0  0  0  0  0  0  0  0  0  0  0
  141.5620   71.0460  220.4390 C   0  0  0  0  0  0  0  0  0  0  0  0
  141.4600   72.4490  220.7220 N   0  0  0  0  0  0  0  0  0  0  0  0
  142.1130   73.4700  220.0010 C   0  0  0  0  0  0  0  0  0  0  0  0
  142.8530   73.1500  219.0200 O   0  0  0  0  0  0  0  0  0  0  0  0
  141.9720   74.8840  220.3360 C   0  0  0  0  0  0  0  0  0  0  0  0
  142.6210   75.8460  219.6120 C   0  0  0  0  0  0  0  0  0  0  0  0
  142.5400   77.1990  219.8640 C   0  0  0  0  0  0  0  0  0  0  0  0
  141.7510   77.6010  220.9200 C   0  0  0  0  0  0  0  0  0  0  0  0
  141.6710   78.9460  221.1720 C   0  0  0  0  0  0  0  0  0  0  0  0
  140.8920   79.3830  222.2180 C   0  0  0  0  0  0  0  0  0  0  0  0
  140.7550   81.1040  222.5830 Cl  0  0  0  0  0  0  0  0  0  0  0  0
  140.2290   78.4420  222.9630 C   0  0  0  0  0  0  0  0  0  0  0  0
  140.3060   77.0790  222.7130 C   0  0  0  0  0  0  0  0  0  0  0  0
  141.0950   76.6350  221.6530 C   0  0  0  0  0  0  0  0  0  0  0  0
  141.2010   75.3090  221.3710 N   0  0  0  0  0  0  0  0  0  0  0  0
  138.6320   71.5820  220.6130 C   0  0  0  0  0  0  0  0  0  0  0  0
  138.0490   72.2870  219.6610 O   0  0  0  0  0  0  0  0  0  0  0  0
  138.4440   72.1790  221.9270 C   0  0  0  0  0  0  0  0  0  0  0  0
  138.4480   71.2710  223.0080 N   0  0  0  0  0  0  0  0  0  0  0  0
  139.7050   71.1320  223.7220 C   0  0  0  0  0  0  0  0  0  0  0  0
  140.6670   71.8320  223.3120 O   0  0  0  0  0  0  0  0  0  0  0  0
  139.8270   70.2200  224.8580 C   0  0  0  0  0  0  0  0  0  0  0  0
  139.3740   68.9260  224.6860 C   0  0  0  0  0  0  0  0  0  0  0  0
  139.4670   68.0210  225.7370 C   0  0  0  0  0  0  0  0  0  0  0  0
  140.0120   68.4000  226.9680 C   0  0  0  0  0  0  0  0  0  0  0  0
  140.4560   69.6960  227.1080 C   0  0  0  0  0  0  0  0  0  0  0  0
  141.0030   70.0910  228.3330 C   0  0  0  0  0  0  0  0  0  0  0  0
  141.4610   71.3890  228.5150 C   0  0  0  0  0  0  0  0  0  0  0  0
  141.3630   72.2770  227.4630 C   0  0  0  0  0  0  0  0  0  0  0  0
  140.8240   71.9130  226.2360 C   0  0  0  0  0  0  0  0  0  0  0  0
  140.3760   70.6260  226.0720 C   0  0  0  0  0  0  0  0  0  0  0  0
  138.8999   68.8251  221.3984 H   0  0  0  0  0  0  0  0  0  0  0  0
  137.9847   68.8604  219.8532 H   0  0  0  0  0  0  0  0  0  0  0  0
  139.7314   68.4411  219.8532 H   0  0  0  0  0  0  0  0  0  0  0  0
  140.8434   69.7762  218.8333 H   0  0  0  0  0  0  0  0  0  0  0  0
  140.4246   71.4649  218.6101 H   0  0  0  0  0  0  0  0  0  0  0  0
  141.3627   70.4692  221.3542 H   0  0  0  0  0  0  0  0  0  0  0  0
  142.5745   70.8108  220.0791 H   0  0  0  0  0  0  0  0  0  0  0  0
  140.8540   72.7660  221.5310 H   0  0  0  0  0  0  0  0  0  0  0  0
  143.2503   75.5178  218.7716 H   0  0  0  0  0  0  0  0  0  0  0  0
  143.0838   77.9290  219.2464 H   0  0  0  0  0  0  0  0  0  0  0  0
  142.2214   79.6649  220.5473 H   0  0  0  0  0  0  0  0  0  0  0  0
  139.6045   78.7847  223.8012 H   0  0  0  0  0  0  0  0  0  0  0  0
  139.7547   76.3624  223.3396 H   0  0  0  0  0  0  0  0  0  0  0  0
  139.2544   72.9048  222.0897 H   0  0  0  0  0  0  0  0  0  0  0  0
  137.4421   72.6329  221.9145 H   0  0  0  0  0  0  0  0  0  0  0  0
  137.6960   70.6760  223.3840 H   0  0  0  0  0  0  0  0  0  0  0  0
  138.9425   68.6140  223.7235 H   0  0  0  0  0  0  0  0  0  0  0  0
  139.1064   66.9911  225.5984 H   0  0  0  0  0  0  0  0  0  0  0  0
  140.0839   67.6839  227.7999 H   0  0  0  0  0  0  0  0  0  0  0  0
  141.0709   69.3676  229.1589 H   0  0  0  0  0  0  0  0  0  0  0  0
  141.8926   71.7028  229.4769 H   0  0  0  0  0  0  0  0  0  0  0  0
  141.7237   73.3070  227.6010 H   0  0  0  0  0  0  0  0  0  0  0  0
  140.7575   72.6403  225.4134 H   0  0  0  0  0  0  0  0  0  0  0  0
  1  2  1  0
  2  3  1  0
  3  4  1  0
  4  5  1  0
  5  6  1  0
  6  7  2  0
  6  8  1  0
  8  9  2  0
  9 10  1  0
 10 11  2  0
 11 12  1  0
 12 13  2  0
 13 14  1  0
 13 15  1  0
 15 16  2  0
 16 17  1  0
 17 18  2  0
  2 19  1  0
 19 20  2  0
 19 21  1  0
 21 22  1  0
 22 23  1  0
 23 24  2  0
 23 25  1  0
 25 26  2  0
 26 27  1  0
 27 28  2  0
 28 29  1  0
 29 30  2  0
 30 31  1  0
 31 32  2  0
 32 33  1  0
 33 34  2  0
 18  8  1  0
 34 25  1  0
 17 11  1  0
 34 29  1  0
  1 35  1  0
  1 36  1  0
  1 37  1  0
  3 38  1  0
  3 39  1  0
  4 40  1  0
  4 41  1  0
  5 42  1  0
  9 43  1  0
 10 44  1  0
 12 45  1  0
 15 46  1  0
 16 47  1  0
 21 48  1  0
 21 49  1  0
 22 50  1  0
 26 51  1  0
 27 52  1  0
 28 53  1  0
 30 54  1  0
 31 55  1  0
 32 56  1  0
 33 57  1  0
M  END
>  <smiles>  (8) 
CN(CCNC(=O)c1ccc2cc(Cl)ccc2n1)C(=O)CNC(=O)c1cccc2ccccc12

>  <score_type>  (8) 
oracle

>  <origin>  (8) 
autodockgpu

>  <m_score__min__energy>  (8) 
-9.7200000000000006

>  <m_primary>  (8) 
energy

>  <rmsd>  (8) 
4.301294701394853

>  <m_score__min__rmsd>  (8) 
4.301294701394853

>  <meeko>  (8) 
{"free_energy": -8.09, "intermolecular_energy": -10.48, "internal_energy": -2.71, "cluster_size": 1, "cluster_id": 6, "rank_in_cluster": 1}

>  <energy>  (8) 
-9.45

>  <cluster_rmsd>  (8) 
1.37

>  <cluster>  (8) 
2

$$$$

     RDKit          3D

 57 60  0  0  0  0  0  0  0  0999 V2000
  142.2900   73.4020  220.8250 C   0  0  0  0  0  0  0  0  0  0  0  0
  141.5700   74.3590  220.0390 N   0  0  0  0  0  0  0  0  0  0  0  0
  142.3890   75.0080  218.9670 C   0  0  0  0  0  0  0  0  0  0  0  0
  143.3370   75.9060  219.7410 C   0  0  0  0  0  0  0  0  0  0  0  0
  142.6460   77.1080  220.1060 N   0  0  0  0  0  0  0  0  0  0  0  0
  142.2110   78.0990  219.2020 C   0  0  0  0  0  0  0  0  0  0  0  0
  142.4360   77.9370  217.9620 O   0  0  0  0  0  0  0  0  0  0  0  0
  141.5090   79.3050  219.6320 C   0  0  0  0  0  0  0  0  0  0  0  0
  142.1950   80.4560  219.9070 C   0  0  0  0  0  0  0  0  0  0  0  0
  141.6090   81.6340  220.3170 C   0  0  0  0  0  0  0  0  0  0  0  0
  140.2370   81.6430  220.4600 C   0  0  0  0  0  0  0  0  0  0  0  0
  139.6530   82.8130  220.8690 C   0  0  0  0  0  0  0  0  0  0  0  0
  138.2870   82.8590  221.0230 C   0  0  0  0  0  0  0  0  0  0  0  0
  137.4870   84.3410  221.5460 Cl  0  0  0  0  0  0  0  0  0  0  0  0
  137.5720   81.7200  220.7550 C   0  0  0  0  0  0  0  0  0  0  0  0
  138.1580   80.5320  220.3410 C   0  0  0  0  0  0  0  0  0  0  0  0
  139.5420   80.4840  220.1850 C   0  0  0  0  0  0  0  0  0  0  0  0
  140.1600   79.3420  219.7810 N   0  0  0  0  0  0  0  0  0  0  0  0
  140.2460   74.7670  220.1210 C   0  0  0  0  0  0  0  0  0  0  0  0
  139.7470   75.2210  218.9860 O   0  0  0  0  0  0  0  0  0  0  0  0
  139.2710   74.8080  221.2010 C   0  0  0  0  0  0  0  0  0  0  0  0
  138.9190   76.1010  221.6470 N   0  0  0  0  0  0  0  0  0  0  0  0
  139.9570   76.8440  222.3390 C   0  0  0  0  0  0  0  0  0  0  0  0
  141.0680   76.2680  222.4740 O   0  0  0  0  0  0  0  0  0  0  0  0
  139.7060   78.1920  222.8450 C   0  0  0  0  0  0  0  0  0  0  0  0
  138.3920   78.5490  223.0770 C   0  0  0  0  0  0  0  0  0  0  0  0
  138.1010   79.8200  223.5580 C   0  0  0  0  0  0  0  0  0  0  0  0
  139.1190   80.7460  223.8100 C   0  0  0  0  0  0  0  0  0  0  0  0
  140.4180   80.3600  223.5700 C   0  0  0  0  0  0  0  0  0  0  0  0
  141.4480   81.2740  223.8160 C   0  0  0  0  0  0  0  0  0  0  0  0
  142.7710   80.9240  223.5860 C   0  0  0  0  0  0  0  0  0  0  0  0
  143.0460   79.6590  223.1090 C   0  0  0  0  0  0  0  0  0  0  0  0
  142.0440   78.7310  222.8550 C   0  0  0  0  0  0  0  0  0  0  0  0
  140.7410   79.0920  223.0880 C   0  0  0  0  0  0  0  0  0  0  0  0
  142.1322   73.6118  221.8932 H   0  0  0  0  0  0  0  0  0  0  0  0
  141.9276   72.3897  220.5927 H   0  0  0  0  0  0  0  0  0  0  0  0
  143.3630   73.4696  220.5927 H   0  0  0  0  0  0  0  0  0  0  0  0
  142.9447   74.2563  218.3872 H   0  0  0  0  0  0  0  0  0  0  0  0
  141.7790   75.5580  218.2353 H   0  0  0  0  0  0  0  0  0  0  0  0
  143.6788   75.3868  220.6485 H   0  0  0  0  0  0  0  0  0  0  0  0
  144.2086   76.1527  219.1170 H   0  0  0  0  0  0  0  0  0  0  0  0
  142.4340   77.2870  221.1280 H   0  0  0  0  0  0  0  0  0  0  0  0
  143.2890   80.4403  219.7931 H   0  0  0  0  0  0  0  0  0  0  0  0
  142.2113   82.5313  220.5221 H   0  0  0  0  0  0  0  0  0  0  0  0
  140.2676   83.7026  221.0713 H   0  0  0  0  0  0  0  0  0  0  0  0
  136.4789   81.7494  220.8742 H   0  0  0  0  0  0  0  0  0  0  0  0
  137.5409   79.6440  220.1396 H   0  0  0  0  0  0  0  0  0  0  0  0
  138.3556   74.3080  220.8517 H   0  0  0  0  0  0  0  0  0  0  0  0
  139.7456   74.3089  222.0587 H   0  0  0  0  0  0  0  0  0  0  0  0
  138.0320   76.6170  221.5640 H   0  0  0  0  0  0  0  0  0  0  0  0
  137.5810   77.8318  222.8823 H   0  0  0  0  0  0  0  0  0  0  0  0
  137.0541   80.1023  223.7434 H   0  0  0  0  0  0  0  0  0  0  0  0
  138.8880   81.7526  224.1887 H   0  0  0  0  0  0  0  0  0  0  0  0
  141.2073   82.2783  224.1948 H   0  0  0  0  0  0  0  0  0  0  0  0
  143.5832   81.6400  223.7799 H   0  0  0  0  0  0  0  0  0  0  0  0
  144.0927   79.3760  222.9238 H   0  0  0  0  0  0  0  0  0  0  0  0
  142.2899   77.7284  222.4752 H   0  0  0  0  0  0  0  0  0  0  0  0
  1  2  1  0
  2  3  1  0
  3  4  1  0
  4  5  1  0
  5  6  1  0
  6  7  2  0
  6  8  1  0
  8  9  2  0
  9 10  1  0
 10 11  2  0
 11 12  1  0
 12 13  2  0
 13 14  1  0
 13 15  1  0
 15 16  2  0
 16 17  1  0
 17 18  2  0
  2 19  1  0
 19 20  2  0
 19 21  1  0
 21 22  1  0
 22 23  1  0
 23 24  2  0
 23 25  1  0
 25 26  2  0
 26 27  1  0
 27 28  2  0
 28 29  1  0
 29 30  2  0
 30 31  1  0
 31 32  2  0
 32 33  1  0
 33 34  2  0
 18  8  1  0
 34 25  1  0
 17 11  1  0
 34 29  1  0
  1 35  1  0
  1 36  1  0
  1 37  1  0
  3 38  1  0
  3 39  1  0
  4 40  1  0
  4 41  1  0
  5 42  1  0
  9 43  1  0
 10 44  1  0
 12 45  1  0
 15 46  1  0
 16 47  1  0
 21 48  1  0
 21 49  1  0
 22 50  1  0
 26 51  1  0
 27 52  1  0
 28 53  1  0
 30 54  1  0
 31 55  1  0
 32 56  1  0
 33 57  1  0
M  END
>  <smiles>  (9) 
CN(CCNC(=O)c1ccc2cc(Cl)ccc2n1)C(=O)CNC(=O)c1cccc2ccccc12

>  <score_type>  (9) 
oracle

>  <origin>  (9) 
autodockgpu

>  <m_score__min__energy>  (9) 
-9.7200000000000006

>  <m_primary>  (9) 
energy

>  <rmsd>  (9) 
6.679666102211252

>  <m_score__min__rmsd>  (9) 
6.679666102211252

>  <meeko>  (9) 
{"free_energy": -6.13, "intermolecular_energy": -8.52, "internal_energy": -4.87, "cluster_size": 13, "cluster_id": 7, "rank_in_cluster": 6}

>  <energy>  (9) 
-9.26

>  <cluster_rmsd>  (9) 
0.96

>  <cluster>  (9) 
2

$$$$

     RDKit          3D

 57 60  0  0  0  0  0  0  0  0999 V2000
  142.9400   72.6700  220.8580 C   0  0  0  0  0  0  0  0  0  0  0  0
  141.5460   72.9410  220.6740 N   0  0  0  0  0  0  0  0  0  0  0  0
  141.1670   73.2620  219.2620 C   0  0  0  0  0  0  0  0  0  0  0  0
  141.7930   74.6250  219.0290 C   0  0  0  0  0  0  0  0  0  0  0  0
  141.1970   75.5710  219.9280 N   0  0  0  0  0  0  0  0  0  0  0  0
  141.7870   76.7850  220.3360 C   0  0  0  0  0  0  0  0  0  0  0  0
  142.9350   77.0890  219.8850 O   0  0  0  0  0  0  0  0  0  0  0  0
  141.1310   77.7100  221.2550 C   0  0  0  0  0  0  0  0  0  0  0  0
  141.8480   78.6680  221.9180 C   0  0  0  0  0  0  0  0  0  0  0  0
  141.3050   79.5770  222.8000 C   0  0  0  0  0  0  0  0  0  0  0  0
  139.9470   79.5070  223.0270 C   0  0  0  0  0  0  0  0  0  0  0  0
  139.4060   80.4100  223.9050 C   0  0  0  0  0  0  0  0  0  0  0  0
  138.0540   80.3690  224.1550 C   0  0  0  0  0  0  0  0  0  0  0  0
  137.3090   81.5090  225.2760 Cl  0  0  0  0  0  0  0  0  0  0  0  0
  137.3090   79.4190  223.5060 C   0  0  0  0  0  0  0  0  0  0  0  0
  137.8510   78.5020  222.6150 C   0  0  0  0  0  0  0  0  0  0  0  0
  139.2200   78.5420  222.3620 C   0  0  0  0  0  0  0  0  0  0  0  0
  139.7950   77.6640  221.4970 N   0  0  0  0  0  0  0  0  0  0  0  0
  140.5090   72.9490  221.5970 C   0  0  0  0  0  0  0  0  0  0  0  0
  140.2450   74.1380  222.1070 O   0  0  0  0  0  0  0  0  0  0  0  0
  139.6350   71.9190  222.1360 C   0  0  0  0  0  0  0  0  0  0  0  0
  140.0960   71.2940  223.3170 N   0  0  0  0  0  0  0  0  0  0  0  0
  139.2440   70.2540  223.8650 C   0  0  0  0  0  0  0  0  0  0  0  0
  138.1810   70.0070  223.2380 O   0  0  0  0  0  0  0  0  0  0  0  0
  139.6210   69.5390  225.0830 C   0  0  0  0  0  0  0  0  0  0  0  0
  139.3670   68.1820  225.1290 C   0  0  0  0  0  0  0  0  0  0  0  0
  139.7060   67.4580  226.2660 C   0  0  0  0  0  0  0  0  0  0  0  0
  140.3020   68.0830  227.3670 C   0  0  0  0  0  0  0  0  0  0  0  0
  140.5440   69.4360  227.2900 C   0  0  0  0  0  0  0  0  0  0  0  0
  141.1400   70.0760  228.3820 C   0  0  0  0  0  0  0  0  0  0  0  0
  141.4000   71.4380  228.3450 C   0  0  0  0  0  0  0  0  0  0  0  0
  141.0580   72.1450  227.2100 C   0  0  0  0  0  0  0  0  0  0  0  0
  140.4660   71.5360  226.1110 C   0  0  0  0  0  0  0  0  0  0  0  0
  140.2150   70.1880  226.1630 C   0  0  0  0  0  0  0  0  0  0  0  0
  143.1661   72.6260  221.9336 H   0  0  0  0  0  0  0  0  0  0  0  0
  143.1910   71.7063  220.3909 H   0  0  0  0  0  0  0  0  0  0  0  0
  143.5338   73.4695  220.3909 H   0  0  0  0  0  0  0  0  0  0  0  0
  141.5776   72.5163  218.5653 H   0  0  0  0  0  0  0  0  0  0  0  0
  140.0793   73.2561  219.0981 H   0  0  0  0  0  0  0  0  0  0  0  0
  142.8758   74.5705  219.2152 H   0  0  0  0  0  0  0  0  0  0  0  0
  141.6216   74.9405  217.9893 H   0  0  0  0  0  0  0  0  0  0  0  0
  140.2390   75.3620  220.3300 H   0  0  0  0  0  0  0  0  0  0  0  0
  142.9316   78.7160  221.7346 H   0  0  0  0  0  0  0  0  0  0  0  0
  141.9306   80.3290  223.3032 H   0  0  0  0  0  0  0  0  0  0  0  0
  140.0434   81.1561  224.4021 H   0  0  0  0  0  0  0  0  0  0  0  0
  136.2271   79.3810  223.7008 H   0  0  0  0  0  0  0  0  0  0  0  0
  137.2110   77.7579  222.1183 H   0  0  0  0  0  0  0  0  0  0  0  0
  138.6602   72.3799  222.3535 H   0  0  0  0  0  0  0  0  0  0  0  0
  139.5878   71.1291  221.3719 H   0  0  0  0  0  0  0  0  0  0  0  0
  140.9510   71.4550  223.8670 H   0  0  0  0  0  0  0  0  0  0  0  0
  138.8992   67.6773  224.2708 H   0  0  0  0  0  0  0  0  0  0  0  0
  139.5027   66.3775  226.3009 H   0  0  0  0  0  0  0  0  0  0  0  0
  140.5692   67.5102  228.2673 H   0  0  0  0  0  0  0  0  0  0  0  0
  141.4046   69.4943  229.2773 H   0  0  0  0  0  0  0  0  0  0  0  0
  141.8687   71.9439  229.2020 H   0  0  0  0  0  0  0  0  0  0  0  0
  141.2608   73.2256  227.1747 H   0  0  0  0  0  0  0  0  0  0  0  0
  140.2039   72.1220  225.2177 H   0  0  0  0  0  0  0  0  0  0  0  0
  1  2  1  0
  2  3  1  0
  3  4  1  0
  4  5  1  0
  5  6  1  0
  6  7  2  0
  6  8  1  0
  8  9  2  0
  9 10  1  0
 10 11  2  0
 11 12  1  0
 12 13  2  0
 13 14  1  0
 13 15  1  0
 15 16  2  0
 16 17  1  0
 17 18  2  0
  2 19  1  0
 19 20  2  0
 19 21  1  0
 21 22  1  0
 22 23  1  0
 23 24  2  0
 23 25  1  0
 25 26  2  0
 26 27  1  0
 27 28  2  0
 28 29  1  0
 29 30  2  0
 30 31  1  0
 31 32  2  0
 32 33  1  0
 33 34  2  0
 18  8  1  0
 34 25  1  0
 17 11  1  0
 34 29  1  0
  1 35  1  0
  1 36  1  0
  1 37  1  0
  3 38  1  0
  3 39  1  0
  4 40  1  0
  4 41  1  0
  5 42  1  0
  9 43  1  0
 10 44  1  0
 12 45  1  0
 15 46  1  0
 16 47  1  0
 21 48  1  0
 21 49  1  0
 22 50  1  0
 26 51  1  0
 27 52  1  0
 28 53  1  0
 30 54  1  0
 31 55  1  0
 32 56  1  0
 33 57  1  0
M  END
>  <smiles>  (10) 
CN(CCNC(=O)c1ccc2cc(Cl)ccc2n1)C(=O)CNC(=O)c1cccc2ccccc12

>  <score_type>  (10) 
oracle

>  <origin>  (10) 
autodockgpu

>  <m_score__min__energy>  (10) 
-9.7200000000000006

>  <m_primary>  (10) 
energy

>  <rmsd>  (10) 
3.246650520830247

>  <m_score__min__rmsd>  (10) 
3.246650520830247

>  <meeko>  (10) 
{"free_energy": -9.39, "intermolecular_energy": -11.78, "internal_energy": -2.13, "cluster_size": 3, "cluster_id": 1, "rank_in_cluster": 2}

>  <energy>  (10) 
-9.23

>  <cluster_rmsd>  (10) 
1.05

>  <cluster>  (10) 
2

$$$$

     RDKit          3D

 57 60  0  0  0  0  0  0  0  0999 V2000
  141.6700   72.1250  219.3860 C   0  0  0  0  0  0  0  0  0  0  0  0
  141.5310   73.5490  219.4360 N   0  0  0  0  0  0  0  0  0  0  0  0
  140.2210   74.0530  218.9170 C   0  0  0  0  0  0  0  0  0  0  0  0
  139.5650   74.6630  220.1430 C   0  0  0  0  0  0  0  0  0  0  0  0
  139.7740   73.7910  221.2630 N   0  0  0  0  0  0  0  0  0  0  0  0
  138.9680   72.6800  221.5850 C   0  0  0  0  0  0  0  0  0  0  0  0
  137.9750   72.4070  220.8410 O   0  0  0  0  0  0  0  0  0  0  0  0
  139.2290   71.8260  222.7400 C   0  0  0  0  0  0  0  0  0  0  0  0
  138.6950   70.5690  222.8200 C   0  0  0  0  0  0  0  0  0  0  0  0
  138.8930   69.7030  223.8740 C   0  0  0  0  0  0  0  0  0  0  0  0
  139.6820   70.1430  224.9160 C   0  0  0  0  0  0  0  0  0  0  0  0
  139.8780   69.2830  225.9650 C   0  0  0  0  0  0  0  0  0  0  0  0
  140.6600   69.6880  227.0220 C   0  0  0  0  0  0  0  0  0  0  0  0
  140.9440   68.6190  228.3960 Cl  0  0  0  0  0  0  0  0  0  0  0  0
  141.2080   70.9440  226.9710 C   0  0  0  0  0  0  0  0  0  0  0  0
  141.0130   71.8190  225.9110 C   0  0  0  0  0  0  0  0  0  0  0  0
  140.2210   71.4100  224.8410 C   0  0  0  0  0  0  0  0  0  0  0  0
  140.0010   72.2330  223.7810 N   0  0  0  0  0  0  0  0  0  0  0  0
  142.4170   74.5170  219.8880 C   0  0  0  0  0  0  0  0  0  0  0  0
  142.5780   74.5360  221.1990 O   0  0  0  0  0  0  0  0  0  0  0  0
  143.2190   75.5350  219.2260 C   0  0  0  0  0  0  0  0  0  0  0  0
  143.1220   76.8320  219.7770 N   0  0  0  0  0  0  0  0  0  0  0  0
  142.0220   77.6500  219.2990 C   0  0  0  0  0  0  0  0  0  0  0  0
  141.2610   77.1280  218.4430 O   0  0  0  0  0  0  0  0  0  0  0  0
  141.8240   79.0090  219.8000 C   0  0  0  0  0  0  0  0  0  0  0  0
  141.8150   80.0330  218.8730 C   0  0  0  0  0  0  0  0  0  0  0  0
  141.6310   81.3430  219.3000 C   0  0  0  0  0  0  0  0  0  0  0  0
  141.4550   81.6420  220.6550 C   0  0  0  0  0  0  0  0  0  0  0  0
  141.4680   80.5990  221.5550 C   0  0  0  0  0  0  0  0  0  0  0  0
  141.2940   80.8810  222.9130 C   0  0  0  0  0  0  0  0  0  0  0  0
  141.3020   79.8590  223.8520 C   0  0  0  0  0  0  0  0  0  0  0  0
  141.4850   78.5620  223.4150 C   0  0  0  0  0  0  0  0  0  0  0  0
  141.6600   78.2540  222.0720 C   0  0  0  0  0  0  0  0  0  0  0  0
  141.6510   79.2750  221.1560 C   0  0  0  0  0  0  0  0  0  0  0  0
  141.7091   71.7242  220.4097 H   0  0  0  0  0  0  0  0  0  0  0  0
  140.8099   71.6911  218.8550 H   0  0  0  0  0  0  0  0  0  0  0  0
  142.5977   71.8656  218.8550 H   0  0  0  0  0  0  0  0  0  0  0  0
  140.3735   74.8109  218.1345 H   0  0  0  0  0  0  0  0  0  0  0  0
  139.6116   73.2634  218.4532 H   0  0  0  0  0  0  0  0  0  0  0  0
  140.0131   75.6458  220.3513 H   0  0  0  0  0  0  0  0  0  0  0  0
  138.4869   74.7900  219.9651 H   0  0  0  0  0  0  0  0  0  0  0  0
  140.5900   73.9770  221.9120 H   0  0  0  0  0  0  0  0  0  0  0  0
  138.0646   70.2260  221.9864 H   0  0  0  0  0  0  0  0  0  0  0  0
  138.4397   68.7008  223.8836 H   0  0  0  0  0  0  0  0  0  0  0  0
  139.4171   68.2842  225.9618 H   0  0  0  0  0  0  0  0  0  0  0  0
  141.8339   71.2750  227.8128 H   0  0  0  0  0  0  0  0  0  0  0  0
  141.4756   72.8170  225.9162 H   0  0  0  0  0  0  0  0  0  0  0  0
  144.2726   75.2228  219.2750 H   0  0  0  0  0  0  0  0  0  0  0  0
  142.8291   75.6102  218.2002 H   0  0  0  0  0  0  0  0  0  0  0  0
  143.7130   77.3060  220.4750 H   0  0  0  0  0  0  0  0  0  0  0  0
  141.9525   79.8133  217.8040 H   0  0  0  0  0  0  0  0  0  0  0  0
  141.6237   82.1574  218.5606 H   0  0  0  0  0  0  0  0  0  0  0  0
  141.3105   82.6791  220.9920 H   0  0  0  0  0  0  0  0  0  0  0  0
  141.1496   81.9213  223.2401 H   0  0  0  0  0  0  0  0  0  0  0  0
  141.1655   80.0775  224.9214 H   0  0  0  0  0  0  0  0  0  0  0  0
  141.4924   77.7470  224.1538 H   0  0  0  0  0  0  0  0  0  0  0  0
  141.8030   77.2121  221.7494 H   0  0  0  0  0  0  0  0  0  0  0  0
  1  2  1  0
  2  3  1  0
  3  4  1  0
  4  5  1  0
  5  6  1  0
  6  7  2  0
  6  8  1  0
  8  9  2  0
  9 10  1  0
 10 11  2  0
 11 12  1  0
 12 13  2  0
 13 14  1  0
 13 15  1  0
 15 16  2  0
 16 17  1  0
 17 18  2  0
  2 19  1  0
 19 20  2  0
 19 21  1  0
 21 22  1  0
 22 23  1  0
 23 24  2  0
 23 25  1  0
 25 26  2  0
 26 27  1  0
 27 28  2  0
 28 29  1  0
 29 30  2  0
 30 31  1  0
 31 32  2  0
 32 33  1  0
 33 34  2  0
 18  8  1  0
 34 25  1  0
 17 11  1  0
 34 29  1  0
  1 35  1  0
  1 36  1  0
  1 37  1  0
  3 38  1  0
  3 39  1  0
  4 40  1  0
  4 41  1  0
  5 42  1  0
  9 43  1  0
 10 44  1  0
 12 45  1  0
 15 46  1  0
 16 47  1  0
 21 48  1  0
 21 49  1  0
 22 50  1  0
 26 51  1  0
 27 52  1  0
 28 53  1  0
 30 54  1  0
 31 55  1  0
 32 56  1  0
 33 57  1  0
M  END
>  <smiles>  (11) 
CN(CCNC(=O)c1ccc2cc(Cl)ccc2n1)C(=O)CNC(=O)c1cccc2ccccc12

>  <score_type>  (11) 
oracle

>  <origin>  (11) 
autodockgpu

>  <m_score__min__energy>  (11) 
-9.7200000000000006

>  <m_primary>  (11) 
energy

>  <rmsd>  (11) 
9.70514072626294

>  <m_score__min__rmsd>  (11) 
9.70514072626294

>  <meeko>  (11) 
{"free_energy": -8.21, "intermolecular_energy": -10.6, "internal_energy": -2.72, "cluster_size": 13, "cluster_id": 2, "rank_in_cluster": 12}

>  <energy>  (11) 
-8.89

>  <cluster_rmsd>  (11) 
1.49

>  <cluster>  (11) 
2

$$$$

     RDKit          3D

 57 60  0  0  0  0  0  0  0  0999 V2000
  138.7480   76.5300  222.0140 C   0  0  0  0  0  0  0  0  0  0  0  0
  137.7430   75.5910  221.6160 N   0  0  0  0  0  0  0  0  0  0  0  0
  136.4800   76.2230  221.1200 C   0  0  0  0  0  0  0  0  0  0  0  0
  135.6700   76.4360  222.3870 C   0  0  0  0  0  0  0  0  0  0  0  0
  135.2830   75.1590  222.9120 N   0  0  0  0  0  0  0  0  0  0  0  0
  135.4570   74.7460  224.2490 C   0  0  0  0  0  0  0  0  0  0  0  0
  135.9940   75.5500  225.0720 O   0  0  0  0  0  0  0  0  0  0  0  0
  135.0430   73.4300  224.7270 C   0  0  0  0  0  0  0  0  0  0  0  0
  134.2240   73.3040  225.8150 C   0  0  0  0  0  0  0  0  0  0  0  0
  133.7890   72.1010  226.3280 C   0  0  0  0  0  0  0  0  0  0  0  0
  134.2140   70.9510  225.6970 C   0  0  0  0  0  0  0  0  0  0  0  0
  133.7830   69.7550  226.2070 C   0  0  0  0  0  0  0  0  0  0  0  0
  134.1880   68.5880  225.6030 C   0  0  0  0  0  0  0  0  0  0  0  0
  133.6600   67.0210  226.2200 Cl  0  0  0  0  0  0  0  0  0  0  0  0
  135.0100   68.6820  224.5100 C   0  0  0  0  0  0  0  0  0  0  0  0
  135.4500   69.8910  223.9890 C   0  0  0  0  0  0  0  0  0  0  0  0
  135.0410   71.0740  224.6010 C   0  0  0  0  0  0  0  0  0  0  0  0
  135.4470   72.2810  224.1250 N   0  0  0  0  0  0  0  0  0  0  0  0
  137.7640   74.2040  221.6200 C   0  0  0  0  0  0  0  0  0  0  0  0
  136.6020   73.6410  221.3450 O   0  0  0  0  0  0  0  0  0  0  0  0
  138.8030   73.2150  221.8670 C   0  0  0  0  0  0  0  0  0  0  0  0
  138.5270   72.2980  222.9060 N   0  0  0  0  0  0  0  0  0  0  0  0
  139.6700   71.5860  223.4510 C   0  0  0  0  0  0  0  0  0  0  0  0
  140.7930   71.8540  222.9490 O   0  0  0  0  0  0  0  0  0  0  0  0
  139.5040   70.6130  224.5290 C   0  0  0  0  0  0  0  0  0  0  0  0
  138.7780   69.4720  224.2490 C   0  0  0  0  0  0  0  0  0  0  0  0
  138.5920   68.5160  225.2410 C   0  0  0  0  0  0  0  0  0  0  0  0
  139.1270   68.6920  226.5210 C   0  0  0  0  0  0  0  0  0  0  0  0
  139.8460   69.8400  226.7690 C   0  0  0  0  0  0  0  0  0  0  0  0
  140.3880   70.0310  228.0440 C   0  0  0  0  0  0  0  0  0  0  0  0
  141.1190   71.1750  228.3350 C   0  0  0  0  0  0  0  0  0  0  0  0
  141.2970   72.1160  227.3410 C   0  0  0  0  0  0  0  0  0  0  0  0
  140.7700   71.9520  226.0660 C   0  0  0  0  0  0  0  0  0  0  0  0
  140.0500   70.8160  225.7940 C   0  0  0  0  0  0  0  0  0  0  0  0
  138.7947   76.5736  223.1121 H   0  0  0  0  0  0  0  0  0  0  0  0
  139.7239   76.2126  221.6178 H   0  0  0  0  0  0  0  0  0  0  0  0
  138.4975   77.5251  221.6178 H   0  0  0  0  0  0  0  0  0  0  0  0
  136.6890   77.1808  220.6211 H   0  0  0  0  0  0  0  0  0  0  0  0
  135.9561   75.6066  220.3746 H   0  0  0  0  0  0  0  0  0  0  0  0
  136.2802   76.9708  223.1297 H   0  0  0  0  0  0  0  0  0  0  0  0
  134.7740   77.0324  222.1602 H   0  0  0  0  0  0  0  0  0  0  0  0
  134.8300   74.4540  222.2630 H   0  0  0  0  0  0  0  0  0  0  0  0
  133.8898   74.2253  226.3146 H   0  0  0  0  0  0  0  0  0  0  0  0
  133.1285   72.0599  227.2066 H   0  0  0  0  0  0  0  0  0  0  0  0
  133.1228   69.7285  227.0865 H   0  0  0  0  0  0  0  0  0  0  0  0
  135.3374   67.7525  224.0212 H   0  0  0  0  0  0  0  0  0  0  0  0
  136.1096   69.9147  223.1090 H   0  0  0  0  0  0  0  0  0  0  0  0
  138.9553   72.6429  220.9399 H   0  0  0  0  0  0  0  0  0  0  0  0
  139.6914   73.7794  222.1865 H   0  0  0  0  0  0  0  0  0  0  0  0
  137.6350   72.0410  223.3510 H   0  0  0  0  0  0  0  0  0  0  0  0
  138.3496   69.3206  223.2472 H   0  0  0  0  0  0  0  0  0  0  0  0
  138.0150   67.6070  225.0156 H   0  0  0  0  0  0  0  0  0  0  0  0
  138.9780   67.9361  227.3062 H   0  0  0  0  0  0  0  0  0  0  0  0
  140.2340   69.2690  228.8223 H   0  0  0  0  0  0  0  0  0  0  0  0
  141.5473   71.3282  229.3366 H   0  0  0  0  0  0  0  0  0  0  0  0
  141.8746   73.0248  227.5655 H   0  0  0  0  0  0  0  0  0  0  0  0
  140.9266   72.7167  225.2909 H   0  0  0  0  0  0  0  0  0  0  0  0
  1  2  1  0
  2  3  1  0
  3  4  1  0
  4  5  1  0
  5  6  1  0
  6  7  2  0
  6  8  1  0
  8  9  2  0
  9 10  1  0
 10 11  2  0
 11 12  1  0
 12 13  2  0
 13 14  1  0
 13 15  1  0
 15 16  2  0
 16 17  1  0
 17 18  2  0
  2 19  1  0
 19 20  2  0
 19 21  1  0
 21 22  1  0
 22 23  1  0
 23 24  2  0
 23 25  1  0
 25 26  2  0
 26 27  1  0
 27 28  2  0
 28 29  1  0
 29 30  2  0
 30 31  1  0
 31 32  2  0
 32 33  1  0
 33 34  2  0
 18  8  1  0
 34 25  1  0
 17 11  1  0
 34 29  1  0
  1 35  1  0
  1 36  1  0
  1 37  1  0
  3 38  1  0
  3 39  1  0
  4 40  1  0
  4 41  1  0
  5 42  1  0
  9 43  1  0
 10 44  1  0
 12 45  1  0
 15 46  1  0
 16 47  1  0
 21 48  1  0
 21 49  1  0
 22 50  1  0
 26 51  1  0
 27 52  1  0
 28 53  1  0
 30 54  1  0
 31 55  1  0
 32 56  1  0
 33 57  1  0
M  END
>  <smiles>  (12) 
CN(CCNC(=O)c1ccc2cc(Cl)ccc2n1)C(=O)CNC(=O)c1cccc2ccccc12

>  <score_type>  (12) 
oracle

>  <origin>  (12) 
autodockgpu

>  <m_score__min__energy>  (12) 
-9.7200000000000006

>  <m_primary>  (12) 
energy

>  <rmsd>  (12) 
7.2129810079444

>  <m_score__min__rmsd>  (12) 
7.2129810079444

>  <meeko>  (12) 
{"free_energy": -7.37, "intermolecular_energy": -9.76, "internal_energy": -3.76, "cluster_size": 1, "cluster_id": 8, "rank_in_cluster": 1}

>  <energy>  (12) 
-8.62

>  <cluster_rmsd>  (12) 
1.63

>  <cluster>  (12) 
2

$$$$

     RDKit          3D

 57 60  0  0  0  0  0  0  0  0999 V2000
  142.9270   72.3460  220.6850 C   0  0  0  0  0  0  0  0  0  0  0  0
  142.3190   73.5750  220.2740 N   0  0  0  0  0  0  0  0  0  0  0  0
  143.0000   74.2360  219.1160 C   0  0  0  0  0  0  0  0  0  0  0  0
  144.0260   75.1380  219.7770 C   0  0  0  0  0  0  0  0  0  0  0  0
  143.5710   76.4960  219.6980 N   0  0  0  0  0  0  0  0  0  0  0  0
  143.0090   77.0970  218.5520 C   0  0  0  0  0  0  0  0  0  0  0  0
  142.8840   76.4020  217.4970 O   0  0  0  0  0  0  0  0  0  0  0  0
  142.5620   78.4860  218.5300 C   0  0  0  0  0  0  0  0  0  0  0  0
  142.5470   79.2010  217.3640 C   0  0  0  0  0  0  0  0  0  0  0  0
  142.1410   80.5140  217.2600 C   0  0  0  0  0  0  0  0  0  0  0  0
  141.7250   81.1430  218.4140 C   0  0  0  0  0  0  0  0  0  0  0  0
  141.3220   82.4490  218.3110 C   0  0  0  0  0  0  0  0  0  0  0  0
  140.9000   83.1070  219.4430 C   0  0  0  0  0  0  0  0  0  0  0  0
  140.3710   84.7890  219.3640 Cl  0  0  0  0  0  0  0  0  0  0  0  0
  140.9050   82.4170  220.6280 C   0  0  0  0  0  0  0  0  0  0  0  0
  141.3120   81.0950  220.7380 C   0  0  0  0  0  0  0  0  0  0  0  0
  141.7390   80.4270  219.5920 C   0  0  0  0  0  0  0  0  0  0  0  0
  142.1470   79.1310  219.6520 N   0  0  0  0  0  0  0  0  0  0  0  0
  141.2070   74.2350  220.7800 C   0  0  0  0  0  0  0  0  0  0  0  0
  140.8250   73.8180  221.9730 O   0  0  0  0  0  0  0  0  0  0  0  0
  140.3540   75.3010  220.2760 C   0  0  0  0  0  0  0  0  0  0  0  0
  140.6650   76.5960  220.7490 N   0  0  0  0  0  0  0  0  0  0  0  0
  140.2370   76.9020  222.1020 C   0  0  0  0  0  0  0  0  0  0  0  0
  139.6330   75.9890  222.7230 O   0  0  0  0  0  0  0  0  0  0  0  0
  140.5040   78.2110  222.6950 C   0  0  0  0  0  0  0  0  0  0  0  0
  141.8200   78.5280  222.9700 C   0  0  0  0  0  0  0  0  0  0  0  0
  142.1250   79.7610  223.5350 C   0  0  0  0  0  0  0  0  0  0  0  0
  141.1200   80.6870  223.8310 C   0  0  0  0  0  0  0  0  0  0  0  0
  139.8170   80.3420  223.5450 C   0  0  0  0  0  0  0  0  0  0  0  0
  138.8000   81.2570  223.8350 C   0  0  0  0  0  0  0  0  0  0  0  0
  137.4750   80.9470  223.5620 C   0  0  0  0  0  0  0  0  0  0  0  0
  137.1860   79.7200  223.0000 C   0  0  0  0  0  0  0  0  0  0  0  0
  138.1760   78.7930  222.7020 C   0  0  0  0  0  0  0  0  0  0  0  0
  139.4810   79.1130  222.9780 C   0  0  0  0  0  0  0  0  0  0  0  0
  142.9507   72.2981  221.7837 H   0  0  0  0  0  0  0  0  0  0  0  0
  142.3437   71.4995  220.2936 H   0  0  0  0  0  0  0  0  0  0  0  0
  143.9538   72.2960  220.2936 H   0  0  0  0  0  0  0  0  0  0  0  0
  143.4887   73.4917  218.4701 H   0  0  0  0  0  0  0  0  0  0  0  0
  142.3032   74.7844  218.4650 H   0  0  0  0  0  0  0  0  0  0  0  0
  144.1460   74.8497  220.8317 H   0  0  0  0  0  0  0  0  0  0  0  0
  144.9942   75.0391  219.2643 H   0  0  0  0  0  0  0  0  0  0  0  0
  143.6530   77.1150  220.5540 H   0  0  0  0  0  0  0  0  0  0  0  0
  142.8817   78.6937  216.4471 H   0  0  0  0  0  0  0  0  0  0  0  0
  142.1486   81.0396  216.2937 H   0  0  0  0  0  0  0  0  0  0  0  0
  141.3358   82.9629  217.3385 H   0  0  0  0  0  0  0  0  0  0  0  0
  140.5695   82.9376  221.5371 H   0  0  0  0  0  0  0  0  0  0  0  0
  141.2978   80.5837  221.7119 H   0  0  0  0  0  0  0  0  0  0  0  0
  140.4345   75.3111  219.1790 H   0  0  0  0  0  0  0  0  0  0  0  0
  139.3403   75.0785  220.6406 H   0  0  0  0  0  0  0  0  0  0  0  0
  141.1520   77.3760  220.2870 H   0  0  0  0  0  0  0  0  0  0  0  0
  142.6215   77.8095  222.7434 H   0  0  0  0  0  0  0  0  0  0  0  0
  143.1736   80.0122  223.7527 H   0  0  0  0  0  0  0  0  0  0  0  0
  141.3624   81.6620  224.2789 H   0  0  0  0  0  0  0  0  0  0  0  0
  139.0520   82.2296  224.2828 H   0  0  0  0  0  0  0  0  0  0  0  0
  136.6722   81.6640  223.7887 H   0  0  0  0  0  0  0  0  0  0  0  0
  136.1378   79.4683  222.7811 H   0  0  0  0  0  0  0  0  0  0  0  0
  137.9190   77.8219  222.2538 H   0  0  0  0  0  0  0  0  0  0  0  0
  1  2  1  0
  2  3  1  0
  3  4  1  0
  4  5  1  0
  5  6  1  0
  6  7  2  0
  6  8  1  0
  8  9  2  0
  9 10  1  0
 10 11  2  0
 11 12  1  0
 12 13  2  0
 13 14  1  0
 13 15  1  0
 15 16  2  0
 16 17  1  0
 17 18  2  0
  2 19  1  0
 19 20  2  0
 19 21  1  0
 21 22  1  0
 22 23  1  0
 23 24  2  0
 23 25  1  0
 25 26  2  0
 26 27  1  0
 27 28  2  0
 28 29  1  0
 29 30  2  0
 30 31  1  0
 31 32  2  0
 32 33  1  0
 33 34  2  0
 18  8  1  0
 34 25  1  0
 17 11  1  0
 34 29  1  0
  1 35  1  0
  1 36  1  0
  1 37  1  0
  3 38  1  0
  3 39  1  0
  4 40  1  0
  4 41  1  0
  5 42  1  0
  9 43  1  0
 10 44  1  0
 12 45  1  0
 15 46  1  0
 16 47  1  0
 21 48  1  0
 21 49  1  0
 22 50  1  0
 26 51  1  0
 27 52  1  0
 28 53  1  0
 30 54  1  0
 31 55  1  0
 32 56  1  0
 33 57  1  0
M  END
>  <smiles>  (13) 
CN(CCNC(=O)c1ccc2cc(Cl)ccc2n1)C(=O)CNC(=O)c1cccc2ccccc12

>  <score_type>  (13) 
oracle

>  <origin>  (13) 
autodockgpu

>  <m_score__min__energy>  (13) 
-9.7200000000000006

>  <m_primary>  (13) 
energy

>  <rmsd>  (13) 
7.22740287457067

>  <m_score__min__rmsd>  (13) 
7.22740287457067

>  <meeko>  (13) 
{"free_energy": -7.67, "intermolecular_energy": -10.06, "internal_energy": -3.56, "cluster_size": 13, "cluster_id": 7, "rank_in_cluster": 1}

>  <energy>  (13) 
-8.53

>  <cluster_rmsd>  (13) 
1.13

>  <cluster>  (13) 
2

$$$$

     RDKit          3D

 57 60  0  0  0  0  0  0  0  0999 V2000
  140.3480   74.6030  219.5900 C   0  0  0  0  0  0  0  0  0  0  0  0
  140.4530   74.3900  221.0020 N   0  0  0  0  0  0  0  0  0  0  0  0
  140.8600   75.6060  221.7740 C   0  0  0  0  0  0  0  0  0  0  0  0
  139.6270   76.4890  221.7200 C   0  0  0  0  0  0  0  0  0  0  0  0
  138.6100   75.9210  222.5560 N   0  0  0  0  0  0  0  0  0  0  0  0
  137.2670   76.3480  222.6040 C   0  0  0  0  0  0  0  0  0  0  0  0
  136.9040   77.3080  221.8570 O   0  0  0  0  0  0  0  0  0  0  0  0
  136.2740   75.7300  223.4780 C   0  0  0  0  0  0  0  0  0  0  0  0
  135.3960   76.4940  224.1950 C   0  0  0  0  0  0  0  0  0  0  0  0
  134.4320   75.9890  225.0400 C   0  0  0  0  0  0  0  0  0  0  0  0
  134.3550   74.6180  225.1660 C   0  0  0  0  0  0  0  0  0  0  0  0
  133.3970   74.1140  226.0070 C   0  0  0  0  0  0  0  0  0  0  0  0
  133.2910   72.7510  226.1570 C   0  0  0  0  0  0  0  0  0  0  0  0
  132.0750   72.0530  227.2270 Cl  0  0  0  0  0  0  0  0  0  0  0  0
  134.1590   71.9580  225.4510 C   0  0  0  0  0  0  0  0  0  0  0  0
  135.1310   72.4620  224.5980 C   0  0  0  0  0  0  0  0  0  0  0  0
  135.2380   73.8430  224.4460 C   0  0  0  0  0  0  0  0  0  0  0  0
  136.1760   74.3820  223.6210 N   0  0  0  0  0  0  0  0  0  0  0  0
  140.2350   73.2420  221.7500 C   0  0  0  0  0  0  0  0  0  0  0  0
  139.3530   73.3860  222.7220 O   0  0  0  0  0  0  0  0  0  0  0  0
  140.7760   71.8920  221.7010 C   0  0  0  0  0  0  0  0  0  0  0  0
  140.8980   71.2450  222.9510 N   0  0  0  0  0  0  0  0  0  0  0  0
  139.7100   70.5670  223.4390 C   0  0  0  0  0  0  0  0  0  0  0  0
  138.6890   70.6180  222.7040 O   0  0  0  0  0  0  0  0  0  0  0  0
  139.7200   69.8640  224.7210 C   0  0  0  0  0  0  0  0  0  0  0  0
  139.2190   68.5780  224.7450 C   0  0  0  0  0  0  0  0  0  0  0  0
  139.2060   67.8680  225.9400 C   0  0  0  0  0  0  0  0  0  0  0  0
  139.6930   68.4370  227.1210 C   0  0  0  0  0  0  0  0  0  0  0  0
  140.1870   69.7220  227.0650 C   0  0  0  0  0  0  0  0  0  0  0  0
  140.6770   70.3060  228.2380 C   0  0  0  0  0  0  0  0  0  0  0  0
  141.1830   71.5980  228.2230 C   0  0  0  0  0  0  0  0  0  0  0  0
  141.1900   72.2910  227.0300 C   0  0  0  0  0  0  0  0  0  0  0  0
  140.7090   71.7360  225.8510 C   0  0  0  0  0  0  0  0  0  0  0  0
  140.2130   70.4580  225.8810 C   0  0  0  0  0  0  0  0  0  0  0  0
  139.8689   75.5749  219.4004 H   0  0  0  0  0  0  0  0  0  0  0  0
  141.3528   74.5960  219.1424 H   0  0  0  0  0  0  0  0  0  0  0  0
  139.7416   73.8018  219.1424 H   0  0  0  0  0  0  0  0  0  0  0  0
  141.1123   75.3461  222.8127 H   0  0  0  0  0  0  0  0  0  0  0  0
  141.7554   76.0949  221.3626 H   0  0  0  0  0  0  0  0  0  0  0  0
  139.8794   77.4975  222.0795 H   0  0  0  0  0  0  0  0  0  0  0  0
  139.2626   76.5560  220.6843 H   0  0  0  0  0  0  0  0  0  0  0  0
  138.8640   75.1160  223.1970 H   0  0  0  0  0  0  0  0  0  0  0  0
  135.4638   77.5869  224.0902 H   0  0  0  0  0  0  0  0  0  0  0  0
  133.7508   76.6531  225.5922 H   0  0  0  0  0  0  0  0  0  0  0  0
  132.7230   74.7897  226.5538 H   0  0  0  0  0  0  0  0  0  0  0  0
  134.0809   70.8669  225.5666 H   0  0  0  0  0  0  0  0  0  0  0  0
  135.8040   71.7842  224.0524 H   0  0  0  0  0  0  0  0  0  0  0  0
  140.1147   71.2836  221.0665 H   0  0  0  0  0  0  0  0  0  0  0  0
  141.7985   71.9881  221.3070 H   0  0  0  0  0  0  0  0  0  0  0  0
  141.7020   71.1720  223.5890 H   0  0  0  0  0  0  0  0  0  0  0  0
  138.8323   68.1177  223.8238 H   0  0  0  0  0  0  0  0  0  0  0  0
  138.8066   66.8432  225.9569 H   0  0  0  0  0  0  0  0  0  0  0  0
  139.6820   67.8753  228.0667 H   0  0  0  0  0  0  0  0  0  0  0  0
  140.6611   69.7368  229.1792 H   0  0  0  0  0  0  0  0  0  0  0  0
  141.5704   72.0600  229.1430 H   0  0  0  0  0  0  0  0  0  0  0  0
  141.5893   73.3158  227.0119 H   0  0  0  0  0  0  0  0  0  0  0  0
  140.7256   72.3098  224.9127 H   0  0  0  0  0  0  0  0  0  0  0  0
  1  2  1  0
  2  3  1  0
  3  4  1  0
  4  5  1  0
  5  6  1  0
  6  7  2  0
  6  8  1  0
  8  9  2  0
  9 10  1  0
 10 11  2  0
 11 12  1  0
 12 13  2  0
 13 14  1  0
 13 15  1  0
 15 16  2  0
 16 17  1  0
 17 18  2  0
  2 19  1  0
 19 20  2  0
 19 21  1  0
 21 22  1  0
 22 23  1  0
 23 24  2  0
 23 25  1  0
 25 26  2  0
 26 27  1  0
 27 28  2  0
 28 29  1  0
 29 30  2  0
 30 31  1  0
 31 32  2  0
 32 33  1  0
 33 34  2  0
 18  8  1  0
 34 25  1  0
 17 11  1  0
 34 29  1  0
  1 35  1  0
  1 36  1  0
  1 37  1  0
  3 38  1  0
  3 39  1  0
  4 40  1  0
  4 41  1  0
  5 42  1  0
  9 43  1  0
 10 44  1  0
 12 45  1  0
 15 46  1  0
 16 47  1  0
 21 48  1  0
 21 49  1  0
 22 50  1  0
 26 51  1  0
 27 52  1  0
 28 53  1  0
 30 54  1  0
 31 55  1  0
 32 56  1  0
 33 57  1  0
M  END
>  <smiles>  (14) 
CN(CCNC(=O)c1ccc2cc(Cl)ccc2n1)C(=O)CNC(=O)c1cccc2ccccc12

>  <score_type>  (14) 
oracle

>  <origin>  (14) 
autodockgpu

>  <m_score__min__energy>  (14) 
-9.7200000000000006

>  <m_primary>  (14) 
energy

>  <rmsd>  (14) 
5.361297188150902

>  <m_score__min__rmsd>  (14) 
5.361297188150902

>  <meeko>  (14) 
{"free_energy": -8.72, "intermolecular_energy": -11.11, "internal_energy": -2.45, "cluster_size": 3, "cluster_id": 3, "rank_in_cluster": 1}

>  <energy>  (14) 
-8.49

>  <cluster_rmsd>  (14) 
1.2

>  <cluster>  (14) 
2

$$$$

     RDKit          3D

 57 60  0  0  0  0  0  0  0  0999 V2000
  141.8610   81.6270  223.8270 C   0  0  0  0  0  0  0  0  0  0  0  0
  141.3940   80.6320  222.9100 N   0  0  0  0  0  0  0  0  0  0  0  0
  140.5890   81.1790  221.7730 C   0  0  0  0  0  0  0  0  0  0  0  0
  141.6170   81.3750  220.6730 C   0  0  0  0  0  0  0  0  0  0  0  0
  142.1600   80.0980  220.3120 N   0  0  0  0  0  0  0  0  0  0  0  0
  141.8110   79.3660  219.1580 C   0  0  0  0  0  0  0  0  0  0  0  0
  140.9520   79.8540  218.3600 O   0  0  0  0  0  0  0  0  0  0  0  0
  142.3980   78.0670  218.8410 C   0  0  0  0  0  0  0  0  0  0  0  0
  142.5860   77.6790  217.5430 C   0  0  0  0  0  0  0  0  0  0  0  0
  143.1320   76.4720  217.1610 C   0  0  0  0  0  0  0  0  0  0  0  0
  143.5100   75.6020  218.1620 C   0  0  0  0  0  0  0  0  0  0  0  0
  144.0520   74.4020  217.7830 C   0  0  0  0  0  0  0  0  0  0  0  0
  144.4400   73.5100  218.7550 C   0  0  0  0  0  0  0  0  0  0  0  0
  145.1440   71.9510  218.3200 Cl  0  0  0  0  0  0  0  0  0  0  0  0
  144.2630   73.8700  220.0660 C   0  0  0  0  0  0  0  0  0  0  0  0
  143.7150   75.0840  220.4560 C   0  0  0  0  0  0  0  0  0  0  0  0
  143.3210   75.9890  219.4720 C   0  0  0  0  0  0  0  0  0  0  0  0
  142.7790   77.1900  219.8060 N   0  0  0  0  0  0  0  0  0  0  0  0
  141.5750   79.2560  222.9160 C   0  0  0  0  0  0  0  0  0  0  0  0
  142.8390   78.8740  222.8940 O   0  0  0  0  0  0  0  0  0  0  0  0
  140.6640   78.1220  222.9410 C   0  0  0  0  0  0  0  0  0  0  0  0
  141.0840   76.9940  222.2010 N   0  0  0  0  0  0  0  0  0  0  0  0
  140.0880   75.9580  221.9920 C   0  0  0  0  0  0  0  0  0  0  0  0
  138.9490   76.1630  222.4870 O   0  0  0  0  0  0  0  0  0  0  0  0
  140.4110   74.7460  221.2410 C   0  0  0  0  0  0  0  0  0  0  0  0
  140.8480   73.6510  221.9590 C   0  0  0  0  0  0  0  0  0  0  0  0
  141.1690   72.4750  221.2910 C   0  0  0  0  0  0  0  0  0  0  0  0
  141.0560   72.3840  219.9000 C   0  0  0  0  0  0  0  0  0  0  0  0
  140.6170   73.4930  219.2120 C   0  0  0  0  0  0  0  0  0  0  0  0
  140.5000   73.4180  217.8200 C   0  0  0  0  0  0  0  0  0  0  0  0
  140.0620   74.5130  217.0900 C   0  0  0  0  0  0  0  0  0  0  0  0
  139.7460   75.6750  217.7660 C   0  0  0  0  0  0  0  0  0  0  0  0
  139.8530   75.7770  219.1470 C   0  0  0  0  0  0  0  0  0  0  0  0
  140.2880   74.6850  219.8550 C   0  0  0  0  0  0  0  0  0  0  0  0
  141.6983   81.2804  224.8582 H   0  0  0  0  0  0  0  0  0  0  0  0
  142.9348   81.8010  223.6637 H   0  0  0  0  0  0  0  0  0  0  0  0
  141.3087   82.5642  223.6637 H   0  0  0  0  0  0  0  0  0  0  0  0
  139.8119   80.4652  221.4622 H   0  0  0  0  0  0  0  0  0  0  0  0
  140.0566   82.1061  222.0320 H   0  0  0  0  0  0  0  0  0  0  0  0
  141.1366   81.8333  219.7960 H   0  0  0  0  0  0  0  0  0  0  0  0
  142.4218   82.0353  221.0284 H   0  0  0  0  0  0  0  0  0  0  0  0
  142.8810   79.6490  220.9450 H   0  0  0  0  0  0  0  0  0  0  0  0
  142.2808   78.3775  216.7499 H   0  0  0  0  0  0  0  0  0  0  0  0
  143.2610   76.2132  216.0997 H   0  0  0  0  0  0  0  0  0  0  0  0
  144.1748   74.1560  216.7179 H   0  0  0  0  0  0  0  0  0  0  0  0
  144.5709   73.1607  220.8484 H   0  0  0  0  0  0  0  0  0  0  0  0
  143.5939   75.3274  221.5219 H   0  0  0  0  0  0  0  0  0  0  0  0
  140.5352   77.8125  223.9887 H   0  0  0  0  0  0  0  0  0  0  0  0
  139.7340   78.4683  222.4664 H   0  0  0  0  0  0  0  0  0  0  0  0
  141.9970   76.7760  221.7770 H   0  0  0  0  0  0  0  0  0  0  0  0
  140.9417   73.7087  223.0535 H   0  0  0  0  0  0  0  0  0  0  0  0
  141.5169   71.6034  221.8647 H   0  0  0  0  0  0  0  0  0  0  0  0
  141.3104   71.4537  219.3710 H   0  0  0  0  0  0  0  0  0  0  0  0
  140.7574   72.4833  217.3003 H   0  0  0  0  0  0  0  0  0  0  0  0
  139.9683   74.4570  215.9954 H   0  0  0  0  0  0  0  0  0  0  0  0
  139.3987   76.5472  217.1927 H   0  0  0  0  0  0  0  0  0  0  0  0
  139.5944   76.7137  219.6625 H   0  0  0  0  0  0  0  0  0  0  0  0
  1  2  1  0
  2  3  1  0
  3  4  1  0
  4  5  1  0
  5  6  1  0
  6  7  2  0
  6  8  1  0
  8  9  2  0
  9 10  1  0
 10 11  2  0
 11 12  1  0
 12 13  2  0
 13 14  1  0
 13 15  1  0
 15 16  2  0
 16 17  1  0
 17 18  2  0
  2 19  1  0
 19 20  2  0
 19 21  1  0
 21 22  1  0
 22 23  1  0
 23 24  2  0
 23 25  1  0
 25 26  2  0
 26 27  1  0
 27 28  2  0
 28 29  1  0
 29 30  2  0
 30 31  1  0
 31 32  2  0
 32 33  1  0
 33 34  2  0
 18  8  1  0
 34 25  1  0
 17 11  1  0
 34 29  1  0
  1 35  1  0
  1 36  1  0
  1 37  1  0
  3 38  1  0
  3 39  1  0
  4 40  1  0
  4 41  1  0
  5 42  1  0
  9 43  1  0
 10 44  1  0
 12 45  1  0
 15 46  1  0
 16 47  1  0
 21 48  1  0
 21 49  1  0
 22 50  1  0
 26 51  1  0
 27 52  1  0
 28 53  1  0
 30 54  1  0
 31 55  1  0
 32 56  1  0
 33 57  1  0
M  END
>  <smiles>  (15) 
CN(CCNC(=O)c1ccc2cc(Cl)ccc2n1)C(=O)CNC(=O)c1cccc2ccccc12

>  <score_type>  (15) 
oracle

>  <origin>  (15) 
autodockgpu

>  <m_score__min__energy>  (15) 
-9.7200000000000006

>  <m_primary>  (15) 
energy

>  <rmsd>  (15) 
7.583809769674572

>  <m_score__min__rmsd>  (15) 
7.583809769674572

>  <meeko>  (15) 
{"free_energy": -5.5, "intermolecular_energy": -7.88, "internal_energy": -5.74, "cluster_size": 2, "cluster_id": 13, "rank_in_cluster": 1}

>  <energy>  (15) 
-8.21

>  <cluster_rmsd>  (15) 
1.53

>  <cluster>  (15) 
2

$$$$

     RDKit          3D

 57 60  0  0  0  0  0  0  0  0999 V2000
  144.0660   74.8460  220.4660 C   0  0  0  0  0  0  0  0  0  0  0  0
  142.7400   74.8040  219.9270 N   0  0  0  0  0  0  0  0  0  0  0  0
  142.6880   74.8300  218.4310 C   0  0  0  0  0  0  0  0  0  0  0  0
  143.5310   76.0390  218.0690 C   0  0  0  0  0  0  0  0  0  0  0  0
  142.9670   77.2020  218.6910 N   0  0  0  0  0  0  0  0  0  0  0  0
  141.9050   77.9670  218.1660 C   0  0  0  0  0  0  0  0  0  0  0  0
  141.3890   77.6200  217.0590 O   0  0  0  0  0  0  0  0  0  0  0  0
  141.3710   79.1440  218.8460 C   0  0  0  0  0  0  0  0  0  0  0  0
  142.1880   80.1810  219.2020 C   0  0  0  0  0  0  0  0  0  0  0  0
  141.7630   81.3240  219.8440 C   0  0  0  0  0  0  0  0  0  0  0  0
  140.4210   81.4190  220.1470 C   0  0  0  0  0  0  0  0  0  0  0  0
  139.9980   82.5540  220.7870 C   0  0  0  0  0  0  0  0  0  0  0  0
  138.6660   82.6830  221.1050 C   0  0  0  0  0  0  0  0  0  0  0  0
  138.0700   84.1250  221.9280 Cl  0  0  0  0  0  0  0  0  0  0  0  0
  137.8210   81.6590  220.7620 C   0  0  0  0  0  0  0  0  0  0  0  0
  138.2440   80.5070  220.1140 C   0  0  0  0  0  0  0  0  0  0  0  0
  139.5940   80.3750  219.7920 C   0  0  0  0  0  0  0  0  0  0  0  0
  140.0540   79.2640  219.1570 N   0  0  0  0  0  0  0  0  0  0  0  0
  141.5140   74.7430  220.5740 C   0  0  0  0  0  0  0  0  0  0  0  0
  141.4710   73.8850  221.5770 O   0  0  0  0  0  0  0  0  0  0  0  0
  140.2430   75.4270  220.3880 C   0  0  0  0  0  0  0  0  0  0  0  0
  140.2000   76.7590  220.8560 N   0  0  0  0  0  0  0  0  0  0  0  0
  139.5510   76.9660  222.1380 C   0  0  0  0  0  0  0  0  0  0  0  0
  139.0920   75.9430  222.7100 O   0  0  0  0  0  0  0  0  0  0  0  0
  139.4480   78.3030  222.7200 C   0  0  0  0  0  0  0  0  0  0  0  0
  138.1880   78.7500  223.0660 C   0  0  0  0  0  0  0  0  0  0  0  0
  138.0380   80.0150  223.6230 C   0  0  0  0  0  0  0  0  0  0  0  0
  139.1440   80.8440  223.8380 C   0  0  0  0  0  0  0  0  0  0  0  0
  140.3870   80.3690  223.4840 C   0  0  0  0  0  0  0  0  0  0  0  0
  141.5030   81.1860  223.6920 C   0  0  0  0  0  0  0  0  0  0  0  0
  142.7730   80.7440  223.3480 C   0  0  0  0  0  0  0  0  0  0  0  0
  142.9080   79.4860  222.7970 C   0  0  0  0  0  0  0  0  0  0  0  0
  141.8180   78.6550  222.5780 C   0  0  0  0  0  0  0  0  0  0  0  0
  140.5690   79.1050  222.9240 C   0  0  0  0  0  0  0  0  0  0  0  0
  144.0153   74.8444  221.5648 H   0  0  0  0  0  0  0  0  0  0  0  0
  144.6290   73.9652  220.1236 H   0  0  0  0  0  0  0  0  0  0  0  0
  144.5722   75.7606  220.1236 H   0  0  0  0  0  0  0  0  0  0  0  0
  143.1167   73.9102  218.0065 H   0  0  0  0  0  0  0  0  0  0  0  0
  141.6621   74.8896  218.0386 H   0  0  0  0  0  0  0  0  0  0  0  0
  144.5607   75.8916  218.4268 H   0  0  0  0  0  0  0  0  0  0  0  0
  143.5448   76.1702  216.9769 H   0  0  0  0  0  0  0  0  0  0  0  0
  143.3630   77.5310  219.6170 H   0  0  0  0  0  0  0  0  0  0  0  0
  143.2576   80.0972  218.9594 H   0  0  0  0  0  0  0  0  0  0  0  0
  142.4663   82.1287  220.1044 H   0  0  0  0  0  0  0  0  0  0  0  0
  140.7127   83.3501  221.0427 H   0  0  0  0  0  0  0  0  0  0  0  0
  136.7544   81.7555  221.0130 H   0  0  0  0  0  0  0  0  0  0  0  0
  137.5272   79.7125  219.8591 H   0  0  0  0  0  0  0  0  0  0  0  0
  140.0172   75.4376  219.3115 H   0  0  0  0  0  0  0  0  0  0  0  0
  139.5075   74.8703  220.9872 H   0  0  0  0  0  0  0  0  0  0  0  0
  140.5570   77.6270  220.4320 H   0  0  0  0  0  0  0  0  0  0  0  0
  137.3089   78.1095  222.9020 H   0  0  0  0  0  0  0  0  0  0  0  0
  137.0339   80.3695  223.8989 H   0  0  0  0  0  0  0  0  0  0  0  0
  139.0243   81.8456  224.2768 H   0  0  0  0  0  0  0  0  0  0  0  0
  141.3733   82.1861  224.1314 H   0  0  0  0  0  0  0  0  0  0  0  0
  143.6533   81.3830  223.5112 H   0  0  0  0  0  0  0  0  0  0  0  0
  143.9120   79.1303  222.5224 H   0  0  0  0  0  0  0  0  0  0  0  0
  141.9528   77.6566  222.1363 H   0  0  0  0  0  0  0  0  0  0  0  0
  1  2  1  0
  2  3  1  0
  3  4  1  0
  4  5  1  0
  5  6  1  0
  6  7  2  0
  6  8  1  0
  8  9  2  0
  9 10  1  0
 10 11  2  0
 11 12  1  0
 12 13  2  0
 13 14  1  0
 13 15  1  0
 15 16  2  0
 16 17  1  0
 17 18  2  0
  2 19  1  0
 19 20  2  0
 19 21  1  0
 21 22  1  0
 22 23  1  0
 23 24  2  0
 23 25  1  0
 25 26  2  0
 26 27  1  0
 27 28  2  0
 28 29  1  0
 29 30  2  0
 30 31  1  0
 31 32  2  0
 32 33  1  0
 33 34  2  0
 18  8  1  0
 34 25  1  0
 17 11  1  0
 34 29  1  0
  1 35  1  0
  1 36  1  0
  1 37  1  0
  3 38  1  0
  3 39  1  0
  4 40  1  0
  4 41  1  0
  5 42  1  0
  9 43  1  0
 10 44  1  0
 12 45  1  0
 15 46  1  0
 16 47  1  0
 21 48  1  0
 21 49  1  0
 22 50  1  0
 26 51  1  0
 27 52  1  0
 28 53  1  0
 30 54  1  0
 31 55  1  0
 32 56  1  0
 33 57  1  0
M  END
>  <smiles>  (16) 
CN(CCNC(=O)c1ccc2cc(Cl)ccc2n1)C(=O)CNC(=O)c1cccc2ccccc12

>  <score_type>  (16) 
oracle

>  <origin>  (16) 
autodockgpu

>  <m_score__min__energy>  (16) 
-9.7200000000000006

>  <m_primary>  (16) 
energy

>  <rmsd>  (16) 
6.890892881156231

>  <m_score__min__rmsd>  (16) 
6.890892881156231

>  <meeko>  (16) 
{"free_energy": -6.51, "intermolecular_energy": -8.89, "internal_energy": -4.86, "cluster_size": 13, "cluster_id": 7, "rank_in_cluster": 4}

>  <energy>  (16) 
-8.18

>  <cluster_rmsd>  (16) 
1.42

>  <cluster>  (16) 
2

$$$$

     RDKit          3D

 57 60  0  0  0  0  0  0  0  0999 V2000
  138.2960   75.7280  222.0070 C   0  0  0  0  0  0  0  0  0  0  0  0
  139.0740   74.8290  221.2080 N   0  0  0  0  0  0  0  0  0  0  0  0
  138.2620   73.9630  220.2960 C   0  0  0  0  0  0  0  0  0  0  0  0
  137.1790   73.4110  221.2050 C   0  0  0  0  0  0  0  0  0  0  0  0
  137.7940   72.8410  222.3690 N   0  0  0  0  0  0  0  0  0  0  0  0
  138.6960   71.7570  222.3600 C   0  0  0  0  0  0  0  0  0  0  0  0
  139.0040   71.2270  221.2480 O   0  0  0  0  0  0  0  0  0  0  0  0
  139.2920   71.2190  223.5790 C   0  0  0  0  0  0  0  0  0  0  0  0
  140.2850   71.8950  224.2340 C   0  0  0  0  0  0  0  0  0  0  0  0
  140.8990   71.4560  225.3870 C   0  0  0  0  0  0  0  0  0  0  0  0
  140.4790   70.2510  225.9090 C   0  0  0  0  0  0  0  0  0  0  0  0
  141.0890   69.8130  227.0550 C   0  0  0  0  0  0  0  0  0  0  0  0
  140.6950   68.6150  227.6040 C   0  0  0  0  0  0  0  0  0  0  0  0
  141.4490   68.0070  229.0790 Cl  0  0  0  0  0  0  0  0  0  0  0  0
  139.7020   67.9130  226.9700 C   0  0  0  0  0  0  0  0  0  0  0  0
  139.0810   68.3520  225.8090 C   0  0  0  0  0  0  0  0  0  0  0  0
  139.4790   69.5650  225.2520 C   0  0  0  0  0  0  0  0  0  0  0  0
  138.8990   70.0350  224.1160 N   0  0  0  0  0  0  0  0  0  0  0  0
  140.4490   74.6440  221.1530 C   0  0  0  0  0  0  0  0  0  0  0  0
  140.9180   73.7930  222.0470 O   0  0  0  0  0  0  0  0  0  0  0  0
  141.5050   75.1920  220.3150 C   0  0  0  0  0  0  0  0  0  0  0  0
  141.8730   76.5250  220.6040 N   0  0  0  0  0  0  0  0  0  0  0  0
  140.9430   77.5540  220.1730 C   0  0  0  0  0  0  0  0  0  0  0  0
  139.9000   77.1620  219.5870 O   0  0  0  0  0  0  0  0  0  0  0  0
  141.2200   78.9680  220.4190 C   0  0  0  0  0  0  0  0  0  0  0  0
  141.1930   79.8190  219.3320 C   0  0  0  0  0  0  0  0  0  0  0  0
  141.4500   81.1730  219.5130 C   0  0  0  0  0  0  0  0  0  0  0  0
  141.7390   81.6880  220.7810 C   0  0  0  0  0  0  0  0  0  0  0  0
  141.7590   80.8140  221.8450 C   0  0  0  0  0  0  0  0  0  0  0  0
  142.0460   81.3130  223.1200 C   0  0  0  0  0  0  0  0  0  0  0  0
  142.0770   80.4650  224.2180 C   0  0  0  0  0  0  0  0  0  0  0  0
  141.8180   79.1230  224.0240 C   0  0  0  0  0  0  0  0  0  0  0  0
  141.5300   78.6000  222.7700 C   0  0  0  0  0  0  0  0  0  0  0  0
  141.5040   79.4510  221.6940 C   0  0  0  0  0  0  0  0  0  0  0  0
  138.4754   75.5207  223.0723 H   0  0  0  0  0  0  0  0  0  0  0  0
  138.5867   76.7646  221.7811 H   0  0  0  0  0  0  0  0  0  0  0  0
  137.2284   75.5891  221.7811 H   0  0  0  0  0  0  0  0  0  0  0  0
  137.8252   74.5543  219.4777 H   0  0  0  0  0  0  0  0  0  0  0  0
  138.8568   73.1755  219.8101 H   0  0  0  0  0  0  0  0  0  0  0  0
  136.5006   74.2229  221.5061 H   0  0  0  0  0  0  0  0  0  0  0  0
  136.6035   72.6395  220.6725 H   0  0  0  0  0  0  0  0  0  0  0  0
  137.5690   73.2510  223.3200 H   0  0  0  0  0  0  0  0  0  0  0  0
  140.6160   72.8550  223.8111 H   0  0  0  0  0  0  0  0  0  0  0  0
  141.6926   72.0436  225.8716 H   0  0  0  0  0  0  0  0  0  0  0  0
  141.8818   70.4104  227.5288 H   0  0  0  0  0  0  0  0  0  0  0  0
  139.3817   66.9540  227.4033 H   0  0  0  0  0  0  0  0  0  0  0  0
  138.2885   67.7526  225.3371 H   0  0  0  0  0  0  0  0  0  0  0  0
  142.3969   74.5594  220.4347 H   0  0  0  0  0  0  0  0  0  0  0  0
  141.1065   75.2013  219.2898 H   0  0  0  0  0  0  0  0  0  0  0  0
  142.7070   76.9000  221.0770 H   0  0  0  0  0  0  0  0  0  0  0  0
  140.9694   79.4277  218.3286 H   0  0  0  0  0  0  0  0  0  0  0  0
  141.4257   81.8496  218.6461 H   0  0  0  0  0  0  0  0  0  0  0  0
  141.9442   82.7592  220.9240 H   0  0  0  0  0  0  0  0  0  0  0  0
  142.2487   82.3859  223.2532 H   0  0  0  0  0  0  0  0  0  0  0  0
  142.3032   80.8539  225.2218 H   0  0  0  0  0  0  0  0  0  0  0  0
  141.8404   78.4459  224.8907 H   0  0  0  0  0  0  0  0  0  0  0  0
  141.3271   77.5265  222.6422 H   0  0  0  0  0  0  0  0  0  0  0  0
  1  2  1  0
  2  3  1  0
  3  4  1  0
  4  5  1  0
  5  6  1  0
  6  7  2  0
  6  8  1  0
  8  9  2  0
  9 10  1  0
 10 11  2  0
 11 12  1  0
 12 13  2  0
 13 14  1  0
 13 15  1  0
 15 16  2  0
 16 17  1  0
 17 18  2  0
  2 19  1  0
 19 20  2  0
 19 21  1  0
 21 22  1  0
 22 23  1  0
 23 24  2  0
 23 25  1  0
 25 26  2  0
 26 27  1  0
 27 28  2  0
 28 29  1  0
 29 30  2  0
 30 31  1  0
 31 32  2  0
 32 33  1  0
 33 34  2  0
 18  8  1  0
 34 25  1  0
 17 11  1  0
 34 29  1  0
  1 35  1  0
  1 36  1  0
  1 37  1  0
  3 38  1  0
  3 39  1  0
  4 40  1  0
  4 41  1  0
  5 42  1  0
  9 43  1  0
 10 44  1  0
 12 45  1  0
 15 46  1  0
 16 47  1  0
 21 48  1  0
 21 49  1  0
 22 50  1  0
 26 51  1  0
 27 52  1  0
 28 53  1  0
 30 54  1  0
 31 55  1  0
 32 56  1  0
 33 57  1  0
M  END
>  <smiles>  (17) 
CN(CCNC(=O)c1ccc2cc(Cl)ccc2n1)C(=O)CNC(=O)c1cccc2ccccc12

>  <score_type>  (17) 
oracle

>  <origin>  (17) 
autodockgpu

>  <m_score__min__energy>  (17) 
-9.7200000000000006

>  <m_primary>  (17) 
energy

>  <rmsd>  (17) 
9.542209314890787

>  <m_score__min__rmsd>  (17) 
9.542209314890787

>  <meeko>  (17) 
{"free_energy": -9.66, "intermolecular_energy": -12.05, "internal_energy": -1.78, "cluster_size": 13, "cluster_id": 2, "rank_in_cluster": 1}

>  <energy>  (17) 
-8.72

>  <cluster_rmsd>  (17) 
0.0

>  <cluster>  (17) 
3

$$$$

     RDKit          3D

 57 60  0  0  0  0  0  0  0  0999 V2000
  142.4030   72.1760  220.8490 C   0  0  0  0  0  0  0  0  0  0  0  0
  141.4100   73.1930  220.6720 N   0  0  0  0  0  0  0  0  0  0  0  0
  140.1150   72.6920  220.1130 C   0  0  0  0  0  0  0  0  0  0  0  0
  139.2530   72.4890  221.3450 C   0  0  0  0  0  0  0  0  0  0  0  0
  138.9030   73.7710  221.8840 N   0  0  0  0  0  0  0  0  0  0  0  0
  138.1720   74.7650  221.2010 C   0  0  0  0  0  0  0  0  0  0  0  0
  137.7810   74.5310  220.0150 O   0  0  0  0  0  0  0  0  0  0  0  0
  137.8440   76.0550  221.8020 C   0  0  0  0  0  0  0  0  0  0  0  0
  136.5530   76.5030  221.8440 C   0  0  0  0  0  0  0  0  0  0  0  0
  136.1610   77.7050  222.3910 C   0  0  0  0  0  0  0  0  0  0  0  0
  137.1460   78.5070  222.9300 C   0  0  0  0  0  0  0  0  0  0  0  0
  136.7580   79.7030  223.4740 C   0  0  0  0  0  0  0  0  0  0  0  0
  137.7130   80.5280  224.0200 C   0  0  0  0  0  0  0  0  0  0  0  0
  137.2660   82.0790  224.7330 Cl  0  0  0  0  0  0  0  0  0  0  0  0
  139.0180   80.1070  223.9920 C   0  0  0  0  0  0  0  0  0  0  0  0
  139.4170   78.8960  223.4430 C   0  0  0  0  0  0  0  0  0  0  0  0
  138.4490   78.0600  222.8890 C   0  0  0  0  0  0  0  0  0  0  0  0
  138.7930   76.8650  222.3390 N   0  0  0  0  0  0  0  0  0  0  0  0
  141.4680   74.5540  220.9390 C   0  0  0  0  0  0  0  0  0  0  0  0
  141.0820   74.8860  222.1580 O   0  0  0  0  0  0  0  0  0  0  0  0
  141.8670   75.7160  220.1590 C   0  0  0  0  0  0  0  0  0  0  0  0
  141.3800   76.9550  220.6320 N   0  0  0  0  0  0  0  0  0  0  0  0
  141.8130   78.1330  219.9010 C   0  0  0  0  0  0  0  0  0  0  0  0
  142.5770   77.9400  218.9200 O   0  0  0  0  0  0  0  0  0  0  0  0
  141.3720   79.4690  220.3010 C   0  0  0  0  0  0  0  0  0  0  0  0
  140.5520   80.1560  219.4280 C   0  0  0  0  0  0  0  0  0  0  0  0
  140.1070   81.4290  219.7620 C   0  0  0  0  0  0  0  0  0  0  0  0
  140.4760   82.0280  220.9710 C   0  0  0  0  0  0  0  0  0  0  0  0
  141.2940   81.3170  221.8210 C   0  0  0  0  0  0  0  0  0  0  0  0
  141.6730   81.9020  223.0340 C   0  0  0  0  0  0  0  0  0  0  0  0
  142.4960   81.2190  223.9180 C   0  0  0  0  0  0  0  0  0  0  0  0
  142.9310   79.9550  223.5750 C   0  0  0  0  0  0  0  0  0  0  0  0
  142.5710   79.3500  222.3770 C   0  0  0  0  0  0  0  0  0  0  0  0
  141.7560   80.0380  221.5130 C   0  0  0  0  0  0  0  0  0  0  0  0
  142.5677   72.0074  221.9235 H   0  0  0  0  0  0  0  0  0  0  0  0
  142.0593   71.2424  220.3797 H   0  0  0  0  0  0  0  0  0  0  0  0
  143.3446   72.4973  220.3797 H   0  0  0  0  0  0  0  0  0  0  0  0
  139.6655   73.4337  219.4364 H   0  0  0  0  0  0  0  0  0  0  0  0
  140.2318   71.7756  219.5158 H   0  0  0  0  0  0  0  0  0  0  0  0
  138.3390   71.9421  221.0700 H   0  0  0  0  0  0  0  0  0  0  0  0
  139.8080   71.9080  222.0963 H   0  0  0  0  0  0  0  0  0  0  0  0
  139.2050   74.0130  222.8700 H   0  0  0  0  0  0  0  0  0  0  0  0
  135.7733   75.8591  221.4110 H   0  0  0  0  0  0  0  0  0  0  0  0
  135.1050   78.0131  222.3978 H   0  0  0  0  0  0  0  0  0  0  0  0
  135.6985   79.9988  223.4740 H   0  0  0  0  0  0  0  0  0  0  0  0
  139.7874   80.7621  224.4266 H   0  0  0  0  0  0  0  0  0  0  0  0
  140.4769   78.6018  223.4451 H   0  0  0  0  0  0  0  0  0  0  0  0
  142.9660   75.7618  220.1547 H   0  0  0  0  0  0  0  0  0  0  0  0
  141.4287   75.5776  219.1597 H   0  0  0  0  0  0  0  0  0  0  0  0
  140.7580   77.1700  221.4240 H   0  0  0  0  0  0  0  0  0  0  0  0
  140.2528   79.6981  218.4736 H   0  0  0  0  0  0  0  0  0  0  0  0
  139.4542   81.9745  219.0647 H   0  0  0  0  0  0  0  0  0  0  0  0
  140.1237   83.0361  221.2348 H   0  0  0  0  0  0  0  0  0  0  0  0
  141.3160   82.9108  223.2888 H   0  0  0  0  0  0  0  0  0  0  0  0
  142.7956   81.6757  224.8728 H   0  0  0  0  0  0  0  0  0  0  0  0
  143.5835   79.4090  224.2722 H   0  0  0  0  0  0  0  0  0  0  0  0
  142.9314   78.3414  222.1264 H   0  0  0  0  0  0  0  0  0  0  0  0
  1  2  1  0
  2  3  1  0
  3  4  1  0
  4  5  1  0
  5  6  1  0
  6  7  2  0
  6  8  1  0
  8  9  2  0
  9 10  1  0
 10 11  2  0
 11 12  1  0
 12 13  2  0
 13 14  1  0
 13 15  1  0
 15 16  2  0
 16 17  1  0
 17 18  2  0
  2 19  1  0
 19 20  2  0
 19 21  1  0
 21 22  1  0
 22 23  1  0
 23 24  2  0
 23 25  1  0
 25 26  2  0
 26 27  1  0
 27 28  2  0
 28 29  1  0
 29 30  2  0
 30 31  1  0
 31 32  2  0
 32 33  1  0
 33 34  2  0
 18  8  1  0
 34 25  1  0
 17 11  1  0
 34 29  1  0
  1 35  1  0
  1 36  1  0
  1 37  1  0
  3 38  1  0
  3 39  1  0
  4 40  1  0
  4 41  1  0
  5 42  1  0
  9 43  1  0
 10 44  1  0
 12 45  1  0
 15 46  1  0
 16 47  1  0
 21 48  1  0
 21 49  1  0
 22 50  1  0
 26 51  1  0
 27 52  1  0
 28 53  1  0
 30 54  1  0
 31 55  1  0
 32 56  1  0
 33 57  1  0
M  END
>  <smiles>  (18) 
CN(CCNC(=O)c1ccc2cc(Cl)ccc2n1)C(=O)CNC(=O)c1cccc2ccccc12

>  <score_type>  (18) 
oracle

>  <origin>  (18) 
autodockgpu

>  <m_score__min__energy>  (18) 
-9.7200000000000006

>  <m_primary>  (18) 
energy

>  <rmsd>  (18) 
8.125219743985348

>  <m_score__min__rmsd>  (18) 
8.125219743985348

>  <meeko>  (18) 
{"free_energy": -6.56, "intermolecular_energy": -8.94, "internal_energy": -4.57, "cluster_size": 3, "cluster_id": 1, "rank_in_cluster": 3}

>  <energy>  (18) 
-7.19

>  <cluster_rmsd>  (18) 
1.24

>  <cluster>  (18) 
3

$$$$

     RDKit          3D

 57 60  0  0  0  0  0  0  0  0999 V2000
  140.1780   74.1170  218.6280 C   0  0  0  0  0  0  0  0  0  0  0  0
  140.9090   74.1780  219.8580 N   0  0  0  0  0  0  0  0  0  0  0  0
  142.3460   73.7760  219.7350 C   0  0  0  0  0  0  0  0  0  0  0  0
  142.9820   74.9540  219.0190 C   0  0  0  0  0  0  0  0  0  0  0  0
  142.2520   76.1450  219.3430 N   0  0  0  0  0  0  0  0  0  0  0  0
  142.2510   77.3290  218.5760 C   0  0  0  0  0  0  0  0  0  0  0  0
  142.9410   77.3680  217.5110 O   0  0  0  0  0  0  0  0  0  0  0  0
  141.4860   78.5130  218.9560 C   0  0  0  0  0  0  0  0  0  0  0  0
  140.1940   78.6770  218.5420 C   0  0  0  0  0  0  0  0  0  0  0  0
  139.4060   79.7640  218.8560 C   0  0  0  0  0  0  0  0  0  0  0  0
  139.9680   80.7480  219.6410 C   0  0  0  0  0  0  0  0  0  0  0  0
  139.1860   81.8290  219.9530 C   0  0  0  0  0  0  0  0  0  0  0  0
  139.7140   82.8310  220.7340 C   0  0  0  0  0  0  0  0  0  0  0  0
  138.7490   84.2430  221.1660 Cl  0  0  0  0  0  0  0  0  0  0  0  0
  141.0090   82.6950  221.1650 C   0  0  0  0  0  0  0  0  0  0  0  0
  141.8050   81.6020  220.8520 C   0  0  0  0  0  0  0  0  0  0  0  0
  141.2710   80.5870  220.0600 C   0  0  0  0  0  0  0  0  0  0  0  0
  142.0150   79.4980  219.7280 N   0  0  0  0  0  0  0  0  0  0  0  0
  140.4910   74.5500  221.1280 C   0  0  0  0  0  0  0  0  0  0  0  0
  141.4750   74.8040  221.9710 O   0  0  0  0  0  0  0  0  0  0  0  0
  139.1850   74.7230  221.7460 C   0  0  0  0  0  0  0  0  0  0  0  0
  139.0420   75.8860  222.5360 N   0  0  0  0  0  0  0  0  0  0  0  0
  139.3780   77.1430  221.8910 C   0  0  0  0  0  0  0  0  0  0  0  0
  139.7620   77.0780  220.6940 O   0  0  0  0  0  0  0  0  0  0  0  0
  139.2670   78.4100  222.6120 C   0  0  0  0  0  0  0  0  0  0  0  0
  137.9970   78.8680  222.9010 C   0  0  0  0  0  0  0  0  0  0  0  0
  137.8390   80.0680  223.5850 C   0  0  0  0  0  0  0  0  0  0  0  0
  138.9480   80.8210  223.9840 C   0  0  0  0  0  0  0  0  0  0  0  0
  140.2020   80.3380  223.6820 C   0  0  0  0  0  0  0  0  0  0  0  0
  141.3210   81.0790  224.0740 C   0  0  0  0  0  0  0  0  0  0  0  0
  142.6020   80.6260  223.7880 C   0  0  0  0  0  0  0  0  0  0  0  0
  142.7440   79.4320  223.1090 C   0  0  0  0  0  0  0  0  0  0  0  0
  141.6500   78.6760  222.7070 C   0  0  0  0  0  0  0  0  0  0  0  0
  140.3910   79.1370  222.9980 C   0  0  0  0  0  0  0  0  0  0  0  0
  139.1032   74.0273  218.8443 H   0  0  0  0  0  0  0  0  0  0  0  0
  140.3600   75.0334  218.0475 H   0  0  0  0  0  0  0  0  0  0  0  0
  140.5093   73.2434  218.0475 H   0  0  0  0  0  0  0  0  0  0  0  0
  142.7990   73.6268  220.7262 H   0  0  0  0  0  0  0  0  0  0  0  0
  142.4810   72.8247  219.1995 H   0  0  0  0  0  0  0  0  0  0  0  0
  144.0275   75.0623  219.3433 H   0  0  0  0  0  0  0  0  0  0  0  0
  142.9574   74.7864  217.9321 H   0  0  0  0  0  0  0  0  0  0  0  0
  141.6610   76.1600  220.2210 H   0  0  0  0  0  0  0  0  0  0  0  0
  139.7526   77.8879  217.9155 H   0  0  0  0  0  0  0  0  0  0  0  0
  138.3701   79.8429  218.4945 H   0  0  0  0  0  0  0  0  0  0  0  0
  138.1516   81.8947  219.5846 H   0  0  0  0  0  0  0  0  0  0  0  0
  141.4381   83.4920  221.7899 H   0  0  0  0  0  0  0  0  0  0  0  0
  142.8388   81.5379  221.2224 H   0  0  0  0  0  0  0  0  0  0  0  0
  138.4320   74.7611  220.9451 H   0  0  0  0  0  0  0  0  0  0  0  0
  139.0562   73.8716  222.4304 H   0  0  0  0  0  0  0  0  0  0  0  0
  138.7340   75.9960  223.5120 H   0  0  0  0  0  0  0  0  0  0  0  0
  137.1156   78.2870  222.5920 H   0  0  0  0  0  0  0  0  0  0  0  0
  136.8265   80.4307  223.8159 H   0  0  0  0  0  0  0  0  0  0  0  0
  138.8224   81.7714  224.5233 H   0  0  0  0  0  0  0  0  0  0  0  0
  141.1855   82.0282  224.6132 H   0  0  0  0  0  0  0  0  0  0  0  0
  143.4847   81.2058  224.0957 H   0  0  0  0  0  0  0  0  0  0  0  0
  143.7561   79.0677  222.8790 H   0  0  0  0  0  0  0  0  0  0  0  0
  141.7902   77.7280  222.1669 H   0  0  0  0  0  0  0  0  0  0  0  0
  1  2  1  0
  2  3  1  0
  3  4  1  0
  4  5  1  0
  5  6  1  0
  6  7  2  0
  6  8  1  0
  8  9  2  0
  9 10  1  0
 10 11  2  0
 11 12  1  0
 12 13  2  0
 13 14  1  0
 13 15  1  0
 15 16  2  0
 16 17  1  0
 17 18  2  0
  2 19  1  0
 19 20  2  0
 19 21  1  0
 21 22  1  0
 22 23  1  0
 23 24  2  0
 23 25  1  0
 25 26  2  0
 26 27  1  0
 27 28  2  0
 28 29  1  0
 29 30  2  0
 30 31  1  0
 31 32  2  0
 32 33  1  0
 33 34  2  0
 18  8  1  0
 34 25  1  0
 17 11  1  0
 34 29  1  0
  1 35  1  0
  1 36  1  0
  1 37  1  0
  3 38  1  0
  3 39  1  0
  4 40  1  0
  4 41  1  0
  5 42  1  0
  9 43  1  0
 10 44  1  0
 12 45  1  0
 15 46  1  0
 16 47  1  0
 21 48  1  0
 21 49  1  0
 22 50  1  0
 26 51  1  0
 27 52  1  0
 28 53  1  0
 30 54  1  0
 31 55  1  0
 32 56  1  0
 33 57  1  0
M  END
>  <smiles>  (19) 
CN(CCNC(=O)c1ccc2cc(Cl)ccc2n1)C(=O)CNC(=O)c1cccc2ccccc12

>  <score_type>  (19) 
oracle

>  <origin>  (19) 
autodockgpu

>  <m_score__min__energy>  (19) 
-9.7200000000000006

>  <m_primary>  (19) 
energy

>  <rmsd>  (19) 
6.683128482541428

>  <m_score__min__rmsd>  (19) 
6.683128482541428

>  <meeko>  (19) 
{"free_energy": -5.87, "intermolecular_energy": -8.26, "internal_energy": -5.04, "cluster_size": 13, "cluster_id": 7, "rank_in_cluster": 10}

>  <energy>  (19) 
-6.94

>  <cluster_rmsd>  (19) 
1.4

>  <cluster>  (19) 
3

$$$$

     RDKit          3D

 57 60  0  0  0  0  0  0  0  0999 V2000
  144.2330   74.0760  217.4680 C   0  0  0  0  0  0  0  0  0  0  0  0
  143.6120   74.8770  218.4790 N   0  0  0  0  0  0  0  0  0  0  0  0
  143.1740   74.1070  219.6850 C   0  0  0  0  0  0  0  0  0  0  0  0
  141.6610   74.0850  219.5610 C   0  0  0  0  0  0  0  0  0  0  0  0
  141.1420   75.3520  219.9860 N   0  0  0  0  0  0  0  0  0  0  0  0
  140.4480   75.5810  221.1920 C   0  0  0  0  0  0  0  0  0  0  0  0
  140.2560   74.6050  221.9820 O   0  0  0  0  0  0  0  0  0  0  0  0
  139.9410   76.8960  221.5720 C   0  0  0  0  0  0  0  0  0  0  0  0
  140.1820   77.4090  222.8170 C   0  0  0  0  0  0  0  0  0  0  0  0
  139.7390   78.6400  223.2520 C   0  0  0  0  0  0  0  0  0  0  0  0
  139.0020   79.3980  222.3670 C   0  0  0  0  0  0  0  0  0  0  0  0
  138.5600   80.6210  222.8000 C   0  0  0  0  0  0  0  0  0  0  0  0
  137.8230   81.4040  221.9430 C   0  0  0  0  0  0  0  0  0  0  0  0
  137.2310   82.9870  222.4510 Cl  0  0  0  0  0  0  0  0  0  0  0  0
  137.5640   80.9170  220.6880 C   0  0  0  0  0  0  0  0  0  0  0  0
  138.0080   79.6790  220.2450 C   0  0  0  0  0  0  0  0  0  0  0  0
  138.7560   78.8840  221.1120 C   0  0  0  0  0  0  0  0  0  0  0  0
  139.2120   77.6640  220.7210 N   0  0  0  0  0  0  0  0  0  0  0  0
  143.3600   76.2420  218.5080 C   0  0  0  0  0  0  0  0  0  0  0  0
  143.3610   76.7690  219.7190 O   0  0  0  0  0  0  0  0  0  0  0  0
  143.0880   77.2370  217.4810 C   0  0  0  0  0  0  0  0  0  0  0  0
  142.9470   78.5620  217.9490 N   0  0  0  0  0  0  0  0  0  0  0  0
  141.6750   78.8900  218.5680 C   0  0  0  0  0  0  0  0  0  0  0  0
  140.8230   77.9650  218.6310 O   0  0  0  0  0  0  0  0  0  0  0  0
  141.4160   80.2310  219.0880 C   0  0  0  0  0  0  0  0  0  0  0  0
  140.8950   81.1630  218.2110 C   0  0  0  0  0  0  0  0  0  0  0  0
  140.6320   82.4530  218.6570 C   0  0  0  0  0  0  0  0  0  0  0  0
  140.8880   82.8240  219.9810 C   0  0  0  0  0  0  0  0  0  0  0  0
  141.4070   81.8730  220.8310 C   0  0  0  0  0  0  0  0  0  0  0  0
  141.6690   82.2280  222.1580 C   0  0  0  0  0  0  0  0  0  0  0  0
  142.1920   81.2980  223.0460 C   0  0  0  0  0  0  0  0  0  0  0  0
  142.4480   80.0210  222.5900 C   0  0  0  0  0  0  0  0  0  0  0  0
  142.1980   79.6410  221.2780 C   0  0  0  0  0  0  0  0  0  0  0  0
  141.6800   80.5710  220.4120 C   0  0  0  0  0  0  0  0  0  0  0  0
  144.8408   73.2920  217.9433 H   0  0  0  0  0  0  0  0  0  0  0  0
  143.4579   73.6099  216.8419 H   0  0  0  0  0  0  0  0  0  0  0  0
  144.8775   74.7106  216.8419 H   0  0  0  0  0  0  0  0  0  0  0  0
  143.5846   73.0866  219.6705 H   0  0  0  0  0  0  0  0  0  0  0  0
  143.5202   74.5547  220.6282 H   0  0  0  0  0  0  0  0  0  0  0  0
  141.3789   73.9030  218.5135 H   0  0  0  0  0  0  0  0  0  0  0  0
  141.2471   73.2828  220.1896 H   0  0  0  0  0  0  0  0  0  0  0  0
  141.2770   76.1970  219.3610 H   0  0  0  0  0  0  0  0  0  0  0  0
  140.7690   76.7980  223.5185 H   0  0  0  0  0  0  0  0  0  0  0  0
  139.9647   79.0032  224.2655 H   0  0  0  0  0  0  0  0  0  0  0  0
  138.7912   80.9706  223.8170 H   0  0  0  0  0  0  0  0  0  0  0  0
  136.9748   81.5385  219.9976 H   0  0  0  0  0  0  0  0  0  0  0  0
  137.7739   79.3313  219.2280 H   0  0  0  0  0  0  0  0  0  0  0  0
  143.9185   77.2175  216.7600 H   0  0  0  0  0  0  0  0  0  0  0  0
  142.1174   76.9640  217.0413 H   0  0  0  0  0  0  0  0  0  0  0  0
  143.6050   79.3530  217.9230 H   0  0  0  0  0  0  0  0  0  0  0  0
  140.6897   80.8859  217.1665 H   0  0  0  0  0  0  0  0  0  0  0  0
  140.2161   83.1935  217.9579 H   0  0  0  0  0  0  0  0  0  0  0  0
  140.6809   83.8454  220.3330 H   0  0  0  0  0  0  0  0  0  0  0  0
  141.4591   83.2519  222.5007 H   0  0  0  0  0  0  0  0  0  0  0  0
  142.3980   81.5731  224.0909 H   0  0  0  0  0  0  0  0  0  0  0  0
  142.8637   79.2799  223.2886 H   0  0  0  0  0  0  0  0  0  0  0  0
  142.4107   78.6161  220.9400 H   0  0  0  0  0  0  0  0  0  0  0  0
  1  2  1  0
  2  3  1  0
  3  4  1  0
  4  5  1  0
  5  6  1  0
  6  7  2  0
  6  8  1  0
  8  9  2  0
  9 10  1  0
 10 11  2  0
 11 12  1  0
 12 13  2  0
 13 14  1  0
 13 15  1  0
 15 16  2  0
 16 17  1  0
 17 18  2  0
  2 19  1  0
 19 20  2  0
 19 21  1  0
 21 22  1  0
 22 23  1  0
 23 24  2  0
 23 25  1  0
 25 26  2  0
 26 27  1  0
 27 28  2  0
 28 29  1  0
 29 30  2  0
 30 31  1  0
 31 32  2  0
 32 33  1  0
 33 34  2  0
 18  8  1  0
 34 25  1  0
 17 11  1  0
 34 29  1  0
  1 35  1  0
  1 36  1  0
  1 37  1  0
  3 38  1  0
  3 39  1  0
  4 40  1  0
  4 41  1  0
  5 42  1  0
  9 43  1  0
 10 44  1  0
 12 45  1  0
 15 46  1  0
 16 47  1  0
 21 48  1  0
 21 49  1  0
 22 50  1  0
 26 51  1  0
 27 52  1  0
 28 53  1  0
 30 54  1  0
 31 55  1  0
 32 56  1  0
 33 57  1  0
M  END
>  <smiles>  (20) 
CN(CCNC(=O)c1ccc2cc(Cl)ccc2n1)C(=O)CNC(=O)c1cccc2ccccc12

>  <score_type>  (20) 
oracle

>  <origin>  (20) 
autodockgpu

>  <m_score__min__energy>  (20) 
-9.7200000000000006

>  <m_primary>  (20) 
energy

>  <rmsd>  (20) 
8.640422761408587

>  <m_score__min__rmsd>  (20) 
8.640422761408587

>  <meeko>  (20) 
{"free_energy": -5.56, "intermolecular_energy": -7.95, "internal_energy": -5.28, "cluster_size": 13, "cluster_id": 7, "rank_in_cluster": 13}

>  <energy>  (20) 
-8.71

>  <cluster_rmsd>  (20) 
0.0

>  <cluster>  (20) 
4

$$$$

     RDKit          3D

 57 60  0  0  0  0  0  0  0  0999 V2000
  138.6270   72.5590  218.9490 C   0  0  0  0  0  0  0  0  0  0  0  0
  139.3230   73.5220  219.7480 N   0  0  0  0  0  0  0  0  0  0  0  0
  138.5860   74.8120  219.9300 C   0  0  0  0  0  0  0  0  0  0  0  0
  137.4050   74.4260  220.8020 C   0  0  0  0  0  0  0  0  0  0  0  0
  137.8700   73.5860  221.8680 N   0  0  0  0  0  0  0  0  0  0  0  0
  137.5720   72.2150  222.0080 C   0  0  0  0  0  0  0  0  0  0  0  0
  136.8390   71.6560  221.1350 O   0  0  0  0  0  0  0  0  0  0  0  0
  138.0750   71.4090  223.1160 C   0  0  0  0  0  0  0  0  0  0  0  0
  137.4640   70.2360  223.4660 C   0  0  0  0  0  0  0  0  0  0  0  0
  137.8750   69.4200  224.4970 C   0  0  0  0  0  0  0  0  0  0  0  0
  138.9770   69.8200  225.2230 C   0  0  0  0  0  0  0  0  0  0  0  0
  139.3860   69.0100  226.2490 C   0  0  0  0  0  0  0  0  0  0  0  0
  140.4820   69.3790  226.9940 C   0  0  0  0  0  0  0  0  0  0  0  0
  141.0490   68.3700  228.3250 Cl  0  0  0  0  0  0  0  0  0  0  0  0
  141.1150   70.5510  226.6680 C   0  0  0  0  0  0  0  0  0  0  0  0
  140.7060   71.3760  225.6300 C   0  0  0  0  0  0  0  0  0  0  0  0
  139.5950   71.0030  224.8750 C   0  0  0  0  0  0  0  0  0  0  0  0
  139.1580   71.7800  223.8480 N   0  0  0  0  0  0  0  0  0  0  0  0
  140.5600   73.4380  220.3720 C   0  0  0  0  0  0  0  0  0  0  0  0
  141.4680   72.7630  219.6900 O   0  0  0  0  0  0  0  0  0  0  0  0
  141.0860   73.9360  221.6340 C   0  0  0  0  0  0  0  0  0  0  0  0
  141.5630   75.2660  221.6060 N   0  0  0  0  0  0  0  0  0  0  0  0
  140.6930   76.2700  222.1920 C   0  0  0  0  0  0  0  0  0  0  0  0
  139.6020   75.8620  222.6690 O   0  0  0  0  0  0  0  0  0  0  0  0
  141.0830   77.6790  222.2180 C   0  0  0  0  0  0  0  0  0  0  0  0
  141.0960   78.3120  223.4450 C   0  0  0  0  0  0  0  0  0  0  0  0
  141.4590   79.6510  223.5220 C   0  0  0  0  0  0  0  0  0  0  0  0
  141.8130   80.3700  222.3750 C   0  0  0  0  0  0  0  0  0  0  0  0
  141.7920   79.7100  221.1660 C   0  0  0  0  0  0  0  0  0  0  0  0
  142.1420   80.4140  220.0100 C   0  0  0  0  0  0  0  0  0  0  0  0
  142.1330   79.7860  218.7730 C   0  0  0  0  0  0  0  0  0  0  0  0
  141.7700   78.4550  218.7100 C   0  0  0  0  0  0  0  0  0  0  0  0
  141.4170   77.7320  219.8420 C   0  0  0  0  0  0  0  0  0  0  0  0
  141.4310   78.3670  221.0580 C   0  0  0  0  0  0  0  0  0  0  0  0
  138.1098   71.8434  219.6050 H   0  0  0  0  0  0  0  0  0  0  0  0
  137.8903   73.0730  218.3141 H   0  0  0  0  0  0  0  0  0  0  0  0
  139.3462   72.0208  218.3141 H   0  0  0  0  0  0  0  0  0  0  0  0
  139.2184   75.5585  220.4327 H   0  0  0  0  0  0  0  0  0  0  0  0
  138.2830   75.2702  218.9770 H   0  0  0  0  0  0  0  0  0  0  0  0
  136.9431   75.3323  221.2206 H   0  0  0  0  0  0  0  0  0  0  0  0
  136.6581   73.8866  220.2009 H   0  0  0  0  0  0  0  0  0  0  0  0
  138.4860   74.0070  222.6200 H   0  0  0  0  0  0  0  0  0  0  0  0
  136.5844   69.9230  222.8844 H   0  0  0  0  0  0  0  0  0  0  0  0
  137.3446   68.4854  224.7320 H   0  0  0  0  0  0  0  0  0  0  0  0
  138.8462   68.0783  226.4739 H   0  0  0  0  0  0  0  0  0  0  0  0
  141.9919   70.8525  227.2597 H   0  0  0  0  0  0  0  0  0  0  0  0
  141.2482   72.3068  225.4071 H   0  0  0  0  0  0  0  0  0  0  0  0
  140.2828   73.8786  222.3834 H   0  0  0  0  0  0  0  0  0  0  0  0
  141.9556   73.3056  221.8714 H   0  0  0  0  0  0  0  0  0  0  0  0
  142.4410   75.6520  221.2310 H   0  0  0  0  0  0  0  0  0  0  0  0
  140.8208   77.7598  224.3557 H   0  0  0  0  0  0  0  0  0  0  0  0
  141.4682   80.1539  224.5003 H   0  0  0  0  0  0  0  0  0  0  0  0
  142.0994   81.4303  222.4368 H   0  0  0  0  0  0  0  0  0  0  0  0
  142.4267   81.4741  220.0818 H   0  0  0  0  0  0  0  0  0  0  0  0
  142.4091   80.3366  217.8616 H   0  0  0  0  0  0  0  0  0  0  0  0
  141.7602   77.9515  217.7321 H   0  0  0  0  0  0  0  0  0  0  0  0
  141.1321   76.6723  219.7652 H   0  0  0  0  0  0  0  0  0  0  0  0
  1  2  1  0
  2  3  1  0
  3  4  1  0
  4  5  1  0
  5  6  1  0
  6  7  2  0
  6  8  1  0
  8  9  2  0
  9 10  1  0
 10 11  2  0
 11 12  1  0
 12 13  2  0
 13 14  1  0
 13 15  1  0
 15 16  2  0
 16 17  1  0
 17 18  2  0
  2 19  1  0
 19 20  2  0
 19 21  1  0
 21 22  1  0
 22 23  1  0
 23 24  2  0
 23 25  1  0
 25 26  2  0
 26 27  1  0
 27 28  2  0
 28 29  1  0
 29 30  2  0
 30 31  1  0
 31 32  2  0
 32 33  1  0
 33 34  2  0
 18  8  1  0
 34 25  1  0
 17 11  1  0
 34 29  1  0
  1 35  1  0
  1 36  1  0
  1 37  1  0
  3 38  1  0
  3 39  1  0
  4 40  1  0
  4 41  1  0
  5 42  1  0
  9 43  1  0
 10 44  1  0
 12 45  1  0
 15 46  1  0
 16 47  1  0
 21 48  1  0
 21 49  1  0
 22 50  1  0
 26 51  1  0
 27 52  1  0
 28 53  1  0
 30 54  1  0
 31 55  1  0
 32 56  1  0
 33 57  1  0
M  END
>  <smiles>  (21) 
CN(CCNC(=O)c1ccc2cc(Cl)ccc2n1)C(=O)CNC(=O)c1cccc2ccccc12

>  <score_type>  (21) 
oracle

>  <origin>  (21) 
autodockgpu

>  <m_score__min__energy>  (21) 
-9.7200000000000006

>  <m_primary>  (21) 
energy

>  <rmsd>  (21) 
9.601271019896435

>  <m_score__min__rmsd>  (21) 
9.601271019896435

>  <meeko>  (21) 
{"free_energy": -8.18, "intermolecular_energy": -10.57, "internal_energy": -2.84, "cluster_size": 13, "cluster_id": 2, "rank_in_cluster": 13}

>  <energy>  (21) 
-8.62

>  <cluster_rmsd>  (21) 
1.16

>  <cluster>  (21) 
4

$$$$

     RDKit          3D

 57 60  0  0  0  0  0  0  0  0999 V2000
  137.5840   75.9660  223.0800 C   0  0  0  0  0  0  0  0  0  0  0  0
  138.2000   75.2470  222.0050 N   0  0  0  0  0  0  0  0  0  0  0  0
  137.2310   74.5280  221.1190 C   0  0  0  0  0  0  0  0  0  0  0  0
  137.9930   73.2850  220.6970 C   0  0  0  0  0  0  0  0  0  0  0  0
  138.3720   72.5520  221.8700 N   0  0  0  0  0  0  0  0  0  0  0  0
  138.7180   71.1850  221.8950 C   0  0  0  0  0  0  0  0  0  0  0  0
  138.7020   70.5300  220.8070 O   0  0  0  0  0  0  0  0  0  0  0  0
  139.0970   70.4900  223.1220 C   0  0  0  0  0  0  0  0  0  0  0  0
  138.8230   69.1610  223.2900 C   0  0  0  0  0  0  0  0  0  0  0  0
  139.1460   68.4340  224.4150 C   0  0  0  0  0  0  0  0  0  0  0  0
  139.7880   69.1000  225.4380 C   0  0  0  0  0  0  0  0  0  0  0  0
  140.1080   68.3790  226.5580 C   0  0  0  0  0  0  0  0  0  0  0  0
  140.7490   69.0110  227.5980 C   0  0  0  0  0  0  0  0  0  0  0  0
  141.1840   68.1270  229.0610 Cl  0  0  0  0  0  0  0  0  0  0  0  0
  141.0370   70.3450  227.4590 C   0  0  0  0  0  0  0  0  0  0  0  0
  140.7140   71.0810  226.3270 C   0  0  0  0  0  0  0  0  0  0  0  0
  140.0650   70.4410  225.2730 C   0  0  0  0  0  0  0  0  0  0  0  0
  139.7290   71.1210  224.1450 N   0  0  0  0  0  0  0  0  0  0  0  0
  139.5400   75.1200  221.6680 C   0  0  0  0  0  0  0  0  0  0  0  0
  140.1790   74.1710  222.3280 O   0  0  0  0  0  0  0  0  0  0  0  0
  140.4110   75.8140  220.7320 C   0  0  0  0  0  0  0  0  0  0  0  0
  141.1630   76.8760  221.2820 N   0  0  0  0  0  0  0  0  0  0  0  0
  140.4010   78.0090  221.7760 C   0  0  0  0  0  0  0  0  0  0  0  0
  139.1490   77.9380  221.6690 O   0  0  0  0  0  0  0  0  0  0  0  0
  141.0740   79.1660  222.3660 C   0  0  0  0  0  0  0  0  0  0  0  0
  141.8680   78.9430  223.4740 C   0  0  0  0  0  0  0  0  0  0  0  0
  142.5280   80.0100  224.0710 C   0  0  0  0  0  0  0  0  0  0  0  0
  142.4000   81.3090  223.5680 C   0  0  0  0  0  0  0  0  0  0  0  0
  141.6020   81.4990  222.4620 C   0  0  0  0  0  0  0  0  0  0  0  0
  141.4640   82.7920  221.9470 C   0  0  0  0  0  0  0  0  0  0  0  0
  140.6690   83.0260  220.8340 C   0  0  0  0  0  0  0  0  0  0  0  0
  140.0190   81.9570  220.2500 C   0  0  0  0  0  0  0  0  0  0  0  0
  140.1380   80.6630  220.7400 C   0  0  0  0  0  0  0  0  0  0  0  0
  140.9280   80.4480  221.8410 C   0  0  0  0  0  0  0  0  0  0  0  0
  137.9327   75.5590  224.0406 H   0  0  0  0  0  0  0  0  0  0  0  0
  137.8552   77.0299  223.0124 H   0  0  0  0  0  0  0  0  0  0  0  0
  136.4911   75.8612  223.0124 H   0  0  0  0  0  0  0  0  0  0  0  0
  136.3174   74.2610  221.6704 H   0  0  0  0  0  0  0  0  0  0  0  0
  136.8973   75.1367  220.2657 H   0  0  0  0  0  0  0  0  0  0  0  0
  137.3521   72.6573  220.0604 H   0  0  0  0  0  0  0  0  0  0  0  0
  138.8912   73.5727  220.1308 H   0  0  0  0  0  0  0  0  0  0  0  0
  138.4020   73.0550  222.8020 H   0  0  0  0  0  0  0  0  0  0  0  0
  138.3095   68.6363  222.4709 H   0  0  0  0  0  0  0  0  0  0  0  0
  138.9014   67.3645  224.4941 H   0  0  0  0  0  0  0  0  0  0  0  0
  139.8560   67.3103  226.6246 H   0  0  0  0  0  0  0  0  0  0  0  0
  141.5498   70.8575  228.2863 H   0  0  0  0  0  0  0  0  0  0  0  0
  140.9658   72.1499  226.2633 H   0  0  0  0  0  0  0  0  0  0  0  0
  141.1152   75.0794  220.3142 H   0  0  0  0  0  0  0  0  0  0  0  0
  139.7494   76.2673  219.9791 H   0  0  0  0  0  0  0  0  0  0  0  0
  142.1800   76.9860  221.3930 H   0  0  0  0  0  0  0  0  0  0  0  0
  141.9771   77.9270  223.8812 H   0  0  0  0  0  0  0  0  0  0  0  0
  143.1608   79.8305  224.9526 H   0  0  0  0  0  0  0  0  0  0  0  0
  142.9214   82.1537  224.0419 H   0  0  0  0  0  0  0  0  0  0  0  0
  141.9898   83.6300  222.4280 H   0  0  0  0  0  0  0  0  0  0  0  0
  140.5590   84.0415  220.4257 H   0  0  0  0  0  0  0  0  0  0  0  0
  139.3864   82.1361  219.3681 H   0  0  0  0  0  0  0  0  0  0  0  0
  139.6101   79.8282  220.2557 H   0  0  0  0  0  0  0  0  0  0  0  0
  1  2  1  0
  2  3  1  0
  3  4  1  0
  4  5  1  0
  5  6  1  0
  6  7  2  0
  6  8  1  0
  8  9  2  0
  9 10  1  0
 10 11  2  0
 11 12  1  0
 12 13  2  0
 13 14  1  0
 13 15  1  0
 15 16  2  0
 16 17  1  0
 17 18  2  0
  2 19  1  0
 19 20  2  0
 19 21  1  0
 21 22  1  0
 22 23  1  0
 23 24  2  0
 23 25  1  0
 25 26  2  0
 26 27  1  0
 27 28  2  0
 28 29  1  0
 29 30  2  0
 30 31  1  0
 31 32  2  0
 32 33  1  0
 33 34  2  0
 18  8  1  0
 34 25  1  0
 17 11  1  0
 34 29  1  0
  1 35  1  0
  1 36  1  0
  1 37  1  0
  3 38  1  0
  3 39  1  0
  4 40  1  0
  4 41  1  0
  5 42  1  0
  9 43  1  0
 10 44  1  0
 12 45  1  0
 15 46  1  0
 16 47  1  0
 21 48  1  0
 21 49  1  0
 22 50  1  0
 26 51  1  0
 27 52  1  0
 28 53  1  0
 30 54  1  0
 31 55  1  0
 32 56  1  0
 33 57  1  0
M  END
>  <smiles>  (22) 
CN(CCNC(=O)c1ccc2cc(Cl)ccc2n1)C(=O)CNC(=O)c1cccc2ccccc12

>  <score_type>  (22) 
oracle

>  <origin>  (22) 
autodockgpu

>  <m_score__min__energy>  (22) 
-9.7200000000000006

>  <m_primary>  (22) 
energy

>  <rmsd>  (22) 
10.472859331188

>  <m_score__min__rmsd>  (22) 
10.472859331188

>  <meeko>  (22) 
{"free_energy": -9.46, "intermolecular_energy": -11.84, "internal_energy": -1.94, "cluster_size": 13, "cluster_id": 2, "rank_in_cluster": 4}

>  <energy>  (22) 
-8.2

>  <cluster_rmsd>  (22) 
0.0

>  <cluster>  (22) 
5

$$$$

     RDKit          3D

 57 60  0  0  0  0  0  0  0  0999 V2000
  136.6950   69.1560  219.7290 C   0  0  0  0  0  0  0  0  0  0  0  0
  137.4660   69.5840  220.8570 N   0  0  0  0  0  0  0  0  0  0  0  0
  137.7750   68.4940  221.8350 C   0  0  0  0  0  0  0  0  0  0  0  0
  136.4260   68.1840  222.4580 C   0  0  0  0  0  0  0  0  0  0  0  0
  135.9390   69.3600  223.1210 N   0  0  0  0  0  0  0  0  0  0  0  0
  135.0820   69.3630  224.2400 C   0  0  0  0  0  0  0  0  0  0  0  0
  134.6970   68.2520  224.7190 O   0  0  0  0  0  0  0  0  0  0  0  0
  134.6190   70.5940  224.8740 C   0  0  0  0  0  0  0  0  0  0  0  0
  133.6830   70.5620  225.8720 C   0  0  0  0  0  0  0  0  0  0  0  0
  133.1950   71.6760  226.5190 C   0  0  0  0  0  0  0  0  0  0  0  0
  133.6860   72.9030  226.1280 C   0  0  0  0  0  0  0  0  0  0  0  0
  133.2000   74.0120  226.7700 C   0  0  0  0  0  0  0  0  0  0  0  0
  133.6680   75.2530  226.4050 C   0  0  0  0  0  0  0  0  0  0  0  0
  133.0750   76.7110  227.2010 Cl  0  0  0  0  0  0  0  0  0  0  0  0
  134.6060   75.3180  225.4070 C   0  0  0  0  0  0  0  0  0  0  0  0
  135.1020   74.1980  224.7530 C   0  0  0  0  0  0  0  0  0  0  0  0
  134.6280   72.9410  225.1220 C   0  0  0  0  0  0  0  0  0  0  0  0
  135.0850   71.8160  224.5080 N   0  0  0  0  0  0  0  0  0  0  0  0
  137.9630   70.8400  221.1740 C   0  0  0  0  0  0  0  0  0  0  0  0
  137.1250   71.8330  220.9340 O   0  0  0  0  0  0  0  0  0  0  0  0
  139.2260   71.3140  221.7200 C   0  0  0  0  0  0  0  0  0  0  0  0
  139.7530   70.5410  222.7790 N   0  0  0  0  0  0  0  0  0  0  0  0
  138.9410   70.4630  223.9800 C   0  0  0  0  0  0  0  0  0  0  0  0
  137.8480   71.0870  223.9630 O   0  0  0  0  0  0  0  0  0  0  0  0
  139.3860   69.6910  225.1390 C   0  0  0  0  0  0  0  0  0  0  0  0
  139.1200   68.3360  225.1410 C   0  0  0  0  0  0  0  0  0  0  0  0
  139.5230   67.5600  226.2210 C   0  0  0  0  0  0  0  0  0  0  0  0
  140.1950   68.1290  227.3080 C   0  0  0  0  0  0  0  0  0  0  0  0
  140.4460   69.4830  227.2760 C   0  0  0  0  0  0  0  0  0  0  0  0
  141.1170   70.0680  228.3550 C   0  0  0  0  0  0  0  0  0  0  0  0
  141.3890   71.4280  228.3610 C   0  0  0  0  0  0  0  0  0  0  0  0
  140.9840   72.1880  227.2820 C   0  0  0  0  0  0  0  0  0  0  0  0
  140.3160   71.6340  226.1980 C   0  0  0  0  0  0  0  0  0  0  0  0
  140.0540   70.2870  226.2060 C   0  0  0  0  0  0  0  0  0  0  0  0
  135.7832   68.6498  220.0789 H   0  0  0  0  0  0  0  0  0  0  0  0
  136.4188   70.0299  219.1208 H   0  0  0  0  0  0  0  0  0  0  0  0
  137.2907   68.4594  219.1208 H   0  0  0  0  0  0  0  0  0  0  0  0
  138.1839   67.6105  221.3229 H   0  0  0  0  0  0  0  0  0  0  0  0
  138.5326   68.7863  222.5771 H   0  0  0  0  0  0  0  0  0  0  0  0
  135.7171   67.8825  221.6727 H   0  0  0  0  0  0  0  0  0  0  0  0
  136.5300   67.3634  223.1831 H   0  0  0  0  0  0  0  0  0  0  0  0
  136.2340   70.3110  222.7590 H   0  0  0  0  0  0  0  0  0  0  0  0
  133.2938   69.5798  226.1784 H   0  0  0  0  0  0  0  0  0  0  0  0
  132.4426   71.5896  227.3168 H   0  0  0  0  0  0  0  0  0  0  0  0
  132.4468   73.9113  227.5654 H   0  0  0  0  0  0  0  0  0  0  0  0
  134.9846   76.3070  225.1095 H   0  0  0  0  0  0  0  0  0  0  0  0
  135.8554   74.3014  223.9582 H   0  0  0  0  0  0  0  0  0  0  0  0
  139.9657   71.3247  220.9059 H   0  0  0  0  0  0  0  0  0  0  0  0
  139.0212   72.3091  222.1418 H   0  0  0  0  0  0  0  0  0  0  0  0
  140.6350   70.0140  222.8460 H   0  0  0  0  0  0  0  0  0  0  0  0
  138.5926   67.8740  224.2934 H   0  0  0  0  0  0  0  0  0  0  0  0
  139.3101   66.4808  226.2212 H   0  0  0  0  0  0  0  0  0  0  0  0
  140.5134   67.5137  228.1625 H   0  0  0  0  0  0  0  0  0  0  0  0
  141.4313   69.4447  229.2051 H   0  0  0  0  0  0  0  0  0  0  0  0
  141.9164   71.8914  229.2078 H   0  0  0  0  0  0  0  0  0  0  0  0
  141.1973   73.2671  227.2809 H   0  0  0  0  0  0  0  0  0  0  0  0
  140.0034   72.2618  225.3506 H   0  0  0  0  0  0  0  0  0  0  0  0
  1  2  1  0
  2  3  1  0
  3  4  1  0
  4  5  1  0
  5  6  1  0
  6  7  2  0
  6  8  1  0
  8  9  2  0
  9 10  1  0
 10 11  2  0
 11 12  1  0
 12 13  2  0
 13 14  1  0
 13 15  1  0
 15 16  2  0
 16 17  1  0
 17 18  2  0
  2 19  1  0
 19 20  2  0
 19 21  1  0
 21 22  1  0
 22 23  1  0
 23 24  2  0
 23 25  1  0
 25 26  2  0
 26 27  1  0
 27 28  2  0
 28 29  1  0
 29 30  2  0
 30 31  1  0
 31 32  2  0
 32 33  1  0
 33 34  2  0
 18  8  1  0
 34 25  1  0
 17 11  1  0
 34 29  1  0
  1 35  1  0
  1 36  1  0
  1 37  1  0
  3 38  1  0
  3 39  1  0
  4 40  1  0
  4 41  1  0
  5 42  1  0
  9 43  1  0
 10 44  1  0
 12 45  1  0
 15 46  1  0
 16 47  1  0
 21 48  1  0
 21 49  1  0
 22 50  1  0
 26 51  1  0
 27 52  1  0
 28 53  1  0
 30 54  1  0
 31 55  1  0
 32 56  1  0
 33 57  1  0
M  END
>  <smiles>  (23) 
CN(CCNC(=O)c1ccc2cc(Cl)ccc2n1)C(=O)CNC(=O)c1cccc2ccccc12

>  <score_type>  (23) 
oracle

>  <origin>  (23) 
autodockgpu

>  <m_score__min__energy>  (23) 
-9.7200000000000006

>  <m_primary>  (23) 
energy

>  <rmsd>  (23) 
7.732366381939558

>  <m_score__min__rmsd>  (23) 
7.732366381939558

>  <meeko>  (23) 
{"free_energy": -8.2, "intermolecular_energy": -10.58, "internal_energy": -3.36, "cluster_size": 2, "cluster_id": 5, "rank_in_cluster": 1}

>  <energy>  (23) 
-7.74

>  <cluster_rmsd>  (23) 
1.08

>  <cluster>  (23) 
5

$$$$

     RDKit          3D

 57 60  0  0  0  0  0  0  0  0999 V2000
  140.2010   71.9500  219.7570 C   0  0  0  0  0  0  0  0  0  0  0  0
  139.9520   73.2770  220.2360 N   0  0  0  0  0  0  0  0  0  0  0  0
  138.6520   73.8580  219.7730 C   0  0  0  0  0  0  0  0  0  0  0  0
  137.6250   73.1800  220.6630 C   0  0  0  0  0  0  0  0  0  0  0  0
  138.2780   72.7050  221.8480 N   0  0  0  0  0  0  0  0  0  0  0  0
  138.2810   71.3660  222.2900 C   0  0  0  0  0  0  0  0  0  0  0  0
  137.6660   70.4930  221.6020 O   0  0  0  0  0  0  0  0  0  0  0  0
  138.9650   70.9390  223.5070 C   0  0  0  0  0  0  0  0  0  0  0  0
  139.9330   71.7180  224.0790 C   0  0  0  0  0  0  0  0  0  0  0  0
  140.6240   71.3880  225.2250 C   0  0  0  0  0  0  0  0  0  0  0  0
  140.3130   70.1880  225.8290 C   0  0  0  0  0  0  0  0  0  0  0  0
  141.0010   69.8580  226.9670 C   0  0  0  0  0  0  0  0  0  0  0  0
  140.7170   68.6680  227.5960 C   0  0  0  0  0  0  0  0  0  0  0  0
  141.5730   68.1980  229.0660 Cl  0  0  0  0  0  0  0  0  0  0  0  0
  139.7510   67.8650  227.0460 C   0  0  0  0  0  0  0  0  0  0  0  0
  139.0520   68.1940  225.8930 C   0  0  0  0  0  0  0  0  0  0  0  0
  139.3390   69.3990  225.2550 C   0  0  0  0  0  0  0  0  0  0  0  0
  138.6790   69.7630  224.1230 N   0  0  0  0  0  0  0  0  0  0  0  0
  140.7230   74.0910  221.0530 C   0  0  0  0  0  0  0  0  0  0  0  0
  140.7130   73.7470  222.3280 O   0  0  0  0  0  0  0  0  0  0  0  0
  141.5520   75.2620  220.8110 C   0  0  0  0  0  0  0  0  0  0  0  0
  141.3550   76.3370  221.7070 N   0  0  0  0  0  0  0  0  0  0  0  0
  140.2740   77.2500  221.3810 C   0  0  0  0  0  0  0  0  0  0  0  0
  139.6170   76.9980  220.3370 O   0  0  0  0  0  0  0  0  0  0  0  0
  139.9780   78.3980  222.2370 C   0  0  0  0  0  0  0  0  0  0  0  0
  138.6620   78.5900  222.6100 C   0  0  0  0  0  0  0  0  0  0  0  0
  138.3290   79.6680  223.4220 C   0  0  0  0  0  0  0  0  0  0  0  0
  139.3070   80.5630  223.8690 C   0  0  0  0  0  0  0  0  0  0  0  0
  140.6100   80.3440  223.4800 C   0  0  0  0  0  0  0  0  0  0  0  0
  141.6000   81.2300  223.9180 C   0  0  0  0  0  0  0  0  0  0  0  0
  142.9250   81.0440  223.5480 C   0  0  0  0  0  0  0  0  0  0  0  0
  143.2420   79.9700  222.7420 C   0  0  0  0  0  0  0  0  0  0  0  0
  142.2790   79.0750  222.2930 C   0  0  0  0  0  0  0  0  0  0  0  0
  140.9740   79.2710  222.6660 C   0  0  0  0  0  0  0  0  0  0  0  0
  140.3287   71.2696  220.6118 H   0  0  0  0  0  0  0  0  0  0  0  0
  139.3500   71.6151  219.1457 H   0  0  0  0  0  0  0  0  0  0  0  0
  141.1155   71.9464  219.1457 H   0  0  0  0  0  0  0  0  0  0  0  0
  138.6361   74.9488  219.9143 H   0  0  0  0  0  0  0  0  0  0  0  0
  138.4662   73.6935  218.7014 H   0  0  0  0  0  0  0  0  0  0  0  0
  136.8409   73.9010  220.9374 H   0  0  0  0  0  0  0  0  0  0  0  0
  137.1665   72.3361  220.1267 H   0  0  0  0  0  0  0  0  0  0  0  0
  138.8050   73.3950  222.4540 H   0  0  0  0  0  0  0  0  0  0  0  0
  140.1767   72.6732  223.5909 H   0  0  0  0  0  0  0  0  0  0  0  0
  141.3930   72.0554  225.6413 H   0  0  0  0  0  0  0  0  0  0  0  0
  141.7686   70.5342  227.3714 H   0  0  0  0  0  0  0  0  0  0  0  0
  139.5184   66.9120  227.5438 H   0  0  0  0  0  0  0  0  0  0  0  0
  138.2854   67.5158  225.4902 H   0  0  0  0  0  0  0  0  0  0  0  0
  142.6054   74.9524  220.8781 H   0  0  0  0  0  0  0  0  0  0  0  0
  141.2654   75.6376  219.8176 H   0  0  0  0  0  0  0  0  0  0  0  0
  141.8580   76.5880  222.5690 H   0  0  0  0  0  0  0  0  0  0  0  0
  137.8823   77.8942  222.2666 H   0  0  0  0  0  0  0  0  0  0  0  0
  137.2804   79.8197  223.7176 H   0  0  0  0  0  0  0  0  0  0  0  0
  139.0433   81.4159  224.5117 H   0  0  0  0  0  0  0  0  0  0  0  0
  141.3266   82.0802  224.5602 H   0  0  0  0  0  0  0  0  0  0  0  0
  143.7062   81.7386  223.8904 H   0  0  0  0  0  0  0  0  0  0  0  0
  144.2903   79.8176  222.4456 H   0  0  0  0  0  0  0  0  0  0  0  0
  142.5577   78.2262  221.6512 H   0  0  0  0  0  0  0  0  0  0  0  0
  1  2  1  0
  2  3  1  0
  3  4  1  0
  4  5  1  0
  5  6  1  0
  6  7  2  0
  6  8  1  0
  8  9  2  0
  9 10  1  0
 10 11  2  0
 11 12  1  0
 12 13  2  0
 13 14  1  0
 13 15  1  0
 15 16  2  0
 16 17  1  0
 17 18  2  0
  2 19  1  0
 19 20  2  0
 19 21  1  0
 21 22  1  0
 22 23  1  0
 23 24  2  0
 23 25  1  0
 25 26  2  0
 26 27  1  0
 27 28  2  0
 28 29  1  0
 29 30  2  0
 30 31  1  0
 31 32  2  0
 32 33  1  0
 33 34  2  0
 18  8  1  0
 34 25  1  0
 17 11  1  0
 34 29  1  0
  1 35  1  0
  1 36  1  0
  1 37  1  0
  3 38  1  0
  3 39  1  0
  4 40  1  0
  4 41  1  0
  5 42  1  0
  9 43  1  0
 10 44  1  0
 12 45  1  0
 15 46  1  0
 16 47  1  0
 21 48  1  0
 21 49  1  0
 22 50  1  0
 26 51  1  0
 27 52  1  0
 28 53  1  0
 30 54  1  0
 31 55  1  0
 32 56  1  0
 33 57  1  0
M  END
>  <smiles>  (24) 
CN(CCNC(=O)c1ccc2cc(Cl)ccc2n1)C(=O)CNC(=O)c1cccc2ccccc12

>  <score_type>  (24) 
oracle

>  <origin>  (24) 
autodockgpu

>  <m_score__min__energy>  (24) 
-9.7200000000000006

>  <m_primary>  (24) 
energy

>  <rmsd>  (24) 
9.173435662736546

>  <m_score__min__rmsd>  (24) 
9.173435662736546

>  <meeko>  (24) 
{"free_energy": -9.45, "intermolecular_energy": -11.84, "internal_energy": -2.21, "cluster_size": 13, "cluster_id": 2, "rank_in_cluster": 5}

>  <energy>  (24) 
-8.09

>  <cluster_rmsd>  (24) 
0.0

>  <cluster>  (24) 
6

$$$$

     RDKit          3D

 57 60  0  0  0  0  0  0  0  0999 V2000
  136.1670   72.6720  222.7930 C   0  0  0  0  0  0  0  0  0  0  0  0
  136.4570   73.8260  221.9960 N   0  0  0  0  0  0  0  0  0  0  0  0
  136.8270   73.5130  220.5800 C   0  0  0  0  0  0  0  0  0  0  0  0
  138.3450   73.5210  220.6000 C   0  0  0  0  0  0  0  0  0  0  0  0
  138.7960   72.9760  221.8480 N   0  0  0  0  0  0  0  0  0  0  0  0
  139.2700   71.6600  222.0330 C   0  0  0  0  0  0  0  0  0  0  0  0
  139.3120   70.8790  221.0320 O   0  0  0  0  0  0  0  0  0  0  0  0
  139.7170   71.1590  223.3290 C   0  0  0  0  0  0  0  0  0  0  0  0
  140.5340   71.9100  224.1290 C   0  0  0  0  0  0  0  0  0  0  0  0
  140.9990   71.5100  225.3630 C   0  0  0  0  0  0  0  0  0  0  0  0
  140.6120   70.2650  225.8130 C   0  0  0  0  0  0  0  0  0  0  0  0
  141.0750   69.8660  227.0390 C   0  0  0  0  0  0  0  0  0  0  0  0
  140.7090   68.6300  227.5210 C   0  0  0  0  0  0  0  0  0  0  0  0
  141.2780   68.0700  229.0940 Cl  0  0  0  0  0  0  0  0  0  0  0  0
  139.8910   67.8540  226.7410 C   0  0  0  0  0  0  0  0  0  0  0  0
  139.4190   68.2530  225.4980 C   0  0  0  0  0  0  0  0  0  0  0  0
  139.7900   69.5040  225.0100 C   0  0  0  0  0  0  0  0  0  0  0  0
  139.3520   69.9370  223.7980 N   0  0  0  0  0  0  0  0  0  0  0  0
  136.4460   75.1720  222.3350 C   0  0  0  0  0  0  0  0  0  0  0  0
  135.4730   75.8650  221.7740 O   0  0  0  0  0  0  0  0  0  0  0  0
  137.2860   76.0010  223.1860 C   0  0  0  0  0  0  0  0  0  0  0  0
  138.0260   77.0000  222.5140 N   0  0  0  0  0  0  0  0  0  0  0  0
  139.3740   76.6370  222.1140 C   0  0  0  0  0  0  0  0  0  0  0  0
  139.7530   75.4710  222.4010 O   0  0  0  0  0  0  0  0  0  0  0  0
  140.2310   77.5900  221.4120 C   0  0  0  0  0  0  0  0  0  0  0  0
  140.2530   77.5290  220.0320 C   0  0  0  0  0  0  0  0  0  0  0  0
  141.0530   78.4150  219.3190 C   0  0  0  0  0  0  0  0  0  0  0  0
  141.8370   79.3670  219.9760 C   0  0  0  0  0  0  0  0  0  0  0  0
  141.7930   79.4040  221.3520 C   0  0  0  0  0  0  0  0  0  0  0  0
  142.5720   80.3510  222.0250 C   0  0  0  0  0  0  0  0  0  0  0  0
  142.5560   80.4200  223.4110 C   0  0  0  0  0  0  0  0  0  0  0  0
  141.7570   79.5350  224.1070 C   0  0  0  0  0  0  0  0  0  0  0  0
  140.9740   78.5850  223.4650 C   0  0  0  0  0  0  0  0  0  0  0  0
  141.0010   78.5290  222.0950 C   0  0  0  0  0  0  0  0  0  0  0  0
  136.2334   72.9363  223.8587 H   0  0  0  0  0  0  0  0  0  0  0  0
  135.1514   72.3156  222.5662 H   0  0  0  0  0  0  0  0  0  0  0  0
  136.8935   71.8778  222.5662 H   0  0  0  0  0  0  0  0  0  0  0  0
  136.4429   72.5262  220.2823 H   0  0  0  0  0  0  0  0  0  0  0  0
  136.4044   74.2280  219.8588 H   0  0  0  0  0  0  0  0  0  0  0  0
  138.7285   72.9095  219.7699 H   0  0  0  0  0  0  0  0  0  0  0  0
  138.7138   74.5513  220.4882 H   0  0  0  0  0  0  0  0  0  0  0  0
  138.7820   73.5890  222.7110 H   0  0  0  0  0  0  0  0  0  0  0  0
  140.8407   72.9007  223.7622 H   0  0  0  0  0  0  0  0  0  0  0  0
  141.6528   72.1579  225.9652 H   0  0  0  0  0  0  0  0  0  0  0  0
  141.7297   70.5238  227.6295 H   0  0  0  0  0  0  0  0  0  0  0  0
  139.5936   66.8649  227.1194 H   0  0  0  0  0  0  0  0  0  0  0  0
  138.7642   67.5937  224.9093 H   0  0  0  0  0  0  0  0  0  0  0  0
  136.6381   76.4965  223.9241 H   0  0  0  0  0  0  0  0  0  0  0  0
  138.0271   75.3234  223.6351 H   0  0  0  0  0  0  0  0  0  0  0  0
  137.7670   77.9620  222.2550 H   0  0  0  0  0  0  0  0  0  0  0  0
  139.6418   76.7845  219.5008 H   0  0  0  0  0  0  0  0  0  0  0  0
  141.0690   78.3657  218.2202 H   0  0  0  0  0  0  0  0  0  0  0  0
  142.4707   80.0663  219.4108 H   0  0  0  0  0  0  0  0  0  0  0  0
  143.2022   81.0464  221.4512 H   0  0  0  0  0  0  0  0  0  0  0  0
  143.1668   81.1638  223.9436 H   0  0  0  0  0  0  0  0  0  0  0  0
  141.7402   79.5841  225.2058 H   0  0  0  0  0  0  0  0  0  0  0  0
  140.3452   77.8918  224.0431 H   0  0  0  0  0  0  0  0  0  0  0  0
  1  2  1  0
  2  3  1  0
  3  4  1  0
  4  5  1  0
  5  6  1  0
  6  7  2  0
  6  8  1  0
  8  9  2  0
  9 10  1  0
 10 11  2  0
 11 12  1  0
 12 13  2  0
 13 14  1  0
 13 15  1  0
 15 16  2  0
 16 17  1  0
 17 18  2  0
  2 19  1  0
 19 20  2  0
 19 21  1  0
 21 22  1  0
 22 23  1  0
 23 24  2  0
 23 25  1  0
 25 26  2  0
 26 27  1  0
 27 28  2  0
 28 29  1  0
 29 30  2  0
 30 31  1  0
 31 32  2  0
 32 33  1  0
 33 34  2  0
 18  8  1  0
 34 25  1  0
 17 11  1  0
 34 29  1  0
  1 35  1  0
  1 36  1  0
  1 37  1  0
  3 38  1  0
  3 39  1  0
  4 40  1  0
  4 41  1  0
  5 42  1  0
  9 43  1  0
 10 44  1  0
 12 45  1  0
 15 46  1  0
 16 47  1  0
 21 48  1  0
 21 49  1  0
 22 50  1  0
 26 51  1  0
 27 52  1  0
 28 53  1  0
 30 54  1  0
 31 55  1  0
 32 56  1  0
 33 57  1  0
M  END
>  <smiles>  (25) 
CN(CCNC(=O)c1ccc2cc(Cl)ccc2n1)C(=O)CNC(=O)c1cccc2ccccc12

>  <score_type>  (25) 
oracle

>  <origin>  (25) 
autodockgpu

>  <m_score__min__energy>  (25) 
-9.7200000000000006

>  <m_primary>  (25) 
energy

>  <rmsd>  (25) 
9.161337438345404

>  <m_score__min__rmsd>  (25) 
9.161337438345404

>  <meeko>  (25) 
{"free_energy": -8.62, "intermolecular_energy": -11.01, "internal_energy": -2.38, "cluster_size": 13, "cluster_id": 2, "rank_in_cluster": 9}

>  <energy>  (25) 
-7.67

>  <cluster_rmsd>  (25) 
0.0

>  <cluster>  (25) 
7

$$$$

     RDKit          3D

 57 60  0  0  0  0  0  0  0  0999 V2000
  143.8190   73.1120  219.0930 C   0  0  0  0  0  0  0  0  0  0  0  0
  143.3920   74.4780  219.0630 N   0  0  0  0  0  0  0  0  0  0  0  0
  143.6680   75.1750  217.7680 C   0  0  0  0  0  0  0  0  0  0  0  0
  142.2870   75.5780  217.2820 C   0  0  0  0  0  0  0  0  0  0  0  0
  141.9150   76.8120  217.9110 N   0  0  0  0  0  0  0  0  0  0  0  0
  142.1760   78.0970  217.3930 C   0  0  0  0  0  0  0  0  0  0  0  0
  142.7860   78.1970  216.2840 O   0  0  0  0  0  0  0  0  0  0  0  0
  141.7710   79.3200  218.0800 C   0  0  0  0  0  0  0  0  0  0  0  0
  142.5250   80.4590  217.9900 C   0  0  0  0  0  0  0  0  0  0  0  0
  142.2130   81.6510  218.6060 C   0  0  0  0  0  0  0  0  0  0  0  0
  141.0620   81.6900  219.3650 C   0  0  0  0  0  0  0  0  0  0  0  0
  140.7520   82.8750  219.9800 C   0  0  0  0  0  0  0  0  0  0  0  0
  139.6120   82.9510  220.7450 C   0  0  0  0  0  0  0  0  0  0  0  0
  139.1670   84.4530  221.5560 Cl  0  0  0  0  0  0  0  0  0  0  0  0
  138.8360   81.8250  220.8550 C   0  0  0  0  0  0  0  0  0  0  0  0
  139.1450   80.6230  220.2350 C   0  0  0  0  0  0  0  0  0  0  0  0
  140.3010   80.5450  219.4600 C   0  0  0  0  0  0  0  0  0  0  0  0
  140.6440   79.3880  218.8340 N   0  0  0  0  0  0  0  0  0  0  0  0
  142.7700   75.2410  220.0410 C   0  0  0  0  0  0  0  0  0  0  0  0
  143.1840   76.4940  220.0980 O   0  0  0  0  0  0  0  0  0  0  0  0
  141.7450   74.9600  221.0360 C   0  0  0  0  0  0  0  0  0  0  0  0
  141.4350   76.0330  221.9020 N   0  0  0  0  0  0  0  0  0  0  0  0
  140.3880   76.9340  221.4540 C   0  0  0  0  0  0  0  0  0  0  0  0
  139.8570   76.6740  220.3430 O   0  0  0  0  0  0  0  0  0  0  0  0
  139.9840   78.0790  222.2690 C   0  0  0  0  0  0  0  0  0  0  0  0
  138.6540   78.1640  222.6310 C   0  0  0  0  0  0  0  0  0  0  0  0
  138.2210   79.2340  223.4050 C   0  0  0  0  0  0  0  0  0  0  0  0
  139.1110   80.2280  223.8230 C   0  0  0  0  0  0  0  0  0  0  0  0
  140.4310   80.1150  223.4470 C   0  0  0  0  0  0  0  0  0  0  0  0
  141.3340   81.1010  223.8570 C   0  0  0  0  0  0  0  0  0  0  0  0
  142.6730   81.0230  223.4990 C   0  0  0  0  0  0  0  0  0  0  0  0
  143.0900   79.9550  222.7310 C   0  0  0  0  0  0  0  0  0  0  0  0
  142.2150   78.9620  222.3090 C   0  0  0  0  0  0  0  0  0  0  0  0
  140.8950   79.0530  222.6720 C   0  0  0  0  0  0  0  0  0  0  0  0
  143.9219   72.7829  220.1375 H   0  0  0  0  0  0  0  0  0  0  0  0
  143.0744   72.4838  218.5823 H   0  0  0  0  0  0  0  0  0  0  0  0
  144.7889   73.0197  218.5823 H   0  0  0  0  0  0  0  0  0  0  0  0
  144.3033   76.0592  217.9248 H   0  0  0  0  0  0  0  0  0  0  0  0
  144.2086   74.5433  217.0478 H   0  0  0  0  0  0  0  0  0  0  0  0
  142.3039   75.7105  216.1901 H   0  0  0  0  0  0  0  0  0  0  0  0
  141.5585   74.7947  217.5381 H   0  0  0  0  0  0  0  0  0  0  0  0
  141.4030   76.7800  218.8380 H   0  0  0  0  0  0  0  0  0  0  0  0
  143.4425   80.4197  217.3845 H   0  0  0  0  0  0  0  0  0  0  0  0
  142.8563   82.5366  218.4969 H   0  0  0  0  0  0  0  0  0  0  0  0
  141.4054   83.7521  219.8633 H   0  0  0  0  0  0  0  0  0  0  0  0
  137.9226   81.8779  221.4657 H   0  0  0  0  0  0  0  0  0  0  0  0
  138.4897   79.7474  220.3528 H   0  0  0  0  0  0  0  0  0  0  0  0
  140.8248   74.6748  220.5050 H   0  0  0  0  0  0  0  0  0  0  0  0
  142.1507   74.1610  221.6740 H   0  0  0  0  0  0  0  0  0  0  0  0
  141.8350   76.2910  222.8140 H   0  0  0  0  0  0  0  0  0  0  0  0
  137.9420   77.3899  222.3088 H   0  0  0  0  0  0  0  0  0  0  0  0
  137.1615   79.2999  223.6933 H   0  0  0  0  0  0  0  0  0  0  0  0
  138.7670   81.0754  224.4342 H   0  0  0  0  0  0  0  0  0  0  0  0
  140.9806   81.9448  224.4678 H   0  0  0  0  0  0  0  0  0  0  0  0
  143.3864   81.7960  223.8206 H   0  0  0  0  0  0  0  0  0  0  0  0
  144.1497   79.8878  222.4436 H   0  0  0  0  0  0  0  0  0  0  0  0
  142.5727   78.1209  221.6970 H   0  0  0  0  0  0  0  0  0  0  0  0
  1  2  1  0
  2  3  1  0
  3  4  1  0
  4  5  1  0
  5  6  1  0
  6  7  2  0
  6  8  1  0
  8  9  2  0
  9 10  1  0
 10 11  2  0
 11 12  1  0
 12 13  2  0
 13 14  1  0
 13 15  1  0
 15 16  2  0
 16 17  1  0
 17 18  2  0
  2 19  1  0
 19 20  2  0
 19 21  1  0
 21 22  1  0
 22 23  1  0
 23 24  2  0
 23 25  1  0
 25 26  2  0
 26 27  1  0
 27 28  2  0
 28 29  1  0
 29 30  2  0
 30 31  1  0
 31 32  2  0
 32 33  1  0
 33 34  2  0
 18  8  1  0
 34 25  1  0
 17 11  1  0
 34 29  1  0
  1 35  1  0
  1 36  1  0
  1 37  1  0
  3 38  1  0
  3 39  1  0
  4 40  1  0
  4 41  1  0
  5 42  1  0
  9 43  1  0
 10 44  1  0
 12 45  1  0
 15 46  1  0
 16 47  1  0
 21 48  1  0
 21 49  1  0
 22 50  1  0
 26 51  1  0
 27 52  1  0
 28 53  1  0
 30 54  1  0
 31 55  1  0
 32 56  1  0
 33 57  1  0
M  END
>  <smiles>  (26) 
CN(CCNC(=O)c1ccc2cc(Cl)ccc2n1)C(=O)CNC(=O)c1cccc2ccccc12

>  <score_type>  (26) 
oracle

>  <origin>  (26) 
autodockgpu

>  <m_score__min__energy>  (26) 
-9.7200000000000006

>  <m_primary>  (26) 
energy

>  <rmsd>  (26) 
6.9470266671908725

>  <m_score__min__rmsd>  (26) 
6.9470266671908725

>  <meeko>  (26) 
{"free_energy": -6.02, "intermolecular_energy": -8.4, "internal_energy": -5.05, "cluster_size": 13, "cluster_id": 7, "rank_in_cluster": 7}

>  <energy>  (26) 
-7.08

>  <cluster_rmsd>  (26) 
1.95

>  <cluster>  (26) 
7

$$$$

     RDKit          3D

 57 60  0  0  0  0  0  0  0  0999 V2000
  142.4860   72.6290  220.1050 C   0  0  0  0  0  0  0  0  0  0  0  0
  142.1220   73.8710  219.4930 N   0  0  0  0  0  0  0  0  0  0  0  0
  140.7810   73.8530  218.8270 C   0  0  0  0  0  0  0  0  0  0  0  0
  139.8070   73.9020  219.9910 C   0  0  0  0  0  0  0  0  0  0  0  0
  139.5030   75.2720  220.2850 N   0  0  0  0  0  0  0  0  0  0  0  0
  139.3740   75.8130  221.5810 C   0  0  0  0  0  0  0  0  0  0  0  0
  139.5370   75.0490  222.5820 O   0  0  0  0  0  0  0  0  0  0  0  0
  139.0630   77.2200  221.8200 C   0  0  0  0  0  0  0  0  0  0  0  0
  139.0420   77.7290  223.0900 C   0  0  0  0  0  0  0  0  0  0  0  0
  138.7580   79.0410  223.3990 C   0  0  0  0  0  0  0  0  0  0  0  0
  138.4740   79.8920  222.3520 C   0  0  0  0  0  0  0  0  0  0  0  0
  138.1900   81.1970  222.6580 C   0  0  0  0  0  0  0  0  0  0  0  0
  137.9020   82.0740  221.6390 C   0  0  0  0  0  0  0  0  0  0  0  0
  137.5310   83.7650  221.9810 Cl  0  0  0  0  0  0  0  0  0  0  0  0
  137.9150   81.5930  220.3550 C   0  0  0  0  0  0  0  0  0  0  0  0
  138.2020   80.2730  220.0380 C   0  0  0  0  0  0  0  0  0  0  0  0
  138.4930   79.3830  221.0710 C   0  0  0  0  0  0  0  0  0  0  0  0
  138.7790   78.0800  220.8080 N   0  0  0  0  0  0  0  0  0  0  0  0
  142.8150   75.0720  219.4260 C   0  0  0  0  0  0  0  0  0  0  0  0
  143.6130   75.2960  220.4540 O   0  0  0  0  0  0  0  0  0  0  0  0
  142.8560   76.1570  218.4580 C   0  0  0  0  0  0  0  0  0  0  0  0
  142.9320   77.4560  219.0110 N   0  0  0  0  0  0  0  0  0  0  0  0
  141.6670   78.1370  219.2190 C   0  0  0  0  0  0  0  0  0  0  0  0
  140.6270   77.5100  218.8910 O   0  0  0  0  0  0  0  0  0  0  0  0
  141.6250   79.4850  219.7850 C   0  0  0  0  0  0  0  0  0  0  0  0
  141.4210   80.5350  218.9120 C   0  0  0  0  0  0  0  0  0  0  0  0
  141.3730   81.8350  219.4010 C   0  0  0  0  0  0  0  0  0  0  0  0
  141.5300   82.0980  220.7660 C   0  0  0  0  0  0  0  0  0  0  0  0
  141.7310   81.0300  221.6120 C   0  0  0  0  0  0  0  0  0  0  0  0
  141.8900   81.2750  222.9790 C   0  0  0  0  0  0  0  0  0  0  0  0
  142.0960   80.2260  223.8640 C   0  0  0  0  0  0  0  0  0  0  0  0
  142.1410   78.9400  223.3660 C   0  0  0  0  0  0  0  0  0  0  0  0
  141.9860   78.6670  222.0120 C   0  0  0  0  0  0  0  0  0  0  0  0
  141.7840   79.7150  221.1500 C   0  0  0  0  0  0  0  0  0  0  0  0
  142.4545   72.7363  221.1993 H   0  0  0  0  0  0  0  0  0  0  0  0
  141.7797   71.8456  219.7930 H   0  0  0  0  0  0  0  0  0  0  0  0
  143.5035   72.3508  219.7930 H   0  0  0  0  0  0  0  0  0  0  0  0
  140.6554   74.7278  218.1720 H   0  0  0  0  0  0  0  0  0  0  0  0
  140.6344   72.9740  218.1822 H   0  0  0  0  0  0  0  0  0  0  0  0
  138.8834   73.3683  219.7223 H   0  0  0  0  0  0  0  0  0  0  0  0
  140.2562   73.4224  220.8732 H   0  0  0  0  0  0  0  0  0  0  0  0
  139.3600   75.9490  219.4830 H   0  0  0  0  0  0  0  0  0  0  0  0
  139.2672   77.0439  223.9206 H   0  0  0  0  0  0  0  0  0  0  0  0
  138.7578   79.3958  224.4402 H   0  0  0  0  0  0  0  0  0  0  0  0
  138.1924   81.5381  223.7038 H   0  0  0  0  0  0  0  0  0  0  0  0
  137.6863   82.2890  219.5345 H   0  0  0  0  0  0  0  0  0  0  0  0
  138.2000   79.9350  218.9912 H   0  0  0  0  0  0  0  0  0  0  0  0
  143.7377   76.0080  217.8173 H   0  0  0  0  0  0  0  0  0  0  0  0
  141.9024   76.1138  217.9113 H   0  0  0  0  0  0  0  0  0  0  0  0
  143.7500   78.0120  219.2960 H   0  0  0  0  0  0  0  0  0  0  0  0
  141.2972   80.3437  217.8359 H   0  0  0  0  0  0  0  0  0  0  0  0
  141.2090   82.6700  218.7040 H   0  0  0  0  0  0  0  0  0  0  0  0
  141.4940   83.1274  221.1522 H   0  0  0  0  0  0  0  0  0  0  0  0
  141.8515   82.3076  223.3563 H   0  0  0  0  0  0  0  0  0  0  0  0
  142.2208   80.4159  224.9403 H   0  0  0  0  0  0  0  0  0  0  0  0
  142.3047   78.1045  224.0625 H   0  0  0  0  0  0  0  0  0  0  0  0
  142.0245   77.6327  221.6395 H   0  0  0  0  0  0  0  0  0  0  0  0
  1  2  1  0
  2  3  1  0
  3  4  1  0
  4  5  1  0
  5  6  1  0
  6  7  2  0
  6  8  1  0
  8  9  2  0
  9 10  1  0
 10 11  2  0
 11 12  1  0
 12 13  2  0
 13 14  1  0
 13 15  1  0
 15 16  2  0
 16 17  1  0
 17 18  2  0
  2 19  1  0
 19 20  2  0
 19 21  1  0
 21 22  1  0
 22 23  1  0
 23 24  2  0
 23 25  1  0
 25 26  2  0
 26 27  1  0
 27 28  2  0
 28 29  1  0
 29 30  2  0
 30 31  1  0
 31 32  2  0
 32 33  1  0
 33 34  2  0
 18  8  1  0
 34 25  1  0
 17 11  1  0
 34 29  1  0
  1 35  1  0
  1 36  1  0
  1 37  1  0
  3 38  1  0
  3 39  1  0
  4 40  1  0
  4 41  1  0
  5 42  1  0
  9 43  1  0
 10 44  1  0
 12 45  1  0
 15 46  1  0
 16 47  1  0
 21 48  1  0
 21 49  1  0
 22 50  1  0
 26 51  1  0
 27 52  1  0
 28 53  1  0
 30 54  1  0
 31 55  1  0
 32 56  1  0
 33 57  1  0
M  END
>  <smiles>  (27) 
CN(CCNC(=O)c1ccc2cc(Cl)ccc2n1)C(=O)CNC(=O)c1cccc2ccccc12

>  <score_type>  (27) 
oracle

>  <origin>  (27) 
autodockgpu

>  <m_score__min__energy>  (27) 
-9.7200000000000006

>  <m_primary>  (27) 
energy

>  <rmsd>  (27) 
7.943407945435606

>  <m_score__min__rmsd>  (27) 
7.943407945435606

>  <meeko>  (27) 
{"free_energy": -5.74, "intermolecular_energy": -8.13, "internal_energy": -5.18, "cluster_size": 13, "cluster_id": 7, "rank_in_cluster": 11}

>  <energy>  (27) 
-6.61

>  <cluster_rmsd>  (27) 
1.43

>  <cluster>  (27) 
7

$$$$

     RDKit          3D

 57 60  0  0  0  0  0  0  0  0999 V2000
  143.3550   76.6200  219.9960 C   0  0  0  0  0  0  0  0  0  0  0  0
  142.7410   76.1070  218.8080 N   0  0  0  0  0  0  0  0  0  0  0  0
  142.6670   74.6130  218.7560 C   0  0  0  0  0  0  0  0  0  0  0  0
  141.4510   74.2890  219.6050 C   0  0  0  0  0  0  0  0  0  0  0  0
  140.7810   75.5110  219.9430 N   0  0  0  0  0  0  0  0  0  0  0  0
  140.1430   75.7720  221.1730 C   0  0  0  0  0  0  0  0  0  0  0  0
  140.1500   74.8720  222.0690 O   0  0  0  0  0  0  0  0  0  0  0  0
  139.4750   77.0380  221.4610 C   0  0  0  0  0  0  0  0  0  0  0  0
  138.6020   77.5910  220.5660 C   0  0  0  0  0  0  0  0  0  0  0  0
  137.9330   78.7800  220.7620 C   0  0  0  0  0  0  0  0  0  0  0  0
  138.1670   79.4520  221.9430 C   0  0  0  0  0  0  0  0  0  0  0  0
  137.5040   80.6350  222.1380 C   0  0  0  0  0  0  0  0  0  0  0  0
  137.7130   81.3330  223.3050 C   0  0  0  0  0  0  0  0  0  0  0  0
  136.8820   82.8600  223.6050 Cl  0  0  0  0  0  0  0  0  0  0  0  0
  138.5850   80.8040  224.2220 C   0  0  0  0  0  0  0  0  0  0  0  0
  139.2600   79.6060  224.0290 C   0  0  0  0  0  0  0  0  0  0  0  0
  139.0480   78.8990  222.8480 C   0  0  0  0  0  0  0  0  0  0  0  0
  139.6880   77.7220  222.6160 N   0  0  0  0  0  0  0  0  0  0  0  0
  142.2110   76.7780  217.7150 C   0  0  0  0  0  0  0  0  0  0  0  0
  141.2110   76.1500  217.1250 O   0  0  0  0  0  0  0  0  0  0  0  0
  142.5200   78.0430  217.0650 C   0  0  0  0  0  0  0  0  0  0  0  0
  142.5780   79.1640  217.9220 N   0  0  0  0  0  0  0  0  0  0  0  0
  141.4610   79.3290  218.8350 C   0  0  0  0  0  0  0  0  0  0  0  0
  140.5510   78.4610  218.7770 O   0  0  0  0  0  0  0  0  0  0  0  0
  141.4140   80.4540  219.7680 C   0  0  0  0  0  0  0  0  0  0  0  0
  140.9840   81.6710  219.2760 C   0  0  0  0  0  0  0  0  0  0  0  0
  140.9230   82.7710  220.1230 C   0  0  0  0  0  0  0  0  0  0  0  0
  141.2900   82.6660  221.4690 C   0  0  0  0  0  0  0  0  0  0  0  0
  141.7140   81.4390  221.9300 C   0  0  0  0  0  0  0  0  0  0  0  0
  142.0850   81.3170  223.2730 C   0  0  0  0  0  0  0  0  0  0  0  0
  142.5180   80.0980  223.7760 C   0  0  0  0  0  0  0  0  0  0  0  0
  142.5740   79.0140  222.9240 C   0  0  0  0  0  0  0  0  0  0  0  0
  142.2110   79.1060  221.5860 C   0  0  0  0  0  0  0  0  0  0  0  0
  141.7860   80.3180  221.1030 C   0  0  0  0  0  0  0  0  0  0  0  0
  142.8521   76.1998  220.8795 H   0  0  0  0  0  0  0  0  0  0  0  0
  144.4181   76.3379  220.0105 H   0  0  0  0  0  0  0  0  0  0  0  0
  143.2664   77.7163  220.0105 H   0  0  0  0  0  0  0  0  0  0  0  0
  142.5300   74.2618  217.7226 H   0  0  0  0  0  0  0  0  0  0  0  0
  143.5844   74.1256  219.1177 H   0  0  0  0  0  0  0  0  0  0  0  0
  140.7684   73.6381  219.0390 H   0  0  0  0  0  0  0  0  0  0  0  0
  141.7650   73.7702  220.5227 H   0  0  0  0  0  0  0  0  0  0  0  0
  140.7490   76.2920  219.2280 H   0  0  0  0  0  0  0  0  0  0  0  0
  138.4212   77.0502  219.6253 H   0  0  0  0  0  0  0  0  0  0  0  0
  137.2397   79.1772  220.0060 H   0  0  0  0  0  0  0  0  0  0  0  0
  136.8146   81.0211  221.3727 H   0  0  0  0  0  0  0  0  0  0  0  0
  138.7583   81.3565  225.1573 H   0  0  0  0  0  0  0  0  0  0  0  0
  139.9498   79.2223  224.7952 H   0  0  0  0  0  0  0  0  0  0  0  0
  143.4979   77.9415  216.5717 H   0  0  0  0  0  0  0  0  0  0  0  0
  141.6920   78.2364  216.3671 H   0  0  0  0  0  0  0  0  0  0  0  0
  143.2920   79.9000  218.0110 H   0  0  0  0  0  0  0  0  0  0  0  0
  140.6916   81.7688  218.2201 H   0  0  0  0  0  0  0  0  0  0  0  0
  140.5809   83.7394  219.7291 H   0  0  0  0  0  0  0  0  0  0  0  0
  141.2414   83.5370  222.1390 H   0  0  0  0  0  0  0  0  0  0  0  0
  142.0332   82.1936  223.9355 H   0  0  0  0  0  0  0  0  0  0  0  0
  142.8104   79.9981  224.8317 H   0  0  0  0  0  0  0  0  0  0  0  0
  142.9172   78.0456  223.3169 H   0  0  0  0  0  0  0  0  0  0  0  0
  142.2632   78.2261  220.9280 H   0  0  0  0  0  0  0  0  0  0  0  0
  1  2  1  0
  2  3  1  0
  3  4  1  0
  4  5  1  0
  5  6  1  0
  6  7  2  0
  6  8  1  0
  8  9  2  0
  9 10  1  0
 10 11  2  0
 11 12  1  0
 12 13  2  0
 13 14  1  0
 13 15  1  0
 15 16  2  0
 16 17  1  0
 17 18  2  0
  2 19  1  0
 19 20  2  0
 19 21  1  0
 21 22  1  0
 22 23  1  0
 23 24  2  0
 23 25  1  0
 25 26  2  0
 26 27  1  0
 27 28  2  0
 28 29  1  0
 29 30  2  0
 30 31  1  0
 31 32  2  0
 32 33  1  0
 33 34  2  0
 18  8  1  0
 34 25  1  0
 17 11  1  0
 34 29  1  0
  1 35  1  0
  1 36  1  0
  1 37  1  0
  3 38  1  0
  3 39  1  0
  4 40  1  0
  4 41  1  0
  5 42  1  0
  9 43  1  0
 10 44  1  0
 12 45  1  0
 15 46  1  0
 16 47  1  0
 21 48  1  0
 21 49  1  0
 22 50  1  0
 26 51  1  0
 27 52  1  0
 28 53  1  0
 30 54  1  0
 31 55  1  0
 32 56  1  0
 33 57  1  0
M  END
>  <smiles>  (28) 
CN(CCNC(=O)c1ccc2cc(Cl)ccc2n1)C(=O)CNC(=O)c1cccc2ccccc12

>  <score_type>  (28) 
oracle

>  <origin>  (28) 
autodockgpu

>  <m_score__min__energy>  (28) 
-9.7200000000000006

>  <m_primary>  (28) 
energy

>  <rmsd>  (28) 
8.36500644033187

>  <m_score__min__rmsd>  (28) 
8.36500644033187

>  <meeko>  (28) 
{"free_energy": -6.05, "intermolecular_energy": -8.44, "internal_energy": -4.94, "cluster_size": 4, "cluster_id": 9, "rank_in_cluster": 4}

>  <energy>  (28) 
-6.51

>  <cluster_rmsd>  (28) 
1.43

>  <cluster>  (28) 
7

$$$$

     RDKit          3D

 57 60  0  0  0  0  0  0  0  0999 V2000
  137.2840   70.9970  220.4300 C   0  0  0  0  0  0  0  0  0  0  0  0
  137.7180   72.0530  221.2940 N   0  0  0  0  0  0  0  0  0  0  0  0
  136.6220   72.9730  221.7330 C   0  0  0  0  0  0  0  0  0  0  0  0
  136.6320   74.0650  220.6790 C   0  0  0  0  0  0  0  0  0  0  0  0
  137.4350   75.1570  221.1490 N   0  0  0  0  0  0  0  0  0  0  0  0
  136.9510   76.2610  221.8800 C   0  0  0  0  0  0  0  0  0  0  0  0
  135.7130   76.3160  222.1580 O   0  0  0  0  0  0  0  0  0  0  0  0
  137.8170   77.3460  222.3340 C   0  0  0  0  0  0  0  0  0  0  0  0
  137.2910   78.5380  222.7490 C   0  0  0  0  0  0  0  0  0  0  0  0
  138.0390   79.6090  223.1900 C   0  0  0  0  0  0  0  0  0  0  0  0
  139.4090   79.4600  223.2100 C   0  0  0  0  0  0  0  0  0  0  0  0
  140.1530   80.5240  223.6480 C   0  0  0  0  0  0  0  0  0  0  0  0
  141.5240   80.4110  223.6810 C   0  0  0  0  0  0  0  0  0  0  0  0
  142.5270   81.7520  224.2370 Cl  0  0  0  0  0  0  0  0  0  0  0  0
  142.0810   79.2270  223.2700 C   0  0  0  0  0  0  0  0  0  0  0  0
  141.3320   78.1460  222.8260 C   0  0  0  0  0  0  0  0  0  0  0  0
  139.9440   78.2600  222.7920 C   0  0  0  0  0  0  0  0  0  0  0  0
  139.1700   77.2270  222.3640 N   0  0  0  0  0  0  0  0  0  0  0  0
  138.9850   72.3470  221.7780 C   0  0  0  0  0  0  0  0  0  0  0  0
  139.1090   73.5660  222.2700 O   0  0  0  0  0  0  0  0  0  0  0  0
  140.2290   71.5960  221.8630 C   0  0  0  0  0  0  0  0  0  0  0  0
  140.5370   71.0830  223.1430 N   0  0  0  0  0  0  0  0  0  0  0  0
  139.6050   70.1090  223.6830 C   0  0  0  0  0  0  0  0  0  0  0  0
  138.6160   69.8150  222.9620 O   0  0  0  0  0  0  0  0  0  0  0  0
  139.8230   69.5110  224.9990 C   0  0  0  0  0  0  0  0  0  0  0  0
  139.5050   68.1760  225.1510 C   0  0  0  0  0  0  0  0  0  0  0  0
  139.6940   67.5610  226.3830 C   0  0  0  0  0  0  0  0  0  0  0  0
  140.2010   68.2750  227.4740 C   0  0  0  0  0  0  0  0  0  0  0  0
  140.5090   69.6040  227.2910 C   0  0  0  0  0  0  0  0  0  0  0  0
  141.0170   70.3320  228.3720 C   0  0  0  0  0  0  0  0  0  0  0  0
  141.3400   71.6740  228.2280 C   0  0  0  0  0  0  0  0  0  0  0  0
  141.1480   72.2720  226.9990 C   0  0  0  0  0  0  0  0  0  0  0  0
  140.6450   71.5740  225.9090 C   0  0  0  0  0  0  0  0  0  0  0  0
  140.3310   70.2480  226.0670 C   0  0  0  0  0  0  0  0  0  0  0  0
  136.9350   70.1477  221.0357 H   0  0  0  0  0  0  0  0  0  0  0  0
  136.4611   71.3574  219.7952 H   0  0  0  0  0  0  0  0  0  0  0  0
  138.1225   70.6746  219.7952 H   0  0  0  0  0  0  0  0  0  0  0  0
  135.6537   72.4513  221.7493 H   0  0  0  0  0  0  0  0  0  0  0  0
  136.7701   73.3599  222.7520 H   0  0  0  0  0  0  0  0  0  0  0  0
  137.0555   73.6712  219.7433 H   0  0  0  0  0  0  0  0  0  0  0  0
  135.6050   74.4113  220.4913 H   0  0  0  0  0  0  0  0  0  0  0  0
  138.4740   75.1550  220.9430 H   0  0  0  0  0  0  0  0  0  0  0  0
  136.1969   78.6501  222.7297 H   0  0  0  0  0  0  0  0  0  0  0  0
  137.5611   80.5456  223.5132 H   0  0  0  0  0  0  0  0  0  0  0  0
  139.6617   81.4546  223.9684 H   0  0  0  0  0  0  0  0  0  0  0  0
  143.1764   79.1291  223.2934 H   0  0  0  0  0  0  0  0  0  0  0  0
  141.8255   77.2162  222.5068 H   0  0  0  0  0  0  0  0  0  0  0  0
  140.1635   70.7492  221.1640 H   0  0  0  0  0  0  0  0  0  0  0  0
  141.0317   72.3073  221.6185 H   0  0  0  0  0  0  0  0  0  0  0  0
  141.3270   71.2870  223.7710 H   0  0  0  0  0  0  0  0  0  0  0  0
  139.1044   67.6026  224.3021 H   0  0  0  0  0  0  0  0  0  0  0  0
  139.4412   66.4971  226.5020 H   0  0  0  0  0  0  0  0  0  0  0  0
  140.3492   67.7886  228.4494 H   0  0  0  0  0  0  0  0  0  0  0  0
  141.1616   69.8370  229.3436 H   0  0  0  0  0  0  0  0  0  0  0  0
  141.7407   72.2491  229.0757 H   0  0  0  0  0  0  0  0  0  0  0  0
  141.4015   73.3356  226.8791 H   0  0  0  0  0  0  0  0  0  0  0  0
  140.5014   72.0737  224.9396 H   0  0  0  0  0  0  0  0  0  0  0  0
  1  2  1  0
  2  3  1  0
  3  4  1  0
  4  5  1  0
  5  6  1  0
  6  7  2  0
  6  8  1  0
  8  9  2  0
  9 10  1  0
 10 11  2  0
 11 12  1  0
 12 13  2  0
 13 14  1  0
 13 15  1  0
 15 16  2  0
 16 17  1  0
 17 18  2  0
  2 19  1  0
 19 20  2  0
 19 21  1  0
 21 22  1  0
 22 23  1  0
 23 24  2  0
 23 25  1  0
 25 26  2  0
 26 27  1  0
 27 28  2  0
 28 29  1  0
 29 30  2  0
 30 31  1  0
 31 32  2  0
 32 33  1  0
 33 34  2  0
 18  8  1  0
 34 25  1  0
 17 11  1  0
 34 29  1  0
  1 35  1  0
  1 36  1  0
  1 37  1  0
  3 38  1  0
  3 39  1  0
  4 40  1  0
  4 41  1  0
  5 42  1  0
  9 43  1  0
 10 44  1  0
 12 45  1  0
 15 46  1  0
 16 47  1  0
 21 48  1  0
 21 49  1  0
 22 50  1  0
 26 51  1  0
 27 52  1  0
 28 53  1  0
 30 54  1  0
 31 55  1  0
 32 56  1  0
 33 57  1  0
M  END
>  <smiles>  (29) 
CN(CCNC(=O)c1ccc2cc(Cl)ccc2n1)C(=O)CNC(=O)c1cccc2ccccc12

>  <score_type>  (29) 
oracle

>  <origin>  (29) 
autodockgpu

>  <m_score__min__energy>  (29) 
-9.7200000000000006

>  <m_primary>  (29) 
energy

>  <rmsd>  (29) 
3.9392873763251592

>  <m_score__min__rmsd>  (29) 
3.9392873763251592

>  <meeko>  (29) 
{"free_energy": -8.71, "intermolecular_energy": -11.1, "internal_energy": -2.06, "cluster_size": 2, "cluster_id": 4, "rank_in_cluster": 1}

>  <energy>  (29) 
-6.5

>  <cluster_rmsd>  (29) 
1.48

>  <cluster>  (29) 
7

$$$$

     RDKit          3D

 57 60  0  0  0  0  0  0  0  0999 V2000
  140.1250   71.4140  220.5390 C   0  0  0  0  0  0  0  0  0  0  0  0
  140.1020   72.5620  221.3950 N   0  0  0  0  0  0  0  0  0  0  0  0
  139.0960   72.4800  222.5000 C   0  0  0  0  0  0  0  0  0  0  0  0
  137.8480   73.0910  221.8880 C   0  0  0  0  0  0  0  0  0  0  0  0
  138.0840   74.4850  221.6470 N   0  0  0  0  0  0  0  0  0  0  0  0
  137.3800   75.5430  222.2580 C   0  0  0  0  0  0  0  0  0  0  0  0
  136.4630   75.2670  223.0920 O   0  0  0  0  0  0  0  0  0  0  0  0
  137.6650   76.9470  221.9720 C   0  0  0  0  0  0  0  0  0  0  0  0
  137.7320   77.4020  220.6840 C   0  0  0  0  0  0  0  0  0  0  0  0
  137.9960   78.7080  220.3320 C   0  0  0  0  0  0  0  0  0  0  0  0
  138.2050   79.6100  221.3530 C   0  0  0  0  0  0  0  0  0  0  0  0
  138.4680   80.9090  221.0030 C   0  0  0  0  0  0  0  0  0  0  0  0
  138.6820   81.8360  221.9960 C   0  0  0  0  0  0  0  0  0  0  0  0
  139.0240   83.5210  221.5990 Cl  0  0  0  0  0  0  0  0  0  0  0  0
  138.6220   81.4100  223.2980 C   0  0  0  0  0  0  0  0  0  0  0  0
  138.3560   80.0960  223.6580 C   0  0  0  0  0  0  0  0  0  0  0  0
  138.1390   79.1560  222.6530 C   0  0  0  0  0  0  0  0  0  0  0  0
  137.8760   77.8570  222.9580 N   0  0  0  0  0  0  0  0  0  0  0  0
  140.8640   73.7220  221.3540 C   0  0  0  0  0  0  0  0  0  0  0  0
  140.5590   74.6050  222.2870 O   0  0  0  0  0  0  0  0  0  0  0  0
  141.9410   74.1880  220.4940 C   0  0  0  0  0  0  0  0  0  0  0  0
  142.2550   75.5610  220.6110 N   0  0  0  0  0  0  0  0  0  0  0  0
  141.2300   76.4900  220.1700 C   0  0  0  0  0  0  0  0  0  0  0  0
  140.1640   75.9880  219.7290 O   0  0  0  0  0  0  0  0  0  0  0  0
  141.4450   77.9350  220.2450 C   0  0  0  0  0  0  0  0  0  0  0  0
  141.5400   78.6260  219.0530 C   0  0  0  0  0  0  0  0  0  0  0  0
  141.7440   80.0000  219.0700 C   0  0  0  0  0  0  0  0  0  0  0  0
  141.8570   80.6960  220.2780 C   0  0  0  0  0  0  0  0  0  0  0  0
  141.7580   79.9800  221.4500 C   0  0  0  0  0  0  0  0  0  0  0  0
  141.8690   80.6610  222.6660 C   0  0  0  0  0  0  0  0  0  0  0  0
  141.7750   79.9750  223.8690 C   0  0  0  0  0  0  0  0  0  0  0  0
  141.5710   78.6100  223.8370 C   0  0  0  0  0  0  0  0  0  0  0  0
  141.4570   77.9080  222.6440 C   0  0  0  0  0  0  0  0  0  0  0  0
  141.5530   78.6010  221.4630 C   0  0  0  0  0  0  0  0  0  0  0  0
  140.1433   70.5004  221.1513 H   0  0  0  0  0  0  0  0  0  0  0  0
  139.2267   71.4120  219.9041 H   0  0  0  0  0  0  0  0  0  0  0  0
  141.0226   71.4479  219.9041 H   0  0  0  0  0  0  0  0  0  0  0  0
  138.9188   71.4349  222.7938 H   0  0  0  0  0  0  0  0  0  0  0  0
  139.4214   72.9960  223.4153 H   0  0  0  0  0  0  0  0  0  0  0  0
  137.6170   72.5860  220.9385 H   0  0  0  0  0  0  0  0  0  0  0  0
  136.9980   72.9701  222.5756 H   0  0  0  0  0  0  0  0  0  0  0  0
  138.8400   74.7650  220.9600 H   0  0  0  0  0  0  0  0  0  0  0  0
  137.5638   76.6766  219.8744 H   0  0  0  0  0  0  0  0  0  0  0  0
  138.0383   79.0184  219.2775 H   0  0  0  0  0  0  0  0  0  0  0  0
  138.5073   81.2053  219.9444 H   0  0  0  0  0  0  0  0  0  0  0  0
  138.7932   82.1463  224.0971 H   0  0  0  0  0  0  0  0  0  0  0  0
  138.3173   79.8024  224.7174 H   0  0  0  0  0  0  0  0  0  0  0  0
  142.8449   73.6105  220.7378 H   0  0  0  0  0  0  0  0  0  0  0  0
  141.5909   74.0425  219.4614 H   0  0  0  0  0  0  0  0  0  0  0  0
  143.1050   76.0230  220.9610 H   0  0  0  0  0  0  0  0  0  0  0  0
  141.4546   78.0914  218.0955 H   0  0  0  0  0  0  0  0  0  0  0  0
  141.8178   80.5487  218.1195 H   0  0  0  0  0  0  0  0  0  0  0  0
  142.0202   81.7837  220.2914 H   0  0  0  0  0  0  0  0  0  0  0  0
  142.0321   81.7488  222.6694 H   0  0  0  0  0  0  0  0  0  0  0  0
  141.8612   80.5077  224.8275 H   0  0  0  0  0  0  0  0  0  0  0  0
  141.4963   78.0606  224.7871 H   0  0  0  0  0  0  0  0  0  0  0  0
  141.2933   76.8202  222.6455 H   0  0  0  0  0  0  0  0  0  0  0  0
  1  2  1  0
  2  3  1  0
  3  4  1  0
  4  5  1  0
  5  6  1  0
  6  7  2  0
  6  8  1  0
  8  9  2  0
  9 10  1  0
 10 11  2  0
 11 12  1  0
 12 13  2  0
 13 14  1  0
 13 15  1  0
 15 16  2  0
 16 17  1  0
 17 18  2  0
  2 19  1  0
 19 20  2  0
 19 21  1  0
 21 22  1  0
 22 23  1  0
 23 24  2  0
 23 25  1  0
 25 26  2  0
 26 27  1  0
 27 28  2  0
 28 29  1  0
 29 30  2  0
 30 31  1  0
 31 32  2  0
 32 33  1  0
 33 34  2  0
 18  8  1  0
 34 25  1  0
 17 11  1  0
 34 29  1  0
  1 35  1  0
  1 36  1  0
  1 37  1  0
  3 38  1  0
  3 39  1  0
  4 40  1  0
  4 41  1  0
  5 42  1  0
  9 43  1  0
 10 44  1  0
 12 45  1  0
 15 46  1  0
 16 47  1  0
 21 48  1  0
 21 49  1  0
 22 50  1  0
 26 51  1  0
 27 52  1  0
 28 53  1  0
 30 54  1  0
 31 55  1  0
 32 56  1  0
 33 57  1  0
M  END
>  <smiles>  (30) 
CN(CCNC(=O)c1ccc2cc(Cl)ccc2n1)C(=O)CNC(=O)c1cccc2ccccc12

>  <score_type>  (30) 
oracle

>  <origin>  (30) 
autodockgpu

>  <m_score__min__energy>  (30) 
-9.7200000000000006

>  <m_primary>  (30) 
energy

>  <rmsd>  (30) 
7.255379087110687

>  <m_score__min__rmsd>  (30) 
7.255379087110687

>  <meeko>  (30) 
{"free_energy": -6.03, "intermolecular_energy": -8.42, "internal_energy": -5.29, "cluster_size": 3, "cluster_id": 12, "rank_in_cluster": 1}

>  <energy>  (30) 
-6.13

>  <cluster_rmsd>  (30) 
1.7

>  <cluster>  (30) 
7

$$$$

     RDKit          3D

 57 60  0  0  0  0  0  0  0  0999 V2000
  137.8440   74.3360  221.9760 C   0  0  0  0  0  0  0  0  0  0  0  0
  138.9050   74.2430  221.0190 N   0  0  0  0  0  0  0  0  0  0  0  0
  138.4420   74.0140  219.6140 C   0  0  0  0  0  0  0  0  0  0  0  0
  138.5690   72.5110  219.4400 C   0  0  0  0  0  0  0  0  0  0  0  0
  138.9310   71.9270  220.6990 N   0  0  0  0  0  0  0  0  0  0  0  0
  138.2010   70.9200  221.3640 C   0  0  0  0  0  0  0  0  0  0  0  0
  137.1370   70.4800  220.8280 O   0  0  0  0  0  0  0  0  0  0  0  0
  138.6180   70.3620  222.6470 C   0  0  0  0  0  0  0  0  0  0  0  0
  138.1570   69.1450  223.0670 C   0  0  0  0  0  0  0  0  0  0  0  0
  138.5020   68.5490  224.2610 C   0  0  0  0  0  0  0  0  0  0  0  0
  139.3710   69.2350  225.0830 C   0  0  0  0  0  0  0  0  0  0  0  0
  139.7140   68.6450  226.2720 C   0  0  0  0  0  0  0  0  0  0  0  0
  140.5790   69.3000  227.1170 C   0  0  0  0  0  0  0  0  0  0  0  0
  141.0520   68.5830  228.6570 Cl  0  0  0  0  0  0  0  0  0  0  0  0
  141.0580   70.5230  226.7230 C   0  0  0  0  0  0  0  0  0  0  0  0
  140.7140   71.1260  225.5210 C   0  0  0  0  0  0  0  0  0  0  0  0
  139.8380   70.4630  224.6650 C   0  0  0  0  0  0  0  0  0  0  0  0
  139.4730   71.0150  223.4770 N   0  0  0  0  0  0  0  0  0  0  0  0
  140.2790   74.3340  221.1960 C   0  0  0  0  0  0  0  0  0  0  0  0
  140.7120   73.8370  222.3400 O   0  0  0  0  0  0  0  0  0  0  0  0
  141.3650   74.8660  220.3870 C   0  0  0  0  0  0  0  0  0  0  0  0
  141.7540   76.1890  220.6950 N   0  0  0  0  0  0  0  0  0  0  0  0
  140.9210   77.2440  220.1470 C   0  0  0  0  0  0  0  0  0  0  0  0
  139.9340   76.8820  219.4540 O   0  0  0  0  0  0  0  0  0  0  0  0
  141.2280   78.6510  220.4000 C   0  0  0  0  0  0  0  0  0  0  0  0
  141.2270   79.5070  219.3170 C   0  0  0  0  0  0  0  0  0  0  0  0
  141.5140   80.8540  219.5060 C   0  0  0  0  0  0  0  0  0  0  0  0
  141.8050   81.3570  220.7780 C   0  0  0  0  0  0  0  0  0  0  0  0
  141.7970   80.4790  221.8390 C   0  0  0  0  0  0  0  0  0  0  0  0
  142.0870   80.9660  223.1170 C   0  0  0  0  0  0  0  0  0  0  0  0
  142.0900   80.1130  224.2120 C   0  0  0  0  0  0  0  0  0  0  0  0
  141.8030   78.7780  224.0110 C   0  0  0  0  0  0  0  0  0  0  0  0
  141.5120   78.2670  222.7520 C   0  0  0  0  0  0  0  0  0  0  0  0
  141.5130   79.1230  221.6800 C   0  0  0  0  0  0  0  0  0  0  0  0
  138.2628   74.2993  222.9925 H   0  0  0  0  0  0  0  0  0  0  0  0
  137.3055   75.2848  221.8354 H   0  0  0  0  0  0  0  0  0  0  0  0
  137.1486   73.4954  221.8354 H   0  0  0  0  0  0  0  0  0  0  0  0
  137.3986   74.3379  219.4860 H   0  0  0  0  0  0  0  0  0  0  0  0
  139.0237   74.5819  218.8730 H   0  0  0  0  0  0  0  0  0  0  0  0
  137.6078   72.0957  219.1030 H   0  0  0  0  0  0  0  0  0  0  0  0
  139.3408   72.2864  218.6891 H   0  0  0  0  0  0  0  0  0  0  0  0
  139.8100   72.2610  221.1850 H   0  0  0  0  0  0  0  0  0  0  0  0
  137.4631   68.6045  222.4065 H   0  0  0  0  0  0  0  0  0  0  0  0
  138.1002   67.5656  224.5467 H   0  0  0  0  0  0  0  0  0  0  0  0
  139.3033   67.6620  226.5461 H   0  0  0  0  0  0  0  0  0  0  0  0
  141.7501   71.0532  227.3937 H   0  0  0  0  0  0  0  0  0  0  0  0
  141.1257   72.1093  225.2496 H   0  0  0  0  0  0  0  0  0  0  0  0
  142.2406   74.2140  220.5220 H   0  0  0  0  0  0  0  0  0  0  0  0
  140.9905   74.8915  219.3530 H   0  0  0  0  0  0  0  0  0  0  0  0
  142.5450   76.5390  221.2520 H   0  0  0  0  0  0  0  0  0  0  0  0
  141.0005   79.1255  218.3105 H   0  0  0  0  0  0  0  0  0  0  0  0
  141.5122   81.5346  218.6418 H   0  0  0  0  0  0  0  0  0  0  0  0
  142.0336   82.4227  220.9267 H   0  0  0  0  0  0  0  0  0  0  0  0
  142.3145   82.0332  223.2558 H   0  0  0  0  0  0  0  0  0  0  0  0
  142.3164   80.4931  225.2191 H   0  0  0  0  0  0  0  0  0  0  0  0
  141.8047   78.0970  224.8748 H   0  0  0  0  0  0  0  0  0  0  0  0
  141.2857   77.1989  222.6178 H   0  0  0  0  0  0  0  0  0  0  0  0
  1  2  1  0
  2  3  1  0
  3  4  1  0
  4  5  1  0
  5  6  1  0
  6  7  2  0
  6  8  1  0
  8  9  2  0
  9 10  1  0
 10 11  2  0
 11 12  1  0
 12 13  2  0
 13 14  1  0
 13 15  1  0
 15 16  2  0
 16 17  1  0
 17 18  2  0
  2 19  1  0
 19 20  2  0
 19 21  1  0
 21 22  1  0
 22 23  1  0
 23 24  2  0
 23 25  1  0
 25 26  2  0
 26 27  1  0
 27 28  2  0
 28 29  1  0
 29 30  2  0
 30 31  1  0
 31 32  2  0
 32 33  1  0
 33 34  2  0
 18  8  1  0
 34 25  1  0
 17 11  1  0
 34 29  1  0
  1 35  1  0
  1 36  1  0
  1 37  1  0
  3 38  1  0
  3 39  1  0
  4 40  1  0
  4 41  1  0
  5 42  1  0
  9 43  1  0
 10 44  1  0
 12 45  1  0
 15 46  1  0
 16 47  1  0
 21 48  1  0
 21 49  1  0
 22 50  1  0
 26 51  1  0
 27 52  1  0
 28 53  1  0
 30 54  1  0
 31 55  1  0
 32 56  1  0
 33 57  1  0
M  END
>  <smiles>  (31) 
CN(CCNC(=O)c1ccc2cc(Cl)ccc2n1)C(=O)CNC(=O)c1cccc2ccccc12

>  <score_type>  (31) 
oracle

>  <origin>  (31) 
autodockgpu

>  <m_score__min__energy>  (31) 
-9.7200000000000006

>  <m_primary>  (31) 
energy

>  <rmsd>  (31) 
9.875108921838272

>  <m_score__min__rmsd>  (31) 
9.875108921838272

>  <meeko>  (31) 
{"free_energy": -8.53, "intermolecular_energy": -10.92, "internal_energy": -2.38, "cluster_size": 13, "cluster_id": 2, "rank_in_cluster": 10}

>  <energy>  (31) 
-6.02

>  <cluster_rmsd>  (31) 
1.59

>  <cluster>  (31) 
7

$$$$

     RDKit          3D

 57 60  0  0  0  0  0  0  0  0999 V2000
  139.3750   72.3340  219.6800 C   0  0  0  0  0  0  0  0  0  0  0  0
  139.4400   73.5530  220.4280 N   0  0  0  0  0  0  0  0  0  0  0  0
  138.2600   74.4540  220.2310 C   0  0  0  0  0  0  0  0  0  0  0  0
  137.1470   73.7490  220.9850 C   0  0  0  0  0  0  0  0  0  0  0  0
  137.7200   72.9950  222.0620 N   0  0  0  0  0  0  0  0  0  0  0  0
  137.5330   71.6130  222.2730 C   0  0  0  0  0  0  0  0  0  0  0  0
  136.8050   70.9630  221.4600 O   0  0  0  0  0  0  0  0  0  0  0  0
  138.1430   70.8970  223.3900 C   0  0  0  0  0  0  0  0  0  0  0  0
  137.8000   69.6020  223.6650 C   0  0  0  0  0  0  0  0  0  0  0  0
  138.3290   68.8580  224.6980 C   0  0  0  0  0  0  0  0  0  0  0  0
  139.2650   69.4690  225.5050 C   0  0  0  0  0  0  0  0  0  0  0  0
  139.7900   68.7310  226.5330 C   0  0  0  0  0  0  0  0  0  0  0  0
  140.7270   69.3090  227.3580 C   0  0  0  0  0  0  0  0  0  0  0  0
  141.4340   68.4010  228.6960 Cl  0  0  0  0  0  0  0  0  0  0  0  0
  141.0910   70.6070  227.1080 C   0  0  0  0  0  0  0  0  0  0  0  0
  140.5620   71.3600  226.0680 C   0  0  0  0  0  0  0  0  0  0  0  0
  139.6130   70.7750  225.2320 C   0  0  0  0  0  0  0  0  0  0  0  0
  139.0670   71.4740  224.2010 N   0  0  0  0  0  0  0  0  0  0  0  0
  140.4180   74.0170  221.2960 C   0  0  0  0  0  0  0  0  0  0  0  0
  140.4400   73.4060  222.4660 O   0  0  0  0  0  0  0  0  0  0  0  0
  141.4410   75.0470  221.2000 C   0  0  0  0  0  0  0  0  0  0  0  0
  141.2400   76.1750  222.0280 N   0  0  0  0  0  0  0  0  0  0  0  0
  140.2490   77.1340  221.5720 C   0  0  0  0  0  0  0  0  0  0  0  0
  139.6650   76.8700  220.4890 O   0  0  0  0  0  0  0  0  0  0  0  0
  139.9580   78.3390  222.3470 C   0  0  0  0  0  0  0  0  0  0  0  0
  138.6390   78.5790  222.6780 C   0  0  0  0  0  0  0  0  0  0  0  0
  138.3120   79.7120  223.4140 C   0  0  0  0  0  0  0  0  0  0  0  0
  139.2980   80.6140  223.8250 C   0  0  0  0  0  0  0  0  0  0  0  0
  140.6040   80.3470  223.4810 C   0  0  0  0  0  0  0  0  0  0  0  0
  141.6020   81.2390  223.8850 C   0  0  0  0  0  0  0  0  0  0  0  0
  142.9310   81.0050  223.5580 C   0  0  0  0  0  0  0  0  0  0  0  0
  143.2420   79.8770  222.8270 C   0  0  0  0  0  0  0  0  0  0  0  0
  142.2720   78.9740  222.4130 C   0  0  0  0  0  0  0  0  0  0  0  0
  140.9630   79.2180  222.7440 C   0  0  0  0  0  0  0  0  0  0  0  0
  139.3295   71.4807  220.3727 H   0  0  0  0  0  0  0  0  0  0  0  0
  138.4759   72.3402  219.0463 H   0  0  0  0  0  0  0  0  0  0  0  0
  140.2696   72.2445  219.0463 H   0  0  0  0  0  0  0  0  0  0  0  0
  138.4515   75.4511  220.6542 H   0  0  0  0  0  0  0  0  0  0  0  0
  138.0205   74.6211  219.1705 H   0  0  0  0  0  0  0  0  0  0  0  0
  136.4450   74.4937  221.3883 H   0  0  0  0  0  0  0  0  0  0  0  0
  136.6055   73.0748  220.3051 H   0  0  0  0  0  0  0  0  0  0  0  0
  138.3360   73.4930  222.7660 H   0  0  0  0  0  0  0  0  0  0  0  0
  137.0513   69.1215  223.0181 H   0  0  0  0  0  0  0  0  0  0  0  0
  138.0165   67.8177  224.8716 H   0  0  0  0  0  0  0  0  0  0  0  0
  139.4672   67.6922  226.6962 H   0  0  0  0  0  0  0  0  0  0  0  0
  141.8395   71.0754  227.7640 H   0  0  0  0  0  0  0  0  0  0  0  0
  140.8860   72.3988  225.9071 H   0  0  0  0  0  0  0  0  0  0  0  0
  142.4062   74.5940  221.4706 H   0  0  0  0  0  0  0  0  0  0  0  0
  141.4040   75.4180  220.1651 H   0  0  0  0  0  0  0  0  0  0  0  0
  141.6870   76.4390  222.9160 H   0  0  0  0  0  0  0  0  0  0  0  0
  137.8524   77.8783  222.3614 H   0  0  0  0  0  0  0  0  0  0  0  0
  137.2610   79.9019  223.6772 H   0  0  0  0  0  0  0  0  0  0  0  0
  139.0378   81.5109  224.4063 H   0  0  0  0  0  0  0  0  0  0  0  0
  141.3322   82.1330  224.4663 H   0  0  0  0  0  0  0  0  0  0  0  0
  143.7190   81.7040  223.8750 H   0  0  0  0  0  0  0  0  0  0  0  0
  144.2929   79.6868  222.5635 H   0  0  0  0  0  0  0  0  0  0  0  0
  142.5472   78.0816  221.8317 H   0  0  0  0  0  0  0  0  0  0  0  0
  1  2  1  0
  2  3  1  0
  3  4  1  0
  4  5  1  0
  5  6  1  0
  6  7  2  0
  6  8  1  0
  8  9  2  0
  9 10  1  0
 10 11  2  0
 11 12  1  0
 12 13  2  0
 13 14  1  0
 13 15  1  0
 15 16  2  0
 16 17  1  0
 17 18  2  0
  2 19  1  0
 19 20  2  0
 19 21  1  0
 21 22  1  0
 22 23  1  0
 23 24  2  0
 23 25  1  0
 25 26  2  0
 26 27  1  0
 27 28  2  0
 28 29  1  0
 29 30  2  0
 30 31  1  0
 31 32  2  0
 32 33  1  0
 33 34  2  0
 18  8  1  0
 34 25  1  0
 17 11  1  0
 34 29  1  0
  1 35  1  0
  1 36  1  0
  1 37  1  0
  3 38  1  0
  3 39  1  0
  4 40  1  0
  4 41  1  0
  5 42  1  0
  9 43  1  0
 10 44  1  0
 12 45  1  0
 15 46  1  0
 16 47  1  0
 21 48  1  0
 21 49  1  0
 22 50  1  0
 26 51  1  0
 27 52  1  0
 28 53  1  0
 30 54  1  0
 31 55  1  0
 32 56  1  0
 33 57  1  0
M  END
>  <smiles>  (32) 
CN(CCNC(=O)c1ccc2cc(Cl)ccc2n1)C(=O)CNC(=O)c1cccc2ccccc12

>  <score_type>  (32) 
oracle

>  <origin>  (32) 
autodockgpu

>  <m_score__min__energy>  (32) 
-9.7200000000000006

>  <m_primary>  (32) 
energy

>  <rmsd>  (32) 
9.596470316610768

>  <m_score__min__rmsd>  (32) 
9.596470316610768

>  <meeko>  (32) 
{"free_energy": -9.5, "intermolecular_energy": -11.88, "internal_energy": -2.53, "cluster_size": 13, "cluster_id": 2, "rank_in_cluster": 3}

>  <energy>  (32) 
-5.95

>  <cluster_rmsd>  (32) 
1.8

>  <cluster>  (32) 
7

$$$$

     RDKit          3D

 57 60  0  0  0  0  0  0  0  0999 V2000
  142.9450   71.9950  220.5770 C   0  0  0  0  0  0  0  0  0  0  0  0
  141.8600   72.9290  220.5880 N   0  0  0  0  0  0  0  0  0  0  0  0
  141.9050   73.9320  219.4780 C   0  0  0  0  0  0  0  0  0  0  0  0
  142.9200   74.9510  219.9620 C   0  0  0  0  0  0  0  0  0  0  0  0
  142.2620   75.8880  220.8260 N   0  0  0  0  0  0  0  0  0  0  0  0
  141.8030   77.1640  220.4380 C   0  0  0  0  0  0  0  0  0  0  0  0
  141.9730   77.5350  219.2350 O   0  0  0  0  0  0  0  0  0  0  0  0
  141.1380   78.0770  221.3620 C   0  0  0  0  0  0  0  0  0  0  0  0
  141.8380   79.0620  222.0030 C   0  0  0  0  0  0  0  0  0  0  0  0
  141.2850   79.9620  222.8890 C   0  0  0  0  0  0  0  0  0  0  0  0
  139.9340   79.8530  223.1420 C   0  0  0  0  0  0  0  0  0  0  0  0
  139.3840   80.7460  224.0240 C   0  0  0  0  0  0  0  0  0  0  0  0
  138.0390   80.6680  224.3010 C   0  0  0  0  0  0  0  0  0  0  0  0
  137.2820   81.7950  225.4280 Cl  0  0  0  0  0  0  0  0  0  0  0  0
  137.3100   79.6890  223.6750 C   0  0  0  0  0  0  0  0  0  0  0  0
  137.8620   78.7820  222.7810 C   0  0  0  0  0  0  0  0  0  0  0  0
  139.2250   78.8610  222.5000 C   0  0  0  0  0  0  0  0  0  0  0  0
  139.8090   77.9930  221.6320 N   0  0  0  0  0  0  0  0  0  0  0  0
  140.7880   73.0420  221.4620 C   0  0  0  0  0  0  0  0  0  0  0  0
  140.6310   74.2480  221.9770 O   0  0  0  0  0  0  0  0  0  0  0  0
  139.7820   72.1080  221.9470 C   0  0  0  0  0  0  0  0  0  0  0  0
  140.2150   71.2320  222.9670 N   0  0  0  0  0  0  0  0  0  0  0  0
  139.2100   70.8310  223.9350 C   0  0  0  0  0  0  0  0  0  0  0  0
  138.0530   71.2990  223.7740 O   0  0  0  0  0  0  0  0  0  0  0  0
  139.5440   69.9280  225.0350 C   0  0  0  0  0  0  0  0  0  0  0  0
  139.2030   68.5970  224.8910 C   0  0  0  0  0  0  0  0  0  0  0  0
  139.5000   67.6980  225.9080 C   0  0  0  0  0  0  0  0  0  0  0  0
  140.1380   68.1200  227.0790 C   0  0  0  0  0  0  0  0  0  0  0  0
  140.4660   69.4530  227.1930 C   0  0  0  0  0  0  0  0  0  0  0  0
  141.1050   69.8910  228.3580 C   0  0  0  0  0  0  0  0  0  0  0  0
  141.4520   71.2260  228.5110 C   0  0  0  0  0  0  0  0  0  0  0  0
  141.1520   72.1080  227.4930 C   0  0  0  0  0  0  0  0  0  0  0  0
  140.5180   71.7000  226.3260 C   0  0  0  0  0  0  0  0  0  0  0  0
  140.1820   70.3770  226.1890 C   0  0  0  0  0  0  0  0  0  0  0  0
  143.2289   71.7506  221.6112 H   0  0  0  0  0  0  0  0  0  0  0  0
  142.6339   71.0777  220.0556 H   0  0  0  0  0  0  0  0  0  0  0  0
  143.8058   72.4391  220.0556 H   0  0  0  0  0  0  0  0  0  0  0  0
  142.2348   73.4643  218.5386 H   0  0  0  0  0  0  0  0  0  0  0  0
  140.9221   74.3759  219.2617 H   0  0  0  0  0  0  0  0  0  0  0  0
  143.7220   74.4396  220.5144 H   0  0  0  0  0  0  0  0  0  0  0  0
  143.3563   75.4800  219.1019 H   0  0  0  0  0  0  0  0  0  0  0  0
  142.0960   75.6230  221.8380 H   0  0  0  0  0  0  0  0  0  0  0  0
  142.9157   79.1414  221.7975 H   0  0  0  0  0  0  0  0  0  0  0  0
  141.8972   80.7362  223.3747 H   0  0  0  0  0  0  0  0  0  0  0  0
  140.0089   81.5139  224.5034 H   0  0  0  0  0  0  0  0  0  0  0  0
  136.2340   79.6193  223.8924 H   0  0  0  0  0  0  0  0  0  0  0  0
  137.2352   78.0148  222.3029 H   0  0  0  0  0  0  0  0  0  0  0  0
  138.9356   72.6922  222.3372 H   0  0  0  0  0  0  0  0  0  0  0  0
  139.5191   71.4710  221.0896 H   0  0  0  0  0  0  0  0  0  0  0  0
  141.1420   70.8220  223.1460 H   0  0  0  0  0  0  0  0  0  0  0  0
  138.6992   68.2509  223.9764 H   0  0  0  0  0  0  0  0  0  0  0  0
  139.2293   66.6383  225.7904 H   0  0  0  0  0  0  0  0  0  0  0  0
  140.3709   67.4085  227.8850 H   0  0  0  0  0  0  0  0  0  0  0  0
  141.3340   69.1721  229.1584 H   0  0  0  0  0  0  0  0  0  0  0  0
  141.9558   71.5739  229.4249 H   0  0  0  0  0  0  0  0  0  0  0  0
  141.4234   73.1676  227.6091 H   0  0  0  0  0  0  0  0  0  0  0  0
  140.2902   72.4227  225.5286 H   0  0  0  0  0  0  0  0  0  0  0  0
  1  2  1  0
  2  3  1  0
  3  4  1  0
  4  5  1  0
  5  6  1  0
  6  7  2  0
  6  8  1  0
  8  9  2  0
  9 10  1  0
 10 11  2  0
 11 12  1  0
 12 13  2  0
 13 14  1  0
 13 15  1  0
 15 16  2  0
 16 17  1  0
 17 18  2  0
  2 19  1  0
 19 20  2  0
 19 21  1  0
 21 22  1  0
 22 23  1  0
 23 24  2  0
 23 25  1  0
 25 26  2  0
 26 27  1  0
 27 28  2  0
 28 29  1  0
 29 30  2  0
 30 31  1  0
 31 32  2  0
 32 33  1  0
 33 34  2  0
 18  8  1  0
 34 25  1  0
 17 11  1  0
 34 29  1  0
  1 35  1  0
  1 36  1  0
  1 37  1  0
  3 38  1  0
  3 39  1  0
  4 40  1  0
  4 41  1  0
  5 42  1  0
  9 43  1  0
 10 44  1  0
 12 45  1  0
 15 46  1  0
 16 47  1  0
 21 48  1  0
 21 49  1  0
 22 50  1  0
 26 51  1  0
 27 52  1  0
 28 53  1  0
 30 54  1  0
 31 55  1  0
 32 56  1  0
 33 57  1  0
M  END
>  <smiles>  (33) 
CN(CCNC(=O)c1ccc2cc(Cl)ccc2n1)C(=O)CNC(=O)c1cccc2ccccc12

>  <score_type>  (33) 
oracle

>  <origin>  (33) 
autodockgpu

>  <m_score__min__energy>  (33) 
-9.7200000000000006

>  <m_primary>  (33) 
energy

>  <rmsd>  (33) 
3.133006291136731

>  <m_score__min__rmsd>  (33) 
3.133006291136731

>  <meeko>  (33) 
{"free_energy": -9.72, "intermolecular_energy": -12.11, "internal_energy": -1.91, "cluster_size": 3, "cluster_id": 1, "rank_in_cluster": 1}

>  <energy>  (33) 
-5.92

>  <cluster_rmsd>  (33) 
1.56

>  <cluster>  (33) 
7

$$$$

     RDKit          3D

 57 60  0  0  0  0  0  0  0  0999 V2000
  142.7580   75.3050  219.9500 C   0  0  0  0  0  0  0  0  0  0  0  0
  141.5150   75.0610  220.6170 N   0  0  0  0  0  0  0  0  0  0  0  0
  140.5790   76.2290  220.6100 C   0  0  0  0  0  0  0  0  0  0  0  0
  139.3310   75.6790  219.9450 C   0  0  0  0  0  0  0  0  0  0  0  0
  138.4780   75.1160  220.9510 N   0  0  0  0  0  0  0  0  0  0  0  0
  137.5600   75.8450  221.7360 C   0  0  0  0  0  0  0  0  0  0  0  0
  137.4620   77.0980  221.5570 O   0  0  0  0  0  0  0  0  0  0  0  0
  136.7160   75.2160  222.7470 C   0  0  0  0  0  0  0  0  0  0  0  0
  136.0210   75.9720  223.6510 C   0  0  0  0  0  0  0  0  0  0  0  0
  135.2040   75.4570  224.6340 C   0  0  0  0  0  0  0  0  0  0  0  0
  135.0870   74.0850  224.7060 C   0  0  0  0  0  0  0  0  0  0  0  0
  134.2760   73.5710  225.6850 C   0  0  0  0  0  0  0  0  0  0  0  0
  134.1360   72.2070  225.7860 C   0  0  0  0  0  0  0  0  0  0  0  0
  133.1030   71.4960  227.0280 Cl  0  0  0  0  0  0  0  0  0  0  0  0
  134.8210   71.4220  224.8950 C   0  0  0  0  0  0  0  0  0  0  0  0
  135.6440   71.9370  223.9020 C   0  0  0  0  0  0  0  0  0  0  0  0
  135.7870   73.3190  223.7990 C   0  0  0  0  0  0  0  0  0  0  0  0
  136.5820   73.8680  222.8420 N   0  0  0  0  0  0  0  0  0  0  0  0
  141.0550   73.9200  221.2590 C   0  0  0  0  0  0  0  0  0  0  0  0
  140.3300   74.1580  222.3360 O   0  0  0  0  0  0  0  0  0  0  0  0
  141.1990   72.4950  221.0030 C   0  0  0  0  0  0  0  0  0  0  0  0
  140.9740   71.6560  222.1180 N   0  0  0  0  0  0  0  0  0  0  0  0
  139.5870   71.4660  222.5050 C   0  0  0  0  0  0  0  0  0  0  0  0
  138.7210   72.0620  221.8130 O   0  0  0  0  0  0  0  0  0  0  0  0
  139.2360   70.6190  223.6430 C   0  0  0  0  0  0  0  0  0  0  0  0
  138.2880   69.6360  223.4360 C   0  0  0  0  0  0  0  0  0  0  0  0
  137.9190   68.8050  224.4870 C   0  0  0  0  0  0  0  0  0  0  0  0
  138.4920   68.9500  225.7550 C   0  0  0  0  0  0  0  0  0  0  0  0
  139.4340   69.9390  225.9310 C   0  0  0  0  0  0  0  0  0  0  0  0
  140.0170   70.0970  227.1920 C   0  0  0  0  0  0  0  0  0  0  0  0
  140.9690   71.0820  227.4100 C   0  0  0  0  0  0  0  0  0  0  0  0
  141.3270   71.9000  226.3570 C   0  0  0  0  0  0  0  0  0  0  0  0
  140.7650   71.7650  225.0940 C   0  0  0  0  0  0  0  0  0  0  0  0
  139.8250   70.7870  224.8940 C   0  0  0  0  0  0  0  0  0  0  0  0
  143.5505   75.4606  220.6968 H   0  0  0  0  0  0  0  0  0  0  0  0
  143.0123   74.4396  219.3203 H   0  0  0  0  0  0  0  0  0  0  0  0
  142.6663   76.2023  219.3203 H   0  0  0  0  0  0  0  0  0  0  0  0
  140.3627   76.5656  221.6346 H   0  0  0  0  0  0  0  0  0  0  0  0
  140.9914   77.1054  220.0886 H   0  0  0  0  0  0  0  0  0  0  0  0
  138.8019   76.4907  219.4243 H   0  0  0  0  0  0  0  0  0  0  0  0
  139.6084   74.9040  219.2153 H   0  0  0  0  0  0  0  0  0  0  0  0
  138.5230   74.0740  221.1360 H   0  0  0  0  0  0  0  0  0  0  0  0
  136.1212   77.0657  223.5889 H   0  0  0  0  0  0  0  0  0  0  0  0
  134.6666   76.1143  225.3334 H   0  0  0  0  0  0  0  0  0  0  0  0
  133.7456   74.2397  226.3789 H   0  0  0  0  0  0  0  0  0  0  0  0
  134.7134   70.3299  224.9704 H   0  0  0  0  0  0  0  0  0  0  0  0
  136.1733   71.2660  223.2094 H   0  0  0  0  0  0  0  0  0  0  0  0
  140.4811   72.2164  220.2175 H   0  0  0  0  0  0  0  0  0  0  0  0
  142.2493   72.3422  220.7139 H   0  0  0  0  0  0  0  0  0  0  0  0
  141.6400   71.1480  222.7150 H   0  0  0  0  0  0  0  0  0  0  0  0
  137.8276   69.5116  222.4447 H   0  0  0  0  0  0  0  0  0  0  0  0
  137.1652   68.0216  224.3194 H   0  0  0  0  0  0  0  0  0  0  0  0
  138.1987   68.2932  226.5872 H   0  0  0  0  0  0  0  0  0  0  0  0
  139.7183   69.4348  228.0179 H   0  0  0  0  0  0  0  0  0  0  0  0
  141.4291   71.2087  228.4011 H   0  0  0  0  0  0  0  0  0  0  0  0
  142.0811   72.6833  226.5235 H   0  0  0  0  0  0  0  0  0  0  0  0
  141.0678   72.4291  224.2710 H   0  0  0  0  0  0  0  0  0  0  0  0
  1  2  1  0
  2  3  1  0
  3  4  1  0
  4  5  1  0
  5  6  1  0
  6  7  2  0
  6  8  1  0
  8  9  2  0
  9 10  1  0
 10 11  2  0
 11 12  1  0
 12 13  2  0
 13 14  1  0
 13 15  1  0
 15 16  2  0
 16 17  1  0
 17 18  2  0
  2 19  1  0
 19 20  2  0
 19 21  1  0
 21 22  1  0
 22 23  1  0
 23 24  2  0
 23 25  1  0
 25 26  2  0
 26 27  1  0
 27 28  2  0
 28 29  1  0
 29 30  2  0
 30 31  1  0
 31 32  2  0
 32 33  1  0
 33 34  2  0
 18  8  1  0
 34 25  1  0
 17 11  1  0
 34 29  1  0
  1 35  1  0
  1 36  1  0
  1 37  1  0
  3 38  1  0
  3 39  1  0
  4 40  1  0
  4 41  1  0
  5 42  1  0
  9 43  1  0
 10 44  1  0
 12 45  1  0
 15 46  1  0
 16 47  1  0
 21 48  1  0
 21 49  1  0
 22 50  1  0
 26 51  1  0
 27 52  1  0
 28 53  1  0
 30 54  1  0
 31 55  1  0
 32 56  1  0
 33 57  1  0
M  END
>  <smiles>  (34) 
CN(CCNC(=O)c1ccc2cc(Cl)ccc2n1)C(=O)CNC(=O)c1cccc2ccccc12

>  <score_type>  (34) 
oracle

>  <origin>  (34) 
autodockgpu

>  <m_score__min__energy>  (34) 
-9.7200000000000006

>  <m_primary>  (34) 
energy

>  <rmsd>  (34) 
5.347047786054514

>  <m_score__min__rmsd>  (34) 
5.347047786054514

>  <meeko>  (34) 
{"free_energy": -7.19, "intermolecular_energy": -9.58, "internal_energy": -3.83, "cluster_size": 3, "cluster_id": 3, "rank_in_cluster": 2}

>  <energy>  (34) 
-5.87

>  <cluster_rmsd>  (34) 
1.53

>  <cluster>  (34) 
7

$$$$

     RDKit          3D

 57 60  0  0  0  0  0  0  0  0999 V2000
  139.6250   69.1990  221.3500 C   0  0  0  0  0  0  0  0  0  0  0  0
  138.3320   69.7900  221.1830 N   0  0  0  0  0  0  0  0  0  0  0  0
  137.2580   68.8150  220.8140 C   0  0  0  0  0  0  0  0  0  0  0  0
  136.6670   68.4140  222.1530 C   0  0  0  0  0  0  0  0  0  0  0  0
  136.1160   69.5780  222.7850 N   0  0  0  0  0  0  0  0  0  0  0  0
  135.7400   69.6620  224.1420 C   0  0  0  0  0  0  0  0  0  0  0  0
  135.8930   68.6430  224.8830 O   0  0  0  0  0  0  0  0  0  0  0  0
  135.1830   70.8760  224.7310 C   0  0  0  0  0  0  0  0  0  0  0  0
  134.1910   70.8110  225.6700 C   0  0  0  0  0  0  0  0  0  0  0  0
  133.6130   71.9070  226.2720 C   0  0  0  0  0  0  0  0  0  0  0  0
  134.0710   73.1520  225.8950 C   0  0  0  0  0  0  0  0  0  0  0  0
  133.4970   74.2430  226.4930 C   0  0  0  0  0  0  0  0  0  0  0  0
  133.9290   75.5010  226.1410 C   0  0  0  0  0  0  0  0  0  0  0  0
  133.2230   76.9380  226.8820 Cl  0  0  0  0  0  0  0  0  0  0  0  0
  134.9230   75.5990  225.2010 C   0  0  0  0  0  0  0  0  0  0  0  0
  135.5080   74.4980  224.5930 C   0  0  0  0  0  0  0  0  0  0  0  0
  135.0710   73.2230  224.9480 C   0  0  0  0  0  0  0  0  0  0  0  0
  135.6150   72.1150  224.3780 N   0  0  0  0  0  0  0  0  0  0  0  0
  137.9300   71.1120  221.3130 C   0  0  0  0  0  0  0  0  0  0  0  0
  136.9510   71.4650  220.4990 O   0  0  0  0  0  0  0  0  0  0  0  0
  138.3580   72.2150  222.1600 C   0  0  0  0  0  0  0  0  0  0  0  0
  138.5440   71.8920  223.5230 N   0  0  0  0  0  0  0  0  0  0  0  0
  139.8980   71.5480  223.9200 C   0  0  0  0  0  0  0  0  0  0  0  0
  140.7740   71.5720  223.0160 O   0  0  0  0  0  0  0  0  0  0  0  0
  140.2070   71.1960  225.3040 C   0  0  0  0  0  0  0  0  0  0  0  0
  140.7540   72.1800  226.1040 C   0  0  0  0  0  0  0  0  0  0  0  0
  141.0670   71.8950  227.4280 C   0  0  0  0  0  0  0  0  0  0  0  0
  140.8370   70.6240  227.9640 C   0  0  0  0  0  0  0  0  0  0  0  0
  140.2900   69.6630  227.1430 C   0  0  0  0  0  0  0  0  0  0  0  0
  140.0540   68.3870  227.6640 C   0  0  0  0  0  0  0  0  0  0  0  0
  139.5040   67.3920  226.8680 C   0  0  0  0  0  0  0  0  0  0  0  0
  139.1980   67.6890  225.5560 C   0  0  0  0  0  0  0  0  0  0  0  0
  139.4220   68.9470  225.0120 C   0  0  0  0  0  0  0  0  0  0  0  0
  139.9660   69.9210  225.8110 C   0  0  0  0  0  0  0  0  0  0  0  0
  139.8462   69.0979  222.4228 H   0  0  0  0  0  0  0  0  0  0  0  0
  139.6379   68.2056  220.8778 H   0  0  0  0  0  0  0  0  0  0  0  0
  140.3846   69.8393  220.8778 H   0  0  0  0  0  0  0  0  0  0  0  0
  136.4985   69.2899  220.1756 H   0  0  0  0  0  0  0  0  0  0  0  0
  137.6376   67.9572  220.2395 H   0  0  0  0  0  0  0  0  0  0  0  0
  135.8739   67.6677  221.9980 H   0  0  0  0  0  0  0  0  0  0  0  0
  137.4505   67.9792  222.7910 H   0  0  0  0  0  0  0  0  0  0  0  0
  135.9710   70.4540  222.2070 H   0  0  0  0  0  0  0  0  0  0  0  0
  133.8296   69.8148  225.9650 H   0  0  0  0  0  0  0  0  0  0  0  0
  132.8178   71.7936  227.0235 H   0  0  0  0  0  0  0  0  0  0  0  0
  132.7027   74.1151  227.2432 H   0  0  0  0  0  0  0  0  0  0  0  0
  135.2740   76.6014  224.9148 H   0  0  0  0  0  0  0  0  0  0  0  0
  136.3028   74.6288  223.8439 H   0  0  0  0  0  0  0  0  0  0  0  0
  139.3128   72.5946  221.7672 H   0  0  0  0  0  0  0  0  0  0  0  0
  137.5445   72.9548  222.1307 H   0  0  0  0  0  0  0  0  0  0  0  0
  137.8680   71.8570  224.2980 H   0  0  0  0  0  0  0  0  0  0  0  0
  140.9410   73.1841  225.6955 H   0  0  0  0  0  0  0  0  0  0  0  0
  141.5019   72.6806  228.0633 H   0  0  0  0  0  0  0  0  0  0  0  0
  141.0859   70.3982  229.0114 H   0  0  0  0  0  0  0  0  0  0  0  0
  140.3062   68.1702  228.7125 H   0  0  0  0  0  0  0  0  0  0  0  0
  139.3160   66.3874  227.2748 H   0  0  0  0  0  0  0  0  0  0  0  0
  138.7625   66.9040  224.9202 H   0  0  0  0  0  0  0  0  0  0  0  0
  139.1687   69.1582  223.9626 H   0  0  0  0  0  0  0  0  0  0  0  0
  1  2  1  0
  2  3  1  0
  3  4  1  0
  4  5  1  0
  5  6  1  0
  6  7  2  0
  6  8  1  0
  8  9  2  0
  9 10  1  0
 10 11  2  0
 11 12  1  0
 12 13  2  0
 13 14  1  0
 13 15  1  0
 15 16  2  0
 16 17  1  0
 17 18  2  0
  2 19  1  0
 19 20  2  0
 19 21  1  0
 21 22  1  0
 22 23  1  0
 23 24  2  0
 23 25  1  0
 25 26  2  0
 26 27  1  0
 27 28  2  0
 28 29  1  0
 29 30  2  0
 30 31  1  0
 31 32  2  0
 32 33  1  0
 33 34  2  0
 18  8  1  0
 34 25  1  0
 17 11  1  0
 34 29  1  0
  1 35  1  0
  1 36  1  0
  1 37  1  0
  3 38  1  0
  3 39  1  0
  4 40  1  0
  4 41  1  0
  5 42  1  0
  9 43  1  0
 10 44  1  0
 12 45  1  0
 15 46  1  0
 16 47  1  0
 21 48  1  0
 21 49  1  0
 22 50  1  0
 26 51  1  0
 27 52  1  0
 28 53  1  0
 30 54  1  0
 31 55  1  0
 32 56  1  0
 33 57  1  0
M  END
>  <smiles>  (35) 
CN(CCNC(=O)c1ccc2cc(Cl)ccc2n1)C(=O)CNC(=O)c1cccc2ccccc12

>  <score_type>  (35) 
oracle

>  <origin>  (35) 
autodockgpu

>  <m_score__min__energy>  (35) 
-9.7200000000000006

>  <m_primary>  (35) 
energy

>  <rmsd>  (35) 
7.681751187062307

>  <m_score__min__rmsd>  (35) 
7.681751187062307

>  <meeko>  (35) 
{"free_energy": -7.74, "intermolecular_energy": -10.12, "internal_energy": -3.92, "cluster_size": 2, "cluster_id": 5, "rank_in_cluster": 2}

>  <energy>  (35) 
-5.74

>  <cluster_rmsd>  (35) 
1.86

>  <cluster>  (35) 
7

$$$$

     RDKit          3D

 57 60  0  0  0  0  0  0  0  0999 V2000
  138.1950   75.9120  222.1480 C   0  0  0  0  0  0  0  0  0  0  0  0
  138.9860   75.0130  221.3630 N   0  0  0  0  0  0  0  0  0  0  0  0
  138.2260   74.3260  220.2710 C   0  0  0  0  0  0  0  0  0  0  0  0
  137.2550   73.4330  221.0230 C   0  0  0  0  0  0  0  0  0  0  0  0
  137.9150   72.9000  222.1800 N   0  0  0  0  0  0  0  0  0  0  0  0
  138.2720   71.5470  222.3580 C   0  0  0  0  0  0  0  0  0  0  0  0
  138.0000   70.7160  221.4360 O   0  0  0  0  0  0  0  0  0  0  0  0
  138.9440   71.0610  223.5590 C   0  0  0  0  0  0  0  0  0  0  0  0
  139.9600   71.7740  224.1330 C   0  0  0  0  0  0  0  0  0  0  0  0
  140.6440   71.3850  225.2650 C   0  0  0  0  0  0  0  0  0  0  0  0
  140.2730   70.1930  225.8510 C   0  0  0  0  0  0  0  0  0  0  0  0
  140.9530   69.8050  226.9750 C   0  0  0  0  0  0  0  0  0  0  0  0
  140.6100   68.6210  227.5870 C   0  0  0  0  0  0  0  0  0  0  0  0
  141.4540   68.0770  229.0370 Cl  0  0  0  0  0  0  0  0  0  0  0  0
  139.5940   67.8830  227.0340 C   0  0  0  0  0  0  0  0  0  0  0  0
  138.9020   68.2720  225.8950 C   0  0  0  0  0  0  0  0  0  0  0  0
  139.2500   69.4700  225.2750 C   0  0  0  0  0  0  0  0  0  0  0  0
  138.6000   69.8910  224.1580 N   0  0  0  0  0  0  0  0  0  0  0  0
  140.3310   74.6880  221.4610 C   0  0  0  0  0  0  0  0  0  0  0  0
  140.5980   73.7410  222.3430 O   0  0  0  0  0  0  0  0  0  0  0  0
  141.5330   75.1690  220.7980 C   0  0  0  0  0  0  0  0  0  0  0  0
  141.8020   76.5460  220.9620 N   0  0  0  0  0  0  0  0  0  0  0  0
  140.9470   77.4570  220.2230 C   0  0  0  0  0  0  0  0  0  0  0  0
  140.0490   76.9360  219.5110 O   0  0  0  0  0  0  0  0  0  0  0  0
  141.1330   78.9050  220.3170 C   0  0  0  0  0  0  0  0  0  0  0  0
  141.0550   79.6320  219.1460 C   0  0  0  0  0  0  0  0  0  0  0  0
  141.2260   81.0110  219.1820 C   0  0  0  0  0  0  0  0  0  0  0  0
  141.4770   81.6750  220.3870 C   0  0  0  0  0  0  0  0  0  0  0  0
  141.5480   80.9220  221.5380 C   0  0  0  0  0  0  0  0  0  0  0  0
  141.7990   81.5700  222.7520 C   0  0  0  0  0  0  0  0  0  0  0  0
  141.8790   80.8470  223.9330 C   0  0  0  0  0  0  0  0  0  0  0  0
  141.7070   79.4780  223.8830 C   0  0  0  0  0  0  0  0  0  0  0  0
  141.4570   78.8080  222.6920 C   0  0  0  0  0  0  0  0  0  0  0  0
  141.3810   79.5370  221.5330 C   0  0  0  0  0  0  0  0  0  0  0  0
  138.3680   75.7153  223.2164 H   0  0  0  0  0  0  0  0  0  0  0  0
  138.4790   76.9489  221.9154 H   0  0  0  0  0  0  0  0  0  0  0  0
  137.1304   75.7624  221.9154 H   0  0  0  0  0  0  0  0  0  0  0  0
  137.6876   75.0552  219.6477 H   0  0  0  0  0  0  0  0  0  0  0  0
  138.8766   73.7673  219.5821 H   0  0  0  0  0  0  0  0  0  0  0  0
  136.3791   74.0205  221.3354 H   0  0  0  0  0  0  0  0  0  0  0  0
  136.9231   72.6112  220.3714 H   0  0  0  0  0  0  0  0  0  0  0  0
  138.1630   73.5540  222.9750 H   0  0  0  0  0  0  0  0  0  0  0  0
  140.2515   72.7229  223.6590 H   0  0  0  0  0  0  0  0  0  0  0  0
  141.4534   72.0008  225.6841 H   0  0  0  0  0  0  0  0  0  0  0  0
  141.7611   70.4304  227.3823 H   0  0  0  0  0  0  0  0  0  0  0  0
  139.3137   66.9355  227.5174 H   0  0  0  0  0  0  0  0  0  0  0  0
  138.0937   67.6457  225.4895 H   0  0  0  0  0  0  0  0  0  0  0  0
  142.3896   74.6054  221.1963 H   0  0  0  0  0  0  0  0  0  0  0  0
  141.3683   75.0170  219.7211 H   0  0  0  0  0  0  0  0  0  0  0  0
  142.5180   77.0240  221.5270 H   0  0  0  0  0  0  0  0  0  0  0  0
  140.8588   79.1233  218.1906 H   0  0  0  0  0  0  0  0  0  0  0  0
  141.1629   81.5890  218.2482 H   0  0  0  0  0  0  0  0  0  0  0  0
  141.6136   82.7661  220.4147 H   0  0  0  0  0  0  0  0  0  0  0  0
  141.9340   82.6615  222.7702 H   0  0  0  0  0  0  0  0  0  0  0  0
  142.0754   81.3537  224.8894 H   0  0  0  0  0  0  0  0  0  0  0  0
  141.7700   78.8992  224.8163 H   0  0  0  0  0  0  0  0  0  0  0  0
  141.3229   77.7163  222.6789 H   0  0  0  0  0  0  0  0  0  0  0  0
  1  2  1  0
  2  3  1  0
  3  4  1  0
  4  5  1  0
  5  6  1  0
  6  7  2  0
  6  8  1  0
  8  9  2  0
  9 10  1  0
 10 11  2  0
 11 12  1  0
 12 13  2  0
 13 14  1  0
 13 15  1  0
 15 16  2  0
 16 17  1  0
 17 18  2  0
  2 19  1  0
 19 20  2  0
 19 21  1  0
 21 22  1  0
 22 23  1  0
 23 24  2  0
 23 25  1  0
 25 26  2  0
 26 27  1  0
 27 28  2  0
 28 29  1  0
 29 30  2  0
 30 31  1  0
 31 32  2  0
 32 33  1  0
 33 34  2  0
 18  8  1  0
 34 25  1  0
 17 11  1  0
 34 29  1  0
  1 35  1  0
  1 36  1  0
  1 37  1  0
  3 38  1  0
  3 39  1  0
  4 40  1  0
  4 41  1  0
  5 42  1  0
  9 43  1  0
 10 44  1  0
 12 45  1  0
 15 46  1  0
 16 47  1  0
 21 48  1  0
 21 49  1  0
 22 50  1  0
 26 51  1  0
 27 52  1  0
 28 53  1  0
 30 54  1  0
 31 55  1  0
 32 56  1  0
 33 57  1  0
M  END
>  <smiles>  (36) 
CN(CCNC(=O)c1ccc2cc(Cl)ccc2n1)C(=O)CNC(=O)c1cccc2ccccc12

>  <score_type>  (36) 
oracle

>  <origin>  (36) 
autodockgpu

>  <m_score__min__energy>  (36) 
-9.7200000000000006

>  <m_primary>  (36) 
energy

>  <rmsd>  (36) 
9.583337553561458

>  <m_score__min__rmsd>  (36) 
9.583337553561458

>  <meeko>  (36) 
{"free_energy": -9.62, "intermolecular_energy": -12.0, "internal_energy": -1.85, "cluster_size": 13, "cluster_id": 2, "rank_in_cluster": 2}

>  <energy>  (36) 
-5.6

>  <cluster_rmsd>  (36) 
1.66

>  <cluster>  (36) 
7

$$$$

     RDKit          3D

 57 60  0  0  0  0  0  0  0  0999 V2000
  141.6830   73.9640  218.5050 C   0  0  0  0  0  0  0  0  0  0  0  0
  141.6510   74.3870  219.8720 N   0  0  0  0  0  0  0  0  0  0  0  0
  143.0040   74.6050  220.4760 C   0  0  0  0  0  0  0  0  0  0  0  0
  143.5570   75.7790  219.6890 C   0  0  0  0  0  0  0  0  0  0  0  0
  142.8120   76.9570  220.0260 N   0  0  0  0  0  0  0  0  0  0  0  0
  142.3100   77.8920  219.0970 C   0  0  0  0  0  0  0  0  0  0  0  0
  142.5200   77.6980  217.8600 O   0  0  0  0  0  0  0  0  0  0  0  0
  141.5570   79.0760  219.5000 C   0  0  0  0  0  0  0  0  0  0  0  0
  142.1980   80.2310  219.8510 C   0  0  0  0  0  0  0  0  0  0  0  0
  141.5610   81.3890  220.2420 C   0  0  0  0  0  0  0  0  0  0  0  0
  140.1830   81.3730  220.2810 C   0  0  0  0  0  0  0  0  0  0  0  0
  139.5490   82.5230  220.6710 C   0  0  0  0  0  0  0  0  0  0  0  0
  138.1740   82.5420  220.7210 C   0  0  0  0  0  0  0  0  0  0  0  0
  137.3100   83.9980  221.2160 Cl  0  0  0  0  0  0  0  0  0  0  0  0
  137.5020   81.3980  220.3750 C   0  0  0  0  0  0  0  0  0  0  0  0
  138.1400   80.2300  219.9800 C   0  0  0  0  0  0  0  0  0  0  0  0
  139.5320   80.2090  219.9290 C   0  0  0  0  0  0  0  0  0  0  0  0
  140.1990   79.0880  219.5470 N   0  0  0  0  0  0  0  0  0  0  0  0
  140.5700   74.6230  220.7100 C   0  0  0  0  0  0  0  0  0  0  0  0
  140.6990   74.1130  221.9210 O   0  0  0  0  0  0  0  0  0  0  0  0
  139.3020   75.3180  220.5440 C   0  0  0  0  0  0  0  0  0  0  0  0
  139.3070   76.6800  220.9190 N   0  0  0  0  0  0  0  0  0  0  0  0
  139.1530   76.9530  222.3370 C   0  0  0  0  0  0  0  0  0  0  0  0
  139.0300   75.9550  223.0940 O   0  0  0  0  0  0  0  0  0  0  0  0
  139.1440   78.3260  222.8410 C   0  0  0  0  0  0  0  0  0  0  0  0
  137.9140   78.9070  223.0800 C   0  0  0  0  0  0  0  0  0  0  0  0
  137.8520   80.2100  223.5590 C   0  0  0  0  0  0  0  0  0  0  0  0
  139.0170   80.9450  223.8020 C   0  0  0  0  0  0  0  0  0  0  0  0
  140.2280   80.3380  223.5540 C   0  0  0  0  0  0  0  0  0  0  0  0
  141.4030   81.0590  223.7910 C   0  0  0  0  0  0  0  0  0  0  0  0
  142.6430   80.4830  223.5540 C   0  0  0  0  0  0  0  0  0  0  0  0
  142.6900   79.1880  223.0790 C   0  0  0  0  0  0  0  0  0  0  0  0
  141.5400   78.4480  222.8340 C   0  0  0  0  0  0  0  0  0  0  0  0
  140.3220   79.0320  223.0740 C   0  0  0  0  0  0  0  0  0  0  0  0
  141.7659   72.8680  218.4622 H   0  0  0  0  0  0  0  0  0  0  0  0
  140.7583   74.2817  218.0011 H   0  0  0  0  0  0  0  0  0  0  0  0
  142.5494   74.4172  218.0011 H   0  0  0  0  0  0  0  0  0  0  0  0
  142.9225   74.8514  221.5449 H   0  0  0  0  0  0  0  0  0  0  0  0
  143.6458   73.7132  220.4237 H   0  0  0  0  0  0  0  0  0  0  0  0
  144.6169   75.9273  219.9431 H   0  0  0  0  0  0  0  0  0  0  0  0
  143.4698   75.5789  218.6109 H   0  0  0  0  0  0  0  0  0  0  0  0
  142.6110   77.1620  221.0460 H   0  0  0  0  0  0  0  0  0  0  0  0
  143.2975   80.2367  219.8192 H   0  0  0  0  0  0  0  0  0  0  0  0
  142.1299   82.2908  220.5124 H   0  0  0  0  0  0  0  0  0  0  0  0
  140.1301   83.4174  220.9400 H   0  0  0  0  0  0  0  0  0  0  0  0
  136.4027   81.4061  220.4123 H   0  0  0  0  0  0  0  0  0  0  0  0
  137.5566   79.3368  219.7120 H   0  0  0  0  0  0  0  0  0  0  0  0
  139.0182   75.2586  219.4829 H   0  0  0  0  0  0  0  0  0  0  0  0
  138.5908   74.8191  221.2188 H   0  0  0  0  0  0  0  0  0  0  0  0
  139.4030   77.5300  220.3460 H   0  0  0  0  0  0  0  0  0  0  0  0
  136.9892   78.3418  222.8923 H   0  0  0  0  0  0  0  0  0  0  0  0
  136.8715   80.6706  223.7500 H   0  0  0  0  0  0  0  0  0  0  0  0
  138.9674   81.9769  224.1798 H   0  0  0  0  0  0  0  0  0  0  0  0
  141.3436   82.0906  224.1682 H   0  0  0  0  0  0  0  0  0  0  0  0
  143.5690   81.0466  223.7408 H   0  0  0  0  0  0  0  0  0  0  0  0
  143.6702   78.7267  222.8881 H   0  0  0  0  0  0  0  0  0  0  0  0
  141.6046   77.4170  222.4561 H   0  0  0  0  0  0  0  0  0  0  0  0
  1  2  1  0
  2  3  1  0
  3  4  1  0
  4  5  1  0
  5  6  1  0
  6  7  2  0
  6  8  1  0
  8  9  2  0
  9 10  1  0
 10 11  2  0
 11 12  1  0
 12 13  2  0
 13 14  1  0
 13 15  1  0
 15 16  2  0
 16 17  1  0
 17 18  2  0
  2 19  1  0
 19 20  2  0
 19 21  1  0
 21 22  1  0
 22 23  1  0
 23 24  2  0
 23 25  1  0
 25 26  2  0
 26 27  1  0
 27 28  2  0
 28 29  1  0
 29 30  2  0
 30 31  1  0
 31 32  2  0
 32 33  1  0
 33 34  2  0
 18  8  1  0
 34 25  1  0
 17 11  1  0
 34 29  1  0
  1 35  1  0
  1 36  1  0
  1 37  1  0
  3 38  1  0
  3 39  1  0
  4 40  1  0
  4 41  1  0
  5 42  1  0
  9 43  1  0
 10 44  1  0
 12 45  1  0
 15 46  1  0
 16 47  1  0
 21 48  1  0
 21 49  1  0
 22 50  1  0
 26 51  1  0
 27 52  1  0
 28 53  1  0
 30 54  1  0
 31 55  1  0
 32 56  1  0
 33 57  1  0
M  END
>  <smiles>  (37) 
CN(CCNC(=O)c1ccc2cc(Cl)ccc2n1)C(=O)CNC(=O)c1cccc2ccccc12

>  <score_type>  (37) 
oracle

>  <origin>  (37) 
autodockgpu

>  <m_score__min__energy>  (37) 
-9.7200000000000006

>  <m_primary>  (37) 
energy

>  <rmsd>  (37) 
6.618136935865483

>  <m_score__min__rmsd>  (37) 
6.618136935865483

>  <meeko>  (37) 
{"free_energy": -6.5, "intermolecular_energy": -8.89, "internal_energy": -5.07, "cluster_size": 13, "cluster_id": 7, "rank_in_cluster": 5}

>  <energy>  (37) 
-5.56

>  <cluster_rmsd>  (37) 
1.9

>  <cluster>  (37) 
7

$$$$

     RDKit          3D

 57 60  0  0  0  0  0  0  0  0999 V2000
  144.9730   73.4330  219.1880 C   0  0  0  0  0  0  0  0  0  0  0  0
  143.6920   74.0720  219.1370 N   0  0  0  0  0  0  0  0  0  0  0  0
  142.8060   73.5770  218.0370 C   0  0  0  0  0  0  0  0  0  0  0  0
  142.9240   74.6560  216.9750 C   0  0  0  0  0  0  0  0  0  0  0  0
  142.4850   75.9030  217.5290 N   0  0  0  0  0  0  0  0  0  0  0  0
  141.1400   76.2510  217.7760 C   0  0  0  0  0  0  0  0  0  0  0  0
  140.2300   75.4110  217.4970 O   0  0  0  0  0  0  0  0  0  0  0  0
  140.7510   77.5390  218.3430 C   0  0  0  0  0  0  0  0  0  0  0  0
  139.4560   77.9740  218.2760 C   0  0  0  0  0  0  0  0  0  0  0  0
  139.0100   79.1740  218.7850 C   0  0  0  0  0  0  0  0  0  0  0  0
  139.9380   79.9870  219.4010 C   0  0  0  0  0  0  0  0  0  0  0  0
  139.4950   81.1810  219.9060 C   0  0  0  0  0  0  0  0  0  0  0  0
  140.3930   82.0170  220.5270 C   0  0  0  0  0  0  0  0  0  0  0  0
  139.8730   83.5640  221.1960 Cl  0  0  0  0  0  0  0  0  0  0  0  0
  141.7000   81.6080  220.6100 C   0  0  0  0  0  0  0  0  0  0  0  0
  142.1540   80.4000  220.1000 C   0  0  0  0  0  0  0  0  0  0  0  0
  141.2450   79.5530  219.4700 C   0  0  0  0  0  0  0  0  0  0  0  0
  141.6450   78.3600  218.9550 N   0  0  0  0  0  0  0  0  0  0  0  0
  143.1580   75.0670  219.9440 C   0  0  0  0  0  0  0  0  0  0  0  0
  143.7790   76.2290  219.8570 O   0  0  0  0  0  0  0  0  0  0  0  0
  142.0470   75.1120  220.8820 C   0  0  0  0  0  0  0  0  0  0  0  0
  141.5810   76.4070  221.2030 N   0  0  0  0  0  0  0  0  0  0  0  0
  140.4240   76.4720  222.0780 C   0  0  0  0  0  0  0  0  0  0  0  0
  139.9480   75.3730  222.4670 O   0  0  0  0  0  0  0  0  0  0  0  0
  139.8550   77.7580  222.4760 C   0  0  0  0  0  0  0  0  0  0  0  0
  138.4840   77.9010  222.3920 C   0  0  0  0  0  0  0  0  0  0  0  0
  137.8950   79.1050  222.7590 C   0  0  0  0  0  0  0  0  0  0  0  0
  138.6710   80.1780  223.2120 C   0  0  0  0  0  0  0  0  0  0  0  0
  140.0350   80.0050  223.2860 C   0  0  0  0  0  0  0  0  0  0  0  0
  140.8240   81.0680  223.7360 C   0  0  0  0  0  0  0  0  0  0  0  0
  142.2030   80.9330  223.8240 C   0  0  0  0  0  0  0  0  0  0  0  0
  142.7750   79.7320  223.4570 C   0  0  0  0  0  0  0  0  0  0  0  0
  142.0150   78.6600  223.0060 C   0  0  0  0  0  0  0  0  0  0  0  0
  140.6530   78.8080  222.9250 C   0  0  0  0  0  0  0  0  0  0  0  0
  145.2679   73.2859  220.2375 H   0  0  0  0  0  0  0  0  0  0  0  0
  144.9165   72.4575  218.6828 H   0  0  0  0  0  0  0  0  0  0  0  0
  145.7183   74.0649  218.6828 H   0  0  0  0  0  0  0  0  0  0  0  0
  143.1585   72.6080  217.6540 H   0  0  0  0  0  0  0  0  0  0  0  0
  141.7693   73.4091  218.3643 H   0  0  0  0  0  0  0  0  0  0  0  0
  143.9720   74.7438  216.6527 H   0  0  0  0  0  0  0  0  0  0  0  0
  142.3012   74.3941  216.1069 H   0  0  0  0  0  0  0  0  0  0  0  0
  143.2070   76.6360  217.7790 H   0  0  0  0  0  0  0  0  0  0  0  0
  138.7208   77.3215  217.7823 H   0  0  0  0  0  0  0  0  0  0  0  0
  137.9543   79.4721  218.7032 H   0  0  0  0  0  0  0  0  0  0  0  0
  138.4366   81.4667  219.8161 H   0  0  0  0  0  0  0  0  0  0  0  0
  142.4243   82.2710  221.1057 H   0  0  0  0  0  0  0  0  0  0  0  0
  143.2128   80.1163  220.1916 H   0  0  0  0  0  0  0  0  0  0  0  0
  141.2098   74.5480  220.4449 H   0  0  0  0  0  0  0  0  0  0  0  0
  142.4241   74.6823  221.8218 H   0  0  0  0  0  0  0  0  0  0  0  0
  141.9290   77.3320  220.9150 H   0  0  0  0  0  0  0  0  0  0  0  0
  137.8616   77.0665  222.0366 H   0  0  0  0  0  0  0  0  0  0  0  0
  136.8027   79.2163  222.6925 H   0  0  0  0  0  0  0  0  0  0  0  0
  138.2049   81.1317  223.5005 H   0  0  0  0  0  0  0  0  0  0  0  0
  140.3488   82.0179  224.0223 H   0  0  0  0  0  0  0  0  0  0  0  0
  142.8269   81.7664  224.1791 H   0  0  0  0  0  0  0  0  0  0  0  0
  143.8672   79.6199  223.5236 H   0  0  0  0  0  0  0  0  0  0  0  0
  142.4949   77.7125  222.7198 H   0  0  0  0  0  0  0  0  0  0  0  0
  1  2  1  0
  2  3  1  0
  3  4  1  0
  4  5  1  0
  5  6  1  0
  6  7  2  0
  6  8  1  0
  8  9  2  0
  9 10  1  0
 10 11  2  0
 11 12  1  0
 12 13  2  0
 13 14  1  0
 13 15  1  0
 15 16  2  0
 16 17  1  0
 17 18  2  0
  2 19  1  0
 19 20  2  0
 19 21  1  0
 21 22  1  0
 22 23  1  0
 23 24  2  0
 23 25  1  0
 25 26  2  0
 26 27  1  0
 27 28  2  0
 28 29  1  0
 29 30  2  0
 30 31  1  0
 31 32  2  0
 32 33  1  0
 33 34  2  0
 18  8  1  0
 34 25  1  0
 17 11  1  0
 34 29  1  0
  1 35  1  0
  1 36  1  0
  1 37  1  0
  3 38  1  0
  3 39  1  0
  4 40  1  0
  4 41  1  0
  5 42  1  0
  9 43  1  0
 10 44  1  0
 12 45  1  0
 15 46  1  0
 16 47  1  0
 21 48  1  0
 21 49  1  0
 22 50  1  0
 26 51  1  0
 27 52  1  0
 28 53  1  0
 30 54  1  0
 31 55  1  0
 32 56  1  0
 33 57  1  0
M  END
>  <smiles>  (38) 
CN(CCNC(=O)c1ccc2cc(Cl)ccc2n1)C(=O)CNC(=O)c1cccc2ccccc12

>  <score_type>  (38) 
oracle

>  <origin>  (38) 
autodockgpu

>  <m_score__min__energy>  (38) 
-9.7200000000000006

>  <m_primary>  (38) 
energy

>  <rmsd>  (38) 
7.056902528895327

>  <m_score__min__rmsd>  (38) 
7.056902528895327

>  <meeko>  (38) 
{"free_energy": -5.6, "intermolecular_energy": -7.99, "internal_energy": -5.54, "cluster_size": 13, "cluster_id": 7, "rank_in_cluster": 12}

>  <energy>  (38) 
-7.37

>  <cluster_rmsd>  (38) 
0.0

>  <cluster>  (38) 
8

$$$$

     RDKit          3D

 57 60  0  0  0  0  0  0  0  0999 V2000
  142.8130   74.2340  220.0350 C   0  0  0  0  0  0  0  0  0  0  0  0
  141.8860   75.2990  219.7950 N   0  0  0  0  0  0  0  0  0  0  0  0
  141.2530   75.8480  221.0350 C   0  0  0  0  0  0  0  0  0  0  0  0
  139.8880   75.1840  221.0590 C   0  0  0  0  0  0  0  0  0  0  0  0
  139.8610   74.2150  222.1160 N   0  0  0  0  0  0  0  0  0  0  0  0
  140.2140   72.8570  221.9780 C   0  0  0  0  0  0  0  0  0  0  0  0
  140.5900   72.4340  220.8410 O   0  0  0  0  0  0  0  0  0  0  0  0
  140.1670   71.9140  223.0930 C   0  0  0  0  0  0  0  0  0  0  0  0
  139.6310   70.6660  222.9350 C   0  0  0  0  0  0  0  0  0  0  0  0
  139.5490   69.7210  223.9340 C   0  0  0  0  0  0  0  0  0  0  0  0
  140.0420   70.0650  225.1750 C   0  0  0  0  0  0  0  0  0  0  0  0
  139.9600   69.1260  226.1690 C   0  0  0  0  0  0  0  0  0  0  0  0
  140.4420   69.4350  227.4200 C   0  0  0  0  0  0  0  0  0  0  0  0
  140.3610   68.2610  228.7340 Cl  0  0  0  0  0  0  0  0  0  0  0  0
  140.9860   70.6800  227.6090 C   0  0  0  0  0  0  0  0  0  0  0  0
  141.0720   71.6350  226.6060 C   0  0  0  0  0  0  0  0  0  0  0  0
  140.5830   71.3220  225.3390 C   0  0  0  0  0  0  0  0  0  0  0  0
  140.6450   72.2270  224.3250 N   0  0  0  0  0  0  0  0  0  0  0  0
  141.4940   75.8890  218.6020 C   0  0  0  0  0  0  0  0  0  0  0  0
  140.5870   75.2050  217.9290 O   0  0  0  0  0  0  0  0  0  0  0  0
  141.8690   77.1160  217.9150 C   0  0  0  0  0  0  0  0  0  0  0  0
  142.1840   78.2060  218.7580 N   0  0  0  0  0  0  0  0  0  0  0  0
  141.0590   78.9770  219.2550 C   0  0  0  0  0  0  0  0  0  0  0  0
  139.9130   78.6020  218.8910 O   0  0  0  0  0  0  0  0  0  0  0  0
  141.2650   80.1270  220.1340 C   0  0  0  0  0  0  0  0  0  0  0  0
  141.1950   81.3830  219.5650 C   0  0  0  0  0  0  0  0  0  0  0  0
  141.3850   82.5080  220.3590 C   0  0  0  0  0  0  0  0  0  0  0  0
  141.6480   82.3880  221.7270 C   0  0  0  0  0  0  0  0  0  0  0  0
  141.7110   81.1220  222.2660 C   0  0  0  0  0  0  0  0  0  0  0  0
  141.9740   80.9840  223.6330 C   0  0  0  0  0  0  0  0  0  0  0  0
  142.0460   79.7260  224.2130 C   0  0  0  0  0  0  0  0  0  0  0  0
  141.8550   78.6170  223.4130 C   0  0  0  0  0  0  0  0  0  0  0  0
  141.5930   78.7240  222.0530 C   0  0  0  0  0  0  0  0  0  0  0  0
  141.5250   79.9750  221.4940 C   0  0  0  0  0  0  0  0  0  0  0  0
  142.9362   74.0924  221.1189 H   0  0  0  0  0  0  0  0  0  0  0  0
  142.4299   73.3061  219.5852 H   0  0  0  0  0  0  0  0  0  0  0  0
  143.7848   74.4855  219.5852 H   0  0  0  0  0  0  0  0  0  0  0  0
  141.8372   75.5785  221.9272 H   0  0  0  0  0  0  0  0  0  0  0  0
  141.1955   76.9465  221.0367 H   0  0  0  0  0  0  0  0  0  0  0  0
  139.1113   75.9430  221.2340 H   0  0  0  0  0  0  0  0  0  0  0  0
  139.6973   74.6894  220.0952 H   0  0  0  0  0  0  0  0  0  0  0  0
  139.5550   74.5200  223.0830 H   0  0  0  0  0  0  0  0  0  0  0  0
  139.2386   70.3985  221.9428 H   0  0  0  0  0  0  0  0  0  0  0  0
  139.1075   68.7306  223.7490 H   0  0  0  0  0  0  0  0  0  0  0  0
  139.5155   68.1397  225.9700 H   0  0  0  0  0  0  0  0  0  0  0  0
  141.3738   70.9343  228.6065 H   0  0  0  0  0  0  0  0  0  0  0  0
  141.5177   72.6204  226.8071 H   0  0  0  0  0  0  0  0  0  0  0  0
  142.7502   76.9017  217.2924 H   0  0  0  0  0  0  0  0  0  0  0  0
  140.9858   77.4235  217.3358 H   0  0  0  0  0  0  0  0  0  0  0  0
  143.0960   78.5550  219.0850 H   0  0  0  0  0  0  0  0  0  0  0  0
  140.9901   81.4927  218.4898 H   0  0  0  0  0  0  0  0  0  0  0  0
  141.3276   83.5079  219.9042 H   0  0  0  0  0  0  0  0  0  0  0  0
  141.8001   83.2786  222.3545 H   0  0  0  0  0  0  0  0  0  0  0  0
  142.1249   81.8801  224.2528 H   0  0  0  0  0  0  0  0  0  0  0  0
  142.2510   79.6143  225.2879 H   0  0  0  0  0  0  0  0  0  0  0  0
  141.9121   77.6167  223.8671 H   0  0  0  0  0  0  0  0  0  0  0  0
  141.4433   77.8248  221.4374 H   0  0  0  0  0  0  0  0  0  0  0  0
  1  2  1  0
  2  3  1  0
  3  4  1  0
  4  5  1  0
  5  6  1  0
  6  7  2  0
  6  8  1  0
  8  9  2  0
  9 10  1  0
 10 11  2  0
 11 12  1  0
 12 13  2  0
 13 14  1  0
 13 15  1  0
 15 16  2  0
 16 17  1  0
 17 18  2  0
  2 19  1  0
 19 20  2  0
 19 21  1  0
 21 22  1  0
 22 23  1  0
 23 24  2  0
 23 25  1  0
 25 26  2  0
 26 27  1  0
 27 28  2  0
 28 29  1  0
 29 30  2  0
 30 31  1  0
 31 32  2  0
 32 33  1  0
 33 34  2  0
 18  8  1  0
 34 25  1  0
 17 11  1  0
 34 29  1  0
  1 35  1  0
  1 36  1  0
  1 37  1  0
  3 38  1  0
  3 39  1  0
  4 40  1  0
  4 41  1  0
  5 42  1  0
  9 43  1  0
 10 44  1  0
 12 45  1  0
 15 46  1  0
 16 47  1  0
 21 48  1  0
 21 49  1  0
 22 50  1  0
 26 51  1  0
 27 52  1  0
 28 53  1  0
 30 54  1  0
 31 55  1  0
 32 56  1  0
 33 57  1  0
M  END
>  <smiles>  (39) 
CN(CCNC(=O)c1ccc2cc(Cl)ccc2n1)C(=O)CNC(=O)c1cccc2ccccc12

>  <score_type>  (39) 
oracle

>  <origin>  (39) 
autodockgpu

>  <m_score__min__energy>  (39) 
-9.7200000000000006

>  <m_primary>  (39) 
energy

>  <rmsd>  (39) 
9.945667980799923

>  <m_score__min__rmsd>  (39) 
9.945667980799923

>  <meeko>  (39) 
{"free_energy": -8.89, "intermolecular_energy": -11.28, "internal_energy": -1.78, "cluster_size": 13, "cluster_id": 2, "rank_in_cluster": 8}

>  <energy>  (39) 
-7.1

>  <cluster_rmsd>  (39) 
0.0

>  <cluster>  (39) 
9

$$$$

     RDKit          3D

 57 60  0  0  0  0  0  0  0  0999 V2000
  139.9060   75.1260  218.8220 C   0  0  0  0  0  0  0  0  0  0  0  0
  140.5020   74.4930  219.9600 N   0  0  0  0  0  0  0  0  0  0  0  0
  141.8470   73.8950  219.6910 C   0  0  0  0  0  0  0  0  0  0  0  0
  142.7980   74.8130  220.4380 C   0  0  0  0  0  0  0  0  0  0  0  0
  142.3800   76.1710  220.2450 N   0  0  0  0  0  0  0  0  0  0  0  0
  142.7220   76.9740  219.1370 C   0  0  0  0  0  0  0  0  0  0  0  0
  143.4550   76.4790  218.2250 O   0  0  0  0  0  0  0  0  0  0  0  0
  142.2670   78.3540  218.9930 C   0  0  0  0  0  0  0  0  0  0  0  0
  142.9260   79.2300  218.1760 C   0  0  0  0  0  0  0  0  0  0  0  0
  142.5610   80.5450  217.9870 C   0  0  0  0  0  0  0  0  0  0  0  0
  141.4550   81.0020  218.6730 C   0  0  0  0  0  0  0  0  0  0  0  0
  141.0920   82.3090  218.4870 C   0  0  0  0  0  0  0  0  0  0  0  0
  139.9940   82.7990  219.1560 C   0  0  0  0  0  0  0  0  0  0  0  0
  139.4840   84.4750  218.9490 Cl  0  0  0  0  0  0  0  0  0  0  0  0
  139.3120   81.9440  219.9830 C   0  0  0  0  0  0  0  0  0  0  0  0
  139.6760   80.6180  220.1760 C   0  0  0  0  0  0  0  0  0  0  0  0
  140.7880   80.1220  219.4990 C   0  0  0  0  0  0  0  0  0  0  0  0
  141.1810   78.8300  219.6580 N   0  0  0  0  0  0  0  0  0  0  0  0
  140.0250   74.3530  221.2560 C   0  0  0  0  0  0  0  0  0  0  0  0
  140.8630   73.7530  222.0810 O   0  0  0  0  0  0  0  0  0  0  0  0
  138.7840   74.7280  221.9170 C   0  0  0  0  0  0  0  0  0  0  0  0
  138.8480   75.9020  222.7000 N   0  0  0  0  0  0  0  0  0  0  0  0
  139.0620   77.1420  221.9750 C   0  0  0  0  0  0  0  0  0  0  0  0
  139.1690   77.0540  220.7240 O   0  0  0  0  0  0  0  0  0  0  0  0
  139.1460   78.4200  222.6820 C   0  0  0  0  0  0  0  0  0  0  0  0
  137.9610   78.9980  223.0920 C   0  0  0  0  0  0  0  0  0  0  0  0
  137.9870   80.2130  223.7670 C   0  0  0  0  0  0  0  0  0  0  0  0
  139.1970   80.8600  224.0380 C   0  0  0  0  0  0  0  0  0  0  0  0
  140.3620   80.2580  223.6180 C   0  0  0  0  0  0  0  0  0  0  0  0
  141.5800   80.8930  223.8810 C   0  0  0  0  0  0  0  0  0  0  0  0
  142.7760   80.3180  223.4730 C   0  0  0  0  0  0  0  0  0  0  0  0
  142.7360   79.1120  222.8040 C   0  0  0  0  0  0  0  0  0  0  0  0
  141.5400   78.4600  222.5290 C   0  0  0  0  0  0  0  0  0  0  0  0
  140.3670   79.0400  222.9380 C   0  0  0  0  0  0  0  0  0  0  0  0
  139.1885   75.8881  219.1603 H   0  0  0  0  0  0  0  0  0  0  0  0
  140.6898   75.6037  218.2158 H   0  0  0  0  0  0  0  0  0  0  0  0
  139.3820   74.3724  218.2158 H   0  0  0  0  0  0  0  0  0  0  0  0
  141.9055   72.8676  220.0797 H   0  0  0  0  0  0  0  0  0  0  0  0
  142.0766   73.8214  218.6177 H   0  0  0  0  0  0  0  0  0  0  0  0
  142.7797   74.5699  221.5106 H   0  0  0  0  0  0  0  0  0  0  0  0
  143.8211   74.6801  220.0565 H   0  0  0  0  0  0  0  0  0  0  0  0
  141.7670   76.6280  220.9780 H   0  0  0  0  0  0  0  0  0  0  0  0
  143.8077   78.8597  217.6325 H   0  0  0  0  0  0  0  0  0  0  0  0
  143.1295   81.2048  217.3151 H   0  0  0  0  0  0  0  0  0  0  0  0
  141.6698   82.9580  217.8125 H   0  0  0  0  0  0  0  0  0  0  0  0
  138.4324   82.3278  220.5205 H   0  0  0  0  0  0  0  0  0  0  0  0
  139.0969   79.9709  220.8512 H   0  0  0  0  0  0  0  0  0  0  0  0
  138.0179   74.8778  221.1420 H   0  0  0  0  0  0  0  0  0  0  0  0
  138.5514   73.9096  222.6143 H   0  0  0  0  0  0  0  0  0  0  0  0
  138.7680   76.0310  223.7180 H   0  0  0  0  0  0  0  0  0  0  0  0
  137.0021   78.5001  222.8857 H   0  0  0  0  0  0  0  0  0  0  0  0
  137.0420   80.6723  224.0928 H   0  0  0  0  0  0  0  0  0  0  0  0
  139.2174   81.8219  224.5712 H   0  0  0  0  0  0  0  0  0  0  0  0
  141.5905   81.8547  224.4148 H   0  0  0  0  0  0  0  0  0  0  0  0
  143.7360   80.8139  223.6790 H   0  0  0  0  0  0  0  0  0  0  0  0
  143.6806   78.6521  222.4780 H   0  0  0  0  0  0  0  0  0  0  0  0
  141.5345   77.4987  221.9944 H   0  0  0  0  0  0  0  0  0  0  0  0
  1  2  1  0
  2  3  1  0
  3  4  1  0
  4  5  1  0
  5  6  1  0
  6  7  2  0
  6  8  1  0
  8  9  2  0
  9 10  1  0
 10 11  2  0
 11 12  1  0
 12 13  2  0
 13 14  1  0
 13 15  1  0
 15 16  2  0
 16 17  1  0
 17 18  2  0
  2 19  1  0
 19 20  2  0
 19 21  1  0
 21 22  1  0
 22 23  1  0
 23 24  2  0
 23 25  1  0
 25 26  2  0
 26 27  1  0
 27 28  2  0
 28 29  1  0
 29 30  2  0
 30 31  1  0
 31 32  2  0
 32 33  1  0
 33 34  2  0
 18  8  1  0
 34 25  1  0
 17 11  1  0
 34 29  1  0
  1 35  1  0
  1 36  1  0
  1 37  1  0
  3 38  1  0
  3 39  1  0
  4 40  1  0
  4 41  1  0
  5 42  1  0
  9 43  1  0
 10 44  1  0
 12 45  1  0
 15 46  1  0
 16 47  1  0
 21 48  1  0
 21 49  1  0
 22 50  1  0
 26 51  1  0
 27 52  1  0
 28 53  1  0
 30 54  1  0
 31 55  1  0
 32 56  1  0
 33 57  1  0
M  END
>  <smiles>  (40) 
CN(CCNC(=O)c1ccc2cc(Cl)ccc2n1)C(=O)CNC(=O)c1cccc2ccccc12

>  <score_type>  (40) 
oracle

>  <origin>  (40) 
autodockgpu

>  <m_score__min__energy>  (40) 
-9.7200000000000006

>  <m_primary>  (40) 
energy

>  <rmsd>  (40) 
6.799162710857384

>  <m_score__min__rmsd>  (40) 
6.799162710857384

>  <meeko>  (40) 
{"free_energy": -6.61, "intermolecular_energy": -9.0, "internal_energy": -3.88, "cluster_size": 13, "cluster_id": 7, "rank_in_cluster": 3}

>  <energy>  (40) 
-6.72

>  <cluster_rmsd>  (40) 
0.82

>  <cluster>  (40) 
9

$$$$

     RDKit          3D

 57 60  0  0  0  0  0  0  0  0999 V2000
  145.2390   73.4190  219.4440 C   0  0  0  0  0  0  0  0  0  0  0  0
  144.0760   74.2080  219.1690 N   0  0  0  0  0  0  0  0  0  0  0  0
  143.4840   73.9700  217.8150 C   0  0  0  0  0  0  0  0  0  0  0  0
  143.9060   75.1960  217.0240 C   0  0  0  0  0  0  0  0  0  0  0  0
  143.2750   76.3530  217.5900 N   0  0  0  0  0  0  0  0  0  0  0  0
  141.8910   76.6200  217.5560 C   0  0  0  0  0  0  0  0  0  0  0  0
  141.1210   75.7850  216.9880 O   0  0  0  0  0  0  0  0  0  0  0  0
  141.3040   77.8170  218.1510 C   0  0  0  0  0  0  0  0  0  0  0  0
  139.9850   78.1230  217.9600 C   0  0  0  0  0  0  0  0  0  0  0  0
  139.3570   79.2320  218.4850 C   0  0  0  0  0  0  0  0  0  0  0  0
  140.1190   80.0870  219.2520 C   0  0  0  0  0  0  0  0  0  0  0  0
  139.4960   81.1910  219.7730 C   0  0  0  0  0  0  0  0  0  0  0  0
  140.2250   82.0660  220.5440 C   0  0  0  0  0  0  0  0  0  0  0  0
  139.4700   83.5010  221.2390 Cl  0  0  0  0  0  0  0  0  0  0  0  0
  141.5510   81.7880  220.7530 C   0  0  0  0  0  0  0  0  0  0  0  0
  142.1870   80.6710  220.2270 C   0  0  0  0  0  0  0  0  0  0  0  0
  141.4500   79.7840  219.4460 C   0  0  0  0  0  0  0  0  0  0  0  0
  142.0310   78.6780  218.9110 N   0  0  0  0  0  0  0  0  0  0  0  0
  143.4250   75.1440  219.9590 C   0  0  0  0  0  0  0  0  0  0  0  0
  144.0770   76.2840  220.1000 O   0  0  0  0  0  0  0  0  0  0  0  0
  142.1610   75.1470  220.6810 C   0  0  0  0  0  0  0  0  0  0  0  0
  141.6550   76.4260  221.0050 N   0  0  0  0  0  0  0  0  0  0  0  0
  140.5350   76.4550  221.9290 C   0  0  0  0  0  0  0  0  0  0  0  0
  140.1240   75.3430  222.3520 O   0  0  0  0  0  0  0  0  0  0  0  0
  139.9310   77.7230  222.3360 C   0  0  0  0  0  0  0  0  0  0  0  0
  138.5630   77.8490  222.1930 C   0  0  0  0  0  0  0  0  0  0  0  0
  137.9410   79.0350  222.5660 C   0  0  0  0  0  0  0  0  0  0  0  0
  138.6790   80.1050  223.0820 C   0  0  0  0  0  0  0  0  0  0  0  0
  140.0410   79.9480  223.2130 C   0  0  0  0  0  0  0  0  0  0  0  0
  140.7930   81.0080  223.7280 C   0  0  0  0  0  0  0  0  0  0  0  0
  142.1680   80.8900  223.8740 C   0  0  0  0  0  0  0  0  0  0  0  0
  142.7740   79.7070  223.5010 C   0  0  0  0  0  0  0  0  0  0  0  0
  142.0510   78.6380  222.9870 C   0  0  0  0  0  0  0  0  0  0  0  0
  140.6920   78.7700  222.8480 C   0  0  0  0  0  0  0  0  0  0  0  0
  145.3720   73.3288  220.5322 H   0  0  0  0  0  0  0  0  0  0  0  0
  145.1150   72.4178  219.0055 H   0  0  0  0  0  0  0  0  0  0  0  0
  146.1234   73.9043  219.0055 H   0  0  0  0  0  0  0  0  0  0  0  0
  143.8896   73.0523  217.3642 H   0  0  0  0  0  0  0  0  0  0  0  0
  142.3930   73.8319  217.8423 H   0  0  0  0  0  0  0  0  0  0  0  0
  144.9990   75.3097  217.0740 H   0  0  0  0  0  0  0  0  0  0  0  0
  143.6041   75.0834  215.9722 H   0  0  0  0  0  0  0  0  0  0  0  0
  143.8760   77.0780  218.0760 H   0  0  0  0  0  0  0  0  0  0  0  0
  139.3839   77.4370  217.3452 H   0  0  0  0  0  0  0  0  0  0  0  0
  138.2904   79.4269  218.2993 H   0  0  0  0  0  0  0  0  0  0  0  0
  138.4292   81.3744  219.5775 H   0  0  0  0  0  0  0  0  0  0  0  0
  142.1405   82.4841  221.3678 H   0  0  0  0  0  0  0  0  0  0  0  0
  143.2540   80.4900  220.4238 H   0  0  0  0  0  0  0  0  0  0  0  0
  141.4131   74.6328  220.0595 H   0  0  0  0  0  0  0  0  0  0  0  0
  142.3566   74.6448  221.6399 H   0  0  0  0  0  0  0  0  0  0  0  0
  141.9510   77.3600  220.6910 H   0  0  0  0  0  0  0  0  0  0  0  0
  137.9697   77.0166  221.7867 H   0  0  0  0  0  0  0  0  0  0  0  0
  136.8512   79.1334  222.4535 H   0  0  0  0  0  0  0  0  0  0  0  0
  138.1864   81.0440  223.3745 H   0  0  0  0  0  0  0  0  0  0  0  0
  140.2912   81.9424  224.0196 H   0  0  0  0  0  0  0  0  0  0  0  0
  142.7629   81.7221  224.2786 H   0  0  0  0  0  0  0  0  0  0  0  0
  143.8636   79.6078  223.6144 H   0  0  0  0  0  0  0  0  0  0  0  0
  142.5571   77.7053  222.6974 H   0  0  0  0  0  0  0  0  0  0  0  0
  1  2  1  0
  2  3  1  0
  3  4  1  0
  4  5  1  0
  5  6  1  0
  6  7  2  0
  6  8  1  0
  8  9  2  0
  9 10  1  0
 10 11  2  0
 11 12  1  0
 12 13  2  0
 13 14  1  0
 13 15  1  0
 15 16  2  0
 16 17  1  0
 17 18  2  0
  2 19  1  0
 19 20  2  0
 19 21  1  0
 21 22  1  0
 22 23  1  0
 23 24  2  0
 23 25  1  0
 25 26  2  0
 26 27  1  0
 27 28  2  0
 28 29  1  0
 29 30  2  0
 30 31  1  0
 31 32  2  0
 32 33  1  0
 33 34  2  0
 18  8  1  0
 34 25  1  0
 17 11  1  0
 34 29  1  0
  1 35  1  0
  1 36  1  0
  1 37  1  0
  3 38  1  0
  3 39  1  0
  4 40  1  0
  4 41  1  0
  5 42  1  0
  9 43  1  0
 10 44  1  0
 12 45  1  0
 15 46  1  0
 16 47  1  0
 21 48  1  0
 21 49  1  0
 22 50  1  0
 26 51  1  0
 27 52  1  0
 28 53  1  0
 30 54  1  0
 31 55  1  0
 32 56  1  0
 33 57  1  0
M  END
>  <smiles>  (41) 
CN(CCNC(=O)c1ccc2cc(Cl)ccc2n1)C(=O)CNC(=O)c1cccc2ccccc12

>  <score_type>  (41) 
oracle

>  <origin>  (41) 
autodockgpu

>  <m_score__min__energy>  (41) 
-9.7200000000000006

>  <m_primary>  (41) 
energy

>  <rmsd>  (41) 
7.068986494384295

>  <m_score__min__rmsd>  (41) 
7.068986494384295

>  <meeko>  (41) 
{"free_energy": -5.92, "intermolecular_energy": -8.3, "internal_energy": -5.45, "cluster_size": 13, "cluster_id": 7, "rank_in_cluster": 9}

>  <energy>  (41) 
-6.61

>  <cluster_rmsd>  (41) 
1.02

>  <cluster>  (41) 
9

$$$$

     RDKit          3D

 57 60  0  0  0  0  0  0  0  0999 V2000
  140.7080   71.1960  221.1560 C   0  0  0  0  0  0  0  0  0  0  0  0
  140.3340   72.4990  221.6190 N   0  0  0  0  0  0  0  0  0  0  0  0
  139.1010   72.5140  222.4670 C   0  0  0  0  0  0  0  0  0  0  0  0
  138.0320   73.0450  221.5280 C   0  0  0  0  0  0  0  0  0  0  0  0
  138.2320   74.4530  221.3450 N   0  0  0  0  0  0  0  0  0  0  0  0
  137.4130   75.4650  221.8880 C   0  0  0  0  0  0  0  0  0  0  0  0
  136.4160   75.1290  222.5980 O   0  0  0  0  0  0  0  0  0  0  0  0
  137.6660   76.8860  221.6670 C   0  0  0  0  0  0  0  0  0  0  0  0
  137.6540   77.4140  220.4060 C   0  0  0  0  0  0  0  0  0  0  0  0
  137.8830   78.7420  220.1150 C   0  0  0  0  0  0  0  0  0  0  0  0
  138.1430   79.5870  221.1720 C   0  0  0  0  0  0  0  0  0  0  0  0
  138.3720   80.9070  220.8830 C   0  0  0  0  0  0  0  0  0  0  0  0
  138.6350   81.7790  221.9140 C   0  0  0  0  0  0  0  0  0  0  0  0
  138.9360   83.4890  221.5950 Cl  0  0  0  0  0  0  0  0  0  0  0  0
  138.6550   81.2790  223.1900 C   0  0  0  0  0  0  0  0  0  0  0  0
  138.4240   79.9430  223.4890 C   0  0  0  0  0  0  0  0  0  0  0  0
  138.1580   79.0590  222.4450 C   0  0  0  0  0  0  0  0  0  0  0  0
  137.9260   77.7420  222.6900 N   0  0  0  0  0  0  0  0  0  0  0  0
  140.9360   73.7300  221.4030 C   0  0  0  0  0  0  0  0  0  0  0  0
  140.6320   74.6490  222.3020 O   0  0  0  0  0  0  0  0  0  0  0  0
  141.8430   74.2420  220.3860 C   0  0  0  0  0  0  0  0  0  0  0  0
  142.1980   75.6030  220.5250 N   0  0  0  0  0  0  0  0  0  0  0  0
  141.1990   76.5710  220.1090 C   0  0  0  0  0  0  0  0  0  0  0  0
  140.1150   76.1080  219.6660 O   0  0  0  0  0  0  0  0  0  0  0  0
  141.4580   78.0060  220.2070 C   0  0  0  0  0  0  0  0  0  0  0  0
  141.5820   78.7120  219.0270 C   0  0  0  0  0  0  0  0  0  0  0  0
  141.8290   80.0800  219.0680 C   0  0  0  0  0  0  0  0  0  0  0  0
  141.9550   80.7530  220.2870 C   0  0  0  0  0  0  0  0  0  0  0  0
  141.8250   80.0220  221.4470 C   0  0  0  0  0  0  0  0  0  0  0  0
  141.9480   80.6800  222.6750 C   0  0  0  0  0  0  0  0  0  0  0  0
  141.8240   79.9790  223.8660 C   0  0  0  0  0  0  0  0  0  0  0  0
  141.5790   78.6220  223.8110 C   0  0  0  0  0  0  0  0  0  0  0  0
  141.4520   77.9420  222.6060 C   0  0  0  0  0  0  0  0  0  0  0  0
  141.5770   78.6490  221.4370 C   0  0  0  0  0  0  0  0  0  0  0  0
  140.8962   70.5403  222.0189 H   0  0  0  0  0  0  0  0  0  0  0  0
  139.8942   70.7758  220.5468 H   0  0  0  0  0  0  0  0  0  0  0  0
  141.6208   71.2714  220.5468 H   0  0  0  0  0  0  0  0  0  0  0  0
  138.8508   71.5010  222.8151 H   0  0  0  0  0  0  0  0  0  0  0  0
  139.2135   73.1226  223.3763 H   0  0  0  0  0  0  0  0  0  0  0  0
  138.1054   72.5324  220.5575 H   0  0  0  0  0  0  0  0  0  0  0  0
  137.0355   72.8628  221.9568 H   0  0  0  0  0  0  0  0  0  0  0  0
  139.0520   74.7830  220.7600 H   0  0  0  0  0  0  0  0  0  0  0  0
  137.4477   76.7333  219.5669 H   0  0  0  0  0  0  0  0  0  0  0  0
  137.8591   79.1125  219.0796 H   0  0  0  0  0  0  0  0  0  0  0  0
  138.3459   81.2637  219.8428 H   0  0  0  0  0  0  0  0  0  0  0  0
  138.8646   81.9711  224.0189 H   0  0  0  0  0  0  0  0  0  0  0  0
  138.4504   79.5890  224.5301 H   0  0  0  0  0  0  0  0  0  0  0  0
  142.7659   73.6445  220.4215 H   0  0  0  0  0  0  0  0  0  0  0  0
  141.3045   74.1636  219.4300 H   0  0  0  0  0  0  0  0  0  0  0  0
  143.0640   76.0330  220.8780 H   0  0  0  0  0  0  0  0  0  0  0  0
  141.4860   78.1957  218.0605 H   0  0  0  0  0  0  0  0  0  0  0  0
  141.9267   80.6411  218.1269 H   0  0  0  0  0  0  0  0  0  0  0  0
  142.1522   81.8347  220.3187 H   0  0  0  0  0  0  0  0  0  0  0  0
  142.1446   81.7621  222.6968 H   0  0  0  0  0  0  0  0  0  0  0  0
  141.9190   80.4939  224.8334 H   0  0  0  0  0  0  0  0  0  0  0  0
  141.4811   78.0604  224.7518 H   0  0  0  0  0  0  0  0  0  0  0  0
  141.2554   76.8598  222.5897 H   0  0  0  0  0  0  0  0  0  0  0  0
  1  2  1  0
  2  3  1  0
  3  4  1  0
  4  5  1  0
  5  6  1  0
  6  7  2  0
  6  8  1  0
  8  9  2  0
  9 10  1  0
 10 11  2  0
 11 12  1  0
 12 13  2  0
 13 14  1  0
 13 15  1  0
 15 16  2  0
 16 17  1  0
 17 18  2  0
  2 19  1  0
 19 20  2  0
 19 21  1  0
 21 22  1  0
 22 23  1  0
 23 24  2  0
 23 25  1  0
 25 26  2  0
 26 27  1  0
 27 28  2  0
 28 29  1  0
 29 30  2  0
 30 31  1  0
 31 32  2  0
 32 33  1  0
 33 34  2  0
 18  8  1  0
 34 25  1  0
 17 11  1  0
 34 29  1  0
  1 35  1  0
  1 36  1  0
  1 37  1  0
  3 38  1  0
  3 39  1  0
  4 40  1  0
  4 41  1  0
  5 42  1  0
  9 43  1  0
 10 44  1  0
 12 45  1  0
 15 46  1  0
 16 47  1  0
 21 48  1  0
 21 49  1  0
 22 50  1  0
 26 51  1  0
 27 52  1  0
 28 53  1  0
 30 54  1  0
 31 55  1  0
 32 56  1  0
 33 57  1  0
M  END
>  <smiles>  (42) 
CN(CCNC(=O)c1ccc2cc(Cl)ccc2n1)C(=O)CNC(=O)c1cccc2ccccc12

>  <score_type>  (42) 
oracle

>  <origin>  (42) 
autodockgpu

>  <m_score__min__energy>  (42) 
-9.7200000000000006

>  <m_primary>  (42) 
energy

>  <rmsd>  (42) 
7.314491154059637

>  <m_score__min__rmsd>  (42) 
7.314491154059637

>  <meeko>  (42) 
{"free_energy": -5.98, "intermolecular_energy": -8.37, "internal_energy": -5.27, "cluster_size": 3, "cluster_id": 12, "rank_in_cluster": 2}

>  <energy>  (42) 
-6.05

>  <cluster_rmsd>  (42) 
1.17

>  <cluster>  (42) 
9

$$$$

     RDKit          3D

 57 60  0  0  0  0  0  0  0  0999 V2000
  133.8210   76.2020  223.8700 C   0  0  0  0  0  0  0  0  0  0  0  0
  134.8300   76.4480  222.8840 N   0  0  0  0  0  0  0  0  0  0  0  0
  135.2860   75.2220  222.1570 C   0  0  0  0  0  0  0  0  0  0  0  0
  136.7210   75.0490  222.6200 C   0  0  0  0  0  0  0  0  0  0  0  0
  137.5540   75.9750  221.9100 N   0  0  0  0  0  0  0  0  0  0  0  0
  138.9630   76.0030  221.9610 C   0  0  0  0  0  0  0  0  0  0  0  0
  139.5660   75.1500  222.6840 O   0  0  0  0  0  0  0  0  0  0  0  0
  139.7600   76.9720  221.2140 C   0  0  0  0  0  0  0  0  0  0  0  0
  141.1050   76.7930  221.0430 C   0  0  0  0  0  0  0  0  0  0  0  0
  141.9260   77.6590  220.3540 C   0  0  0  0  0  0  0  0  0  0  0  0
  141.3440   78.7800  219.8020 C   0  0  0  0  0  0  0  0  0  0  0  0
  142.1590   79.6430  219.1180 C   0  0  0  0  0  0  0  0  0  0  0  0
  141.6120   80.7720  218.5540 C   0  0  0  0  0  0  0  0  0  0  0  0
  142.6180   81.9140  217.6620 Cl  0  0  0  0  0  0  0  0  0  0  0  0
  140.2650   80.9800  218.7090 C   0  0  0  0  0  0  0  0  0  0  0  0
  139.4340   80.1100  219.4020 C   0  0  0  0  0  0  0  0  0  0  0  0
  139.9880   78.9660  219.9730 C   0  0  0  0  0  0  0  0  0  0  0  0
  139.2130   78.0850  220.6610 N   0  0  0  0  0  0  0  0  0  0  0  0
  135.4390   77.6370  222.5080 C   0  0  0  0  0  0  0  0  0  0  0  0
  135.4520   77.8520  221.2050 O   0  0  0  0  0  0  0  0  0  0  0  0
  136.0800   78.7170  223.2440 C   0  0  0  0  0  0  0  0  0  0  0  0
  137.1970   79.3020  222.6060 N   0  0  0  0  0  0  0  0  0  0  0  0
  137.9190   80.3020  223.3720 C   0  0  0  0  0  0  0  0  0  0  0  0
  137.4840   80.5510  224.5270 O   0  0  0  0  0  0  0  0  0  0  0  0
  139.0900   80.9740  222.8120 C   0  0  0  0  0  0  0  0  0  0  0  0
  138.8820   82.1650  222.1450 C   0  0  0  0  0  0  0  0  0  0  0  0
  139.9640   82.8420  221.5950 C   0  0  0  0  0  0  0  0  0  0  0  0
  141.2630   82.3350  221.7050 C   0  0  0  0  0  0  0  0  0  0  0  0
  141.4390   81.1460  222.3770 C   0  0  0  0  0  0  0  0  0  0  0  0
  142.7310   80.6250  222.4960 C   0  0  0  0  0  0  0  0  0  0  0  0
  142.9500   79.4290  223.1640 C   0  0  0  0  0  0  0  0  0  0  0  0
  141.8670   78.7670  223.7060 C   0  0  0  0  0  0  0  0  0  0  0  0
  140.5730   79.2610  223.6030 C   0  0  0  0  0  0  0  0  0  0  0  0
  140.3730   80.4450  222.9390 C   0  0  0  0  0  0  0  0  0  0  0  0
  134.2564   76.3082  224.8746 H   0  0  0  0  0  0  0  0  0  0  0  0
  133.0030   76.9270  223.7464 H   0  0  0  0  0  0  0  0  0  0  0  0
  133.4285   75.1819  223.7464 H   0  0  0  0  0  0  0  0  0  0  0  0
  134.6754   74.3502  222.4347 H   0  0  0  0  0  0  0  0  0  0  0  0
  135.1963   75.3134  221.0645 H   0  0  0  0  0  0  0  0  0  0  0  0
  136.7867   75.2467  223.7001 H   0  0  0  0  0  0  0  0  0  0  0  0
  137.0548   74.0199  222.4211 H   0  0  0  0  0  0  0  0  0  0  0  0
  137.0980   76.7050  221.2920 H   0  0  0  0  0  0  0  0  0  0  0  0
  141.5628   75.8962  221.4859 H   0  0  0  0  0  0  0  0  0  0  0  0
  143.0033   77.4635  220.2486 H   0  0  0  0  0  0  0  0  0  0  0  0
  143.2350   79.4361  219.0212 H   0  0  0  0  0  0  0  0  0  0  0  0
  139.8208   81.8815  218.2617 H   0  0  0  0  0  0  0  0  0  0  0  0
  138.3585   80.3199  219.4985 H   0  0  0  0  0  0  0  0  0  0  0  0
  135.3317   79.5060  223.4104 H   0  0  0  0  0  0  0  0  0  0  0  0
  136.4607   78.2681  224.1733 H   0  0  0  0  0  0  0  0  0  0  0  0
  137.5930   79.1370  221.6710 H   0  0  0  0  0  0  0  0  0  0  0  0
  137.8660   82.5755  222.0495 H   0  0  0  0  0  0  0  0  0  0  0  0
  139.7963   83.7912  221.0650 H   0  0  0  0  0  0  0  0  0  0  0  0
  142.1187   82.8703  221.2676 H   0  0  0  0  0  0  0  0  0  0  0  0
  143.5807   81.1678  222.0564 H   0  0  0  0  0  0  0  0  0  0  0  0
  143.9654   79.0170  223.2597 H   0  0  0  0  0  0  0  0  0  0  0  0
  142.0340   77.8179  224.2364 H   0  0  0  0  0  0  0  0  0  0  0  0
  139.7264   78.7146  224.0444 H   0  0  0  0  0  0  0  0  0  0  0  0
  1  2  1  0
  2  3  1  0
  3  4  1  0
  4  5  1  0
  5  6  1  0
  6  7  2  0
  6  8  1  0
  8  9  2  0
  9 10  1  0
 10 11  2  0
 11 12  1  0
 12 13  2  0
 13 14  1  0
 13 15  1  0
 15 16  2  0
 16 17  1  0
 17 18  2  0
  2 19  1  0
 19 20  2  0
 19 21  1  0
 21 22  1  0
 22 23  1  0
 23 24  2  0
 23 25  1  0
 25 26  2  0
 26 27  1  0
 27 28  2  0
 28 29  1  0
 29 30  2  0
 30 31  1  0
 31 32  2  0
 32 33  1  0
 33 34  2  0
 18  8  1  0
 34 25  1  0
 17 11  1  0
 34 29  1  0
  1 35  1  0
  1 36  1  0
  1 37  1  0
  3 38  1  0
  3 39  1  0
  4 40  1  0
  4 41  1  0
  5 42  1  0
  9 43  1  0
 10 44  1  0
 12 45  1  0
 15 46  1  0
 16 47  1  0
 21 48  1  0
 21 49  1  0
 22 50  1  0
 26 51  1  0
 27 52  1  0
 28 53  1  0
 30 54  1  0
 31 55  1  0
 32 56  1  0
 33 57  1  0
M  END
>  <smiles>  (43) 
CN(CCNC(=O)c1ccc2cc(Cl)ccc2n1)C(=O)CNC(=O)c1cccc2ccccc12

>  <score_type>  (43) 
oracle

>  <origin>  (43) 
autodockgpu

>  <m_score__min__energy>  (43) 
-9.7200000000000006

>  <m_primary>  (43) 
energy

>  <rmsd>  (43) 
8.6873697662543

>  <m_score__min__rmsd>  (43) 
8.6873697662543

>  <meeko>  (43) 
{"free_energy": -5.81, "intermolecular_energy": -8.2, "internal_energy": -5.66, "cluster_size": 2, "cluster_id": 11, "rank_in_cluster": 2}

>  <energy>  (43) 
-6.18

>  <cluster_rmsd>  (43) 
0.0

>  <cluster>  (43) 
10

$$$$

     RDKit          3D

 57 60  0  0  0  0  0  0  0  0999 V2000
  137.5480   75.6640  221.7700 C   0  0  0  0  0  0  0  0  0  0  0  0
  138.3960   74.5760  221.3880 N   0  0  0  0  0  0  0  0  0  0  0  0
  137.7500   73.5960  220.4590 C   0  0  0  0  0  0  0  0  0  0  0  0
  136.7070   72.9180  221.3290 C   0  0  0  0  0  0  0  0  0  0  0  0
  137.3690   72.2370  222.4040 N   0  0  0  0  0  0  0  0  0  0  0  0
  137.5170   70.8390  222.5090 C   0  0  0  0  0  0  0  0  0  0  0  0
  137.0360   70.1030  221.5920 O   0  0  0  0  0  0  0  0  0  0  0  0
  138.2020   70.2010  223.6280 C   0  0  0  0  0  0  0  0  0  0  0  0
  138.2080   68.8400  223.7660 C   0  0  0  0  0  0  0  0  0  0  0  0
  138.8300   68.1620  224.7920 C   0  0  0  0  0  0  0  0  0  0  0  0
  139.4880   68.9150  225.7420 C   0  0  0  0  0  0  0  0  0  0  0  0
  140.1060   68.2420  226.7630 C   0  0  0  0  0  0  0  0  0  0  0  0
  140.7720   68.9610  227.7280 C   0  0  0  0  0  0  0  0  0  0  0  0
  141.5840   68.1420  229.0630 Cl  0  0  0  0  0  0  0  0  0  0  0  0
  140.7830   70.3270  227.6190 C   0  0  0  0  0  0  0  0  0  0  0  0
  140.1590   71.0140  226.5860 C   0  0  0  0  0  0  0  0  0  0  0  0
  139.4840   70.2870  225.6080 C   0  0  0  0  0  0  0  0  0  0  0  0
  138.8580   70.9170  224.5790 N   0  0  0  0  0  0  0  0  0  0  0  0
  139.7080   74.2980  221.7450 C   0  0  0  0  0  0  0  0  0  0  0  0
  139.8340   73.3600  222.6660 O   0  0  0  0  0  0  0  0  0  0  0  0
  140.9980   74.8220  221.3210 C   0  0  0  0  0  0  0  0  0  0  0  0
  141.4480   75.9600  222.0280 N   0  0  0  0  0  0  0  0  0  0  0  0
  140.9470   77.2410  221.5640 C   0  0  0  0  0  0  0  0  0  0  0  0
  140.1620   77.2170  220.5800 O   0  0  0  0  0  0  0  0  0  0  0  0
  141.3460   78.4850  222.2200 C   0  0  0  0  0  0  0  0  0  0  0  0
  141.7310   78.4110  223.5440 C   0  0  0  0  0  0  0  0  0  0  0  0
  142.1190   79.5660  224.2120 C   0  0  0  0  0  0  0  0  0  0  0  0
  142.1240   80.8060  223.5640 C   0  0  0  0  0  0  0  0  0  0  0  0
  141.7360   80.8480  222.2440 C   0  0  0  0  0  0  0  0  0  0  0  0
  141.7350   82.0800  221.5810 C   0  0  0  0  0  0  0  0  0  0  0  0
  141.3500   82.1640  220.2510 C   0  0  0  0  0  0  0  0  0  0  0  0
  140.9680   81.0090  219.5990 C   0  0  0  0  0  0  0  0  0  0  0  0
  140.9590   79.7720  220.2320 C   0  0  0  0  0  0  0  0  0  0  0  0
  141.3420   79.7050  221.5470 C   0  0  0  0  0  0  0  0  0  0  0  0
  137.5009   75.7244  222.8673 H   0  0  0  0  0  0  0  0  0  0  0  0
  137.9541   76.6040  221.3681 H   0  0  0  0  0  0  0  0  0  0  0  0
  136.5373   75.4997  221.3681 H   0  0  0  0  0  0  0  0  0  0  0  0
  137.2785   74.1116  219.6094 H   0  0  0  0  0  0  0  0  0  0  0  0
  138.4664   72.8874  220.0178 H   0  0  0  0  0  0  0  0  0  0  0  0
  136.0200   73.6734  221.7381 H   0  0  0  0  0  0  0  0  0  0  0  0
  136.1331   72.1967  220.7286 H   0  0  0  0  0  0  0  0  0  0  0  0
  137.7870   72.8090  223.1920 H   0  0  0  0  0  0  0  0  0  0  0  0
  137.6800   68.2458  223.0056 H   0  0  0  0  0  0  0  0  0  0  0  0
  138.8028   67.0639  224.8510 H   0  0  0  0  0  0  0  0  0  0  0  0
  140.0701   67.1436  226.8102 H   0  0  0  0  0  0  0  0  0  0  0  0
  141.3126   70.9083  228.3882 H   0  0  0  0  0  0  0  0  0  0  0  0
  140.1970   72.1124  226.5408 H   0  0  0  0  0  0  0  0  0  0  0  0
  141.7464   74.0257  221.4465 H   0  0  0  0  0  0  0  0  0  0  0  0
  140.8683   75.1433  220.2770 H   0  0  0  0  0  0  0  0  0  0  0  0
  142.0850   76.0360  222.8330 H   0  0  0  0  0  0  0  0  0  0  0  0
  141.7306   77.4433  224.0669 H   0  0  0  0  0  0  0  0  0  0  0  0
  142.4269   79.5045  225.2662 H   0  0  0  0  0  0  0  0  0  0  0  0
  142.4290   81.7205  224.0938 H   0  0  0  0  0  0  0  0  0  0  0  0
  142.0420   82.9892  222.1187 H   0  0  0  0  0  0  0  0  0  0  0  0
  141.3492   83.1311  219.7268 H   0  0  0  0  0  0  0  0  0  0  0  0
  140.6608   81.0697  218.5445 H   0  0  0  0  0  0  0  0  0  0  0  0
  140.6512   78.8658  219.6897 H   0  0  0  0  0  0  0  0  0  0  0  0
  1  2  1  0
  2  3  1  0
  3  4  1  0
  4  5  1  0
  5  6  1  0
  6  7  2  0
  6  8  1  0
  8  9  2  0
  9 10  1  0
 10 11  2  0
 11 12  1  0
 12 13  2  0
 13 14  1  0
 13 15  1  0
 15 16  2  0
 16 17  1  0
 17 18  2  0
  2 19  1  0
 19 20  2  0
 19 21  1  0
 21 22  1  0
 22 23  1  0
 23 24  2  0
 23 25  1  0
 25 26  2  0
 26 27  1  0
 27 28  2  0
 28 29  1  0
 29 30  2  0
 30 31  1  0
 31 32  2  0
 32 33  1  0
 33 34  2  0
 18  8  1  0
 34 25  1  0
 17 11  1  0
 34 29  1  0
  1 35  1  0
  1 36  1  0
  1 37  1  0
  3 38  1  0
  3 39  1  0
  4 40  1  0
  4 41  1  0
  5 42  1  0
  9 43  1  0
 10 44  1  0
 12 45  1  0
 15 46  1  0
 16 47  1  0
 21 48  1  0
 21 49  1  0
 22 50  1  0
 26 51  1  0
 27 52  1  0
 28 53  1  0
 30 54  1  0
 31 55  1  0
 32 56  1  0
 33 57  1  0
M  END
>  <smiles>  (44) 
CN(CCNC(=O)c1ccc2cc(Cl)ccc2n1)C(=O)CNC(=O)c1cccc2ccccc12

>  <score_type>  (44) 
oracle

>  <origin>  (44) 
autodockgpu

>  <m_score__min__energy>  (44) 
-9.7200000000000006

>  <m_primary>  (44) 
energy

>  <rmsd>  (44) 
10.354205626756745

>  <m_score__min__rmsd>  (44) 
10.354205626756745

>  <meeko>  (44) 
{"free_energy": -9.23, "intermolecular_energy": -11.62, "internal_energy": -2.26, "cluster_size": 13, "cluster_id": 2, "rank_in_cluster": 7}

>  <energy>  (44) 
-6.14

>  <cluster_rmsd>  (44) 
0.0

>  <cluster>  (44) 
11

$$$$

     RDKit          3D

 57 60  0  0  0  0  0  0  0  0999 V2000
  138.1090   73.4190  219.2460 C   0  0  0  0  0  0  0  0  0  0  0  0
  137.7060   72.5400  220.3020 N   0  0  0  0  0  0  0  0  0  0  0  0
  136.2620   72.6590  220.6780 C   0  0  0  0  0  0  0  0  0  0  0  0
  136.3060   72.9450  222.1680 C   0  0  0  0  0  0  0  0  0  0  0  0
  137.1130   74.1100  222.3940 N   0  0  0  0  0  0  0  0  0  0  0  0
  136.6850   75.4400  222.2070 C   0  0  0  0  0  0  0  0  0  0  0  0
  135.4980   75.6510  221.8090 O   0  0  0  0  0  0  0  0  0  0  0  0
  137.5530   76.5890  222.4530 C   0  0  0  0  0  0  0  0  0  0  0  0
  137.0300   77.8420  222.6130 C   0  0  0  0  0  0  0  0  0  0  0  0
  137.7790   78.9750  222.8480 C   0  0  0  0  0  0  0  0  0  0  0  0
  139.1480   78.8260  222.9230 C   0  0  0  0  0  0  0  0  0  0  0  0
  139.8940   79.9520  223.1550 C   0  0  0  0  0  0  0  0  0  0  0  0
  141.2620   79.8400  223.2370 C   0  0  0  0  0  0  0  0  0  0  0  0
  142.2670   81.2590  223.5350 Cl  0  0  0  0  0  0  0  0  0  0  0  0
  141.8160   78.5960  223.0790 C   0  0  0  0  0  0  0  0  0  0  0  0
  141.0660   77.4520  222.8430 C   0  0  0  0  0  0  0  0  0  0  0  0
  139.6790   77.5640  222.7610 C   0  0  0  0  0  0  0  0  0  0  0  0
  138.9040   76.4710  222.5310 N   0  0  0  0  0  0  0  0  0  0  0  0
  138.4430   71.6080  221.0190 C   0  0  0  0  0  0  0  0  0  0  0  0
  137.7820   70.5050  221.3170 O   0  0  0  0  0  0  0  0  0  0  0  0
  139.8080   71.5780  221.5240 C   0  0  0  0  0  0  0  0  0  0  0  0
  140.7310   72.3790  220.8140 N   0  0  0  0  0  0  0  0  0  0  0  0
  140.8980   73.7390  221.2920 C   0  0  0  0  0  0  0  0  0  0  0  0
  140.2080   74.0760  222.2900 O   0  0  0  0  0  0  0  0  0  0  0  0
  141.8260   74.6580  220.6350 C   0  0  0  0  0  0  0  0  0  0  0  0
  143.1710   74.3510  220.6930 C   0  0  0  0  0  0  0  0  0  0  0  0
  144.0940   75.1940  220.0830 C   0  0  0  0  0  0  0  0  0  0  0  0
  143.6820   76.3490  219.4120 C   0  0  0  0  0  0  0  0  0  0  0  0
  142.3330   76.6270  219.3700 C   0  0  0  0  0  0  0  0  0  0  0  0
  141.9040   77.7790  218.7030 C   0  0  0  0  0  0  0  0  0  0  0  0
  140.5550   78.0940  218.6390 C   0  0  0  0  0  0  0  0  0  0  0  0
  139.6490   77.2500  219.2480 C   0  0  0  0  0  0  0  0  0  0  0  0
  140.0470   76.0990  219.9180 C   0  0  0  0  0  0  0  0  0  0  0  0
  141.3850   75.8010  219.9720 C   0  0  0  0  0  0  0  0  0  0  0  0
  138.5310   74.3394  219.6760 H   0  0  0  0  0  0  0  0  0  0  0  0
  138.8692   72.9221  218.6254 H   0  0  0  0  0  0  0  0  0  0  0  0
  137.2364   73.6708  218.6254 H   0  0  0  0  0  0  0  0  0  0  0  0
  135.7806   73.4846  220.1333 H   0  0  0  0  0  0  0  0  0  0  0  0
  135.6796   71.7589  220.4316 H   0  0  0  0  0  0  0  0  0  0  0  0
  135.2864   73.1243  222.5399 H   0  0  0  0  0  0  0  0  0  0  0  0
  136.7369   72.0841  222.7002 H   0  0  0  0  0  0  0  0  0  0  0  0
  138.1110   73.9850  222.7270 H   0  0  0  0  0  0  0  0  0  0  0  0
  135.9375   77.9535  222.5499 H   0  0  0  0  0  0  0  0  0  0  0  0
  137.3035   79.9593  222.9709 H   0  0  0  0  0  0  0  0  0  0  0  0
  139.4058   80.9305  223.2738 H   0  0  0  0  0  0  0  0  0  0  0  0
  142.9099   78.4995  223.1424 H   0  0  0  0  0  0  0  0  0  0  0  0
  141.5571   76.4751  222.7229 H   0  0  0  0  0  0  0  0  0  0  0  0
  139.7918   71.9224  222.5686 H   0  0  0  0  0  0  0  0  0  0  0  0
  140.1531   70.5400  221.4083 H   0  0  0  0  0  0  0  0  0  0  0  0
  141.3170   72.1560  219.9970 H   0  0  0  0  0  0  0  0  0  0  0  0
  143.5102   73.4459  221.2181 H   0  0  0  0  0  0  0  0  0  0  0  0
  145.1651   74.9479  220.1293 H   0  0  0  0  0  0  0  0  0  0  0  0
  144.4130   77.0162  218.9318 H   0  0  0  0  0  0  0  0  0  0  0  0
  142.6422   78.4402  218.2256 H   0  0  0  0  0  0  0  0  0  0  0  0
  140.2141   78.9982  218.1135 H   0  0  0  0  0  0  0  0  0  0  0  0
  138.5778   77.4958  219.2018 H   0  0  0  0  0  0  0  0  0  0  0  0
  139.3052   75.4413  220.3946 H   0  0  0  0  0  0  0  0  0  0  0  0
  1  2  1  0
  2  3  1  0
  3  4  1  0
  4  5  1  0
  5  6  1  0
  6  7  2  0
  6  8  1  0
  8  9  2  0
  9 10  1  0
 10 11  2  0
 11 12  1  0
 12 13  2  0
 13 14  1  0
 13 15  1  0
 15 16  2  0
 16 17  1  0
 17 18  2  0
  2 19  1  0
 19 20  2  0
 19 21  1  0
 21 22  1  0
 22 23  1  0
 23 24  2  0
 23 25  1  0
 25 26  2  0
 26 27  1  0
 27 28  2  0
 28 29  1  0
 29 30  2  0
 30 31  1  0
 31 32  2  0
 32 33  1  0
 33 34  2  0
 18  8  1  0
 34 25  1  0
 17 11  1  0
 34 29  1  0
  1 35  1  0
  1 36  1  0
  1 37  1  0
  3 38  1  0
  3 39  1  0
  4 40  1  0
  4 41  1  0
  5 42  1  0
  9 43  1  0
 10 44  1  0
 12 45  1  0
 15 46  1  0
 16 47  1  0
 21 48  1  0
 21 49  1  0
 22 50  1  0
 26 51  1  0
 27 52  1  0
 28 53  1  0
 30 54  1  0
 31 55  1  0
 32 56  1  0
 33 57  1  0
M  END
>  <smiles>  (45) 
CN(CCNC(=O)c1ccc2cc(Cl)ccc2n1)C(=O)CNC(=O)c1cccc2ccccc12

>  <score_type>  (45) 
oracle

>  <origin>  (45) 
autodockgpu

>  <m_score__min__energy>  (45) 
-9.7200000000000006

>  <m_primary>  (45) 
energy

>  <rmsd>  (45) 
6.809107987169539

>  <m_score__min__rmsd>  (45) 
6.809107987169539

>  <meeko>  (45) 
{"free_energy": -6.18, "intermolecular_energy": -8.57, "internal_energy": -4.39, "cluster_size": 1, "cluster_id": 10, "rank_in_cluster": 1}

>  <energy>  (45) 
-5.81

>  <cluster_rmsd>  (45) 
0.45

>  <cluster>  (45) 
11

$$$$

     RDKit          3D

 57 60  0  0  0  0  0  0  0  0999 V2000
  140.7970   71.7500  220.1160 C   0  0  0  0  0  0  0  0  0  0  0  0
  140.2420   73.0660  220.2220 N   0  0  0  0  0  0  0  0  0  0  0  0
  138.7850   73.1430  219.8850 C   0  0  0  0  0  0  0  0  0  0  0  0
  138.1650   73.7500  221.1300 C   0  0  0  0  0  0  0  0  0  0  0  0
  138.7420   73.1270  222.2870 N   0  0  0  0  0  0  0  0  0  0  0  0
  138.6600   71.7530  222.5930 C   0  0  0  0  0  0  0  0  0  0  0  0
  138.0340   70.9850  221.7980 O   0  0  0  0  0  0  0  0  0  0  0  0
  139.2680   71.1740  223.7870 C   0  0  0  0  0  0  0  0  0  0  0  0
  140.2800   71.8190  224.4430 C   0  0  0  0  0  0  0  0  0  0  0  0
  140.9050   71.3410  225.5740 C   0  0  0  0  0  0  0  0  0  0  0  0
  140.4770   70.1280  226.0710 C   0  0  0  0  0  0  0  0  0  0  0  0
  141.0990   69.6510  227.1950 C   0  0  0  0  0  0  0  0  0  0  0  0
  140.6970   68.4440  227.7180 C   0  0  0  0  0  0  0  0  0  0  0  0
  141.4650   67.7860  229.1640 Cl  0  0  0  0  0  0  0  0  0  0  0  0
  139.6850   67.7730  227.0820 C   0  0  0  0  0  0  0  0  0  0  0  0
  139.0510   68.2510  225.9430 C   0  0  0  0  0  0  0  0  0  0  0  0
  139.4580   69.4730  225.4120 C   0  0  0  0  0  0  0  0  0  0  0  0
  138.8660   69.9810  224.2980 N   0  0  0  0  0  0  0  0  0  0  0  0
  140.8440   74.2620  220.5860 C   0  0  0  0  0  0  0  0  0  0  0  0
  141.0150   74.4110  221.8870 O   0  0  0  0  0  0  0  0  0  0  0  0
  141.3340   75.4100  219.8370 C   0  0  0  0  0  0  0  0  0  0  0  0
  141.8170   76.4800  220.6230 N   0  0  0  0  0  0  0  0  0  0  0  0
  140.8110   77.3200  221.2490 C   0  0  0  0  0  0  0  0  0  0  0  0
  139.6090   77.0150  221.0340 O   0  0  0  0  0  0  0  0  0  0  0  0
  141.1960   78.4560  222.0840 C   0  0  0  0  0  0  0  0  0  0  0  0
  141.5160   78.1970  223.4020 C   0  0  0  0  0  0  0  0  0  0  0  0
  141.8880   79.2450  224.2370 C   0  0  0  0  0  0  0  0  0  0  0  0
  141.9410   80.5600  223.7630 C   0  0  0  0  0  0  0  0  0  0  0  0
  141.6160   80.7860  222.4440 C   0  0  0  0  0  0  0  0  0  0  0  0
  141.6640   82.0950  221.9550 C   0  0  0  0  0  0  0  0  0  0  0  0
  141.3440   82.3650  220.6320 C   0  0  0  0  0  0  0  0  0  0  0  0
  140.9770   81.3160  219.8130 C   0  0  0  0  0  0  0  0  0  0  0  0
  140.9210   80.0060  220.2720 C   0  0  0  0  0  0  0  0  0  0  0  0
  141.2400   79.7550  221.5830 C   0  0  0  0  0  0  0  0  0  0  0  0
  140.9689   71.3424  221.1231 H   0  0  0  0  0  0  0  0  0  0  0  0
  140.0966   71.0994  219.5717 H   0  0  0  0  0  0  0  0  0  0  0  0
  141.7517   71.7974  219.5717 H   0  0  0  0  0  0  0  0  0  0  0  0
  138.6176   73.7865  219.0087 H   0  0  0  0  0  0  0  0  0  0  0  0
  138.3533   72.1654  219.6244 H   0  0  0  0  0  0  0  0  0  0  0  0
  138.3665   74.8311  221.1535 H   0  0  0  0  0  0  0  0  0  0  0  0
  137.0771   73.5872  221.1222 H   0  0  0  0  0  0  0  0  0  0  0  0
  139.2750   73.7260  222.9790 H   0  0  0  0  0  0  0  0  0  0  0  0
  140.6180   72.7852  224.0402 H   0  0  0  0  0  0  0  0  0  0  0  0
  141.7139   71.9050  226.0615 H   0  0  0  0  0  0  0  0  0  0  0  0
  141.9075   70.2246  227.6718 H   0  0  0  0  0  0  0  0  0  0  0  0
  139.3587   66.8070  227.4948 H   0  0  0  0  0  0  0  0  0  0  0  0
  138.2424   67.6755  225.4687 H   0  0  0  0  0  0  0  0  0  0  0  0
  142.1533   75.0680  219.1876 H   0  0  0  0  0  0  0  0  0  0  0  0
  140.4694   75.8045  219.2831 H   0  0  0  0  0  0  0  0  0  0  0  0
  142.7820   76.7730  220.8310 H   0  0  0  0  0  0  0  0  0  0  0  0
  141.4769   77.1681  223.7891 H   0  0  0  0  0  0  0  0  0  0  0  0
  142.1445   79.0367  225.2862 H   0  0  0  0  0  0  0  0  0  0  0  0
  142.2336   81.3890  224.4242 H   0  0  0  0  0  0  0  0  0  0  0  0
  141.9577   82.9172  222.6242 H   0  0  0  0  0  0  0  0  0  0  0  0
  141.3820   83.3936  220.2439 H   0  0  0  0  0  0  0  0  0  0  0  0
  140.7208   81.5240  218.7637 H   0  0  0  0  0  0  0  0  0  0  0  0
  140.6272   79.1872  219.5988 H   0  0  0  0  0  0  0  0  0  0  0  0
  1  2  1  0
  2  3  1  0
  3  4  1  0
  4  5  1  0
  5  6  1  0
  6  7  2  0
  6  8  1  0
  8  9  2  0
  9 10  1  0
 10 11  2  0
 11 12  1  0
 12 13  2  0
 13 14  1  0
 13 15  1  0
 15 16  2  0
 16 17  1  0
 17 18  2  0
  2 19  1  0
 19 20  2  0
 19 21  1  0
 21 22  1  0
 22 23  1  0
 23 24  2  0
 23 25  1  0
 25 26  2  0
 26 27  1  0
 27 28  2  0
 28 29  1  0
 29 30  2  0
 30 31  1  0
 31 32  2  0
 32 33  1  0
 33 34  2  0
 18  8  1  0
 34 25  1  0
 17 11  1  0
 34 29  1  0
  1 35  1  0
  1 36  1  0
  1 37  1  0
  3 38  1  0
  3 39  1  0
  4 40  1  0
  4 41  1  0
  5 42  1  0
  9 43  1  0
 10 44  1  0
 12 45  1  0
 15 46  1  0
 16 47  1  0
 21 48  1  0
 21 49  1  0
 22 50  1  0
 26 51  1  0
 27 52  1  0
 28 53  1  0
 30 54  1  0
 31 55  1  0
 32 56  1  0
 33 57  1  0
M  END
>  <smiles>  (46) 
CN(CCNC(=O)c1ccc2cc(Cl)ccc2n1)C(=O)CNC(=O)c1cccc2ccccc12

>  <score_type>  (46) 
oracle

>  <origin>  (46) 
autodockgpu

>  <m_score__min__energy>  (46) 
-9.7200000000000006

>  <m_primary>  (46) 
energy

>  <rmsd>  (46) 
9.686282306282783

>  <m_score__min__rmsd>  (46) 
9.686282306282783

>  <meeko>  (46) 
{"free_energy": -9.26, "intermolecular_energy": -11.65, "internal_energy": -2.25, "cluster_size": 13, "cluster_id": 2, "rank_in_cluster": 6}

>  <energy>  (46) 
-6.03

>  <cluster_rmsd>  (46) 
0.0

>  <cluster>  (46) 
12

$$$$

     RDKit          3D

 57 60  0  0  0  0  0  0  0  0999 V2000
  144.4940   73.9670  218.2040 C   0  0  0  0  0  0  0  0  0  0  0  0
  143.4320   74.7570  218.7500 N   0  0  0  0  0  0  0  0  0  0  0  0
  142.3200   73.9550  219.3490 C   0  0  0  0  0  0  0  0  0  0  0  0
  142.4620   74.2110  220.8390 C   0  0  0  0  0  0  0  0  0  0  0  0
  141.6080   75.3030  221.2060 N   0  0  0  0  0  0  0  0  0  0  0  0
  140.3180   75.1720  221.7610 C   0  0  0  0  0  0  0  0  0  0  0  0
  139.8540   74.0070  221.9620 O   0  0  0  0  0  0  0  0  0  0  0  0
  139.4930   76.3220  222.1160 C   0  0  0  0  0  0  0  0  0  0  0  0
  138.1620   76.3560  221.8030 C   0  0  0  0  0  0  0  0  0  0  0  0
  137.3160   77.4020  222.1020 C   0  0  0  0  0  0  0  0  0  0  0  0
  137.8570   78.4860  222.7610 C   0  0  0  0  0  0  0  0  0  0  0  0
  137.0180   79.5280  223.0580 C   0  0  0  0  0  0  0  0  0  0  0  0
  137.5230   80.6250  223.7140 C   0  0  0  0  0  0  0  0  0  0  0  0
  136.4840   81.9920  224.1200 Cl  0  0  0  0  0  0  0  0  0  0  0  0
  138.8550   80.6220  224.0410 C   0  0  0  0  0  0  0  0  0  0  0  0
  139.7100   79.5700  223.7430 C   0  0  0  0  0  0  0  0  0  0  0  0
  139.1990   78.4570  223.0770 C   0  0  0  0  0  0  0  0  0  0  0  0
  139.9990   77.4030  222.7640 N   0  0  0  0  0  0  0  0  0  0  0  0
  143.2830   76.1360  218.8060 C   0  0  0  0  0  0  0  0  0  0  0  0
  143.7600   76.6890  219.9060 O   0  0  0  0  0  0  0  0  0  0  0  0
  142.7060   77.1230  217.9060 C   0  0  0  0  0  0  0  0  0  0  0  0
  142.5710   78.4230  218.4440 N   0  0  0  0  0  0  0  0  0  0  0  0
  141.5210   78.6010  219.4300 C   0  0  0  0  0  0  0  0  0  0  0  0
  140.8330   77.5850  219.7130 O   0  0  0  0  0  0  0  0  0  0  0  0
  141.2890   79.9040  220.0530 C   0  0  0  0  0  0  0  0  0  0  0  0
  140.5570   80.8300  219.3370 C   0  0  0  0  0  0  0  0  0  0  0  0
  140.3100   82.0830  219.8860 C   0  0  0  0  0  0  0  0  0  0  0  0
  140.7940   82.4220  221.1540 C   0  0  0  0  0  0  0  0  0  0  0  0
  141.5200   81.4770  221.8430 C   0  0  0  0  0  0  0  0  0  0  0  0
  142.0110   81.8000  223.1120 C   0  0  0  0  0  0  0  0  0  0  0  0
  142.7480   80.8760  223.8390 C   0  0  0  0  0  0  0  0  0  0  0  0
  142.9860   79.6350  223.2830 C   0  0  0  0  0  0  0  0  0  0  0  0
  142.5100   79.2870  222.0250 C   0  0  0  0  0  0  0  0  0  0  0  0
  141.7830   80.2120  221.3180 C   0  0  0  0  0  0  0  0  0  0  0  0
  145.0833   73.5286  219.0229 H   0  0  0  0  0  0  0  0  0  0  0  0
  144.0712   73.1621  217.5848 H   0  0  0  0  0  0  0  0  0  0  0  0
  145.1434   74.6033  217.5848 H   0  0  0  0  0  0  0  0  0  0  0  0
  141.3429   74.3018  218.9817 H   0  0  0  0  0  0  0  0  0  0  0  0
  142.3740   72.8872  219.0904 H   0  0  0  0  0  0  0  0  0  0  0  0
  142.1699   73.3098  221.3980 H   0  0  0  0  0  0  0  0  0  0  0  0
  143.5070   74.4588  221.0767 H   0  0  0  0  0  0  0  0  0  0  0  0
  141.9510   76.2940  221.0590 H   0  0  0  0  0  0  0  0  0  0  0  0
  137.7375   75.4886  221.2763 H   0  0  0  0  0  0  0  0  0  0  0  0
  136.2516   77.3734  221.8260 H   0  0  0  0  0  0  0  0  0  0  0  0
  135.9557   79.4870  222.7754 H   0  0  0  0  0  0  0  0  0  0  0  0
  139.2662   81.4970  224.5656 H   0  0  0  0  0  0  0  0  0  0  0  0
  140.7717   79.6137  224.0272 H   0  0  0  0  0  0  0  0  0  0  0  0
  143.3488   77.1884  217.0157 H   0  0  0  0  0  0  0  0  0  0  0  0
  141.6853   76.7761  217.6871 H   0  0  0  0  0  0  0  0  0  0  0  0
  143.1020   79.2830  218.2490 H   0  0  0  0  0  0  0  0  0  0  0  0
  140.1715   80.5778  218.3381 H   0  0  0  0  0  0  0  0  0  0  0  0
  139.7252   82.8190  219.3148 H   0  0  0  0  0  0  0  0  0  0  0  0
  140.6002   83.4142  221.5876 H   0  0  0  0  0  0  0  0  0  0  0  0
  141.8113   82.7946  223.5373 H   0  0  0  0  0  0  0  0  0  0  0  0
  143.1346   81.1272  224.8377 H   0  0  0  0  0  0  0  0  0  0  0  0
  143.5708   78.8987  223.8539 H   0  0  0  0  0  0  0  0  0  0  0  0
  142.7116   78.2908  221.6043 H   0  0  0  0  0  0  0  0  0  0  0  0
  1  2  1  0
  2  3  1  0
  3  4  1  0
  4  5  1  0
  5  6  1  0
  6  7  2  0
  6  8  1  0
  8  9  2  0
  9 10  1  0
 10 11  2  0
 11 12  1  0
 12 13  2  0
 13 14  1  0
 13 15  1  0
 15 16  2  0
 16 17  1  0
 17 18  2  0
  2 19  1  0
 19 20  2  0
 19 21  1  0
 21 22  1  0
 22 23  1  0
 23 24  2  0
 23 25  1  0
 25 26  2  0
 26 27  1  0
 27 28  2  0
 28 29  1  0
 29 30  2  0
 30 31  1  0
 31 32  2  0
 32 33  1  0
 33 34  2  0
 18  8  1  0
 34 25  1  0
 17 11  1  0
 34 29  1  0
  1 35  1  0
  1 36  1  0
  1 37  1  0
  3 38  1  0
  3 39  1  0
  4 40  1  0
  4 41  1  0
  5 42  1  0
  9 43  1  0
 10 44  1  0
 12 45  1  0
 15 46  1  0
 16 47  1  0
 21 48  1  0
 21 49  1  0
 22 50  1  0
 26 51  1  0
 27 52  1  0
 28 53  1  0
 30 54  1  0
 31 55  1  0
 32 56  1  0
 33 57  1  0
M  END
>  <smiles>  (47) 
CN(CCNC(=O)c1ccc2cc(Cl)ccc2n1)C(=O)CNC(=O)c1cccc2ccccc12

>  <score_type>  (47) 
oracle

>  <origin>  (47) 
autodockgpu

>  <m_score__min__energy>  (47) 
-9.7200000000000006

>  <m_primary>  (47) 
energy

>  <rmsd>  (47) 
8.332168972221057

>  <m_score__min__rmsd>  (47) 
8.332168972221057

>  <meeko>  (47) 
{"free_energy": -7.1, "intermolecular_energy": -9.48, "internal_energy": -4.84, "cluster_size": 4, "cluster_id": 9, "rank_in_cluster": 1}

>  <energy>  (47) 
-5.98

>  <cluster_rmsd>  (47) 
0.26

>  <cluster>  (47) 
12

$$$$

     RDKit          3D

 57 60  0  0  0  0  0  0  0  0999 V2000
  139.3500   73.9000  217.9810 C   0  0  0  0  0  0  0  0  0  0  0  0
  139.6570   74.0240  219.3740 N   0  0  0  0  0  0  0  0  0  0  0  0
  138.6970   74.8830  220.1360 C   0  0  0  0  0  0  0  0  0  0  0  0
  137.7210   73.8830  220.7290 C   0  0  0  0  0  0  0  0  0  0  0  0
  138.3170   73.2830  221.8870 N   0  0  0  0  0  0  0  0  0  0  0  0
  138.5630   71.9030  222.0490 C   0  0  0  0  0  0  0  0  0  0  0  0
  138.2420   71.1110  221.1100 O   0  0  0  0  0  0  0  0  0  0  0  0
  139.1750   71.3480  223.2520 C   0  0  0  0  0  0  0  0  0  0  0  0
  140.2550   71.9520  223.8350 C   0  0  0  0  0  0  0  0  0  0  0  0
  140.8890   71.4920  224.9690 C   0  0  0  0  0  0  0  0  0  0  0  0
  140.3950   70.3430  225.5490 C   0  0  0  0  0  0  0  0  0  0  0  0
  141.0250   69.8830  226.6750 C   0  0  0  0  0  0  0  0  0  0  0  0
  140.5600   68.7390  227.2810 C   0  0  0  0  0  0  0  0  0  0  0  0
  141.3350   68.1080  228.7340 Cl  0  0  0  0  0  0  0  0  0  0  0  0
  139.4780   68.1100  226.7200 C   0  0  0  0  0  0  0  0  0  0  0  0
  138.8360   68.5710  225.5780 C   0  0  0  0  0  0  0  0  0  0  0  0
  139.3070   69.7290  224.9640 C   0  0  0  0  0  0  0  0  0  0  0  0
  138.7100   70.2170  223.8450 N   0  0  0  0  0  0  0  0  0  0  0  0
  140.6950   73.4740  220.1120 C   0  0  0  0  0  0  0  0  0  0  0  0
  141.1030   72.2940  219.6800 O   0  0  0  0  0  0  0  0  0  0  0  0
  141.4450   73.9160  221.2780 C   0  0  0  0  0  0  0  0  0  0  0  0
  141.7890   75.2870  221.2890 N   0  0  0  0  0  0  0  0  0  0  0  0
  140.8960   76.1640  222.0250 C   0  0  0  0  0  0  0  0  0  0  0  0
  139.9060   75.6230  222.5830 O   0  0  0  0  0  0  0  0  0  0  0  0
  141.1530   77.6010  222.1050 C   0  0  0  0  0  0  0  0  0  0  0  0
  141.0630   78.1950  223.3480 C   0  0  0  0  0  0  0  0  0  0  0  0
  141.2980   79.5590  223.4760 C   0  0  0  0  0  0  0  0  0  0  0  0
  141.6230   80.3420  222.3630 C   0  0  0  0  0  0  0  0  0  0  0  0
  141.7060   79.7200  221.1370 C   0  0  0  0  0  0  0  0  0  0  0  0
  142.0310   80.4890  220.0140 C   0  0  0  0  0  0  0  0  0  0  0  0
  142.1240   79.9000  218.7610 C   0  0  0  0  0  0  0  0  0  0  0  0
  141.8890   78.5450  218.6480 C   0  0  0  0  0  0  0  0  0  0  0  0
  141.5650   77.7580  219.7460 C   0  0  0  0  0  0  0  0  0  0  0  0
  141.4770   78.3540  220.9780 C   0  0  0  0  0  0  0  0  0  0  0  0
  138.3358   73.4904  217.8641 H   0  0  0  0  0  0  0  0  0  0  0  0
  139.4028   74.8900  217.5044 H   0  0  0  0  0  0  0  0  0  0  0  0
  140.0755   73.2244  217.5044 H   0  0  0  0  0  0  0  0  0  0  0  0
  139.2147   75.4443  220.9278 H   0  0  0  0  0  0  0  0  0  0  0  0
  138.2059   75.6395  219.5063 H   0  0  0  0  0  0  0  0  0  0  0  0
  136.7930   74.3988  221.0167 H   0  0  0  0  0  0  0  0  0  0  0  0
  137.4856   73.1065  219.9863 H   0  0  0  0  0  0  0  0  0  0  0  0
  138.6040   73.9030  222.6970 H   0  0  0  0  0  0  0  0  0  0  0  0
  140.6443   72.8679  223.3665 H   0  0  0  0  0  0  0  0  0  0  0  0
  141.7548   72.0206  225.3944 H   0  0  0  0  0  0  0  0  0  0  0  0
  141.8907   70.4209  227.0888 H   0  0  0  0  0  0  0  0  0  0  0  0
  139.0998   67.1946  227.1985 H   0  0  0  0  0  0  0  0  0  0  0  0
  137.9708   68.0311  225.1657 H   0  0  0  0  0  0  0  0  0  0  0  0
  140.8370   73.7107  222.1714 H   0  0  0  0  0  0  0  0  0  0  0  0
  142.3958   73.3632  221.2565 H   0  0  0  0  0  0  0  0  0  0  0  0
  142.5810   75.7800  220.8530 H   0  0  0  0  0  0  0  0  0  0  0  0
  140.8068   77.5924  224.2319 H   0  0  0  0  0  0  0  0  0  0  0  0
  141.2274   80.0300  224.4675 H   0  0  0  0  0  0  0  0  0  0  0  0
  141.8067   81.4218  222.4641 H   0  0  0  0  0  0  0  0  0  0  0  0
  142.2141   81.5679  220.1253 H   0  0  0  0  0  0  0  0  0  0  0  0
  142.3798   80.5010  217.8759 H   0  0  0  0  0  0  0  0  0  0  0  0
  141.9605   78.0730  217.6570 H   0  0  0  0  0  0  0  0  0  0  0  0
  141.3829   76.6794  219.6297 H   0  0  0  0  0  0  0  0  0  0  0  0
  1  2  1  0
  2  3  1  0
  3  4  1  0
  4  5  1  0
  5  6  1  0
  6  7  2  0
  6  8  1  0
  8  9  2  0
  9 10  1  0
 10 11  2  0
 11 12  1  0
 12 13  2  0
 13 14  1  0
 13 15  1  0
 15 16  2  0
 16 17  1  0
 17 18  2  0
  2 19  1  0
 19 20  2  0
 19 21  1  0
 21 22  1  0
 22 23  1  0
 23 24  2  0
 23 25  1  0
 25 26  2  0
 26 27  1  0
 27 28  2  0
 28 29  1  0
 29 30  2  0
 30 31  1  0
 31 32  2  0
 32 33  1  0
 33 34  2  0
 18  8  1  0
 34 25  1  0
 17 11  1  0
 34 29  1  0
  1 35  1  0
  1 36  1  0
  1 37  1  0
  3 38  1  0
  3 39  1  0
  4 40  1  0
  4 41  1  0
  5 42  1  0
  9 43  1  0
 10 44  1  0
 12 45  1  0
 15 46  1  0
 16 47  1  0
 21 48  1  0
 21 49  1  0
 22 50  1  0
 26 51  1  0
 27 52  1  0
 28 53  1  0
 30 54  1  0
 31 55  1  0
 32 56  1  0
 33 57  1  0
M  END
>  <smiles>  (48) 
CN(CCNC(=O)c1ccc2cc(Cl)ccc2n1)C(=O)CNC(=O)c1cccc2ccccc12

>  <score_type>  (48) 
oracle

>  <origin>  (48) 
autodockgpu

>  <m_score__min__energy>  (48) 
-9.7200000000000006

>  <m_primary>  (48) 
energy

>  <rmsd>  (48) 
9.233650680029047

>  <m_score__min__rmsd>  (48) 
9.233650680029047

>  <meeko>  (48) 
{"free_energy": -8.49, "intermolecular_energy": -10.88, "internal_energy": -2.58, "cluster_size": 13, "cluster_id": 2, "rank_in_cluster": 11}

>  <energy>  (48) 
-5.75

>  <cluster_rmsd>  (48) 
0.76

>  <cluster>  (48) 
12

$$$$

     RDKit          3D

 57 60  0  0  0  0  0  0  0  0999 V2000
  141.0490   81.6410  223.0640 C   0  0  0  0  0  0  0  0  0  0  0  0
  141.1160   80.4010  222.3510 N   0  0  0  0  0  0  0  0  0  0  0  0
  140.4570   80.4320  221.0070 C   0  0  0  0  0  0  0  0  0  0  0  0
  141.6250   80.4990  220.0410 C   0  0  0  0  0  0  0  0  0  0  0  0
  142.1810   79.1860  219.8910 N   0  0  0  0  0  0  0  0  0  0  0  0
  142.1300   78.4130  218.7130 C   0  0  0  0  0  0  0  0  0  0  0  0
  141.5530   78.8960  217.6890 O   0  0  0  0  0  0  0  0  0  0  0  0
  142.7140   77.0790  218.6190 C   0  0  0  0  0  0  0  0  0  0  0  0
  142.8080   76.4360  217.4160 C   0  0  0  0  0  0  0  0  0  0  0  0
  143.3450   75.1780  217.2430 C   0  0  0  0  0  0  0  0  0  0  0  0
  143.8160   74.5300  218.3660 C   0  0  0  0  0  0  0  0  0  0  0  0
  144.3490   73.2800  218.1960 C   0  0  0  0  0  0  0  0  0  0  0  0
  144.8280   72.6040  219.2940 C   0  0  0  0  0  0  0  0  0  0  0  0
  145.5250   70.9920  219.1280 Cl  0  0  0  0  0  0  0  0  0  0  0  0
  144.7470   73.2230  220.5150 C   0  0  0  0  0  0  0  0  0  0  0  0
  144.2080   74.4890  220.6930 C   0  0  0  0  0  0  0  0  0  0  0  0
  143.7220   75.1740  219.5810 C   0  0  0  0  0  0  0  0  0  0  0  0
  143.1850   76.4170  219.7080 N   0  0  0  0  0  0  0  0  0  0  0  0
  141.6940   79.1930  222.7130 C   0  0  0  0  0  0  0  0  0  0  0  0
  143.0100   79.2320  222.8270 O   0  0  0  0  0  0  0  0  0  0  0  0
  141.1620   77.8690  223.0000 C   0  0  0  0  0  0  0  0  0  0  0  0
  141.2830   76.9300  221.9500 N   0  0  0  0  0  0  0  0  0  0  0  0
  140.0470   76.5400  221.2960 C   0  0  0  0  0  0  0  0  0  0  0  0
  138.9900   77.0730  221.7230 O   0  0  0  0  0  0  0  0  0  0  0  0
  140.0520   75.5760  220.1970 C   0  0  0  0  0  0  0  0  0  0  0  0
  139.5870   76.0070  218.9700 C   0  0  0  0  0  0  0  0  0  0  0  0
  139.5700   75.1280  217.8940 C   0  0  0  0  0  0  0  0  0  0  0  0
  140.0170   73.8100  218.0340 C   0  0  0  0  0  0  0  0  0  0  0  0
  140.4760   73.4090  219.2700 C   0  0  0  0  0  0  0  0  0  0  0  0
  140.9260   72.0940  219.4260 C   0  0  0  0  0  0  0  0  0  0  0  0
  141.3950   71.6520  220.6550 C   0  0  0  0  0  0  0  0  0  0  0  0
  141.4060   72.5360  221.7150 C   0  0  0  0  0  0  0  0  0  0  0  0
  140.9650   73.8470  221.5880 C   0  0  0  0  0  0  0  0  0  0  0  0
  140.5040   74.2690  220.3670 C   0  0  0  0  0  0  0  0  0  0  0  0
  141.0597   81.4429  224.1460 H   0  0  0  0  0  0  0  0  0  0  0  0
  141.9147   82.2648  222.7969 H   0  0  0  0  0  0  0  0  0  0  0  0
  140.1211   82.1679  222.7969 H   0  0  0  0  0  0  0  0  0  0  0  0
  139.8607   79.5227  220.8405 H   0  0  0  0  0  0  0  0  0  0  0  0
  139.7575   81.2731  220.8923 H   0  0  0  0  0  0  0  0  0  0  0  0
  141.2757   80.8656  219.0645 H   0  0  0  0  0  0  0  0  0  0  0  0
  142.3913   81.1854  220.4305 H   0  0  0  0  0  0  0  0  0  0  0  0
  142.6730   78.7400  220.7170 H   0  0  0  0  0  0  0  0  0  0  0  0
  142.4292   76.9582  216.5251 H   0  0  0  0  0  0  0  0  0  0  0  0
  143.3958   74.7097  216.2490 H   0  0  0  0  0  0  0  0  0  0  0  0
  144.3934   72.8234  217.1962 H   0  0  0  0  0  0  0  0  0  0  0  0
  145.1286   72.6889  221.3977 H   0  0  0  0  0  0  0  0  0  0  0  0
  144.1651   74.9437  221.6937 H   0  0  0  0  0  0  0  0  0  0  0  0
  141.6954   77.4706  223.8757 H   0  0  0  0  0  0  0  0  0  0  0  0
  140.0829   78.0035  223.1658 H   0  0  0  0  0  0  0  0  0  0  0  0
  142.1160   76.4660  221.5630 H   0  0  0  0  0  0  0  0  0  0  0  0
  139.2320   77.0406  218.8452 H   0  0  0  0  0  0  0  0  0  0  0  0
  139.1996   75.4737  216.9177 H   0  0  0  0  0  0  0  0  0  0  0  0
  140.0026   73.1139  217.1824 H   0  0  0  0  0  0  0  0  0  0  0  0
  140.9080   71.4053  218.5685 H   0  0  0  0  0  0  0  0  0  0  0  0
  141.7506   70.6188  220.7818 H   0  0  0  0  0  0  0  0  0  0  0  0
  141.7760   72.1912  222.6918 H   0  0  0  0  0  0  0  0  0  0  0  0
  140.9850   74.5322  222.4483 H   0  0  0  0  0  0  0  0  0  0  0  0
  1  2  1  0
  2  3  1  0
  3  4  1  0
  4  5  1  0
  5  6  1  0
  6  7  2  0
  6  8  1  0
  8  9  2  0
  9 10  1  0
 10 11  2  0
 11 12  1  0
 12 13  2  0
 13 14  1  0
 13 15  1  0
 15 16  2  0
 16 17  1  0
 17 18  2  0
  2 19  1  0
 19 20  2  0
 19 21  1  0
 21 22  1  0
 22 23  1  0
 23 24  2  0
 23 25  1  0
 25 26  2  0
 26 27  1  0
 27 28  2  0
 28 29  1  0
 29 30  2  0
 30 31  1  0
 31 32  2  0
 32 33  1  0
 33 34  2  0
 18  8  1  0
 34 25  1  0
 17 11  1  0
 34 29  1  0
  1 35  1  0
  1 36  1  0
  1 37  1  0
  3 38  1  0
  3 39  1  0
  4 40  1  0
  4 41  1  0
  5 42  1  0
  9 43  1  0
 10 44  1  0
 12 45  1  0
 15 46  1  0
 16 47  1  0
 21 48  1  0
 21 49  1  0
 22 50  1  0
 26 51  1  0
 27 52  1  0
 28 53  1  0
 30 54  1  0
 31 55  1  0
 32 56  1  0
 33 57  1  0
M  END
>  <smiles>  (49) 
CN(CCNC(=O)c1ccc2cc(Cl)ccc2n1)C(=O)CNC(=O)c1cccc2ccccc12

>  <score_type>  (49) 
oracle

>  <origin>  (49) 
autodockgpu

>  <m_score__min__energy>  (49) 
-9.7200000000000006

>  <m_primary>  (49) 
energy

>  <rmsd>  (49) 
7.508987934085514

>  <m_score__min__rmsd>  (49) 
7.508987934085514

>  <meeko>  (49) 
{"free_energy": -5.49, "intermolecular_energy": -7.87, "internal_energy": -5.75, "cluster_size": 2, "cluster_id": 13, "rank_in_cluster": 2}

>  <energy>  (49) 
-5.5

>  <cluster_rmsd>  (49) 
0.0

>  <cluster>  (49) 
13

$$$$

     RDKit          3D

 57 60  0  0  0  0  0  0  0  0999 V2000
  140.1380   71.7090  222.5790 C   0  0  0  0  0  0  0  0  0  0  0  0
  139.9680   72.7540  221.6150 N   0  0  0  0  0  0  0  0  0  0  0  0
  138.8400   72.5230  220.6570 C   0  0  0  0  0  0  0  0  0  0  0  0
  137.6890   73.2980  221.2730 C   0  0  0  0  0  0  0  0  0  0  0  0
  138.0250   74.6930  221.2900 N   0  0  0  0  0  0  0  0  0  0  0  0
  137.2800   75.6970  221.9430 C   0  0  0  0  0  0  0  0  0  0  0  0
  136.2270   75.3670  222.5720 O   0  0  0  0  0  0  0  0  0  0  0  0
  137.6710   77.1040  221.9260 C   0  0  0  0  0  0  0  0  0  0  0  0
  137.9130   77.7790  223.0910 C   0  0  0  0  0  0  0  0  0  0  0  0
  138.2850   79.1040  223.1610 C   0  0  0  0  0  0  0  0  0  0  0  0
  138.4180   79.7890  221.9710 C   0  0  0  0  0  0  0  0  0  0  0  0
  138.7870   81.1070  222.0400 C   0  0  0  0  0  0  0  0  0  0  0  0
  138.9290   81.8210  220.8730 C   0  0  0  0  0  0  0  0  0  0  0  0
  139.4030   83.5200  220.9070 Cl  0  0  0  0  0  0  0  0  0  0  0  0
  138.6930   81.1710  219.6890 C   0  0  0  0  0  0  0  0  0  0  0  0
  138.3190   79.8360  219.6130 C   0  0  0  0  0  0  0  0  0  0  0  0
  138.1740   79.1120  220.7950 C   0  0  0  0  0  0  0  0  0  0  0  0
  137.8100   77.8030  220.7700 N   0  0  0  0  0  0  0  0  0  0  0  0
  140.6810   73.9320  221.4380 C   0  0  0  0  0  0  0  0  0  0  0  0
  140.4180   74.8650  222.3350 O   0  0  0  0  0  0  0  0  0  0  0  0
  141.6690   74.3730  220.4660 C   0  0  0  0  0  0  0  0  0  0  0  0
  142.0960   75.7130  220.6060 N   0  0  0  0  0  0  0  0  0  0  0  0
  141.1700   76.7320  220.1450 C   0  0  0  0  0  0  0  0  0  0  0  0
  140.0790   76.3270  219.6670 O   0  0  0  0  0  0  0  0  0  0  0  0
  141.5070   78.1510  220.2410 C   0  0  0  0  0  0  0  0  0  0  0  0
  141.6780   78.8450  219.0590 C   0  0  0  0  0  0  0  0  0  0  0  0
  141.9990   80.1970  219.0980 C   0  0  0  0  0  0  0  0  0  0  0  0
  142.1540   80.8670  220.3160 C   0  0  0  0  0  0  0  0  0  0  0  0
  141.9780   80.1470  221.4770 C   0  0  0  0  0  0  0  0  0  0  0  0
  142.1290   80.8020  222.7030 C   0  0  0  0  0  0  0  0  0  0  0  0
  141.9600   80.1120  223.8960 C   0  0  0  0  0  0  0  0  0  0  0  0
  141.6400   78.7710  223.8440 C   0  0  0  0  0  0  0  0  0  0  0  0
  141.4840   78.0950  222.6400 C   0  0  0  0  0  0  0  0  0  0  0  0
  141.6540   78.7910  221.4700 C   0  0  0  0  0  0  0  0  0  0  0  0
  140.0694   72.1306  223.5927 H   0  0  0  0  0  0  0  0  0  0  0  0
  139.3511   70.9526  222.4424 H   0  0  0  0  0  0  0  0  0  0  0  0
  141.1241   71.2410  222.4424 H   0  0  0  0  0  0  0  0  0  0  0  0
  139.0863   72.9122  219.6581 H   0  0  0  0  0  0  0  0  0  0  0  0
  138.6109   71.4568  220.5133 H   0  0  0  0  0  0  0  0  0  0  0  0
  136.7785   73.1446  220.6750 H   0  0  0  0  0  0  0  0  0  0  0  0
  137.5088   72.9453  222.2992 H   0  0  0  0  0  0  0  0  0  0  0  0
  138.8950   75.0170  220.7800 H   0  0  0  0  0  0  0  0  0  0  0  0
  137.8032   77.2267  224.0359 H   0  0  0  0  0  0  0  0  0  0  0  0
  138.4686   79.5960  224.1275 H   0  0  0  0  0  0  0  0  0  0  0  0
  138.9668   81.5865  223.0135 H   0  0  0  0  0  0  0  0  0  0  0  0
  138.8057   81.7358  218.7518 H   0  0  0  0  0  0  0  0  0  0  0  0
  138.1405   79.3587  218.6381 H   0  0  0  0  0  0  0  0  0  0  0  0
  142.5517   73.7233  220.5595 H   0  0  0  0  0  0  0  0  0  0  0  0
  141.1787   74.3105  219.4833 H   0  0  0  0  0  0  0  0  0  0  0  0
  142.9720   76.0970  220.9870 H   0  0  0  0  0  0  0  0  0  0  0  0
  141.5609   78.3313  218.0934 H   0  0  0  0  0  0  0  0  0  0  0  0
  142.1332   80.7488  218.1559 H   0  0  0  0  0  0  0  0  0  0  0  0
  142.4088   81.9367  220.3458 H   0  0  0  0  0  0  0  0  0  0  0  0
  142.3836   81.8720  222.7226 H   0  0  0  0  0  0  0  0  0  0  0  0
  142.0788   80.6239  224.8624 H   0  0  0  0  0  0  0  0  0  0  0  0
  141.5040   78.2192  224.7858 H   0  0  0  0  0  0  0  0  0  0  0  0
  141.2297   77.0249  222.6253 H   0  0  0  0  0  0  0  0  0  0  0  0
  1  2  1  0
  2  3  1  0
  3  4  1  0
  4  5  1  0
  5  6  1  0
  6  7  2  0
  6  8  1  0
  8  9  2  0
  9 10  1  0
 10 11  2  0
 11 12  1  0
 12 13  2  0
 13 14  1  0
 13 15  1  0
 15 16  2  0
 16 17  1  0
 17 18  2  0
  2 19  1  0
 19 20  2  0
 19 21  1  0
 21 22  1  0
 22 23  1  0
 23 24  2  0
 23 25  1  0
 25 26  2  0
 26 27  1  0
 27 28  2  0
 28 29  1  0
 29 30  2  0
 30 31  1  0
 31 32  2  0
 32 33  1  0
 33 34  2  0
 18  8  1  0
 34 25  1  0
 17 11  1  0
 34 29  1  0
  1 35  1  0
  1 36  1  0
  1 37  1  0
  3 38  1  0
  3 39  1  0
  4 40  1  0
  4 41  1  0
  5 42  1  0
  9 43  1  0
 10 44  1  0
 12 45  1  0
 15 46  1  0
 16 47  1  0
 21 48  1  0
 21 49  1  0
 22 50  1  0
 26 51  1  0
 27 52  1  0
 28 53  1  0
 30 54  1  0
 31 55  1  0
 32 56  1  0
 33 57  1  0
M  END
>  <smiles>  (50) 
CN(CCNC(=O)c1ccc2cc(Cl)ccc2n1)C(=O)CNC(=O)c1cccc2ccccc12

>  <score_type>  (50) 
oracle

>  <origin>  (50) 
autodockgpu

>  <m_score__min__energy>  (50) 
-9.7200000000000006

>  <m_primary>  (50) 
energy

>  <rmsd>  (50) 
7.40979225387308

>  <m_score__min__rmsd>  (50) 
7.40979225387308

>  <meeko>  (50) 
{"free_energy": -5.75, "intermolecular_energy": -8.14, "internal_energy": -5.43, "cluster_size": 3, "cluster_id": 12, "rank_in_cluster": 3}

>  <energy>  (50) 
-5.49

>  <cluster_rmsd>  (50) 
0.84

>  <cluster>  (50) 
13

$$$$
