
     RDKit          3D

 48 50  0  0  0  0  0  0  0  0999 V2000
  143.2070   80.4900  223.4650 C   0  0  0  0  0  0  0  0  0  0  0  0
  141.8980   80.3180  222.8410 N   0  0  0  0  0  0  0  0  0  0  0  0
  141.3710   81.3650  222.0100 C   0  0  0  0  0  0  0  0  0  0  0  0
  141.1950   79.0770  223.0950 C   0  0  0  0  0  0  0  0  0  0  0  0
  141.8170   78.2780  223.8320 O   0  0  0  0  0  0  0  0  0  0  0  0
  139.8970   78.9080  222.4850 C   0  0  2  0  0  0  0  0  0  0  0  0
  138.7490   79.0580  223.4740 C   0  0  0  0  0  0  0  0  0  0  0  0
  137.5850   78.4560  222.7210 C   0  0  0  0  0  0  0  0  0  0  0  0
  138.1460   77.8350  221.4650 C   0  0  0  0  0  0  0  0  0  0  0  0
  139.5550   77.6490  221.9000 N   0  0  0  0  0  0  0  0  0  0  0  0
  140.2240   76.4300  221.6860 C   0  0  0  0  0  0  0  0  0  0  0  0
  141.4340   76.2030  221.9030 O   0  0  0  0  0  0  0  0  0  0  0  0
  139.4600   75.2380  221.1430 C   0  0  0  0  0  0  0  0  0  0  0  0
  139.4030   74.1900  222.1120 N   0  0  0  0  0  0  0  0  0  0  0  0
  140.2520   73.0490  222.0490 C   0  0  0  0  0  0  0  0  0  0  0  0
  141.1100   72.8950  221.1240 O   0  0  0  0  0  0  0  0  0  0  0  0
  140.1350   72.0090  223.0850 C   0  0  0  0  0  0  0  0  0  0  0  0
  139.5440   70.8110  222.8270 C   0  0  0  0  0  0  0  0  0  0  0  0
  139.4600   69.8560  223.8460 C   0  0  0  0  0  0  0  0  0  0  0  0
  139.9700   70.1340  225.0920 C   0  0  0  0  0  0  0  0  0  0  0  0
  139.9300   69.2530  226.1510 C   0  0  0  0  0  0  0  0  0  0  0  0
  140.4710   69.6070  227.3850 C   0  0  0  0  0  0  0  0  0  0  0  0
  140.4110   68.4670  228.7310 Cl  0  0  0  0  0  0  0  0  0  0  0  0
  141.0630   70.8350  227.6040 C   0  0  0  0  0  0  0  0  0  0  0  0
  141.1030   71.7140  226.5460 C   0  0  0  0  0  0  0  0  0  0  0  0
  140.5680   71.3610  225.3310 C   0  0  0  0  0  0  0  0  0  0  0  0
  140.6230   72.2300  224.3310 N   0  0  0  0  0  0  0  0  0  0  0  0
  143.0963   80.4755  224.5593 H   0  0  0  0  0  0  0  0  0  0  0  0
  143.8724   79.6716  223.1529 H   0  0  0  0  0  0  0  0  0  0  0  0
  143.6384   81.4525  223.1529 H   0  0  0  0  0  0  0  0  0  0  0  0
  140.9668   82.1679  222.6440 H   0  0  0  0  0  0  0  0  0  0  0  0
  142.1736   81.7681  221.3749 H   0  0  0  0  0  0  0  0  0  0  0  0
  140.5691   80.9605  221.3749 H   0  0  0  0  0  0  0  0  0  0  0  0
  140.0070   79.6832  221.7124 H   0  0  0  0  0  0  0  0  0  0  0  0
  138.9501   78.5043  224.4029 H   0  0  0  0  0  0  0  0  0  0  0  0
  138.5758   80.0976  223.7892 H   0  0  0  0  0  0  0  0  0  0  0  0
  137.0943   77.6872  223.3359 H   0  0  0  0  0  0  0  0  0  0  0  0
  136.8352   79.2234  222.4785 H   0  0  0  0  0  0  0  0  0  0  0  0
  137.6592   76.8779  221.2263 H   0  0  0  0  0  0  0  0  0  0  0  0
  138.0107   78.4254  220.5468 H   0  0  0  0  0  0  0  0  0  0  0  0
  138.4365   75.5506  220.8888 H   0  0  0  0  0  0  0  0  0  0  0  0
  139.9786   74.8639  220.2480 H   0  0  0  0  0  0  0  0  0  0  0  0
  138.7170   74.2290  222.9220 H   0  0  0  0  0  0  0  0  0  0  0  0
  139.1367   70.5956  221.8281 H   0  0  0  0  0  0  0  0  0  0  0  0
  138.9860   68.8829  223.6502 H   0  0  0  0  0  0  0  0  0  0  0  0
  139.4677   68.2634  226.0210 H   0  0  0  0  0  0  0  0  0  0  0  0
  141.4855   71.0999  228.5845 H   0  0  0  0  0  0  0  0  0  0  0  0
  141.5655   72.7038  226.6738 H   0  0  0  0  0  0  0  0  0  0  0  0
  1  2  1  0
  2  3  1  0
  2  4  1  0
  4  5  2  0
  4  6  1  0
  6  7  1  0
  7  8  1  0
  8  9  1  0
  9 10  1  0
 10 11  1  0
 11 12  2  0
 11 13  1  0
 13 14  1  0
 14 15  1  0
 15 16  2  0
 15 17  1  0
 17 18  2  0
 18 19  1  0
 19 20  2  0
 20 21  1  0
 21 22  2  0
 22 23  1  0
 22 24  1  0
 24 25  2  0
 25 26  1  0
 26 27  2  0
 10  6  1  0
 27 17  1  0
 26 20  1  0
  1 28  1  0
  1 29  1  0
  1 30  1  0
  3 31  1  0
  3 32  1  0
  3 33  1  0
  6 34  1  6
  7 35  1  0
  7 36  1  0
  8 37  1  0
  8 38  1  0
  9 39  1  0
  9 40  1  0
 13 41  1  0
 13 42  1  0
 14 43  1  0
 18 44  1  0
 19 45  1  0
 21 46  1  0
 24 47  1  0
 25 48  1  0
M  END
>  <smiles>  (1) 
CN(C)C(=O)[C@@H]1CCCN1C(=O)CNC(=O)c1ccc2cc(Cl)ccc2n1

>  <score_type>  (1) 
oracle

>  <origin>  (1) 
autodockgpu

>  <m_score__min__energy>  (1) 
-8.0600000000000005

>  <m_primary>  (1) 
energy

>  <rmsd>  (1) 
3.237124459286665

>  <m_score__min__rmsd>  (1) 
3.237124459286665

>  <meeko>  (1) 
{"free_energy": -7.98, "intermolecular_energy": -9.47, "internal_energy": -1.23, "cluster_size": 34, "cluster_id": 1, "rank_in_cluster": 2}

>  <energy>  (1) 
-8.06

>  <cluster_rmsd>  (1) 
0.0

>  <cluster>  (1) 
1

$$$$

     RDKit          3D

 48 50  0  0  0  0  0  0  0  0999 V2000
  140.7390   79.2590  223.8590 C   0  0  0  0  0  0  0  0  0  0  0  0
  141.5200   79.1240  222.6330 N   0  0  0  0  0  0  0  0  0  0  0  0
  142.5410   80.0900  222.3380 C   0  0  0  0  0  0  0  0  0  0  0  0
  141.2190   77.9990  221.7700 C   0  0  0  0  0  0  0  0  0  0  0  0
  140.3070   77.2560  222.1970 O   0  0  0  0  0  0  0  0  0  0  0  0
  141.9850   77.8680  220.5520 C   0  0  2  0  0  0  0  0  0  0  0  0
  141.2570   78.4050  219.3280 C   0  0  0  0  0  0  0  0  0  0  0  0
  142.0450   77.8050  218.1870 C   0  0  0  0  0  0  0  0  0  0  0  0
  143.0270   76.8320  218.7920 C   0  0  0  0  0  0  0  0  0  0  0  0
  142.3340   76.5650  220.0800 N   0  0  0  0  0  0  0  0  0  0  0  0
  142.1650   75.2500  220.5530 C   0  0  0  0  0  0  0  0  0  0  0  0
  143.0720   74.4840  220.9450 O   0  0  0  0  0  0  0  0  0  0  0  0
  140.7750   74.6480  220.6180 C   0  0  0  0  0  0  0  0  0  0  0  0
  140.6970   73.6670  221.6540 N   0  0  0  0  0  0  0  0  0  0  0  0
  139.5830   72.7940  221.7930 C   0  0  0  0  0  0  0  0  0  0  0  0
  138.5870   72.8370  221.0030 O   0  0  0  0  0  0  0  0  0  0  0  0
  139.5740   71.8070  222.8860 C   0  0  0  0  0  0  0  0  0  0  0  0
  138.8710   70.6460  222.7930 C   0  0  0  0  0  0  0  0  0  0  0  0
  138.8970   69.7430  223.8590 C   0  0  0  0  0  0  0  0  0  0  0  0
  139.6270   70.0320  224.9880 C   0  0  0  0  0  0  0  0  0  0  0  0
  139.7090   69.2000  226.0830 C   0  0  0  0  0  0  0  0  0  0  0  0
  140.4710   69.5630  227.1920 C   0  0  0  0  0  0  0  0  0  0  0  0
  140.5650   68.4860  228.5870 Cl  0  0  0  0  0  0  0  0  0  0  0  0
  141.1710   70.7520  227.2460 C   0  0  0  0  0  0  0  0  0  0  0  0
  141.0890   71.5830  226.1510 C   0  0  0  0  0  0  0  0  0  0  0  0
  140.3360   71.2210  225.0600 C   0  0  0  0  0  0  0  0  0  0  0  0
  140.2790   72.0420  224.0210 N   0  0  0  0  0  0  0  0  0  0  0  0
  141.4011   79.1446  224.7300 H   0  0  0  0  0  0  0  0  0  0  0  0
  140.2667   80.2521  223.8854 H   0  0  0  0  0  0  0  0  0  0  0  0
  139.9608   78.4821  223.8854 H   0  0  0  0  0  0  0  0  0  0  0  0
  142.9564   80.4830  223.2777 H   0  0  0  0  0  0  0  0  0  0  0  0
  143.3416   79.6110  221.7552 H   0  0  0  0  0  0  0  0  0  0  0  0
  142.1070   80.9158  221.7552 H   0  0  0  0  0  0  0  0  0  0  0  0
  142.8770   78.4145  220.8921 H   0  0  0  0  0  0  0  0  0  0  0  0
  140.2103   78.0674  219.3086 H   0  0  0  0  0  0  0  0  0  0  0  0
  141.2068   79.5034  219.2954 H   0  0  0  0  0  0  0  0  0  0  0  0
  141.3691   77.2793  217.4965 H   0  0  0  0  0  0  0  0  0  0  0  0
  142.5681   78.5872  217.6174 H   0  0  0  0  0  0  0  0  0  0  0  0
  143.1315   75.9211  218.1842 H   0  0  0  0  0  0  0  0  0  0  0  0
  144.0603   77.1989  218.8801 H   0  0  0  0  0  0  0  0  0  0  0  0
  140.0452   75.4457  220.8205 H   0  0  0  0  0  0  0  0  0  0  0  0
  140.5541   74.1638  219.6553 H   0  0  0  0  0  0  0  0  0  0  0  0
  141.4810   73.5550  222.3630 H   0  0  0  0  0  0  0  0  0  0  0  0
  138.2881   70.4204  221.8878 H   0  0  0  0  0  0  0  0  0  0  0  0
  138.3333   68.8006  223.7951 H   0  0  0  0  0  0  0  0  0  0  0  0
  139.1689   68.2417  226.0820 H   0  0  0  0  0  0  0  0  0  0  0  0
  141.7697   71.0243  228.1277 H   0  0  0  0  0  0  0  0  0  0  0  0
  141.6290   72.5414  226.1496 H   0  0  0  0  0  0  0  0  0  0  0  0
  1  2  1  0
  2  3  1  0
  2  4  1  0
  4  5  2  0
  4  6  1  0
  6  7  1  0
  7  8  1  0
  8  9  1  0
  9 10  1  0
 10 11  1  0
 11 12  2  0
 11 13  1  0
 13 14  1  0
 14 15  1  0
 15 16  2  0
 15 17  1  0
 17 18  2  0
 18 19  1  0
 19 20  2  0
 20 21  1  0
 21 22  2  0
 22 23  1  0
 22 24  1  0
 24 25  2  0
 25 26  1  0
 26 27  2  0
 10  6  1  0
 27 17  1  0
 26 20  1  0
  1 28  1  0
  1 29  1  0
  1 30  1  0
  3 31  1  0
  3 32  1  0
  3 33  1  0
  6 34  1  1
  7 35  1  0
  7 36  1  0
  8 37  1  0
  8 38  1  0
  9 39  1  0
  9 40  1  0
 13 41  1  0
 13 42  1  0
 14 43  1  0
 18 44  1  0
 19 45  1  0
 21 46  1  0
 24 47  1  0
 25 48  1  0
M  END
>  <smiles>  (2) 
CN(C)C(=O)[C@@H]1CCCN1C(=O)CNC(=O)c1ccc2cc(Cl)ccc2n1

>  <score_type>  (2) 
oracle

>  <origin>  (2) 
autodockgpu

>  <m_score__min__energy>  (2) 
-8.0600000000000005

>  <m_primary>  (2) 
energy

>  <rmsd>  (2) 
2.263655894332445

>  <m_score__min__rmsd>  (2) 
2.263655894332445

>  <meeko>  (2) 
{"free_energy": -6.89, "intermolecular_energy": -8.38, "internal_energy": -1.94, "cluster_size": 7, "cluster_id": 2, "rank_in_cluster": 3}

>  <energy>  (2) 
-7.98

>  <cluster_rmsd>  (2) 
0.14

>  <cluster>  (2) 
1

$$$$

     RDKit          3D

 48 50  0  0  0  0  0  0  0  0999 V2000
  140.2420   80.6180  223.5100 C   0  0  0  0  0  0  0  0  0  0  0  0
  141.0210   79.5430  222.9040 N   0  0  0  0  0  0  0  0  0  0  0  0
  141.8190   78.6930  223.7430 C   0  0  0  0  0  0  0  0  0  0  0  0
  140.9400   79.3870  221.4660 C   0  0  0  0  0  0  0  0  0  0  0  0
  140.1840   80.2120  220.9040 O   0  0  0  0  0  0  0  0  0  0  0  0
  141.7170   78.3300  220.8630 C   0  0  2  0  0  0  0  0  0  0  0  0
  141.8260   78.4560  219.3500 C   0  0  0  0  0  0  0  0  0  0  0  0
  142.3030   77.0820  218.9390 C   0  0  0  0  0  0  0  0  0  0  0  0
  142.2550   76.2110  220.1700 C   0  0  0  0  0  0  0  0  0  0  0  0
  141.2620   76.9790  220.9650 N   0  0  0  0  0  0  0  0  0  0  0  0
  140.1870   76.3300  221.6020 C   0  0  0  0  0  0  0  0  0  0  0  0
  139.5750   76.7350  222.6150 O   0  0  0  0  0  0  0  0  0  0  0  0
  139.6750   75.0120  221.0560 C   0  0  0  0  0  0  0  0  0  0  0  0
  139.6790   74.0080  222.0730 N   0  0  0  0  0  0  0  0  0  0  0  0
  139.8760   72.6290  221.7810 C   0  0  0  0  0  0  0  0  0  0  0  0
  140.0580   72.2090  220.5940 O   0  0  0  0  0  0  0  0  0  0  0  0
  139.8680   71.6530  222.8830 C   0  0  0  0  0  0  0  0  0  0  0  0
  139.3500   70.4040  222.7240 C   0  0  0  0  0  0  0  0  0  0  0  0
  139.3680   69.5140  223.8020 C   0  0  0  0  0  0  0  0  0  0  0  0
  139.9040   69.9040  225.0070 C   0  0  0  0  0  0  0  0  0  0  0  0
  139.9620   69.0930  226.1190 C   0  0  0  0  0  0  0  0  0  0  0  0
  140.5210   69.5600  227.3070 C   0  0  0  0  0  0  0  0  0  0  0  0
  140.5880   68.5080  228.7220 Cl  0  0  0  0  0  0  0  0  0  0  0  0
  141.0360   70.8360  227.4250 C   0  0  0  0  0  0  0  0  0  0  0  0
  140.9780   71.6460  226.3140 C   0  0  0  0  0  0  0  0  0  0  0  0
  140.4250   71.1810  225.1450 C   0  0  0  0  0  0  0  0  0  0  0  0
  140.3850   71.9850  224.0920 N   0  0  0  0  0  0  0  0  0  0  0  0
  140.2990   80.5394  224.6057 H   0  0  0  0  0  0  0  0  0  0  0  0
  140.6472   81.5895  223.1905 H   0  0  0  0  0  0  0  0  0  0  0  0
  139.1927   80.5354  223.1905 H   0  0  0  0  0  0  0  0  0  0  0  0
  141.6081   78.9177  224.7990 H   0  0  0  0  0  0  0  0  0  0  0  0
  141.5752   77.6405  223.5363 H   0  0  0  0  0  0  0  0  0  0  0  0
  142.8848   78.8699  223.5363 H   0  0  0  0  0  0  0  0  0  0  0  0
  142.6332   78.4822  221.4525 H   0  0  0  0  0  0  0  0  0  0  0  0
  140.8499   78.6888  218.8995 H   0  0  0  0  0  0  0  0  0  0  0  0
  142.4947   79.2668  219.0253 H   0  0  0  0  0  0  0  0  0  0  0  0
  141.6443   76.6711  218.1597 H   0  0  0  0  0  0  0  0  0  0  0  0
  143.3231   77.1271  218.5299 H   0  0  0  0  0  0  0  0  0  0  0  0
  141.9021   75.1945  219.9416 H   0  0  0  0  0  0  0  0  0  0  0  0
  143.2228   76.0391  220.6638 H   0  0  0  0  0  0  0  0  0  0  0  0
  138.6476   75.1486  220.6875 H   0  0  0  0  0  0  0  0  0  0  0  0
  140.3344   74.6885  220.2372 H   0  0  0  0  0  0  0  0  0  0  0  0
  139.5350   74.2620  223.0950 H   0  0  0  0  0  0  0  0  0  0  0  0
  138.9220   70.0985  221.7578 H   0  0  0  0  0  0  0  0  0  0  0  0
  138.9534   68.5017  223.6864 H   0  0  0  0  0  0  0  0  0  0  0  0
  139.5640   68.0688  226.0688 H   0  0  0  0  0  0  0  0  0  0  0  0
  141.4750   71.1907  228.3692 H   0  0  0  0  0  0  0  0  0  0  0  0
  141.3761   72.6703  226.3619 H   0  0  0  0  0  0  0  0  0  0  0  0
  1  2  1  0
  2  3  1  0
  2  4  1  0
  4  5  2  0
  4  6  1  0
  6  7  1  0
  7  8  1  0
  8  9  1  0
  9 10  1  0
 10 11  1  0
 11 12  2  0
 11 13  1  0
 13 14  1  0
 14 15  1  0
 15 16  2  0
 15 17  1  0
 17 18  2  0
 18 19  1  0
 19 20  2  0
 20 21  1  0
 21 22  2  0
 22 23  1  0
 22 24  1  0
 24 25  2  0
 25 26  1  0
 26 27  2  0
 10  6  1  0
 27 17  1  0
 26 20  1  0
  1 28  1  0
  1 29  1  0
  1 30  1  0
  3 31  1  0
  3 32  1  0
  3 33  1  0
  6 34  1  1
  7 35  1  0
  7 36  1  0
  8 37  1  0
  8 38  1  0
  9 39  1  0
  9 40  1  0
 13 41  1  0
 13 42  1  0
 14 43  1  0
 18 44  1  0
 19 45  1  0
 21 46  1  0
 24 47  1  0
 25 48  1  0
M  END
>  <smiles>  (3) 
CN(C)C(=O)[C@@H]1CCCN1C(=O)CNC(=O)c1ccc2cc(Cl)ccc2n1

>  <score_type>  (3) 
oracle

>  <origin>  (3) 
autodockgpu

>  <m_score__min__energy>  (3) 
-8.0600000000000005

>  <m_primary>  (3) 
energy

>  <rmsd>  (3) 
2.025574567603214

>  <m_score__min__rmsd>  (3) 
2.025574567603214

>  <meeko>  (3) 
{"free_energy": -7.59, "intermolecular_energy": -9.09, "internal_energy": -1.73, "cluster_size": 34, "cluster_id": 1, "rank_in_cluster": 10}

>  <energy>  (3) 
-7.91

>  <cluster_rmsd>  (3) 
0.29

>  <cluster>  (3) 
1

$$$$

     RDKit          3D

 48 50  0  0  0  0  0  0  0  0999 V2000
  141.3490   81.0190  217.9600 C   0  0  0  0  0  0  0  0  0  0  0  0
  141.3960   81.2220  219.4060 N   0  0  0  0  0  0  0  0  0  0  0  0
  141.1810   82.5390  219.9380 C   0  0  0  0  0  0  0  0  0  0  0  0
  141.6560   80.0630  220.2350 C   0  0  0  0  0  0  0  0  0  0  0  0
  141.8040   78.9980  219.5950 O   0  0  0  0  0  0  0  0  0  0  0  0
  141.7110   80.2630  221.6640 C   0  0  2  0  0  0  0  0  0  0  0  0
  142.2170   79.0420  222.4200 C   0  0  0  0  0  0  0  0  0  0  0  0
  141.8070   79.3430  223.8430 C   0  0  0  0  0  0  0  0  0  0  0  0
  140.9460   80.5810  223.8030 C   0  0  0  0  0  0  0  0  0  0  0  0
  140.5030   80.5150  222.3850 N   0  0  0  0  0  0  0  0  0  0  0  0
  139.1500   80.6940  222.0400 C   0  0  0  0  0  0  0  0  0  0  0  0
  138.5050   81.7620  222.1070 O   0  0  0  0  0  0  0  0  0  0  0  0
  138.3430   79.5150  221.5300 C   0  0  0  0  0  0  0  0  0  0  0  0
  139.1910   78.3920  221.2830 N   0  0  0  0  0  0  0  0  0  0  0  0
  139.0190   77.1470  221.9510 C   0  0  0  0  0  0  0  0  0  0  0  0
  138.1000   76.9630  222.8120 O   0  0  0  0  0  0  0  0  0  0  0  0
  139.9320   76.0340  221.6440 C   0  0  0  0  0  0  0  0  0  0  0  0
  139.6230   74.7490  221.9700 C   0  0  0  0  0  0  0  0  0  0  0  0
  140.5240   73.7280  221.6540 C   0  0  0  0  0  0  0  0  0  0  0  0
  141.7090   74.0270  221.0220 C   0  0  0  0  0  0  0  0  0  0  0  0
  142.6520   73.0850  220.6750 C   0  0  0  0  0  0  0  0  0  0  0  0
  143.8300   73.4660  220.0350 C   0  0  0  0  0  0  0  0  0  0  0  0
  145.0280   72.2470  219.5980 Cl  0  0  0  0  0  0  0  0  0  0  0  0
  144.1040   74.7830  219.7220 C   0  0  0  0  0  0  0  0  0  0  0  0
  143.1610   75.7240  220.0690 C   0  0  0  0  0  0  0  0  0  0  0  0
  142.0010   75.3430  220.7000 C   0  0  0  0  0  0  0  0  0  0  0  0
  141.1120   76.2730  221.0200 N   0  0  0  0  0  0  0  0  0  0  0  0
  141.1057   79.9680  217.7450 H   0  0  0  0  0  0  0  0  0  0  0  0
  140.5780   81.6706  217.5231 H   0  0  0  0  0  0  0  0  0  0  0  0
  142.3280   81.2655  217.5231 H   0  0  0  0  0  0  0  0  0  0  0  0
  141.1880   82.4961  221.0371 H   0  0  0  0  0  0  0  0  0  0  0  0
  141.9816   83.2094  219.5921 H   0  0  0  0  0  0  0  0  0  0  0  0
  140.2088   82.9200  219.5921 H   0  0  0  0  0  0  0  0  0  0  0  0
  142.3543   81.1551  221.6507 H   0  0  0  0  0  0  0  0  0  0  0  0
  141.7376   78.1218  222.0547 H   0  0  0  0  0  0  0  0  0  0  0  0
  143.2972   78.8710  222.3025 H   0  0  0  0  0  0  0  0  0  0  0  0
  141.2360   78.4993  224.2578 H   0  0  0  0  0  0  0  0  0  0  0  0
  142.6897   79.4999  224.4804 H   0  0  0  0  0  0  0  0  0  0  0  0
  140.0994   80.5167  224.5024 H   0  0  0  0  0  0  0  0  0  0  0  0
  141.4481   81.5144  224.0973 H   0  0  0  0  0  0  0  0  0  0  0  0
  137.5898   79.2401  222.2831 H   0  0  0  0  0  0  0  0  0  0  0  0
  137.8533   79.8025  220.5879 H   0  0  0  0  0  0  0  0  0  0  0  0
  139.9860   78.4490  220.5810 H   0  0  0  0  0  0  0  0  0  0  0  0
  138.6747   74.5166  222.4766 H   0  0  0  0  0  0  0  0  0  0  0  0
  140.2856   72.6853  221.9107 H   0  0  0  0  0  0  0  0  0  0  0  0
  142.4740   72.0241  220.9047 H   0  0  0  0  0  0  0  0  0  0  0  0
  145.0380   75.0685  219.2159 H   0  0  0  0  0  0  0  0  0  0  0  0
  143.3367   76.7855  219.8402 H   0  0  0  0  0  0  0  0  0  0  0  0
  1  2  1  0
  2  3  1  0
  2  4  1  0
  4  5  2  0
  4  6  1  0
  6  7  1  0
  7  8  1  0
  8  9  1  0
  9 10  1  0
 10 11  1  0
 11 12  2  0
 11 13  1  0
 13 14  1  0
 14 15  1  0
 15 16  2  0
 15 17  1  0
 17 18  2  0
 18 19  1  0
 19 20  2  0
 20 21  1  0
 21 22  2  0
 22 23  1  0
 22 24  1  0
 24 25  2  0
 25 26  1  0
 26 27  2  0
 10  6  1  0
 27 17  1  0
 26 20  1  0
  1 28  1  0
  1 29  1  0
  1 30  1  0
  3 31  1  0
  3 32  1  0
  3 33  1  0
  6 34  1  6
  7 35  1  0
  7 36  1  0
  8 37  1  0
  8 38  1  0
  9 39  1  0
  9 40  1  0
 13 41  1  0
 13 42  1  0
 14 43  1  0
 18 44  1  0
 19 45  1  0
 21 46  1  0
 24 47  1  0
 25 48  1  0
M  END
>  <smiles>  (4) 
CN(C)C(=O)[C@@H]1CCCN1C(=O)CNC(=O)c1ccc2cc(Cl)ccc2n1

>  <score_type>  (4) 
oracle

>  <origin>  (4) 
autodockgpu

>  <m_score__min__energy>  (4) 
-8.0600000000000005

>  <m_primary>  (4) 
energy

>  <rmsd>  (4) 
6.662136293088627

>  <m_score__min__rmsd>  (4) 
6.662136293088627

>  <meeko>  (4) 
{"free_energy": -5.32, "intermolecular_energy": -6.81, "internal_energy": -3.15, "cluster_size": 3, "cluster_id": 6, "rank_in_cluster": 1}

>  <energy>  (4) 
-7.71

>  <cluster_rmsd>  (4) 
1.43

>  <cluster>  (4) 
1

$$$$

     RDKit          3D

 48 50  0  0  0  0  0  0  0  0999 V2000
  143.2690   80.5080  223.4620 C   0  0  0  0  0  0  0  0  0  0  0  0
  141.9740   80.3600  222.8040 N   0  0  0  0  0  0  0  0  0  0  0  0
  141.5020   81.4050  221.9380 C   0  0  0  0  0  0  0  0  0  0  0  0
  141.2290   79.1450  223.0600 C   0  0  0  0  0  0  0  0  0  0  0  0
  141.8050   78.3440  223.8300 O   0  0  0  0  0  0  0  0  0  0  0  0
  139.9440   79.0010  222.4160 C   0  0  2  0  0  0  0  0  0  0  0  0
  138.7730   79.1850  223.3710 C   0  0  0  0  0  0  0  0  0  0  0  0
  137.6170   78.6040  222.5900 C   0  0  0  0  0  0  0  0  0  0  0  0
  138.1970   77.9610  221.3550 C   0  0  0  0  0  0  0  0  0  0  0  0
  139.5890   77.7460  221.8310 N   0  0  0  0  0  0  0  0  0  0  0  0
  140.2360   76.5100  221.6450 C   0  0  0  0  0  0  0  0  0  0  0  0
  141.4450   76.2700  221.8520 O   0  0  0  0  0  0  0  0  0  0  0  0
  139.4450   75.3150  221.1480 C   0  0  0  0  0  0  0  0  0  0  0  0
  139.4650   74.2600  222.1120 N   0  0  0  0  0  0  0  0  0  0  0  0
  139.9850   72.9690  221.8150 C   0  0  0  0  0  0  0  0  0  0  0  0
  140.4610   72.6780  220.6720 O   0  0  0  0  0  0  0  0  0  0  0  0
  139.9720   71.9320  222.8600 C   0  0  0  0  0  0  0  0  0  0  0  0
  139.4840   70.6850  222.6190 C   0  0  0  0  0  0  0  0  0  0  0  0
  139.4960   69.7360  223.6460 C   0  0  0  0  0  0  0  0  0  0  0  0
  139.9960   70.0670  224.8840 C   0  0  0  0  0  0  0  0  0  0  0  0
  140.0460   69.1960  225.9500 C   0  0  0  0  0  0  0  0  0  0  0  0
  140.5680   69.6060  227.1750 C   0  0  0  0  0  0  0  0  0  0  0  0
  140.6240   68.4780  228.5300 Cl  0  0  0  0  0  0  0  0  0  0  0  0
  141.0540   70.8830  227.3760 C   0  0  0  0  0  0  0  0  0  0  0  0
  141.0030   71.7530  226.3110 C   0  0  0  0  0  0  0  0  0  0  0  0
  140.4880   71.3440  225.1050 C   0  0  0  0  0  0  0  0  0  0  0  0
  140.4540   72.2050  224.0980 N   0  0  0  0  0  0  0  0  0  0  0  0
  143.1298   80.4921  224.5531 H   0  0  0  0  0  0  0  0  0  0  0  0
  143.9284   79.6794  223.1643 H   0  0  0  0  0  0  0  0  0  0  0  0
  143.7244   81.4640  223.1643 H   0  0  0  0  0  0  0  0  0  0  0  0
  141.1243   82.2413  222.5446 H   0  0  0  0  0  0  0  0  0  0  0  0
  142.3287   81.7566  221.3032 H   0  0  0  0  0  0  0  0  0  0  0  0
  140.6917   81.0171  221.3032 H   0  0  0  0  0  0  0  0  0  0  0  0
  140.0934   79.7678  221.6416 H   0  0  0  0  0  0  0  0  0  0  0  0
  138.9353   78.6341  224.3092 H   0  0  0  0  0  0  0  0  0  0  0  0
  138.6152   80.2307  223.6737 H   0  0  0  0  0  0  0  0  0  0  0  0
  137.0919   77.8514  223.1964 H   0  0  0  0  0  0  0  0  0  0  0  0
  136.8924   79.3868  222.3212 H   0  0  0  0  0  0  0  0  0  0  0  0
  137.6949   77.0136  221.1096 H   0  0  0  0  0  0  0  0  0  0  0  0
  138.1007   78.5470  220.4291 H   0  0  0  0  0  0  0  0  0  0  0  0
  138.4036   75.6205  220.9685 H   0  0  0  0  0  0  0  0  0  0  0  0
  139.9019   74.9512  220.2158 H   0  0  0  0  0  0  0  0  0  0  0  0
  139.0880   74.4080  223.0940 H   0  0  0  0  0  0  0  0  0  0  0  0
  139.0845   70.4262  221.6273 H   0  0  0  0  0  0  0  0  0  0  0  0
  139.1053   68.7240  223.4637 H   0  0  0  0  0  0  0  0  0  0  0  0
  139.6708   68.1686  225.8332 H   0  0  0  0  0  0  0  0  0  0  0  0
  141.4653   71.1922  228.3482 H   0  0  0  0  0  0  0  0  0  0  0  0
  141.3766   72.7812  226.4260 H   0  0  0  0  0  0  0  0  0  0  0  0
  1  2  1  0
  2  3  1  0
  2  4  1  0
  4  5  2  0
  4  6  1  0
  6  7  1  0
  7  8  1  0
  8  9  1  0
  9 10  1  0
 10 11  1  0
 11 12  2  0
 11 13  1  0
 13 14  1  0
 14 15  1  0
 15 16  2  0
 15 17  1  0
 17 18  2  0
 18 19  1  0
 19 20  2  0
 20 21  1  0
 21 22  2  0
 22 23  1  0
 22 24  1  0
 24 25  2  0
 25 26  1  0
 26 27  2  0
 10  6  1  0
 27 17  1  0
 26 20  1  0
  1 28  1  0
  1 29  1  0
  1 30  1  0
  3 31  1  0
  3 32  1  0
  3 33  1  0
  6 34  1  6
  7 35  1  0
  7 36  1  0
  8 37  1  0
  8 38  1  0
  9 39  1  0
  9 40  1  0
 13 41  1  0
 13 42  1  0
 14 43  1  0
 18 44  1  0
 19 45  1  0
 21 46  1  0
 24 47  1  0
 25 48  1  0
M  END
>  <smiles>  (5) 
CN(C)C(=O)[C@@H]1CCCN1C(=O)CNC(=O)c1ccc2cc(Cl)ccc2n1

>  <score_type>  (5) 
oracle

>  <origin>  (5) 
autodockgpu

>  <m_score__min__energy>  (5) 
-8.0600000000000005

>  <m_primary>  (5) 
energy

>  <rmsd>  (5) 
3.2148613753592823

>  <m_score__min__rmsd>  (5) 
3.2148613753592823

>  <meeko>  (5) 
{"free_energy": -7.91, "intermolecular_energy": -9.4, "internal_energy": -1.31, "cluster_size": 34, "cluster_id": 1, "rank_in_cluster": 3}

>  <energy>  (5) 
-7.7

>  <cluster_rmsd>  (5) 
1.56

>  <cluster>  (5) 
1

$$$$

     RDKit          3D

 48 50  0  0  0  0  0  0  0  0999 V2000
  143.2240   71.6500  220.5530 C   0  0  0  0  0  0  0  0  0  0  0  0
  142.5590   72.7720  219.8950 N   0  0  0  0  0  0  0  0  0  0  0  0
  141.3960   72.5250  219.0890 C   0  0  0  0  0  0  0  0  0  0  0  0
  143.1170   74.0930  220.1010 C   0  0  0  0  0  0  0  0  0  0  0  0
  144.1230   74.1130  220.8450 O   0  0  0  0  0  0  0  0  0  0  0  0
  142.4660   75.2020  219.4440 C   0  0  2  0  0  0  0  0  0  0  0  0
  143.3520   76.4350  219.3340 C   0  0  0  0  0  0  0  0  0  0  0  0
  142.3590   77.5260  219.0080 C   0  0  0  0  0  0  0  0  0  0  0  0
  140.9820   76.9240  219.1370 C   0  0  0  0  0  0  0  0  0  0  0  0
  141.3050   75.7860  220.0390 N   0  0  0  0  0  0  0  0  0  0  0  0
  140.5140   75.5120  221.1710 C   0  0  0  0  0  0  0  0  0  0  0  0
  140.6300   76.0400  222.2980 O   0  0  0  0  0  0  0  0  0  0  0  0
  139.3990   74.4890  221.0780 C   0  0  0  0  0  0  0  0  0  0  0  0
  139.5340   73.5010  222.1010 N   0  0  0  0  0  0  0  0  0  0  0  0
  139.3240   72.1150  221.8530 C   0  0  0  0  0  0  0  0  0  0  0  0
  139.0010   71.6750  220.7040 O   0  0  0  0  0  0  0  0  0  0  0  0
  139.4820   71.1550  222.9580 C   0  0  0  0  0  0  0  0  0  0  0  0
  139.0530   69.8680  222.8500 C   0  0  0  0  0  0  0  0  0  0  0  0
  139.2280   68.9960  223.9290 C   0  0  0  0  0  0  0  0  0  0  0  0
  139.8270   69.4420  225.0840 C   0  0  0  0  0  0  0  0  0  0  0  0
  140.0380   68.6520  226.1930 C   0  0  0  0  0  0  0  0  0  0  0  0
  140.6540   69.1770  227.3270 C   0  0  0  0  0  0  0  0  0  0  0  0
  140.9170   68.1520  228.7390 Cl  0  0  0  0  0  0  0  0  0  0  0  0
  141.0750   70.4900  227.3950 C   0  0  0  0  0  0  0  0  0  0  0  0
  140.8630   71.2790  226.2870 C   0  0  0  0  0  0  0  0  0  0  0  0
  140.2560   70.7570  225.1700 C   0  0  0  0  0  0  0  0  0  0  0  0
  140.0670   71.5420  224.1190 N   0  0  0  0  0  0  0  0  0  0  0  0
  143.1527   71.7702  221.6441 H   0  0  0  0  0  0  0  0  0  0  0  0
  142.7374   70.7095  220.2552 H   0  0  0  0  0  0  0  0  0  0  0  0
  144.2826   71.6254  220.2552 H   0  0  0  0  0  0  0  0  0  0  0  0
  140.5299   72.3411  219.7417 H   0  0  0  0  0  0  0  0  0  0  0  0
  141.1971   73.4009  218.4540 H   0  0  0  0  0  0  0  0  0  0  0  0
  141.5703   71.6438  218.4540 H   0  0  0  0  0  0  0  0  0  0  0  0
  142.2088   74.6767  218.5124 H   0  0  0  0  0  0  0  0  0  0  0  0
  143.8685   76.6389  220.2836 H   0  0  0  0  0  0  0  0  0  0  0  0
  144.1521   76.3336  218.5859 H   0  0  0  0  0  0  0  0  0  0  0  0
  142.4727   78.3629  219.7128 H   0  0  0  0  0  0  0  0  0  0  0  0
  142.5232   77.9147  217.9921 H   0  0  0  0  0  0  0  0  0  0  0  0
  140.2680   77.6236  219.5961 H   0  0  0  0  0  0  0  0  0  0  0  0
  140.4959   76.6510  218.1888 H   0  0  0  0  0  0  0  0  0  0  0  0
  138.4309   74.9984  221.1934 H   0  0  0  0  0  0  0  0  0  0  0  0
  139.4547   73.9931  220.0977 H   0  0  0  0  0  0  0  0  0  0  0  0
  139.8000   73.7720  223.0930 H   0  0  0  0  0  0  0  0  0  0  0  0
  138.5738   69.5175  221.9240 H   0  0  0  0  0  0  0  0  0  0  0  0
  138.8865   67.9530  223.8541 H   0  0  0  0  0  0  0  0  0  0  0  0
  139.7179   67.5997  226.1829 H   0  0  0  0  0  0  0  0  0  0  0  0
  141.5601   70.8895  228.2978 H   0  0  0  0  0  0  0  0  0  0  0  0
  141.1809   72.3320  226.2958 H   0  0  0  0  0  0  0  0  0  0  0  0
  1  2  1  0
  2  3  1  0
  2  4  1  0
  4  5  2  0
  4  6  1  0
  6  7  1  0
  7  8  1  0
  8  9  1  0
  9 10  1  0
 10 11  1  0
 11 12  2  0
 11 13  1  0
 13 14  1  0
 14 15  1  0
 15 16  2  0
 15 17  1  0
 17 18  2  0
 18 19  1  0
 19 20  2  0
 20 21  1  0
 21 22  2  0
 22 23  1  0
 22 24  1  0
 24 25  2  0
 25 26  1  0
 26 27  2  0
 10  6  1  0
 27 17  1  0
 26 20  1  0
  1 28  1  0
  1 29  1  0
  1 30  1  0
  3 31  1  0
  3 32  1  0
  3 33  1  0
  6 34  1  6
  7 35  1  0
  7 36  1  0
  8 37  1  0
  8 38  1  0
  9 39  1  0
  9 40  1  0
 13 41  1  0
 13 42  1  0
 14 43  1  0
 18 44  1  0
 19 45  1  0
 21 46  1  0
 24 47  1  0
 25 48  1  0
M  END
>  <smiles>  (6) 
CN(C)C(=O)[C@@H]1CCCN1C(=O)CNC(=O)c1ccc2cc(Cl)ccc2n1

>  <score_type>  (6) 
oracle

>  <origin>  (6) 
autodockgpu

>  <m_score__min__energy>  (6) 
-8.0600000000000005

>  <m_primary>  (6) 
energy

>  <rmsd>  (6) 
2.9742365796567003

>  <m_score__min__rmsd>  (6) 
2.9742365796567003

>  <meeko>  (6) 
{"free_energy": -6.78, "intermolecular_energy": -8.27, "internal_energy": -2.2, "cluster_size": 7, "cluster_id": 2, "rank_in_cluster": 5}

>  <energy>  (6) 
-7.67

>  <cluster_rmsd>  (6) 
1.32

>  <cluster>  (6) 
1

$$$$

     RDKit          3D

 48 50  0  0  0  0  0  0  0  0999 V2000
  141.5320   72.3060  227.6170 C   0  0  0  0  0  0  0  0  0  0  0  0
  140.5480   71.3150  227.1940 N   0  0  0  0  0  0  0  0  0  0  0  0
  139.9020   70.4970  228.1840 C   0  0  0  0  0  0  0  0  0  0  0  0
  140.2690   71.2130  225.7760 C   0  0  0  0  0  0  0  0  0  0  0  0
  140.9170   72.0150  225.0670 O   0  0  0  0  0  0  0  0  0  0  0  0
  139.3010   70.2270  225.3550 C   0  0  2  0  0  0  0  0  0  0  0  0
  139.9260   68.8760  225.0320 C   0  0  0  0  0  0  0  0  0  0  0  0
  138.8290   68.1830  224.2580 C   0  0  0  0  0  0  0  0  0  0  0  0
  137.7450   69.2050  224.0150 C   0  0  0  0  0  0  0  0  0  0  0  0
  138.5530   70.4440  224.1560 N   0  0  0  0  0  0  0  0  0  0  0  0
  138.4530   71.4850  223.2140 C   0  0  0  0  0  0  0  0  0  0  0  0
  137.5160   72.3060  223.1160 O   0  0  0  0  0  0  0  0  0  0  0  0
  139.5570   71.6820  222.1930 C   0  0  0  0  0  0  0  0  0  0  0  0
  139.8790   73.0670  222.0580 N   0  0  0  0  0  0  0  0  0  0  0  0
  140.9550   73.5230  221.2460 C   0  0  0  0  0  0  0  0  0  0  0  0
  141.6960   72.7210  220.5930 O   0  0  0  0  0  0  0  0  0  0  0  0
  141.2270   74.9670  221.1570 C   0  0  0  0  0  0  0  0  0  0  0  0
  142.0100   75.4850  220.1720 C   0  0  0  0  0  0  0  0  0  0  0  0
  142.2360   76.8640  220.1310 C   0  0  0  0  0  0  0  0  0  0  0  0
  141.6700   77.6820  221.0810 C   0  0  0  0  0  0  0  0  0  0  0  0
  141.8400   79.0490  221.1150 C   0  0  0  0  0  0  0  0  0  0  0  0
  141.2320   79.8120  222.1110 C   0  0  0  0  0  0  0  0  0  0  0  0
  141.4590   81.5610  222.1410 Cl  0  0  0  0  0  0  0  0  0  0  0  0
  140.4430   79.2460  223.0920 C   0  0  0  0  0  0  0  0  0  0  0  0
  140.2740   77.8800  223.0570 C   0  0  0  0  0  0  0  0  0  0  0  0
  140.8750   77.1320  222.0740 C   0  0  0  0  0  0  0  0  0  0  0  0
  140.6920   75.8190  222.0670 N   0  0  0  0  0  0  0  0  0  0  0  0
  141.5674   72.3417  228.7159 H   0  0  0  0  0  0  0  0  0  0  0  0
  142.5225   72.0289  227.2270 H   0  0  0  0  0  0  0  0  0  0  0  0
  141.2478   73.2945  227.2270 H   0  0  0  0  0  0  0  0  0  0  0  0
  140.1799   70.8489  229.1885 H   0  0  0  0  0  0  0  0  0  0  0  0
  138.8110   70.5648  228.0605 H   0  0  0  0  0  0  0  0  0  0  0  0
  140.2207   69.4515  228.0605 H   0  0  0  0  0  0  0  0  0  0  0  0
  138.6511   70.2883  226.2404 H   0  0  0  0  0  0  0  0  0  0  0  0
  140.8315   68.9937  224.4187 H   0  0  0  0  0  0  0  0  0  0  0  0
  140.2515   68.3198  225.9234 H   0  0  0  0  0  0  0  0  0  0  0  0
  139.2200   67.8121  223.2991 H   0  0  0  0  0  0  0  0  0  0  0  0
  138.4372   67.3219  224.8192 H   0  0  0  0  0  0  0  0  0  0  0  0
  137.3077   69.1106  223.0101 H   0  0  0  0  0  0  0  0  0  0  0  0
  136.8715   69.1333  224.6797 H   0  0  0  0  0  0  0  0  0  0  0  0
  140.4527   71.1332  222.5194 H   0  0  0  0  0  0  0  0  0  0  0  0
  139.2105   71.3032  221.2201 H   0  0  0  0  0  0  0  0  0  0  0  0
  139.3180   73.8130  222.5660 H   0  0  0  0  0  0  0  0  0  0  0  0
  142.4605   74.8254  219.4157 H   0  0  0  0  0  0  0  0  0  0  0  0
  142.8664   77.2948  219.3391 H   0  0  0  0  0  0  0  0  0  0  0  0
  142.4596   79.5416  220.3512 H   0  0  0  0  0  0  0  0  0  0  0  0
  139.9683   79.8615  223.8704 H   0  0  0  0  0  0  0  0  0  0  0  0
  139.6548   77.3853  223.8198 H   0  0  0  0  0  0  0  0  0  0  0  0
  1  2  1  0
  2  3  1  0
  2  4  1  0
  4  5  2  0
  4  6  1  0
  6  7  1  0
  7  8  1  0
  8  9  1  0
  9 10  1  0
 10 11  1  0
 11 12  2  0
 11 13  1  0
 13 14  1  0
 14 15  1  0
 15 16  2  0
 15 17  1  0
 17 18  2  0
 18 19  1  0
 19 20  2  0
 20 21  1  0
 21 22  2  0
 22 23  1  0
 22 24  1  0
 24 25  2  0
 25 26  1  0
 26 27  2  0
 10  6  1  0
 27 17  1  0
 26 20  1  0
  1 28  1  0
  1 29  1  0
  1 30  1  0
  3 31  1  0
  3 32  1  0
  3 33  1  0
  6 34  1  1
  7 35  1  0
  7 36  1  0
  8 37  1  0
  8 38  1  0
  9 39  1  0
  9 40  1  0
 13 41  1  0
 13 42  1  0
 14 43  1  0
 18 44  1  0
 19 45  1  0
 21 46  1  0
 24 47  1  0
 25 48  1  0
M  END
>  <smiles>  (7) 
CN(C)C(=O)[C@@H]1CCCN1C(=O)CNC(=O)c1ccc2cc(Cl)ccc2n1

>  <score_type>  (7) 
oracle

>  <origin>  (7) 
autodockgpu

>  <m_score__min__energy>  (7) 
-8.0600000000000005

>  <m_primary>  (7) 
energy

>  <rmsd>  (7) 
8.314165435883618

>  <m_score__min__rmsd>  (7) 
8.314165435883618

>  <meeko>  (7) 
{"free_energy": -6.76, "intermolecular_energy": -8.25, "internal_energy": -1.96, "cluster_size": 2, "cluster_id": 3, "rank_in_cluster": 1}

>  <energy>  (7) 
-7.66

>  <cluster_rmsd>  (7) 
1.57

>  <cluster>  (7) 
1

$$$$

     RDKit          3D

 48 50  0  0  0  0  0  0  0  0999 V2000
  139.8220   80.7400  223.7090 C   0  0  0  0  0  0  0  0  0  0  0  0
  140.7280   79.7830  223.0790 N   0  0  0  0  0  0  0  0  0  0  0  0
  141.8520   79.2840  223.8220 C   0  0  0  0  0  0  0  0  0  0  0  0
  140.4340   79.3810  221.7190 C   0  0  0  0  0  0  0  0  0  0  0  0
  139.4070   79.9110  221.2390 O   0  0  0  0  0  0  0  0  0  0  0  0
  141.3340   78.4410  221.0910 C   0  0  2  0  0  0  0  0  0  0  0  0
  141.5950   78.7520  219.6240 C   0  0  0  0  0  0  0  0  0  0  0  0
  142.1950   77.4620  219.1160 C   0  0  0  0  0  0  0  0  0  0  0  0
  142.0710   76.4490  220.2270 C   0  0  0  0  0  0  0  0  0  0  0  0
  140.9540   77.0670  220.9880 N   0  0  0  0  0  0  0  0  0  0  0  0
  139.8590   76.2970  221.4230 C   0  0  0  0  0  0  0  0  0  0  0  0
  139.0180   76.6290  222.2860 O   0  0  0  0  0  0  0  0  0  0  0  0
  139.6230   74.9230  220.8250 C   0  0  0  0  0  0  0  0  0  0  0  0
  139.5290   73.9340  221.8530 N   0  0  0  0  0  0  0  0  0  0  0  0
  140.2250   72.6950  221.7830 C   0  0  0  0  0  0  0  0  0  0  0  0
  140.9710   72.3930  220.7980 O   0  0  0  0  0  0  0  0  0  0  0  0
  140.0790   71.7260  222.8810 C   0  0  0  0  0  0  0  0  0  0  0  0
  139.4110   70.5530  222.7120 C   0  0  0  0  0  0  0  0  0  0  0  0
  139.3020   69.6660  223.7870 C   0  0  0  0  0  0  0  0  0  0  0  0
  139.8660   69.9830  225.0000 C   0  0  0  0  0  0  0  0  0  0  0  0
  139.8070   69.1690  226.1100 C   0  0  0  0  0  0  0  0  0  0  0  0
  140.4050   69.5600  227.3060 C   0  0  0  0  0  0  0  0  0  0  0  0
  140.3190   68.5060  228.7190 Cl  0  0  0  0  0  0  0  0  0  0  0  0
  141.0750   70.7610  227.4360 C   0  0  0  0  0  0  0  0  0  0  0  0
  141.1340   71.5730  226.3260 C   0  0  0  0  0  0  0  0  0  0  0  0
  140.5430   71.1830  225.1490 C   0  0  0  0  0  0  0  0  0  0  0  0
  140.6180   71.9880  224.0980 N   0  0  0  0  0  0  0  0  0  0  0  0
  139.9021   80.6554  224.8028 H   0  0  0  0  0  0  0  0  0  0  0  0
  140.0930   81.7601  223.3993 H   0  0  0  0  0  0  0  0  0  0  0  0
  138.7886   80.5252  223.3993 H   0  0  0  0  0  0  0  0  0  0  0  0
  141.6487   79.3743  224.8993 H   0  0  0  0  0  0  0  0  0  0  0  0
  142.0195   78.2270  223.5678 H   0  0  0  0  0  0  0  0  0  0  0  0
  142.7484   79.8687  223.5678 H   0  0  0  0  0  0  0  0  0  0  0  0
  142.1716   78.5653  221.7931 H   0  0  0  0  0  0  0  0  0  0  0  0
  140.6599   78.9901  219.0960 H   0  0  0  0  0  0  0  0  0  0  0  0
  142.2440   79.6268  219.4707 H   0  0  0  0  0  0  0  0  0  0  0  0
  141.6482   77.1157  218.2266 H   0  0  0  0  0  0  0  0  0  0  0  0
  143.2479   77.6047  218.8312 H   0  0  0  0  0  0  0  0  0  0  0  0
  141.8075   75.4510  219.8467 H   0  0  0  0  0  0  0  0  0  0  0  0
  142.9900   76.2669  220.8035 H   0  0  0  0  0  0  0  0  0  0  0  0
  138.6857   74.9358  220.2494 H   0  0  0  0  0  0  0  0  0  0  0  0
  140.4700   74.6723  220.1694 H   0  0  0  0  0  0  0  0  0  0  0  0
  138.9300   74.0950  222.7150 H   0  0  0  0  0  0  0  0  0  0  0  0
  138.9612   70.3050  221.7393 H   0  0  0  0  0  0  0  0  0  0  0  0
  138.7648   68.7142  223.6623 H   0  0  0  0  0  0  0  0  0  0  0  0
  139.2838   68.2031  226.0515 H   0  0  0  0  0  0  0  0  0  0  0  0
  141.5420   71.0563  228.3872 H   0  0  0  0  0  0  0  0  0  0  0  0
  141.6571   72.5391  226.3819 H   0  0  0  0  0  0  0  0  0  0  0  0
  1  2  1  0
  2  3  1  0
  2  4  1  0
  4  5  2  0
  4  6  1  0
  6  7  1  0
  7  8  1  0
  8  9  1  0
  9 10  1  0
 10 11  1  0
 11 12  2  0
 11 13  1  0
 13 14  1  0
 14 15  1  0
 15 16  2  0
 15 17  1  0
 17 18  2  0
 18 19  1  0
 19 20  2  0
 20 21  1  0
 21 22  2  0
 22 23  1  0
 22 24  1  0
 24 25  2  0
 25 26  1  0
 26 27  2  0
 10  6  1  0
 27 17  1  0
 26 20  1  0
  1 28  1  0
  1 29  1  0
  1 30  1  0
  3 31  1  0
  3 32  1  0
  3 33  1  0
  6 34  1  1
  7 35  1  0
  7 36  1  0
  8 37  1  0
  8 38  1  0
  9 39  1  0
  9 40  1  0
 13 41  1  0
 13 42  1  0
 14 43  1  0
 18 44  1  0
 19 45  1  0
 21 46  1  0
 24 47  1  0
 25 48  1  0
M  END
>  <smiles>  (8) 
CN(C)C(=O)[C@@H]1CCCN1C(=O)CNC(=O)c1ccc2cc(Cl)ccc2n1

>  <score_type>  (8) 
oracle

>  <origin>  (8) 
autodockgpu

>  <m_score__min__energy>  (8) 
-8.0600000000000005

>  <m_primary>  (8) 
energy

>  <rmsd>  (8) 
2.107363509507634

>  <m_score__min__rmsd>  (8) 
2.107363509507634

>  <meeko>  (8) 
{"free_energy": -7.45, "intermolecular_energy": -8.94, "internal_energy": -1.53, "cluster_size": 34, "cluster_id": 1, "rank_in_cluster": 16}

>  <energy>  (8) 
-7.65

>  <cluster_rmsd>  (8) 
1.68

>  <cluster>  (8) 
1

$$$$

     RDKit          3D

 48 50  0  0  0  0  0  0  0  0999 V2000
  140.4890   79.0950  223.5780 C   0  0  0  0  0  0  0  0  0  0  0  0
  141.4060   78.9400  222.4520 N   0  0  0  0  0  0  0  0  0  0  0  0
  142.5980   79.7410  222.4000 C   0  0  0  0  0  0  0  0  0  0  0  0
  141.0590   77.9670  221.4360 C   0  0  0  0  0  0  0  0  0  0  0  0
  139.9900   77.3550  221.6580 O   0  0  0  0  0  0  0  0  0  0  0  0
  141.9600   77.8180  220.3180 C   0  0  2  0  0  0  0  0  0  0  0  0
  141.3470   78.2540  218.9940 C   0  0  0  0  0  0  0  0  0  0  0  0
  142.2850   77.6420  217.9800 C   0  0  0  0  0  0  0  0  0  0  0  0
  143.2410   76.7550  218.7400 C   0  0  0  0  0  0  0  0  0  0  0  0
  142.4230   76.5150  219.9580 N   0  0  0  0  0  0  0  0  0  0  0  0
  142.2680   75.2180  220.4810 C   0  0  0  0  0  0  0  0  0  0  0  0
  143.1820   74.4790  220.9090 O   0  0  0  0  0  0  0  0  0  0  0  0
  140.8850   74.6000  220.5630 C   0  0  0  0  0  0  0  0  0  0  0  0
  140.8340   73.6090  221.5900 N   0  0  0  0  0  0  0  0  0  0  0  0
  139.6750   72.8180  221.8270 C   0  0  0  0  0  0  0  0  0  0  0  0
  138.6140   72.9490  221.1380 O   0  0  0  0  0  0  0  0  0  0  0  0
  139.6980   71.8150  222.9050 C   0  0  0  0  0  0  0  0  0  0  0  0
  139.1170   70.5940  222.7530 C   0  0  0  0  0  0  0  0  0  0  0  0
  139.1680   69.6760  223.8070 C   0  0  0  0  0  0  0  0  0  0  0  0
  139.7990   70.0130  224.9820 C   0  0  0  0  0  0  0  0  0  0  0  0
  139.8950   69.1710  226.0690 C   0  0  0  0  0  0  0  0  0  0  0  0
  140.5520   69.5850  227.2260 C   0  0  0  0  0  0  0  0  0  0  0  0
  140.6670   68.4960  228.6100 Cl  0  0  0  0  0  0  0  0  0  0  0  0
  141.1280   70.8350  227.3380 C   0  0  0  0  0  0  0  0  0  0  0  0
  141.0320   71.6740  226.2520 C   0  0  0  0  0  0  0  0  0  0  0  0
  140.3830   71.2620  225.1130 C   0  0  0  0  0  0  0  0  0  0  0  0
  140.3080   72.0940  224.0830 N   0  0  0  0  0  0  0  0  0  0  0  0
  141.0472   79.0007  224.5211 H   0  0  0  0  0  0  0  0  0  0  0  0
  140.0142   80.0861  223.5305 H   0  0  0  0  0  0  0  0  0  0  0  0
  139.7149   78.3150  223.5305 H   0  0  0  0  0  0  0  0  0  0  0  0
  142.9333   79.9663  223.4231 H   0  0  0  0  0  0  0  0  0  0  0  0
  143.3875   79.1894  221.8685 H   0  0  0  0  0  0  0  0  0  0  0  0
  142.3856   80.6804  221.8685 H   0  0  0  0  0  0  0  0  0  0  0  0
  142.7807   78.4281  220.7232 H   0  0  0  0  0  0  0  0  0  0  0  0
  140.3265   77.8597  218.8798 H   0  0  0  0  0  0  0  0  0  0  0  0
  141.2476   79.3451  218.8958 H   0  0  0  0  0  0  0  0  0  0  0  0
  141.7162   77.0465  217.2507 H   0  0  0  0  0  0  0  0  0  0  0  0
  142.8291   78.4227  217.4282 H   0  0  0  0  0  0  0  0  0  0  0  0
  143.4565   75.8222  218.1982 H   0  0  0  0  0  0  0  0  0  0  0  0
  144.2392   77.1813  218.9187 H   0  0  0  0  0  0  0  0  0  0  0  0
  140.1502   75.3879  220.7850 H   0  0  0  0  0  0  0  0  0  0  0  0
  140.6539   74.1224  219.5995 H   0  0  0  0  0  0  0  0  0  0  0  0
  141.6720   73.4260  222.2180 H   0  0  0  0  0  0  0  0  0  0  0  0
  138.6126   70.3317  221.8113 H   0  0  0  0  0  0  0  0  0  0  0  0
  138.7037   68.6849  223.6964 H   0  0  0  0  0  0  0  0  0  0  0  0
  139.4502   68.1660  226.0229 H   0  0  0  0  0  0  0  0  0  0  0  0
  141.6429   71.1473  228.2585 H   0  0  0  0  0  0  0  0  0  0  0  0
  141.4767   72.6791  226.2956 H   0  0  0  0  0  0  0  0  0  0  0  0
  1  2  1  0
  2  3  1  0
  2  4  1  0
  4  5  2  0
  4  6  1  0
  6  7  1  0
  7  8  1  0
  8  9  1  0
  9 10  1  0
 10 11  1  0
 11 12  2  0
 11 13  1  0
 13 14  1  0
 14 15  1  0
 15 16  2  0
 15 17  1  0
 17 18  2  0
 18 19  1  0
 19 20  2  0
 20 21  1  0
 21 22  2  0
 22 23  1  0
 22 24  1  0
 24 25  2  0
 25 26  1  0
 26 27  2  0
 10  6  1  0
 27 17  1  0
 26 20  1  0
  1 28  1  0
  1 29  1  0
  1 30  1  0
  3 31  1  0
  3 32  1  0
  3 33  1  0
  6 34  1  1
  7 35  1  0
  7 36  1  0
  8 37  1  0
  8 38  1  0
  9 39  1  0
  9 40  1  0
 13 41  1  0
 13 42  1  0
 14 43  1  0
 18 44  1  0
 19 45  1  0
 21 46  1  0
 24 47  1  0
 25 48  1  0
M  END
>  <smiles>  (9) 
CN(C)C(=O)[C@@H]1CCCN1C(=O)CNC(=O)c1ccc2cc(Cl)ccc2n1

>  <score_type>  (9) 
oracle

>  <origin>  (9) 
autodockgpu

>  <m_score__min__energy>  (9) 
-8.0600000000000005

>  <m_primary>  (9) 
energy

>  <rmsd>  (9) 
2.2718053936008755

>  <m_score__min__rmsd>  (9) 
2.2718053936008755

>  <meeko>  (9) 
{"free_energy": -6.85, "intermolecular_energy": -8.34, "internal_energy": -1.94, "cluster_size": 7, "cluster_id": 2, "rank_in_cluster": 4}

>  <energy>  (9) 
-7.63

>  <cluster_rmsd>  (9) 
1.5

>  <cluster>  (9) 
1

$$$$

     RDKit          3D

 48 50  0  0  0  0  0  0  0  0999 V2000
  140.5030   80.7150  223.1510 C   0  0  0  0  0  0  0  0  0  0  0  0
  141.1800   79.4890  222.7400 N   0  0  0  0  0  0  0  0  0  0  0  0
  141.8100   78.6660  223.7350 C   0  0  0  0  0  0  0  0  0  0  0  0
  141.1730   79.1620  221.3290 C   0  0  0  0  0  0  0  0  0  0  0  0
  140.5640   79.9910  220.6140 O   0  0  0  0  0  0  0  0  0  0  0  0
  141.8500   77.9540  220.9190 C   0  0  2  0  0  0  0  0  0  0  0  0
  142.1590   77.9180  219.4290 C   0  0  0  0  0  0  0  0  0  0  0  0
  142.4700   76.4580  219.1930 C   0  0  0  0  0  0  0  0  0  0  0  0
  142.1440   75.7240  220.4700 C   0  0  0  0  0  0  0  0  0  0  0  0
  141.1880   76.6960  221.0640 N   0  0  0  0  0  0  0  0  0  0  0  0
  139.9590   76.2670  221.5990 C   0  0  0  0  0  0  0  0  0  0  0  0
  139.2820   76.8630  222.4660 O   0  0  0  0  0  0  0  0  0  0  0  0
  139.3430   74.9670  221.1200 C   0  0  0  0  0  0  0  0  0  0  0  0
  139.4390   73.9600  222.1290 N   0  0  0  0  0  0  0  0  0  0  0  0
  139.6840   72.5930  221.8190 C   0  0  0  0  0  0  0  0  0  0  0  0
  139.8310   72.1870  220.6230 O   0  0  0  0  0  0  0  0  0  0  0  0
  139.7710   71.6120  222.9140 C   0  0  0  0  0  0  0  0  0  0  0  0
  139.3510   70.3280  222.7540 C   0  0  0  0  0  0  0  0  0  0  0  0
  139.4560   69.4350  223.8250 C   0  0  0  0  0  0  0  0  0  0  0  0
  139.9780   69.8590  225.0250 C   0  0  0  0  0  0  0  0  0  0  0  0
  140.1170   69.0480  226.1300 C   0  0  0  0  0  0  0  0  0  0  0  0
  140.6560   69.5520  227.3130 C   0  0  0  0  0  0  0  0  0  0  0  0
  140.8280   68.5000  228.7190 Cl  0  0  0  0  0  0  0  0  0  0  0  0
  141.0700   70.8630  227.4330 C   0  0  0  0  0  0  0  0  0  0  0  0
  140.9310   71.6730  226.3280 C   0  0  0  0  0  0  0  0  0  0  0  0
  140.3990   71.1720  225.1640 C   0  0  0  0  0  0  0  0  0  0  0  0
  140.2780   71.9770  224.1180 N   0  0  0  0  0  0  0  0  0  0  0  0
  140.4741   80.7673  224.2494 H   0  0  0  0  0  0  0  0  0  0  0  0
  141.0486   81.5850  222.7567 H   0  0  0  0  0  0  0  0  0  0  0  0
  139.4761   80.7167  222.7567 H   0  0  0  0  0  0  0  0  0  0  0  0
  141.5342   79.0263  224.7371 H   0  0  0  0  0  0  0  0  0  0  0  0
  141.4759   77.6249  223.6149 H   0  0  0  0  0  0  0  0  0  0  0  0
  142.9022   78.7167  223.6149 H   0  0  0  0  0  0  0  0  0  0  0  0
  142.7009   78.0329  221.6117 H   0  0  0  0  0  0  0  0  0  0  0  0
  141.2908   78.2402  218.8354 H   0  0  0  0  0  0  0  0  0  0  0  0
  142.9763   78.5929  219.1349 H   0  0  0  0  0  0  0  0  0  0  0  0
  141.8557   76.0699  218.3671 H   0  0  0  0  0  0  0  0  0  0  0  0
  143.5271   76.3214  218.9214 H   0  0  0  0  0  0  0  0  0  0  0  0
  141.6728   74.7491  220.2759 H   0  0  0  0  0  0  0  0  0  0  0  0
  143.0082   75.4673  221.1002 H   0  0  0  0  0  0  0  0  0  0  0  0
  138.2832   75.1369  220.8792 H   0  0  0  0  0  0  0  0  0  0  0  0
  139.8876   74.6258  220.2273 H   0  0  0  0  0  0  0  0  0  0  0  0
  139.3300   74.2030  223.1580 H   0  0  0  0  0  0  0  0  0  0  0  0
  138.9332   69.9957  221.7922 H   0  0  0  0  0  0  0  0  0  0  0  0
  139.1212   68.3937  223.7079 H   0  0  0  0  0  0  0  0  0  0  0  0
  139.8006   67.9957  226.0786 H   0  0  0  0  0  0  0  0  0  0  0  0
  141.4939   71.2455  228.3732 H   0  0  0  0  0  0  0  0  0  0  0  0
  141.2471   72.7255  226.3772 H   0  0  0  0  0  0  0  0  0  0  0  0
  1  2  1  0
  2  3  1  0
  2  4  1  0
  4  5  2  0
  4  6  1  0
  6  7  1  0
  7  8  1  0
  8  9  1  0
  9 10  1  0
 10 11  1  0
 11 12  2  0
 11 13  1  0
 13 14  1  0
 14 15  1  0
 15 16  2  0
 15 17  1  0
 17 18  2  0
 18 19  1  0
 19 20  2  0
 20 21  1  0
 21 22  2  0
 22 23  1  0
 22 24  1  0
 24 25  2  0
 25 26  1  0
 26 27  2  0
 10  6  1  0
 27 17  1  0
 26 20  1  0
  1 28  1  0
  1 29  1  0
  1 30  1  0
  3 31  1  0
  3 32  1  0
  3 33  1  0
  6 34  1  1
  7 35  1  0
  7 36  1  0
  8 37  1  0
  8 38  1  0
  9 39  1  0
  9 40  1  0
 13 41  1  0
 13 42  1  0
 14 43  1  0
 18 44  1  0
 19 45  1  0
 21 46  1  0
 24 47  1  0
 25 48  1  0
M  END
>  <smiles>  (10) 
CN(C)C(=O)[C@@H]1CCCN1C(=O)CNC(=O)c1ccc2cc(Cl)ccc2n1

>  <score_type>  (10) 
oracle

>  <origin>  (10) 
autodockgpu

>  <m_score__min__energy>  (10) 
-8.0600000000000005

>  <m_primary>  (10) 
energy

>  <rmsd>  (10) 
1.9465473774687159

>  <m_score__min__rmsd>  (10) 
1.9465473774687159

>  <meeko>  (10) 
{"free_energy": -7.54, "intermolecular_energy": -9.03, "internal_energy": -1.65, "cluster_size": 34, "cluster_id": 1, "rank_in_cluster": 13}

>  <energy>  (10) 
-7.59

>  <cluster_rmsd>  (10) 
1.64

>  <cluster>  (10) 
1

$$$$

     RDKit          3D

 48 50  0  0  0  0  0  0  0  0999 V2000
  140.4830   80.7520  223.1780 C   0  0  0  0  0  0  0  0  0  0  0  0
  141.3620   79.9040  222.3780 N   0  0  0  0  0  0  0  0  0  0  0  0
  142.5760   79.4020  222.9610 C   0  0  0  0  0  0  0  0  0  0  0  0
  140.9510   79.6050  221.0220 C   0  0  0  0  0  0  0  0  0  0  0  0
  139.8580   80.1190  220.6930 O   0  0  0  0  0  0  0  0  0  0  0  0
  141.8240   78.7730  220.2270 C   0  0  2  0  0  0  0  0  0  0  0  0
  141.5180   78.8390  218.7360 C   0  0  0  0  0  0  0  0  0  0  0  0
  142.2480   77.6310  218.1980 C   0  0  0  0  0  0  0  0  0  0  0  0
  142.7530   76.8520  219.3870 C   0  0  0  0  0  0  0  0  0  0  0  0
  141.8090   77.3570  220.4190 N   0  0  0  0  0  0  0  0  0  0  0  0
  141.1520   76.4720  221.2950 C   0  0  0  0  0  0  0  0  0  0  0  0
  141.0380   76.6070  222.5330 O   0  0  0  0  0  0  0  0  0  0  0  0
  140.5000   75.2180  220.7470 C   0  0  0  0  0  0  0  0  0  0  0  0
  140.4410   74.2000  221.7480 N   0  0  0  0  0  0  0  0  0  0  0  0
  139.8510   72.9280  221.5060 C   0  0  0  0  0  0  0  0  0  0  0  0
  139.3390   72.6230  220.3830 O   0  0  0  0  0  0  0  0  0  0  0  0
  139.8280   71.9290  222.5880 C   0  0  0  0  0  0  0  0  0  0  0  0
  139.2660   70.7030  222.4120 C   0  0  0  0  0  0  0  0  0  0  0  0
  139.2710   69.7900  223.4720 C   0  0  0  0  0  0  0  0  0  0  0  0
  139.8390   70.1360  224.6750 C   0  0  0  0  0  0  0  0  0  0  0  0
  139.8880   69.3000  225.7690 C   0  0  0  0  0  0  0  0  0  0  0  0
  140.4820   69.7240  226.9570 C   0  0  0  0  0  0  0  0  0  0  0  0
  140.5360   68.6410  228.3490 Cl  0  0  0  0  0  0  0  0  0  0  0  0
  141.0420   70.9790  227.0920 C   0  0  0  0  0  0  0  0  0  0  0  0
  140.9930   71.8130  225.9990 C   0  0  0  0  0  0  0  0  0  0  0  0
  140.4060   71.3920  224.8300 C   0  0  0  0  0  0  0  0  0  0  0  0
  140.3750   72.2180  223.7950 N   0  0  0  0  0  0  0  0  0  0  0  0
  140.6712   80.5704  224.2465 H   0  0  0  0  0  0  0  0  0  0  0  0
  140.6814   81.8086  222.9451 H   0  0  0  0  0  0  0  0  0  0  0  0
  139.4342   80.5158  222.9451 H   0  0  0  0  0  0  0  0  0  0  0  0
  142.4970   79.4347  224.0577 H   0  0  0  0  0  0  0  0  0  0  0  0
  142.7369   78.3636  222.6358 H   0  0  0  0  0  0  0  0  0  0  0  0
  143.4233   80.0235  222.6358 H   0  0  0  0  0  0  0  0  0  0  0  0
  142.7752   79.2063  220.5697 H   0  0  0  0  0  0  0  0  0  0  0  0
  140.4366   78.7658  218.5486 H   0  0  0  0  0  0  0  0  0  0  0  0
  141.8286   79.7839  218.2663 H   0  0  0  0  0  0  0  0  0  0  0  0
  141.5622   77.0096  217.6034 H   0  0  0  0  0  0  0  0  0  0  0  0
  143.0807   77.9348  217.5466 H   0  0  0  0  0  0  0  0  0  0  0  0
  142.6583   75.7662  219.2383 H   0  0  0  0  0  0  0  0  0  0  0  0
  143.8201   76.9845  219.6188 H   0  0  0  0  0  0  0  0  0  0  0  0
  139.4790   75.4575  220.4151 H   0  0  0  0  0  0  0  0  0  0  0  0
  141.0995   74.8484  219.9020 H   0  0  0  0  0  0  0  0  0  0  0  0
  140.8430   74.3620  222.7180 H   0  0  0  0  0  0  0  0  0  0  0  0
  138.8126   70.4324  221.4470 H   0  0  0  0  0  0  0  0  0  0  0  0
  138.8203   68.7950  223.3427 H   0  0  0  0  0  0  0  0  0  0  0  0
  139.4554   68.2907  225.7047 H   0  0  0  0  0  0  0  0  0  0  0  0
  141.5085   71.2990  228.0354 H   0  0  0  0  0  0  0  0  0  0  0  0
  141.4260   72.8223  226.0611 H   0  0  0  0  0  0  0  0  0  0  0  0
  1  2  1  0
  2  3  1  0
  2  4  1  0
  4  5  2  0
  4  6  1  0
  6  7  1  0
  7  8  1  0
  8  9  1  0
  9 10  1  0
 10 11  1  0
 11 12  2  0
 11 13  1  0
 13 14  1  0
 14 15  1  0
 15 16  2  0
 15 17  1  0
 17 18  2  0
 18 19  1  0
 19 20  2  0
 20 21  1  0
 21 22  2  0
 22 23  1  0
 22 24  1  0
 24 25  2  0
 25 26  1  0
 26 27  2  0
 10  6  1  0
 27 17  1  0
 26 20  1  0
  1 28  1  0
  1 29  1  0
  1 30  1  0
  3 31  1  0
  3 32  1  0
  3 33  1  0
  6 34  1  6
  7 35  1  0
  7 36  1  0
  8 37  1  0
  8 38  1  0
  9 39  1  0
  9 40  1  0
 13 41  1  0
 13 42  1  0
 14 43  1  0
 18 44  1  0
 19 45  1  0
 21 46  1  0
 24 47  1  0
 25 48  1  0
M  END
>  <smiles>  (11) 
CN(C)C(=O)[C@@H]1CCCN1C(=O)CNC(=O)c1ccc2cc(Cl)ccc2n1

>  <score_type>  (11) 
oracle

>  <origin>  (11) 
autodockgpu

>  <m_score__min__energy>  (11) 
-8.0600000000000005

>  <m_primary>  (11) 
energy

>  <rmsd>  (11) 
2.3089543079123116

>  <m_score__min__rmsd>  (11) 
2.3089543079123116

>  <meeko>  (11) 
{"free_energy": -6.73, "intermolecular_energy": -8.22, "internal_energy": -2.14, "cluster_size": 34, "cluster_id": 1, "rank_in_cluster": 32}

>  <energy>  (11) 
-7.57

>  <cluster_rmsd>  (11) 
1.69

>  <cluster>  (11) 
1

$$$$

     RDKit          3D

 48 50  0  0  0  0  0  0  0  0999 V2000
  139.1000   80.4540  223.8540 C   0  0  0  0  0  0  0  0  0  0  0  0
  139.6920   79.7450  222.7220 N   0  0  0  0  0  0  0  0  0  0  0  0
  138.8990   79.5090  221.5470 C   0  0  0  0  0  0  0  0  0  0  0  0
  141.0700   79.3180  222.8480 C   0  0  0  0  0  0  0  0  0  0  0  0
  141.6030   79.6240  223.9390 O   0  0  0  0  0  0  0  0  0  0  0  0
  141.6550   78.6100  221.7330 C   0  0  2  0  0  0  0  0  0  0  0  0
  141.5710   79.3820  220.4240 C   0  0  0  0  0  0  0  0  0  0  0  0
  141.8540   78.3150  219.3930 C   0  0  0  0  0  0  0  0  0  0  0  0
  141.8900   76.9940  220.1230 C   0  0  0  0  0  0  0  0  0  0  0  0
  141.0900   77.3630  221.3200 N   0  0  0  0  0  0  0  0  0  0  0  0
  140.0540   76.5310  221.7840 C   0  0  0  0  0  0  0  0  0  0  0  0
  139.2510   76.7940  222.7060 O   0  0  0  0  0  0  0  0  0  0  0  0
  139.8390   75.1730  221.1450 C   0  0  0  0  0  0  0  0  0  0  0  0
  139.8140   74.1460  222.1380 N   0  0  0  0  0  0  0  0  0  0  0  0
  140.1520   72.7950  221.8440 C   0  0  0  0  0  0  0  0  0  0  0  0
  140.4940   72.4220  220.6780 O   0  0  0  0  0  0  0  0  0  0  0  0
  140.1040   71.7910  222.9210 C   0  0  0  0  0  0  0  0  0  0  0  0
  139.6070   70.5430  222.7080 C   0  0  0  0  0  0  0  0  0  0  0  0
  139.5850   69.6260  223.7640 C   0  0  0  0  0  0  0  0  0  0  0  0
  140.0600   69.9920  225.0020 C   0  0  0  0  0  0  0  0  0  0  0  0
  140.0760   69.1540  226.0950 C   0  0  0  0  0  0  0  0  0  0  0  0
  140.5760   69.5970  227.3190 C   0  0  0  0  0  0  0  0  0  0  0  0
  140.5880   68.5110  228.7100 Cl  0  0  0  0  0  0  0  0  0  0  0  0
  141.0710   70.8740  227.4910 C   0  0  0  0  0  0  0  0  0  0  0  0
  141.0550   71.7100  226.3980 C   0  0  0  0  0  0  0  0  0  0  0  0
  140.5620   71.2690  225.1940 C   0  0  0  0  0  0  0  0  0  0  0  0
  140.5610   72.0980  224.1600 N   0  0  0  0  0  0  0  0  0  0  0  0
  139.4664   80.0151  224.7937 H   0  0  0  0  0  0  0  0  0  0  0  0
  139.3833   81.5160  223.8103 H   0  0  0  0  0  0  0  0  0  0  0  0
  138.0045   80.3647  223.8103 H   0  0  0  0  0  0  0  0  0  0  0  0
  137.8839   79.2069  221.8443 H   0  0  0  0  0  0  0  0  0  0  0  0
  138.8468   80.4306  220.9487 H   0  0  0  0  0  0  0  0  0  0  0  0
  139.3592   78.7089  220.9487 H   0  0  0  0  0  0  0  0  0  0  0  0
  142.6526   78.4639  222.1727 H   0  0  0  0  0  0  0  0  0  0  0  0
  140.5700   79.8155  220.2823 H   0  0  0  0  0  0  0  0  0  0  0  0
  142.2649   80.2340  220.3734 H   0  0  0  0  0  0  0  0  0  0  0  0
  141.0595   78.3046  218.6323 H   0  0  0  0  0  0  0  0  0  0  0  0
  142.8088   78.5069  218.8815 H   0  0  0  0  0  0  0  0  0  0  0  0
  141.4150   76.1896  219.5423 H   0  0  0  0  0  0  0  0  0  0  0  0
  142.8948   76.5978  220.3313 H   0  0  0  0  0  0  0  0  0  0  0  0
  138.8811   75.1759  220.6043 H   0  0  0  0  0  0  0  0  0  0  0  0
  140.6685   74.9735  220.4506 H   0  0  0  0  0  0  0  0  0  0  0  0
  139.5410   74.3600  223.1420 H   0  0  0  0  0  0  0  0  0  0  0  0
  139.2265   70.2579  221.7161 H   0  0  0  0  0  0  0  0  0  0  0  0
  139.1880   68.6126  223.6045 H   0  0  0  0  0  0  0  0  0  0  0  0
  139.6915   68.1276  226.0016 H   0  0  0  0  0  0  0  0  0  0  0  0
  141.4625   71.2099  228.4626 H   0  0  0  0  0  0  0  0  0  0  0  0
  141.4390   72.7368  226.4889 H   0  0  0  0  0  0  0  0  0  0  0  0
  1  2  1  0
  2  3  1  0
  2  4  1  0
  4  5  2  0
  4  6  1  0
  6  7  1  0
  7  8  1  0
  8  9  1  0
  9 10  1  0
 10 11  1  0
 11 12  2  0
 11 13  1  0
 13 14  1  0
 14 15  1  0
 15 16  2  0
 15 17  1  0
 17 18  2  0
 18 19  1  0
 19 20  2  0
 20 21  1  0
 21 22  2  0
 22 23  1  0
 22 24  1  0
 24 25  2  0
 25 26  1  0
 26 27  2  0
 10  6  1  0
 27 17  1  0
 26 20  1  0
  1 28  1  0
  1 29  1  0
  1 30  1  0
  3 31  1  0
  3 32  1  0
  3 33  1  0
  6 34  1  1
  7 35  1  0
  7 36  1  0
  8 37  1  0
  8 38  1  0
  9 39  1  0
  9 40  1  0
 13 41  1  0
 13 42  1  0
 14 43  1  0
 18 44  1  0
 19 45  1  0
 21 46  1  0
 24 47  1  0
 25 48  1  0
M  END
>  <smiles>  (12) 
CN(C)C(=O)[C@@H]1CCCN1C(=O)CNC(=O)c1ccc2cc(Cl)ccc2n1

>  <score_type>  (12) 
oracle

>  <origin>  (12) 
autodockgpu

>  <m_score__min__energy>  (12) 
-8.0600000000000005

>  <m_primary>  (12) 
energy

>  <rmsd>  (12) 
2.4134246124295444

>  <m_score__min__rmsd>  (12) 
2.4134246124295444

>  <meeko>  (12) 
{"free_energy": -7.67, "intermolecular_energy": -9.16, "internal_energy": -1.38, "cluster_size": 34, "cluster_id": 1, "rank_in_cluster": 6}

>  <energy>  (12) 
-7.57

>  <cluster_rmsd>  (12) 
1.65

>  <cluster>  (12) 
1

$$$$

     RDKit          3D

 48 50  0  0  0  0  0  0  0  0999 V2000
  141.4630   79.1830  223.8310 C   0  0  0  0  0  0  0  0  0  0  0  0
  140.9500   78.7480  222.5350 N   0  0  0  0  0  0  0  0  0  0  0  0
  141.8550   78.6200  221.4270 C   0  0  0  0  0  0  0  0  0  0  0  0
  139.5340   78.4570  222.4400 C   0  0  0  0  0  0  0  0  0  0  0  0
  138.9070   78.6120  223.5130 O   0  0  0  0  0  0  0  0  0  0  0  0
  139.0230   78.0340  221.1570 C   0  0  2  0  0  0  0  0  0  0  0  0
  137.5540   78.3810  220.9550 C   0  0  0  0  0  0  0  0  0  0  0  0
  137.1700   77.5120  219.7800 C   0  0  0  0  0  0  0  0  0  0  0  0
  138.3400   76.5990  219.5040 C   0  0  0  0  0  0  0  0  0  0  0  0
  138.9930   76.6410  220.8390 N   0  0  0  0  0  0  0  0  0  0  0  0
  139.4180   75.4600  221.4750 C   0  0  0  0  0  0  0  0  0  0  0  0
  140.4030   75.3430  222.2360 O   0  0  0  0  0  0  0  0  0  0  0  0
  138.6500   74.1710  221.2570 C   0  0  0  0  0  0  0  0  0  0  0  0
  138.9640   73.2170  222.2720 N   0  0  0  0  0  0  0  0  0  0  0  0
  138.5690   71.8530  222.1840 C   0  0  0  0  0  0  0  0  0  0  0  0
  137.9080   71.4030  221.1950 O   0  0  0  0  0  0  0  0  0  0  0  0
  138.9300   70.9280  223.2710 C   0  0  0  0  0  0  0  0  0  0  0  0
  138.5940   69.6100  223.2260 C   0  0  0  0  0  0  0  0  0  0  0  0
  138.9620   68.7730  224.2840 C   0  0  0  0  0  0  0  0  0  0  0  0
  139.6570   69.2850  225.3560 C   0  0  0  0  0  0  0  0  0  0  0  0
  140.0580   68.5330  226.4380 C   0  0  0  0  0  0  0  0  0  0  0  0
  140.7600   69.1240  227.4870 C   0  0  0  0  0  0  0  0  0  0  0  0
  141.2680   68.1480  228.8670 Cl  0  0  0  0  0  0  0  0  0  0  0  0
  141.0820   70.4670  227.4930 C   0  0  0  0  0  0  0  0  0  0  0  0
  140.6810   71.2170  226.4110 C   0  0  0  0  0  0  0  0  0  0  0  0
  139.9890   70.6300  225.3790 C   0  0  0  0  0  0  0  0  0  0  0  0
  139.6170   71.3790  224.3500 N   0  0  0  0  0  0  0  0  0  0  0  0
  140.8897   78.6969  224.6342 H   0  0  0  0  0  0  0  0  0  0  0  0
  142.5237   78.9049  223.9176 H   0  0  0  0  0  0  0  0  0  0  0  0
  141.3620   80.2749  223.9176 H   0  0  0  0  0  0  0  0  0  0  0  0
  142.8782   78.4753  221.8041 H   0  0  0  0  0  0  0  0  0  0  0  0
  141.5642   77.7541  220.8142 H   0  0  0  0  0  0  0  0  0  0  0  0
  141.8157   79.5326  220.8142 H   0  0  0  0  0  0  0  0  0  0  0  0
  139.7599   78.5635  220.5352 H   0  0  0  0  0  0  0  0  0  0  0  0
  136.9602   78.1294  221.8461 H   0  0  0  0  0  0  0  0  0  0  0  0
  137.3767   79.4530  220.7834 H   0  0  0  0  0  0  0  0  0  0  0  0
  136.2773   76.9181  220.0254 H   0  0  0  0  0  0  0  0  0  0  0  0
  136.9354   78.1262  218.8981 H   0  0  0  0  0  0  0  0  0  0  0  0
  138.0151   75.5827  219.2363 H   0  0  0  0  0  0  0  0  0  0  0  0
  138.9780   76.8929  218.6575 H   0  0  0  0  0  0  0  0  0  0  0  0
  137.5713   74.3847  221.2840 H   0  0  0  0  0  0  0  0  0  0  0  0
  138.9326   73.7526  220.2797 H   0  0  0  0  0  0  0  0  0  0  0  0
  139.5130   73.4980  223.1380 H   0  0  0  0  0  0  0  0  0  0  0  0
  138.0386   69.2072  222.3662 H   0  0  0  0  0  0  0  0  0  0  0  0
  138.6962   67.7059  224.2595 H   0  0  0  0  0  0  0  0  0  0  0  0
  139.8227   67.4591  226.4745 H   0  0  0  0  0  0  0  0  0  0  0  0
  141.6365   70.9189  228.3287 H   0  0  0  0  0  0  0  0  0  0  0  0
  140.9154   72.2910  226.3721 H   0  0  0  0  0  0  0  0  0  0  0  0
  1  2  1  0
  2  3  1  0
  2  4  1  0
  4  5  2  0
  4  6  1  0
  6  7  1  0
  7  8  1  0
  8  9  1  0
  9 10  1  0
 10 11  1  0
 11 12  2  0
 11 13  1  0
 13 14  1  0
 14 15  1  0
 15 16  2  0
 15 17  1  0
 17 18  2  0
 18 19  1  0
 19 20  2  0
 20 21  1  0
 21 22  2  0
 22 23  1  0
 22 24  1  0
 24 25  2  0
 25 26  1  0
 26 27  2  0
 10  6  1  0
 27 17  1  0
 26 20  1  0
  1 28  1  0
  1 29  1  0
  1 30  1  0
  3 31  1  0
  3 32  1  0
  3 33  1  0
  6 34  1  6
  7 35  1  0
  7 36  1  0
  8 37  1  0
  8 38  1  0
  9 39  1  0
  9 40  1  0
 13 41  1  0
 13 42  1  0
 14 43  1  0
 18 44  1  0
 19 45  1  0
 21 46  1  0
 24 47  1  0
 25 48  1  0
M  END
>  <smiles>  (13) 
CN(C)C(=O)[C@@H]1CCCN1C(=O)CNC(=O)c1ccc2cc(Cl)ccc2n1

>  <score_type>  (13) 
oracle

>  <origin>  (13) 
autodockgpu

>  <m_score__min__energy>  (13) 
-8.0600000000000005

>  <m_primary>  (13) 
energy

>  <rmsd>  (13) 
2.100877697690049

>  <m_score__min__rmsd>  (13) 
2.100877697690049

>  <meeko>  (13) 
{"free_energy": -6.7, "intermolecular_energy": -8.19, "internal_energy": -2.15, "cluster_size": 34, "cluster_id": 1, "rank_in_cluster": 33}

>  <energy>  (13) 
-7.54

>  <cluster_rmsd>  (13) 
1.62

>  <cluster>  (13) 
1

$$$$

     RDKit          3D

 48 50  0  0  0  0  0  0  0  0999 V2000
  143.2450   73.9180  218.8560 C   0  0  0  0  0  0  0  0  0  0  0  0
  142.1720   74.9080  218.8660 N   0  0  0  0  0  0  0  0  0  0  0  0
  140.9240   74.6000  218.2240 C   0  0  0  0  0  0  0  0  0  0  0  0
  142.4290   76.1650  219.5390 C   0  0  0  0  0  0  0  0  0  0  0  0
  143.5680   76.2480  220.0520 O   0  0  0  0  0  0  0  0  0  0  0  0
  141.3720   77.1490  219.5430 C   0  0  2  0  0  0  0  0  0  0  0  0
  141.8620   78.5510  219.8800 C   0  0  0  0  0  0  0  0  0  0  0  0
  140.5780   79.2760  220.2130 C   0  0  0  0  0  0  0  0  0  0  0  0
  139.4800   78.2410  220.2410 C   0  0  0  0  0  0  0  0  0  0  0  0
  140.3040   77.0280  220.4850 N   0  0  0  0  0  0  0  0  0  0  0  0
  139.9380   76.0900  221.4680 C   0  0  0  0  0  0  0  0  0  0  0  0
  140.0970   76.2120  222.7020 O   0  0  0  0  0  0  0  0  0  0  0  0
  139.2830   74.7860  221.0550 C   0  0  0  0  0  0  0  0  0  0  0  0
  139.4260   73.8020  222.0810 N   0  0  0  0  0  0  0  0  0  0  0  0
  139.3660   72.4060  221.8090 C   0  0  0  0  0  0  0  0  0  0  0  0
  139.1790   71.9530  220.6360 O   0  0  0  0  0  0  0  0  0  0  0  0
  139.5230   71.4510  222.9190 C   0  0  0  0  0  0  0  0  0  0  0  0
  139.1100   70.1590  222.8100 C   0  0  0  0  0  0  0  0  0  0  0  0
  139.2840   69.2920  223.8930 C   0  0  0  0  0  0  0  0  0  0  0  0
  139.8650   69.7480  225.0530 C   0  0  0  0  0  0  0  0  0  0  0  0
  140.0730   68.9630  226.1660 C   0  0  0  0  0  0  0  0  0  0  0  0
  140.6700   69.4980  227.3060 C   0  0  0  0  0  0  0  0  0  0  0  0
  140.9300   68.4800  228.7240 Cl  0  0  0  0  0  0  0  0  0  0  0  0
  141.0750   70.8160  227.3750 C   0  0  0  0  0  0  0  0  0  0  0  0
  140.8670   71.5990  226.2620 C   0  0  0  0  0  0  0  0  0  0  0  0
  140.2780   71.0680  225.1410 C   0  0  0  0  0  0  0  0  0  0  0  0
  140.0910   71.8470  224.0850 N   0  0  0  0  0  0  0  0  0  0  0  0
  143.5197   73.6646  219.8906 H   0  0  0  0  0  0  0  0  0  0  0  0
  142.9028   73.0117  218.3350 H   0  0  0  0  0  0  0  0  0  0  0  0
  144.1209   74.3319  218.3350 H   0  0  0  0  0  0  0  0  0  0  0  0
  140.1556   74.4104  218.9880 H   0  0  0  0  0  0  0  0  0  0  0  0
  140.6153   75.4489  217.5963 H   0  0  0  0  0  0  0  0  0  0  0  0
  141.0457   73.7049  217.5963 H   0  0  0  0  0  0  0  0  0  0  0  0
  141.0143   76.9686  218.5185 H   0  0  0  0  0  0  0  0  0  0  0  0
  142.5453   78.5367  220.7419 H   0  0  0  0  0  0  0  0  0  0  0  0
  142.4334   79.0227  219.0670 H   0  0  0  0  0  0  0  0  0  0  0  0
  140.6632   79.7627  221.1958 H   0  0  0  0  0  0  0  0  0  0  0  0
  140.3631   80.0555  219.4672 H   0  0  0  0  0  0  0  0  0  0  0  0
  138.7635   78.4228  221.0556 H   0  0  0  0  0  0  0  0  0  0  0  0
  138.8426   78.2056  219.3452 H   0  0  0  0  0  0  0  0  0  0  0  0
  138.2130   74.9620  220.8701 H   0  0  0  0  0  0  0  0  0  0  0  0
  139.7727   74.4181  220.1413 H   0  0  0  0  0  0  0  0  0  0  0  0
  139.5860   74.0830  223.0920 H   0  0  0  0  0  0  0  0  0  0  0  0
  138.6444   69.8006  221.8801 H   0  0  0  0  0  0  0  0  0  0  0  0
  138.9560   68.2448  223.8172 H   0  0  0  0  0  0  0  0  0  0  0  0
  139.7658   67.9068  226.1547 H   0  0  0  0  0  0  0  0  0  0  0  0
  141.5447   71.2238  228.2822 H   0  0  0  0  0  0  0  0  0  0  0  0
  141.1742   72.6552  226.2707 H   0  0  0  0  0  0  0  0  0  0  0  0
  1  2  1  0
  2  3  1  0
  2  4  1  0
  4  5  2  0
  4  6  1  0
  6  7  1  0
  7  8  1  0
  8  9  1  0
  9 10  1  0
 10 11  1  0
 11 12  2  0
 11 13  1  0
 13 14  1  0
 14 15  1  0
 15 16  2  0
 15 17  1  0
 17 18  2  0
 18 19  1  0
 19 20  2  0
 20 21  1  0
 21 22  2  0
 22 23  1  0
 22 24  1  0
 24 25  2  0
 25 26  1  0
 26 27  2  0
 10  6  1  0
 27 17  1  0
 26 20  1  0
  1 28  1  0
  1 29  1  0
  1 30  1  0
  3 31  1  0
  3 32  1  0
  3 33  1  0
  6 34  1  6
  7 35  1  0
  7 36  1  0
  8 37  1  0
  8 38  1  0
  9 39  1  0
  9 40  1  0
 13 41  1  0
 13 42  1  0
 14 43  1  0
 18 44  1  0
 19 45  1  0
 21 46  1  0
 24 47  1  0
 25 48  1  0
M  END
>  <smiles>  (14) 
CN(C)C(=O)[C@@H]1CCCN1C(=O)CNC(=O)c1ccc2cc(Cl)ccc2n1

>  <score_type>  (14) 
oracle

>  <origin>  (14) 
autodockgpu

>  <m_score__min__energy>  (14) 
-8.0600000000000005

>  <m_primary>  (14) 
energy

>  <rmsd>  (14) 
2.7903562408893117

>  <m_score__min__rmsd>  (14) 
2.7903562408893117

>  <meeko>  (14) 
{"free_energy": -6.41, "intermolecular_energy": -7.91, "internal_energy": -2.24, "cluster_size": 7, "cluster_id": 2, "rank_in_cluster": 6}

>  <energy>  (14) 
-7.54

>  <cluster_rmsd>  (14) 
1.65

>  <cluster>  (14) 
1

$$$$

     RDKit          3D

 48 50  0  0  0  0  0  0  0  0999 V2000
  140.6170   81.0100  223.0730 C   0  0  0  0  0  0  0  0  0  0  0  0
  141.4320   79.9630  222.4640 N   0  0  0  0  0  0  0  0  0  0  0  0
  142.6020   79.4920  223.1530 C   0  0  0  0  0  0  0  0  0  0  0  0
  141.0050   79.4450  221.1800 C   0  0  0  0  0  0  0  0  0  0  0  0
  139.9550   79.9680  220.7410 O   0  0  0  0  0  0  0  0  0  0  0  0
  141.8140   78.4150  220.5730 C   0  0  2  0  0  0  0  0  0  0  0  0
  141.7770   78.4460  219.0510 C   0  0  0  0  0  0  0  0  0  0  0  0
  142.3330   77.0900  218.6810 C   0  0  0  0  0  0  0  0  0  0  0  0
  142.4710   76.3040  219.9620 C   0  0  0  0  0  0  0  0  0  0  0  0
  141.4890   77.0420  220.7990 N   0  0  0  0  0  0  0  0  0  0  0  0
  140.5360   76.3540  221.5730 C   0  0  0  0  0  0  0  0  0  0  0  0
  140.1320   76.6800  222.7100 O   0  0  0  0  0  0  0  0  0  0  0  0
  139.9010   75.0880  221.0320 C   0  0  0  0  0  0  0  0  0  0  0  0
  139.8410   74.0800  222.0420 N   0  0  0  0  0  0  0  0  0  0  0  0
  140.1380   72.7140  221.7740 C   0  0  0  0  0  0  0  0  0  0  0  0
  140.4740   72.3100  220.6160 O   0  0  0  0  0  0  0  0  0  0  0  0
  140.0550   71.7320  222.8680 C   0  0  0  0  0  0  0  0  0  0  0  0
  139.5060   70.5020  222.6800 C   0  0  0  0  0  0  0  0  0  0  0  0
  139.4530   69.6050  223.7520 C   0  0  0  0  0  0  0  0  0  0  0  0
  139.9510   69.9720  224.9800 C   0  0  0  0  0  0  0  0  0  0  0  0
  139.9390   69.1530  226.0880 C   0  0  0  0  0  0  0  0  0  0  0  0
  140.4650   69.5960  227.3000 C   0  0  0  0  0  0  0  0  0  0  0  0
  140.4410   68.5340  228.7100 Cl  0  0  0  0  0  0  0  0  0  0  0  0
  141.0140   70.8540  227.4480 C   0  0  0  0  0  0  0  0  0  0  0  0
  141.0260   71.6710  226.3410 C   0  0  0  0  0  0  0  0  0  0  0  0
  140.5060   71.2300  225.1480 C   0  0  0  0  0  0  0  0  0  0  0  0
  140.5330   72.0410  224.0990 N   0  0  0  0  0  0  0  0  0  0  0  0
  140.6780   80.9316  224.1685 H   0  0  0  0  0  0  0  0  0  0  0  0
  140.9882   81.9953  222.7547 H   0  0  0  0  0  0  0  0  0  0  0  0
  139.5707   80.8920  222.7547 H   0  0  0  0  0  0  0  0  0  0  0  0
  142.4393   79.5575  224.2389 H   0  0  0  0  0  0  0  0  0  0  0  0
  142.7957   78.4458  222.8737 H   0  0  0  0  0  0  0  0  0  0  0  0
  143.4665   80.1122  222.8737 H   0  0  0  0  0  0  0  0  0  0  0  0
  142.7619   78.6799  221.0642 H   0  0  0  0  0  0  0  0  0  0  0  0
  140.7483   78.5680  218.6810 H   0  0  0  0  0  0  0  0  0  0  0  0
  142.3413   79.2842  218.6162 H   0  0  0  0  0  0  0  0  0  0  0  0
  141.6456   76.5747  217.9940 H   0  0  0  0  0  0  0  0  0  0  0  0
  143.3048   77.1894  218.1753 H   0  0  0  0  0  0  0  0  0  0  0  0
  142.1891   75.2489  219.8302 H   0  0  0  0  0  0  0  0  0  0  0  0
  143.4901   76.2453  220.3719 H   0  0  0  0  0  0  0  0  0  0  0  0
  138.8812   75.3147  220.6875 H   0  0  0  0  0  0  0  0  0  0  0  0
  140.5128   74.7152  220.1973 H   0  0  0  0  0  0  0  0  0  0  0  0
  139.5700   74.3210  223.0410 H   0  0  0  0  0  0  0  0  0  0  0  0
  139.1079   70.2156  221.6954 H   0  0  0  0  0  0  0  0  0  0  0  0
  139.0131   68.6065  223.6127 H   0  0  0  0  0  0  0  0  0  0  0  0
  139.5111   68.1422  226.0153 H   0  0  0  0  0  0  0  0  0  0  0  0
  141.4251   71.1895  228.4116 H   0  0  0  0  0  0  0  0  0  0  0  0
  141.4539   72.6819  226.4113 H   0  0  0  0  0  0  0  0  0  0  0  0
  1  2  1  0
  2  3  1  0
  2  4  1  0
  4  5  2  0
  4  6  1  0
  6  7  1  0
  7  8  1  0
  8  9  1  0
  9 10  1  0
 10 11  1  0
 11 12  2  0
 11 13  1  0
 13 14  1  0
 14 15  1  0
 15 16  2  0
 15 17  1  0
 17 18  2  0
 18 19  1  0
 19 20  2  0
 20 21  1  0
 21 22  2  0
 22 23  1  0
 22 24  1  0
 24 25  2  0
 25 26  1  0
 26 27  2  0
 10  6  1  0
 27 17  1  0
 26 20  1  0
  1 28  1  0
  1 29  1  0
  1 30  1  0
  3 31  1  0
  3 32  1  0
  3 33  1  0
  6 34  1  6
  7 35  1  0
  7 36  1  0
  8 37  1  0
  8 38  1  0
  9 39  1  0
  9 40  1  0
 13 41  1  0
 13 42  1  0
 14 43  1  0
 18 44  1  0
 19 45  1  0
 21 46  1  0
 24 47  1  0
 25 48  1  0
M  END
>  <smiles>  (15) 
CN(C)C(=O)[C@@H]1CCCN1C(=O)CNC(=O)c1ccc2cc(Cl)ccc2n1

>  <score_type>  (15) 
oracle

>  <origin>  (15) 
autodockgpu

>  <m_score__min__energy>  (15) 
-8.0600000000000005

>  <m_primary>  (15) 
energy

>  <rmsd>  (15) 
2.0809110894525715

>  <m_score__min__rmsd>  (15) 
2.0809110894525715

>  <meeko>  (15) 
{"free_energy": -7.57, "intermolecular_energy": -9.06, "internal_energy": -1.76, "cluster_size": 34, "cluster_id": 1, "rank_in_cluster": 11}

>  <energy>  (15) 
-7.47

>  <cluster_rmsd>  (15) 
1.68

>  <cluster>  (15) 
1

$$$$

     RDKit          3D

 48 50  0  0  0  0  0  0  0  0999 V2000
  142.7020   80.3750  223.7900 C   0  0  0  0  0  0  0  0  0  0  0  0
  141.8080   80.2810  222.6390 N   0  0  0  0  0  0  0  0  0  0  0  0
  141.8110   81.3310  221.6580 C   0  0  0  0  0  0  0  0  0  0  0  0
  140.9580   79.1110  222.5470 C   0  0  0  0  0  0  0  0  0  0  0  0
  141.1030   78.2970  223.4870 O   0  0  0  0  0  0  0  0  0  0  0  0
  140.0670   79.0200  221.4140 C   0  0  2  0  0  0  0  0  0  0  0  0
  139.0050   80.1110  221.4000 C   0  0  0  0  0  0  0  0  0  0  0  0
  138.0000   79.5790  220.4040 C   0  0  0  0  0  0  0  0  0  0  0  0
  138.4230   78.1720  220.0580 C   0  0  0  0  0  0  0  0  0  0  0  0
  139.2370   77.8660  221.2640 N   0  0  0  0  0  0  0  0  0  0  0  0
  139.0770   76.6520  221.9580 C   0  0  0  0  0  0  0  0  0  0  0  0
  138.5570   76.5090  223.0860 O   0  0  0  0  0  0  0  0  0  0  0  0
  139.5600   75.3590  221.3310 C   0  0  0  0  0  0  0  0  0  0  0  0
  139.5760   74.3050  222.2950 N   0  0  0  0  0  0  0  0  0  0  0  0
  140.0220   72.9910  221.9790 C   0  0  0  0  0  0  0  0  0  0  0  0
  140.4310   72.6770  220.8160 O   0  0  0  0  0  0  0  0  0  0  0  0
  140.0110   71.9570  223.0270 C   0  0  0  0  0  0  0  0  0  0  0  0
  139.5440   70.7020  222.7830 C   0  0  0  0  0  0  0  0  0  0  0  0
  139.5570   69.7560  223.8130 C   0  0  0  0  0  0  0  0  0  0  0  0
  140.0350   70.0980  225.0560 C   0  0  0  0  0  0  0  0  0  0  0  0
  140.0830   69.2300  226.1250 C   0  0  0  0  0  0  0  0  0  0  0  0
  140.5830   69.6520  227.3550 C   0  0  0  0  0  0  0  0  0  0  0  0
  140.6380   68.5270  228.7150 Cl  0  0  0  0  0  0  0  0  0  0  0  0
  141.0470   70.9360  227.5600 C   0  0  0  0  0  0  0  0  0  0  0  0
  140.9990   71.8020  226.4910 C   0  0  0  0  0  0  0  0  0  0  0  0
  140.5050   71.3820  225.2800 C   0  0  0  0  0  0  0  0  0  0  0  0
  140.4720   72.2400  224.2700 N   0  0  0  0  0  0  0  0  0  0  0  0
  142.1136   80.3131  224.7173 H   0  0  0  0  0  0  0  0  0  0  0  0
  143.4268   79.5481  223.7598 H   0  0  0  0  0  0  0  0  0  0  0  0
  143.2390   81.3346  223.7598 H   0  0  0  0  0  0  0  0  0  0  0  0
  141.8138   82.3069  222.1655 H   0  0  0  0  0  0  0  0  0  0  0  0
  142.7089   81.2424  221.0288 H   0  0  0  0  0  0  0  0  0  0  0  0
  140.9126   81.2475  221.0288 H   0  0  0  0  0  0  0  0  0  0  0  0
  140.8391   79.0525  220.6312 H   0  0  0  0  0  0  0  0  0  0  0  0
  138.5510   80.2362  222.3941 H   0  0  0  0  0  0  0  0  0  0  0  0
  139.4000   81.1031  221.1360 H   0  0  0  0  0  0  0  0  0  0  0  0
  136.9942   79.5722  220.8493 H   0  0  0  0  0  0  0  0  0  0  0  0
  137.9669   80.2111  219.5044 H   0  0  0  0  0  0  0  0  0  0  0  0
  137.5613   77.4953  219.9603 H   0  0  0  0  0  0  0  0  0  0  0  0
  138.9447   78.0596  219.0961 H   0  0  0  0  0  0  0  0  0  0  0  0
  138.8860   75.0838  220.5064 H   0  0  0  0  0  0  0  0  0  0  0  0
  140.5826   75.5092  220.9545 H   0  0  0  0  0  0  0  0  0  0  0  0
  139.2530   74.4710  223.2940 H   0  0  0  0  0  0  0  0  0  0  0  0
  139.1608   70.4349  221.7871 H   0  0  0  0  0  0  0  0  0  0  0  0
  139.1845   68.7375  223.6285 H   0  0  0  0  0  0  0  0  0  0  0  0
  139.7241   68.1970  226.0065 H   0  0  0  0  0  0  0  0  0  0  0  0
  141.4390   71.2540  228.5374 H   0  0  0  0  0  0  0  0  0  0  0  0
  141.3579   72.8353  226.6071 H   0  0  0  0  0  0  0  0  0  0  0  0
  1  2  1  0
  2  3  1  0
  2  4  1  0
  4  5  2  0
  4  6  1  0
  6  7  1  0
  7  8  1  0
  8  9  1  0
  9 10  1  0
 10 11  1  0
 11 12  2  0
 11 13  1  0
 13 14  1  0
 14 15  1  0
 15 16  2  0
 15 17  1  0
 17 18  2  0
 18 19  1  0
 19 20  2  0
 20 21  1  0
 21 22  2  0
 22 23  1  0
 22 24  1  0
 24 25  2  0
 25 26  1  0
 26 27  2  0
 10  6  1  0
 27 17  1  0
 26 20  1  0
  1 28  1  0
  1 29  1  0
  1 30  1  0
  3 31  1  0
  3 32  1  0
  3 33  1  0
  6 34  1  6
  7 35  1  0
  7 36  1  0
  8 37  1  0
  8 38  1  0
  9 39  1  0
  9 40  1  0
 13 41  1  0
 13 42  1  0
 14 43  1  0
 18 44  1  0
 19 45  1  0
 21 46  1  0
 24 47  1  0
 25 48  1  0
M  END
>  <smiles>  (16) 
CN(C)C(=O)[C@@H]1CCCN1C(=O)CNC(=O)c1ccc2cc(Cl)ccc2n1

>  <score_type>  (16) 
oracle

>  <origin>  (16) 
autodockgpu

>  <m_score__min__energy>  (16) 
-8.0600000000000005

>  <m_primary>  (16) 
energy

>  <rmsd>  (16) 
2.7622805426834516

>  <m_score__min__rmsd>  (16) 
2.7622805426834516

>  <meeko>  (16) 
{"free_energy": -7.26, "intermolecular_energy": -8.76, "internal_energy": -1.8, "cluster_size": 34, "cluster_id": 1, "rank_in_cluster": 22}

>  <energy>  (16) 
-7.45

>  <cluster_rmsd>  (16) 
1.56

>  <cluster>  (16) 
1

$$$$

     RDKit          3D

 48 50  0  0  0  0  0  0  0  0999 V2000
  142.4670   77.6560  217.9980 C   0  0  0  0  0  0  0  0  0  0  0  0
  141.9150   78.5550  219.0080 N   0  0  0  0  0  0  0  0  0  0  0  0
  141.4890   79.8710  218.6210 C   0  0  0  0  0  0  0  0  0  0  0  0
  141.8190   78.0570  220.3650 C   0  0  0  0  0  0  0  0  0  0  0  0
  142.2260   76.8820  220.5090 O   0  0  0  0  0  0  0  0  0  0  0  0
  141.2800   78.9470  221.3670 C   0  0  2  0  0  0  0  0  0  0  0  0
  142.3050   79.3560  222.4160 C   0  0  0  0  0  0  0  0  0  0  0  0
  141.4390   79.9160  223.5210 C   0  0  0  0  0  0  0  0  0  0  0  0
  140.0050   79.6290  223.1470 C   0  0  0  0  0  0  0  0  0  0  0  0
  140.2260   78.4900  222.2170 N   0  0  0  0  0  0  0  0  0  0  0  0
  139.4580   77.3150  222.3160 C   0  0  0  0  0  0  0  0  0  0  0  0
  138.4980   77.1230  223.0940 O   0  0  0  0  0  0  0  0  0  0  0  0
  139.7750   76.1320  221.4220 C   0  0  0  0  0  0  0  0  0  0  0  0
  139.6340   74.9040  222.1380 N   0  0  0  0  0  0  0  0  0  0  0  0
  140.0880   73.6610  221.6150 C   0  0  0  0  0  0  0  0  0  0  0  0
  140.6440   73.5710  220.4750 O   0  0  0  0  0  0  0  0  0  0  0  0
  139.9080   72.4370  222.4120 C   0  0  0  0  0  0  0  0  0  0  0  0
  139.2310   71.3620  221.9240 C   0  0  0  0  0  0  0  0  0  0  0  0
  139.0900   70.2230  222.7220 C   0  0  0  0  0  0  0  0  0  0  0  0
  139.6300   70.1970  223.9860 C   0  0  0  0  0  0  0  0  0  0  0  0
  139.5380   69.1180  224.8380 C   0  0  0  0  0  0  0  0  0  0  0  0
  140.1140   69.1670  226.1060 C   0  0  0  0  0  0  0  0  0  0  0  0
  139.9860   67.7770  227.1850 Cl  0  0  0  0  0  0  0  0  0  0  0  0
  140.7930   70.2790  226.5630 C   0  0  0  0  0  0  0  0  0  0  0  0
  140.8840   71.3570  225.7110 C   0  0  0  0  0  0  0  0  0  0  0  0
  140.3160   71.3040  224.4620 C   0  0  0  0  0  0  0  0  0  0  0  0
  140.4220   72.3570  223.6650 N   0  0  0  0  0  0  0  0  0  0  0  0
  142.9809   76.8191  218.4936 H   0  0  0  0  0  0  0  0  0  0  0  0
  141.6526   77.2659  217.3699 H   0  0  0  0  0  0  0  0  0  0  0  0
  143.1833   78.2058  217.3699 H   0  0  0  0  0  0  0  0  0  0  0  0
  141.2942   80.4728  219.5210 H   0  0  0  0  0  0  0  0  0  0  0  0
  142.2778   80.3506  218.0228 H   0  0  0  0  0  0  0  0  0  0  0  0
  140.5688   79.7974  218.0228 H   0  0  0  0  0  0  0  0  0  0  0  0
  140.9197   79.7256  220.6785 H   0  0  0  0  0  0  0  0  0  0  0  0
  142.8834   78.4882  222.7657 H   0  0  0  0  0  0  0  0  0  0  0  0
  143.0535   80.0700  222.0418 H   0  0  0  0  0  0  0  0  0  0  0  0
  141.6847   79.4297  224.4766 H   0  0  0  0  0  0  0  0  0  0  0  0
  141.6047   80.9970  223.6397 H   0  0  0  0  0  0  0  0  0  0  0  0
  139.4024   79.3370  224.0197 H   0  0  0  0  0  0  0  0  0  0  0  0
  139.4482   80.4795  222.7268 H   0  0  0  0  0  0  0  0  0  0  0  0
  139.0846   76.1317  220.5657 H   0  0  0  0  0  0  0  0  0  0  0  0
  140.8150   76.2207  221.0747 H   0  0  0  0  0  0  0  0  0  0  0  0
  139.1820   74.8790  223.0990 H   0  0  0  0  0  0  0  0  0  0  0  0
  138.7994   71.3891  220.9126 H   0  0  0  0  0  0  0  0  0  0  0  0
  138.5466   69.3469  222.3383 H   0  0  0  0  0  0  0  0  0  0  0  0
  139.0059   68.2111  224.5148 H   0  0  0  0  0  0  0  0  0  0  0  0
  141.2428   70.3028  227.5665 H   0  0  0  0  0  0  0  0  0  0  0  0
  141.4145   72.2653  226.0327 H   0  0  0  0  0  0  0  0  0  0  0  0
  1  2  1  0
  2  3  1  0
  2  4  1  0
  4  5  2  0
  4  6  1  0
  6  7  1  0
  7  8  1  0
  8  9  1  0
  9 10  1  0
 10 11  1  0
 11 12  2  0
 11 13  1  0
 13 14  1  0
 14 15  1  0
 15 16  2  0
 15 17  1  0
 17 18  2  0
 18 19  1  0
 19 20  2  0
 20 21  1  0
 21 22  2  0
 22 23  1  0
 22 24  1  0
 24 25  2  0
 25 26  1  0
 26 27  2  0
 10  6  1  0
 27 17  1  0
 26 20  1  0
  1 28  1  0
  1 29  1  0
  1 30  1  0
  3 31  1  0
  3 32  1  0
  3 33  1  0
  6 34  1  6
  7 35  1  0
  7 36  1  0
  8 37  1  0
  8 38  1  0
  9 39  1  0
  9 40  1  0
 13 41  1  0
 13 42  1  0
 14 43  1  0
 18 44  1  0
 19 45  1  0
 21 46  1  0
 24 47  1  0
 25 48  1  0
M  END
>  <smiles>  (17) 
CN(C)C(=O)[C@@H]1CCCN1C(=O)CNC(=O)c1ccc2cc(Cl)ccc2n1

>  <score_type>  (17) 
oracle

>  <origin>  (17) 
autodockgpu

>  <m_score__min__energy>  (17) 
-8.0600000000000005

>  <m_primary>  (17) 
energy

>  <rmsd>  (17) 
3.878036312952043

>  <m_score__min__rmsd>  (17) 
3.878036312952043

>  <meeko>  (17) 
{"free_energy": -7.27, "intermolecular_energy": -8.76, "internal_energy": -1.56, "cluster_size": 34, "cluster_id": 1, "rank_in_cluster": 21}

>  <energy>  (17) 
-7.42

>  <cluster_rmsd>  (17) 
1.68

>  <cluster>  (17) 
1

$$$$

     RDKit          3D

 48 50  0  0  0  0  0  0  0  0999 V2000
  142.1510   72.0800  221.0050 C   0  0  0  0  0  0  0  0  0  0  0  0
  141.6250   73.3940  220.6450 N   0  0  0  0  0  0  0  0  0  0  0  0
  141.9920   73.9760  219.3840 C   0  0  0  0  0  0  0  0  0  0  0  0
  140.7430   74.0430  221.5920 C   0  0  0  0  0  0  0  0  0  0  0  0
  140.5270   73.3780  222.6300 O   0  0  0  0  0  0  0  0  0  0  0  0
  140.2280   75.3460  221.2410 C   0  0  2  0  0  0  0  0  0  0  0  0
  140.7950   76.4660  222.1040 C   0  0  0  0  0  0  0  0  0  0  0  0
  139.8400   77.6050  221.8330 C   0  0  0  0  0  0  0  0  0  0  0  0
  138.7040   77.0450  221.0130 C   0  0  0  0  0  0  0  0  0  0  0  0
  138.8310   75.6100  221.3830 N   0  0  0  0  0  0  0  0  0  0  0  0
  137.7020   74.8560  221.7540 C   0  0  0  0  0  0  0  0  0  0  0  0
  136.7250   75.2660  222.4170 O   0  0  0  0  0  0  0  0  0  0  0  0
  137.6030   73.4000  221.3420 C   0  0  0  0  0  0  0  0  0  0  0  0
  138.0940   72.5470  222.3770 N   0  0  0  0  0  0  0  0  0  0  0  0
  138.0510   71.1280  222.2780 C   0  0  0  0  0  0  0  0  0  0  0  0
  137.5700   70.5350  221.2600 O   0  0  0  0  0  0  0  0  0  0  0  0
  138.5770   70.3130  223.3860 C   0  0  0  0  0  0  0  0  0  0  0  0
  138.4410   68.9600  223.4020 C   0  0  0  0  0  0  0  0  0  0  0  0
  138.9590   68.2330  224.4780 C   0  0  0  0  0  0  0  0  0  0  0  0
  139.5970   68.8860  225.5060 C   0  0  0  0  0  0  0  0  0  0  0  0
  140.1370   68.2490  226.6020 C   0  0  0  0  0  0  0  0  0  0  0  0
  140.7700   68.9820  227.6050 C   0  0  0  0  0  0  0  0  0  0  0  0
  141.4550   68.1510  229.0030 Cl  0  0  0  0  0  0  0  0  0  0  0  0
  140.8860   70.3570  227.5490 C   0  0  0  0  0  0  0  0  0  0  0  0
  140.3470   70.9920  226.4530 C   0  0  0  0  0  0  0  0  0  0  0  0
  139.7240   70.2660  225.4680 C   0  0  0  0  0  0  0  0  0  0  0  0
  139.2160   70.9070  224.4250 N   0  0  0  0  0  0  0  0  0  0  0  0
  142.1881   71.9874  222.1005 H   0  0  0  0  0  0  0  0  0  0  0  0
  141.4967   71.2976  220.5928 H   0  0  0  0  0  0  0  0  0  0  0  0
  143.1644   71.9652  220.5928 H   0  0  0  0  0  0  0  0  0  0  0  0
  142.5713   74.8946  219.5589 H   0  0  0  0  0  0  0  0  0  0  0  0
  142.6026   73.2605  218.8138 H   0  0  0  0  0  0  0  0  0  0  0  0
  141.0832   74.2186  218.8138 H   0  0  0  0  0  0  0  0  0  0  0  0
  140.5186   75.3252  220.1803 H   0  0  0  0  0  0  0  0  0  0  0  0
  140.7905   76.1885  223.1684 H   0  0  0  0  0  0  0  0  0  0  0  0
  141.8428   76.7088  221.8736 H   0  0  0  0  0  0  0  0  0  0  0  0
  139.4571   78.0102  222.7812 H   0  0  0  0  0  0  0  0  0  0  0  0
  140.3457   78.4210  221.2960 H   0  0  0  0  0  0  0  0  0  0  0  0
  137.7326   77.4638  221.3148 H   0  0  0  0  0  0  0  0  0  0  0  0
  138.7492   77.2602  219.9352 H   0  0  0  0  0  0  0  0  0  0  0  0
  136.5504   73.1529  221.1397 H   0  0  0  0  0  0  0  0  0  0  0  0
  138.2120   73.2462  220.4389 H   0  0  0  0  0  0  0  0  0  0  0  0
  138.5130   72.9490  223.2660 H   0  0  0  0  0  0  0  0  0  0  0  0
  137.9289   68.4431  222.5771 H   0  0  0  0  0  0  0  0  0  0  0  0
  138.8561   67.1381  224.5021 H   0  0  0  0  0  0  0  0  0  0  0  0
  140.0682   67.1544  226.6863 H   0  0  0  0  0  0  0  0  0  0  0  0
  141.3887   70.9219  228.3478 H   0  0  0  0  0  0  0  0  0  0  0  0
  140.4157   72.0864  226.3659 H   0  0  0  0  0  0  0  0  0  0  0  0
  1  2  1  0
  2  3  1  0
  2  4  1  0
  4  5  2  0
  4  6  1  0
  6  7  1  0
  7  8  1  0
  8  9  1  0
  9 10  1  0
 10 11  1  0
 11 12  2  0
 11 13  1  0
 13 14  1  0
 14 15  1  0
 15 16  2  0
 15 17  1  0
 17 18  2  0
 18 19  1  0
 19 20  2  0
 20 21  1  0
 21 22  2  0
 22 23  1  0
 22 24  1  0
 24 25  2  0
 25 26  1  0
 26 27  2  0
 10  6  1  0
 27 17  1  0
 26 20  1  0
  1 28  1  0
  1 29  1  0
  1 30  1  0
  3 31  1  0
  3 32  1  0
  3 33  1  0
  6 34  1  6
  7 35  1  0
  7 36  1  0
  8 37  1  0
  8 38  1  0
  9 39  1  0
  9 40  1  0
 13 41  1  0
 13 42  1  0
 14 43  1  0
 18 44  1  0
 19 45  1  0
 21 46  1  0
 24 47  1  0
 25 48  1  0
M  END
>  <smiles>  (18) 
CN(C)C(=O)[C@@H]1CCCN1C(=O)CNC(=O)c1ccc2cc(Cl)ccc2n1

>  <score_type>  (18) 
oracle

>  <origin>  (18) 
autodockgpu

>  <m_score__min__energy>  (18) 
-8.0600000000000005

>  <m_primary>  (18) 
energy

>  <rmsd>  (18) 
3.052322680963607

>  <m_score__min__rmsd>  (18) 
3.052322680963607

>  <meeko>  (18) 
{"free_energy": -6.71, "intermolecular_energy": -8.21, "internal_energy": -2.53, "cluster_size": 3, "cluster_id": 4, "rank_in_cluster": 1}

>  <energy>  (18) 
-7.37

>  <cluster_rmsd>  (18) 
1.91

>  <cluster>  (18) 
1

$$$$

     RDKit          3D

 48 50  0  0  0  0  0  0  0  0999 V2000
  141.1870   81.1790  223.8510 C   0  0  0  0  0  0  0  0  0  0  0  0
  141.8500   80.1890  223.0070 N   0  0  0  0  0  0  0  0  0  0  0  0
  143.2850   80.1710  222.9400 C   0  0  0  0  0  0  0  0  0  0  0  0
  141.0090   79.2620  222.2780 C   0  0  0  0  0  0  0  0  0  0  0  0
  139.7830   79.4220  222.4710 O   0  0  0  0  0  0  0  0  0  0  0  0
  141.6630   78.2880  221.4360 C   0  0  2  0  0  0  0  0  0  0  0  0
  141.8150   78.7500  219.9930 C   0  0  0  0  0  0  0  0  0  0  0  0
  142.1290   77.4630  219.2670 C   0  0  0  0  0  0  0  0  0  0  0  0
  141.9540   76.3400  220.2600 C   0  0  0  0  0  0  0  0  0  0  0  0
  141.0450   77.0170  221.2230 N   0  0  0  0  0  0  0  0  0  0  0  0
  139.8880   76.3740  221.7020 C   0  0  0  0  0  0  0  0  0  0  0  0
  139.1150   76.8050  222.5840 O   0  0  0  0  0  0  0  0  0  0  0  0
  139.4870   75.0270  221.1320 C   0  0  0  0  0  0  0  0  0  0  0  0
  139.5520   74.0130  222.1360 N   0  0  0  0  0  0  0  0  0  0  0  0
  139.6720   72.6320  221.8170 C   0  0  0  0  0  0  0  0  0  0  0  0
  139.7260   72.2180  220.6150 O   0  0  0  0  0  0  0  0  0  0  0  0
  139.7340   71.6450  222.9080 C   0  0  0  0  0  0  0  0  0  0  0  0
  139.2730   70.3750  222.7460 C   0  0  0  0  0  0  0  0  0  0  0  0
  139.3560   69.4750  223.8130 C   0  0  0  0  0  0  0  0  0  0  0  0
  139.8980   69.8780  225.0110 C   0  0  0  0  0  0  0  0  0  0  0  0
  140.0190   69.0590  226.1120 C   0  0  0  0  0  0  0  0  0  0  0  0
  140.5810   69.5400  227.2930 C   0  0  0  0  0  0  0  0  0  0  0  0
  140.7280   68.4780  228.6940 Cl  0  0  0  0  0  0  0  0  0  0  0  0
  141.0380   70.8370  227.4150 C   0  0  0  0  0  0  0  0  0  0  0  0
  140.9170   71.6550  226.3140 C   0  0  0  0  0  0  0  0  0  0  0  0
  140.3620   71.1760  225.1520 C   0  0  0  0  0  0  0  0  0  0  0  0
  140.2610   71.9880  224.1090 N   0  0  0  0  0  0  0  0  0  0  0  0
  141.3541   80.9295  224.9092 H   0  0  0  0  0  0  0  0  0  0  0  0
  141.6000   82.1764  223.6398 H   0  0  0  0  0  0  0  0  0  0  0  0
  140.1075   81.1769  223.6398 H   0  0  0  0  0  0  0  0  0  0  0  0
  143.6996   80.1658  223.9589 H   0  0  0  0  0  0  0  0  0  0  0  0
  143.6158   79.2686  222.4049 H   0  0  0  0  0  0  0  0  0  0  0  0
  143.6383   81.0648  222.4049 H   0  0  0  0  0  0  0  0  0  0  0  0
  142.5796   78.1846  222.0353 H   0  0  0  0  0  0  0  0  0  0  0  0
  140.8831   79.1995  219.6196 H   0  0  0  0  0  0  0  0  0  0  0  0
  142.5832   79.5261  219.8604 H   0  0  0  0  0  0  0  0  0  0  0  0
  141.4394   77.3292  218.4205 H   0  0  0  0  0  0  0  0  0  0  0  0
  143.1544   77.4778  218.8690 H   0  0  0  0  0  0  0  0  0  0  0  0
  141.4857   75.4555  219.8034 H   0  0  0  0  0  0  0  0  0  0  0  0
  142.8844   75.9407  220.6899 H   0  0  0  0  0  0  0  0  0  0  0  0
  138.4580   75.0894  220.7483 H   0  0  0  0  0  0  0  0  0  0  0  0
  140.1824   74.7657  220.3207 H   0  0  0  0  0  0  0  0  0  0  0  0
  139.5150   74.2620  223.1690 H   0  0  0  0  0  0  0  0  0  0  0  0
  138.8395   70.0596  221.7855 H   0  0  0  0  0  0  0  0  0  0  0  0
  138.9880   68.4452  223.6942 H   0  0  0  0  0  0  0  0  0  0  0  0
  139.6694   68.0174  226.0585 H   0  0  0  0  0  0  0  0  0  0  0  0
  141.4807   71.2020  228.3535 H   0  0  0  0  0  0  0  0  0  0  0  0
  141.2663   72.6968  226.3650 H   0  0  0  0  0  0  0  0  0  0  0  0
  1  2  1  0
  2  3  1  0
  2  4  1  0
  4  5  2  0
  4  6  1  0
  6  7  1  0
  7  8  1  0
  8  9  1  0
  9 10  1  0
 10 11  1  0
 11 12  2  0
 11 13  1  0
 13 14  1  0
 14 15  1  0
 15 16  2  0
 15 17  1  0
 17 18  2  0
 18 19  1  0
 19 20  2  0
 20 21  1  0
 21 22  2  0
 22 23  1  0
 22 24  1  0
 24 25  2  0
 25 26  1  0
 26 27  2  0
 10  6  1  0
 27 17  1  0
 26 20  1  0
  1 28  1  0
  1 29  1  0
  1 30  1  0
  3 31  1  0
  3 32  1  0
  3 33  1  0
  6 34  1  1
  7 35  1  0
  7 36  1  0
  8 37  1  0
  8 38  1  0
  9 39  1  0
  9 40  1  0
 13 41  1  0
 13 42  1  0
 14 43  1  0
 18 44  1  0
 19 45  1  0
 21 46  1  0
 24 47  1  0
 25 48  1  0
M  END
>  <smiles>  (19) 
CN(C)C(=O)[C@@H]1CCCN1C(=O)CNC(=O)c1ccc2cc(Cl)ccc2n1

>  <score_type>  (19) 
oracle

>  <origin>  (19) 
autodockgpu

>  <m_score__min__energy>  (19) 
-8.0600000000000005

>  <m_primary>  (19) 
energy

>  <rmsd>  (19) 
2.09342408987532

>  <m_score__min__rmsd>  (19) 
2.09342408987532

>  <meeko>  (19) 
{"free_energy": -7.71, "intermolecular_energy": -9.2, "internal_energy": -1.53, "cluster_size": 34, "cluster_id": 1, "rank_in_cluster": 4}

>  <energy>  (19) 
-7.32

>  <cluster_rmsd>  (19) 
1.63

>  <cluster>  (19) 
1

$$$$

     RDKit          3D

 48 50  0  0  0  0  0  0  0  0999 V2000
  143.0460   73.9110  220.4710 C   0  0  0  0  0  0  0  0  0  0  0  0
  142.3330   75.1850  220.4840 N   0  0  0  0  0  0  0  0  0  0  0  0
  142.7390   76.2280  219.5830 C   0  0  0  0  0  0  0  0  0  0  0  0
  141.2330   75.3260  221.4160 C   0  0  0  0  0  0  0  0  0  0  0  0
  141.0170   74.3070  222.1100 O   0  0  0  0  0  0  0  0  0  0  0  0
  140.5320   76.5880  221.4360 C   0  0  2  0  0  0  0  0  0  0  0  0
  141.0340   77.5340  222.5190 C   0  0  0  0  0  0  0  0  0  0  0  0
  139.9260   78.5570  222.6020 C   0  0  0  0  0  0  0  0  0  0  0  0
  138.7960   78.0560  221.7360 C   0  0  0  0  0  0  0  0  0  0  0  0
  139.1320   76.6080  221.7230 N   0  0  0  0  0  0  0  0  0  0  0  0
  138.1440   75.6330  221.9590 C   0  0  0  0  0  0  0  0  0  0  0  0
  137.1110   75.7790  222.6480 O   0  0  0  0  0  0  0  0  0  0  0  0
  138.2880   74.2540  221.3450 C   0  0  0  0  0  0  0  0  0  0  0  0
  138.6400   73.2920  222.3420 N   0  0  0  0  0  0  0  0  0  0  0  0
  138.1840   71.9450  222.2940 C   0  0  0  0  0  0  0  0  0  0  0  0
  137.4330   71.5180  221.3600 O   0  0  0  0  0  0  0  0  0  0  0  0
  138.5880   71.0110  223.3580 C   0  0  0  0  0  0  0  0  0  0  0  0
  138.2070   69.7050  223.3410 C   0  0  0  0  0  0  0  0  0  0  0  0
  138.6190   68.8590  224.3750 C   0  0  0  0  0  0  0  0  0  0  0  0
  139.4000   69.3490  225.3950 C   0  0  0  0  0  0  0  0  0  0  0  0
  139.8500   68.5870  226.4510 C   0  0  0  0  0  0  0  0  0  0  0  0
  140.6400   69.1570  227.4480 C   0  0  0  0  0  0  0  0  0  0  0  0
  141.2080   68.1670  228.7940 Cl  0  0  0  0  0  0  0  0  0  0  0  0
  141.0050   70.4890  227.4260 C   0  0  0  0  0  0  0  0  0  0  0  0
  140.5550   71.2490  226.3710 C   0  0  0  0  0  0  0  0  0  0  0  0
  139.7760   70.6830  225.3900 C   0  0  0  0  0  0  0  0  0  0  0  0
  139.3600   71.4420  224.3860 N   0  0  0  0  0  0  0  0  0  0  0  0
  143.2296   73.5830  221.5048 H   0  0  0  0  0  0  0  0  0  0  0  0
  142.4391   73.1564  219.9492 H   0  0  0  0  0  0  0  0  0  0  0  0
  144.0066   74.0337  219.9492 H   0  0  0  0  0  0  0  0  0  0  0  0
  143.0785   77.1002  220.1609 H   0  0  0  0  0  0  0  0  0  0  0  0
  143.5616   75.8653  218.9491 H   0  0  0  0  0  0  0  0  0  0  0  0
  141.8877   76.5169  218.9491 H   0  0  0  0  0  0  0  0  0  0  0  0
  140.7236   76.8666  220.3893 H   0  0  0  0  0  0  0  0  0  0  0  0
  141.1621   77.0087  223.4769 H   0  0  0  0  0  0  0  0  0  0  0  0
  142.0181   77.9719  222.2958 H   0  0  0  0  0  0  0  0  0  0  0  0
  139.5861   78.6619  223.6429 H   0  0  0  0  0  0  0  0  0  0  0  0
  140.2754   79.5423  222.2597 H   0  0  0  0  0  0  0  0  0  0  0  0
  137.8128   78.2465  222.1910 H   0  0  0  0  0  0  0  0  0  0  0  0
  138.7142   78.5300  220.7467 H   0  0  0  0  0  0  0  0  0  0  0  0
  137.3331   73.9627  220.8832 H   0  0  0  0  0  0  0  0  0  0  0  0
  139.0843   74.2855  220.5868 H   0  0  0  0  0  0  0  0  0  0  0  0
  139.2620   73.5550  223.1620 H   0  0  0  0  0  0  0  0  0  0  0  0
  137.5816   69.3189  222.5226 H   0  0  0  0  0  0  0  0  0  0  0  0
  138.3182   67.8009  224.3725 H   0  0  0  0  0  0  0  0  0  0  0  0
  139.5840   67.5212  226.5077 H   0  0  0  0  0  0  0  0  0  0  0  0
  141.6300   70.9244  228.2196 H   0  0  0  0  0  0  0  0  0  0  0  0
  140.8199   72.3150  226.3123 H   0  0  0  0  0  0  0  0  0  0  0  0
  1  2  1  0
  2  3  1  0
  2  4  1  0
  4  5  2  0
  4  6  1  0
  6  7  1  0
  7  8  1  0
  8  9  1  0
  9 10  1  0
 10 11  1  0
 11 12  2  0
 11 13  1  0
 13 14  1  0
 14 15  1  0
 15 16  2  0
 15 17  1  0
 17 18  2  0
 18 19  1  0
 19 20  2  0
 20 21  1  0
 21 22  2  0
 22 23  1  0
 22 24  1  0
 24 25  2  0
 25 26  1  0
 26 27  2  0
 10  6  1  0
 27 17  1  0
 26 20  1  0
  1 28  1  0
  1 29  1  0
  1 30  1  0
  3 31  1  0
  3 32  1  0
  3 33  1  0
  6 34  1  6
  7 35  1  0
  7 36  1  0
  8 37  1  0
  8 38  1  0
  9 39  1  0
  9 40  1  0
 13 41  1  0
 13 42  1  0
 14 43  1  0
 18 44  1  0
 19 45  1  0
 21 46  1  0
 24 47  1  0
 25 48  1  0
M  END
>  <smiles>  (20) 
CN(C)C(=O)[C@@H]1CCCN1C(=O)CNC(=O)c1ccc2cc(Cl)ccc2n1

>  <score_type>  (20) 
oracle

>  <origin>  (20) 
autodockgpu

>  <m_score__min__energy>  (20) 
-8.0600000000000005

>  <m_primary>  (20) 
energy

>  <rmsd>  (20) 
3.0637621292963453

>  <m_score__min__rmsd>  (20) 
3.0637621292963453

>  <meeko>  (20) 
{"free_energy": -7.37, "intermolecular_energy": -8.86, "internal_energy": -2.19, "cluster_size": 34, "cluster_id": 1, "rank_in_cluster": 18}

>  <energy>  (20) 
-7.27

>  <cluster_rmsd>  (20) 
1.84

>  <cluster>  (20) 
1

$$$$

     RDKit          3D

 48 50  0  0  0  0  0  0  0  0999 V2000
  142.4450   73.0750  220.4580 C   0  0  0  0  0  0  0  0  0  0  0  0
  141.9780   74.4580  220.4290 N   0  0  0  0  0  0  0  0  0  0  0  0
  142.4000   75.3210  219.3600 C   0  0  0  0  0  0  0  0  0  0  0  0
  141.0960   74.8890  221.4940 C   0  0  0  0  0  0  0  0  0  0  0  0
  140.8270   73.9950  222.3280 O   0  0  0  0  0  0  0  0  0  0  0  0
  140.6400   76.2590  221.4710 C   0  0  2  0  0  0  0  0  0  0  0  0
  141.0360   77.0420  222.7160 C   0  0  0  0  0  0  0  0  0  0  0  0
  140.1340   78.2520  222.6440 C   0  0  0  0  0  0  0  0  0  0  0  0
  139.1650   78.0150  221.5120 C   0  0  0  0  0  0  0  0  0  0  0  0
  139.2370   76.5310  221.4450 N   0  0  0  0  0  0  0  0  0  0  0  0
  138.0670   75.7520  221.3730 C   0  0  0  0  0  0  0  0  0  0  0  0
  136.9180   76.1110  221.7100 O   0  0  0  0  0  0  0  0  0  0  0  0
  138.1410   74.3330  220.8450 C   0  0  0  0  0  0  0  0  0  0  0  0
  138.4580   73.4180  221.8960 N   0  0  0  0  0  0  0  0  0  0  0  0
  138.4070   72.0070  221.7190 C   0  0  0  0  0  0  0  0  0  0  0  0
  138.0730   71.4770  220.6120 O   0  0  0  0  0  0  0  0  0  0  0  0
  138.7480   71.1270  222.8490 C   0  0  0  0  0  0  0  0  0  0  0  0
  138.3400   69.8300  222.8890 C   0  0  0  0  0  0  0  0  0  0  0  0
  138.6920   69.0360  223.9860 C   0  0  0  0  0  0  0  0  0  0  0  0
  139.4410   69.5700  225.0090 C   0  0  0  0  0  0  0  0  0  0  0  0
  139.8310   68.8600  226.1240 C   0  0  0  0  0  0  0  0  0  0  0  0
  140.5910   69.4710  227.1190 C   0  0  0  0  0  0  0  0  0  0  0  0
  141.0820   68.5490  228.5420 Cl  0  0  0  0  0  0  0  0  0  0  0  0
  140.9840   70.7920  227.0390 C   0  0  0  0  0  0  0  0  0  0  0  0
  140.5930   71.5000  225.9240 C   0  0  0  0  0  0  0  0  0  0  0  0
  139.8440   70.8940  224.9450 C   0  0  0  0  0  0  0  0  0  0  0  0
  139.4850   71.6020  223.8840 N   0  0  0  0  0  0  0  0  0  0  0  0
  142.5557   72.7472  221.5022 H   0  0  0  0  0  0  0  0  0  0  0  0
  141.7146   72.4306  219.9468 H   0  0  0  0  0  0  0  0  0  0  0  0
  143.4165   73.0053  219.9468 H   0  0  0  0  0  0  0  0  0  0  0  0
  142.8465   76.2341  219.7805 H   0  0  0  0  0  0  0  0  0  0  0  0
  143.1451   74.8001  218.7407 H   0  0  0  0  0  0  0  0  0  0  0  0
  141.5314   75.5892  218.7407 H   0  0  0  0  0  0  0  0  0  0  0  0
  141.1135   76.5441  220.5199 H   0  0  0  0  0  0  0  0  0  0  0  0
  140.8462   76.4588  223.6291 H   0  0  0  0  0  0  0  0  0  0  0  0
  142.1059   77.2950  222.7523 H   0  0  0  0  0  0  0  0  0  0  0  0
  139.5867   78.3717  223.5906 H   0  0  0  0  0  0  0  0  0  0  0  0
  140.7193   79.1676  222.4736 H   0  0  0  0  0  0  0  0  0  0  0  0
  138.1521   78.3674  221.7565 H   0  0  0  0  0  0  0  0  0  0  0  0
  139.3977   78.5410  220.5744 H   0  0  0  0  0  0  0  0  0  0  0  0
  137.1690   74.0590  220.4089 H   0  0  0  0  0  0  0  0  0  0  0  0
  138.9308   74.2810  220.0811 H   0  0  0  0  0  0  0  0  0  0  0  0
  138.7480   73.7670  222.8570 H   0  0  0  0  0  0  0  0  0  0  0  0
  137.7401   69.4101  222.0682 H   0  0  0  0  0  0  0  0  0  0  0  0
  138.3700   67.9851  224.0304 H   0  0  0  0  0  0  0  0  0  0  0  0
  139.5404   67.8043  226.2290 H   0  0  0  0  0  0  0  0  0  0  0  0
  141.5846   71.2599  227.8329 H   0  0  0  0  0  0  0  0  0  0  0  0
  140.8820   72.5559  225.8171 H   0  0  0  0  0  0  0  0  0  0  0  0
  1  2  1  0
  2  3  1  0
  2  4  1  0
  4  5  2  0
  4  6  1  0
  6  7  1  0
  7  8  1  0
  8  9  1  0
  9 10  1  0
 10 11  1  0
 11 12  2  0
 11 13  1  0
 13 14  1  0
 14 15  1  0
 15 16  2  0
 15 17  1  0
 17 18  2  0
 18 19  1  0
 19 20  2  0
 20 21  1  0
 21 22  2  0
 22 23  1  0
 22 24  1  0
 24 25  2  0
 25 26  1  0
 26 27  2  0
 10  6  1  0
 27 17  1  0
 26 20  1  0
  1 28  1  0
  1 29  1  0
  1 30  1  0
  3 31  1  0
  3 32  1  0
  3 33  1  0
  6 34  1  6
  7 35  1  0
  7 36  1  0
  8 37  1  0
  8 38  1  0
  9 39  1  0
  9 40  1  0
 13 41  1  0
 13 42  1  0
 14 43  1  0
 18 44  1  0
 19 45  1  0
 21 46  1  0
 24 47  1  0
 25 48  1  0
M  END
>  <smiles>  (21) 
CN(C)C(=O)[C@@H]1CCCN1C(=O)CNC(=O)c1ccc2cc(Cl)ccc2n1

>  <score_type>  (21) 
oracle

>  <origin>  (21) 
autodockgpu

>  <m_score__min__energy>  (21) 
-8.0600000000000005

>  <m_primary>  (21) 
energy

>  <rmsd>  (21) 
3.1634019020002633

>  <m_score__min__rmsd>  (21) 
3.1634019020002633

>  <meeko>  (21) 
{"free_energy": -7.0, "intermolecular_energy": -8.5, "internal_energy": -2.33, "cluster_size": 34, "cluster_id": 1, "rank_in_cluster": 27}

>  <energy>  (21) 
-7.27

>  <cluster_rmsd>  (21) 
1.85

>  <cluster>  (21) 
1

$$$$

     RDKit          3D

 48 50  0  0  0  0  0  0  0  0999 V2000
  140.4240   69.8290  226.4130 C   0  0  0  0  0  0  0  0  0  0  0  0
  139.7390   69.7510  225.1260 N   0  0  0  0  0  0  0  0  0  0  0  0
  139.7460   70.8920  224.2540 C   0  0  0  0  0  0  0  0  0  0  0  0
  139.0840   68.5020  224.7940 C   0  0  0  0  0  0  0  0  0  0  0  0
  139.1950   67.6160  225.6710 O   0  0  0  0  0  0  0  0  0  0  0  0
  138.3980   68.4250  223.5250 C   0  0  2  0  0  0  0  0  0  0  0  0
  139.2970   68.7470  222.3390 C   0  0  0  0  0  0  0  0  0  0  0  0
  138.3020   68.9940  221.2290 C   0  0  0  0  0  0  0  0  0  0  0  0
  136.9300   68.9960  221.8580 C   0  0  0  0  0  0  0  0  0  0  0  0
  137.3120   69.3150  223.2590 N   0  0  0  0  0  0  0  0  0  0  0  0
  136.6270   70.3040  223.9890 C   0  0  0  0  0  0  0  0  0  0  0  0
  136.9630   71.5030  224.1050 O   0  0  0  0  0  0  0  0  0  0  0  0
  135.3510   69.9450  224.7270 C   0  0  0  0  0  0  0  0  0  0  0  0
  134.7310   71.1160  225.2620 N   0  0  0  0  0  0  0  0  0  0  0  0
  133.6190   71.0500  226.1480 C   0  0  0  0  0  0  0  0  0  0  0  0
  133.1110   69.9430  226.5140 O   0  0  0  0  0  0  0  0  0  0  0  0
  133.0330   72.3000  226.6600 C   0  0  0  0  0  0  0  0  0  0  0  0
  131.8760   72.3030  227.3760 C   0  0  0  0  0  0  0  0  0  0  0  0
  131.3620   73.5180  227.8400 C   0  0  0  0  0  0  0  0  0  0  0  0
  132.0240   74.6930  227.5700 C   0  0  0  0  0  0  0  0  0  0  0  0
  131.5890   75.9320  227.9880 C   0  0  0  0  0  0  0  0  0  0  0  0
  132.3170   77.0790  227.6750 C   0  0  0  0  0  0  0  0  0  0  0  0
  131.7460   78.6580  228.2180 Cl  0  0  0  0  0  0  0  0  0  0  0  0
  133.4880   77.0310  226.9460 C   0  0  0  0  0  0  0  0  0  0  0  0
  133.9220   75.7930  226.5290 C   0  0  0  0  0  0  0  0  0  0  0  0
  133.2010   74.6650  226.8390 C   0  0  0  0  0  0  0  0  0  0  0  0
  133.6460   73.4870  226.4240 N   0  0  0  0  0  0  0  0  0  0  0  0
  139.6877   69.7452  227.2259 H   0  0  0  0  0  0  0  0  0  0  0  0
  141.1518   69.0079  226.4913 H   0  0  0  0  0  0  0  0  0  0  0  0
  140.9486   70.7927  226.4913 H   0  0  0  0  0  0  0  0  0  0  0  0
  139.7517   71.8130  224.8554 H   0  0  0  0  0  0  0  0  0  0  0  0
  140.6440   70.8629  223.6193 H   0  0  0  0  0  0  0  0  0  0  0  0
  138.8477   70.8740  223.6193 H   0  0  0  0  0  0  0  0  0  0  0  0
  138.0416   67.3892  223.6260 H   0  0  0  0  0  0  0  0  0  0  0  0
  139.9054   69.6425  222.5335 H   0  0  0  0  0  0  0  0  0  0  0  0
  140.0202   67.9507  222.1092 H   0  0  0  0  0  0  0  0  0  0  0  0
  138.5007   69.9656  220.7530 H   0  0  0  0  0  0  0  0  0  0  0  0
  138.3774   68.2167  220.4544 H   0  0  0  0  0  0  0  0  0  0  0  0
  136.2787   69.7683  221.4228 H   0  0  0  0  0  0  0  0  0  0  0  0
  136.3499   68.0707  221.7266 H   0  0  0  0  0  0  0  0  0  0  0  0
  134.6559   69.4550  224.0293 H   0  0  0  0  0  0  0  0  0  0  0  0
  135.6007   69.2666  225.5561 H   0  0  0  0  0  0  0  0  0  0  0  0
  135.0860   72.0860  225.0140 H   0  0  0  0  0  0  0  0  0  0  0  0
  131.3507   71.3600  227.5876 H   0  0  0  0  0  0  0  0  0  0  0  0
  130.4281   73.5340  228.4210 H   0  0  0  0  0  0  0  0  0  0  0  0
  130.6611   76.0166  228.5726 H   0  0  0  0  0  0  0  0  0  0  0  0
  134.0517   77.9451  226.7078 H   0  0  0  0  0  0  0  0  0  0  0  0
  134.8501   75.7063  225.9450 H   0  0  0  0  0  0  0  0  0  0  0  0
  1  2  1  0
  2  3  1  0
  2  4  1  0
  4  5  2  0
  4  6  1  0
  6  7  1  0
  7  8  1  0
  8  9  1  0
  9 10  1  0
 10 11  1  0
 11 12  2  0
 11 13  1  0
 13 14  1  0
 14 15  1  0
 15 16  2  0
 15 17  1  0
 17 18  2  0
 18 19  1  0
 19 20  2  0
 20 21  1  0
 21 22  2  0
 22 23  1  0
 22 24  1  0
 24 25  2  0
 25 26  1  0
 26 27  2  0
 10  6  1  0
 27 17  1  0
 26 20  1  0
  1 28  1  0
  1 29  1  0
  1 30  1  0
  3 31  1  0
  3 32  1  0
  3 33  1  0
  6 34  1  6
  7 35  1  0
  7 36  1  0
  8 37  1  0
  8 38  1  0
  9 39  1  0
  9 40  1  0
 13 41  1  0
 13 42  1  0
 14 43  1  0
 18 44  1  0
 19 45  1  0
 21 46  1  0
 24 47  1  0
 25 48  1  0
M  END
>  <smiles>  (22) 
CN(C)C(=O)[C@@H]1CCCN1C(=O)CNC(=O)c1ccc2cc(Cl)ccc2n1

>  <score_type>  (22) 
oracle

>  <origin>  (22) 
autodockgpu

>  <m_score__min__energy>  (22) 
-8.0600000000000005

>  <m_primary>  (22) 
energy

>  <rmsd>  (22) 
8.737505873832482

>  <m_score__min__rmsd>  (22) 
8.737505873832482

>  <meeko>  (22) 
{"free_energy": -6.62, "intermolecular_energy": -8.11, "internal_energy": -1.9, "cluster_size": 1, "cluster_id": 5, "rank_in_cluster": 1}

>  <energy>  (22) 
-7.26

>  <cluster_rmsd>  (22) 
0.96

>  <cluster>  (22) 
1

$$$$

     RDKit          3D

 48 50  0  0  0  0  0  0  0  0999 V2000
  136.4400   68.7190  222.8230 C   0  0  0  0  0  0  0  0  0  0  0  0
  137.7630   68.5080  223.4030 N   0  0  0  0  0  0  0  0  0  0  0  0
  138.8050   67.9420  222.5920 C   0  0  0  0  0  0  0  0  0  0  0  0
  137.9550   68.8940  224.7860 C   0  0  0  0  0  0  0  0  0  0  0  0
  136.9370   69.3830  225.3280 O   0  0  0  0  0  0  0  0  0  0  0  0
  139.2610   68.6790  225.3640 C   0  0  2  0  0  0  0  0  0  0  0  0
  139.2160   68.4280  226.8660 C   0  0  0  0  0  0  0  0  0  0  0  0
  140.6540   68.6390  227.2780 C   0  0  0  0  0  0  0  0  0  0  0  0
  141.3860   69.1730  226.0710 C   0  0  0  0  0  0  0  0  0  0  0  0
  140.2300   69.7280  225.3190 N   0  0  0  0  0  0  0  0  0  0  0  0
  140.2820   71.0200  224.7620 C   0  0  0  0  0  0  0  0  0  0  0  0
  140.5840   72.0730  225.3640 O   0  0  0  0  0  0  0  0  0  0  0  0
  139.9500   71.2190  223.2960 C   0  0  0  0  0  0  0  0  0  0  0  0
  140.2400   72.5580  222.8890 N   0  0  0  0  0  0  0  0  0  0  0  0
  140.8930   72.8550  221.6610 C   0  0  0  0  0  0  0  0  0  0  0  0
  141.2600   71.9450  220.8520 O   0  0  0  0  0  0  0  0  0  0  0  0
  141.1580   74.2610  221.3090 C   0  0  0  0  0  0  0  0  0  0  0  0
  141.8890   74.5940  220.2110 C   0  0  0  0  0  0  0  0  0  0  0  0
  142.1110   75.9440  219.9220 C   0  0  0  0  0  0  0  0  0  0  0  0
  141.5930   76.9180  220.7440 C   0  0  0  0  0  0  0  0  0  0  0  0
  141.7630   78.2690  220.5330 C   0  0  0  0  0  0  0  0  0  0  0  0
  141.2060   79.1970  221.4120 C   0  0  0  0  0  0  0  0  0  0  0  0
  141.4330   80.9240  221.1280 Cl  0  0  0  0  0  0  0  0  0  0  0  0
  140.4700   78.8140  222.5150 C   0  0  0  0  0  0  0  0  0  0  0  0
  140.3010   77.4640  222.7250 C   0  0  0  0  0  0  0  0  0  0  0  0
  140.8520   76.5540  221.8560 C   0  0  0  0  0  0  0  0  0  0  0  0
  140.6700   75.2610  222.0850 N   0  0  0  0  0  0  0  0  0  0  0  0
  135.7008   68.8369  223.6291 H   0  0  0  0  0  0  0  0  0  0  0  0
  136.4526   69.6265  222.2015 H   0  0  0  0  0  0  0  0  0  0  0  0
  136.1697   67.8526  222.2015 H   0  0  0  0  0  0  0  0  0  0  0  0
  139.5854   67.5181  223.2410 H   0  0  0  0  0  0  0  0  0  0  0  0
  138.3850   67.1480  221.9570 H   0  0  0  0  0  0  0  0  0  0  0  0
  139.2424   68.7265  221.9570 H   0  0  0  0  0  0  0  0  0  0  0  0
  139.5593   67.8407  224.7172 H   0  0  0  0  0  0  0  0  0  0  0  0
  138.5496   69.1444  227.3686 H   0  0  0  0  0  0  0  0  0  0  0  0
  138.8256   67.4347  227.1323 H   0  0  0  0  0  0  0  0  0  0  0  0
  140.7078   69.3640  228.1035 H   0  0  0  0  0  0  0  0  0  0  0  0
  141.1047   67.6975  227.6252 H   0  0  0  0  0  0  0  0  0  0  0  0
  142.1133   69.9525  226.3421 H   0  0  0  0  0  0  0  0  0  0  0  0
  141.9941   68.4369  225.5247 H   0  0  0  0  0  0  0  0  0  0  0  0
  140.5483   70.5206  222.6924 H   0  0  0  0  0  0  0  0  0  0  0  0
  138.8767   71.0292  223.1478 H   0  0  0  0  0  0  0  0  0  0  0  0
  139.9720   73.3860  223.4990 H   0  0  0  0  0  0  0  0  0  0  0  0
  142.3007   73.8103  219.5581 H   0  0  0  0  0  0  0  0  0  0  0  0
  142.6999   76.2273  219.0372 H   0  0  0  0  0  0  0  0  0  0  0  0
  142.3421   78.6178  219.6652 H   0  0  0  0  0  0  0  0  0  0  0  0
  140.0357   79.5579  223.1991 H   0  0  0  0  0  0  0  0  0  0  0  0
  139.7224   77.1126  223.5921 H   0  0  0  0  0  0  0  0  0  0  0  0
  1  2  1  0
  2  3  1  0
  2  4  1  0
  4  5  2  0
  4  6  1  0
  6  7  1  0
  7  8  1  0
  8  9  1  0
  9 10  1  0
 10 11  1  0
 11 12  2  0
 11 13  1  0
 13 14  1  0
 14 15  1  0
 15 16  2  0
 15 17  1  0
 17 18  2  0
 18 19  1  0
 19 20  2  0
 20 21  1  0
 21 22  2  0
 22 23  1  0
 22 24  1  0
 24 25  2  0
 25 26  1  0
 26 27  2  0
 10  6  1  0
 27 17  1  0
 26 20  1  0
  1 28  1  0
  1 29  1  0
  1 30  1  0
  3 31  1  0
  3 32  1  0
  3 33  1  0
  6 34  1  6
  7 35  1  0
  7 36  1  0
  8 37  1  0
  8 38  1  0
  9 39  1  0
  9 40  1  0
 13 41  1  0
 13 42  1  0
 14 43  1  0
 18 44  1  0
 19 45  1  0
 21 46  1  0
 24 47  1  0
 25 48  1  0
M  END
>  <smiles>  (23) 
CN(C)C(=O)[C@@H]1CCCN1C(=O)CNC(=O)c1ccc2cc(Cl)ccc2n1

>  <score_type>  (23) 
oracle

>  <origin>  (23) 
autodockgpu

>  <m_score__min__energy>  (23) 
-8.0600000000000005

>  <m_primary>  (23) 
energy

>  <rmsd>  (23) 
9.034030069122933

>  <m_score__min__rmsd>  (23) 
9.034030069122933

>  <meeko>  (23) 
{"free_energy": -6.69, "intermolecular_energy": -8.18, "internal_energy": -2.04, "cluster_size": 2, "cluster_id": 3, "rank_in_cluster": 2}

>  <energy>  (23) 
-7.26

>  <cluster_rmsd>  (23) 
1.95

>  <cluster>  (23) 
1

$$$$

     RDKit          3D

 48 50  0  0  0  0  0  0  0  0999 V2000
  142.8690   73.3690  220.8030 C   0  0  0  0  0  0  0  0  0  0  0  0
  142.2380   74.6610  220.5510 N   0  0  0  0  0  0  0  0  0  0  0  0
  142.7680   75.5150  219.5240 C   0  0  0  0  0  0  0  0  0  0  0  0
  141.0900   75.0140  221.3620 C   0  0  0  0  0  0  0  0  0  0  0  0
  140.7650   74.1390  222.1970 O   0  0  0  0  0  0  0  0  0  0  0  0
  140.4700   76.2950  221.1200 C   0  0  2  0  0  0  0  0  0  0  0  0
  141.0320   77.4060  221.9960 C   0  0  0  0  0  0  0  0  0  0  0  0
  139.9910   78.4930  221.8590 C   0  0  0  0  0  0  0  0  0  0  0  0
  138.8300   77.8990  221.0990 C   0  0  0  0  0  0  0  0  0  0  0  0
  139.0740   76.4600  221.3800 N   0  0  0  0  0  0  0  0  0  0  0  0
  138.0270   75.6160  221.7960 C   0  0  0  0  0  0  0  0  0  0  0  0
  137.1160   75.9100  222.6000 O   0  0  0  0  0  0  0  0  0  0  0  0
  137.9400   74.2030  221.2520 C   0  0  0  0  0  0  0  0  0  0  0  0
  138.3240   73.2540  222.2490 N   0  0  0  0  0  0  0  0  0  0  0  0
  137.9680   71.8780  222.1660 C   0  0  0  0  0  0  0  0  0  0  0  0
  137.2840   71.4130  221.2000 O   0  0  0  0  0  0  0  0  0  0  0  0
  138.4000   70.9590  223.2320 C   0  0  0  0  0  0  0  0  0  0  0  0
  138.0660   69.6400  223.2140 C   0  0  0  0  0  0  0  0  0  0  0  0
  138.5040   68.8090  224.2500 C   0  0  0  0  0  0  0  0  0  0  0  0
  139.2610   69.3270  225.2740 C   0  0  0  0  0  0  0  0  0  0  0  0
  139.7330   68.5810  226.3320 C   0  0  0  0  0  0  0  0  0  0  0  0
  140.4970   69.1790  227.3330 C   0  0  0  0  0  0  0  0  0  0  0  0
  141.0930   68.2100  228.6820 Cl  0  0  0  0  0  0  0  0  0  0  0  0
  140.8130   70.5230  227.3130 C   0  0  0  0  0  0  0  0  0  0  0  0
  140.3420   71.2670  226.2550 C   0  0  0  0  0  0  0  0  0  0  0  0
  139.5890   70.6740  225.2710 C   0  0  0  0  0  0  0  0  0  0  0  0
  139.1510   71.4170  224.2650 N   0  0  0  0  0  0  0  0  0  0  0  0
  142.9489   73.2054  221.8878 H   0  0  0  0  0  0  0  0  0  0  0  0
  142.2597   72.5699  220.3555 H   0  0  0  0  0  0  0  0  0  0  0  0
  143.8738   73.3582  220.3555 H   0  0  0  0  0  0  0  0  0  0  0  0
  143.2941   76.3627  219.9873 H   0  0  0  0  0  0  0  0  0  0  0  0
  143.4709   74.9444  218.8993 H   0  0  0  0  0  0  0  0  0  0  0  0
  141.9447   75.8916  218.8993 H   0  0  0  0  0  0  0  0  0  0  0  0
  140.6775   76.3442  220.0409 H   0  0  0  0  0  0  0  0  0  0  0  0
  141.1276   77.0774  223.0414 H   0  0  0  0  0  0  0  0  0  0  0  0
  142.0416   77.7276  221.7005 H   0  0  0  0  0  0  0  0  0  0  0  0
  139.6603   78.8268  222.8536 H   0  0  0  0  0  0  0  0  0  0  0  0
  140.4017   79.3653  221.3294 H   0  0  0  0  0  0  0  0  0  0  0  0
  137.8616   78.2376  221.4960 H   0  0  0  0  0  0  0  0  0  0  0  0
  138.7764   78.1688  220.0339 H   0  0  0  0  0  0  0  0  0  0  0  0
  136.9053   73.9995  220.9391 H   0  0  0  0  0  0  0  0  0  0  0  0
  138.6228   74.1113  220.3944 H   0  0  0  0  0  0  0  0  0  0  0  0
  138.8960   73.5470  223.0940 H   0  0  0  0  0  0  0  0  0  0  0  0
  137.4579   69.2317  222.3933 H   0  0  0  0  0  0  0  0  0  0  0  0
  138.2427   67.7405  224.2455 H   0  0  0  0  0  0  0  0  0  0  0  0
  139.5054   67.5062  226.3871 H   0  0  0  0  0  0  0  0  0  0  0  0
  141.4168   70.9807  228.1104 H   0  0  0  0  0  0  0  0  0  0  0  0
  140.5697   72.3416  226.1972 H   0  0  0  0  0  0  0  0  0  0  0  0
  1  2  1  0
  2  3  1  0
  2  4  1  0
  4  5  2  0
  4  6  1  0
  6  7  1  0
  7  8  1  0
  8  9  1  0
  9 10  1  0
 10 11  1  0
 11 12  2  0
 11 13  1  0
 13 14  1  0
 14 15  1  0
 15 16  2  0
 15 17  1  0
 17 18  2  0
 18 19  1  0
 19 20  2  0
 20 21  1  0
 21 22  2  0
 22 23  1  0
 22 24  1  0
 24 25  2  0
 25 26  1  0
 26 27  2  0
 10  6  1  0
 27 17  1  0
 26 20  1  0
  1 28  1  0
  1 29  1  0
  1 30  1  0
  3 31  1  0
  3 32  1  0
  3 33  1  0
  6 34  1  6
  7 35  1  0
  7 36  1  0
  8 37  1  0
  8 38  1  0
  9 39  1  0
  9 40  1  0
 13 41  1  0
 13 42  1  0
 14 43  1  0
 18 44  1  0
 19 45  1  0
 21 46  1  0
 24 47  1  0
 25 48  1  0
M  END
>  <smiles>  (24) 
CN(C)C(=O)[C@@H]1CCCN1C(=O)CNC(=O)c1ccc2cc(Cl)ccc2n1

>  <score_type>  (24) 
oracle

>  <origin>  (24) 
autodockgpu

>  <m_score__min__energy>  (24) 
-8.0600000000000005

>  <m_primary>  (24) 
energy

>  <rmsd>  (24) 
2.9240925301391836

>  <m_score__min__rmsd>  (24) 
2.9240925301391836

>  <meeko>  (24) 
{"free_energy": -7.08, "intermolecular_energy": -8.57, "internal_energy": -2.34, "cluster_size": 34, "cluster_id": 1, "rank_in_cluster": 26}

>  <energy>  (24) 
-7.22

>  <cluster_rmsd>  (24) 
1.91

>  <cluster>  (24) 
1

$$$$

     RDKit          3D

 48 50  0  0  0  0  0  0  0  0999 V2000
  142.6040   73.1320  220.5020 C   0  0  0  0  0  0  0  0  0  0  0  0
  142.0620   74.4870  220.4490 N   0  0  0  0  0  0  0  0  0  0  0  0
  142.4750   75.3690  219.3930 C   0  0  0  0  0  0  0  0  0  0  0  0
  141.1170   74.8690  221.4780 C   0  0  0  0  0  0  0  0  0  0  0  0
  140.8680   73.9640  222.3060 O   0  0  0  0  0  0  0  0  0  0  0  0
  140.5860   76.2110  221.4330 C   0  0  2  0  0  0  0  0  0  0  0  0
  140.8190   76.9910  222.7200 C   0  0  0  0  0  0  0  0  0  0  0  0
  139.8590   78.1490  222.5810 C   0  0  0  0  0  0  0  0  0  0  0  0
  139.0140   77.8800  221.3600 C   0  0  0  0  0  0  0  0  0  0  0  0
  139.1780   76.4040  221.2790 N   0  0  0  0  0  0  0  0  0  0  0  0
  138.0680   75.5610  221.0870 C   0  0  0  0  0  0  0  0  0  0  0  0
  136.8680   75.8700  221.2530 O   0  0  0  0  0  0  0  0  0  0  0  0
  138.2810   74.1300  220.6340 C   0  0  0  0  0  0  0  0  0  0  0  0
  138.5390   73.2790  221.7520 N   0  0  0  0  0  0  0  0  0  0  0  0
  138.4920   71.8600  221.6560 C   0  0  0  0  0  0  0  0  0  0  0  0
  138.2150   71.2650  220.5670 O   0  0  0  0  0  0  0  0  0  0  0  0
  138.7700   71.0490  222.8530 C   0  0  0  0  0  0  0  0  0  0  0  0
  138.2410   69.8050  223.0090 C   0  0  0  0  0  0  0  0  0  0  0  0
  138.5380   69.0750  224.1640 C   0  0  0  0  0  0  0  0  0  0  0  0
  139.3550   69.6160  225.1290 C   0  0  0  0  0  0  0  0  0  0  0  0
  139.6980   68.9680  226.2950 C   0  0  0  0  0  0  0  0  0  0  0  0
  140.5330   69.5830  227.2260 C   0  0  0  0  0  0  0  0  0  0  0  0
  140.9630   68.7400  228.7150 Cl  0  0  0  0  0  0  0  0  0  0  0  0
  141.0490   70.8490  227.0280 C   0  0  0  0  0  0  0  0  0  0  0  0
  140.7060   71.4950  225.8630 C   0  0  0  0  0  0  0  0  0  0  0  0
  139.8820   70.8850  224.9480 C   0  0  0  0  0  0  0  0  0  0  0  0
  139.5710   71.5340  223.8340 N   0  0  0  0  0  0  0  0  0  0  0  0
  142.7261   72.8267  221.5517 H   0  0  0  0  0  0  0  0  0  0  0  0
  141.9132   72.4407  219.9971 H   0  0  0  0  0  0  0  0  0  0  0  0
  143.5810   73.1079  219.9971 H   0  0  0  0  0  0  0  0  0  0  0  0
  142.9037   76.2845  219.8266 H   0  0  0  0  0  0  0  0  0  0  0  0
  143.2322   74.8680  218.7719 H   0  0  0  0  0  0  0  0  0  0  0  0
  141.6054   75.6298  218.7719 H   0  0  0  0  0  0  0  0  0  0  0  0
  141.1285   76.5408  220.5347 H   0  0  0  0  0  0  0  0  0  0  0  0
  140.5798   76.3806  223.6033 H   0  0  0  0  0  0  0  0  0  0  0  0
  141.8645   77.3033  222.8595 H   0  0  0  0  0  0  0  0  0  0  0  0
  139.2204   78.2191  223.4739 H   0  0  0  0  0  0  0  0  0  0  0  0
  140.4036   79.0993  222.4789 H   0  0  0  0  0  0  0  0  0  0  0  0
  137.9641   78.1698  221.5138 H   0  0  0  0  0  0  0  0  0  0  0  0
  139.3014   78.4366  220.4558 H   0  0  0  0  0  0  0  0  0  0  0  0
  137.3783   73.7781  220.1132 H   0  0  0  0  0  0  0  0  0  0  0  0
  139.1485   74.0986  219.9583 H   0  0  0  0  0  0  0  0  0  0  0  0
  138.7790   73.6840  222.7050 H   0  0  0  0  0  0  0  0  0  0  0  0
  137.5866   69.3782  222.2346 H   0  0  0  0  0  0  0  0  0  0  0  0
  138.1180   68.0676  224.3008 H   0  0  0  0  0  0  0  0  0  0  0  0
  139.3101   67.9579  226.4928 H   0  0  0  0  0  0  0  0  0  0  0  0
  141.7075   71.3214  227.7718 H   0  0  0  0  0  0  0  0  0  0  0  0
  141.0932   72.5049  225.6629 H   0  0  0  0  0  0  0  0  0  0  0  0
  1  2  1  0
  2  3  1  0
  2  4  1  0
  4  5  2  0
  4  6  1  0
  6  7  1  0
  7  8  1  0
  8  9  1  0
  9 10  1  0
 10 11  1  0
 11 12  2  0
 11 13  1  0
 13 14  1  0
 14 15  1  0
 15 16  2  0
 15 17  1  0
 17 18  2  0
 18 19  1  0
 19 20  2  0
 20 21  1  0
 21 22  2  0
 22 23  1  0
 22 24  1  0
 24 25  2  0
 25 26  1  0
 26 27  2  0
 10  6  1  0
 27 17  1  0
 26 20  1  0
  1 28  1  0
  1 29  1  0
  1 30  1  0
  3 31  1  0
  3 32  1  0
  3 33  1  0
  6 34  1  6
  7 35  1  0
  7 36  1  0
  8 37  1  0
  8 38  1  0
  9 39  1  0
  9 40  1  0
 13 41  1  0
 13 42  1  0
 14 43  1  0
 18 44  1  0
 19 45  1  0
 21 46  1  0
 24 47  1  0
 25 48  1  0
M  END
>  <smiles>  (25) 
CN(C)C(=O)[C@@H]1CCCN1C(=O)CNC(=O)c1ccc2cc(Cl)ccc2n1

>  <score_type>  (25) 
oracle

>  <origin>  (25) 
autodockgpu

>  <m_score__min__energy>  (25) 
-8.0600000000000005

>  <m_primary>  (25) 
energy

>  <rmsd>  (25) 
3.124612490650134

>  <m_score__min__rmsd>  (25) 
3.124612490650134

>  <meeko>  (25) 
{"free_energy": -6.8, "intermolecular_energy": -8.29, "internal_energy": -2.27, "cluster_size": 34, "cluster_id": 1, "rank_in_cluster": 31}

>  <energy>  (25) 
-7.17

>  <cluster_rmsd>  (25) 
1.83

>  <cluster>  (25) 
1

$$$$

     RDKit          3D

 48 50  0  0  0  0  0  0  0  0999 V2000
  141.4650   71.9000  221.5870 C   0  0  0  0  0  0  0  0  0  0  0  0
  141.2200   73.1670  220.9030 N   0  0  0  0  0  0  0  0  0  0  0  0
  141.8030   73.3920  219.6090 C   0  0  0  0  0  0  0  0  0  0  0  0
  140.3830   74.1400  221.5760 C   0  0  0  0  0  0  0  0  0  0  0  0
  139.9540   73.7620  222.6900 O   0  0  0  0  0  0  0  0  0  0  0  0
  140.1470   75.3960  220.9050 C   0  0  2  0  0  0  0  0  0  0  0  0
  140.9190   76.5560  221.5190 C   0  0  0  0  0  0  0  0  0  0  0  0
  140.2180   77.7620  220.9380 C   0  0  0  0  0  0  0  0  0  0  0  0
  139.0010   77.2550  220.2040 C   0  0  0  0  0  0  0  0  0  0  0  0
  138.8310   75.9530  220.9000 N   0  0  0  0  0  0  0  0  0  0  0  0
  137.5690   75.5420  221.3700 C   0  0  0  0  0  0  0  0  0  0  0  0
  136.7580   76.2390  222.0180 O   0  0  0  0  0  0  0  0  0  0  0  0
  137.0880   74.1300  221.0950 C   0  0  0  0  0  0  0  0  0  0  0  0
  137.5500   73.2330  222.1060 N   0  0  0  0  0  0  0  0  0  0  0  0
  137.6470   71.8300  221.8910 C   0  0  0  0  0  0  0  0  0  0  0  0
  137.3240   71.2910  220.7850 O   0  0  0  0  0  0  0  0  0  0  0  0
  138.1330   70.9680  222.9820 C   0  0  0  0  0  0  0  0  0  0  0  0
  137.8060   69.6480  223.0460 C   0  0  0  0  0  0  0  0  0  0  0  0
  138.2950   68.8730  224.1020 C   0  0  0  0  0  0  0  0  0  0  0  0
  139.0960   69.4460  225.0620 C   0  0  0  0  0  0  0  0  0  0  0  0
  139.6200   68.7570  226.1340 C   0  0  0  0  0  0  0  0  0  0  0  0
  140.4250   69.4080  227.0670 C   0  0  0  0  0  0  0  0  0  0  0  0
  141.0890   68.5120  228.4350 Cl  0  0  0  0  0  0  0  0  0  0  0  0
  140.7330   70.7500  226.9640 C   0  0  0  0  0  0  0  0  0  0  0  0
  140.2090   71.4370  225.8930 C   0  0  0  0  0  0  0  0  0  0  0  0
  139.4160   70.7920  224.9760 C   0  0  0  0  0  0  0  0  0  0  0  0
  138.9270   71.4810  223.9540 N   0  0  0  0  0  0  0  0  0  0  0  0
  141.4343   72.0588  222.6751 H   0  0  0  0  0  0  0  0  0  0  0  0
  140.6908   71.1730  221.3006 H   0  0  0  0  0  0  0  0  0  0  0  0
  142.4544   71.5140  221.3006 H   0  0  0  0  0  0  0  0  0  0  0  0
  142.8230   73.7857  219.7298 H   0  0  0  0  0  0  0  0  0  0  0  0
  141.8395   72.4434  219.0533 H   0  0  0  0  0  0  0  0  0  0  0  0
  141.1927   74.1192  219.0533 H   0  0  0  0  0  0  0  0  0  0  0  0
  140.4391   75.0678  219.8966 H   0  0  0  0  0  0  0  0  0  0  0  0
  140.8463   76.5448  222.6165 H   0  0  0  0  0  0  0  0  0  0  0  0
  141.9968   76.5288  221.3007 H   0  0  0  0  0  0  0  0  0  0  0  0
  139.9149   78.4470  221.7435 H   0  0  0  0  0  0  0  0  0  0  0  0
  140.8844   78.3133  220.2584 H   0  0  0  0  0  0  0  0  0  0  0  0
  138.1313   77.9137  220.3443 H   0  0  0  0  0  0  0  0  0  0  0  0
  139.1006   77.1957  219.1101 H   0  0  0  0  0  0  0  0  0  0  0  0
  135.9882   74.1200  221.0787 H   0  0  0  0  0  0  0  0  0  0  0  0
  137.4873   73.8035  220.1234 H   0  0  0  0  0  0  0  0  0  0  0  0
  137.8430   73.5890  223.0630 H   0  0  0  0  0  0  0  0  0  0  0  0
  137.1641   69.1962  222.2754 H   0  0  0  0  0  0  0  0  0  0  0  0
  138.0391   67.8050  224.1650 H   0  0  0  0  0  0  0  0  0  0  0  0
  139.4014   67.6857  226.2543 H   0  0  0  0  0  0  0  0  0  0  0  0
  141.3712   71.2496  227.7077 H   0  0  0  0  0  0  0  0  0  0  0  0
  140.4265   72.5083  225.7708 H   0  0  0  0  0  0  0  0  0  0  0  0
  1  2  1  0
  2  3  1  0
  2  4  1  0
  4  5  2  0
  4  6  1  0
  6  7  1  0
  7  8  1  0
  8  9  1  0
  9 10  1  0
 10 11  1  0
 11 12  2  0
 11 13  1  0
 13 14  1  0
 14 15  1  0
 15 16  2  0
 15 17  1  0
 17 18  2  0
 18 19  1  0
 19 20  2  0
 20 21  1  0
 21 22  2  0
 22 23  1  0
 22 24  1  0
 24 25  2  0
 25 26  1  0
 26 27  2  0
 10  6  1  0
 27 17  1  0
 26 20  1  0
  1 28  1  0
  1 29  1  0
  1 30  1  0
  3 31  1  0
  3 32  1  0
  3 33  1  0
  6 34  1  6
  7 35  1  0
  7 36  1  0
  8 37  1  0
  8 38  1  0
  9 39  1  0
  9 40  1  0
 13 41  1  0
 13 42  1  0
 14 43  1  0
 18 44  1  0
 19 45  1  0
 21 46  1  0
 24 47  1  0
 25 48  1  0
M  END
>  <smiles>  (26) 
CN(C)C(=O)[C@@H]1CCCN1C(=O)CNC(=O)c1ccc2cc(Cl)ccc2n1

>  <score_type>  (26) 
oracle

>  <origin>  (26) 
autodockgpu

>  <m_score__min__energy>  (26) 
-8.0600000000000005

>  <m_primary>  (26) 
energy

>  <rmsd>  (26) 
2.9492502462284884

>  <m_score__min__rmsd>  (26) 
2.9492502462284884

>  <meeko>  (26) 
{"free_energy": -6.23, "intermolecular_energy": -7.72, "internal_energy": -2.69, "cluster_size": 3, "cluster_id": 4, "rank_in_cluster": 2}

>  <energy>  (26) 
-7.08

>  <cluster_rmsd>  (26) 
1.95

>  <cluster>  (26) 
1

$$$$

     RDKit          3D

 48 50  0  0  0  0  0  0  0  0999 V2000
  140.7470   80.8900  223.4600 C   0  0  0  0  0  0  0  0  0  0  0  0
  141.5730   80.1140  222.5400 N   0  0  0  0  0  0  0  0  0  0  0  0
  142.9550   79.8820  222.8600 C   0  0  0  0  0  0  0  0  0  0  0  0
  140.9410   79.6080  221.3390 C   0  0  0  0  0  0  0  0  0  0  0  0
  139.7280   79.8990  221.2370 O   0  0  0  0  0  0  0  0  0  0  0  0
  141.7590   78.8470  220.4230 C   0  0  2  0  0  0  0  0  0  0  0  0
  141.3660   79.0450  218.9650 C   0  0  0  0  0  0  0  0  0  0  0  0
  142.0540   77.8870  218.2800 C   0  0  0  0  0  0  0  0  0  0  0  0
  142.6220   77.0050  219.3640 C   0  0  0  0  0  0  0  0  0  0  0  0
  141.7450   77.4190  220.4900 N   0  0  0  0  0  0  0  0  0  0  0  0
  141.1340   76.4630  221.3230 C   0  0  0  0  0  0  0  0  0  0  0  0
  140.9280   76.5750  222.5510 O   0  0  0  0  0  0  0  0  0  0  0  0
  140.6580   75.1490  220.7340 C   0  0  0  0  0  0  0  0  0  0  0  0
  140.5680   74.1440  221.7460 N   0  0  0  0  0  0  0  0  0  0  0  0
  139.9450   72.8860  221.5160 C   0  0  0  0  0  0  0  0  0  0  0  0
  139.4280   72.5820  220.3940 O   0  0  0  0  0  0  0  0  0  0  0  0
  139.8910   71.9000  222.6090 C   0  0  0  0  0  0  0  0  0  0  0  0
  139.2910   70.6900  222.4460 C   0  0  0  0  0  0  0  0  0  0  0  0
  139.2690   69.7890  223.5150 C   0  0  0  0  0  0  0  0  0  0  0  0
  139.8480   70.1300  224.7150 C   0  0  0  0  0  0  0  0  0  0  0  0
  139.8710   69.3050  225.8180 C   0  0  0  0  0  0  0  0  0  0  0  0
  140.4790   69.7230  227.0010 C   0  0  0  0  0  0  0  0  0  0  0  0
  140.5000   68.6530  228.4040 Cl  0  0  0  0  0  0  0  0  0  0  0  0
  141.0770   70.9610  227.1220 C   0  0  0  0  0  0  0  0  0  0  0  0
  141.0540   71.7850  226.0200 C   0  0  0  0  0  0  0  0  0  0  0  0
  140.4530   71.3690  224.8560 C   0  0  0  0  0  0  0  0  0  0  0  0
  140.4480   72.1850  223.8120 N   0  0  0  0  0  0  0  0  0  0  0  0
  141.0159   80.6374  224.4963 H   0  0  0  0  0  0  0  0  0  0  0  0
  140.9163   81.9633  223.2885 H   0  0  0  0  0  0  0  0  0  0  0  0
  139.6864   80.6541  223.2885 H   0  0  0  0  0  0  0  0  0  0  0  0
  143.0798   79.8610  223.9527 H   0  0  0  0  0  0  0  0  0  0  0  0
  143.2727   78.9180  222.4361 H   0  0  0  0  0  0  0  0  0  0  0  0
  143.5701   80.6895  222.4361 H   0  0  0  0  0  0  0  0  0  0  0  0
  142.7320   79.2461  220.7455 H   0  0  0  0  0  0  0  0  0  0  0  0
  140.2748   78.9912  218.8367 H   0  0  0  0  0  0  0  0  0  0  0  0
  141.6555   80.0270  218.5625 H   0  0  0  0  0  0  0  0  0  0  0  0
  141.3297   77.3222  217.6748 H   0  0  0  0  0  0  0  0  0  0  0  0
  142.8492   78.2449  217.6095 H   0  0  0  0  0  0  0  0  0  0  0  0
  142.5103   75.9368  219.1264 H   0  0  0  0  0  0  0  0  0  0  0  0
  143.7019   77.1140  219.5429 H   0  0  0  0  0  0  0  0  0  0  0  0
  139.6663   75.2948  220.2809 H   0  0  0  0  0  0  0  0  0  0  0  0
  141.3812   74.8204  219.9731 H   0  0  0  0  0  0  0  0  0  0  0  0
  140.9710   74.3060  222.7160 H   0  0  0  0  0  0  0  0  0  0  0  0
  138.8284   70.4235  221.4842 H   0  0  0  0  0  0  0  0  0  0  0  0
  138.7883   68.8068  223.3961 H   0  0  0  0  0  0  0  0  0  0  0  0
  139.4064   68.3094  225.7650 H   0  0  0  0  0  0  0  0  0  0  0  0
  141.5531   71.2766  228.0621 H   0  0  0  0  0  0  0  0  0  0  0  0
  141.5186   72.7808  226.0710 H   0  0  0  0  0  0  0  0  0  0  0  0
  1  2  1  0
  2  3  1  0
  2  4  1  0
  4  5  2  0
  4  6  1  0
  6  7  1  0
  7  8  1  0
  8  9  1  0
  9 10  1  0
 10 11  1  0
 11 12  2  0
 11 13  1  0
 13 14  1  0
 14 15  1  0
 15 16  2  0
 15 17  1  0
 17 18  2  0
 18 19  1  0
 19 20  2  0
 20 21  1  0
 21 22  2  0
 22 23  1  0
 22 24  1  0
 24 25  2  0
 25 26  1  0
 26 27  2  0
 10  6  1  0
 27 17  1  0
 26 20  1  0
  1 28  1  0
  1 29  1  0
  1 30  1  0
  3 31  1  0
  3 32  1  0
  3 33  1  0
  6 34  1  6
  7 35  1  0
  7 36  1  0
  8 37  1  0
  8 38  1  0
  9 39  1  0
  9 40  1  0
 13 41  1  0
 13 42  1  0
 14 43  1  0
 18 44  1  0
 19 45  1  0
 21 46  1  0
 24 47  1  0
 25 48  1  0
M  END
>  <smiles>  (27) 
CN(C)C(=O)[C@@H]1CCCN1C(=O)CNC(=O)c1ccc2cc(Cl)ccc2n1

>  <score_type>  (27) 
oracle

>  <origin>  (27) 
autodockgpu

>  <m_score__min__energy>  (27) 
-8.0600000000000005

>  <m_primary>  (27) 
energy

>  <rmsd>  (27) 
2.339886735904971

>  <m_score__min__rmsd>  (27) 
2.339886735904971

>  <meeko>  (27) 
{"free_energy": -6.82, "intermolecular_energy": -8.31, "internal_energy": -2.1, "cluster_size": 34, "cluster_id": 1, "rank_in_cluster": 30}

>  <energy>  (27) 
-7.0

>  <cluster_rmsd>  (27) 
1.82

>  <cluster>  (27) 
1

$$$$

     RDKit          3D

 48 50  0  0  0  0  0  0  0  0999 V2000
  142.7380   73.3950  220.5750 C   0  0  0  0  0  0  0  0  0  0  0  0
  142.1500   74.7310  220.5380 N   0  0  0  0  0  0  0  0  0  0  0  0
  142.5950   75.6680  219.5440 C   0  0  0  0  0  0  0  0  0  0  0  0
  141.1290   75.0390  221.5180 C   0  0  0  0  0  0  0  0  0  0  0  0
  140.8620   74.0940  222.2940 O   0  0  0  0  0  0  0  0  0  0  0  0
  140.5520   76.3630  221.4880 C   0  0  2  0  0  0  0  0  0  0  0  0
  140.8880   77.1890  222.7210 C   0  0  0  0  0  0  0  0  0  0  0  0
  139.8810   78.3140  222.6490 C   0  0  0  0  0  0  0  0  0  0  0  0
  138.9260   77.9800  221.5290 C   0  0  0  0  0  0  0  0  0  0  0  0
  139.1300   76.5080  221.4740 N   0  0  0  0  0  0  0  0  0  0  0  0
  138.0340   75.6270  221.4210 C   0  0  0  0  0  0  0  0  0  0  0  0
  136.8630   75.8820  221.7760 O   0  0  0  0  0  0  0  0  0  0  0  0
  138.2270   74.2190  220.8910 C   0  0  0  0  0  0  0  0  0  0  0  0
  138.5260   73.3150  221.9570 N   0  0  0  0  0  0  0  0  0  0  0  0
  138.4300   71.9030  221.8060 C   0  0  0  0  0  0  0  0  0  0  0  0
  138.0700   71.3630  220.7120 O   0  0  0  0  0  0  0  0  0  0  0  0
  138.7540   71.0350  222.9500 C   0  0  0  0  0  0  0  0  0  0  0  0
  138.2960   69.7560  223.0250 C   0  0  0  0  0  0  0  0  0  0  0  0
  138.6340   68.9720  224.1330 C   0  0  0  0  0  0  0  0  0  0  0  0
  139.4210   69.4960  225.1320 C   0  0  0  0  0  0  0  0  0  0  0  0
  139.8010   68.7960  226.2560 C   0  0  0  0  0  0  0  0  0  0  0  0
  140.6020   69.3960  227.2260 C   0  0  0  0  0  0  0  0  0  0  0  0
  141.0800   68.4850  228.6600 Cl  0  0  0  0  0  0  0  0  0  0  0  0
  141.0460   70.6980  227.1100 C   0  0  0  0  0  0  0  0  0  0  0  0
  140.6650   71.3970  225.9860 C   0  0  0  0  0  0  0  0  0  0  0  0
  139.8760   70.8010  225.0330 C   0  0  0  0  0  0  0  0  0  0  0  0
  139.5280   71.5010  223.9620 N   0  0  0  0  0  0  0  0  0  0  0  0
  142.8751   73.0836  221.6210 H   0  0  0  0  0  0  0  0  0  0  0  0
  142.0689   72.6857  220.0659 H   0  0  0  0  0  0  0  0  0  0  0  0
  143.7130   73.4093  220.0659 H   0  0  0  0  0  0  0  0  0  0  0  0
  143.0164   76.5553  220.0391 H   0  0  0  0  0  0  0  0  0  0  0  0
  143.3660   75.1978  218.9159 H   0  0  0  0  0  0  0  0  0  0  0  0
  141.7434   75.9684  218.9159 H   0  0  0  0  0  0  0  0  0  0  0  0
  140.9890   76.6806  220.5298 H   0  0  0  0  0  0  0  0  0  0  0  0
  140.7597   76.5996  223.6408 H   0  0  0  0  0  0  0  0  0  0  0  0
  141.9314   77.5367  222.7436 H   0  0  0  0  0  0  0  0  0  0  0  0
  139.3346   78.3934  223.6004 H   0  0  0  0  0  0  0  0  0  0  0  0
  140.3803   79.2768  222.4653 H   0  0  0  0  0  0  0  0  0  0  0  0
  137.8880   78.2426  221.7811 H   0  0  0  0  0  0  0  0  0  0  0  0
  139.1016   78.5157  220.5845 H   0  0  0  0  0  0  0  0  0  0  0  0
  137.3045   73.8926  220.3886 H   0  0  0  0  0  0  0  0  0  0  0  0
  139.0677   74.2201  220.1816 H   0  0  0  0  0  0  0  0  0  0  0  0
  138.8340   73.6720  222.9090 H   0  0  0  0  0  0  0  0  0  0  0  0
  137.6667   69.3429  222.2229 H   0  0  0  0  0  0  0  0  0  0  0  0
  138.2704   67.9364  224.2054 H   0  0  0  0  0  0  0  0  0  0  0  0
  139.4697   67.7555  226.3890 H   0  0  0  0  0  0  0  0  0  0  0  0
  141.6782   71.1584  227.8836 H   0  0  0  0  0  0  0  0  0  0  0  0
  140.9943   72.4378  225.8510 H   0  0  0  0  0  0  0  0  0  0  0  0
  1  2  1  0
  2  3  1  0
  2  4  1  0
  4  5  2  0
  4  6  1  0
  6  7  1  0
  7  8  1  0
  8  9  1  0
  9 10  1  0
 10 11  1  0
 11 12  2  0
 11 13  1  0
 13 14  1  0
 14 15  1  0
 15 16  2  0
 15 17  1  0
 17 18  2  0
 18 19  1  0
 19 20  2  0
 20 21  1  0
 21 22  2  0
 22 23  1  0
 22 24  1  0
 24 25  2  0
 25 26  1  0
 26 27  2  0
 10  6  1  0
 27 17  1  0
 26 20  1  0
  1 28  1  0
  1 29  1  0
  1 30  1  0
  3 31  1  0
  3 32  1  0
  3 33  1  0
  6 34  1  6
  7 35  1  0
  7 36  1  0
  8 37  1  0
  8 38  1  0
  9 39  1  0
  9 40  1  0
 13 41  1  0
 13 42  1  0
 14 43  1  0
 18 44  1  0
 19 45  1  0
 21 46  1  0
 24 47  1  0
 25 48  1  0
M  END
>  <smiles>  (28) 
CN(C)C(=O)[C@@H]1CCCN1C(=O)CNC(=O)c1ccc2cc(Cl)ccc2n1

>  <score_type>  (28) 
oracle

>  <origin>  (28) 
autodockgpu

>  <m_score__min__energy>  (28) 
-8.0600000000000005

>  <m_primary>  (28) 
energy

>  <rmsd>  (28) 
3.1107864461818386

>  <m_score__min__rmsd>  (28) 
3.1107864461818386

>  <meeko>  (28) 
{"free_energy": -7.17, "intermolecular_energy": -8.66, "internal_energy": -2.24, "cluster_size": 34, "cluster_id": 1, "rank_in_cluster": 25}

>  <energy>  (28) 
-6.95

>  <cluster_rmsd>  (28) 
1.83

>  <cluster>  (28) 
1

$$$$

     RDKit          3D

 48 50  0  0  0  0  0  0  0  0999 V2000
  140.2030   80.6980  223.4890 C   0  0  0  0  0  0  0  0  0  0  0  0
  141.0680   79.7610  222.7780 N   0  0  0  0  0  0  0  0  0  0  0  0
  142.1610   79.1430  223.4780 C   0  0  0  0  0  0  0  0  0  0  0  0
  140.7670   79.4970  221.3860 C   0  0  0  0  0  0  0  0  0  0  0  0
  139.7700   80.1160  220.9520 O   0  0  0  0  0  0  0  0  0  0  0  0
  141.6270   78.5760  220.6800 C   0  0  2  0  0  0  0  0  0  0  0  0
  141.5210   78.7010  219.1660 C   0  0  0  0  0  0  0  0  0  0  0  0
  142.1630   77.4210  218.6850 C   0  0  0  0  0  0  0  0  0  0  0  0
  142.4180   76.5680  219.9030 C   0  0  0  0  0  0  0  0  0  0  0  0
  141.4190   77.1690  220.8260 N   0  0  0  0  0  0  0  0  0  0  0  0
  140.5570   76.3590  221.5880 C   0  0  0  0  0  0  0  0  0  0  0  0
  140.1420   76.6010  222.7420 O   0  0  0  0  0  0  0  0  0  0  0  0
  140.0460   75.0540  221.0090 C   0  0  0  0  0  0  0  0  0  0  0  0
  139.9480   74.0540  222.0250 N   0  0  0  0  0  0  0  0  0  0  0  0
  140.1850   72.6760  221.7620 C   0  0  0  0  0  0  0  0  0  0  0  0
  140.4970   72.2520  220.6040 O   0  0  0  0  0  0  0  0  0  0  0  0
  140.0650   71.7040  222.8620 C   0  0  0  0  0  0  0  0  0  0  0  0
  139.4660   70.4950  222.6810 C   0  0  0  0  0  0  0  0  0  0  0  0
  139.3800   69.6070  223.7580 C   0  0  0  0  0  0  0  0  0  0  0  0
  139.8950   69.9600  224.9830 C   0  0  0  0  0  0  0  0  0  0  0  0
  139.8520   69.1470  226.0950 C   0  0  0  0  0  0  0  0  0  0  0  0
  140.3980   69.5750  227.3040 C   0  0  0  0  0  0  0  0  0  0  0  0
  140.3350   68.5230  228.7190 Cl  0  0  0  0  0  0  0  0  0  0  0  0
  140.9980   70.8110  227.4440 C   0  0  0  0  0  0  0  0  0  0  0  0
  141.0400   71.6220  226.3320 C   0  0  0  0  0  0  0  0  0  0  0  0
  140.5010   71.1960  225.1430 C   0  0  0  0  0  0  0  0  0  0  0  0
  140.5580   72.0000  224.0900 N   0  0  0  0  0  0  0  0  0  0  0  0
  140.3283   80.5622  224.5734 H   0  0  0  0  0  0  0  0  0  0  0  0
  140.4744   81.7281  223.2147 H   0  0  0  0  0  0  0  0  0  0  0  0
  139.1545   80.5096  223.2147 H   0  0  0  0  0  0  0  0  0  0  0  0
  142.0002   79.2339  224.5624 H   0  0  0  0  0  0  0  0  0  0  0  0
  142.2175   78.0793  223.2036 H   0  0  0  0  0  0  0  0  0  0  0  0
  143.1016   79.6429  223.2036 H   0  0  0  0  0  0  0  0  0  0  0  0
  142.5723   78.8843  221.1504 H   0  0  0  0  0  0  0  0  0  0  0  0
  140.4707   78.7636  218.8451 H   0  0  0  0  0  0  0  0  0  0  0  0
  141.9992   79.6076  218.7669 H   0  0  0  0  0  0  0  0  0  0  0  0
  141.4878   76.8974  217.9922 H   0  0  0  0  0  0  0  0  0  0  0  0
  143.1011   77.6303  218.1501 H   0  0  0  0  0  0  0  0  0  0  0  0
  142.2137   75.5043  219.7110 H   0  0  0  0  0  0  0  0  0  0  0  0
  143.4557   76.5654  220.2681 H   0  0  0  0  0  0  0  0  0  0  0  0
  139.0518   75.2194  220.5682 H   0  0  0  0  0  0  0  0  0  0  0  0
  140.7522   74.7082  220.2398 H   0  0  0  0  0  0  0  0  0  0  0  0
  139.6920   74.3110  223.0240 H   0  0  0  0  0  0  0  0  0  0  0  0
  139.0543   70.2197  221.6988 H   0  0  0  0  0  0  0  0  0  0  0  0
  138.9003   68.6261  223.6250 H   0  0  0  0  0  0  0  0  0  0  0  0
  139.3838   68.1539  226.0280 H   0  0  0  0  0  0  0  0  0  0  0  0
  141.4250   71.1344  228.4048 H   0  0  0  0  0  0  0  0  0  0  0  0
  141.5074   72.6157  226.3964 H   0  0  0  0  0  0  0  0  0  0  0  0
  1  2  1  0
  2  3  1  0
  2  4  1  0
  4  5  2  0
  4  6  1  0
  6  7  1  0
  7  8  1  0
  8  9  1  0
  9 10  1  0
 10 11  1  0
 11 12  2  0
 11 13  1  0
 13 14  1  0
 14 15  1  0
 15 16  2  0
 15 17  1  0
 17 18  2  0
 18 19  1  0
 19 20  2  0
 20 21  1  0
 21 22  2  0
 22 23  1  0
 22 24  1  0
 24 25  2  0
 25 26  1  0
 26 27  2  0
 10  6  1  0
 27 17  1  0
 26 20  1  0
  1 28  1  0
  1 29  1  0
  1 30  1  0
  3 31  1  0
  3 32  1  0
  3 33  1  0
  6 34  1  1
  7 35  1  0
  7 36  1  0
  8 37  1  0
  8 38  1  0
  9 39  1  0
  9 40  1  0
 13 41  1  0
 13 42  1  0
 14 43  1  0
 18 44  1  0
 19 45  1  0
 21 46  1  0
 24 47  1  0
 25 48  1  0
M  END
>  <smiles>  (29) 
CN(C)C(=O)[C@@H]1CCCN1C(=O)CNC(=O)c1ccc2cc(Cl)ccc2n1

>  <score_type>  (29) 
oracle

>  <origin>  (29) 
autodockgpu

>  <m_score__min__energy>  (29) 
-8.0600000000000005

>  <m_primary>  (29) 
energy

>  <rmsd>  (29) 
2.121309915934822

>  <m_score__min__rmsd>  (29) 
2.121309915934822

>  <meeko>  (29) 
{"free_energy": -7.42, "intermolecular_energy": -8.91, "internal_energy": -1.86, "cluster_size": 34, "cluster_id": 1, "rank_in_cluster": 17}

>  <energy>  (29) 
-6.86

>  <cluster_rmsd>  (29) 
1.35

>  <cluster>  (29) 
1

$$$$

     RDKit          3D

 48 50  0  0  0  0  0  0  0  0999 V2000
  140.8730   81.1880  222.8380 C   0  0  0  0  0  0  0  0  0  0  0  0
  141.6330   80.1140  222.2040 N   0  0  0  0  0  0  0  0  0  0  0  0
  142.9120   79.7450  222.7440 C   0  0  0  0  0  0  0  0  0  0  0  0
  141.0410   79.4680  221.0510 C   0  0  0  0  0  0  0  0  0  0  0  0
  139.9160   79.9150  220.7340 O   0  0  0  0  0  0  0  0  0  0  0  0
  141.7950   78.4110  220.4180 C   0  0  2  0  0  0  0  0  0  0  0  0
  141.6730   78.4170  218.9000 C   0  0  0  0  0  0  0  0  0  0  0  0
  142.1810   77.0440  218.5240 C   0  0  0  0  0  0  0  0  0  0  0  0
  142.3760   76.2770  219.8090 C   0  0  0  0  0  0  0  0  0  0  0  0
  141.4560   77.0490  220.6870 N   0  0  0  0  0  0  0  0  0  0  0  0
  140.5350   76.3940  221.5250 C   0  0  0  0  0  0  0  0  0  0  0  0
  140.2930   76.6730  222.7190 O   0  0  0  0  0  0  0  0  0  0  0  0
  139.7260   75.2290  220.9860 C   0  0  0  0  0  0  0  0  0  0  0  0
  139.6210   74.1920  221.9630 N   0  0  0  0  0  0  0  0  0  0  0  0
  140.3920   72.9980  221.8920 C   0  0  0  0  0  0  0  0  0  0  0  0
  141.2200   72.7840  220.9500 O   0  0  0  0  0  0  0  0  0  0  0  0
  140.2300   71.9740  222.9370 C   0  0  0  0  0  0  0  0  0  0  0  0
  139.6120   70.7890  222.6820 C   0  0  0  0  0  0  0  0  0  0  0  0
  139.4850   69.8490  223.7090 C   0  0  0  0  0  0  0  0  0  0  0  0
  139.9800   70.1280  224.9620 C   0  0  0  0  0  0  0  0  0  0  0  0
  139.8970   69.2600  226.0290 C   0  0  0  0  0  0  0  0  0  0  0  0
  140.4240   69.6150  227.2700 C   0  0  0  0  0  0  0  0  0  0  0  0
  140.3100   68.4930  228.6270 Cl  0  0  0  0  0  0  0  0  0  0  0  0
  141.0440   70.8300  227.4860 C   0  0  0  0  0  0  0  0  0  0  0  0
  141.1260   71.6950  226.4180 C   0  0  0  0  0  0  0  0  0  0  0  0
  140.6050   71.3410  225.1970 C   0  0  0  0  0  0  0  0  0  0  0  0
  140.7010   72.1970  224.1890 N   0  0  0  0  0  0  0  0  0  0  0  0
  140.9423   81.0901  223.9314 H   0  0  0  0  0  0  0  0  0  0  0  0
  141.2853   82.1602  222.5300 H   0  0  0  0  0  0  0  0  0  0  0  0
  139.8190   81.1226  222.5300 H   0  0  0  0  0  0  0  0  0  0  0  0
  142.8639   79.7589  223.8429 H   0  0  0  0  0  0  0  0  0  0  0  0
  143.1768   78.7338  222.4013 H   0  0  0  0  0  0  0  0  0  0  0  0
  143.6747   80.4597  222.4013 H   0  0  0  0  0  0  0  0  0  0  0  0
  142.7743   78.6646  220.8501 H   0  0  0  0  0  0  0  0  0  0  0  0
  140.6276   78.5535  218.5860 H   0  0  0  0  0  0  0  0  0  0  0  0
  142.2280   79.2361  218.4193 H   0  0  0  0  0  0  0  0  0  0  0  0
  141.4461   76.5312  217.8861 H   0  0  0  0  0  0  0  0  0  0  0  0
  143.1245   77.1152  217.9630 H   0  0  0  0  0  0  0  0  0  0  0  0
  142.0673   75.2257  219.7120 H   0  0  0  0  0  0  0  0  0  0  0  0
  143.4153   76.2048  220.1622 H   0  0  0  0  0  0  0  0  0  0  0  0
  138.7175   75.5808  220.7230 H   0  0  0  0  0  0  0  0  0  0  0  0
  140.2340   74.8271  220.0970 H   0  0  0  0  0  0  0  0  0  0  0  0
  138.9560   74.2800  222.7870 H   0  0  0  0  0  0  0  0  0  0  0  0
  139.2165   70.5729  221.6786 H   0  0  0  0  0  0  0  0  0  0  0  0
  138.9893   68.8863  223.5153 H   0  0  0  0  0  0  0  0  0  0  0  0
  139.4120   68.2810  225.9009 H   0  0  0  0  0  0  0  0  0  0  0  0
  141.4555   71.0958  228.4709 H   0  0  0  0  0  0  0  0  0  0  0  0
  141.6111   72.6743  226.5429 H   0  0  0  0  0  0  0  0  0  0  0  0
  1  2  1  0
  2  3  1  0
  2  4  1  0
  4  5  2  0
  4  6  1  0
  6  7  1  0
  7  8  1  0
  8  9  1  0
  9 10  1  0
 10 11  1  0
 11 12  2  0
 11 13  1  0
 13 14  1  0
 14 15  1  0
 15 16  2  0
 15 17  1  0
 17 18  2  0
 18 19  1  0
 19 20  2  0
 20 21  1  0
 21 22  2  0
 22 23  1  0
 22 24  1  0
 24 25  2  0
 25 26  1  0
 26 27  2  0
 10  6  1  0
 27 17  1  0
 26 20  1  0
  1 28  1  0
  1 29  1  0
  1 30  1  0
  3 31  1  0
  3 32  1  0
  3 33  1  0
  6 34  1  6
  7 35  1  0
  7 36  1  0
  8 37  1  0
  8 38  1  0
  9 39  1  0
  9 40  1  0
 13 41  1  0
 13 42  1  0
 14 43  1  0
 18 44  1  0
 19 45  1  0
 21 46  1  0
 24 47  1  0
 25 48  1  0
M  END
>  <smiles>  (30) 
CN(C)C(=O)[C@@H]1CCCN1C(=O)CNC(=O)c1ccc2cc(Cl)ccc2n1

>  <score_type>  (30) 
oracle

>  <origin>  (30) 
autodockgpu

>  <m_score__min__energy>  (30) 
-8.0600000000000005

>  <m_primary>  (30) 
energy

>  <rmsd>  (30) 
2.1025815358044797

>  <m_score__min__rmsd>  (30) 
2.1025815358044797

>  <meeko>  (30) 
{"free_energy": -7.65, "intermolecular_energy": -9.14, "internal_energy": -1.49, "cluster_size": 34, "cluster_id": 1, "rank_in_cluster": 8}

>  <energy>  (30) 
-6.82

>  <cluster_rmsd>  (30) 
1.87

>  <cluster>  (30) 
1

$$$$

     RDKit          3D

 48 50  0  0  0  0  0  0  0  0999 V2000
  142.0470   72.0130  221.1300 C   0  0  0  0  0  0  0  0  0  0  0  0
  141.7430   73.3010  220.5120 N   0  0  0  0  0  0  0  0  0  0  0  0
  142.3080   73.6170  219.2300 C   0  0  0  0  0  0  0  0  0  0  0  0
  140.8700   74.2000  221.2380 C   0  0  0  0  0  0  0  0  0  0  0  0
  140.4640   73.7480  222.3320 O   0  0  0  0  0  0  0  0  0  0  0  0
  140.5750   75.4780  220.6330 C   0  0  2  0  0  0  0  0  0  0  0  0
  141.4500   76.6060  221.1610 C   0  0  0  0  0  0  0  0  0  0  0  0
  140.7060   77.8400  220.7070 C   0  0  0  0  0  0  0  0  0  0  0  0
  139.3890   77.3770  220.1340 C   0  0  0  0  0  0  0  0  0  0  0  0
  139.2830   76.0610  220.8180 N   0  0  0  0  0  0  0  0  0  0  0  0
  138.0870   75.6650  221.4450 C   0  0  0  0  0  0  0  0  0  0  0  0
  137.4070   76.3490  222.2410 O   0  0  0  0  0  0  0  0  0  0  0  0
  137.5140   74.2880  221.1680 C   0  0  0  0  0  0  0  0  0  0  0  0
  137.9330   73.3570  222.1670 N   0  0  0  0  0  0  0  0  0  0  0  0
  137.7450   71.9530  222.0260 C   0  0  0  0  0  0  0  0  0  0  0  0
  137.1890   71.4450  221.0010 O   0  0  0  0  0  0  0  0  0  0  0  0
  138.2030   71.0550  223.0990 C   0  0  0  0  0  0  0  0  0  0  0  0
  137.8190   69.7500  223.1480 C   0  0  0  0  0  0  0  0  0  0  0  0
  138.2840   68.9390  224.1880 C   0  0  0  0  0  0  0  0  0  0  0  0
  139.1190   69.4620  225.1480 C   0  0  0  0  0  0  0  0  0  0  0  0
  139.6230   68.7360  226.2040 C   0  0  0  0  0  0  0  0  0  0  0  0
  140.4650   69.3370  227.1380 C   0  0  0  0  0  0  0  0  0  0  0  0
  141.1020   68.3920  228.4860 Cl  0  0  0  0  0  0  0  0  0  0  0  0
  140.8300   70.6660  227.0500 C   0  0  0  0  0  0  0  0  0  0  0  0
  140.3260   71.3910  225.9940 C   0  0  0  0  0  0  0  0  0  0  0  0
  139.4960   70.7940  225.0770 C   0  0  0  0  0  0  0  0  0  0  0  0
  139.0290   71.5190  224.0700 N   0  0  0  0  0  0  0  0  0  0  0  0
  142.0225   72.1167  222.2248 H   0  0  0  0  0  0  0  0  0  0  0  0
  141.2996   71.2698  220.8153 H   0  0  0  0  0  0  0  0  0  0  0  0
  143.0478   71.6824  220.8153 H   0  0  0  0  0  0  0  0  0  0  0  0
  143.2602   74.1496  219.3702 H   0  0  0  0  0  0  0  0  0  0  0  0
  142.4867   72.6879  218.6690 H   0  0  0  0  0  0  0  0  0  0  0  0
  141.6099   74.2556  218.6690 H   0  0  0  0  0  0  0  0  0  0  0  0
  140.7207   75.1694  219.5873 H   0  0  0  0  0  0  0  0  0  0  0  0
  141.5263   76.5693  222.2577 H   0  0  0  0  0  0  0  0  0  0  0  0
  142.4873   76.5620  220.7976 H   0  0  0  0  0  0  0  0  0  0  0  0
  140.5311   78.5109  221.5610 H   0  0  0  0  0  0  0  0  0  0  0  0
  141.2875   78.3939  219.9553 H   0  0  0  0  0  0  0  0  0  0  0  0
  138.5624   78.0500  220.4056 H   0  0  0  0  0  0  0  0  0  0  0  0
  139.3385   77.3430  219.0357 H   0  0  0  0  0  0  0  0  0  0  0  0
  136.4156   74.3473  221.1675 H   0  0  0  0  0  0  0  0  0  0  0  0
  137.8778   73.9438  220.1886 H   0  0  0  0  0  0  0  0  0  0  0  0
  138.4070   73.6860  223.0600 H   0  0  0  0  0  0  0  0  0  0  0  0
  137.1503   69.3379  222.3780 H   0  0  0  0  0  0  0  0  0  0  0  0
  137.9820   67.8825  224.2385 H   0  0  0  0  0  0  0  0  0  0  0  0
  139.3590   67.6735  226.3112 H   0  0  0  0  0  0  0  0  0  0  0  0
  141.4967   71.1267  227.7939 H   0  0  0  0  0  0  0  0  0  0  0  0
  140.5892   72.4534  225.8841 H   0  0  0  0  0  0  0  0  0  0  0  0
  1  2  1  0
  2  3  1  0
  2  4  1  0
  4  5  2  0
  4  6  1  0
  6  7  1  0
  7  8  1  0
  8  9  1  0
  9 10  1  0
 10 11  1  0
 11 12  2  0
 11 13  1  0
 13 14  1  0
 14 15  1  0
 15 16  2  0
 15 17  1  0
 17 18  2  0
 18 19  1  0
 19 20  2  0
 20 21  1  0
 21 22  2  0
 22 23  1  0
 22 24  1  0
 24 25  2  0
 25 26  1  0
 26 27  2  0
 10  6  1  0
 27 17  1  0
 26 20  1  0
  1 28  1  0
  1 29  1  0
  1 30  1  0
  3 31  1  0
  3 32  1  0
  3 33  1  0
  6 34  1  6
  7 35  1  0
  7 36  1  0
  8 37  1  0
  8 38  1  0
  9 39  1  0
  9 40  1  0
 13 41  1  0
 13 42  1  0
 14 43  1  0
 18 44  1  0
 19 45  1  0
 21 46  1  0
 24 47  1  0
 25 48  1  0
M  END
>  <smiles>  (31) 
CN(C)C(=O)[C@@H]1CCCN1C(=O)CNC(=O)c1ccc2cc(Cl)ccc2n1

>  <score_type>  (31) 
oracle

>  <origin>  (31) 
autodockgpu

>  <m_score__min__energy>  (31) 
-8.0600000000000005

>  <m_primary>  (31) 
energy

>  <rmsd>  (31) 
2.872705956814274

>  <m_score__min__rmsd>  (31) 
2.872705956814274

>  <meeko>  (31) 
{"free_energy": -6.4, "intermolecular_energy": -7.89, "internal_energy": -2.6, "cluster_size": 7, "cluster_id": 2, "rank_in_cluster": 7}

>  <energy>  (31) 
-6.8

>  <cluster_rmsd>  (31) 
1.85

>  <cluster>  (31) 
1

$$$$

     RDKit          3D

 48 50  0  0  0  0  0  0  0  0999 V2000
  140.9090   81.1760  223.2120 C   0  0  0  0  0  0  0  0  0  0  0  0
  141.6560   80.1710  222.4610 N   0  0  0  0  0  0  0  0  0  0  0  0
  142.9460   79.7520  222.9350 C   0  0  0  0  0  0  0  0  0  0  0  0
  141.0410   79.6400  221.2610 C   0  0  0  0  0  0  0  0  0  0  0  0
  139.9100   80.1140  221.0130 O   0  0  0  0  0  0  0  0  0  0  0  0
  141.7820   78.6520  220.5120 C   0  0  2  0  0  0  0  0  0  0  0  0
  141.5220   78.7200  219.0130 C   0  0  0  0  0  0  0  0  0  0  0  0
  142.0560   77.3930  218.5270 C   0  0  0  0  0  0  0  0  0  0  0  0
  142.4020   76.5790  219.7500 C   0  0  0  0  0  0  0  0  0  0  0  0
  141.5320   77.2640  220.7430 N   0  0  0  0  0  0  0  0  0  0  0  0
  140.7210   76.5260  221.6260 C   0  0  0  0  0  0  0  0  0  0  0  0
  140.5910   76.7280  222.8530 O   0  0  0  0  0  0  0  0  0  0  0  0
  139.9030   75.3630  221.1000 C   0  0  0  0  0  0  0  0  0  0  0  0
  139.8240   74.3200  222.0730 N   0  0  0  0  0  0  0  0  0  0  0  0
  140.0780   72.9570  221.7510 C   0  0  0  0  0  0  0  0  0  0  0  0
  140.3880   72.5870  220.5740 O   0  0  0  0  0  0  0  0  0  0  0  0
  139.9770   71.9370  222.8080 C   0  0  0  0  0  0  0  0  0  0  0  0
  139.3990   70.7280  222.5780 C   0  0  0  0  0  0  0  0  0  0  0  0
  139.3300   69.7940  223.6160 C   0  0  0  0  0  0  0  0  0  0  0  0
  139.8420   70.1030  224.8550 C   0  0  0  0  0  0  0  0  0  0  0  0
  139.8160   69.2440  225.9320 C   0  0  0  0  0  0  0  0  0  0  0  0
  140.3570   69.6300  227.1570 C   0  0  0  0  0  0  0  0  0  0  0  0
  140.3160   68.5180  228.5260 Cl  0  0  0  0  0  0  0  0  0  0  0  0
  140.9360   70.8690  227.3470 C   0  0  0  0  0  0  0  0  0  0  0  0
  140.9620   71.7260  226.2710 C   0  0  0  0  0  0  0  0  0  0  0  0
  140.4270   71.3410  225.0650 C   0  0  0  0  0  0  0  0  0  0  0  0
  140.4680   72.1900  224.0470 N   0  0  0  0  0  0  0  0  0  0  0  0
  141.0396   81.0003  224.2900 H   0  0  0  0  0  0  0  0  0  0  0  0
  141.2831   82.1782  222.9559 H   0  0  0  0  0  0  0  0  0  0  0  0
  139.8415   81.1066  222.9559 H   0  0  0  0  0  0  0  0  0  0  0  0
  142.9498   79.7508  224.0350 H   0  0  0  0  0  0  0  0  0  0  0  0
  143.1605   78.7380  222.5664 H   0  0  0  0  0  0  0  0  0  0  0  0
  143.7154   80.4464  222.5664 H   0  0  0  0  0  0  0  0  0  0  0  0
  142.7840   78.9350  220.8668 H   0  0  0  0  0  0  0  0  0  0  0  0
  140.4472   78.8178  218.8002 H   0  0  0  0  0  0  0  0  0  0  0  0
  141.9925   79.5866  218.5256 H   0  0  0  0  0  0  0  0  0  0  0  0
  141.2905   76.8733  217.9320 H   0  0  0  0  0  0  0  0  0  0  0  0
  142.9407   77.5369  217.8893 H   0  0  0  0  0  0  0  0  0  0  0  0
  142.1336   75.5191  219.6289 H   0  0  0  0  0  0  0  0  0  0  0  0
  143.4713   76.5423  220.0054 H   0  0  0  0  0  0  0  0  0  0  0  0
  138.8876   75.7136  220.8633 H   0  0  0  0  0  0  0  0  0  0  0  0
  140.3906   74.9677  220.1967 H   0  0  0  0  0  0  0  0  0  0  0  0
  139.5710   74.5310  223.0830 H   0  0  0  0  0  0  0  0  0  0  0  0
  138.9900   70.4873  221.5857 H   0  0  0  0  0  0  0  0  0  0  0  0
  138.8662   68.8118  223.4420 H   0  0  0  0  0  0  0  0  0  0  0  0
  139.3650   68.2465  225.8242 H   0  0  0  0  0  0  0  0  0  0  0  0
  141.3596   71.1593  228.3198 H   0  0  0  0  0  0  0  0  0  0  0  0
  141.4130   72.7237  226.3764 H   0  0  0  0  0  0  0  0  0  0  0  0
  1  2  1  0
  2  3  1  0
  2  4  1  0
  4  5  2  0
  4  6  1  0
  6  7  1  0
  7  8  1  0
  8  9  1  0
  9 10  1  0
 10 11  1  0
 11 12  2  0
 11 13  1  0
 13 14  1  0
 14 15  1  0
 15 16  2  0
 15 17  1  0
 17 18  2  0
 18 19  1  0
 19 20  2  0
 20 21  1  0
 21 22  2  0
 22 23  1  0
 22 24  1  0
 24 25  2  0
 25 26  1  0
 26 27  2  0
 10  6  1  0
 27 17  1  0
 26 20  1  0
  1 28  1  0
  1 29  1  0
  1 30  1  0
  3 31  1  0
  3 32  1  0
  3 33  1  0
  6 34  1  6
  7 35  1  0
  7 36  1  0
  8 37  1  0
  8 38  1  0
  9 39  1  0
  9 40  1  0
 13 41  1  0
 13 42  1  0
 14 43  1  0
 18 44  1  0
 19 45  1  0
 21 46  1  0
 24 47  1  0
 25 48  1  0
M  END
>  <smiles>  (32) 
CN(C)C(=O)[C@@H]1CCCN1C(=O)CNC(=O)c1ccc2cc(Cl)ccc2n1

>  <score_type>  (32) 
oracle

>  <origin>  (32) 
autodockgpu

>  <m_score__min__energy>  (32) 
-8.0600000000000005

>  <m_primary>  (32) 
energy

>  <rmsd>  (32) 
2.1796277329366633

>  <m_score__min__rmsd>  (32) 
2.1796277329366633

>  <meeko>  (32) 
{"free_energy": -7.47, "intermolecular_energy": -8.96, "internal_energy": -1.78, "cluster_size": 34, "cluster_id": 1, "rank_in_cluster": 15}

>  <energy>  (32) 
-6.73

>  <cluster_rmsd>  (32) 
1.96

>  <cluster>  (32) 
1

$$$$

     RDKit          3D

 48 50  0  0  0  0  0  0  0  0999 V2000
  141.4080   81.2590  218.0550 C   0  0  0  0  0  0  0  0  0  0  0  0
  141.4130   81.3760  219.5110 N   0  0  0  0  0  0  0  0  0  0  0  0
  141.1220   82.6460  220.1150 C   0  0  0  0  0  0  0  0  0  0  0  0
  141.7100   80.1820  220.2760 C   0  0  0  0  0  0  0  0  0  0  0  0
  141.9240   79.1660  219.5770 O   0  0  0  0  0  0  0  0  0  0  0  0
  141.7230   80.2980  221.7160 C   0  0  2  0  0  0  0  0  0  0  0  0
  142.1830   79.0250  222.4130 C   0  0  0  0  0  0  0  0  0  0  0  0
  141.7330   79.2500  223.8380 C   0  0  0  0  0  0  0  0  0  0  0  0
  140.8950   80.5050  223.8440 C   0  0  0  0  0  0  0  0  0  0  0  0
  140.4970   80.5310  222.4120 N   0  0  0  0  0  0  0  0  0  0  0  0
  139.1590   80.7550  222.0360 C   0  0  0  0  0  0  0  0  0  0  0  0
  138.4700   81.7580  222.3210 O   0  0  0  0  0  0  0  0  0  0  0  0
  138.4280   79.7180  221.2060 C   0  0  0  0  0  0  0  0  0  0  0  0
  139.2380   78.5560  221.0210 N   0  0  0  0  0  0  0  0  0  0  0  0
  139.0830   77.3860  221.8160 C   0  0  0  0  0  0  0  0  0  0  0  0
  138.2130   77.3070  222.7410 O   0  0  0  0  0  0  0  0  0  0  0  0
  139.9550   76.2260  221.5660 C   0  0  0  0  0  0  0  0  0  0  0  0
  139.6000   74.9710  221.9530 C   0  0  0  0  0  0  0  0  0  0  0  0
  140.4640   73.9040  221.6910 C   0  0  0  0  0  0  0  0  0  0  0  0
  141.6600   74.1290  221.0490 C   0  0  0  0  0  0  0  0  0  0  0  0
  142.5680   73.1370  220.7520 C   0  0  0  0  0  0  0  0  0  0  0  0
  143.7600   73.4430  220.0980 C   0  0  0  0  0  0  0  0  0  0  0  0
  144.9140   72.1610  219.7240 Cl  0  0  0  0  0  0  0  0  0  0  0  0
  144.0820   74.7320  219.7220 C   0  0  0  0  0  0  0  0  0  0  0  0
  143.1740   75.7220  220.0190 C   0  0  0  0  0  0  0  0  0  0  0  0
  142.0000   75.4160  220.6640 C   0  0  0  0  0  0  0  0  0  0  0  0
  141.1450   76.3910  220.9350 N   0  0  0  0  0  0  0  0  0  0  0  0
  141.3627   80.1968  217.7727 H   0  0  0  0  0  0  0  0  0  0  0  0
  140.5314   81.7843  217.6479 H   0  0  0  0  0  0  0  0  0  0  0  0
  142.3261   81.7078  217.6479 H   0  0  0  0  0  0  0  0  0  0  0  0
  141.1451   82.5451  221.2101 H   0  0  0  0  0  0  0  0  0  0  0  0
  141.8744   83.3834  219.7988 H   0  0  0  0  0  0  0  0  0  0  0  0
  140.1235   82.9822  219.7988 H   0  0  0  0  0  0  0  0  0  0  0  0
  142.3819   81.1768  221.7765 H   0  0  0  0  0  0  0  0  0  0  0  0
  141.6993   78.1375  221.9790 H   0  0  0  0  0  0  0  0  0  0  0  0
  143.2632   78.8399  222.3188 H   0  0  0  0  0  0  0  0  0  0  0  0
  141.1345   78.3946  224.1845 H   0  0  0  0  0  0  0  0  0  0  0  0
  142.5973   79.3523  224.5107 H   0  0  0  0  0  0  0  0  0  0  0  0
  140.0252   80.4161  224.5115 H   0  0  0  0  0  0  0  0  0  0  0  0
  141.4036   81.4097  224.2084 H   0  0  0  0  0  0  0  0  0  0  0  0
  137.4993   79.4323  221.7216 H   0  0  0  0  0  0  0  0  0  0  0  0
  138.2003   80.1506  220.2206 H   0  0  0  0  0  0  0  0  0  0  0  0
  139.9920   78.5270  220.2730 H   0  0  0  0  0  0  0  0  0  0  0  0
  138.6429   74.7978  222.4668 H   0  0  0  0  0  0  0  0  0  0  0  0
  140.1878   72.8845  221.9980 H   0  0  0  0  0  0  0  0  0  0  0  0
  142.3509   72.0959  221.0329 H   0  0  0  0  0  0  0  0  0  0  0  0
  145.0266   74.9582  219.2057 H   0  0  0  0  0  0  0  0  0  0  0  0
  143.3889   76.7637  219.7387 H   0  0  0  0  0  0  0  0  0  0  0  0
  1  2  1  0
  2  3  1  0
  2  4  1  0
  4  5  2  0
  4  6  1  0
  6  7  1  0
  7  8  1  0
  8  9  1  0
  9 10  1  0
 10 11  1  0
 11 12  2  0
 11 13  1  0
 13 14  1  0
 14 15  1  0
 15 16  2  0
 15 17  1  0
 17 18  2  0
 18 19  1  0
 19 20  2  0
 20 21  1  0
 21 22  2  0
 22 23  1  0
 22 24  1  0
 24 25  2  0
 25 26  1  0
 26 27  2  0
 10  6  1  0
 27 17  1  0
 26 20  1  0
  1 28  1  0
  1 29  1  0
  1 30  1  0
  3 31  1  0
  3 32  1  0
  3 33  1  0
  6 34  1  6
  7 35  1  0
  7 36  1  0
  8 37  1  0
  8 38  1  0
  9 39  1  0
  9 40  1  0
 13 41  1  0
 13 42  1  0
 14 43  1  0
 18 44  1  0
 19 45  1  0
 21 46  1  0
 24 47  1  0
 25 48  1  0
M  END
>  <smiles>  (33) 
CN(C)C(=O)[C@@H]1CCCN1C(=O)CNC(=O)c1ccc2cc(Cl)ccc2n1

>  <score_type>  (33) 
oracle

>  <origin>  (33) 
autodockgpu

>  <m_score__min__energy>  (33) 
-8.0600000000000005

>  <m_primary>  (33) 
energy

>  <rmsd>  (33) 
6.717372159960462

>  <m_score__min__rmsd>  (33) 
6.717372159960462

>  <meeko>  (33) 
{"free_energy": -5.28, "intermolecular_energy": -6.77, "internal_energy": -3.15, "cluster_size": 3, "cluster_id": 6, "rank_in_cluster": 2}

>  <energy>  (33) 
-6.7

>  <cluster_rmsd>  (33) 
1.48

>  <cluster>  (33) 
1

$$$$

     RDKit          3D

 48 50  0  0  0  0  0  0  0  0999 V2000
  141.1330   71.6030  221.5960 C   0  0  0  0  0  0  0  0  0  0  0  0
  140.9330   72.8300  220.8300 N   0  0  0  0  0  0  0  0  0  0  0  0
  141.3820   72.8890  219.4660 C   0  0  0  0  0  0  0  0  0  0  0  0
  140.2760   73.9350  221.4980 C   0  0  0  0  0  0  0  0  0  0  0  0
  139.9440   73.6940  222.6810 O   0  0  0  0  0  0  0  0  0  0  0  0
  140.0850   75.1520  220.7440 C   0  0  2  0  0  0  0  0  0  0  0  0
  141.0700   76.2500  221.1220 C   0  0  0  0  0  0  0  0  0  0  0  0
  140.4300   77.4840  220.5290 C   0  0  0  0  0  0  0  0  0  0  0  0
  139.0650   77.0780  220.0310 C   0  0  0  0  0  0  0  0  0  0  0  0
  138.8550   75.8700  220.8720 N   0  0  0  0  0  0  0  0  0  0  0  0
  137.6420   75.6640  221.5550 C   0  0  0  0  0  0  0  0  0  0  0  0
  137.0750   76.4790  222.3150 O   0  0  0  0  0  0  0  0  0  0  0  0
  136.9040   74.3490  221.3960 C   0  0  0  0  0  0  0  0  0  0  0  0
  137.3940   73.3790  222.3230 N   0  0  0  0  0  0  0  0  0  0  0  0
  136.9910   72.0150  222.2810 C   0  0  0  0  0  0  0  0  0  0  0  0
  136.1690   71.5790  221.4140 O   0  0  0  0  0  0  0  0  0  0  0  0
  137.5390   71.0730  223.2710 C   0  0  0  0  0  0  0  0  0  0  0  0
  137.0560   69.8070  223.3930 C   0  0  0  0  0  0  0  0  0  0  0  0
  137.6130   68.9510  224.3480 C   0  0  0  0  0  0  0  0  0  0  0  0
  138.6370   69.3920  225.1530 C   0  0  0  0  0  0  0  0  0  0  0  0
  139.2420   68.6170  226.1180 C   0  0  0  0  0  0  0  0  0  0  0  0
  140.2760   69.1360  226.8960 C   0  0  0  0  0  0  0  0  0  0  0  0
  141.0400   68.1300  228.1280 Cl  0  0  0  0  0  0  0  0  0  0  0  0
  140.7370   70.4280  226.7390 C   0  0  0  0  0  0  0  0  0  0  0  0
  140.1320   71.2010  225.7740 C   0  0  0  0  0  0  0  0  0  0  0  0
  139.1130   70.6860  225.0110 C   0  0  0  0  0  0  0  0  0  0  0  0
  138.5510   71.4560  224.0890 N   0  0  0  0  0  0  0  0  0  0  0  0
  141.0957   71.8318  222.6713 H   0  0  0  0  0  0  0  0  0  0  0  0
  140.3405   70.8819  221.3469 H   0  0  0  0  0  0  0  0  0  0  0  0
  142.1134   71.1709  221.3469 H   0  0  0  0  0  0  0  0  0  0  0  0
  142.4724   73.0323  219.4448 H   0  0  0  0  0  0  0  0  0  0  0  0
  141.1256   71.9494  218.9546 H   0  0  0  0  0  0  0  0  0  0  0  0
  140.8916   73.7304  218.9546 H   0  0  0  0  0  0  0  0  0  0  0  0
  140.1795   74.7084  219.7419 H   0  0  0  0  0  0  0  0  0  0  0  0
  141.1665   76.3384  222.2142 H   0  0  0  0  0  0  0  0  0  0  0  0
  142.0911   76.0673  220.7559 H   0  0  0  0  0  0  0  0  0  0  0  0
  140.3347   78.2660  221.2968 H   0  0  0  0  0  0  0  0  0  0  0  0
  141.0423   77.8880  219.7094 H   0  0  0  0  0  0  0  0  0  0  0  0
  138.3084   77.8522  220.2264 H   0  0  0  0  0  0  0  0  0  0  0  0
  138.9884   76.9157  218.9457 H   0  0  0  0  0  0  0  0  0  0  0  0
  135.8316   74.5127  221.5779 H   0  0  0  0  0  0  0  0  0  0  0  0
  137.0654   73.9745  220.3744 H   0  0  0  0  0  0  0  0  0  0  0  0
  138.0850   73.6480  223.0840 H   0  0  0  0  0  0  0  0  0  0  0  0
  136.2358   69.4604  222.7471 H   0  0  0  0  0  0  0  0  0  0  0  0
  137.2321   67.9247  224.4554 H   0  0  0  0  0  0  0  0  0  0  0  0
  138.9069   67.5812  226.2758 H   0  0  0  0  0  0  0  0  0  0  0  0
  141.5544   70.8235  227.3598 H   0  0  0  0  0  0  0  0  0  0  0  0
  140.4665   72.2365  225.6132 H   0  0  0  0  0  0  0  0  0  0  0  0
  1  2  1  0
  2  3  1  0
  2  4  1  0
  4  5  2  0
  4  6  1  0
  6  7  1  0
  7  8  1  0
  8  9  1  0
  9 10  1  0
 10 11  1  0
 11 12  2  0
 11 13  1  0
 13 14  1  0
 14 15  1  0
 15 16  2  0
 15 17  1  0
 17 18  2  0
 18 19  1  0
 19 20  2  0
 20 21  1  0
 21 22  2  0
 22 23  1  0
 22 24  1  0
 24 25  2  0
 25 26  1  0
 26 27  2  0
 10  6  1  0
 27 17  1  0
 26 20  1  0
  1 28  1  0
  1 29  1  0
  1 30  1  0
  3 31  1  0
  3 32  1  0
  3 33  1  0
  6 34  1  6
  7 35  1  0
  7 36  1  0
  8 37  1  0
  8 38  1  0
  9 39  1  0
  9 40  1  0
 13 41  1  0
 13 42  1  0
 14 43  1  0
 18 44  1  0
 19 45  1  0
 21 46  1  0
 24 47  1  0
 25 48  1  0
M  END
>  <smiles>  (34) 
CN(C)C(=O)[C@@H]1CCCN1C(=O)CNC(=O)c1ccc2cc(Cl)ccc2n1

>  <score_type>  (34) 
oracle

>  <origin>  (34) 
autodockgpu

>  <m_score__min__energy>  (34) 
-8.0600000000000005

>  <m_primary>  (34) 
energy

>  <rmsd>  (34) 
3.0464800876214237

>  <m_score__min__rmsd>  (34) 
3.0464800876214237

>  <meeko>  (34) 
{"free_energy": -5.92, "intermolecular_energy": -7.42, "internal_energy": -2.77, "cluster_size": 3, "cluster_id": 4, "rank_in_cluster": 3}

>  <energy>  (34) 
-6.62

>  <cluster_rmsd>  (34) 
1.87

>  <cluster>  (34) 
1

$$$$

     RDKit          3D

 48 50  0  0  0  0  0  0  0  0999 V2000
  143.2200   73.9480  220.5000 C   0  0  0  0  0  0  0  0  0  0  0  0
  142.4580   75.1890  220.3950 N   0  0  0  0  0  0  0  0  0  0  0  0
  142.8880   76.2030  219.4720 C   0  0  0  0  0  0  0  0  0  0  0  0
  141.2870   75.3270  221.2360 C   0  0  0  0  0  0  0  0  0  0  0  0
  141.0610   74.3350  221.9650 O   0  0  0  0  0  0  0  0  0  0  0  0
  140.5360   76.5570  221.1400 C   0  0  2  0  0  0  0  0  0  0  0  0
  141.0650   77.6540  222.0530 C   0  0  0  0  0  0  0  0  0  0  0  0
  139.9220   78.6420  222.0770 C   0  0  0  0  0  0  0  0  0  0  0  0
  138.7620   77.9930  221.3620 C   0  0  0  0  0  0  0  0  0  0  0  0
  139.1570   76.5680  221.5150 N   0  0  0  0  0  0  0  0  0  0  0  0
  138.2270   75.6010  221.9410 C   0  0  0  0  0  0  0  0  0  0  0  0
  137.3330   75.7630  222.7990 O   0  0  0  0  0  0  0  0  0  0  0  0
  138.2620   74.2090  221.3390 C   0  0  0  0  0  0  0  0  0  0  0  0
  138.6560   73.2460  222.3180 N   0  0  0  0  0  0  0  0  0  0  0  0
  138.1190   71.9280  222.3480 C   0  0  0  0  0  0  0  0  0  0  0  0
  137.2530   71.5320  221.5050 O   0  0  0  0  0  0  0  0  0  0  0  0
  138.5750   70.9900  223.3870 C   0  0  0  0  0  0  0  0  0  0  0  0
  138.2410   69.6710  223.3510 C   0  0  0  0  0  0  0  0  0  0  0  0
  138.7010   68.8220  224.3620 C   0  0  0  0  0  0  0  0  0  0  0  0
  139.4800   69.3220  225.3790 C   0  0  0  0  0  0  0  0  0  0  0  0
  139.9750   68.5570  226.4130 C   0  0  0  0  0  0  0  0  0  0  0  0
  140.7590   69.1370  227.4080 C   0  0  0  0  0  0  0  0  0  0  0  0
  141.3850   68.1440  228.7260 Cl  0  0  0  0  0  0  0  0  0  0  0  0
  141.0740   70.4810  227.4070 C   0  0  0  0  0  0  0  0  0  0  0  0
  140.5800   71.2440  226.3730 C   0  0  0  0  0  0  0  0  0  0  0  0
  139.8070   70.6680  225.3940 C   0  0  0  0  0  0  0  0  0  0  0  0
  139.3460   71.4300  224.4120 N   0  0  0  0  0  0  0  0  0  0  0  0
  143.3723   73.6999  221.5608 H   0  0  0  0  0  0  0  0  0  0  0  0
  142.6655   73.1346  220.0092 H   0  0  0  0  0  0  0  0  0  0  0  0
  144.1963   74.0745  220.0092 H   0  0  0  0  0  0  0  0  0  0  0  0
  143.2578   77.0750  220.0314 H   0  0  0  0  0  0  0  0  0  0  0  0
  143.6946   75.8045  218.8390 H   0  0  0  0  0  0  0  0  0  0  0  0
  142.0408   76.5058  218.8390 H   0  0  0  0  0  0  0  0  0  0  0  0
  140.6498   76.7009  220.0554 H   0  0  0  0  0  0  0  0  0  0  0  0
  141.2752   77.2653  223.0603 H   0  0  0  0  0  0  0  0  0  0  0  0
  142.0138   78.0907  221.7081 H   0  0  0  0  0  0  0  0  0  0  0  0
  139.6439   78.8727  223.1160 H   0  0  0  0  0  0  0  0  0  0  0  0
  140.2076   79.5843  221.5866 H   0  0  0  0  0  0  0  0  0  0  0  0
  137.8021   78.2093  221.8537 H   0  0  0  0  0  0  0  0  0  0  0  0
  138.5986   78.3285  220.3272 H   0  0  0  0  0  0  0  0  0  0  0  0
  137.2605   73.9528  220.9629 H   0  0  0  0  0  0  0  0  0  0  0  0
  138.9926   74.1972  220.5168 H   0  0  0  0  0  0  0  0  0  0  0  0
  139.3740   73.4840  223.0640 H   0  0  0  0  0  0  0  0  0  0  0  0
  137.6162   69.2775  222.5357 H   0  0  0  0  0  0  0  0  0  0  0  0
  138.4397   67.7536  224.3440 H   0  0  0  0  0  0  0  0  0  0  0  0
  139.7496   67.4811  226.4530 H   0  0  0  0  0  0  0  0  0  0  0  0
  141.6944   70.9242  228.1999 H   0  0  0  0  0  0  0  0  0  0  0  0
  140.8052   72.3199  226.3304 H   0  0  0  0  0  0  0  0  0  0  0  0
  1  2  1  0
  2  3  1  0
  2  4  1  0
  4  5  2  0
  4  6  1  0
  6  7  1  0
  7  8  1  0
  8  9  1  0
  9 10  1  0
 10 11  1  0
 11 12  2  0
 11 13  1  0
 13 14  1  0
 14 15  1  0
 15 16  2  0
 15 17  1  0
 17 18  2  0
 18 19  1  0
 19 20  2  0
 20 21  1  0
 21 22  2  0
 22 23  1  0
 22 24  1  0
 24 25  2  0
 25 26  1  0
 26 27  2  0
 10  6  1  0
 27 17  1  0
 26 20  1  0
  1 28  1  0
  1 29  1  0
  1 30  1  0
  3 31  1  0
  3 32  1  0
  3 33  1  0
  6 34  1  6
  7 35  1  0
  7 36  1  0
  8 37  1  0
  8 38  1  0
  9 39  1  0
  9 40  1  0
 13 41  1  0
 13 42  1  0
 14 43  1  0
 18 44  1  0
 19 45  1  0
 21 46  1  0
 24 47  1  0
 25 48  1  0
M  END
>  <smiles>  (35) 
CN(C)C(=O)[C@@H]1CCCN1C(=O)CNC(=O)c1ccc2cc(Cl)ccc2n1

>  <score_type>  (35) 
oracle

>  <origin>  (35) 
autodockgpu

>  <m_score__min__energy>  (35) 
-8.0600000000000005

>  <m_primary>  (35) 
energy

>  <rmsd>  (35) 
2.9217790626415443

>  <m_score__min__rmsd>  (35) 
2.9217790626415443

>  <meeko>  (35) 
{"free_energy": -7.26, "intermolecular_energy": -8.75, "internal_energy": -2.21, "cluster_size": 34, "cluster_id": 1, "rank_in_cluster": 23}

>  <energy>  (35) 
-7.05

>  <cluster_rmsd>  (35) 
0.0

>  <cluster>  (35) 
2

$$$$

     RDKit          3D

 48 50  0  0  0  0  0  0  0  0999 V2000
  142.8590   76.8140  218.4260 C   0  0  0  0  0  0  0  0  0  0  0  0
  142.1350   77.7610  219.2690 N   0  0  0  0  0  0  0  0  0  0  0  0
  141.8480   79.0750  218.7640 C   0  0  0  0  0  0  0  0  0  0  0  0
  141.7350   77.3130  220.5870 C   0  0  0  0  0  0  0  0  0  0  0  0
  142.0600   76.1320  220.8470 O   0  0  0  0  0  0  0  0  0  0  0  0
  141.0260   78.2510  221.4250 C   0  0  2  0  0  0  0  0  0  0  0  0
  141.8230   78.6800  222.6490 C   0  0  0  0  0  0  0  0  0  0  0  0
  140.7640   79.2990  223.5310 C   0  0  0  0  0  0  0  0  0  0  0  0
  139.4300   79.0270  222.8790 C   0  0  0  0  0  0  0  0  0  0  0  0
  139.8070   77.8490  222.0540 N   0  0  0  0  0  0  0  0  0  0  0  0
  139.0040   76.6930  222.0330 C   0  0  0  0  0  0  0  0  0  0  0  0
  137.8500   76.5860  222.5030 O   0  0  0  0  0  0  0  0  0  0  0  0
  139.5300   75.4240  221.3920 C   0  0  0  0  0  0  0  0  0  0  0  0
  139.5660   74.3560  222.3400 N   0  0  0  0  0  0  0  0  0  0  0  0
  139.9800   73.0400  221.9900 C   0  0  0  0  0  0  0  0  0  0  0  0
  140.3420   72.7370  220.8090 O   0  0  0  0  0  0  0  0  0  0  0  0
  139.9910   71.9910  223.0230 C   0  0  0  0  0  0  0  0  0  0  0  0
  139.5460   70.7320  222.7640 C   0  0  0  0  0  0  0  0  0  0  0  0
  139.5790   69.7720  223.7790 C   0  0  0  0  0  0  0  0  0  0  0  0
  140.0560   70.1050  225.0250 C   0  0  0  0  0  0  0  0  0  0  0  0
  140.1240   69.2230  226.0820 C   0  0  0  0  0  0  0  0  0  0  0  0
  140.6230   69.6350  227.3160 C   0  0  0  0  0  0  0  0  0  0  0  0
  140.7030   68.4930  228.6590 Cl  0  0  0  0  0  0  0  0  0  0  0  0
  141.0650   70.9240  227.5370 C   0  0  0  0  0  0  0  0  0  0  0  0
  140.9970   71.8050  226.4810 C   0  0  0  0  0  0  0  0  0  0  0  0
  140.5050   71.3940  225.2660 C   0  0  0  0  0  0  0  0  0  0  0  0
  140.4530   72.2650  224.2680 N   0  0  0  0  0  0  0  0  0  0  0  0
  143.4045   76.1005  219.0610 H   0  0  0  0  0  0  0  0  0  0  0  0
  142.1455   76.2685  217.7909 H   0  0  0  0  0  0  0  0  0  0  0  0
  143.5725   77.3595  217.7909 H   0  0  0  0  0  0  0  0  0  0  0  0
  141.6970   79.7665  219.6060 H   0  0  0  0  0  0  0  0  0  0  0  0
  142.6911   79.4239  218.1497 H   0  0  0  0  0  0  0  0  0  0  0  0
  140.9362   79.0406  218.1497 H   0  0  0  0  0  0  0  0  0  0  0  0
  140.8371   79.0087  220.6502 H   0  0  0  0  0  0  0  0  0  0  0  0
  142.2930   77.8151  223.1400 H   0  0  0  0  0  0  0  0  0  0  0  0
  142.6516   79.3643  222.4140 H   0  0  0  0  0  0  0  0  0  0  0  0
  140.7942   78.8450  224.5325 H   0  0  0  0  0  0  0  0  0  0  0  0
  140.9315   80.3802  223.6445 H   0  0  0  0  0  0  0  0  0  0  0  0
  138.6529   78.7810  223.6177 H   0  0  0  0  0  0  0  0  0  0  0  0
  138.9946   79.8715  222.3247 H   0  0  0  0  0  0  0  0  0  0  0  0
  138.8727   75.1426  220.5561 H   0  0  0  0  0  0  0  0  0  0  0  0
  140.5518   75.6088  221.0290 H   0  0  0  0  0  0  0  0  0  0  0  0
  139.2820   74.5120  223.3520 H   0  0  0  0  0  0  0  0  0  0  0  0
  139.1640   70.4721  221.7657 H   0  0  0  0  0  0  0  0  0  0  0  0
  139.2234   68.7500  223.5812 H   0  0  0  0  0  0  0  0  0  0  0  0
  139.7817   68.1859  225.9504 H   0  0  0  0  0  0  0  0  0  0  0  0
  141.4558   71.2348  228.5172 H   0  0  0  0  0  0  0  0  0  0  0  0
  141.3382   72.8427  226.6109 H   0  0  0  0  0  0  0  0  0  0  0  0
  1  2  1  0
  2  3  1  0
  2  4  1  0
  4  5  2  0
  4  6  1  0
  6  7  1  0
  7  8  1  0
  8  9  1  0
  9 10  1  0
 10 11  1  0
 11 12  2  0
 11 13  1  0
 13 14  1  0
 14 15  1  0
 15 16  2  0
 15 17  1  0
 17 18  2  0
 18 19  1  0
 19 20  2  0
 20 21  1  0
 21 22  2  0
 22 23  1  0
 22 24  1  0
 24 25  2  0
 25 26  1  0
 26 27  2  0
 10  6  1  0
 27 17  1  0
 26 20  1  0
  1 28  1  0
  1 29  1  0
  1 30  1  0
  3 31  1  0
  3 32  1  0
  3 33  1  0
  6 34  1  6
  7 35  1  0
  7 36  1  0
  8 37  1  0
  8 38  1  0
  9 39  1  0
  9 40  1  0
 13 41  1  0
 13 42  1  0
 14 43  1  0
 18 44  1  0
 19 45  1  0
 21 46  1  0
 24 47  1  0
 25 48  1  0
M  END
>  <smiles>  (36) 
CN(C)C(=O)[C@@H]1CCCN1C(=O)CNC(=O)c1ccc2cc(Cl)ccc2n1

>  <score_type>  (36) 
oracle

>  <origin>  (36) 
autodockgpu

>  <m_score__min__energy>  (36) 
-8.0600000000000005

>  <m_primary>  (36) 
energy

>  <rmsd>  (36) 
3.490877238224704

>  <m_score__min__rmsd>  (36) 
3.490877238224704

>  <meeko>  (36) 
{"free_energy": -7.57, "intermolecular_energy": -9.06, "internal_energy": -1.35, "cluster_size": 34, "cluster_id": 1, "rank_in_cluster": 12}

>  <energy>  (36) 
-6.98

>  <cluster_rmsd>  (36) 
0.33

>  <cluster>  (36) 
2

$$$$

     RDKit          3D

 48 50  0  0  0  0  0  0  0  0999 V2000
  140.0660   80.5620  223.6040 C   0  0  0  0  0  0  0  0  0  0  0  0
  140.9200   79.5910  222.9260 N   0  0  0  0  0  0  0  0  0  0  0  0
  141.8170   78.7800  223.7020 C   0  0  0  0  0  0  0  0  0  0  0  0
  140.8080   79.4940  221.4850 C   0  0  0  0  0  0  0  0  0  0  0  0
  139.9640   80.2700  220.9840 O   0  0  0  0  0  0  0  0  0  0  0  0
  141.6570   78.5400  220.8110 C   0  0  2  0  0  0  0  0  0  0  0  0
  141.6510   78.6980  219.2970 C   0  0  0  0  0  0  0  0  0  0  0  0
  142.2510   77.3930  218.8270 C   0  0  0  0  0  0  0  0  0  0  0  0
  142.3840   76.5060  220.0400 C   0  0  0  0  0  0  0  0  0  0  0  0
  141.3650   77.1450  220.9140 N   0  0  0  0  0  0  0  0  0  0  0  0
  140.4150   76.3690  221.6050 C   0  0  0  0  0  0  0  0  0  0  0  0
  139.8830   76.6550  222.7000 O   0  0  0  0  0  0  0  0  0  0  0  0
  139.9490   75.0510  221.0170 C   0  0  0  0  0  0  0  0  0  0  0  0
  139.8620   74.0480  222.0300 N   0  0  0  0  0  0  0  0  0  0  0  0
  140.1550   72.6800  221.7740 C   0  0  0  0  0  0  0  0  0  0  0  0
  140.5100   72.2680  220.6240 O   0  0  0  0  0  0  0  0  0  0  0  0
  140.0430   71.7030  222.8700 C   0  0  0  0  0  0  0  0  0  0  0  0
  139.4730   70.4820  222.6800 C   0  0  0  0  0  0  0  0  0  0  0  0
  139.3930   69.5900  223.7540 C   0  0  0  0  0  0  0  0  0  0  0  0
  139.8860   69.9510  224.9860 C   0  0  0  0  0  0  0  0  0  0  0  0
  139.8480   69.1360  226.0960 C   0  0  0  0  0  0  0  0  0  0  0  0
  140.3710   69.5730  227.3120 C   0  0  0  0  0  0  0  0  0  0  0  0
  140.3140   68.5170  228.7250 Cl  0  0  0  0  0  0  0  0  0  0  0  0
  140.9420   70.8210  227.4610 C   0  0  0  0  0  0  0  0  0  0  0  0
  140.9790   71.6350  226.3520 C   0  0  0  0  0  0  0  0  0  0  0  0
  140.4630   71.2000  225.1550 C   0  0  0  0  0  0  0  0  0  0  0  0
  140.5150   72.0070  224.1040 N   0  0  0  0  0  0  0  0  0  0  0  0
  140.1696   80.4442  224.6928 H   0  0  0  0  0  0  0  0  0  0  0  0
  140.3669   81.5798  223.3150 H   0  0  0  0  0  0  0  0  0  0  0  0
  139.0181   80.3935  223.3150 H   0  0  0  0  0  0  0  0  0  0  0  0
  141.6304   78.9487  224.7729 H   0  0  0  0  0  0  0  0  0  0  0  0
  141.6513   77.7190  223.4636 H   0  0  0  0  0  0  0  0  0  0  0  0
  142.8560   79.0514  223.4636 H   0  0  0  0  0  0  0  0  0  0  0  0
  142.5872   78.7874  221.3435 H   0  0  0  0  0  0  0  0  0  0  0  0
  140.6273   78.8247  218.9150 H   0  0  0  0  0  0  0  0  0  0  0  0
  142.2016   79.5838  218.9474 H   0  0  0  0  0  0  0  0  0  0  0  0
  141.5920   76.9203  218.0838 H   0  0  0  0  0  0  0  0  0  0  0  0
  143.2297   77.5592  218.3533 H   0  0  0  0  0  0  0  0  0  0  0  0
  142.1341   75.4589  219.8138 H   0  0  0  0  0  0  0  0  0  0  0  0
  143.3958   76.4394  220.4665 H   0  0  0  0  0  0  0  0  0  0  0  0
  138.9579   75.1898  220.5604 H   0  0  0  0  0  0  0  0  0  0  0  0
  140.6766   74.7254  220.2590 H   0  0  0  0  0  0  0  0  0  0  0  0
  139.5740   74.2950  223.0220 H   0  0  0  0  0  0  0  0  0  0  0  0
  139.0795   70.1998  221.6923 H   0  0  0  0  0  0  0  0  0  0  0  0
  138.9357   68.5995  223.6134 H   0  0  0  0  0  0  0  0  0  0  0  0
  139.4018   68.1333  226.0222 H   0  0  0  0  0  0  0  0  0  0  0  0
  141.3509   71.1515  228.4272 H   0  0  0  0  0  0  0  0  0  0  0  0
  141.4237   72.6385  226.4241 H   0  0  0  0  0  0  0  0  0  0  0  0
  1  2  1  0
  2  3  1  0
  2  4  1  0
  4  5  2  0
  4  6  1  0
  6  7  1  0
  7  8  1  0
  8  9  1  0
  9 10  1  0
 10 11  1  0
 11 12  2  0
 11 13  1  0
 13 14  1  0
 14 15  1  0
 15 16  2  0
 15 17  1  0
 17 18  2  0
 18 19  1  0
 19 20  2  0
 20 21  1  0
 21 22  2  0
 22 23  1  0
 22 24  1  0
 24 25  2  0
 25 26  1  0
 26 27  2  0
 10  6  1  0
 27 17  1  0
 26 20  1  0
  1 28  1  0
  1 29  1  0
  1 30  1  0
  3 31  1  0
  3 32  1  0
  3 33  1  0
  6 34  1  1
  7 35  1  0
  7 36  1  0
  8 37  1  0
  8 38  1  0
  9 39  1  0
  9 40  1  0
 13 41  1  0
 13 42  1  0
 14 43  1  0
 18 44  1  0
 19 45  1  0
 21 46  1  0
 24 47  1  0
 25 48  1  0
M  END
>  <smiles>  (37) 
CN(C)C(=O)[C@@H]1CCCN1C(=O)CNC(=O)c1ccc2cc(Cl)ccc2n1

>  <score_type>  (37) 
oracle

>  <origin>  (37) 
autodockgpu

>  <m_score__min__energy>  (37) 
-8.0600000000000005

>  <m_primary>  (37) 
energy

>  <rmsd>  (37) 
2.1297733732727657

>  <m_score__min__rmsd>  (37) 
2.1297733732727657

>  <meeko>  (37) 
{"free_energy": -7.54, "intermolecular_energy": -9.03, "internal_energy": -1.79, "cluster_size": 34, "cluster_id": 1, "rank_in_cluster": 14}

>  <energy>  (37) 
-6.89

>  <cluster_rmsd>  (37) 
0.34

>  <cluster>  (37) 
2

$$$$

     RDKit          3D

 48 50  0  0  0  0  0  0  0  0999 V2000
  140.5630   80.7640  223.3900 C   0  0  0  0  0  0  0  0  0  0  0  0
  141.2030   79.5440  222.9070 N   0  0  0  0  0  0  0  0  0  0  0  0
  141.8150   78.6500  223.8510 C   0  0  0  0  0  0  0  0  0  0  0  0
  141.1810   79.2970  221.4800 C   0  0  0  0  0  0  0  0  0  0  0  0
  140.5910   80.1800  220.8170 O   0  0  0  0  0  0  0  0  0  0  0  0
  141.8210   78.0950  220.9990 C   0  0  2  0  0  0  0  0  0  0  0  0
  142.0930   78.1200  219.5010 C   0  0  0  0  0  0  0  0  0  0  0  0
  142.3670   76.6670  219.1930 C   0  0  0  0  0  0  0  0  0  0  0  0
  142.0570   75.8830  220.4440 C   0  0  0  0  0  0  0  0  0  0  0  0
  141.1360   76.8450  221.1040 N   0  0  0  0  0  0  0  0  0  0  0  0
  139.9120   76.4180  221.6520 C   0  0  0  0  0  0  0  0  0  0  0  0
  139.2670   76.9900  222.5570 O   0  0  0  0  0  0  0  0  0  0  0  0
  139.2610   75.1480  221.1360 C   0  0  0  0  0  0  0  0  0  0  0  0
  139.3260   74.1130  222.1190 N   0  0  0  0  0  0  0  0  0  0  0  0
  139.9150   72.8460  221.8510 C   0  0  0  0  0  0  0  0  0  0  0  0
  140.4180   72.5600  220.7180 O   0  0  0  0  0  0  0  0  0  0  0  0
  139.9450   71.8270  222.9140 C   0  0  0  0  0  0  0  0  0  0  0  0
  139.5150   70.5550  222.6940 C   0  0  0  0  0  0  0  0  0  0  0  0
  139.5660   69.6260  223.7370 C   0  0  0  0  0  0  0  0  0  0  0  0
  140.0450   70.0020  224.9700 C   0  0  0  0  0  0  0  0  0  0  0  0
  140.1300   69.1520  226.0520 C   0  0  0  0  0  0  0  0  0  0  0  0
  140.6290   69.6080  227.2710 C   0  0  0  0  0  0  0  0  0  0  0  0
  140.7310   68.5070  228.6460 Cl  0  0  0  0  0  0  0  0  0  0  0  0
  141.0560   70.9080  227.4510 C   0  0  0  0  0  0  0  0  0  0  0  0
  140.9710   71.7560  226.3700 C   0  0  0  0  0  0  0  0  0  0  0  0
  140.4780   71.3030  225.1710 C   0  0  0  0  0  0  0  0  0  0  0  0
  140.4100   72.1440  224.1480 N   0  0  0  0  0  0  0  0  0  0  0  0
  140.5617   80.7666  224.4900 H   0  0  0  0  0  0  0  0  0  0  0  0
  141.1179   81.6396  223.0220 H   0  0  0  0  0  0  0  0  0  0  0  0
  139.5272   80.8051  223.0220 H   0  0  0  0  0  0  0  0  0  0  0  0
  141.5863   78.9841  224.8738 H   0  0  0  0  0  0  0  0  0  0  0  0
  141.4225   77.6334  223.7009 H   0  0  0  0  0  0  0  0  0  0  0  0
  142.9047   78.6481  223.7009 H   0  0  0  0  0  0  0  0  0  0  0  0
  142.6897   78.1252  221.6732 H   0  0  0  0  0  0  0  0  0  0  0  0
  141.2177   78.4859  218.9443 H   0  0  0  0  0  0  0  0  0  0  0  0
  142.9169   78.7910  219.2166 H   0  0  0  0  0  0  0  0  0  0  0  0
  141.7246   76.3287  218.3666 H   0  0  0  0  0  0  0  0  0  0  0  0
  143.4141   76.5216  218.8889 H   0  0  0  0  0  0  0  0  0  0  0  0
  141.5616   74.9271  220.2187 H   0  0  0  0  0  0  0  0  0  0  0  0
  142.9309   75.5819  221.0404 H   0  0  0  0  0  0  0  0  0  0  0  0
  138.2071   75.3536  220.8970 H   0  0  0  0  0  0  0  0  0  0  0  0
  139.7981   74.8154  220.2355 H   0  0  0  0  0  0  0  0  0  0  0  0
  138.9320   74.2580  223.0950 H   0  0  0  0  0  0  0  0  0  0  0  0
  139.1313   70.2610  221.7059 H   0  0  0  0  0  0  0  0  0  0  0  0
  139.2230   68.5940  223.5716 H   0  0  0  0  0  0  0  0  0  0  0  0
  139.8018   68.1068  225.9527 H   0  0  0  0  0  0  0  0  0  0  0  0
  141.4484   71.2526  228.4191 H   0  0  0  0  0  0  0  0  0  0  0  0
  141.2995   72.8013  226.4670 H   0  0  0  0  0  0  0  0  0  0  0  0
  1  2  1  0
  2  3  1  0
  2  4  1  0
  4  5  2  0
  4  6  1  0
  6  7  1  0
  7  8  1  0
  8  9  1  0
  9 10  1  0
 10 11  1  0
 11 12  2  0
 11 13  1  0
 13 14  1  0
 14 15  1  0
 15 16  2  0
 15 17  1  0
 17 18  2  0
 18 19  1  0
 19 20  2  0
 20 21  1  0
 21 22  2  0
 22 23  1  0
 22 24  1  0
 24 25  2  0
 25 26  1  0
 26 27  2  0
 10  6  1  0
 27 17  1  0
 26 20  1  0
  1 28  1  0
  1 29  1  0
  1 30  1  0
  3 31  1  0
  3 32  1  0
  3 33  1  0
  6 34  1  1
  7 35  1  0
  7 36  1  0
  8 37  1  0
  8 38  1  0
  9 39  1  0
  9 40  1  0
 13 41  1  0
 13 42  1  0
 14 43  1  0
 18 44  1  0
 19 45  1  0
 21 46  1  0
 24 47  1  0
 25 48  1  0
M  END
>  <smiles>  (38) 
CN(C)C(=O)[C@@H]1CCCN1C(=O)CNC(=O)c1ccc2cc(Cl)ccc2n1

>  <score_type>  (38) 
oracle

>  <origin>  (38) 
autodockgpu

>  <m_score__min__energy>  (38) 
-8.0600000000000005

>  <m_primary>  (38) 
energy

>  <rmsd>  (38) 
2.0371598783770635

>  <m_score__min__rmsd>  (38) 
2.0371598783770635

>  <meeko>  (38) 
{"free_energy": -7.66, "intermolecular_energy": -9.15, "internal_energy": -1.57, "cluster_size": 34, "cluster_id": 1, "rank_in_cluster": 7}

>  <energy>  (38) 
-6.85

>  <cluster_rmsd>  (38) 
0.36

>  <cluster>  (38) 
2

$$$$

     RDKit          3D

 48 50  0  0  0  0  0  0  0  0999 V2000
  143.2710   80.4980  223.4820 C   0  0  0  0  0  0  0  0  0  0  0  0
  141.9670   80.3280  222.8470 N   0  0  0  0  0  0  0  0  0  0  0  0
  141.4600   81.3650  221.9930 C   0  0  0  0  0  0  0  0  0  0  0  0
  141.2490   79.0990  223.1150 C   0  0  0  0  0  0  0  0  0  0  0  0
  141.8550   78.3070  223.8730 O   0  0  0  0  0  0  0  0  0  0  0  0
  139.9560   78.9320  222.4950 C   0  0  2  0  0  0  0  0  0  0  0  0
  138.7970   79.1810  223.4510 C   0  0  0  0  0  0  0  0  0  0  0  0
  137.6270   78.5690  222.7180 C   0  0  0  0  0  0  0  0  0  0  0  0
  138.1860   77.8520  221.5140 C   0  0  0  0  0  0  0  0  0  0  0  0
  139.5820   77.6500  221.9850 N   0  0  0  0  0  0  0  0  0  0  0  0
  140.2140   76.3990  221.8610 C   0  0  0  0  0  0  0  0  0  0  0  0
  141.3970   76.1350  222.1690 O   0  0  0  0  0  0  0  0  0  0  0  0
  139.4410   75.2170  221.3090 C   0  0  0  0  0  0  0  0  0  0  0  0
  139.4160   74.1440  222.2520 N   0  0  0  0  0  0  0  0  0  0  0  0
  140.2530   73.0010  222.1260 C   0  0  0  0  0  0  0  0  0  0  0  0
  141.0730   72.8660  221.1630 O   0  0  0  0  0  0  0  0  0  0  0  0
  140.1710   71.9350  223.1380 C   0  0  0  0  0  0  0  0  0  0  0  0
  139.6390   70.7170  222.8480 C   0  0  0  0  0  0  0  0  0  0  0  0
  139.5860   69.7380  223.8450 C   0  0  0  0  0  0  0  0  0  0  0  0
  140.0670   70.0120  225.1040 C   0  0  0  0  0  0  0  0  0  0  0  0
  140.0540   69.1080  226.1430 C   0  0  0  0  0  0  0  0  0  0  0  0
  140.5620   69.4600  227.3930 C   0  0  0  0  0  0  0  0  0  0  0  0
  140.5370   68.2900  228.7140 Cl  0  0  0  0  0  0  0  0  0  0  0  0
  141.0940   70.7090  227.6450 C   0  0  0  0  0  0  0  0  0  0  0  0
  141.1070   71.6110  226.6060 C   0  0  0  0  0  0  0  0  0  0  0  0
  140.6050   71.2600  225.3760 C   0  0  0  0  0  0  0  0  0  0  0  0
  140.6330   72.1510  224.3950 N   0  0  0  0  0  0  0  0  0  0  0  0
  143.1512   80.4824  224.5753 H   0  0  0  0  0  0  0  0  0  0  0  0
  143.9381   79.6792  223.1745 H   0  0  0  0  0  0  0  0  0  0  0  0
  143.7059   81.4604  223.1745 H   0  0  0  0  0  0  0  0  0  0  0  0
  141.0596   82.1839  222.6086 H   0  0  0  0  0  0  0  0  0  0  0  0
  142.2729   81.7472  221.3581 H   0  0  0  0  0  0  0  0  0  0  0  0
  140.6591   80.9583  221.3581 H   0  0  0  0  0  0  0  0  0  0  0  0
  140.1043   79.6529  221.6775 H   0  0  0  0  0  0  0  0  0  0  0  0
  138.9651   78.6823  224.4170 H   0  0  0  0  0  0  0  0  0  0  0  0
  138.6524   80.2437  223.6953 H   0  0  0  0  0  0  0  0  0  0  0  0
  137.1025   77.8567  223.3719 H   0  0  0  0  0  0  0  0  0  0  0  0
  136.9064   79.3426  222.4142 H   0  0  0  0  0  0  0  0  0  0  0  0
  137.6721   76.8974  221.3280 H   0  0  0  0  0  0  0  0  0  0  0  0
  138.0839   78.3862  220.5579 H   0  0  0  0  0  0  0  0  0  0  0  0
  138.4093   75.5303  221.0914 H   0  0  0  0  0  0  0  0  0  0  0  0
  139.9363   74.8687  220.3907 H   0  0  0  0  0  0  0  0  0  0  0  0
  138.7630   74.1660  223.0900 H   0  0  0  0  0  0  0  0  0  0  0  0
  139.2545   70.5045  221.8396 H   0  0  0  0  0  0  0  0  0  0  0  0
  139.1596   68.7487  223.6224 H   0  0  0  0  0  0  0  0  0  0  0  0
  139.6399   68.1011  225.9856 H   0  0  0  0  0  0  0  0  0  0  0  0
  141.4914   70.9723  228.6363 H   0  0  0  0  0  0  0  0  0  0  0  0
  141.5213   72.6181  226.7608 H   0  0  0  0  0  0  0  0  0  0  0  0
  1  2  1  0
  2  3  1  0
  2  4  1  0
  4  5  2  0
  4  6  1  0
  6  7  1  0
  7  8  1  0
  8  9  1  0
  9 10  1  0
 10 11  1  0
 11 12  2  0
 11 13  1  0
 13 14  1  0
 14 15  1  0
 15 16  2  0
 15 17  1  0
 17 18  2  0
 18 19  1  0
 19 20  2  0
 20 21  1  0
 21 22  2  0
 22 23  1  0
 22 24  1  0
 24 25  2  0
 25 26  1  0
 26 27  2  0
 10  6  1  0
 27 17  1  0
 26 20  1  0
  1 28  1  0
  1 29  1  0
  1 30  1  0
  3 31  1  0
  3 32  1  0
  3 33  1  0
  6 34  1  6
  7 35  1  0
  7 36  1  0
  8 37  1  0
  8 38  1  0
  9 39  1  0
  9 40  1  0
 13 41  1  0
 13 42  1  0
 14 43  1  0
 18 44  1  0
 19 45  1  0
 21 46  1  0
 24 47  1  0
 25 48  1  0
M  END
>  <smiles>  (39) 
CN(C)C(=O)[C@@H]1CCCN1C(=O)CNC(=O)c1ccc2cc(Cl)ccc2n1

>  <score_type>  (39) 
oracle

>  <origin>  (39) 
autodockgpu

>  <m_score__min__energy>  (39) 
-8.0600000000000005

>  <m_primary>  (39) 
energy

>  <rmsd>  (39) 
3.236483643258506

>  <m_score__min__rmsd>  (39) 
3.236483643258506

>  <meeko>  (39) 
{"free_energy": -8.06, "intermolecular_energy": -9.55, "internal_energy": -1.23, "cluster_size": 34, "cluster_id": 1, "rank_in_cluster": 1}

>  <energy>  (39) 
-6.78

>  <cluster_rmsd>  (39) 
1.44

>  <cluster>  (39) 
2

$$$$

     RDKit          3D

 48 50  0  0  0  0  0  0  0  0999 V2000
  142.6860   73.2300  220.5690 C   0  0  0  0  0  0  0  0  0  0  0  0
  142.1280   74.5780  220.5100 N   0  0  0  0  0  0  0  0  0  0  0  0
  142.5630   75.4760  219.4760 C   0  0  0  0  0  0  0  0  0  0  0  0
  141.1450   74.9390  221.5120 C   0  0  0  0  0  0  0  0  0  0  0  0
  140.8810   74.0230  222.3230 O   0  0  0  0  0  0  0  0  0  0  0  0
  140.5980   76.2750  221.4610 C   0  0  2  0  0  0  0  0  0  0  0  0
  140.8630   77.0780  222.7270 C   0  0  0  0  0  0  0  0  0  0  0  0
  139.8860   78.2240  222.6000 C   0  0  0  0  0  0  0  0  0  0  0  0
  139.0070   77.9250  221.4100 C   0  0  0  0  0  0  0  0  0  0  0  0
  139.1840   76.4500  221.3490 N   0  0  0  0  0  0  0  0  0  0  0  0
  138.0780   75.5920  221.2060 C   0  0  0  0  0  0  0  0  0  0  0  0
  136.8840   75.8810  221.4390 O   0  0  0  0  0  0  0  0  0  0  0  0
  138.2870   74.1690  220.7250 C   0  0  0  0  0  0  0  0  0  0  0  0
  138.5610   73.3000  221.8250 N   0  0  0  0  0  0  0  0  0  0  0  0
  138.5250   71.8830  221.7030 C   0  0  0  0  0  0  0  0  0  0  0  0
  138.2440   71.3060  220.6040 O   0  0  0  0  0  0  0  0  0  0  0  0
  138.8190   71.0510  222.8820 C   0  0  0  0  0  0  0  0  0  0  0  0
  138.3250   69.7900  223.0050 C   0  0  0  0  0  0  0  0  0  0  0  0
  138.6360   69.0410  224.1440 C   0  0  0  0  0  0  0  0  0  0  0  0
  139.4320   69.5820  225.1260 C   0  0  0  0  0  0  0  0  0  0  0  0
  139.7870   68.9160  226.2790 C   0  0  0  0  0  0  0  0  0  0  0  0
  140.6000   69.5320  227.2290 C   0  0  0  0  0  0  0  0  0  0  0  0
  141.0460   68.6650  228.7000 Cl  0  0  0  0  0  0  0  0  0  0  0  0
  141.0820   70.8150  227.0640 C   0  0  0  0  0  0  0  0  0  0  0  0
  140.7260   71.4800  225.9120 C   0  0  0  0  0  0  0  0  0  0  0  0
  139.9250   70.8690  224.9780 C   0  0  0  0  0  0  0  0  0  0  0  0
  139.6010   71.5350  223.8790 N   0  0  0  0  0  0  0  0  0  0  0  0
  142.8101   72.9302  221.6201 H   0  0  0  0  0  0  0  0  0  0  0  0
  142.0043   72.5286  220.0657 H   0  0  0  0  0  0  0  0  0  0  0  0
  143.6640   73.2156  220.0657 H   0  0  0  0  0  0  0  0  0  0  0  0
  142.9993   76.3768  219.9323 H   0  0  0  0  0  0  0  0  0  0  0  0
  143.3196   74.9778  218.8521 H   0  0  0  0  0  0  0  0  0  0  0  0
  141.7030   75.7609  218.8521 H   0  0  0  0  0  0  0  0  0  0  0  0
  141.1077   76.5960  220.5406 H   0  0  0  0  0  0  0  0  0  0  0  0
  140.6585   76.4796  223.6271 H   0  0  0  0  0  0  0  0  0  0  0  0
  141.9089   77.4034  222.8282 H   0  0  0  0  0  0  0  0  0  0  0  0
  139.2746   78.3019  223.5111 H   0  0  0  0  0  0  0  0  0  0  0  0
  140.4160   79.1786  222.4664 H   0  0  0  0  0  0  0  0  0  0  0  0
  137.9592   78.2068  221.5910 H   0  0  0  0  0  0  0  0  0  0  0  0
  139.2609   78.4687  220.4881 H   0  0  0  0  0  0  0  0  0  0  0  0
  137.3779   73.8245  220.2103 H   0  0  0  0  0  0  0  0  0  0  0  0
  139.1451   74.1504  220.0370 H   0  0  0  0  0  0  0  0  0  0  0  0
  138.8060   73.6880  222.7840 H   0  0  0  0  0  0  0  0  0  0  0  0
  137.6873   69.3636  222.2166 H   0  0  0  0  0  0  0  0  0  0  0  0
  138.2440   68.0192  224.2544 H   0  0  0  0  0  0  0  0  0  0  0  0
  139.4263   67.8911  226.4509 H   0  0  0  0  0  0  0  0  0  0  0  0
  141.7244   71.2870  227.8220 H   0  0  0  0  0  0  0  0  0  0  0  0
  141.0847   72.5054  225.7388 H   0  0  0  0  0  0  0  0  0  0  0  0
  1  2  1  0
  2  3  1  0
  2  4  1  0
  4  5  2  0
  4  6  1  0
  6  7  1  0
  7  8  1  0
  8  9  1  0
  9 10  1  0
 10 11  1  0
 11 12  2  0
 11 13  1  0
 13 14  1  0
 14 15  1  0
 15 16  2  0
 15 17  1  0
 17 18  2  0
 18 19  1  0
 19 20  2  0
 20 21  1  0
 21 22  2  0
 22 23  1  0
 22 24  1  0
 24 25  2  0
 25 26  1  0
 26 27  2  0
 10  6  1  0
 27 17  1  0
 26 20  1  0
  1 28  1  0
  1 29  1  0
  1 30  1  0
  3 31  1  0
  3 32  1  0
  3 33  1  0
  6 34  1  6
  7 35  1  0
  7 36  1  0
  8 37  1  0
  8 38  1  0
  9 39  1  0
  9 40  1  0
 13 41  1  0
 13 42  1  0
 14 43  1  0
 18 44  1  0
 19 45  1  0
 21 46  1  0
 24 47  1  0
 25 48  1  0
M  END
>  <smiles>  (40) 
CN(C)C(=O)[C@@H]1CCCN1C(=O)CNC(=O)c1ccc2cc(Cl)ccc2n1

>  <score_type>  (40) 
oracle

>  <origin>  (40) 
autodockgpu

>  <m_score__min__energy>  (40) 
-8.0600000000000005

>  <m_primary>  (40) 
energy

>  <rmsd>  (40) 
3.11430786897111

>  <m_score__min__rmsd>  (40) 
3.11430786897111

>  <meeko>  (40) 
{"free_energy": -6.95, "intermolecular_energy": -8.44, "internal_energy": -2.26, "cluster_size": 34, "cluster_id": 1, "rank_in_cluster": 28}

>  <energy>  (40) 
-6.41

>  <cluster_rmsd>  (40) 
1.4

>  <cluster>  (40) 
2

$$$$

     RDKit          3D

 48 50  0  0  0  0  0  0  0  0999 V2000
  140.6870   80.8460  223.4710 C   0  0  0  0  0  0  0  0  0  0  0  0
  141.4880   80.1080  222.4980 N   0  0  0  0  0  0  0  0  0  0  0  0
  142.8830   79.8870  222.7590 C   0  0  0  0  0  0  0  0  0  0  0  0
  140.8170   79.6260  221.3080 C   0  0  0  0  0  0  0  0  0  0  0  0
  139.5970   79.9030  221.2600 O   0  0  0  0  0  0  0  0  0  0  0  0
  141.6100   78.9030  220.3410 C   0  0  2  0  0  0  0  0  0  0  0  0
  141.1070   79.0670  218.9130 C   0  0  0  0  0  0  0  0  0  0  0  0
  141.8090   77.9430  218.1860 C   0  0  0  0  0  0  0  0  0  0  0  0
  142.4980   77.1020  219.2330 C   0  0  0  0  0  0  0  0  0  0  0  0
  141.6790   77.4780  220.4150 N   0  0  0  0  0  0  0  0  0  0  0  0
  141.1810   76.4960  221.2920 C   0  0  0  0  0  0  0  0  0  0  0  0
  141.1840   76.5510  222.5420 O   0  0  0  0  0  0  0  0  0  0  0  0
  140.5700   75.2270  220.7310 C   0  0  0  0  0  0  0  0  0  0  0  0
  140.4790   74.2200  221.7410 N   0  0  0  0  0  0  0  0  0  0  0  0
  139.8810   72.9520  221.4990 C   0  0  0  0  0  0  0  0  0  0  0  0
  139.3900   72.6400  220.3670 O   0  0  0  0  0  0  0  0  0  0  0  0
  139.8240   71.9640  222.5890 C   0  0  0  0  0  0  0  0  0  0  0  0
  139.2020   70.7650  222.4320 C   0  0  0  0  0  0  0  0  0  0  0  0
  139.1770   69.8610  223.4990 C   0  0  0  0  0  0  0  0  0  0  0  0
  139.7760   70.1900  224.6920 C   0  0  0  0  0  0  0  0  0  0  0  0
  139.7990   69.3620  225.7930 C   0  0  0  0  0  0  0  0  0  0  0  0
  140.4280   69.7660  226.9690 C   0  0  0  0  0  0  0  0  0  0  0  0
  140.4480   68.6930  228.3700 Cl  0  0  0  0  0  0  0  0  0  0  0  0
  141.0490   70.9940  227.0860 C   0  0  0  0  0  0  0  0  0  0  0  0
  141.0260   71.8210  225.9860 C   0  0  0  0  0  0  0  0  0  0  0  0
  140.4040   71.4180  224.8290 C   0  0  0  0  0  0  0  0  0  0  0  0
  140.4000   72.2370  223.7870 N   0  0  0  0  0  0  0  0  0  0  0  0
  140.9940   80.5631  224.4887 H   0  0  0  0  0  0  0  0  0  0  0  0
  140.8404   81.9259  223.3286 H   0  0  0  0  0  0  0  0  0  0  0  0
  139.6233   80.6048  223.3286 H   0  0  0  0  0  0  0  0  0  0  0  0
  143.0530   79.8601  223.8455 H   0  0  0  0  0  0  0  0  0  0  0  0
  143.1917   78.9288  222.3157 H   0  0  0  0  0  0  0  0  0  0  0  0
  143.4727   80.7029  222.3157 H   0  0  0  0  0  0  0  0  0  0  0  0
  142.5795   79.3572  220.5936 H   0  0  0  0  0  0  0  0  0  0  0  0
  140.0142   78.9523  218.8611 H   0  0  0  0  0  0  0  0  0  0  0  0
  141.3135   80.0601  218.4874 H   0  0  0  0  0  0  0  0  0  0  0  0
  141.0770   77.3346  217.6346 H   0  0  0  0  0  0  0  0  0  0  0  0
  142.5349   78.3382  217.4602 H   0  0  0  0  0  0  0  0  0  0  0  0
  142.4287   76.0273  219.0090 H   0  0  0  0  0  0  0  0  0  0  0  0
  143.5801   77.2707  219.3362 H   0  0  0  0  0  0  0  0  0  0  0  0
  139.5619   75.4492  220.3509 H   0  0  0  0  0  0  0  0  0  0  0  0
  141.2114   74.8554  219.9183 H   0  0  0  0  0  0  0  0  0  0  0  0
  140.8600   74.3880  222.7180 H   0  0  0  0  0  0  0  0  0  0  0  0
  138.7233   70.5086  221.4754 H   0  0  0  0  0  0  0  0  0  0  0  0
  138.6784   68.8873  223.3837 H   0  0  0  0  0  0  0  0  0  0  0  0
  139.3171   68.3744  225.7433 H   0  0  0  0  0  0  0  0  0  0  0  0
  141.5422   71.2989  228.0208 H   0  0  0  0  0  0  0  0  0  0  0  0
  141.5076   72.8088  226.0333 H   0  0  0  0  0  0  0  0  0  0  0  0
  1  2  1  0
  2  3  1  0
  2  4  1  0
  4  5  2  0
  4  6  1  0
  6  7  1  0
  7  8  1  0
  8  9  1  0
  9 10  1  0
 10 11  1  0
 11 12  2  0
 11 13  1  0
 13 14  1  0
 14 15  1  0
 15 16  2  0
 15 17  1  0
 17 18  2  0
 18 19  1  0
 19 20  2  0
 20 21  1  0
 21 22  2  0
 22 23  1  0
 22 24  1  0
 24 25  2  0
 25 26  1  0
 26 27  2  0
 10  6  1  0
 27 17  1  0
 26 20  1  0
  1 28  1  0
  1 29  1  0
  1 30  1  0
  3 31  1  0
  3 32  1  0
  3 33  1  0
  6 34  1  6
  7 35  1  0
  7 36  1  0
  8 37  1  0
  8 38  1  0
  9 39  1  0
  9 40  1  0
 13 41  1  0
 13 42  1  0
 14 43  1  0
 18 44  1  0
 19 45  1  0
 21 46  1  0
 24 47  1  0
 25 48  1  0
M  END
>  <smiles>  (41) 
CN(C)C(=O)[C@@H]1CCCN1C(=O)CNC(=O)c1ccc2cc(Cl)ccc2n1

>  <score_type>  (41) 
oracle

>  <origin>  (41) 
autodockgpu

>  <m_score__min__energy>  (41) 
-8.0600000000000005

>  <m_primary>  (41) 
energy

>  <rmsd>  (41) 
2.3278208416236637

>  <m_score__min__rmsd>  (41) 
2.3278208416236637

>  <meeko>  (41) 
{"free_energy": -6.62, "intermolecular_energy": -8.12, "internal_energy": -2.18, "cluster_size": 34, "cluster_id": 1, "rank_in_cluster": 34}

>  <energy>  (41) 
-6.4

>  <cluster_rmsd>  (41) 
1.99

>  <cluster>  (41) 
2

$$$$

     RDKit          3D

 48 50  0  0  0  0  0  0  0  0999 V2000
  140.9540   79.3440  223.8490 C   0  0  0  0  0  0  0  0  0  0  0  0
  141.6330   79.2180  222.5620 N   0  0  0  0  0  0  0  0  0  0  0  0
  142.4960   80.2760  222.1150 C   0  0  0  0  0  0  0  0  0  0  0  0
  141.3980   78.0100  221.7970 C   0  0  0  0  0  0  0  0  0  0  0  0
  140.6270   77.1950  222.3520 O   0  0  0  0  0  0  0  0  0  0  0  0
  142.0620   77.8880  220.5210 C   0  0  2  0  0  0  0  0  0  0  0  0
  141.2300   78.4190  219.3610 C   0  0  0  0  0  0  0  0  0  0  0  0
  141.9270   77.8270  218.1580 C   0  0  0  0  0  0  0  0  0  0  0  0
  142.9660   76.8640  218.6780 C   0  0  0  0  0  0  0  0  0  0  0  0
  142.3830   76.5890  220.0180 N   0  0  0  0  0  0  0  0  0  0  0  0
  142.2680   75.2720  220.5020 C   0  0  0  0  0  0  0  0  0  0  0  0
  143.2100   74.5250  220.8440 O   0  0  0  0  0  0  0  0  0  0  0  0
  140.8960   74.6420  220.6450 C   0  0  0  0  0  0  0  0  0  0  0  0
  140.9110   73.6180  221.6410 N   0  0  0  0  0  0  0  0  0  0  0  0
  139.7340   72.9270  222.0400 C   0  0  0  0  0  0  0  0  0  0  0  0
  138.5950   73.1820  221.5340 O   0  0  0  0  0  0  0  0  0  0  0  0
  139.8290   71.8820  223.0730 C   0  0  0  0  0  0  0  0  0  0  0  0
  139.4340   70.6020  222.8310 C   0  0  0  0  0  0  0  0  0  0  0  0
  139.5470   69.6480  223.8460 C   0  0  0  0  0  0  0  0  0  0  0  0
  140.0500   70.0070  225.0750 C   0  0  0  0  0  0  0  0  0  0  0  0
  140.1950   69.1320  226.1290 C   0  0  0  0  0  0  0  0  0  0  0  0
  140.7140   69.5710  227.3460 C   0  0  0  0  0  0  0  0  0  0  0  0
  140.8930   68.4380  228.6870 Cl  0  0  0  0  0  0  0  0  0  0  0  0
  141.1030   70.8800  227.5500 C   0  0  0  0  0  0  0  0  0  0  0  0
  140.9580   71.7530  226.4960 C   0  0  0  0  0  0  0  0  0  0  0  0
  140.4450   71.3160  225.2980 C   0  0  0  0  0  0  0  0  0  0  0  0
  140.3190   72.1810  224.3020 N   0  0  0  0  0  0  0  0  0  0  0  0
  141.6820   79.2089  224.6624 H   0  0  0  0  0  0  0  0  0  0  0  0
  140.4982   80.3421  223.9269 H   0  0  0  0  0  0  0  0  0  0  0  0
  140.1704   78.5759  223.9269 H   0  0  0  0  0  0  0  0  0  0  0  0
  142.9202   80.7961  222.9865 H   0  0  0  0  0  0  0  0  0  0  0  0
  143.3103   79.8533  221.5081 H   0  0  0  0  0  0  0  0  0  0  0  0
  141.9183   80.9887  221.5081 H   0  0  0  0  0  0  0  0  0  0  0  0
  142.9735   78.4426  220.7887 H   0  0  0  0  0  0  0  0  0  0  0  0
  140.1885   78.0715  219.4275 H   0  0  0  0  0  0  0  0  0  0  0  0
  141.1670   79.5169  219.3340 H   0  0  0  0  0  0  0  0  0  0  0  0
  141.2015   77.2944  217.5256 H   0  0  0  0  0  0  0  0  0  0  0  0
  142.3931   78.6148  217.5480 H   0  0  0  0  0  0  0  0  0  0  0  0
  143.0299   75.9548  218.0621 H   0  0  0  0  0  0  0  0  0  0  0  0
  143.9993   77.2412  218.6814 H   0  0  0  0  0  0  0  0  0  0  0  0
  140.1714   75.4171  220.9351 H   0  0  0  0  0  0  0  0  0  0  0  0
  140.6109   74.1938  219.6818 H   0  0  0  0  0  0  0  0  0  0  0  0
  141.8160   73.3340  222.1210 H   0  0  0  0  0  0  0  0  0  0  0  0
  139.0302   70.3215  221.8470 H   0  0  0  0  0  0  0  0  0  0  0  0
  139.2336   68.6097  223.6621 H   0  0  0  0  0  0  0  0  0  0  0  0
  139.8991   68.0793  226.0094 H   0  0  0  0  0  0  0  0  0  0  0  0
  141.5122   71.2116  228.5157 H   0  0  0  0  0  0  0  0  0  0  0  0
  141.2542   72.8059  226.6129 H   0  0  0  0  0  0  0  0  0  0  0  0
  1  2  1  0
  2  3  1  0
  2  4  1  0
  4  5  2  0
  4  6  1  0
  6  7  1  0
  7  8  1  0
  8  9  1  0
  9 10  1  0
 10 11  1  0
 11 12  2  0
 11 13  1  0
 13 14  1  0
 14 15  1  0
 15 16  2  0
 15 17  1  0
 17 18  2  0
 18 19  1  0
 19 20  2  0
 20 21  1  0
 21 22  2  0
 22 23  1  0
 22 24  1  0
 24 25  2  0
 25 26  1  0
 26 27  2  0
 10  6  1  0
 27 17  1  0
 26 20  1  0
  1 28  1  0
  1 29  1  0
  1 30  1  0
  3 31  1  0
  3 32  1  0
  3 33  1  0
  6 34  1  1
  7 35  1  0
  7 36  1  0
  8 37  1  0
  8 38  1  0
  9 39  1  0
  9 40  1  0
 13 41  1  0
 13 42  1  0
 14 43  1  0
 18 44  1  0
 19 45  1  0
 21 46  1  0
 24 47  1  0
 25 48  1  0
M  END
>  <smiles>  (42) 
CN(C)C(=O)[C@@H]1CCCN1C(=O)CNC(=O)c1ccc2cc(Cl)ccc2n1

>  <score_type>  (42) 
oracle

>  <origin>  (42) 
autodockgpu

>  <m_score__min__energy>  (42) 
-8.0600000000000005

>  <m_primary>  (42) 
energy

>  <rmsd>  (42) 
2.3071448184198187

>  <m_score__min__rmsd>  (42) 
2.3071448184198187

>  <meeko>  (42) 
{"free_energy": -7.05, "intermolecular_energy": -8.54, "internal_energy": -1.87, "cluster_size": 7, "cluster_id": 2, "rank_in_cluster": 1}

>  <energy>  (42) 
-6.76

>  <cluster_rmsd>  (42) 
0.0

>  <cluster>  (42) 
3

$$$$

     RDKit          3D

 48 50  0  0  0  0  0  0  0  0999 V2000
  142.7330   73.4620  220.5650 C   0  0  0  0  0  0  0  0  0  0  0  0
  142.1470   74.7990  220.5490 N   0  0  0  0  0  0  0  0  0  0  0  0
  142.5890   75.7500  219.5670 C   0  0  0  0  0  0  0  0  0  0  0  0
  141.1300   75.0940  221.5380 C   0  0  0  0  0  0  0  0  0  0  0  0
  140.8660   74.1380  222.3020 O   0  0  0  0  0  0  0  0  0  0  0  0
  140.5540   76.4190  221.5290 C   0  0  2  0  0  0  0  0  0  0  0  0
  140.9900   77.2680  222.7150 C   0  0  0  0  0  0  0  0  0  0  0  0
  139.9810   78.3940  222.7020 C   0  0  0  0  0  0  0  0  0  0  0  0
  138.9390   78.0410  221.6690 C   0  0  0  0  0  0  0  0  0  0  0  0
  139.1360   76.5680  221.6270 N   0  0  0  0  0  0  0  0  0  0  0  0
  138.0380   75.6890  221.6790 C   0  0  0  0  0  0  0  0  0  0  0  0
  136.9140   75.9380  222.1670 O   0  0  0  0  0  0  0  0  0  0  0  0
  138.1670   74.2910  221.1060 C   0  0  0  0  0  0  0  0  0  0  0  0
  138.4990   73.3530  222.1310 N   0  0  0  0  0  0  0  0  0  0  0  0
  138.3300   71.9500  221.9630 C   0  0  0  0  0  0  0  0  0  0  0  0
  137.8690   71.4490  220.8890 O   0  0  0  0  0  0  0  0  0  0  0  0
  138.6940   71.0450  223.0650 C   0  0  0  0  0  0  0  0  0  0  0  0
  138.3320   69.7330  223.0590 C   0  0  0  0  0  0  0  0  0  0  0  0
  138.7050   68.9160  224.1300 C   0  0  0  0  0  0  0  0  0  0  0  0
  139.4290   69.4390  225.1760 C   0  0  0  0  0  0  0  0  0  0  0  0
  139.8380   68.7060  226.2690 C   0  0  0  0  0  0  0  0  0  0  0  0
  140.5710   69.3080  227.2890 C   0  0  0  0  0  0  0  0  0  0  0  0
  141.0860   68.3560  228.6830 Cl  0  0  0  0  0  0  0  0  0  0  0  0
  140.9190   70.6440  227.2560 C   0  0  0  0  0  0  0  0  0  0  0  0
  140.5100   71.3750  226.1630 C   0  0  0  0  0  0  0  0  0  0  0  0
  139.7880   70.7780  225.1590 C   0  0  0  0  0  0  0  0  0  0  0  0
  139.4100   71.5090  224.1200 N   0  0  0  0  0  0  0  0  0  0  0  0
  142.8756   73.1366  221.6061 H   0  0  0  0  0  0  0  0  0  0  0  0
  142.0599   72.7604  220.0505 H   0  0  0  0  0  0  0  0  0  0  0  0
  143.7051   73.4815  220.0505 H   0  0  0  0  0  0  0  0  0  0  0  0
  143.0006   76.6355  220.0734 H   0  0  0  0  0  0  0  0  0  0  0  0
  143.3669   75.2927  218.9379 H   0  0  0  0  0  0  0  0  0  0  0  0
  141.7380   76.0498  218.9379 H   0  0  0  0  0  0  0  0  0  0  0  0
  140.9124   76.7167  220.5326 H   0  0  0  0  0  0  0  0  0  0  0  0
  140.9359   76.6969  223.6536 H   0  0  0  0  0  0  0  0  0  0  0  0
  142.0322   77.6132  222.6468 H   0  0  0  0  0  0  0  0  0  0  0  0
  139.5127   78.4930  223.6924 H   0  0  0  0  0  0  0  0  0  0  0  0
  140.4648   79.3518  222.4601 H   0  0  0  0  0  0  0  0  0  0  0  0
  137.9248   78.3115  221.9981 H   0  0  0  0  0  0  0  0  0  0  0  0
  139.0391   78.5576  220.7030 H   0  0  0  0  0  0  0  0  0  0  0  0
  137.2111   73.9998  220.6461 H   0  0  0  0  0  0  0  0  0  0  0  0
  138.9691   74.2903  220.3532 H   0  0  0  0  0  0  0  0  0  0  0  0
  138.8900   73.6770  223.0650 H   0  0  0  0  0  0  0  0  0  0  0  0
  137.7522   69.3201  222.2204 H   0  0  0  0  0  0  0  0  0  0  0  0
  138.4193   67.8538  224.1363 H   0  0  0  0  0  0  0  0  0  0  0  0
  139.5838   67.6379  226.3364 H   0  0  0  0  0  0  0  0  0  0  0  0
  141.4989   71.1051  228.0691 H   0  0  0  0  0  0  0  0  0  0  0  0
  140.7631   72.4432  226.0938 H   0  0  0  0  0  0  0  0  0  0  0  0
  1  2  1  0
  2  3  1  0
  2  4  1  0
  4  5  2  0
  4  6  1  0
  6  7  1  0
  7  8  1  0
  8  9  1  0
  9 10  1  0
 10 11  1  0
 11 12  2  0
 11 13  1  0
 13 14  1  0
 14 15  1  0
 15 16  2  0
 15 17  1  0
 17 18  2  0
 18 19  1  0
 19 20  2  0
 20 21  1  0
 21 22  2  0
 22 23  1  0
 22 24  1  0
 24 25  2  0
 25 26  1  0
 26 27  2  0
 10  6  1  0
 27 17  1  0
 26 20  1  0
  1 28  1  0
  1 29  1  0
  1 30  1  0
  3 31  1  0
  3 32  1  0
  3 33  1  0
  6 34  1  6
  7 35  1  0
  7 36  1  0
  8 37  1  0
  8 38  1  0
  9 39  1  0
  9 40  1  0
 13 41  1  0
 13 42  1  0
 14 43  1  0
 18 44  1  0
 19 45  1  0
 21 46  1  0
 24 47  1  0
 25 48  1  0
M  END
>  <smiles>  (43) 
CN(C)C(=O)[C@@H]1CCCN1C(=O)CNC(=O)c1ccc2cc(Cl)ccc2n1

>  <score_type>  (43) 
oracle

>  <origin>  (43) 
autodockgpu

>  <m_score__min__energy>  (43) 
-8.0600000000000005

>  <m_primary>  (43) 
energy

>  <rmsd>  (43) 
3.1243296080313674

>  <m_score__min__rmsd>  (43) 
3.1243296080313674

>  <meeko>  (43) 
{"free_energy": -7.27, "intermolecular_energy": -8.77, "internal_energy": -2.25, "cluster_size": 34, "cluster_id": 1, "rank_in_cluster": 20}

>  <energy>  (43) 
-6.69

>  <cluster_rmsd>  (43) 
1.42

>  <cluster>  (43) 
3

$$$$

     RDKit          3D

 48 50  0  0  0  0  0  0  0  0999 V2000
  140.7800   80.9240  223.4550 C   0  0  0  0  0  0  0  0  0  0  0  0
  141.4950   80.0510  222.5270 N   0  0  0  0  0  0  0  0  0  0  0  0
  142.8840   79.7670  222.7580 C   0  0  0  0  0  0  0  0  0  0  0  0
  140.7480   79.5070  221.4120 C   0  0  0  0  0  0  0  0  0  0  0  0
  139.5460   79.8540  221.3820 O   0  0  0  0  0  0  0  0  0  0  0  0
  141.4560   78.6500  220.4890 C   0  0  2  0  0  0  0  0  0  0  0  0
  140.9760   78.7960  219.0510 C   0  0  0  0  0  0  0  0  0  0  0  0
  141.5470   77.5640  218.3880 C   0  0  0  0  0  0  0  0  0  0  0  0
  142.1360   76.7060  219.4810 C   0  0  0  0  0  0  0  0  0  0  0  0
  141.3640   77.2320  220.6370 N   0  0  0  0  0  0  0  0  0  0  0  0
  140.7570   76.3590  221.5600 C   0  0  0  0  0  0  0  0  0  0  0  0
  140.8130   76.4460  222.8060 O   0  0  0  0  0  0  0  0  0  0  0  0
  139.9450   75.1810  221.0580 C   0  0  0  0  0  0  0  0  0  0  0  0
  139.8580   74.1650  222.0580 N   0  0  0  0  0  0  0  0  0  0  0  0
  140.1170   72.7940  221.7750 C   0  0  0  0  0  0  0  0  0  0  0  0
  140.4400   72.3940  220.6120 O   0  0  0  0  0  0  0  0  0  0  0  0
  140.0080   71.8030  222.8580 C   0  0  0  0  0  0  0  0  0  0  0  0
  139.4030   70.6000  222.6640 C   0  0  0  0  0  0  0  0  0  0  0  0
  139.3270   69.6930  223.7260 C   0  0  0  0  0  0  0  0  0  0  0  0
  139.8580   70.0230  224.9510 C   0  0  0  0  0  0  0  0  0  0  0  0
  139.8260   69.1910  226.0490 C   0  0  0  0  0  0  0  0  0  0  0  0
  140.3880   69.5970  227.2590 C   0  0  0  0  0  0  0  0  0  0  0  0
  140.3390   68.5200  228.6560 Cl  0  0  0  0  0  0  0  0  0  0  0  0
  140.9930   70.8280  227.4130 C   0  0  0  0  0  0  0  0  0  0  0  0
  141.0240   71.6580  226.3150 C   0  0  0  0  0  0  0  0  0  0  0  0
  140.4690   71.2550  225.1250 C   0  0  0  0  0  0  0  0  0  0  0  0
  140.5160   72.0760  224.0860 N   0  0  0  0  0  0  0  0  0  0  0  0
  141.0180   80.6335  224.4889 H   0  0  0  0  0  0  0  0  0  0  0  0
  141.0867   81.9670  223.2874 H   0  0  0  0  0  0  0  0  0  0  0  0
  139.6970   80.8288  223.2874 H   0  0  0  0  0  0  0  0  0  0  0  0
  143.0752   79.7279  223.8406 H   0  0  0  0  0  0  0  0  0  0  0  0
  143.1403   78.7979  222.3052 H   0  0  0  0  0  0  0  0  0  0  0  0
  143.5002   80.5577  222.3052 H   0  0  0  0  0  0  0  0  0  0  0  0
  142.4705   79.0041  220.7244 H   0  0  0  0  0  0  0  0  0  0  0  0
  139.8773   78.8029  218.9976 H   0  0  0  0  0  0  0  0  0  0  0  0
  141.2937   79.7361  218.5763 H   0  0  0  0  0  0  0  0  0  0  0  0
  140.7514   77.0142  217.8639 H   0  0  0  0  0  0  0  0  0  0  0  0
  142.3136   77.8368  217.6478 H   0  0  0  0  0  0  0  0  0  0  0  0
  141.9461   75.6358  219.3118 H   0  0  0  0  0  0  0  0  0  0  0  0
  143.2301   76.7570  219.5824 H   0  0  0  0  0  0  0  0  0  0  0  0
  138.9315   75.5238  220.8024 H   0  0  0  0  0  0  0  0  0  0  0  0
  140.4414   74.7619  220.1703 H   0  0  0  0  0  0  0  0  0  0  0  0
  139.5940   74.4020  223.0590 H   0  0  0  0  0  0  0  0  0  0  0  0
  138.9781   70.3434  221.6824 H   0  0  0  0  0  0  0  0  0  0  0  0
  138.8426   68.7160  223.5815 H   0  0  0  0  0  0  0  0  0  0  0  0
  139.3542   68.2004  225.9706 H   0  0  0  0  0  0  0  0  0  0  0  0
  141.4325   71.1335  228.3740 H   0  0  0  0  0  0  0  0  0  0  0  0
  141.4956   72.6488  226.3911 H   0  0  0  0  0  0  0  0  0  0  0  0
  1  2  1  0
  2  3  1  0
  2  4  1  0
  4  5  2  0
  4  6  1  0
  6  7  1  0
  7  8  1  0
  8  9  1  0
  9 10  1  0
 10 11  1  0
 11 12  2  0
 11 13  1  0
 13 14  1  0
 14 15  1  0
 15 16  2  0
 15 17  1  0
 17 18  2  0
 18 19  1  0
 19 20  2  0
 20 21  1  0
 21 22  2  0
 22 23  1  0
 22 24  1  0
 24 25  2  0
 25 26  1  0
 26 27  2  0
 10  6  1  0
 27 17  1  0
 26 20  1  0
  1 28  1  0
  1 29  1  0
  1 30  1  0
  3 31  1  0
  3 32  1  0
  3 33  1  0
  6 34  1  6
  7 35  1  0
  7 36  1  0
  8 37  1  0
  8 38  1  0
  9 39  1  0
  9 40  1  0
 13 41  1  0
 13 42  1  0
 14 43  1  0
 18 44  1  0
 19 45  1  0
 21 46  1  0
 24 47  1  0
 25 48  1  0
M  END
>  <smiles>  (44) 
CN(C)C(=O)[C@@H]1CCCN1C(=O)CNC(=O)c1ccc2cc(Cl)ccc2n1

>  <score_type>  (44) 
oracle

>  <origin>  (44) 
autodockgpu

>  <m_score__min__energy>  (44) 
-8.0600000000000005

>  <m_primary>  (44) 
energy

>  <rmsd>  (44) 
2.0563852032323613

>  <m_score__min__rmsd>  (44) 
2.0563852032323613

>  <meeko>  (44) 
{"free_energy": -7.32, "intermolecular_energy": -8.81, "internal_energy": -1.8, "cluster_size": 34, "cluster_id": 1, "rank_in_cluster": 19}

>  <energy>  (44) 
-6.71

>  <cluster_rmsd>  (44) 
0.0

>  <cluster>  (44) 
4

$$$$

     RDKit          3D

 48 50  0  0  0  0  0  0  0  0999 V2000
  140.5660   79.0600  223.6710 C   0  0  0  0  0  0  0  0  0  0  0  0
  141.4550   78.8980  222.5240 N   0  0  0  0  0  0  0  0  0  0  0  0
  142.5880   79.7700  222.3830 C   0  0  0  0  0  0  0  0  0  0  0  0
  141.1430   77.8440  221.5800 C   0  0  0  0  0  0  0  0  0  0  0  0
  140.1250   77.1780  221.8750 O   0  0  0  0  0  0  0  0  0  0  0  0
  142.0160   77.6870  220.4410 C   0  0  2  0  0  0  0  0  0  0  0  0
  141.3940   78.1720  219.1390 C   0  0  0  0  0  0  0  0  0  0  0  0
  142.2890   77.5490  218.0930 C   0  0  0  0  0  0  0  0  0  0  0  0
  143.2270   76.6130  218.8160 C   0  0  0  0  0  0  0  0  0  0  0  0
  142.4250   76.3760  220.0450 N   0  0  0  0  0  0  0  0  0  0  0  0
  142.2330   75.0750  220.5450 C   0  0  0  0  0  0  0  0  0  0  0  0
  143.1310   74.2690  220.8730 O   0  0  0  0  0  0  0  0  0  0  0  0
  140.8260   74.5390  220.7260 C   0  0  0  0  0  0  0  0  0  0  0  0
  140.7960   73.5320  221.7390 N   0  0  0  0  0  0  0  0  0  0  0  0
  139.6400   72.7420  221.9920 C   0  0  0  0  0  0  0  0  0  0  0  0
  138.5630   72.8880  221.3310 O   0  0  0  0  0  0  0  0  0  0  0  0
  139.6840   71.7220  223.0540 C   0  0  0  0  0  0  0  0  0  0  0  0
  139.1480   70.4840  222.8750 C   0  0  0  0  0  0  0  0  0  0  0  0
  139.2180   69.5520  223.9140 C   0  0  0  0  0  0  0  0  0  0  0  0
  139.8220   69.8900  225.1020 C   0  0  0  0  0  0  0  0  0  0  0  0
  139.9350   69.0350  226.1770 C   0  0  0  0  0  0  0  0  0  0  0  0
  140.5630   69.4520  227.3490 C   0  0  0  0  0  0  0  0  0  0  0  0
  140.6980   68.3440  228.7160 Cl  0  0  0  0  0  0  0  0  0  0  0  0
  141.0940   70.7180  227.4890 C   0  0  0  0  0  0  0  0  0  0  0  0
  140.9810   71.5720  226.4150 C   0  0  0  0  0  0  0  0  0  0  0  0
  140.3610   71.1570  225.2610 C   0  0  0  0  0  0  0  0  0  0  0  0
  140.2690   72.0030  224.2450 N   0  0  0  0  0  0  0  0  0  0  0  0
  141.1442   78.9546  224.6008 H   0  0  0  0  0  0  0  0  0  0  0  0
  140.1030   80.0573  223.6381 H   0  0  0  0  0  0  0  0  0  0  0  0
  139.7810   78.2901  223.6381 H   0  0  0  0  0  0  0  0  0  0  0  0
  142.9578   80.0546  223.3791 H   0  0  0  0  0  0  0  0  0  0  0  0
  143.3846   79.2498  221.8310 H   0  0  0  0  0  0  0  0  0  0  0  0
  142.2890   80.6733  221.8310 H   0  0  0  0  0  0  0  0  0  0  0  0
  142.8655   78.2593  220.8421 H   0  0  0  0  0  0  0  0  0  0  0  0
  140.3579   77.8167  219.0375 H   0  0  0  0  0  0  0  0  0  0  0  0
  141.3326   79.2678  219.0654 H   0  0  0  0  0  0  0  0  0  0  0  0
  141.6849   76.9895  217.3636 H   0  0  0  0  0  0  0  0  0  0  0  0
  142.8495   78.3211  217.5455 H   0  0  0  0  0  0  0  0  0  0  0  0
  143.3988   75.6849  218.2511 H   0  0  0  0  0  0  0  0  0  0  0  0
  144.2428   77.0003  218.9835 H   0  0  0  0  0  0  0  0  0  0  0  0
  140.1598   75.3644  221.0174 H   0  0  0  0  0  0  0  0  0  0  0  0
  140.4914   74.0958  219.7765 H   0  0  0  0  0  0  0  0  0  0  0  0
  141.6470   73.3370  222.3440 H   0  0  0  0  0  0  0  0  0  0  0  0
  138.6648   70.2198  221.9228 H   0  0  0  0  0  0  0  0  0  0  0  0
  138.7897   68.5475  223.7813 H   0  0  0  0  0  0  0  0  0  0  0  0
  139.5264   68.0159  226.1094 H   0  0  0  0  0  0  0  0  0  0  0  0
  141.5874   71.0320  228.4206 H   0  0  0  0  0  0  0  0  0  0  0  0
  141.3890   72.5914  226.4810 H   0  0  0  0  0  0  0  0  0  0  0  0
  1  2  1  0
  2  3  1  0
  2  4  1  0
  4  5  2  0
  4  6  1  0
  6  7  1  0
  7  8  1  0
  8  9  1  0
  9 10  1  0
 10 11  1  0
 11 12  2  0
 11 13  1  0
 13 14  1  0
 14 15  1  0
 15 16  2  0
 15 17  1  0
 17 18  2  0
 18 19  1  0
 19 20  2  0
 20 21  1  0
 21 22  2  0
 22 23  1  0
 22 24  1  0
 24 25  2  0
 25 26  1  0
 26 27  2  0
 10  6  1  0
 27 17  1  0
 26 20  1  0
  1 28  1  0
  1 29  1  0
  1 30  1  0
  3 31  1  0
  3 32  1  0
  3 33  1  0
  6 34  1  1
  7 35  1  0
  7 36  1  0
  8 37  1  0
  8 38  1  0
  9 39  1  0
  9 40  1  0
 13 41  1  0
 13 42  1  0
 14 43  1  0
 18 44  1  0
 19 45  1  0
 21 46  1  0
 24 47  1  0
 25 48  1  0
M  END
>  <smiles>  (45) 
CN(C)C(=O)[C@@H]1CCCN1C(=O)CNC(=O)c1ccc2cc(Cl)ccc2n1

>  <score_type>  (45) 
oracle

>  <origin>  (45) 
autodockgpu

>  <m_score__min__energy>  (45) 
-8.0600000000000005

>  <m_primary>  (45) 
energy

>  <rmsd>  (45) 
2.2223938605061804

>  <m_score__min__rmsd>  (45) 
2.2223938605061804

>  <meeko>  (45) 
{"free_energy": -6.98, "intermolecular_energy": -8.47, "internal_energy": -1.86, "cluster_size": 7, "cluster_id": 2, "rank_in_cluster": 2}

>  <energy>  (45) 
-6.23

>  <cluster_rmsd>  (45) 
0.79

>  <cluster>  (45) 
4

$$$$

     RDKit          3D

 48 50  0  0  0  0  0  0  0  0999 V2000
  141.8280   79.1850  223.7440 C   0  0  0  0  0  0  0  0  0  0  0  0
  141.0880   78.7880  222.5490 N   0  0  0  0  0  0  0  0  0  0  0  0
  141.8100   78.4790  221.3460 C   0  0  0  0  0  0  0  0  0  0  0  0
  139.6450   78.7210  222.6480 C   0  0  0  0  0  0  0  0  0  0  0  0
  139.1950   79.0120  223.7790 O   0  0  0  0  0  0  0  0  0  0  0  0
  138.9110   78.3360  221.4650 C   0  0  2  0  0  0  0  0  0  0  0  0
  137.4260   78.6590  221.5510 C   0  0  0  0  0  0  0  0  0  0  0  0
  136.8430   77.8280  220.4320 C   0  0  0  0  0  0  0  0  0  0  0  0
  137.9530   76.9520  219.9080 C   0  0  0  0  0  0  0  0  0  0  0  0
  138.8420   76.9560  221.1000 N   0  0  0  0  0  0  0  0  0  0  0  0
  139.3940   75.7610  221.5960 C   0  0  0  0  0  0  0  0  0  0  0  0
  140.3920   75.6610  222.3420 O   0  0  0  0  0  0  0  0  0  0  0  0
  138.7630   74.4320  221.2280 C   0  0  0  0  0  0  0  0  0  0  0  0
  139.0450   73.4460  222.2220 N   0  0  0  0  0  0  0  0  0  0  0  0
  138.6760   72.0800  222.0660 C   0  0  0  0  0  0  0  0  0  0  0  0
  138.0690   71.6580  221.0310 O   0  0  0  0  0  0  0  0  0  0  0  0
  139.0010   71.1210  223.1350 C   0  0  0  0  0  0  0  0  0  0  0  0
  138.6610   69.8070  223.0400 C   0  0  0  0  0  0  0  0  0  0  0  0
  138.9940   68.9370  224.0830 C   0  0  0  0  0  0  0  0  0  0  0  0
  139.6590   69.4120  225.1890 C   0  0  0  0  0  0  0  0  0  0  0  0
  140.0250   68.6260  226.2600 C   0  0  0  0  0  0  0  0  0  0  0  0
  140.6980   69.1820  227.3470 C   0  0  0  0  0  0  0  0  0  0  0  0
  141.1610   68.1620  228.7100 Cl  0  0  0  0  0  0  0  0  0  0  0  0
  141.0250   70.5220  227.4020 C   0  0  0  0  0  0  0  0  0  0  0  0
  140.6590   71.3060  226.3320 C   0  0  0  0  0  0  0  0  0  0  0  0
  139.9960   70.7550  225.2630 C   0  0  0  0  0  0  0  0  0  0  0  0
  139.6570   71.5360  224.2470 N   0  0  0  0  0  0  0  0  0  0  0  0
  141.2661   78.8835  224.6403 H   0  0  0  0  0  0  0  0  0  0  0  0
  142.8122   78.6938  223.7459 H   0  0  0  0  0  0  0  0  0  0  0  0
  141.9630   80.2767  223.7459 H   0  0  0  0  0  0  0  0  0  0  0  0
  142.7926   78.0584  221.6059 H   0  0  0  0  0  0  0  0  0  0  0  0
  141.2417   77.7453  220.7555 H   0  0  0  0  0  0  0  0  0  0  0  0
  141.9485   79.3967  220.7555 H   0  0  0  0  0  0  0  0  0  0  0  0
  139.5132   78.9045  220.7410 H   0  0  0  0  0  0  0  0  0  0  0  0
  137.0105   78.3610  222.5250 H   0  0  0  0  0  0  0  0  0  0  0  0
  137.2056   79.7328  221.4593 H   0  0  0  0  0  0  0  0  0  0  0  0
  136.0192   77.2064  220.8129 H   0  0  0  0  0  0  0  0  0  0  0  0
  136.4408   78.4705  219.6348 H   0  0  0  0  0  0  0  0  0  0  0  0
  137.5979   75.9402  219.6628 H   0  0  0  0  0  0  0  0  0  0  0  0
  138.4192   77.2920  218.9715 H   0  0  0  0  0  0  0  0  0  0  0  0
  137.6736   74.5602  221.1456 H   0  0  0  0  0  0  0  0  0  0  0  0
  139.1818   74.0958  220.2680 H   0  0  0  0  0  0  0  0  0  0  0  0
  139.5480   73.7030  223.1220 H   0  0  0  0  0  0  0  0  0  0  0  0
  138.1299   69.4330  222.1523 H   0  0  0  0  0  0  0  0  0  0  0  0
  138.7240   67.8726  224.0187 H   0  0  0  0  0  0  0  0  0  0  0  0
  139.7845   67.5526  226.2573 H   0  0  0  0  0  0  0  0  0  0  0  0
  141.5568   70.9461  228.2665 H   0  0  0  0  0  0  0  0  0  0  0  0
  140.8987   72.3796  226.3329 H   0  0  0  0  0  0  0  0  0  0  0  0
  1  2  1  0
  2  3  1  0
  2  4  1  0
  4  5  2  0
  4  6  1  0
  6  7  1  0
  7  8  1  0
  8  9  1  0
  9 10  1  0
 10 11  1  0
 11 12  2  0
 11 13  1  0
 13 14  1  0
 14 15  1  0
 15 16  2  0
 15 17  1  0
 17 18  2  0
 18 19  1  0
 19 20  2  0
 20 21  1  0
 21 22  2  0
 22 23  1  0
 22 24  1  0
 24 25  2  0
 25 26  1  0
 26 27  2  0
 10  6  1  0
 27 17  1  0
 26 20  1  0
  1 28  1  0
  1 29  1  0
  1 30  1  0
  3 31  1  0
  3 32  1  0
  3 33  1  0
  6 34  1  6
  7 35  1  0
  7 36  1  0
  8 37  1  0
  8 38  1  0
  9 39  1  0
  9 40  1  0
 13 41  1  0
 13 42  1  0
 14 43  1  0
 18 44  1  0
 19 45  1  0
 21 46  1  0
 24 47  1  0
 25 48  1  0
M  END
>  <smiles>  (46) 
CN(C)C(=O)[C@@H]1CCCN1C(=O)CNC(=O)c1ccc2cc(Cl)ccc2n1

>  <score_type>  (46) 
oracle

>  <origin>  (46) 
autodockgpu

>  <m_score__min__energy>  (46) 
-8.0600000000000005

>  <m_primary>  (46) 
energy

>  <rmsd>  (46) 
2.406393930163013

>  <m_score__min__rmsd>  (46) 
2.406393930163013

>  <meeko>  (46) 
{"free_energy": -6.86, "intermolecular_energy": -8.35, "internal_energy": -2.13, "cluster_size": 34, "cluster_id": 1, "rank_in_cluster": 29}

>  <energy>  (46) 
-5.92

>  <cluster_rmsd>  (46) 
1.07

>  <cluster>  (46) 
4

$$$$

     RDKit          3D

 48 50  0  0  0  0  0  0  0  0999 V2000
  140.6140   80.7770  223.2430 C   0  0  0  0  0  0  0  0  0  0  0  0
  141.2330   79.5290  222.8060 N   0  0  0  0  0  0  0  0  0  0  0  0
  141.8230   78.6560  223.7840 C   0  0  0  0  0  0  0  0  0  0  0  0
  141.2110   79.2330  221.3880 C   0  0  0  0  0  0  0  0  0  0  0  0
  140.6420   80.1030  220.6920 O   0  0  0  0  0  0  0  0  0  0  0  0
  141.8300   78.0020  220.9540 C   0  0  2  0  0  0  0  0  0  0  0  0
  142.1170   77.9730  219.4580 C   0  0  0  0  0  0  0  0  0  0  0  0
  142.3620   76.5050  219.1990 C   0  0  0  0  0  0  0  0  0  0  0  0
  142.0220   75.7680  220.4720 C   0  0  0  0  0  0  0  0  0  0  0  0
  141.1160   76.7710  221.0910 N   0  0  0  0  0  0  0  0  0  0  0  0
  139.8780   76.3880  221.6380 C   0  0  0  0  0  0  0  0  0  0  0  0
  139.2650   76.9700  222.5600 O   0  0  0  0  0  0  0  0  0  0  0  0
  139.1660   75.1610  221.1020 C   0  0  0  0  0  0  0  0  0  0  0  0
  139.1790   74.1070  222.0670 N   0  0  0  0  0  0  0  0  0  0  0  0
  140.1420   73.0600  222.0370 C   0  0  0  0  0  0  0  0  0  0  0  0
  141.0470   72.9990  221.1450 O   0  0  0  0  0  0  0  0  0  0  0  0
  140.0920   72.0080  223.0660 C   0  0  0  0  0  0  0  0  0  0  0  0
  139.5830   70.7740  222.8000 C   0  0  0  0  0  0  0  0  0  0  0  0
  139.5600   69.8100  223.8120 C   0  0  0  0  0  0  0  0  0  0  0  0
  140.0470   70.1140  225.0620 C   0  0  0  0  0  0  0  0  0  0  0  0
  140.0630   69.2260  226.1150 C   0  0  0  0  0  0  0  0  0  0  0  0
  140.5750   69.6090  227.3540 C   0  0  0  0  0  0  0  0  0  0  0  0
  140.5870   68.4590  228.6930 Cl  0  0  0  0  0  0  0  0  0  0  0  0
  141.0830   70.8720  227.5820 C   0  0  0  0  0  0  0  0  0  0  0  0
  141.0660   71.7580  226.5290 C   0  0  0  0  0  0  0  0  0  0  0  0
  140.5610   71.3770  225.3100 C   0  0  0  0  0  0  0  0  0  0  0  0
  140.5600   72.2530  224.3150 N   0  0  0  0  0  0  0  0  0  0  0  0
  140.5965   80.8123  224.3423 H   0  0  0  0  0  0  0  0  0  0  0  0
  141.1942   81.6285  222.8580 H   0  0  0  0  0  0  0  0  0  0  0  0
  139.5850   80.8304  222.8580 H   0  0  0  0  0  0  0  0  0  0  0  0
  141.5784   79.0179  224.7936 H   0  0  0  0  0  0  0  0  0  0  0  0
  141.4269   77.6381  223.6534 H   0  0  0  0  0  0  0  0  0  0  0  0
  142.9151   78.6440  223.6534 H   0  0  0  0  0  0  0  0  0  0  0  0
  142.6920   78.0346  221.6366 H   0  0  0  0  0  0  0  0  0  0  0  0
  141.2553   78.3398  218.8810 H   0  0  0  0  0  0  0  0  0  0  0  0
  142.9582   78.6165  219.1609 H   0  0  0  0  0  0  0  0  0  0  0  0
  141.7205   76.1545  218.3770 H   0  0  0  0  0  0  0  0  0  0  0  0
  143.4085   76.3272  218.9107 H   0  0  0  0  0  0  0  0  0  0  0  0
  141.5077   74.8164  220.2721 H   0  0  0  0  0  0  0  0  0  0  0  0
  142.8829   75.4670  221.0870 H   0  0  0  0  0  0  0  0  0  0  0  0
  138.1237   75.4224  220.8669 H   0  0  0  0  0  0  0  0  0  0  0  0
  139.6872   74.8174  220.1963 H   0  0  0  0  0  0  0  0  0  0  0  0
  138.4620   74.0720  222.8500 H   0  0  0  0  0  0  0  0  0  0  0  0
  139.1936   70.5377  221.7987 H   0  0  0  0  0  0  0  0  0  0  0  0
  139.1526   68.8086  223.6088 H   0  0  0  0  0  0  0  0  0  0  0  0
  139.6693   68.2081  225.9775 H   0  0  0  0  0  0  0  0  0  0  0  0
  141.4849   71.1586  228.5650 H   0  0  0  0  0  0  0  0  0  0  0  0
  141.4589   72.7765  226.6644 H   0  0  0  0  0  0  0  0  0  0  0  0
  1  2  1  0
  2  3  1  0
  2  4  1  0
  4  5  2  0
  4  6  1  0
  6  7  1  0
  7  8  1  0
  8  9  1  0
  9 10  1  0
 10 11  1  0
 11 12  2  0
 11 13  1  0
 13 14  1  0
 14 15  1  0
 15 16  2  0
 15 17  1  0
 17 18  2  0
 18 19  1  0
 19 20  2  0
 20 21  1  0
 21 22  2  0
 22 23  1  0
 22 24  1  0
 24 25  2  0
 25 26  1  0
 26 27  2  0
 10  6  1  0
 27 17  1  0
 26 20  1  0
  1 28  1  0
  1 29  1  0
  1 30  1  0
  3 31  1  0
  3 32  1  0
  3 33  1  0
  6 34  1  1
  7 35  1  0
  7 36  1  0
  8 37  1  0
  8 38  1  0
  9 39  1  0
  9 40  1  0
 13 41  1  0
 13 42  1  0
 14 43  1  0
 18 44  1  0
 19 45  1  0
 21 46  1  0
 24 47  1  0
 25 48  1  0
M  END
>  <smiles>  (47) 
CN(C)C(=O)[C@@H]1CCCN1C(=O)CNC(=O)c1ccc2cc(Cl)ccc2n1

>  <score_type>  (47) 
oracle

>  <origin>  (47) 
autodockgpu

>  <m_score__min__energy>  (47) 
-8.0600000000000005

>  <m_primary>  (47) 
energy

>  <rmsd>  (47) 
2.0559176696574943

>  <m_score__min__rmsd>  (47) 
2.0559176696574943

>  <meeko>  (47) 
{"free_energy": -7.7, "intermolecular_energy": -9.19, "internal_energy": -1.49, "cluster_size": 34, "cluster_id": 1, "rank_in_cluster": 5}

>  <energy>  (47) 
-6.62

>  <cluster_rmsd>  (47) 
0.0

>  <cluster>  (47) 
5

$$$$

     RDKit          3D

 48 50  0  0  0  0  0  0  0  0999 V2000
  141.4480   81.3520  218.0890 C   0  0  0  0  0  0  0  0  0  0  0  0
  141.4200   81.4300  219.5470 N   0  0  0  0  0  0  0  0  0  0  0  0
  141.0950   82.6790  220.1780 C   0  0  0  0  0  0  0  0  0  0  0  0
  141.7220   80.2220  220.2860 C   0  0  0  0  0  0  0  0  0  0  0  0
  141.9690   79.2280  219.5650 O   0  0  0  0  0  0  0  0  0  0  0  0
  141.7030   80.2990  221.7280 C   0  0  2  0  0  0  0  0  0  0  0  0
  142.2120   79.0310  222.4010 C   0  0  0  0  0  0  0  0  0  0  0  0
  141.7250   79.1960  223.8230 C   0  0  0  0  0  0  0  0  0  0  0  0
  140.8270   80.4080  223.8450 C   0  0  0  0  0  0  0  0  0  0  0  0
  140.4540   80.4530  222.4060 N   0  0  0  0  0  0  0  0  0  0  0  0
  139.1150   80.6220  222.0100 C   0  0  0  0  0  0  0  0  0  0  0  0
  138.3370   81.5220  222.3970 O   0  0  0  0  0  0  0  0  0  0  0  0
  138.4950   79.6530  221.0210 C   0  0  0  0  0  0  0  0  0  0  0  0
  139.3120   78.4900  220.8750 N   0  0  0  0  0  0  0  0  0  0  0  0
  139.1930   77.3640  221.7380 C   0  0  0  0  0  0  0  0  0  0  0  0
  138.3530   77.3290  222.6920 O   0  0  0  0  0  0  0  0  0  0  0  0
  140.0690   76.2000  221.5250 C   0  0  0  0  0  0  0  0  0  0  0  0
  139.7240   74.9590  221.9640 C   0  0  0  0  0  0  0  0  0  0  0  0
  140.5910   73.8870  221.7350 C   0  0  0  0  0  0  0  0  0  0  0  0
  141.7800   74.0920  221.0740 C   0  0  0  0  0  0  0  0  0  0  0  0
  142.6910   73.0940  220.8060 C   0  0  0  0  0  0  0  0  0  0  0  0
  143.8750   73.3810  220.1300 C   0  0  0  0  0  0  0  0  0  0  0  0
  145.0330   72.0920  219.7950 Cl  0  0  0  0  0  0  0  0  0  0  0  0
  144.1870   74.6560  219.7010 C   0  0  0  0  0  0  0  0  0  0  0  0
  143.2750   75.6520  219.9680 C   0  0  0  0  0  0  0  0  0  0  0  0
  142.1100   75.3650  220.6350 C   0  0  0  0  0  0  0  0  0  0  0  0
  141.2520   76.3460  220.8770 N   0  0  0  0  0  0  0  0  0  0  0  0
  141.8048   80.3579  217.7818 H   0  0  0  0  0  0  0  0  0  0  0  0
  140.4348   81.5162  217.6935 H   0  0  0  0  0  0  0  0  0  0  0  0
  142.1255   82.1231  217.6935 H   0  0  0  0  0  0  0  0  0  0  0  0
  141.1268   82.5569  221.2707 H   0  0  0  0  0  0  0  0  0  0  0  0
  141.8239   83.4444  219.8732 H   0  0  0  0  0  0  0  0  0  0  0  0
  140.0855   82.9920  219.8732 H   0  0  0  0  0  0  0  0  0  0  0  0
  142.3170   81.2066  221.8240 H   0  0  0  0  0  0  0  0  0  0  0  0
  141.7804   78.1330  221.9348 H   0  0  0  0  0  0  0  0  0  0  0  0
  143.3015   78.9008  222.3233 H   0  0  0  0  0  0  0  0  0  0  0  0
  141.1627   78.3037  224.1354 H   0  0  0  0  0  0  0  0  0  0  0  0
  142.5708   79.3220  224.5150 H   0  0  0  0  0  0  0  0  0  0  0  0
  139.9506   80.2594  224.4930 H   0  0  0  0  0  0  0  0  0  0  0  0
  141.2842   81.3262  224.2424 H   0  0  0  0  0  0  0  0  0  0  0  0
  137.5009   79.3529  221.3840 H   0  0  0  0  0  0  0  0  0  0  0  0
  138.4097   80.1507  220.0437 H   0  0  0  0  0  0  0  0  0  0  0  0
  140.0430   78.4260  220.1070 H   0  0  0  0  0  0  0  0  0  0  0  0
  138.7728   74.8013  222.4935 H   0  0  0  0  0  0  0  0  0  0  0  0
  140.3225   72.8788  222.0835 H   0  0  0  0  0  0  0  0  0  0  0  0
  142.4821   72.0631  221.1280 H   0  0  0  0  0  0  0  0  0  0  0  0
  145.1257   74.8671  219.1678 H   0  0  0  0  0  0  0  0  0  0  0  0
  143.4808   76.6832  219.6452 H   0  0  0  0  0  0  0  0  0  0  0  0
  1  2  1  0
  2  3  1  0
  2  4  1  0
  4  5  2  0
  4  6  1  0
  6  7  1  0
  7  8  1  0
  8  9  1  0
  9 10  1  0
 10 11  1  0
 11 12  2  0
 11 13  1  0
 13 14  1  0
 14 15  1  0
 15 16  2  0
 15 17  1  0
 17 18  2  0
 18 19  1  0
 19 20  2  0
 20 21  1  0
 21 22  2  0
 22 23  1  0
 22 24  1  0
 24 25  2  0
 25 26  1  0
 26 27  2  0
 10  6  1  0
 27 17  1  0
 26 20  1  0
  1 28  1  0
  1 29  1  0
  1 30  1  0
  3 31  1  0
  3 32  1  0
  3 33  1  0
  6 34  1  6
  7 35  1  0
  7 36  1  0
  8 37  1  0
  8 38  1  0
  9 39  1  0
  9 40  1  0
 13 41  1  0
 13 42  1  0
 14 43  1  0
 18 44  1  0
 19 45  1  0
 21 46  1  0
 24 47  1  0
 25 48  1  0
M  END
>  <smiles>  (48) 
CN(C)C(=O)[C@@H]1CCCN1C(=O)CNC(=O)c1ccc2cc(Cl)ccc2n1

>  <score_type>  (48) 
oracle

>  <origin>  (48) 
autodockgpu

>  <m_score__min__energy>  (48) 
-8.0600000000000005

>  <m_primary>  (48) 
energy

>  <rmsd>  (48) 
6.698987744440885

>  <m_score__min__rmsd>  (48) 
6.698987744440885

>  <meeko>  (48) 
{"free_energy": -5.23, "intermolecular_energy": -6.72, "internal_energy": -3.16, "cluster_size": 3, "cluster_id": 6, "rank_in_cluster": 3}

>  <energy>  (48) 
-5.32

>  <cluster_rmsd>  (48) 
0.0

>  <cluster>  (48) 
6

$$$$

     RDKit          3D

 48 50  0  0  0  0  0  0  0  0999 V2000
  142.6950   73.1940  220.7770 C   0  0  0  0  0  0  0  0  0  0  0  0
  142.0810   74.5080  220.6120 N   0  0  0  0  0  0  0  0  0  0  0  0
  142.5660   75.3870  219.5840 C   0  0  0  0  0  0  0  0  0  0  0  0
  140.9950   74.8560  221.5060 C   0  0  0  0  0  0  0  0  0  0  0  0
  140.7020   73.9580  222.3280 O   0  0  0  0  0  0  0  0  0  0  0  0
  140.3930   76.1590  221.3500 C   0  0  2  0  0  0  0  0  0  0  0  0
  140.8650   77.1640  222.3920 C   0  0  0  0  0  0  0  0  0  0  0  0
  139.8340   78.2630  222.2790 C   0  0  0  0  0  0  0  0  0  0  0  0
  138.7530   77.7620  221.3540 C   0  0  0  0  0  0  0  0  0  0  0  0
  138.9780   76.3000  221.4970 N   0  0  0  0  0  0  0  0  0  0  0  0
  137.9020   75.4190  221.7180 C   0  0  0  0  0  0  0  0  0  0  0  0
  136.8550   75.6770  222.3500 O   0  0  0  0  0  0  0  0  0  0  0  0
  137.9580   74.0100  221.1610 C   0  0  0  0  0  0  0  0  0  0  0  0
  138.3390   73.0800  222.1770 N   0  0  0  0  0  0  0  0  0  0  0  0
  138.1830   71.6750  222.0190 C   0  0  0  0  0  0  0  0  0  0  0  0
  137.6930   71.1630  220.9620 O   0  0  0  0  0  0  0  0  0  0  0  0
  138.5990   70.7780  223.1100 C   0  0  0  0  0  0  0  0  0  0  0  0
  138.3340   69.4440  223.0760 C   0  0  0  0  0  0  0  0  0  0  0  0
  138.7520   68.6360  224.1380 C   0  0  0  0  0  0  0  0  0  0  0  0
  139.4220   69.1920  225.2020 C   0  0  0  0  0  0  0  0  0  0  0  0
  139.8690   68.4700  226.2880 C   0  0  0  0  0  0  0  0  0  0  0  0
  140.5420   69.1060  227.3300 C   0  0  0  0  0  0  0  0  0  0  0  0
  141.1080   68.1680  228.7130 Cl  0  0  0  0  0  0  0  0  0  0  0  0
  140.7910   70.4640  227.3240 C   0  0  0  0  0  0  0  0  0  0  0  0
  140.3450   71.1830  226.2390 C   0  0  0  0  0  0  0  0  0  0  0  0
  139.6810   70.5530  225.2150 C   0  0  0  0  0  0  0  0  0  0  0  0
  139.2640   71.2730  224.1830 N   0  0  0  0  0  0  0  0  0  0  0  0
  142.7996   72.9701  221.8489 H   0  0  0  0  0  0  0  0  0  0  0  0
  142.0604   72.4306  220.3032 H   0  0  0  0  0  0  0  0  0  0  0  0
  143.6877   73.1911  220.3032 H   0  0  0  0  0  0  0  0  0  0  0  0
  143.0482   76.2609  220.0463 H   0  0  0  0  0  0  0  0  0  0  0  0
  143.2969   74.8526  218.9594 H   0  0  0  0  0  0  0  0  0  0  0  0
  141.7242   75.7204  218.9594 H   0  0  0  0  0  0  0  0  0  0  0  0
  140.6993   76.3266  220.3069 H   0  0  0  0  0  0  0  0  0  0  0  0
  140.8653   76.7216  223.3991 H   0  0  0  0  0  0  0  0  0  0  0  0
  141.8957   77.5120  222.2294 H   0  0  0  0  0  0  0  0  0  0  0  0
  139.4101   78.4862  223.2692 H   0  0  0  0  0  0  0  0  0  0  0  0
  140.2867   79.1866  221.8890 H   0  0  0  0  0  0  0  0  0  0  0  0
  137.7499   78.0594  221.6937 H   0  0  0  0  0  0  0  0  0  0  0  0
  138.7973   78.1474  220.3247 H   0  0  0  0  0  0  0  0  0  0  0  0
  136.9658   73.7352  220.7736 H   0  0  0  0  0  0  0  0  0  0  0  0
  138.7050   73.9781  220.3542 H   0  0  0  0  0  0  0  0  0  0  0  0
  138.7570   73.4120  223.0950 H   0  0  0  0  0  0  0  0  0  0  0  0
  137.7966   69.0057  222.2221 H   0  0  0  0  0  0  0  0  0  0  0  0
  138.5448   67.5558  224.1221 H   0  0  0  0  0  0  0  0  0  0  0  0
  139.6935   67.3850  226.3326 H   0  0  0  0  0  0  0  0  0  0  0  0
  141.3245   70.9515  228.1533 H   0  0  0  0  0  0  0  0  0  0  0  0
  140.5211   72.2678  226.1915 H   0  0  0  0  0  0  0  0  0  0  0  0
  1  2  1  0
  2  3  1  0
  2  4  1  0
  4  5  2  0
  4  6  1  0
  6  7  1  0
  7  8  1  0
  8  9  1  0
  9 10  1  0
 10 11  1  0
 11 12  2  0
 11 13  1  0
 13 14  1  0
 14 15  1  0
 15 16  2  0
 15 17  1  0
 17 18  2  0
 18 19  1  0
 19 20  2  0
 20 21  1  0
 21 22  2  0
 22 23  1  0
 22 24  1  0
 24 25  2  0
 25 26  1  0
 26 27  2  0
 10  6  1  0
 27 17  1  0
 26 20  1  0
  1 28  1  0
  1 29  1  0
  1 30  1  0
  3 31  1  0
  3 32  1  0
  3 33  1  0
  6 34  1  6
  7 35  1  0
  7 36  1  0
  8 37  1  0
  8 38  1  0
  9 39  1  0
  9 40  1  0
 13 41  1  0
 13 42  1  0
 14 43  1  0
 18 44  1  0
 19 45  1  0
 21 46  1  0
 24 47  1  0
 25 48  1  0
M  END
>  <smiles>  (49) 
CN(C)C(=O)[C@@H]1CCCN1C(=O)CNC(=O)c1ccc2cc(Cl)ccc2n1

>  <score_type>  (49) 
oracle

>  <origin>  (49) 
autodockgpu

>  <m_score__min__energy>  (49) 
-8.0600000000000005

>  <m_primary>  (49) 
energy

>  <rmsd>  (49) 
3.015173245517141

>  <m_score__min__rmsd>  (49) 
3.015173245517141

>  <meeko>  (49) 
{"free_energy": -7.22, "intermolecular_energy": -8.71, "internal_energy": -2.32, "cluster_size": 34, "cluster_id": 1, "rank_in_cluster": 24}

>  <energy>  (49) 
-5.28

>  <cluster_rmsd>  (49) 
0.2

>  <cluster>  (49) 
6

$$$$

     RDKit          3D

 48 50  0  0  0  0  0  0  0  0999 V2000
  141.0840   81.1560  223.8050 C   0  0  0  0  0  0  0  0  0  0  0  0
  141.8000   80.2590  222.9020 N   0  0  0  0  0  0  0  0  0  0  0  0
  143.2300   80.1600  222.9980 C   0  0  0  0  0  0  0  0  0  0  0  0
  141.0140   79.5020  221.9490 C   0  0  0  0  0  0  0  0  0  0  0  0
  139.7820   79.7090  222.0230 O   0  0  0  0  0  0  0  0  0  0  0  0
  141.7220   78.6210  221.0500 C   0  0  2  0  0  0  0  0  0  0  0  0
  141.5640   79.0080  219.5860 C   0  0  0  0  0  0  0  0  0  0  0  0
  142.0230   77.7620  218.8650 C   0  0  0  0  0  0  0  0  0  0  0  0
  142.2260   76.6940  219.9120 C   0  0  0  0  0  0  0  0  0  0  0  0
  141.3500   77.2420  220.9820 N   0  0  0  0  0  0  0  0  0  0  0  0
  140.4300   76.4190  221.6570 C   0  0  0  0  0  0  0  0  0  0  0  0
  139.8840   76.6660  222.7550 O   0  0  0  0  0  0  0  0  0  0  0  0
  140.0200   75.0920  221.0480 C   0  0  0  0  0  0  0  0  0  0  0  0
  139.9160   74.0840  222.0540 N   0  0  0  0  0  0  0  0  0  0  0  0
  140.2240   72.7190  221.7990 C   0  0  0  0  0  0  0  0  0  0  0  0
  140.6080   72.3150  220.6550 O   0  0  0  0  0  0  0  0  0  0  0  0
  140.0930   71.7360  222.8880 C   0  0  0  0  0  0  0  0  0  0  0  0
  139.5010   70.5270  222.6880 C   0  0  0  0  0  0  0  0  0  0  0  0
  139.4030   69.6290  223.7560 C   0  0  0  0  0  0  0  0  0  0  0  0
  139.9000   69.9730  224.9910 C   0  0  0  0  0  0  0  0  0  0  0  0
  139.8460   69.1500  226.0950 C   0  0  0  0  0  0  0  0  0  0  0  0
  140.3740   69.5690  227.3150 C   0  0  0  0  0  0  0  0  0  0  0  0
  140.2960   68.5040  228.7200 Cl  0  0  0  0  0  0  0  0  0  0  0  0
  140.9670   70.8060  227.4740 C   0  0  0  0  0  0  0  0  0  0  0  0
  141.0210   71.6270  226.3700 C   0  0  0  0  0  0  0  0  0  0  0  0
  140.4990   71.2090  225.1700 C   0  0  0  0  0  0  0  0  0  0  0  0
  140.5670   72.0230  224.1250 N   0  0  0  0  0  0  0  0  0  0  0  0
  141.3043   80.8800  224.8468 H   0  0  0  0  0  0  0  0  0  0  0  0
  141.4061   82.1921  223.6242 H   0  0  0  0  0  0  0  0  0  0  0  0
  140.0023   81.0715  223.6242 H   0  0  0  0  0  0  0  0  0  0  0  0
  143.5258   80.1395  224.0573 H   0  0  0  0  0  0  0  0  0  0  0  0
  143.5675   79.2363  222.5051 H   0  0  0  0  0  0  0  0  0  0  0  0
  143.6916   81.0283  222.5051 H   0  0  0  0  0  0  0  0  0  0  0  0
  142.7185   78.7379  221.5010 H   0  0  0  0  0  0  0  0  0  0  0  0
  140.5158   79.2414  219.3478 H   0  0  0  0  0  0  0  0  0  0  0  0
  142.1308   79.9087  219.3077 H   0  0  0  0  0  0  0  0  0  0  0  0
  141.2588   77.4412  218.1418 H   0  0  0  0  0  0  0  0  0  0  0  0
  142.9547   77.9503  218.3114 H   0  0  0  0  0  0  0  0  0  0  0  0
  141.8847   75.7074  219.5654 H   0  0  0  0  0  0  0  0  0  0  0  0
  143.2708   76.5130  220.2046 H   0  0  0  0  0  0  0  0  0  0  0  0
  139.0452   75.2085  220.5519 H   0  0  0  0  0  0  0  0  0  0  0  0
  140.7856   74.7863  220.3198 H   0  0  0  0  0  0  0  0  0  0  0  0
  139.6020   74.3250  223.0410 H   0  0  0  0  0  0  0  0  0  0  0  0
  139.1041   70.2590  221.6977 H   0  0  0  0  0  0  0  0  0  0  0  0
  138.9284   68.6478  223.6079 H   0  0  0  0  0  0  0  0  0  0  0  0
  139.3830   68.1556  226.0129 H   0  0  0  0  0  0  0  0  0  0  0  0
  141.3795   71.1226  228.4433 H   0  0  0  0  0  0  0  0  0  0  0  0
  141.4840   72.6217  226.4492 H   0  0  0  0  0  0  0  0  0  0  0  0
  1  2  1  0
  2  3  1  0
  2  4  1  0
  4  5  2  0
  4  6  1  0
  6  7  1  0
  7  8  1  0
  8  9  1  0
  9 10  1  0
 10 11  1  0
 11 12  2  0
 11 13  1  0
 13 14  1  0
 14 15  1  0
 15 16  2  0
 15 17  1  0
 17 18  2  0
 18 19  1  0
 19 20  2  0
 20 21  1  0
 21 22  2  0
 22 23  1  0
 22 24  1  0
 24 25  2  0
 25 26  1  0
 26 27  2  0
 10  6  1  0
 27 17  1  0
 26 20  1  0
  1 28  1  0
  1 29  1  0
  1 30  1  0
  3 31  1  0
  3 32  1  0
  3 33  1  0
  6 34  1  1
  7 35  1  0
  7 36  1  0
  8 37  1  0
  8 38  1  0
  9 39  1  0
  9 40  1  0
 13 41  1  0
 13 42  1  0
 14 43  1  0
 18 44  1  0
 19 45  1  0
 21 46  1  0
 24 47  1  0
 25 48  1  0
M  END
>  <smiles>  (50) 
CN(C)C(=O)[C@@H]1CCCN1C(=O)CNC(=O)c1ccc2cc(Cl)ccc2n1

>  <score_type>  (50) 
oracle

>  <origin>  (50) 
autodockgpu

>  <m_score__min__energy>  (50) 
-8.0600000000000005

>  <m_primary>  (50) 
energy

>  <rmsd>  (50) 
2.200497155949735

>  <m_score__min__rmsd>  (50) 
2.200497155949735

>  <meeko>  (50) 
{"free_energy": -7.63, "intermolecular_energy": -9.12, "internal_energy": -1.72, "cluster_size": 34, "cluster_id": 1, "rank_in_cluster": 9}

>  <energy>  (50) 
-5.23

>  <cluster_rmsd>  (50) 
0.27

>  <cluster>  (50) 
6

$$$$
