
     RDKit          3D

 48 51  0  0  0  0  0  0  0  0999 V2000
  140.7760   77.0230  218.6120 O   0  0  0  0  0  0  0  0  0  0  0  0
  141.9960   77.0540  218.8370 C   0  0  0  0  0  0  0  0  0  0  0  0
  142.5750   78.3610  219.0440 N   0  0  0  0  0  0  0  0  0  0  0  0
  141.6480   79.4740  218.9610 C   0  0  0  0  0  0  0  0  0  0  0  0
  140.5720   79.3970  219.9690 C   0  0  0  0  0  0  0  0  0  0  0  0
  139.3560   79.1910  219.6800 O   0  0  0  0  0  0  0  0  0  0  0  0
  140.9340   79.5680  221.3320 N   0  0  0  0  0  0  0  0  0  0  0  0
  140.7860   80.8190  222.0490 C   0  0  0  0  0  0  0  0  0  0  0  0
  142.1820   81.1850  222.5020 C   0  0  0  0  0  0  0  0  0  0  0  0
  142.6050   80.2130  223.5620 C   0  0  0  0  0  0  0  0  0  0  0  0
  141.7410   78.9880  223.5350 C   0  0  0  0  0  0  0  0  0  0  0  0
  141.5020   78.4600  222.1250 C   0  0  1  0  0  0  0  0  0  0  0  0
  140.5640   77.3270  222.2230 C   0  0  0  0  0  0  0  0  0  0  0  0
  139.2220   77.4530  222.3500 N   0  0  0  0  0  0  0  0  0  0  0  0
  138.7070   76.2190  222.4100 C   0  0  0  0  0  0  0  0  0  0  0  0
  139.7510   75.3380  222.3170 C   0  0  0  0  0  0  0  0  0  0  0  0
  139.5840   73.9590  222.3440 O   0  0  0  0  0  0  0  0  0  0  0  0
  140.8360   76.0550  222.2070 O   0  0  0  0  0  0  0  0  0  0  0  0
  142.8180   75.8510  218.8940 C   0  0  0  0  0  0  0  0  0  0  0  0
  142.6690   74.9270  217.8950 C   0  0  0  0  0  0  0  0  0  0  0  0
  143.4040   73.7560  217.8630 C   0  0  0  0  0  0  0  0  0  0  0  0
  144.3070   73.5390  218.8820 C   0  0  0  0  0  0  0  0  0  0  0  0
  145.0300   72.3690  218.8360 C   0  0  0  0  0  0  0  0  0  0  0  0
  145.9390   72.1280  219.8410 C   0  0  0  0  0  0  0  0  0  0  0  0
  146.6370   70.9670  219.7720 F   0  0  0  0  0  0  0  0  0  0  0  0
  146.1070   73.0470  220.8610 C   0  0  0  0  0  0  0  0  0  0  0  0
  145.3660   74.2110  220.8790 C   0  0  0  0  0  0  0  0  0  0  0  0
  144.4560   74.4790  219.8950 C   0  0  0  0  0  0  0  0  0  0  0  0
  143.7050   75.6160  219.8760 N   0  0  0  0  0  0  0  0  0  0  0  0
  143.5960   78.4750  219.2390 H   0  0  0  0  0  0  0  0  0  0  0  0
  142.2067   80.4092  219.1136 H   0  0  0  0  0  0  0  0  0  0  0  0
  141.1757   79.4391  217.9682 H   0  0  0  0  0  0  0  0  0  0  0  0
  140.3791   81.5973  221.3866 H   0  0  0  0  0  0  0  0  0  0  0  0
  140.0901   80.7272  222.8959 H   0  0  0  0  0  0  0  0  0  0  0  0
  142.8754   81.1306  221.6498 H   0  0  0  0  0  0  0  0  0  0  0  0
  142.1933   82.2096  222.9022 H   0  0  0  0  0  0  0  0  0  0  0  0
  143.6509   79.9208  223.3869 H   0  0  0  0  0  0  0  0  0  0  0  0
  142.5023   80.6958  224.5450 H   0  0  0  0  0  0  0  0  0  0  0  0
  142.2308   78.2002  224.1262 H   0  0  0  0  0  0  0  0  0  0  0  0
  140.7622   79.2658  223.9532 H   0  0  0  0  0  0  0  0  0  0  0  0
  142.4249   78.1094  221.6400 H   0  0  0  0  0  0  0  0  0  0  0  0
  137.6429   75.9607  222.5146 H   0  0  0  0  0  0  0  0  0  0  0  0
  138.8740   73.4990  222.9040 H   0  0  0  0  0  0  0  0  0  0  0  0
  141.9421   75.1220  217.0928 H   0  0  0  0  0  0  0  0  0  0  0  0
  143.2728   73.0234  217.0530 H   0  0  0  0  0  0  0  0  0  0  0  0
  144.8855   71.6467  218.0190 H   0  0  0  0  0  0  0  0  0  0  0  0
  146.8348   72.8490  221.6617 H   0  0  0  0  0  0  0  0  0  0  0  0
  145.5096   74.9330  221.6964 H   0  0  0  0  0  0  0  0  0  0  0  0
  1  2  2  0
  2  3  1  0
  3  4  1  0
  4  5  1  0
  5  6  2  0
  5  7  1  0
  7  8  1  0
  8  9  1  0
  9 10  1  0
 10 11  1  0
 11 12  1  0
 12 13  1  0
 13 14  2  0
 14 15  1  0
 15 16  2  0
 16 17  1  0
 16 18  1  0
  2 19  1  0
 19 20  2  0
 20 21  1  0
 21 22  2  0
 22 23  1  0
 23 24  2  0
 24 25  1  0
 24 26  1  0
 26 27  2  0
 27 28  1  0
 28 29  2  0
 12  7  1  0
 18 13  1  0
 29 19  1  0
 28 22  1  0
  3 30  1  0
  4 31  1  0
  4 32  1  0
  8 33  1  0
  8 34  1  0
  9 35  1  0
  9 36  1  0
 10 37  1  0
 10 38  1  0
 11 39  1  0
 11 40  1  0
 12 41  1  6
 15 42  1  0
 17 43  1  0
 20 44  1  0
 21 45  1  0
 23 46  1  0
 26 47  1  0
 27 48  1  0
M  END
>  <smiles>  (1) 
O=C(NCC(=O)N1CCCC[C@H]1c1ncc(O)o1)c1ccc2cc(F)ccc2n1

>  <score_type>  (1) 
oracle

>  <origin>  (1) 
autodockgpu

>  <m_score__min__energy>  (1) 
-7.8899999999999997

>  <m_primary>  (1) 
energy

>  <rmsd>  (1) 
7.477321403137904

>  <m_score__min__rmsd>  (1) 
7.477321403137904

>  <meeko>  (1) 
{"free_energy": -7.28, "intermolecular_energy": -9.07, "internal_energy": -1.85, "cluster_size": 7, "cluster_id": 4, "rank_in_cluster": 2}

>  <energy>  (1) 
-7.89

>  <cluster_rmsd>  (1) 
0.0

>  <cluster>  (1) 
1

$$$$

     RDKit          3D

 48 51  0  0  0  0  0  0  0  0999 V2000
  140.1510   73.8850  222.3400 O   0  0  0  0  0  0  0  0  0  0  0  0
  140.3770   72.6690  222.2460 C   0  0  0  0  0  0  0  0  0  0  0  0
  140.7430   72.1850  220.9350 N   0  0  0  0  0  0  0  0  0  0  0  0
  140.7980   73.1910  219.8930 C   0  0  0  0  0  0  0  0  0  0  0  0
  141.8970   72.9610  218.9340 C   0  0  0  0  0  0  0  0  0  0  0  0
  141.7260   72.4720  217.7780 O   0  0  0  0  0  0  0  0  0  0  0  0
  143.2110   73.3090  219.3440 N   0  0  0  0  0  0  0  0  0  0  0  0
  144.4020   72.6150  218.8940 C   0  0  0  0  0  0  0  0  0  0  0  0
  145.0510   72.0830  220.1520 C   0  0  0  0  0  0  0  0  0  0  0  0
  145.5890   73.2460  220.9330 C   0  0  0  0  0  0  0  0  0  0  0  0
  144.9680   74.5290  220.4720 C   0  0  0  0  0  0  0  0  0  0  0  0
  143.4590   74.4240  220.2800 C   0  0  1  0  0  0  0  0  0  0  0  0
  142.9860   75.7080  219.7320 C   0  0  0  0  0  0  0  0  0  0  0  0
  142.0130   76.4670  220.2910 N   0  0  0  0  0  0  0  0  0  0  0  0
  141.8560   77.5490  219.5200 C   0  0  0  0  0  0  0  0  0  0  0  0
  142.7450   77.4420  218.4830 C   0  0  0  0  0  0  0  0  0  0  0  0
  142.8590   78.3980  217.4820 O   0  0  0  0  0  0  0  0  0  0  0  0
  143.3930   76.3240  218.6610 O   0  0  0  0  0  0  0  0  0  0  0  0
  140.2840   71.7600  223.3830 C   0  0  0  0  0  0  0  0  0  0  0  0
  139.7080   70.5360  223.1770 C   0  0  0  0  0  0  0  0  0  0  0  0
  139.5760   69.6070  224.1940 C   0  0  0  0  0  0  0  0  0  0  0  0
  140.0470   69.9540  225.4420 C   0  0  0  0  0  0  0  0  0  0  0  0
  139.9080   69.0180  226.4430 C   0  0  0  0  0  0  0  0  0  0  0  0
  140.3710   69.3390  227.6990 C   0  0  0  0  0  0  0  0  0  0  0  0
  140.2200   68.4000  228.6670 F   0  0  0  0  0  0  0  0  0  0  0  0
  140.9570   70.5700  227.9310 C   0  0  0  0  0  0  0  0  0  0  0  0
  141.0820   71.4860  226.9060 C   0  0  0  0  0  0  0  0  0  0  0  0
  140.6310   71.1980  225.6480 C   0  0  0  0  0  0  0  0  0  0  0  0
  140.7360   72.0740  224.6100 N   0  0  0  0  0  0  0  0  0  0  0  0
  140.9490   71.1730  220.7710 H   0  0  0  0  0  0  0  0  0  0  0  0
  139.8447   73.1813  219.3442 H   0  0  0  0  0  0  0  0  0  0  0  0
  140.9792   74.1614  220.3783 H   0  0  0  0  0  0  0  0  0  0  0  0
  144.1349   71.7887  218.2188 H   0  0  0  0  0  0  0  0  0  0  0  0
  145.0765   73.2782  218.3327 H   0  0  0  0  0  0  0  0  0  0  0  0
  144.3062   71.5428  220.7549 H   0  0  0  0  0  0  0  0  0  0  0  0
  145.8657   71.3904  219.8942 H   0  0  0  0  0  0  0  0  0  0  0  0
  145.3639   73.0992  221.9997 H   0  0  0  0  0  0  0  0  0  0  0  0
  146.6761   73.3039  220.7756 H   0  0  0  0  0  0  0  0  0  0  0  0
  145.1728   75.3072  221.2220 H   0  0  0  0  0  0  0  0  0  0  0  0
  145.4082   74.7756  219.4945 H   0  0  0  0  0  0  0  0  0  0  0  0
  142.9236   74.2263  221.2204 H   0  0  0  0  0  0  0  0  0  0  0  0
  141.1453   78.3717  219.6875 H   0  0  0  0  0  0  0  0  0  0  0  0
  143.7520   78.7450  217.1480 H   0  0  0  0  0  0  0  0  0  0  0  0
  139.3386   70.2828  222.1723 H   0  0  0  0  0  0  0  0  0  0  0  0
  139.1117   68.6264  224.0129 H   0  0  0  0  0  0  0  0  0  0  0  0
  139.4406   68.0423  226.2444 H   0  0  0  0  0  0  0  0  0  0  0  0
  141.3251   70.8203  228.9369 H   0  0  0  0  0  0  0  0  0  0  0  0
  141.5509   72.4611  227.1041 H   0  0  0  0  0  0  0  0  0  0  0  0
  1  2  2  0
  2  3  1  0
  3  4  1  0
  4  5  1  0
  5  6  2  0
  5  7  1  0
  7  8  1  0
  8  9  1  0
  9 10  1  0
 10 11  1  0
 11 12  1  0
 12 13  1  0
 13 14  2  0
 14 15  1  0
 15 16  2  0
 16 17  1  0
 16 18  1  0
  2 19  1  0
 19 20  2  0
 20 21  1  0
 21 22  2  0
 22 23  1  0
 23 24  2  0
 24 25  1  0
 24 26  1  0
 26 27  2  0
 27 28  1  0
 28 29  2  0
 12  7  1  0
 18 13  1  0
 29 19  1  0
 28 22  1  0
  3 30  1  0
  4 31  1  0
  4 32  1  0
  8 33  1  0
  8 34  1  0
  9 35  1  0
  9 36  1  0
 10 37  1  0
 10 38  1  0
 11 39  1  0
 11 40  1  0
 12 41  1  1
 15 42  1  0
 17 43  1  0
 20 44  1  0
 21 45  1  0
 23 46  1  0
 26 47  1  0
 27 48  1  0
M  END
>  <smiles>  (2) 
O=C(NCC(=O)N1CCCC[C@H]1c1ncc(O)o1)c1ccc2cc(F)ccc2n1

>  <score_type>  (2) 
oracle

>  <origin>  (2) 
autodockgpu

>  <m_score__min__energy>  (2) 
-7.8899999999999997

>  <m_primary>  (2) 
energy

>  <rmsd>  (2) 
3.6191925640101075

>  <m_score__min__rmsd>  (2) 
3.6191925640101075

>  <meeko>  (2) 
{"free_energy": -7.57, "intermolecular_energy": -9.36, "internal_energy": -1.45, "cluster_size": 4, "cluster_id": 2, "rank_in_cluster": 3}

>  <energy>  (2) 
-7.85

>  <cluster_rmsd>  (2) 
1.33

>  <cluster>  (2) 
1

$$$$

     RDKit          3D

 48 51  0  0  0  0  0  0  0  0999 V2000
  140.2160   73.7160  221.9800 O   0  0  0  0  0  0  0  0  0  0  0  0
  141.2590   74.2690  221.5990 C   0  0  0  0  0  0  0  0  0  0  0  0
  141.3180   75.7030  221.7600 N   0  0  0  0  0  0  0  0  0  0  0  0
  140.1430   76.3140  222.3500 C   0  0  0  0  0  0  0  0  0  0  0  0
  139.8380   77.6390  221.7760 C   0  0  0  0  0  0  0  0  0  0  0  0
  138.8040   77.8820  221.0850 O   0  0  0  0  0  0  0  0  0  0  0  0
  140.7640   78.6890  222.0160 N   0  0  0  0  0  0  0  0  0  0  0  0
  141.3400   78.9670  223.3160 C   0  0  0  0  0  0  0  0  0  0  0  0
  140.9260   80.3860  223.6390 C   0  0  0  0  0  0  0  0  0  0  0  0
  141.6610   81.3130  222.7160 C   0  0  0  0  0  0  0  0  0  0  0  0
  142.2110   80.5660  221.5390 C   0  0  0  0  0  0  0  0  0  0  0  0
  141.2090   79.5890  220.9340 C   0  0  1  0  0  0  0  0  0  0  0  0
  141.8960   78.8490  219.8600 C   0  0  0  0  0  0  0  0  0  0  0  0
  142.1400   79.3450  218.6240 N   0  0  0  0  0  0  0  0  0  0  0  0
  142.7750   78.3950  217.9280 C   0  0  0  0  0  0  0  0  0  0  0  0
  142.9160   77.3110  218.7550 C   0  0  0  0  0  0  0  0  0  0  0  0
  143.5350   76.1330  218.3600 O   0  0  0  0  0  0  0  0  0  0  0  0
  142.3720   77.6400  219.8950 O   0  0  0  0  0  0  0  0  0  0  0  0
  142.3740   73.5310  221.0180 C   0  0  0  0  0  0  0  0  0  0  0  0
  143.5220   74.2240  220.7380 C   0  0  0  0  0  0  0  0  0  0  0  0
  144.6320   73.6100  220.1860 C   0  0  0  0  0  0  0  0  0  0  0  0
  144.5520   72.2600  219.9210 C   0  0  0  0  0  0  0  0  0  0  0  0
  145.6650   71.6650  219.3710 C   0  0  0  0  0  0  0  0  0  0  0  0
  145.6110   70.3180  219.0960 C   0  0  0  0  0  0  0  0  0  0  0  0
  146.7220   69.7570  218.5550 F   0  0  0  0  0  0  0  0  0  0  0  0
  144.4630   69.5980  219.3700 C   0  0  0  0  0  0  0  0  0  0  0  0
  143.3630   70.2240  219.9210 C   0  0  0  0  0  0  0  0  0  0  0  0
  143.3850   71.5600  220.2050 C   0  0  0  0  0  0  0  0  0  0  0  0
  142.3210   72.2150  220.7490 N   0  0  0  0  0  0  0  0  0  0  0  0
  142.1620   76.2450  221.4630 H   0  0  0  0  0  0  0  0  0  0  0  0
  139.2809   75.6516  222.1827 H   0  0  0  0  0  0  0  0  0  0  0  0
  140.3465   76.4562  223.4216 H   0  0  0  0  0  0  0  0  0  0  0  0
  140.9458   78.2693  224.0696 H   0  0  0  0  0  0  0  0  0  0  0  0
  142.4336   78.8483  223.3147 H   0  0  0  0  0  0  0  0  0  0  0  0
  139.8415   80.4992  223.4938 H   0  0  0  0  0  0  0  0  0  0  0  0
  141.1683   80.6225  224.6856 H   0  0  0  0  0  0  0  0  0  0  0  0
  140.9690   82.0899  222.3588 H   0  0  0  0  0  0  0  0  0  0  0  0
  142.4972   81.7689  223.2664 H   0  0  0  0  0  0  0  0  0  0  0  0
  142.5019   81.2933  220.7667 H   0  0  0  0  0  0  0  0  0  0  0  0
  143.0708   79.9788  221.8938 H   0  0  0  0  0  0  0  0  0  0  0  0
  140.3302   80.0926  220.5049 H   0  0  0  0  0  0  0  0  0  0  0  0
  143.1197   78.4699  216.8861 H   0  0  0  0  0  0  0  0  0  0  0  0
  144.4760   76.1020  217.9810 H   0  0  0  0  0  0  0  0  0  0  0  0
  143.5624   75.3009  220.9587 H   0  0  0  0  0  0  0  0  0  0  0  0
  145.5469   74.1797  219.9662 H   0  0  0  0  0  0  0  0  0  0  0  0
  146.5718   72.2499  219.1575 H   0  0  0  0  0  0  0  0  0  0  0  0
  144.4260   68.5213  219.1479 H   0  0  0  0  0  0  0  0  0  0  0  0
  142.4562   69.6390  220.1343 H   0  0  0  0  0  0  0  0  0  0  0  0
  1  2  2  0
  2  3  1  0
  3  4  1  0
  4  5  1  0
  5  6  2  0
  5  7  1  0
  7  8  1  0
  8  9  1  0
  9 10  1  0
 10 11  1  0
 11 12  1  0
 12 13  1  0
 13 14  2  0
 14 15  1  0
 15 16  2  0
 16 17  1  0
 16 18  1  0
  2 19  1  0
 19 20  2  0
 20 21  1  0
 21 22  2  0
 22 23  1  0
 23 24  2  0
 24 25  1  0
 24 26  1  0
 26 27  2  0
 27 28  1  0
 28 29  2  0
 12  7  1  0
 18 13  1  0
 29 19  1  0
 28 22  1  0
  3 30  1  0
  4 31  1  0
  4 32  1  0
  8 33  1  0
  8 34  1  0
  9 35  1  0
  9 36  1  0
 10 37  1  0
 10 38  1  0
 11 39  1  0
 11 40  1  0
 12 41  1  6
 15 42  1  0
 17 43  1  0
 20 44  1  0
 21 45  1  0
 23 46  1  0
 26 47  1  0
 27 48  1  0
M  END
>  <smiles>  (3) 
O=C(NCC(=O)N1CCCC[C@H]1c1ncc(O)o1)c1ccc2cc(F)ccc2n1

>  <score_type>  (3) 
oracle

>  <origin>  (3) 
autodockgpu

>  <m_score__min__energy>  (3) 
-7.8899999999999997

>  <m_primary>  (3) 
energy

>  <rmsd>  (3) 
6.738580175635051

>  <m_score__min__rmsd>  (3) 
6.738580175635051

>  <meeko>  (3) 
{"free_energy": -6.79, "intermolecular_energy": -8.58, "internal_energy": -2.29, "cluster_size": 11, "cluster_id": 5, "rank_in_cluster": 7}

>  <energy>  (3) 
-7.84

>  <cluster_rmsd>  (3) 
1.34

>  <cluster>  (3) 
1

$$$$

     RDKit          3D

 48 51  0  0  0  0  0  0  0  0999 V2000
  140.0480   73.8270  221.8860 O   0  0  0  0  0  0  0  0  0  0  0  0
  141.1050   74.3910  221.5640 C   0  0  0  0  0  0  0  0  0  0  0  0
  141.1630   75.8170  221.7890 N   0  0  0  0  0  0  0  0  0  0  0  0
  139.9700   76.4060  222.3640 C   0  0  0  0  0  0  0  0  0  0  0  0
  139.7390   77.7900  221.9060 C   0  0  0  0  0  0  0  0  0  0  0  0
  138.6820   78.1660  221.3150 O   0  0  0  0  0  0  0  0  0  0  0  0
  140.7650   78.7420  222.1450 N   0  0  0  0  0  0  0  0  0  0  0  0
  141.4190   78.9110  223.4280 C   0  0  0  0  0  0  0  0  0  0  0  0
  141.1490   80.3460  223.8250 C   0  0  0  0  0  0  0  0  0  0  0  0
  141.9260   81.2430  222.9080 C   0  0  0  0  0  0  0  0  0  0  0  0
  142.3550   80.5030  221.6780 C   0  0  0  0  0  0  0  0  0  0  0  0
  141.2440   79.6460  221.0810 C   0  0  1  0  0  0  0  0  0  0  0  0
  141.8150   78.8960  219.9480 C   0  0  0  0  0  0  0  0  0  0  0  0
  141.8290   79.3370  218.6670 N   0  0  0  0  0  0  0  0  0  0  0  0
  142.4230   78.3950  217.9250 C   0  0  0  0  0  0  0  0  0  0  0  0
  142.7720   77.3730  218.7680 C   0  0  0  0  0  0  0  0  0  0  0  0
  143.4140   76.2200  218.3360 O   0  0  0  0  0  0  0  0  0  0  0  0
  142.3840   77.7270  219.9630 O   0  0  0  0  0  0  0  0  0  0  0  0
  142.2380   73.6740  220.9910 C   0  0  0  0  0  0  0  0  0  0  0  0
  143.3570   74.3960  220.6740 C   0  0  0  0  0  0  0  0  0  0  0  0
  144.4810   73.8040  220.1260 C   0  0  0  0  0  0  0  0  0  0  0  0
  144.4440   72.4450  219.9030 C   0  0  0  0  0  0  0  0  0  0  0  0
  145.5700   71.8720  219.3570 C   0  0  0  0  0  0  0  0  0  0  0  0
  145.5600   70.5150  219.1240 C   0  0  0  0  0  0  0  0  0  0  0  0
  146.6820   69.9760  218.5840 F   0  0  0  0  0  0  0  0  0  0  0  0
  144.4400   69.7650  219.4360 C   0  0  0  0  0  0  0  0  0  0  0  0
  143.3270   70.3700  219.9820 C   0  0  0  0  0  0  0  0  0  0  0  0
  143.3060   71.7140  220.2250 C   0  0  0  0  0  0  0  0  0  0  0  0
  142.2270   72.3490  220.7630 N   0  0  0  0  0  0  0  0  0  0  0  0
  142.0180   76.3680  221.5440 H   0  0  0  0  0  0  0  0  0  0  0  0
  139.1026   75.7921  222.0797 H   0  0  0  0  0  0  0  0  0  0  0  0
  140.1078   76.4363  223.4549 H   0  0  0  0  0  0  0  0  0  0  0  0
  140.9956   78.2191  224.1709 H   0  0  0  0  0  0  0  0  0  0  0  0
  142.4963   78.6957  223.3718 H   0  0  0  0  0  0  0  0  0  0  0  0
  140.0742   80.5613  223.7331 H   0  0  0  0  0  0  0  0  0  0  0  0
  141.4547   80.5143  224.8682 H   0  0  0  0  0  0  0  0  0  0  0  0
  141.2937   82.0940  222.6148 H   0  0  0  0  0  0  0  0  0  0  0  0
  142.8229   81.5970  223.4374 H   0  0  0  0  0  0  0  0  0  0  0  0
  142.6773   81.2351  220.9229 H   0  0  0  0  0  0  0  0  0  0  0  0
  143.1723   79.8267  221.9689 H   0  0  0  0  0  0  0  0  0  0  0  0
  140.3973   80.2443  220.7134 H   0  0  0  0  0  0  0  0  0  0  0  0
  142.5985   78.4340  216.8398 H   0  0  0  0  0  0  0  0  0  0  0  0
  144.3940   76.1970  218.0750 H   0  0  0  0  0  0  0  0  0  0  0  0
  143.3627   75.4800  220.8607 H   0  0  0  0  0  0  0  0  0  0  0  0
  145.3730   74.3976  219.8771 H   0  0  0  0  0  0  0  0  0  0  0  0
  146.4531   72.4810  219.1136 H   0  0  0  0  0  0  0  0  0  0  0  0
  144.4371   68.6812  219.2478 H   0  0  0  0  0  0  0  0  0  0  0  0
  142.4436   69.7613  220.2252 H   0  0  0  0  0  0  0  0  0  0  0  0
  1  2  2  0
  2  3  1  0
  3  4  1  0
  4  5  1  0
  5  6  2  0
  5  7  1  0
  7  8  1  0
  8  9  1  0
  9 10  1  0
 10 11  1  0
 11 12  1  0
 12 13  1  0
 13 14  2  0
 14 15  1  0
 15 16  2  0
 16 17  1  0
 16 18  1  0
  2 19  1  0
 19 20  2  0
 20 21  1  0
 21 22  2  0
 22 23  1  0
 23 24  2  0
 24 25  1  0
 24 26  1  0
 26 27  2  0
 27 28  1  0
 28 29  2  0
 12  7  1  0
 18 13  1  0
 29 19  1  0
 28 22  1  0
  3 30  1  0
  4 31  1  0
  4 32  1  0
  8 33  1  0
  8 34  1  0
  9 35  1  0
  9 36  1  0
 10 37  1  0
 10 38  1  0
 11 39  1  0
 11 40  1  0
 12 41  1  6
 15 42  1  0
 17 43  1  0
 20 44  1  0
 21 45  1  0
 23 46  1  0
 26 47  1  0
 27 48  1  0
M  END
>  <smiles>  (4) 
O=C(NCC(=O)N1CCCC[C@H]1c1ncc(O)o1)c1ccc2cc(F)ccc2n1

>  <score_type>  (4) 
oracle

>  <origin>  (4) 
autodockgpu

>  <m_score__min__energy>  (4) 
-7.8899999999999997

>  <m_primary>  (4) 
energy

>  <rmsd>  (4) 
6.7527993446904295

>  <m_score__min__rmsd>  (4) 
6.7527993446904295

>  <meeko>  (4) 
{"free_energy": -6.82, "intermolecular_energy": -8.61, "internal_energy": -2.31, "cluster_size": 11, "cluster_id": 5, "rank_in_cluster": 6}

>  <energy>  (4) 
-7.84

>  <cluster_rmsd>  (4) 
1.1

>  <cluster>  (4) 
1

$$$$

     RDKit          3D

 48 51  0  0  0  0  0  0  0  0999 V2000
  140.1920   71.0720  221.3710 O   0  0  0  0  0  0  0  0  0  0  0  0
  139.9320   71.5810  222.4720 C   0  0  0  0  0  0  0  0  0  0  0  0
  139.5770   72.9810  222.4630 N   0  0  0  0  0  0  0  0  0  0  0  0
  139.5710   73.6130  221.1580 C   0  0  0  0  0  0  0  0  0  0  0  0
  140.6100   74.6530  221.0230 C   0  0  0  0  0  0  0  0  0  0  0  0
  140.4400   75.8620  221.3600 O   0  0  0  0  0  0  0  0  0  0  0  0
  141.8650   74.2620  220.4830 N   0  0  0  0  0  0  0  0  0  0  0  0
  142.1180   72.9560  219.9090 C   0  0  0  0  0  0  0  0  0  0  0  0
  143.2370   72.3670  220.7400 C   0  0  0  0  0  0  0  0  0  0  0  0
  144.4930   73.1350  220.4500 C   0  0  0  0  0  0  0  0  0  0  0  0
  144.1770   74.4480  219.8010 C   0  0  0  0  0  0  0  0  0  0  0  0
  143.0210   75.1800  220.4730 C   0  0  1  0  0  0  0  0  0  0  0  0
  142.7420   76.3960  219.6870 C   0  0  0  0  0  0  0  0  0  0  0  0
  142.2120   77.5330  220.1970 N   0  0  0  0  0  0  0  0  0  0  0  0
  142.1040   78.4110  219.1930 C   0  0  0  0  0  0  0  0  0  0  0  0
  142.5750   77.7960  218.0630 C   0  0  0  0  0  0  0  0  0  0  0  0
  142.6140   78.4190  216.8220 O   0  0  0  0  0  0  0  0  0  0  0  0
  142.9430   76.5950  218.4170 O   0  0  0  0  0  0  0  0  0  0  0  0
  139.9760   70.8250  223.7190 C   0  0  0  0  0  0  0  0  0  0  0  0
  139.4460   69.5630  223.7210 C   0  0  0  0  0  0  0  0  0  0  0  0
  139.4420   68.7710  224.8550 C   0  0  0  0  0  0  0  0  0  0  0  0
  139.9950   69.2950  226.0030 C   0  0  0  0  0  0  0  0  0  0  0  0
  139.9830   68.4940  227.1230 C   0  0  0  0  0  0  0  0  0  0  0  0
  140.5300   68.9930  228.2830 C   0  0  0  0  0  0  0  0  0  0  0  0
  140.5040   68.1830  229.3720 F   0  0  0  0  0  0  0  0  0  0  0  0
  141.0710   70.2660  228.3060 C   0  0  0  0  0  0  0  0  0  0  0  0
  141.0670   71.0440  227.1660 C   0  0  0  0  0  0  0  0  0  0  0  0
  140.5320   70.5770  225.9990 C   0  0  0  0  0  0  0  0  0  0  0  0
  140.5100   71.3130  224.8530 N   0  0  0  0  0  0  0  0  0  0  0  0
  139.3440   73.4850  223.3490 H   0  0  0  0  0  0  0  0  0  0  0  0
  139.7437   72.8418  220.3929 H   0  0  0  0  0  0  0  0  0  0  0  0
  138.5938   74.1016  221.0304 H   0  0  0  0  0  0  0  0  0  0  0  0
  141.2183   72.3262  219.9719 H   0  0  0  0  0  0  0  0  0  0  0  0
  142.3867   73.0201  218.8443 H   0  0  0  0  0  0  0  0  0  0  0  0
  142.9894   72.4486  221.8087 H   0  0  0  0  0  0  0  0  0  0  0  0
  143.3759   71.3047  220.4905 H   0  0  0  0  0  0  0  0  0  0  0  0
  145.0290   73.3187  221.3928 H   0  0  0  0  0  0  0  0  0  0  0  0
  145.1167   72.5438  219.7634 H   0  0  0  0  0  0  0  0  0  0  0  0
  145.0713   75.0867  219.8479 H   0  0  0  0  0  0  0  0  0  0  0  0
  143.8765   74.2391  218.7637 H   0  0  0  0  0  0  0  0  0  0  0  0
  143.2498   75.4767  221.5072 H   0  0  0  0  0  0  0  0  0  0  0  0
  141.7103   79.4358  219.2621 H   0  0  0  0  0  0  0  0  0  0  0  0
  143.2680   79.1610  216.5950 H   0  0  0  0  0  0  0  0  0  0  0  0
  139.0099   69.1665  222.7923 H   0  0  0  0  0  0  0  0  0  0  0  0
  139.0124   67.7584  224.8408 H   0  0  0  0  0  0  0  0  0  0  0  0
  139.5485   67.4839  227.0914 H   0  0  0  0  0  0  0  0  0  0  0  0
  141.5060   70.6597  229.2365 H   0  0  0  0  0  0  0  0  0  0  0  0
  141.5007   72.0544  227.1976 H   0  0  0  0  0  0  0  0  0  0  0  0
  1  2  2  0
  2  3  1  0
  3  4  1  0
  4  5  1  0
  5  6  2  0
  5  7  1  0
  7  8  1  0
  8  9  1  0
  9 10  1  0
 10 11  1  0
 11 12  1  0
 12 13  1  0
 13 14  2  0
 14 15  1  0
 15 16  2  0
 16 17  1  0
 16 18  1  0
  2 19  1  0
 19 20  2  0
 20 21  1  0
 21 22  2  0
 22 23  1  0
 23 24  2  0
 24 25  1  0
 24 26  1  0
 26 27  2  0
 27 28  1  0
 28 29  2  0
 12  7  1  0
 18 13  1  0
 29 19  1  0
 28 22  1  0
  3 30  1  0
  4 31  1  0
  4 32  1  0
  8 33  1  0
  8 34  1  0
  9 35  1  0
  9 36  1  0
 10 37  1  0
 10 38  1  0
 11 39  1  0
 11 40  1  0
 12 41  1  1
 15 42  1  0
 17 43  1  0
 20 44  1  0
 21 45  1  0
 23 46  1  0
 26 47  1  0
 27 48  1  0
M  END
>  <smiles>  (5) 
O=C(NCC(=O)N1CCCC[C@H]1c1ncc(O)o1)c1ccc2cc(F)ccc2n1

>  <score_type>  (5) 
oracle

>  <origin>  (5) 
autodockgpu

>  <m_score__min__energy>  (5) 
-7.8899999999999997

>  <m_primary>  (5) 
energy

>  <rmsd>  (5) 
2.7621073730898984

>  <m_score__min__rmsd>  (5) 
2.7621073730898984

>  <meeko>  (5) 
{"free_energy": -7.65, "intermolecular_energy": -9.44, "internal_energy": -1.46, "cluster_size": 4, "cluster_id": 2, "rank_in_cluster": 2}

>  <energy>  (5) 
-7.74

>  <cluster_rmsd>  (5) 
1.07

>  <cluster>  (5) 
1

$$$$

     RDKit          3D

 48 51  0  0  0  0  0  0  0  0999 V2000
  140.0280   73.9170  221.9240 O   0  0  0  0  0  0  0  0  0  0  0  0
  141.0820   74.4840  221.5960 C   0  0  0  0  0  0  0  0  0  0  0  0
  141.1320   75.9120  221.8050 N   0  0  0  0  0  0  0  0  0  0  0  0
  139.9360   76.5010  222.3760 C   0  0  0  0  0  0  0  0  0  0  0  0
  139.7670   77.9200  222.0090 C   0  0  0  0  0  0  0  0  0  0  0  0
  138.7020   78.3930  221.5110 O   0  0  0  0  0  0  0  0  0  0  0  0
  140.8670   78.7920  222.2300 N   0  0  0  0  0  0  0  0  0  0  0  0
  141.6000   78.8580  223.4780 C   0  0  0  0  0  0  0  0  0  0  0  0
  141.4490   80.2860  223.9530 C   0  0  0  0  0  0  0  0  0  0  0  0
  142.2320   81.1740  223.0320 C   0  0  0  0  0  0  0  0  0  0  0  0
  142.5420   80.4670  221.7480 C   0  0  0  0  0  0  0  0  0  0  0  0
  141.3450   79.7130  221.1800 C   0  0  1  0  0  0  0  0  0  0  0  0
  141.8010   78.9830  219.9840 C   0  0  0  0  0  0  0  0  0  0  0  0
  142.0470   77.6510  219.9470 N   0  0  0  0  0  0  0  0  0  0  0  0
  142.4410   77.3500  218.7040 C   0  0  0  0  0  0  0  0  0  0  0  0
  142.4320   78.5140  217.9810 C   0  0  0  0  0  0  0  0  0  0  0  0
  142.7880   78.5750  216.6400 O   0  0  0  0  0  0  0  0  0  0  0  0
  142.0420   79.4560  218.7960 O   0  0  0  0  0  0  0  0  0  0  0  0
  142.2180   73.7680  221.0280 C   0  0  0  0  0  0  0  0  0  0  0  0
  143.3270   74.4950  220.6890 C   0  0  0  0  0  0  0  0  0  0  0  0
  144.4530   73.9030  220.1440 C   0  0  0  0  0  0  0  0  0  0  0  0
  144.4280   72.5390  219.9480 C   0  0  0  0  0  0  0  0  0  0  0  0
  145.5570   71.9670  219.4050 C   0  0  0  0  0  0  0  0  0  0  0  0
  145.5580   70.6060  219.1980 C   0  0  0  0  0  0  0  0  0  0  0  0
  146.6820   70.0680  218.6610 F   0  0  0  0  0  0  0  0  0  0  0  0
  144.4490   69.8510  219.5320 C   0  0  0  0  0  0  0  0  0  0  0  0
  143.3330   70.4550  220.0750 C   0  0  0  0  0  0  0  0  0  0  0  0
  143.3010   71.8040  220.2920 C   0  0  0  0  0  0  0  0  0  0  0  0
  142.2190   72.4380  220.8260 N   0  0  0  0  0  0  0  0  0  0  0  0
  141.9840   76.4650  221.5550 H   0  0  0  0  0  0  0  0  0  0  0  0
  139.0614   75.9385  222.0173 H   0  0  0  0  0  0  0  0  0  0  0  0
  140.0321   76.4509  223.4707 H   0  0  0  0  0  0  0  0  0  0  0  0
  141.1731   78.1600  224.2132 H   0  0  0  0  0  0  0  0  0  0  0  0
  142.6558   78.5775  223.3494 H   0  0  0  0  0  0  0  0  0  0  0  0
  140.3875   80.5740  223.9341 H   0  0  0  0  0  0  0  0  0  0  0  0
  141.8228   80.3844  224.9829 H   0  0  0  0  0  0  0  0  0  0  0  0
  141.6424   82.0766  222.8135 H   0  0  0  0  0  0  0  0  0  0  0  0
  143.1784   81.4447  223.5230 H   0  0  0  0  0  0  0  0  0  0  0  0
  142.8706   81.2117  221.0081 H   0  0  0  0  0  0  0  0  0  0  0  0
  143.3269   79.7264  221.9610 H   0  0  0  0  0  0  0  0  0  0  0  0
  140.5208   80.3809  220.8890 H   0  0  0  0  0  0  0  0  0  0  0  0
  142.7202   76.3533  218.3318 H   0  0  0  0  0  0  0  0  0  0  0  0
  143.3100   79.3480  216.2410 H   0  0  0  0  0  0  0  0  0  0  0  0
  143.3232   75.5824  220.8547 H   0  0  0  0  0  0  0  0  0  0  0  0
  145.3371   74.5003  219.8766 H   0  0  0  0  0  0  0  0  0  0  0  0
  146.4325   72.5798  219.1443 H   0  0  0  0  0  0  0  0  0  0  0  0
  144.4561   68.7639  219.3642 H   0  0  0  0  0  0  0  0  0  0  0  0
  142.4576   69.8424  220.3366 H   0  0  0  0  0  0  0  0  0  0  0  0
  1  2  2  0
  2  3  1  0
  3  4  1  0
  4  5  1  0
  5  6  2  0
  5  7  1  0
  7  8  1  0
  8  9  1  0
  9 10  1  0
 10 11  1  0
 11 12  1  0
 12 13  1  0
 13 14  2  0
 14 15  1  0
 15 16  2  0
 16 17  1  0
 16 18  1  0
  2 19  1  0
 19 20  2  0
 20 21  1  0
 21 22  2  0
 22 23  1  0
 23 24  2  0
 24 25  1  0
 24 26  1  0
 26 27  2  0
 27 28  1  0
 28 29  2  0
 12  7  1  0
 18 13  1  0
 29 19  1  0
 28 22  1  0
  3 30  1  0
  4 31  1  0
  4 32  1  0
  8 33  1  0
  8 34  1  0
  9 35  1  0
  9 36  1  0
 10 37  1  0
 10 38  1  0
 11 39  1  0
 11 40  1  0
 12 41  1  6
 15 42  1  0
 17 43  1  0
 20 44  1  0
 21 45  1  0
 23 46  1  0
 26 47  1  0
 27 48  1  0
M  END
>  <smiles>  (6) 
O=C(NCC(=O)N1CCCC[C@H]1c1ncc(O)o1)c1ccc2cc(F)ccc2n1

>  <score_type>  (6) 
oracle

>  <origin>  (6) 
autodockgpu

>  <m_score__min__energy>  (6) 
-7.8899999999999997

>  <m_primary>  (6) 
energy

>  <rmsd>  (6) 
6.736453197516038

>  <m_score__min__rmsd>  (6) 
6.736453197516038

>  <meeko>  (6) 
{"free_energy": -7.11, "intermolecular_energy": -8.9, "internal_energy": -2.09, "cluster_size": 11, "cluster_id": 5, "rank_in_cluster": 2}

>  <energy>  (6) 
-7.72

>  <cluster_rmsd>  (6) 
1.33

>  <cluster>  (6) 
1

$$$$

     RDKit          3D

 48 51  0  0  0  0  0  0  0  0999 V2000
  137.4800   70.2410  221.9330 O   0  0  0  0  0  0  0  0  0  0  0  0
  138.1650   70.9070  222.7240 C   0  0  0  0  0  0  0  0  0  0  0  0
  138.3380   72.3040  222.4010 N   0  0  0  0  0  0  0  0  0  0  0  0
  137.6850   72.7490  221.1860 C   0  0  0  0  0  0  0  0  0  0  0  0
  136.3000   73.2050  221.4150 C   0  0  0  0  0  0  0  0  0  0  0  0
  135.3470   72.9810  220.6120 O   0  0  0  0  0  0  0  0  0  0  0  0
  136.0370   73.9350  222.6050 N   0  0  0  0  0  0  0  0  0  0  0  0
  135.5730   73.3240  223.8340 C   0  0  0  0  0  0  0  0  0  0  0  0
  134.2450   73.9840  224.1300 C   0  0  0  0  0  0  0  0  0  0  0  0
  134.5030   75.4110  224.5160 C   0  0  0  0  0  0  0  0  0  0  0  0
  135.8750   75.8370  224.0880 C   0  0  0  0  0  0  0  0  0  0  0  0
  136.2180   75.3990  222.6690 C   0  0  1  0  0  0  0  0  0  0  0  0
  137.6170   75.7850  222.4060 C   0  0  0  0  0  0  0  0  0  0  0  0
  138.0280   77.0500  222.1560 N   0  0  0  0  0  0  0  0  0  0  0  0
  139.3520   77.0120  221.9670 C   0  0  0  0  0  0  0  0  0  0  0  0
  139.7450   75.7080  222.1050 C   0  0  0  0  0  0  0  0  0  0  0  0
  141.0650   75.2970  221.9740 O   0  0  0  0  0  0  0  0  0  0  0  0
  138.6680   75.0190  222.3670 O   0  0  0  0  0  0  0  0  0  0  0  0
  138.7700   70.3320  223.9200 C   0  0  0  0  0  0  0  0  0  0  0  0
  138.7110   68.9730  224.0760 C   0  0  0  0  0  0  0  0  0  0  0  0
  139.2560   68.3360  225.1760 C   0  0  0  0  0  0  0  0  0  0  0  0
  139.8710   69.1200  226.1290 C   0  0  0  0  0  0  0  0  0  0  0  0
  140.4080   68.4710  227.2180 C   0  0  0  0  0  0  0  0  0  0  0  0
  141.0290   69.2300  228.1840 C   0  0  0  0  0  0  0  0  0  0  0  0
  141.5490   68.5650  229.2470 F   0  0  0  0  0  0  0  0  0  0  0  0
  141.1010   70.6040  228.0480 C   0  0  0  0  0  0  0  0  0  0  0  0
  140.5520   71.2250  226.9450 C   0  0  0  0  0  0  0  0  0  0  0  0
  139.9290   70.4990  225.9690 C   0  0  0  0  0  0  0  0  0  0  0  0
  139.3750   71.0740  224.8640 N   0  0  0  0  0  0  0  0  0  0  0  0
  138.9020   72.9350  223.0170 H   0  0  0  0  0  0  0  0  0  0  0  0
  138.2637   73.5824  220.7610 H   0  0  0  0  0  0  0  0  0  0  0  0
  137.6418   71.8904  220.4998 H   0  0  0  0  0  0  0  0  0  0  0  0
  135.4434   72.2399  223.7005 H   0  0  0  0  0  0  0  0  0  0  0  0
  136.2910   73.4594  224.6563 H   0  0  0  0  0  0  0  0  0  0  0  0
  133.6056   73.9505  223.2356 H   0  0  0  0  0  0  0  0  0  0  0  0
  133.7341   73.4565  224.9490 H   0  0  0  0  0  0  0  0  0  0  0  0
  133.7567   76.0568  224.0303 H   0  0  0  0  0  0  0  0  0  0  0  0
  134.4309   75.4995  225.6101 H   0  0  0  0  0  0  0  0  0  0  0  0
  135.9338   76.9342  224.1402 H   0  0  0  0  0  0  0  0  0  0  0  0
  136.5958   75.3549  224.7649 H   0  0  0  0  0  0  0  0  0  0  0  0
  135.5760   75.8717  221.9111 H   0  0  0  0  0  0  0  0  0  0  0  0
  140.0036   77.8693  221.7424 H   0  0  0  0  0  0  0  0  0  0  0  0
  141.8500   75.9380  222.0070 H   0  0  0  0  0  0  0  0  0  0  0  0
  138.2146   68.3689  223.3022 H   0  0  0  0  0  0  0  0  0  0  0  0
  139.2008   67.2430  225.2866 H   0  0  0  0  0  0  0  0  0  0  0  0
  140.3427   67.3771  227.3134 H   0  0  0  0  0  0  0  0  0  0  0  0
  141.5986   71.2052  228.8232 H   0  0  0  0  0  0  0  0  0  0  0  0
  140.6166   72.3190  226.8499 H   0  0  0  0  0  0  0  0  0  0  0  0
  1  2  2  0
  2  3  1  0
  3  4  1  0
  4  5  1  0
  5  6  2  0
  5  7  1  0
  7  8  1  0
  8  9  1  0
  9 10  1  0
 10 11  1  0
 11 12  1  0
 12 13  1  0
 13 14  2  0
 14 15  1  0
 15 16  2  0
 16 17  1  0
 16 18  1  0
  2 19  1  0
 19 20  2  0
 20 21  1  0
 21 22  2  0
 22 23  1  0
 23 24  2  0
 24 25  1  0
 24 26  1  0
 26 27  2  0
 27 28  1  0
 28 29  2  0
 12  7  1  0
 18 13  1  0
 29 19  1  0
 28 22  1  0
  3 30  1  0
  4 31  1  0
  4 32  1  0
  8 33  1  0
  8 34  1  0
  9 35  1  0
  9 36  1  0
 10 37  1  0
 10 38  1  0
 11 39  1  0
 11 40  1  0
 12 41  1  6
 15 42  1  0
 17 43  1  0
 20 44  1  0
 21 45  1  0
 23 46  1  0
 26 47  1  0
 27 48  1  0
M  END
>  <smiles>  (7) 
O=C(NCC(=O)N1CCCC[C@H]1c1ncc(O)o1)c1ccc2cc(F)ccc2n1

>  <score_type>  (7) 
oracle

>  <origin>  (7) 
autodockgpu

>  <m_score__min__energy>  (7) 
-7.8899999999999997

>  <m_primary>  (7) 
energy

>  <rmsd>  (7) 
4.423200503948242

>  <m_score__min__rmsd>  (7) 
4.423200503948242

>  <meeko>  (7) 
{"free_energy": -6.65, "intermolecular_energy": -8.44, "internal_energy": -2.29, "cluster_size": 7, "cluster_id": 7, "rank_in_cluster": 4}

>  <energy>  (7) 
-7.69

>  <cluster_rmsd>  (7) 
1.33

>  <cluster>  (7) 
1

$$$$

     RDKit          3D

 48 51  0  0  0  0  0  0  0  0999 V2000
  137.9130   70.0790  221.5830 O   0  0  0  0  0  0  0  0  0  0  0  0
  138.3120   70.8150  222.4980 C   0  0  0  0  0  0  0  0  0  0  0  0
  138.1600   72.2360  222.2880 N   0  0  0  0  0  0  0  0  0  0  0  0
  137.5580   72.6190  221.0260 C   0  0  0  0  0  0  0  0  0  0  0  0
  136.2870   73.3490  221.1980 C   0  0  0  0  0  0  0  0  0  0  0  0
  135.4310   73.4920  220.2740 O   0  0  0  0  0  0  0  0  0  0  0  0
  136.0220   73.9170  222.4720 N   0  0  0  0  0  0  0  0  0  0  0  0
  135.5460   73.1520  223.6080 C   0  0  0  0  0  0  0  0  0  0  0  0
  134.2210   73.7790  223.9820 C   0  0  0  0  0  0  0  0  0  0  0  0
  134.4870   75.1390  224.5540 C   0  0  0  0  0  0  0  0  0  0  0  0
  135.8640   75.6070  224.1940 C   0  0  0  0  0  0  0  0  0  0  0  0
  136.2130   75.3580  222.7310 C   0  0  1  0  0  0  0  0  0  0  0  0
  137.6160   75.7640  222.5280 C   0  0  0  0  0  0  0  0  0  0  0  0
  138.0480   77.0470  222.5190 N   0  0  0  0  0  0  0  0  0  0  0  0
  139.3700   77.0240  222.3090 C   0  0  0  0  0  0  0  0  0  0  0  0
  139.7400   75.7110  222.1910 C   0  0  0  0  0  0  0  0  0  0  0  0
  141.0510   75.3110  221.9660 O   0  0  0  0  0  0  0  0  0  0  0  0
  138.6520   75.0030  222.3300 O   0  0  0  0  0  0  0  0  0  0  0  0
  138.9030   70.2960  223.7260 C   0  0  0  0  0  0  0  0  0  0  0  0
  138.8790   68.9420  223.9240 C   0  0  0  0  0  0  0  0  0  0  0  0
  139.4150   68.3570  225.0580 C   0  0  0  0  0  0  0  0  0  0  0  0
  139.9840   69.1880  225.9990 C   0  0  0  0  0  0  0  0  0  0  0  0
  140.5120   68.5900  227.1200 C   0  0  0  0  0  0  0  0  0  0  0  0
  141.0870   69.3970  228.0760 C   0  0  0  0  0  0  0  0  0  0  0  0
  141.5990   68.7820  229.1720 F   0  0  0  0  0  0  0  0  0  0  0  0
  141.1230   70.7680  227.8970 C   0  0  0  0  0  0  0  0  0  0  0  0
  140.5840   71.3370  226.7610 C   0  0  0  0  0  0  0  0  0  0  0  0
  140.0070   70.5620  225.7950 C   0  0  0  0  0  0  0  0  0  0  0  0
  139.4640   71.0850  224.6590 N   0  0  0  0  0  0  0  0  0  0  0  0
  138.4720   72.9250  223.0110 H   0  0  0  0  0  0  0  0  0  0  0  0
  138.2632   73.2642  220.4815 H   0  0  0  0  0  0  0  0  0  0  0  0
  137.3376   71.6958  220.4700 H   0  0  0  0  0  0  0  0  0  0  0  0
  135.4087   72.0962  223.3317 H   0  0  0  0  0  0  0  0  0  0  0  0
  136.2602   73.1709  224.4444 H   0  0  0  0  0  0  0  0  0  0  0  0
  133.5870   73.8694  223.0877 H   0  0  0  0  0  0  0  0  0  0  0  0
  133.7012   73.1524  224.7217 H   0  0  0  0  0  0  0  0  0  0  0  0
  133.7485   75.8493  224.1540 H   0  0  0  0  0  0  0  0  0  0  0  0
  134.4089   75.0823  225.6498 H   0  0  0  0  0  0  0  0  0  0  0  0
  135.9302   76.6871  224.3914 H   0  0  0  0  0  0  0  0  0  0  0  0
  136.5770   75.0341  224.8050 H   0  0  0  0  0  0  0  0  0  0  0  0
  135.5788   75.9324  222.0397 H   0  0  0  0  0  0  0  0  0  0  0  0
  140.0353   77.8975  222.2435 H   0  0  0  0  0  0  0  0  0  0  0  0
  141.8370   75.9510  221.9920 H   0  0  0  0  0  0  0  0  0  0  0  0
  138.4197   68.2992  223.1586 H   0  0  0  0  0  0  0  0  0  0  0  0
  139.3878   67.2670  225.2032 H   0  0  0  0  0  0  0  0  0  0  0  0
  140.4758   67.4982  227.2488 H   0  0  0  0  0  0  0  0  0  0  0  0
  141.5835   71.4081  228.6639 H   0  0  0  0  0  0  0  0  0  0  0  0
  140.6194   72.4288  226.6316 H   0  0  0  0  0  0  0  0  0  0  0  0
  1  2  2  0
  2  3  1  0
  3  4  1  0
  4  5  1  0
  5  6  2  0
  5  7  1  0
  7  8  1  0
  8  9  1  0
  9 10  1  0
 10 11  1  0
 11 12  1  0
 12 13  1  0
 13 14  2  0
 14 15  1  0
 15 16  2  0
 16 17  1  0
 16 18  1  0
  2 19  1  0
 19 20  2  0
 20 21  1  0
 21 22  2  0
 22 23  1  0
 23 24  2  0
 24 25  1  0
 24 26  1  0
 26 27  2  0
 27 28  1  0
 28 29  2  0
 12  7  1  0
 18 13  1  0
 29 19  1  0
 28 22  1  0
  3 30  1  0
  4 31  1  0
  4 32  1  0
  8 33  1  0
  8 34  1  0
  9 35  1  0
  9 36  1  0
 10 37  1  0
 10 38  1  0
 11 39  1  0
 11 40  1  0
 12 41  1  6
 15 42  1  0
 17 43  1  0
 20 44  1  0
 21 45  1  0
 23 46  1  0
 26 47  1  0
 27 48  1  0
M  END
>  <smiles>  (8) 
O=C(NCC(=O)N1CCCC[C@H]1c1ncc(O)o1)c1ccc2cc(F)ccc2n1

>  <score_type>  (8) 
oracle

>  <origin>  (8) 
autodockgpu

>  <m_score__min__energy>  (8) 
-7.8899999999999997

>  <m_primary>  (8) 
energy

>  <rmsd>  (8) 
4.412536488621969

>  <m_score__min__rmsd>  (8) 
4.412536488621969

>  <meeko>  (8) 
{"free_energy": -6.69, "intermolecular_energy": -8.48, "internal_energy": -2.35, "cluster_size": 7, "cluster_id": 7, "rank_in_cluster": 3}

>  <energy>  (8) 
-7.13

>  <cluster_rmsd>  (8) 
1.49

>  <cluster>  (8) 
1

$$$$

     RDKit          3D

 48 51  0  0  0  0  0  0  0  0999 V2000
  139.3380   73.2830  222.4230 O   0  0  0  0  0  0  0  0  0  0  0  0
  140.1830   72.3920  222.6040 C   0  0  0  0  0  0  0  0  0  0  0  0
  141.2060   72.2640  221.5920 N   0  0  0  0  0  0  0  0  0  0  0  0
  141.1100   73.1990  220.4880 C   0  0  0  0  0  0  0  0  0  0  0  0
  142.3860   73.8880  220.2120 C   0  0  0  0  0  0  0  0  0  0  0  0
  143.5080   73.4830  220.6390 O   0  0  0  0  0  0  0  0  0  0  0  0
  142.3390   75.0700  219.4250 N   0  0  0  0  0  0  0  0  0  0  0  0
  142.1330   75.0690  217.9900 C   0  0  0  0  0  0  0  0  0  0  0  0
  143.3620   75.7360  217.4120 C   0  0  0  0  0  0  0  0  0  0  0  0
  143.3250   77.1900  217.7780 C   0  0  0  0  0  0  0  0  0  0  0  0
  142.3690   77.4310  218.9060 C   0  0  0  0  0  0  0  0  0  0  0  0
  142.5030   76.4070  220.0280 C   0  0  1  0  0  0  0  0  0  0  0  0
  141.4510   76.6880  221.0200 C   0  0  0  0  0  0  0  0  0  0  0  0
  141.3140   77.8630  221.6800 N   0  0  0  0  0  0  0  0  0  0  0  0
  140.2570   77.7470  222.4920 C   0  0  0  0  0  0  0  0  0  0  0  0
  139.7480   76.4870  222.3200 C   0  0  0  0  0  0  0  0  0  0  0  0
  138.6370   76.0180  223.0090 O   0  0  0  0  0  0  0  0  0  0  0  0
  140.5000   75.9000  221.4300 O   0  0  0  0  0  0  0  0  0  0  0  0
  140.1630   71.5130  223.7680 C   0  0  0  0  0  0  0  0  0  0  0  0
  139.6250   70.2640  223.6160 C   0  0  0  0  0  0  0  0  0  0  0  0
  139.5620   69.3600  224.6610 C   0  0  0  0  0  0  0  0  0  0  0  0
  140.0650   69.7570  225.8820 C   0  0  0  0  0  0  0  0  0  0  0  0
  139.9950   68.8460  226.9110 C   0  0  0  0  0  0  0  0  0  0  0  0
  140.4900   69.2180  228.1410 C   0  0  0  0  0  0  0  0  0  0  0  0
  140.4070   68.3010  229.1380 F   0  0  0  0  0  0  0  0  0  0  0  0
  141.0390   70.4750  228.3180 C   0  0  0  0  0  0  0  0  0  0  0  0
  141.0940   71.3650  227.2650 C   0  0  0  0  0  0  0  0  0  0  0  0
  140.6100   71.0260  226.0330 C   0  0  0  0  0  0  0  0  0  0  0  0
  140.6470   71.8760  224.9690 N   0  0  0  0  0  0  0  0  0  0  0  0
  141.9550   71.5380  221.6700 H   0  0  0  0  0  0  0  0  0  0  0  0
  140.8052   72.6482  219.5859 H   0  0  0  0  0  0  0  0  0  0  0  0
  140.3717   73.9658  220.7655 H   0  0  0  0  0  0  0  0  0  0  0  0
  142.0404   74.0393  217.6144 H   0  0  0  0  0  0  0  0  0  0  0  0
  141.2089   75.5943  217.7071 H   0  0  0  0  0  0  0  0  0  0  0  0
  144.2679   75.2708  217.8278 H   0  0  0  0  0  0  0  0  0  0  0  0
  143.3766   75.6209  216.3181 H   0  0  0  0  0  0  0  0  0  0  0  0
  144.3318   77.5105  218.0840 H   0  0  0  0  0  0  0  0  0  0  0  0
  142.9893   77.7653  216.9026 H   0  0  0  0  0  0  0  0  0  0  0  0
  142.5602   78.4320  219.3200 H   0  0  0  0  0  0  0  0  0  0  0  0
  141.3507   77.3431  218.4995 H   0  0  0  0  0  0  0  0  0  0  0  0
  143.4798   76.4537  220.5317 H   0  0  0  0  0  0  0  0  0  0  0  0
  139.8688   78.5200  223.1716 H   0  0  0  0  0  0  0  0  0  0  0  0
  138.4540   75.0310  223.1560 H   0  0  0  0  0  0  0  0  0  0  0  0
  139.2304   69.9698  222.6323 H   0  0  0  0  0  0  0  0  0  0  0  0
  139.1260   68.3596  224.5229 H   0  0  0  0  0  0  0  0  0  0  0  0
  139.5563   67.8493  226.7555 H   0  0  0  0  0  0  0  0  0  0  0  0
  141.4335   70.7665  229.3025 H   0  0  0  0  0  0  0  0  0  0  0  0
  141.5336   72.3614  227.4195 H   0  0  0  0  0  0  0  0  0  0  0  0
  1  2  2  0
  2  3  1  0
  3  4  1  0
  4  5  1  0
  5  6  2  0
  5  7  1  0
  7  8  1  0
  8  9  1  0
  9 10  1  0
 10 11  1  0
 11 12  1  0
 12 13  1  0
 13 14  2  0
 14 15  1  0
 15 16  2  0
 16 17  1  0
 16 18  1  0
  2 19  1  0
 19 20  2  0
 20 21  1  0
 21 22  2  0
 22 23  1  0
 23 24  2  0
 24 25  1  0
 24 26  1  0
 26 27  2  0
 27 28  1  0
 28 29  2  0
 12  7  1  0
 18 13  1  0
 29 19  1  0
 28 22  1  0
  3 30  1  0
  4 31  1  0
  4 32  1  0
  8 33  1  0
  8 34  1  0
  9 35  1  0
  9 36  1  0
 10 37  1  0
 10 38  1  0
 11 39  1  0
 11 40  1  0
 12 41  1  1
 15 42  1  0
 17 43  1  0
 20 44  1  0
 21 45  1  0
 23 46  1  0
 26 47  1  0
 27 48  1  0
M  END
>  <smiles>  (9) 
O=C(NCC(=O)N1CCCC[C@H]1c1ncc(O)o1)c1ccc2cc(F)ccc2n1

>  <score_type>  (9) 
oracle

>  <origin>  (9) 
autodockgpu

>  <m_score__min__energy>  (9) 
-7.8899999999999997

>  <m_primary>  (9) 
energy

>  <rmsd>  (9) 
2.2221317812828008

>  <m_score__min__rmsd>  (9) 
2.2221317812828008

>  <meeko>  (9) 
{"free_energy": -7.13, "intermolecular_energy": -8.92, "internal_energy": -2.16, "cluster_size": 2, "cluster_id": 6, "rank_in_cluster": 1}

>  <energy>  (9) 
-7.74

>  <cluster_rmsd>  (9) 
0.0

>  <cluster>  (9) 
2

$$$$

     RDKit          3D

 48 51  0  0  0  0  0  0  0  0999 V2000
  140.2450   73.8380  222.3200 O   0  0  0  0  0  0  0  0  0  0  0  0
  140.4130   72.6110  222.2390 C   0  0  0  0  0  0  0  0  0  0  0  0
  140.7660   72.0990  220.9350 N   0  0  0  0  0  0  0  0  0  0  0  0
  140.8780   73.0910  219.8840 C   0  0  0  0  0  0  0  0  0  0  0  0
  142.0040   72.8280  218.9670 C   0  0  0  0  0  0  0  0  0  0  0  0
  141.8750   72.2440  217.8500 O   0  0  0  0  0  0  0  0  0  0  0  0
  143.2960   73.2550  219.3720 N   0  0  0  0  0  0  0  0  0  0  0  0
  144.5250   72.6380  218.9140 C   0  0  0  0  0  0  0  0  0  0  0  0
  145.2120   72.1420  220.1670 C   0  0  0  0  0  0  0  0  0  0  0  0
  145.6810   73.3330  220.9500 C   0  0  0  0  0  0  0  0  0  0  0  0
  144.9790   74.5770  220.4970 C   0  0  0  0  0  0  0  0  0  0  0  0
  143.4790   74.3800  220.3120 C   0  0  1  0  0  0  0  0  0  0  0  0
  142.9250   75.6340  219.7710 C   0  0  0  0  0  0  0  0  0  0  0  0
  141.7330   76.1650  220.1360 N   0  0  0  0  0  0  0  0  0  0  0  0
  141.5680   77.2960  219.4400 C   0  0  0  0  0  0  0  0  0  0  0  0
  142.6730   77.4500  218.6450 C   0  0  0  0  0  0  0  0  0  0  0  0
  142.8410   78.5240  217.7820 O   0  0  0  0  0  0  0  0  0  0  0  0
  143.4490   76.4280  218.8840 O   0  0  0  0  0  0  0  0  0  0  0  0
  140.2680   71.7190  223.3830 C   0  0  0  0  0  0  0  0  0  0  0  0
  139.6710   70.5050  223.1750 C   0  0  0  0  0  0  0  0  0  0  0  0
  139.4900   69.5920  224.1990 C   0  0  0  0  0  0  0  0  0  0  0  0
  139.9340   69.9430  225.4550 C   0  0  0  0  0  0  0  0  0  0  0  0
  139.7450   69.0230  226.4620 C   0  0  0  0  0  0  0  0  0  0  0  0
  140.1790   69.3490  227.7270 C   0  0  0  0  0  0  0  0  0  0  0  0
  139.9810   68.4250  228.7010 F   0  0  0  0  0  0  0  0  0  0  0  0
  140.7860   70.5700  227.9610 C   0  0  0  0  0  0  0  0  0  0  0  0
  140.9590   71.4700  226.9300 C   0  0  0  0  0  0  0  0  0  0  0  0
  140.5390   71.1760  225.6640 C   0  0  0  0  0  0  0  0  0  0  0  0
  140.6920   72.0380  224.6190 N   0  0  0  0  0  0  0  0  0  0  0  0
  140.9250   71.0760  220.7820 H   0  0  0  0  0  0  0  0  0  0  0  0
  139.9444   73.0938  219.3024 H   0  0  0  0  0  0  0  0  0  0  0  0
  141.0623   74.0632  220.3645 H   0  0  0  0  0  0  0  0  0  0  0  0
  144.3062   71.7994  218.2366 H   0  0  0  0  0  0  0  0  0  0  0  0
  145.1545   73.3440  218.3526 H   0  0  0  0  0  0  0  0  0  0  0  0
  144.5049   71.5546  220.7712 H   0  0  0  0  0  0  0  0  0  0  0  0
  146.0666   71.5018  219.9026 H   0  0  0  0  0  0  0  0  0  0  0  0
  145.4710   73.1686  222.0172 H   0  0  0  0  0  0  0  0  0  0  0  0
  146.7617   73.4587  220.7876 H   0  0  0  0  0  0  0  0  0  0  0  0
  145.1392   75.3636  221.2490 H   0  0  0  0  0  0  0  0  0  0  0  0
  145.3979   74.8536  219.5182 H   0  0  0  0  0  0  0  0  0  0  0  0
  142.9615   74.1464  221.2542 H   0  0  0  0  0  0  0  0  0  0  0  0
  140.7051   77.9759  219.4959 H   0  0  0  0  0  0  0  0  0  0  0  0
  143.6770   78.6590  217.2230 H   0  0  0  0  0  0  0  0  0  0  0  0
  139.3246   70.2473  222.1633 H   0  0  0  0  0  0  0  0  0  0  0  0
  139.0085   68.6200  224.0165 H   0  0  0  0  0  0  0  0  0  0  0  0
  139.2612   68.0557  226.2614 H   0  0  0  0  0  0  0  0  0  0  0  0
  141.1322   70.8243  228.9737 H   0  0  0  0  0  0  0  0  0  0  0  0
  141.4419   72.4379  227.1302 H   0  0  0  0  0  0  0  0  0  0  0  0
  1  2  2  0
  2  3  1  0
  3  4  1  0
  4  5  1  0
  5  6  2  0
  5  7  1  0
  7  8  1  0
  8  9  1  0
  9 10  1  0
 10 11  1  0
 11 12  1  0
 12 13  1  0
 13 14  2  0
 14 15  1  0
 15 16  2  0
 16 17  1  0
 16 18  1  0
  2 19  1  0
 19 20  2  0
 20 21  1  0
 21 22  2  0
 22 23  1  0
 23 24  2  0
 24 25  1  0
 24 26  1  0
 26 27  2  0
 27 28  1  0
 28 29  2  0
 12  7  1  0
 18 13  1  0
 29 19  1  0
 28 22  1  0
  3 30  1  0
  4 31  1  0
  4 32  1  0
  8 33  1  0
  8 34  1  0
  9 35  1  0
  9 36  1  0
 10 37  1  0
 10 38  1  0
 11 39  1  0
 11 40  1  0
 12 41  1  1
 15 42  1  0
 17 43  1  0
 20 44  1  0
 21 45  1  0
 23 46  1  0
 26 47  1  0
 27 48  1  0
M  END
>  <smiles>  (10) 
O=C(NCC(=O)N1CCCC[C@H]1c1ncc(O)o1)c1ccc2cc(F)ccc2n1

>  <score_type>  (10) 
oracle

>  <origin>  (10) 
autodockgpu

>  <m_score__min__energy>  (10) 
-7.8899999999999997

>  <m_primary>  (10) 
energy

>  <rmsd>  (10) 
3.663915237142004

>  <m_score__min__rmsd>  (10) 
3.663915237142004

>  <meeko>  (10) 
{"free_energy": -7.48, "intermolecular_energy": -9.27, "internal_energy": -1.43, "cluster_size": 4, "cluster_id": 2, "rank_in_cluster": 4}

>  <energy>  (10) 
-7.65

>  <cluster_rmsd>  (10) 
0.34

>  <cluster>  (10) 
2

$$$$

     RDKit          3D

 48 51  0  0  0  0  0  0  0  0999 V2000
  140.3910   73.3920  221.9790 O   0  0  0  0  0  0  0  0  0  0  0  0
  140.5580   72.1690  222.0990 C   0  0  0  0  0  0  0  0  0  0  0  0
  140.9800   71.4610  220.9130 N   0  0  0  0  0  0  0  0  0  0  0  0
  141.1520   72.2780  219.7280 C   0  0  0  0  0  0  0  0  0  0  0  0
  142.4140   71.9920  219.0160 C   0  0  0  0  0  0  0  0  0  0  0  0
  142.4640   71.4760  217.8600 O   0  0  0  0  0  0  0  0  0  0  0  0
  143.6290   72.3170  219.6750 N   0  0  0  0  0  0  0  0  0  0  0  0
  143.7100   73.2160  220.8090 C   0  0  0  0  0  0  0  0  0  0  0  0
  144.6270   74.3350  220.3640 C   0  0  0  0  0  0  0  0  0  0  0  0
  146.0170   73.7860  220.2430 C   0  0  0  0  0  0  0  0  0  0  0  0
  145.9940   72.2890  220.1780 C   0  0  0  0  0  0  0  0  0  0  0  0
  144.9200   71.7520  219.2370 C   0  0  1  0  0  0  0  0  0  0  0  0
  144.9310   70.2810  219.3380 C   0  0  0  0  0  0  0  0  0  0  0  0
  143.8620   69.5300  219.6940 N   0  0  0  0  0  0  0  0  0  0  0  0
  144.2470   68.2490  219.6760 C   0  0  0  0  0  0  0  0  0  0  0  0
  145.5650   68.2260  219.3040 C   0  0  0  0  0  0  0  0  0  0  0  0
  146.2960   67.0520  219.1800 O   0  0  0  0  0  0  0  0  0  0  0  0
  145.9210   69.4670  219.1150 O   0  0  0  0  0  0  0  0  0  0  0  0
  140.3480   71.4650  223.3590 C   0  0  0  0  0  0  0  0  0  0  0  0
  139.6030   70.3170  223.3330 C   0  0  0  0  0  0  0  0  0  0  0  0
  139.3490   69.5810  224.4770 C   0  0  0  0  0  0  0  0  0  0  0  0
  139.8750   70.0430  225.6640 C   0  0  0  0  0  0  0  0  0  0  0  0
  139.6130   69.2990  226.7930 C   0  0  0  0  0  0  0  0  0  0  0  0
  140.1270   69.7370  227.9920 C   0  0  0  0  0  0  0  0  0  0  0  0
  139.8530   68.9860  229.0890 F   0  0  0  0  0  0  0  0  0  0  0  0
  140.8830   70.8950  228.0430 C   0  0  0  0  0  0  0  0  0  0  0  0
  141.1270   71.6180  226.8930 C   0  0  0  0  0  0  0  0  0  0  0  0
  140.6310   71.2090  225.6880 C   0  0  0  0  0  0  0  0  0  0  0  0
  140.8500   71.8940  224.5310 N   0  0  0  0  0  0  0  0  0  0  0  0
  141.1430   70.4280  220.9300 H   0  0  0  0  0  0  0  0  0  0  0  0
  140.3115   72.0876  219.0444 H   0  0  0  0  0  0  0  0  0  0  0  0
  141.1840   73.3290  220.0511 H   0  0  0  0  0  0  0  0  0  0  0  0
  142.7144   73.6102  221.0605 H   0  0  0  0  0  0  0  0  0  0  0  0
  144.0872   72.7090  221.7093 H   0  0  0  0  0  0  0  0  0  0  0  0
  144.2944   74.7230  219.3899 H   0  0  0  0  0  0  0  0  0  0  0  0
  144.6064   75.1553  221.0966 H   0  0  0  0  0  0  0  0  0  0  0  0
  146.4818   74.1797  219.3270 H   0  0  0  0  0  0  0  0  0  0  0  0
  146.5951   74.0917  221.1275 H   0  0  0  0  0  0  0  0  0  0  0  0
  146.9756   71.9378  219.8271 H   0  0  0  0  0  0  0  0  0  0  0  0
  145.7636   71.9183  221.1877 H   0  0  0  0  0  0  0  0  0  0  0  0
  145.0945   72.0327  218.1878 H   0  0  0  0  0  0  0  0  0  0  0  0
  143.6214   67.3764  219.9154 H   0  0  0  0  0  0  0  0  0  0  0  0
  146.7620   66.6050  219.9620 H   0  0  0  0  0  0  0  0  0  0  0  0
  139.1936   69.9688  222.3732 H   0  0  0  0  0  0  0  0  0  0  0  0
  138.7486   68.6600  224.4402 H   0  0  0  0  0  0  0  0  0  0  0  0
  139.0100   68.3807  226.7378 H   0  0  0  0  0  0  0  0  0  0  0  0
  141.2912   71.2407  229.0042 H   0  0  0  0  0  0  0  0  0  0  0  0
  141.7295   72.5367  226.9477 H   0  0  0  0  0  0  0  0  0  0  0  0
  1  2  2  0
  2  3  1  0
  3  4  1  0
  4  5  1  0
  5  6  2  0
  5  7  1  0
  7  8  1  0
  8  9  1  0
  9 10  1  0
 10 11  1  0
 11 12  1  0
 12 13  1  0
 13 14  2  0
 14 15  1  0
 15 16  2  0
 16 17  1  0
 16 18  1  0
  2 19  1  0
 19 20  2  0
 20 21  1  0
 21 22  2  0
 22 23  1  0
 23 24  2  0
 24 25  1  0
 24 26  1  0
 26 27  2  0
 27 28  1  0
 28 29  2  0
 12  7  1  0
 18 13  1  0
 29 19  1  0
 28 22  1  0
  3 30  1  0
  4 31  1  0
  4 32  1  0
  8 33  1  0
  8 34  1  0
  9 35  1  0
  9 36  1  0
 10 37  1  0
 10 38  1  0
 11 39  1  0
 11 40  1  0
 12 41  1  6
 15 42  1  0
 17 43  1  0
 20 44  1  0
 21 45  1  0
 23 46  1  0
 26 47  1  0
 27 48  1  0
M  END
>  <smiles>  (11) 
O=C(NCC(=O)N1CCCC[C@H]1c1ncc(O)o1)c1ccc2cc(F)ccc2n1

>  <score_type>  (11) 
oracle

>  <origin>  (11) 
autodockgpu

>  <m_score__min__energy>  (11) 
-7.8899999999999997

>  <m_primary>  (11) 
energy

>  <rmsd>  (11) 
5.485893484393184

>  <m_score__min__rmsd>  (11) 
5.485893484393184

>  <meeko>  (11) 
{"free_energy": -7.65, "intermolecular_energy": -9.44, "internal_energy": -1.38, "cluster_size": 1, "cluster_id": 3, "rank_in_cluster": 1}

>  <energy>  (11) 
-7.57

>  <cluster_rmsd>  (11) 
1.45

>  <cluster>  (11) 
2

$$$$

     RDKit          3D

 48 51  0  0  0  0  0  0  0  0999 V2000
  136.1220   71.7330  221.9680 O   0  0  0  0  0  0  0  0  0  0  0  0
  137.1310   72.0790  222.6000 C   0  0  0  0  0  0  0  0  0  0  0  0
  137.6210   73.4140  222.3430 N   0  0  0  0  0  0  0  0  0  0  0  0
  136.8640   74.1790  221.3720 C   0  0  0  0  0  0  0  0  0  0  0  0
  137.6540   75.2670  220.7620 C   0  0  0  0  0  0  0  0  0  0  0  0
  137.6010   75.5660  219.5320 O   0  0  0  0  0  0  0  0  0  0  0  0
  138.5160   76.0110  221.6120 N   0  0  0  0  0  0  0  0  0  0  0  0
  138.0580   76.7390  222.7780 C   0  0  0  0  0  0  0  0  0  0  0  0
  138.4410   78.1800  222.5230 C   0  0  0  0  0  0  0  0  0  0  0  0
  139.9360   78.2910  222.5950 C   0  0  0  0  0  0  0  0  0  0  0  0
  140.5760   76.9420  222.4690 C   0  0  0  0  0  0  0  0  0  0  0  0
  139.9670   76.0970  221.3550 C   0  0  1  0  0  0  0  0  0  0  0  0
  140.6050   74.7690  221.3990 C   0  0  0  0  0  0  0  0  0  0  0  0
  141.6770   74.4090  220.6530 N   0  0  0  0  0  0  0  0  0  0  0  0
  141.9720   73.1410  220.9600 C   0  0  0  0  0  0  0  0  0  0  0  0
  141.0680   72.7290  221.9030 C   0  0  0  0  0  0  0  0  0  0  0  0
  141.0760   71.4550  222.4540 O   0  0  0  0  0  0  0  0  0  0  0  0
  140.2760   73.7420  222.1270 O   0  0  0  0  0  0  0  0  0  0  0  0
  137.8010   71.2040  223.5550 C   0  0  0  0  0  0  0  0  0  0  0  0
  137.1990   70.0140  223.8630 C   0  0  0  0  0  0  0  0  0  0  0  0
  137.7590   69.1190  224.7570 C   0  0  0  0  0  0  0  0  0  0  0  0
  138.9590   69.4630  225.3400 C   0  0  0  0  0  0  0  0  0  0  0  0
  139.5020   68.5610  226.2280 C   0  0  0  0  0  0  0  0  0  0  0  0
  140.7000   68.8800  226.8250 C   0  0  0  0  0  0  0  0  0  0  0  0
  141.2120   67.9740  227.6960 F   0  0  0  0  0  0  0  0  0  0  0  0
  141.3270   70.0770  226.5290 C   0  0  0  0  0  0  0  0  0  0  0  0
  140.7570   70.9590  225.6350 C   0  0  0  0  0  0  0  0  0  0  0  0
  139.5680   70.6720  225.0270 C   0  0  0  0  0  0  0  0  0  0  0  0
  138.9720   71.5160  224.1380 N   0  0  0  0  0  0  0  0  0  0  0  0
  138.4670   73.7820  222.8350 H   0  0  0  0  0  0  0  0  0  0  0  0
  136.5263   73.5000  220.5752 H   0  0  0  0  0  0  0  0  0  0  0  0
  136.0164   74.6400  221.9003 H   0  0  0  0  0  0  0  0  0  0  0  0
  136.9677   76.6436  222.8884 H   0  0  0  0  0  0  0  0  0  0  0  0
  138.5062   76.3529  223.7054 H   0  0  0  0  0  0  0  0  0  0  0  0
  138.0931   78.4862  221.5254 H   0  0  0  0  0  0  0  0  0  0  0  0
  137.9761   78.8341  223.2753 H   0  0  0  0  0  0  0  0  0  0  0  0
  140.2896   78.9358  221.7770 H   0  0  0  0  0  0  0  0  0  0  0  0
  140.2112   78.7224  223.5687 H   0  0  0  0  0  0  0  0  0  0  0  0
  141.6469   77.0800  222.2591 H   0  0  0  0  0  0  0  0  0  0  0  0
  140.4095   76.4083  223.4163 H   0  0  0  0  0  0  0  0  0  0  0  0
  140.1281   76.5299  220.3567 H   0  0  0  0  0  0  0  0  0  0  0  0
  142.7892   72.5403  220.5341 H   0  0  0  0  0  0  0  0  0  0  0  0
  140.2400   70.8880  222.5490 H   0  0  0  0  0  0  0  0  0  0  0  0
  136.2409   69.7616  223.3852 H   0  0  0  0  0  0  0  0  0  0  0  0
  137.2635   68.1660  224.9941 H   0  0  0  0  0  0  0  0  0  0  0  0
  138.9925   67.6126  226.4535 H   0  0  0  0  0  0  0  0  0  0  0  0
  142.2848   70.3266  227.0090 H   0  0  0  0  0  0  0  0  0  0  0  0
  141.2671   71.9069  225.4084 H   0  0  0  0  0  0  0  0  0  0  0  0
  1  2  2  0
  2  3  1  0
  3  4  1  0
  4  5  1  0
  5  6  2  0
  5  7  1  0
  7  8  1  0
  8  9  1  0
  9 10  1  0
 10 11  1  0
 11 12  1  0
 12 13  1  0
 13 14  2  0
 14 15  1  0
 15 16  2  0
 16 17  1  0
 16 18  1  0
  2 19  1  0
 19 20  2  0
 20 21  1  0
 21 22  2  0
 22 23  1  0
 23 24  2  0
 24 25  1  0
 24 26  1  0
 26 27  2  0
 27 28  1  0
 28 29  2  0
 12  7  1  0
 18 13  1  0
 29 19  1  0
 28 22  1  0
  3 30  1  0
  4 31  1  0
  4 32  1  0
  8 33  1  0
  8 34  1  0
  9 35  1  0
  9 36  1  0
 10 37  1  0
 10 38  1  0
 11 39  1  0
 11 40  1  0
 12 41  1  6
 15 42  1  0
 17 43  1  0
 20 44  1  0
 21 45  1  0
 23 46  1  0
 26 47  1  0
 27 48  1  0
M  END
>  <smiles>  (12) 
O=C(NCC(=O)N1CCCC[C@H]1c1ncc(O)o1)c1ccc2cc(F)ccc2n1

>  <score_type>  (12) 
oracle

>  <origin>  (12) 
autodockgpu

>  <m_score__min__energy>  (12) 
-7.8899999999999997

>  <m_primary>  (12) 
energy

>  <rmsd>  (12) 
3.5641058587347456

>  <m_score__min__rmsd>  (12) 
3.5641058587347456

>  <meeko>  (12) 
{"free_energy": -6.02, "intermolecular_energy": -7.81, "internal_energy": -3.24, "cluster_size": 7, "cluster_id": 10, "rank_in_cluster": 4}

>  <energy>  (12) 
-7.48

>  <cluster_rmsd>  (12) 
1.5

>  <cluster>  (12) 
2

$$$$

     RDKit          3D

 48 51  0  0  0  0  0  0  0  0999 V2000
  137.7320   71.0360  221.1260 O   0  0  0  0  0  0  0  0  0  0  0  0
  138.1660   71.6500  222.1120 C   0  0  0  0  0  0  0  0  0  0  0  0
  138.2180   73.0890  221.9980 N   0  0  0  0  0  0  0  0  0  0  0  0
  137.7530   73.6320  220.7360 C   0  0  0  0  0  0  0  0  0  0  0  0
  137.6060   75.1000  220.7650 C   0  0  0  0  0  0  0  0  0  0  0  0
  136.7430   75.7310  220.0840 O   0  0  0  0  0  0  0  0  0  0  0  0
  138.4870   75.8330  221.6040 N   0  0  0  0  0  0  0  0  0  0  0  0
  138.0800   76.4450  222.8530 C   0  0  0  0  0  0  0  0  0  0  0  0
  138.3600   77.9220  222.6810 C   0  0  0  0  0  0  0  0  0  0  0  0
  139.8460   78.1200  222.6540 C   0  0  0  0  0  0  0  0  0  0  0  0
  140.5510   76.8260  222.3790 C   0  0  0  0  0  0  0  0  0  0  0  0
  139.9070   76.0270  221.2510 C   0  0  1  0  0  0  0  0  0  0  0  0
  140.6220   74.7420  221.1470 C   0  0  0  0  0  0  0  0  0  0  0  0
  141.4270   74.3950  220.1150 N   0  0  0  0  0  0  0  0  0  0  0  0
  141.8950   73.1670  220.3670 C   0  0  0  0  0  0  0  0  0  0  0  0
  141.3660   72.7680  221.5660 C   0  0  0  0  0  0  0  0  0  0  0  0
  141.6400   71.5340  222.1410 O   0  0  0  0  0  0  0  0  0  0  0  0
  140.6140   73.7480  221.9860 O   0  0  0  0  0  0  0  0  0  0  0  0
  138.6050   70.9770  223.3290 C   0  0  0  0  0  0  0  0  0  0  0  0
  138.1220   69.7200  223.5740 C   0  0  0  0  0  0  0  0  0  0  0  0
  138.4810   69.0030  224.7010 C   0  0  0  0  0  0  0  0  0  0  0  0
  139.3530   69.5990  225.5870 C   0  0  0  0  0  0  0  0  0  0  0  0
  139.7000   68.8720  226.7040 C   0  0  0  0  0  0  0  0  0  0  0  0
  140.5700   69.4430  227.6050 C   0  0  0  0  0  0  0  0  0  0  0  0
  140.8950   68.7050  228.6970 F   0  0  0  0  0  0  0  0  0  0  0  0
  141.0720   70.7120  227.3780 C   0  0  0  0  0  0  0  0  0  0  0  0
  140.7040   71.4140  226.2490 C   0  0  0  0  0  0  0  0  0  0  0  0
  139.8420   70.8750  225.3360 C   0  0  0  0  0  0  0  0  0  0  0  0
  139.4550   71.5360  224.2090 N   0  0  0  0  0  0  0  0  0  0  0  0
  138.5720   73.6810  222.7840 H   0  0  0  0  0  0  0  0  0  0  0  0
  138.4766   73.3666  219.9512 H   0  0  0  0  0  0  0  0  0  0  0  0
  136.7597   73.2034  220.5367 H   0  0  0  0  0  0  0  0  0  0  0  0
  137.0087   76.2742  223.0352 H   0  0  0  0  0  0  0  0  0  0  0  0
  138.6195   76.0218  223.7131 H   0  0  0  0  0  0  0  0  0  0  0  0
  137.9204   78.2763  221.7369 H   0  0  0  0  0  0  0  0  0  0  0  0
  137.9171   78.4907  223.5119 H   0  0  0  0  0  0  0  0  0  0  0  0
  140.0991   78.8433  221.8648 H   0  0  0  0  0  0  0  0  0  0  0  0
  140.1693   78.4957  223.6360 H   0  0  0  0  0  0  0  0  0  0  0  0
  141.5929   77.0458  222.1029 H   0  0  0  0  0  0  0  0  0  0  0  0
  140.4893   76.2161  223.2923 H   0  0  0  0  0  0  0  0  0  0  0  0
  139.9655   76.5395  220.2795 H   0  0  0  0  0  0  0  0  0  0  0  0
  142.5777   72.5858  219.7297 H   0  0  0  0  0  0  0  0  0  0  0  0
  141.0220   71.0860  222.8100 H   0  0  0  0  0  0  0  0  0  0  0  0
  137.4269   69.2660  222.8524 H   0  0  0  0  0  0  0  0  0  0  0  0
  138.0849   67.9932  224.8838 H   0  0  0  0  0  0  0  0  0  0  0  0
  139.2935   67.8637  226.8714 H   0  0  0  0  0  0  0  0  0  0  0  0
  141.7676   71.1632  228.1009 H   0  0  0  0  0  0  0  0  0  0  0  0
  141.1104   72.4223  226.0812 H   0  0  0  0  0  0  0  0  0  0  0  0
  1  2  2  0
  2  3  1  0
  3  4  1  0
  4  5  1  0
  5  6  2  0
  5  7  1  0
  7  8  1  0
  8  9  1  0
  9 10  1  0
 10 11  1  0
 11 12  1  0
 12 13  1  0
 13 14  2  0
 14 15  1  0
 15 16  2  0
 16 17  1  0
 16 18  1  0
  2 19  1  0
 19 20  2  0
 20 21  1  0
 21 22  2  0
 22 23  1  0
 23 24  2  0
 24 25  1  0
 24 26  1  0
 26 27  2  0
 27 28  1  0
 28 29  2  0
 12  7  1  0
 18 13  1  0
 29 19  1  0
 28 22  1  0
  3 30  1  0
  4 31  1  0
  4 32  1  0
  8 33  1  0
  8 34  1  0
  9 35  1  0
  9 36  1  0
 10 37  1  0
 10 38  1  0
 11 39  1  0
 11 40  1  0
 12 41  1  6
 15 42  1  0
 17 43  1  0
 20 44  1  0
 21 45  1  0
 23 46  1  0
 26 47  1  0
 27 48  1  0
M  END
>  <smiles>  (13) 
O=C(NCC(=O)N1CCCC[C@H]1c1ncc(O)o1)c1ccc2cc(F)ccc2n1

>  <score_type>  (13) 
oracle

>  <origin>  (13) 
autodockgpu

>  <m_score__min__energy>  (13) 
-7.8899999999999997

>  <m_primary>  (13) 
energy

>  <rmsd>  (13) 
3.430349662226571

>  <m_score__min__rmsd>  (13) 
3.430349662226571

>  <meeko>  (13) 
{"free_energy": -6.18, "intermolecular_energy": -7.97, "internal_energy": -2.97, "cluster_size": 7, "cluster_id": 10, "rank_in_cluster": 1}

>  <energy>  (13) 
-7.65

>  <cluster_rmsd>  (13) 
0.0

>  <cluster>  (13) 
3

$$$$

     RDKit          3D

 48 51  0  0  0  0  0  0  0  0999 V2000
  136.8290   70.1710  221.9110 O   0  0  0  0  0  0  0  0  0  0  0  0
  137.3790   70.9320  222.7210 C   0  0  0  0  0  0  0  0  0  0  0  0
  137.2280   72.3470  222.4730 N   0  0  0  0  0  0  0  0  0  0  0  0
  136.4490   72.6950  221.3010 C   0  0  0  0  0  0  0  0  0  0  0  0
  136.7770   74.0340  220.7740 C   0  0  0  0  0  0  0  0  0  0  0  0
  136.5920   74.3770  219.5680 O   0  0  0  0  0  0  0  0  0  0  0  0
  137.3290   74.9800  221.6780 N   0  0  0  0  0  0  0  0  0  0  0  0
  136.6000   75.5380  222.7990 C   0  0  0  0  0  0  0  0  0  0  0  0
  136.5820   77.0310  222.5580 C   0  0  0  0  0  0  0  0  0  0  0  0
  137.9750   77.5550  222.7420 C   0  0  0  0  0  0  0  0  0  0  0  0
  138.9750   76.4410  222.6780 C   0  0  0  0  0  0  0  0  0  0  0  0
  138.7130   75.4720  221.5310 C   0  0  1  0  0  0  0  0  0  0  0  0
  139.6930   74.3760  221.6370 C   0  0  0  0  0  0  0  0  0  0  0  0
  140.7820   74.2420  220.8430 N   0  0  0  0  0  0  0  0  0  0  0  0
  141.4290   73.1370  221.2320 C   0  0  0  0  0  0  0  0  0  0  0  0
  140.7230   72.5970  222.2740 C   0  0  0  0  0  0  0  0  0  0  0  0
  141.1090   71.4360  222.9300 O   0  0  0  0  0  0  0  0  0  0  0  0
  139.6960   73.3780  222.4730 O   0  0  0  0  0  0  0  0  0  0  0  0
  138.1390   70.4480  223.8680 C   0  0  0  0  0  0  0  0  0  0  0  0
  138.0520   69.1170  224.1760 C   0  0  0  0  0  0  0  0  0  0  0  0
  138.7370   68.5650  225.2440 C   0  0  0  0  0  0  0  0  0  0  0  0
  139.5220   69.4060  226.0030 C   0  0  0  0  0  0  0  0  0  0  0  0
  140.1960   68.8410  227.0620 C   0  0  0  0  0  0  0  0  0  0  0  0
  140.9880   69.6580  227.8370 C   0  0  0  0  0  0  0  0  0  0  0  0
  141.6410   69.0760  228.8750 F   0  0  0  0  0  0  0  0  0  0  0  0
  141.0920   71.0060  227.5450 C   0  0  0  0  0  0  0  0  0  0  0  0
  140.4030   71.5410  226.4760 C   0  0  0  0  0  0  0  0  0  0  0  0
  139.6080   70.7560  225.6880 C   0  0  0  0  0  0  0  0  0  0  0  0
  138.9130   71.2470  224.6240 N   0  0  0  0  0  0  0  0  0  0  0  0
  137.6610   73.0560  223.1090 H   0  0  0  0  0  0  0  0  0  0  0  0
  136.6443   71.9504  220.5152 H   0  0  0  0  0  0  0  0  0  0  0  0
  135.3900   72.7060  221.5981 H   0  0  0  0  0  0  0  0  0  0  0  0
  135.5750   75.1399  222.8290 H   0  0  0  0  0  0  0  0  0  0  0  0
  137.0681   75.2829  223.7612 H   0  0  0  0  0  0  0  0  0  0  0  0
  136.2391   77.2382  221.5336 H   0  0  0  0  0  0  0  0  0  0  0  0
  135.8966   77.5206  223.2654 H   0  0  0  0  0  0  0  0  0  0  0  0
  138.1945   78.2829  221.9470 H   0  0  0  0  0  0  0  0  0  0  0  0
  138.0439   78.0345  223.7296 H   0  0  0  0  0  0  0  0  0  0  0  0
  139.9769   76.8761  222.5476 H   0  0  0  0  0  0  0  0  0  0  0  0
  138.8941   75.8714  223.6155 H   0  0  0  0  0  0  0  0  0  0  0  0
  138.8208   75.9436  220.5431 H   0  0  0  0  0  0  0  0  0  0  0  0
  142.3560   72.7366  220.7957 H   0  0  0  0  0  0  0  0  0  0  0  0
  140.4510   70.8150  223.3890 H   0  0  0  0  0  0  0  0  0  0  0  0
  137.4182   68.4664  223.5555 H   0  0  0  0  0  0  0  0  0  0  0  0
  138.6579   67.4933  225.4789 H   0  0  0  0  0  0  0  0  0  0  0  0
  140.1044   67.7673  227.2827 H   0  0  0  0  0  0  0  0  0  0  0  0
  141.7265   71.6540  228.1675 H   0  0  0  0  0  0  0  0  0  0  0  0
  140.4947   72.6146  226.2546 H   0  0  0  0  0  0  0  0  0  0  0  0
  1  2  2  0
  2  3  1  0
  3  4  1  0
  4  5  1  0
  5  6  2  0
  5  7  1  0
  7  8  1  0
  8  9  1  0
  9 10  1  0
 10 11  1  0
 11 12  1  0
 12 13  1  0
 13 14  2  0
 14 15  1  0
 15 16  2  0
 16 17  1  0
 16 18  1  0
  2 19  1  0
 19 20  2  0
 20 21  1  0
 21 22  2  0
 22 23  1  0
 23 24  2  0
 24 25  1  0
 24 26  1  0
 26 27  2  0
 27 28  1  0
 28 29  2  0
 12  7  1  0
 18 13  1  0
 29 19  1  0
 28 22  1  0
  3 30  1  0
  4 31  1  0
  4 32  1  0
  8 33  1  0
  8 34  1  0
  9 35  1  0
  9 36  1  0
 10 37  1  0
 10 38  1  0
 11 39  1  0
 11 40  1  0
 12 41  1  6
 15 42  1  0
 17 43  1  0
 20 44  1  0
 21 45  1  0
 23 46  1  0
 26 47  1  0
 27 48  1  0
M  END
>  <smiles>  (14) 
O=C(NCC(=O)N1CCCC[C@H]1c1ncc(O)o1)c1ccc2cc(F)ccc2n1

>  <score_type>  (14) 
oracle

>  <origin>  (14) 
autodockgpu

>  <m_score__min__energy>  (14) 
-7.8899999999999997

>  <m_primary>  (14) 
energy

>  <rmsd>  (14) 
3.7299351852820375

>  <m_score__min__rmsd>  (14) 
3.7299351852820375

>  <meeko>  (14) 
{"free_energy": -5.77, "intermolecular_energy": -7.56, "internal_energy": -3.32, "cluster_size": 7, "cluster_id": 7, "rank_in_cluster": 7}

>  <energy>  (14) 
-7.39

>  <cluster_rmsd>  (14) 
0.0

>  <cluster>  (14) 
4

$$$$

     RDKit          3D

 48 51  0  0  0  0  0  0  0  0999 V2000
  141.4930   71.9910  221.4450 O   0  0  0  0  0  0  0  0  0  0  0  0
  140.6690   72.3160  222.3140 C   0  0  0  0  0  0  0  0  0  0  0  0
  139.9380   73.5390  222.0770 N   0  0  0  0  0  0  0  0  0  0  0  0
  140.2650   74.2320  220.8460 C   0  0  0  0  0  0  0  0  0  0  0  0
  141.1180   75.4170  221.0670 C   0  0  0  0  0  0  0  0  0  0  0  0
  141.2870   75.9570  222.2010 O   0  0  0  0  0  0  0  0  0  0  0  0
  141.7780   75.9720  219.9380 N   0  0  0  0  0  0  0  0  0  0  0  0
  141.8250   77.3930  219.6560 C   0  0  0  0  0  0  0  0  0  0  0  0
  141.1700   77.5500  218.3010 C   0  0  0  0  0  0  0  0  0  0  0  0
  142.0770   76.9500  217.2670 C   0  0  0  0  0  0  0  0  0  0  0  0
  143.0840   76.0430  217.9050 C   0  0  0  0  0  0  0  0  0  0  0  0
  142.4740   75.1200  218.9540 C   0  0  1  0  0  0  0  0  0  0  0  0
  143.5720   74.3580  219.5750 C   0  0  0  0  0  0  0  0  0  0  0  0
  143.9520   74.4790  220.8690 N   0  0  0  0  0  0  0  0  0  0  0  0
  144.9730   73.6370  221.0680 C   0  0  0  0  0  0  0  0  0  0  0  0
  145.2120   72.9990  219.8800 C   0  0  0  0  0  0  0  0  0  0  0  0
  146.2100   72.0470  219.7190 O   0  0  0  0  0  0  0  0  0  0  0  0
  144.3460   73.4690  219.0240 O   0  0  0  0  0  0  0  0  0  0  0  0
  140.4360   71.5230  223.5150 C   0  0  0  0  0  0  0  0  0  0  0  0
  139.7620   70.3390  223.3780 C   0  0  0  0  0  0  0  0  0  0  0  0
  139.4940   69.5180  224.4590 C   0  0  0  0  0  0  0  0  0  0  0  0
  139.9300   69.9310  225.6990 C   0  0  0  0  0  0  0  0  0  0  0  0
  139.6550   69.1030  226.7640 C   0  0  0  0  0  0  0  0  0  0  0  0
  140.0800   69.4910  228.0140 C   0  0  0  0  0  0  0  0  0  0  0  0
  139.7950   68.6570  229.0460 F   0  0  0  0  0  0  0  0  0  0  0  0
  140.7630   70.6830  228.1770 C   0  0  0  0  0  0  0  0  0  0  0  0
  141.0230   71.4910  227.0890 C   0  0  0  0  0  0  0  0  0  0  0  0
  140.6140   71.1330  225.8350 C   0  0  0  0  0  0  0  0  0  0  0  0
  140.8510   71.9020  224.7360 N   0  0  0  0  0  0  0  0  0  0  0  0
  139.2250   73.8840  222.7600 H   0  0  0  0  0  0  0  0  0  0  0  0
  140.7962   73.5354  220.1807 H   0  0  0  0  0  0  0  0  0  0  0  0
  139.3214   74.5808  220.4010 H   0  0  0  0  0  0  0  0  0  0  0  0
  141.2700   77.9566  220.4204 H   0  0  0  0  0  0  0  0  0  0  0  0
  142.8547   77.7797  219.6624 H   0  0  0  0  0  0  0  0  0  0  0  0
  140.2013   77.0289  218.2935 H   0  0  0  0  0  0  0  0  0  0  0  0
  140.9994   78.6147  218.0836 H   0  0  0  0  0  0  0  0  0  0  0  0
  141.4746   76.3726  216.5502 H   0  0  0  0  0  0  0  0  0  0  0  0
  142.6105   77.7623  216.7518 H   0  0  0  0  0  0  0  0  0  0  0  0
  143.5460   75.4254  217.1207 H   0  0  0  0  0  0  0  0  0  0  0  0
  143.8226   76.6786  218.4154 H   0  0  0  0  0  0  0  0  0  0  0  0
  141.7532   74.4078  218.5260 H   0  0  0  0  0  0  0  0  0  0  0  0
  145.5190   73.4855  222.0108 H   0  0  0  0  0  0  0  0  0  0  0  0
  146.5260   71.4440  220.4710 H   0  0  0  0  0  0  0  0  0  0  0  0
  139.4232   70.0311  222.3778 H   0  0  0  0  0  0  0  0  0  0  0  0
  138.9520   68.5691  224.3329 H   0  0  0  0  0  0  0  0  0  0  0  0
  139.1109   68.1579  226.6198 H   0  0  0  0  0  0  0  0  0  0  0  0
  141.1004   70.9881  229.1785 H   0  0  0  0  0  0  0  0  0  0  0  0
  141.5669   72.4362  227.2330 H   0  0  0  0  0  0  0  0  0  0  0  0
  1  2  2  0
  2  3  1  0
  3  4  1  0
  4  5  1  0
  5  6  2  0
  5  7  1  0
  7  8  1  0
  8  9  1  0
  9 10  1  0
 10 11  1  0
 11 12  1  0
 12 13  1  0
 13 14  2  0
 14 15  1  0
 15 16  2  0
 16 17  1  0
 16 18  1  0
  2 19  1  0
 19 20  2  0
 20 21  1  0
 21 22  2  0
 22 23  1  0
 23 24  2  0
 24 25  1  0
 24 26  1  0
 26 27  2  0
 27 28  1  0
 28 29  2  0
 12  7  1  0
 18 13  1  0
 29 19  1  0
 28 22  1  0
  3 30  1  0
  4 31  1  0
  4 32  1  0
  8 33  1  0
  8 34  1  0
  9 35  1  0
  9 36  1  0
 10 37  1  0
 10 38  1  0
 11 39  1  0
 11 40  1  0
 12 41  1  6
 15 42  1  0
 17 43  1  0
 20 44  1  0
 21 45  1  0
 23 46  1  0
 26 47  1  0
 27 48  1  0
M  END
>  <smiles>  (15) 
O=C(NCC(=O)N1CCCC[C@H]1c1ncc(O)o1)c1ccc2cc(F)ccc2n1

>  <score_type>  (15) 
oracle

>  <origin>  (15) 
autodockgpu

>  <m_score__min__energy>  (15) 
-7.8899999999999997

>  <m_primary>  (15) 
energy

>  <rmsd>  (15) 
3.1224886292076834

>  <m_score__min__rmsd>  (15) 
3.1224886292076834

>  <meeko>  (15) 
{"free_energy": -7.74, "intermolecular_energy": -9.53, "internal_energy": -1.47, "cluster_size": 8, "cluster_id": 1, "rank_in_cluster": 5}

>  <energy>  (15) 
-7.28

>  <cluster_rmsd>  (15) 
0.33

>  <cluster>  (15) 
4

$$$$

     RDKit          3D

 48 51  0  0  0  0  0  0  0  0999 V2000
  140.0840   73.8770  221.9350 O   0  0  0  0  0  0  0  0  0  0  0  0
  141.1320   74.4410  221.5850 C   0  0  0  0  0  0  0  0  0  0  0  0
  141.1850   75.8710  221.7810 N   0  0  0  0  0  0  0  0  0  0  0  0
  139.9980   76.4650  222.3650 C   0  0  0  0  0  0  0  0  0  0  0  0
  139.8090   77.8740  221.9660 C   0  0  0  0  0  0  0  0  0  0  0  0
  138.7450   78.3160  221.4400 O   0  0  0  0  0  0  0  0  0  0  0  0
  140.8880   78.7710  222.1880 N   0  0  0  0  0  0  0  0  0  0  0  0
  141.6320   78.8380  223.4300 C   0  0  0  0  0  0  0  0  0  0  0  0
  141.4490   80.2560  223.9260 C   0  0  0  0  0  0  0  0  0  0  0  0
  142.1990   81.1760  223.0100 C   0  0  0  0  0  0  0  0  0  0  0  0
  142.5150   80.4950  221.7130 C   0  0  0  0  0  0  0  0  0  0  0  0
  141.3310   79.7180  221.1460 C   0  0  1  0  0  0  0  0  0  0  0  0
  141.7940   79.0160  219.9360 C   0  0  0  0  0  0  0  0  0  0  0  0
  142.2100   77.7280  219.9090 N   0  0  0  0  0  0  0  0  0  0  0  0
  142.5510   77.4420  218.6470 C   0  0  0  0  0  0  0  0  0  0  0  0
  142.3380   78.5710  217.9020 C   0  0  0  0  0  0  0  0  0  0  0  0
  142.5870   78.6370  216.5380 O   0  0  0  0  0  0  0  0  0  0  0  0
  141.8860   79.4790  218.7230 O   0  0  0  0  0  0  0  0  0  0  0  0
  142.2590   73.7200  221.0060 C   0  0  0  0  0  0  0  0  0  0  0  0
  143.3590   74.4450  220.6340 C   0  0  0  0  0  0  0  0  0  0  0  0
  144.4760   73.8490  220.0760 C   0  0  0  0  0  0  0  0  0  0  0  0
  144.4520   72.4820  219.9030 C   0  0  0  0  0  0  0  0  0  0  0  0
  145.5720   71.9050  219.3470 C   0  0  0  0  0  0  0  0  0  0  0  0
  145.5750   70.5400  219.1630 C   0  0  0  0  0  0  0  0  0  0  0  0
  146.6900   69.9980  218.6120 F   0  0  0  0  0  0  0  0  0  0  0  0
  144.4750   69.7870  219.5320 C   0  0  0  0  0  0  0  0  0  0  0  0
  143.3680   70.3960  220.0870 C   0  0  0  0  0  0  0  0  0  0  0  0
  143.3350   71.7480  220.2820 C   0  0  0  0  0  0  0  0  0  0  0  0
  142.2610   72.3870  220.8270 N   0  0  0  0  0  0  0  0  0  0  0  0
  142.0330   76.4220  221.5130 H   0  0  0  0  0  0  0  0  0  0  0  0
  139.1199   75.8870  222.0412 H   0  0  0  0  0  0  0  0  0  0  0  0
  140.1198   76.4433  223.4580 H   0  0  0  0  0  0  0  0  0  0  0  0
  141.2304   78.1193  224.1595 H   0  0  0  0  0  0  0  0  0  0  0  0
  142.6932   78.5859  223.2877 H   0  0  0  0  0  0  0  0  0  0  0  0
  140.3803   80.5166  223.9214 H   0  0  0  0  0  0  0  0  0  0  0  0
  141.8308   80.3502  224.9533 H   0  0  0  0  0  0  0  0  0  0  0  0
  141.5838   82.0656  222.8096 H   0  0  0  0  0  0  0  0  0  0  0  0
  143.1429   81.4644  223.4957 H   0  0  0  0  0  0  0  0  0  0  0  0
  142.8171   81.2580  220.9805 H   0  0  0  0  0  0  0  0  0  0  0  0
  143.3211   79.7723  221.9077 H   0  0  0  0  0  0  0  0  0  0  0  0
  140.4869   80.3680  220.8721 H   0  0  0  0  0  0  0  0  0  0  0  0
  142.9318   76.4787  218.2768 H   0  0  0  0  0  0  0  0  0  0  0  0
  143.2960   79.2390  216.1330 H   0  0  0  0  0  0  0  0  0  0  0  0
  143.3547   75.5348  220.7833 H   0  0  0  0  0  0  0  0  0  0  0  0
  145.3521   74.4451  219.7809 H   0  0  0  0  0  0  0  0  0  0  0  0
  146.4394   72.5167  219.0581 H   0  0  0  0  0  0  0  0  0  0  0  0
  144.4826   68.6973  219.3823 H   0  0  0  0  0  0  0  0  0  0  0  0
  142.5004   69.7848  220.3763 H   0  0  0  0  0  0  0  0  0  0  0  0
  1  2  2  0
  2  3  1  0
  3  4  1  0
  4  5  1  0
  5  6  2  0
  5  7  1  0
  7  8  1  0
  8  9  1  0
  9 10  1  0
 10 11  1  0
 11 12  1  0
 12 13  1  0
 13 14  2  0
 14 15  1  0
 15 16  2  0
 16 17  1  0
 16 18  1  0
  2 19  1  0
 19 20  2  0
 20 21  1  0
 21 22  2  0
 22 23  1  0
 23 24  2  0
 24 25  1  0
 24 26  1  0
 26 27  2  0
 27 28  1  0
 28 29  2  0
 12  7  1  0
 18 13  1  0
 29 19  1  0
 28 22  1  0
  3 30  1  0
  4 31  1  0
  4 32  1  0
  8 33  1  0
  8 34  1  0
  9 35  1  0
  9 36  1  0
 10 37  1  0
 10 38  1  0
 11 39  1  0
 11 40  1  0
 12 41  1  6
 15 42  1  0
 17 43  1  0
 20 44  1  0
 21 45  1  0
 23 46  1  0
 26 47  1  0
 27 48  1  0
M  END
>  <smiles>  (16) 
O=C(NCC(=O)N1CCCC[C@H]1c1ncc(O)o1)c1ccc2cc(F)ccc2n1

>  <score_type>  (16) 
oracle

>  <origin>  (16) 
autodockgpu

>  <m_score__min__energy>  (16) 
-7.8899999999999997

>  <m_primary>  (16) 
energy

>  <rmsd>  (16) 
6.738814106307355

>  <m_score__min__rmsd>  (16) 
6.738814106307355

>  <meeko>  (16) 
{"free_energy": -7.15, "intermolecular_energy": -8.94, "internal_energy": -2.12, "cluster_size": 11, "cluster_id": 5, "rank_in_cluster": 1}

>  <energy>  (16) 
-7.23

>  <cluster_rmsd>  (16) 
0.42

>  <cluster>  (16) 
4

$$$$

     RDKit          3D

 48 51  0  0  0  0  0  0  0  0999 V2000
  139.3930   74.0870  222.0520 O   0  0  0  0  0  0  0  0  0  0  0  0
  140.5260   74.4940  221.7540 C   0  0  0  0  0  0  0  0  0  0  0  0
  140.7770   75.9010  221.9650 N   0  0  0  0  0  0  0  0  0  0  0  0
  139.6630   76.6590  222.5000 C   0  0  0  0  0  0  0  0  0  0  0  0
  139.5890   78.0290  221.9530 C   0  0  0  0  0  0  0  0  0  0  0  0
  138.6130   78.4590  221.2700 O   0  0  0  0  0  0  0  0  0  0  0  0
  140.6800   78.9000  222.2140 N   0  0  0  0  0  0  0  0  0  0  0  0
  141.2750   79.0690  223.5250 C   0  0  0  0  0  0  0  0  0  0  0  0
  141.1100   80.5380  223.8500 C   0  0  0  0  0  0  0  0  0  0  0  0
  142.0100   81.3250  222.9450 C   0  0  0  0  0  0  0  0  0  0  0  0
  142.4390   80.4990  221.7710 C   0  0  0  0  0  0  0  0  0  0  0  0
  141.2910   79.7140  221.1450 C   0  0  1  0  0  0  0  0  0  0  0  0
  141.8560   78.8700  220.0760 C   0  0  0  0  0  0  0  0  0  0  0  0
  142.1650   79.3120  218.8340 N   0  0  0  0  0  0  0  0  0  0  0  0
  142.6480   78.2710  218.1460 C   0  0  0  0  0  0  0  0  0  0  0  0
  142.6310   77.1870  218.9840 C   0  0  0  0  0  0  0  0  0  0  0  0
  143.0670   75.9260  218.5990 O   0  0  0  0  0  0  0  0  0  0  0  0
  142.1480   77.6030  220.1220 O   0  0  0  0  0  0  0  0  0  0  0  0
  141.5630   73.6180  221.2210 C   0  0  0  0  0  0  0  0  0  0  0  0
  141.2340   72.3120  220.9780 C   0  0  0  0  0  0  0  0  0  0  0  0
  142.1490   71.4070  220.4720 C   0  0  0  0  0  0  0  0  0  0  0  0
  143.4250   71.8620  220.2150 C   0  0  0  0  0  0  0  0  0  0  0  0
  144.3230   70.9480  219.7130 C   0  0  0  0  0  0  0  0  0  0  0  0
  145.6040   71.3770  219.4470 C   0  0  0  0  0  0  0  0  0  0  0  0
  146.4700   70.4560  218.9540 F   0  0  0  0  0  0  0  0  0  0  0  0
  145.9600   72.6920  219.6850 C   0  0  0  0  0  0  0  0  0  0  0  0
  145.0350   73.5830  220.1900 C   0  0  0  0  0  0  0  0  0  0  0  0
  143.7570   73.1880  220.4640 C   0  0  0  0  0  0  0  0  0  0  0  0
  142.8140   74.0380  220.9620 N   0  0  0  0  0  0  0  0  0  0  0  0
  141.7070   76.3240  221.7400 H   0  0  0  0  0  0  0  0  0  0  0  0
  138.7291   76.1318  222.2554 H   0  0  0  0  0  0  0  0  0  0  0  0
  139.8107   76.7433  223.5868 H   0  0  0  0  0  0  0  0  0  0  0  0
  140.7529   78.4486  224.2683 H   0  0  0  0  0  0  0  0  0  0  0  0
  142.3309   78.7610  223.5398 H   0  0  0  0  0  0  0  0  0  0  0  0
  140.0645   80.8394  223.6885 H   0  0  0  0  0  0  0  0  0  0  0  0
  141.3729   80.7251  224.9016 H   0  0  0  0  0  0  0  0  0  0  0  0
  141.4706   82.2128  222.5833 H   0  0  0  0  0  0  0  0  0  0  0  0
  142.9045   81.6242  223.5110 H   0  0  0  0  0  0  0  0  0  0  0  0
  142.8637   81.1679  221.0080 H   0  0  0  0  0  0  0  0  0  0  0  0
  143.1780   79.7694  222.1337 H   0  0  0  0  0  0  0  0  0  0  0  0
  140.5197   80.3648  220.7073 H   0  0  0  0  0  0  0  0  0  0  0  0
  142.9943   78.2831  217.1020 H   0  0  0  0  0  0  0  0  0  0  0  0
  143.0960   75.1340  219.2320 H   0  0  0  0  0  0  0  0  0  0  0  0
  140.2101   71.9716  221.1918 H   0  0  0  0  0  0  0  0  0  0  0  0
  141.8687   70.3606  220.2812 H   0  0  0  0  0  0  0  0  0  0  0  0
  144.0260   69.9049  219.5295 H   0  0  0  0  0  0  0  0  0  0  0  0
  146.9849   73.0292  219.4708 H   0  0  0  0  0  0  0  0  0  0  0  0
  145.3315   74.6261  220.3744 H   0  0  0  0  0  0  0  0  0  0  0  0
  1  2  2  0
  2  3  1  0
  3  4  1  0
  4  5  1  0
  5  6  2  0
  5  7  1  0
  7  8  1  0
  8  9  1  0
  9 10  1  0
 10 11  1  0
 11 12  1  0
 12 13  1  0
 13 14  2  0
 14 15  1  0
 15 16  2  0
 16 17  1  0
 16 18  1  0
  2 19  1  0
 19 20  2  0
 20 21  1  0
 21 22  2  0
 22 23  1  0
 23 24  2  0
 24 25  1  0
 24 26  1  0
 26 27  2  0
 27 28  1  0
 28 29  2  0
 12  7  1  0
 18 13  1  0
 29 19  1  0
 28 22  1  0
  3 30  1  0
  4 31  1  0
  4 32  1  0
  8 33  1  0
  8 34  1  0
  9 35  1  0
  9 36  1  0
 10 37  1  0
 10 38  1  0
 11 39  1  0
 11 40  1  0
 12 41  1  6
 15 42  1  0
 17 43  1  0
 20 44  1  0
 21 45  1  0
 23 46  1  0
 26 47  1  0
 27 48  1  0
M  END
>  <smiles>  (17) 
O=C(NCC(=O)N1CCCC[C@H]1c1ncc(O)o1)c1ccc2cc(F)ccc2n1

>  <score_type>  (17) 
oracle

>  <origin>  (17) 
autodockgpu

>  <m_score__min__energy>  (17) 
-7.8899999999999997

>  <m_primary>  (17) 
energy

>  <rmsd>  (17) 
6.346952143389852

>  <m_score__min__rmsd>  (17) 
6.346952143389852

>  <meeko>  (17) 
{"free_energy": -5.98, "intermolecular_energy": -7.77, "internal_energy": -3.15, "cluster_size": 11, "cluster_id": 5, "rank_in_cluster": 10}

>  <energy>  (17) 
-7.08

>  <cluster_rmsd>  (17) 
0.36

>  <cluster>  (17) 
4

$$$$

     RDKit          3D

 48 51  0  0  0  0  0  0  0  0999 V2000
  141.0690   71.8920  221.3540 O   0  0  0  0  0  0  0  0  0  0  0  0
  140.4990   72.3250  222.3680 C   0  0  0  0  0  0  0  0  0  0  0  0
  140.0350   73.6920  222.3060 N   0  0  0  0  0  0  0  0  0  0  0  0
  140.2990   74.3840  221.0590 C   0  0  0  0  0  0  0  0  0  0  0  0
  141.0450   75.6430  221.2520 C   0  0  0  0  0  0  0  0  0  0  0  0
  140.9910   76.3340  222.3130 O   0  0  0  0  0  0  0  0  0  0  0  0
  141.8630   76.0930  220.1810 N   0  0  0  0  0  0  0  0  0  0  0  0
  142.1640   77.4890  219.9350 C   0  0  0  0  0  0  0  0  0  0  0  0
  141.6370   77.7700  218.5450 C   0  0  0  0  0  0  0  0  0  0  0  0
  142.4990   77.0390  217.5580 C   0  0  0  0  0  0  0  0  0  0  0  0
  143.2970   75.9690  218.2390 C   0  0  0  0  0  0  0  0  0  0  0  0
  142.4710   75.1480  219.2240 C   0  0  1  0  0  0  0  0  0  0  0  0
  143.3830   74.2060  219.8970 C   0  0  0  0  0  0  0  0  0  0  0  0
  143.1200   72.8910  220.0900 N   0  0  0  0  0  0  0  0  0  0  0  0
  144.1690   72.3610  220.7300 C   0  0  0  0  0  0  0  0  0  0  0  0
  145.0770   73.3680  220.9250 C   0  0  0  0  0  0  0  0  0  0  0  0
  146.2950   73.1760  221.5640 O   0  0  0  0  0  0  0  0  0  0  0  0
  144.5550   74.4460  220.4080 O   0  0  0  0  0  0  0  0  0  0  0  0
  140.2980   71.5170  223.5650 C   0  0  0  0  0  0  0  0  0  0  0  0
  139.6400   70.3240  223.4270 C   0  0  0  0  0  0  0  0  0  0  0  0
  139.4020   69.4890  224.5050 C   0  0  0  0  0  0  0  0  0  0  0  0
  139.8520   69.8970  225.7420 C   0  0  0  0  0  0  0  0  0  0  0  0
  139.6070   69.0550  226.8030 C   0  0  0  0  0  0  0  0  0  0  0  0
  140.0460   69.4390  228.0500 C   0  0  0  0  0  0  0  0  0  0  0  0
  139.7910   68.5910  229.0780 F   0  0  0  0  0  0  0  0  0  0  0  0
  140.7130   70.6400  228.2130 C   0  0  0  0  0  0  0  0  0  0  0  0
  140.9430   71.4610  227.1290 C   0  0  0  0  0  0  0  0  0  0  0  0
  140.5190   71.1090  225.8780 C   0  0  0  0  0  0  0  0  0  0  0  0
  140.7270   71.8920  224.7830 N   0  0  0  0  0  0  0  0  0  0  0  0
  139.5450   74.1330  223.1180 H   0  0  0  0  0  0  0  0  0  0  0  0
  140.8885   73.7222  220.4074 H   0  0  0  0  0  0  0  0  0  0  0  0
  139.3282   74.6392  220.6091 H   0  0  0  0  0  0  0  0  0  0  0  0
  141.6603   78.1283  220.6750 H   0  0  0  0  0  0  0  0  0  0  0  0
  143.2410   77.6976  220.0161 H   0  0  0  0  0  0  0  0  0  0  0  0
  140.5978   77.4188  218.4631 H   0  0  0  0  0  0  0  0  0  0  0  0
  141.6609   78.8508  218.3418 H   0  0  0  0  0  0  0  0  0  0  0  0
  141.8585   76.5785  216.7913 H   0  0  0  0  0  0  0  0  0  0  0  0
  143.1930   77.7567  217.0963 H   0  0  0  0  0  0  0  0  0  0  0  0
  143.7032   75.2926  217.4725 H   0  0  0  0  0  0  0  0  0  0  0  0
  144.0945   76.4658  218.8110 H   0  0  0  0  0  0  0  0  0  0  0  0
  141.6721   74.5723  218.7338 H   0  0  0  0  0  0  0  0  0  0  0  0
  144.2812   71.3120  221.0415 H   0  0  0  0  0  0  0  0  0  0  0  0
  146.6080   72.2710  221.8980 H   0  0  0  0  0  0  0  0  0  0  0  0
  139.2900   70.0201  222.4294 H   0  0  0  0  0  0  0  0  0  0  0  0
  138.8722   68.5333  224.3787 H   0  0  0  0  0  0  0  0  0  0  0  0
  139.0757   68.1027  226.6586 H   0  0  0  0  0  0  0  0  0  0  0  0
  141.0615   70.9415  229.2118 H   0  0  0  0  0  0  0  0  0  0  0  0
  141.4753   72.4128  227.2731 H   0  0  0  0  0  0  0  0  0  0  0  0
  1  2  2  0
  2  3  1  0
  3  4  1  0
  4  5  1  0
  5  6  2  0
  5  7  1  0
  7  8  1  0
  8  9  1  0
  9 10  1  0
 10 11  1  0
 11 12  1  0
 12 13  1  0
 13 14  2  0
 14 15  1  0
 15 16  2  0
 16 17  1  0
 16 18  1  0
  2 19  1  0
 19 20  2  0
 20 21  1  0
 21 22  2  0
 22 23  1  0
 23 24  2  0
 24 25  1  0
 24 26  1  0
 26 27  2  0
 27 28  1  0
 28 29  2  0
 12  7  1  0
 18 13  1  0
 29 19  1  0
 28 22  1  0
  3 30  1  0
  4 31  1  0
  4 32  1  0
  8 33  1  0
  8 34  1  0
  9 35  1  0
  9 36  1  0
 10 37  1  0
 10 38  1  0
 11 39  1  0
 11 40  1  0
 12 41  1  6
 15 42  1  0
 17 43  1  0
 20 44  1  0
 21 45  1  0
 23 46  1  0
 26 47  1  0
 27 48  1  0
M  END
>  <smiles>  (18) 
O=C(NCC(=O)N1CCCC[C@H]1c1ncc(O)o1)c1ccc2cc(F)ccc2n1

>  <score_type>  (18) 
oracle

>  <origin>  (18) 
autodockgpu

>  <m_score__min__energy>  (18) 
-7.8899999999999997

>  <m_primary>  (18) 
energy

>  <rmsd>  (18) 
3.321436061207145

>  <m_score__min__rmsd>  (18) 
3.321436061207145

>  <meeko>  (18) 
{"free_energy": -7.85, "intermolecular_energy": -9.64, "internal_energy": -1.53, "cluster_size": 8, "cluster_id": 1, "rank_in_cluster": 2}

>  <energy>  (18) 
-6.73

>  <cluster_rmsd>  (18) 
0.8

>  <cluster>  (18) 
4

$$$$

     RDKit          3D

 48 51  0  0  0  0  0  0  0  0999 V2000
  139.4950   74.0460  221.9950 O   0  0  0  0  0  0  0  0  0  0  0  0
  140.6220   74.4720  221.7020 C   0  0  0  0  0  0  0  0  0  0  0  0
  140.8430   75.8860  221.8990 N   0  0  0  0  0  0  0  0  0  0  0  0
  139.7100   76.6280  222.4170 C   0  0  0  0  0  0  0  0  0  0  0  0
  139.6580   78.0150  221.9170 C   0  0  0  0  0  0  0  0  0  0  0  0
  138.6860   78.4860  221.2550 O   0  0  0  0  0  0  0  0  0  0  0  0
  140.7660   78.8580  222.1990 N   0  0  0  0  0  0  0  0  0  0  0  0
  141.3360   79.0170  223.5220 C   0  0  0  0  0  0  0  0  0  0  0  0
  141.2040   80.4910  223.8380 C   0  0  0  0  0  0  0  0  0  0  0  0
  142.1460   81.2490  222.9500 C   0  0  0  0  0  0  0  0  0  0  0  0
  142.5790   80.4050  221.7890 C   0  0  0  0  0  0  0  0  0  0  0  0
  141.4240   79.6490  221.1400 C   0  0  1  0  0  0  0  0  0  0  0  0
  141.9890   78.7850  220.0890 C   0  0  0  0  0  0  0  0  0  0  0  0
  142.0380   79.1100  218.7750 N   0  0  0  0  0  0  0  0  0  0  0  0
  142.6130   78.0880  218.1300 C   0  0  0  0  0  0  0  0  0  0  0  0
  142.9160   77.1350  219.0660 C   0  0  0  0  0  0  0  0  0  0  0  0
  143.5270   75.9290  218.7480 O   0  0  0  0  0  0  0  0  0  0  0  0
  142.5210   77.6040  220.2170 O   0  0  0  0  0  0  0  0  0  0  0  0
  141.6810   73.6120  221.1850 C   0  0  0  0  0  0  0  0  0  0  0  0
  141.3670   72.3080  220.9100 C   0  0  0  0  0  0  0  0  0  0  0  0
  142.3030   71.4170  220.4180 C   0  0  0  0  0  0  0  0  0  0  0  0
  143.5830   71.8840  220.2070 C   0  0  0  0  0  0  0  0  0  0  0  0
  144.5020   70.9840  219.7170 C   0  0  0  0  0  0  0  0  0  0  0  0
  145.7880   71.4250  219.4980 C   0  0  0  0  0  0  0  0  0  0  0  0
  146.6740   70.5180  219.0150 F   0  0  0  0  0  0  0  0  0  0  0  0
  146.1280   72.7390  219.7680 C   0  0  0  0  0  0  0  0  0  0  0  0
  145.1820   73.6160  220.2590 C   0  0  0  0  0  0  0  0  0  0  0  0
  143.8980   73.2080  220.4880 C   0  0  0  0  0  0  0  0  0  0  0  0
  142.9360   74.0430  220.9710 N   0  0  0  0  0  0  0  0  0  0  0  0
  141.7660   76.3250  221.6760 H   0  0  0  0  0  0  0  0  0  0  0  0
  138.7857   76.1119  222.1183 H   0  0  0  0  0  0  0  0  0  0  0  0
  139.8165   76.6741  223.5109 H   0  0  0  0  0  0  0  0  0  0  0  0
  140.7809   78.4142  224.2559 H   0  0  0  0  0  0  0  0  0  0  0  0
  142.3827   78.6809  223.5612 H   0  0  0  0  0  0  0  0  0  0  0  0
  140.1711   80.8203  223.6518 H   0  0  0  0  0  0  0  0  0  0  0  0
  141.4478   80.6755  224.8946 H   0  0  0  0  0  0  0  0  0  0  0  0
  141.6395   82.1494  222.5722 H   0  0  0  0  0  0  0  0  0  0  0  0
  143.0352   81.5267  223.5349 H   0  0  0  0  0  0  0  0  0  0  0  0
  143.0396   81.0580  221.0331 H   0  0  0  0  0  0  0  0  0  0  0  0
  143.2889   79.6570  222.1718 H   0  0  0  0  0  0  0  0  0  0  0  0
  140.6814   80.3184  220.6813 H   0  0  0  0  0  0  0  0  0  0  0  0
  142.8064   78.0250  217.0490 H   0  0  0  0  0  0  0  0  0  0  0  0
  144.4450   75.8700  218.3190 H   0  0  0  0  0  0  0  0  0  0  0  0
  140.3389   71.9585  221.0858 H   0  0  0  0  0  0  0  0  0  0  0  0
  142.0357   70.3720  220.2024 H   0  0  0  0  0  0  0  0  0  0  0  0
  144.2174   69.9425  219.5064 H   0  0  0  0  0  0  0  0  0  0  0  0
  147.1566   73.0860  219.5906 H   0  0  0  0  0  0  0  0  0  0  0  0
  145.4656   74.6579  220.4689 H   0  0  0  0  0  0  0  0  0  0  0  0
  1  2  2  0
  2  3  1  0
  3  4  1  0
  4  5  1  0
  5  6  2  0
  5  7  1  0
  7  8  1  0
  8  9  1  0
  9 10  1  0
 10 11  1  0
 11 12  1  0
 12 13  1  0
 13 14  2  0
 14 15  1  0
 15 16  2  0
 16 17  1  0
 16 18  1  0
  2 19  1  0
 19 20  2  0
 20 21  1  0
 21 22  2  0
 22 23  1  0
 23 24  2  0
 24 25  1  0
 24 26  1  0
 26 27  2  0
 27 28  1  0
 28 29  2  0
 12  7  1  0
 18 13  1  0
 29 19  1  0
 28 22  1  0
  3 30  1  0
  4 31  1  0
  4 32  1  0
  8 33  1  0
  8 34  1  0
  9 35  1  0
  9 36  1  0
 10 37  1  0
 10 38  1  0
 11 39  1  0
 11 40  1  0
 12 41  1  6
 15 42  1  0
 17 43  1  0
 20 44  1  0
 21 45  1  0
 23 46  1  0
 26 47  1  0
 27 48  1  0
M  END
>  <smiles>  (19) 
O=C(NCC(=O)N1CCCC[C@H]1c1ncc(O)o1)c1ccc2cc(F)ccc2n1

>  <score_type>  (19) 
oracle

>  <origin>  (19) 
autodockgpu

>  <m_score__min__energy>  (19) 
-7.8899999999999997

>  <m_primary>  (19) 
energy

>  <rmsd>  (19) 
6.37368636701484

>  <m_score__min__rmsd>  (19) 
6.37368636701484

>  <meeko>  (19) 
{"free_energy": -6.44, "intermolecular_energy": -8.23, "internal_energy": -2.58, "cluster_size": 11, "cluster_id": 5, "rank_in_cluster": 9}

>  <energy>  (19) 
-6.68

>  <cluster_rmsd>  (19) 
1.04

>  <cluster>  (19) 
4

$$$$

     RDKit          3D

 48 51  0  0  0  0  0  0  0  0999 V2000
  140.1340   71.0220  221.4280 O   0  0  0  0  0  0  0  0  0  0  0  0
  139.9600   71.5410  222.5410 C   0  0  0  0  0  0  0  0  0  0  0  0
  139.7480   72.9700  222.5530 N   0  0  0  0  0  0  0  0  0  0  0  0
  139.7680   73.6150  221.2550 C   0  0  0  0  0  0  0  0  0  0  0  0
  140.8970   74.5530  221.1000 C   0  0  0  0  0  0  0  0  0  0  0  0
  140.8480   75.7710  221.4480 O   0  0  0  0  0  0  0  0  0  0  0  0
  142.0960   74.0520  220.5280 N   0  0  0  0  0  0  0  0  0  0  0  0
  142.2400   72.7000  220.0250 C   0  0  0  0  0  0  0  0  0  0  0  0
  143.3610   72.0910  220.8380 C   0  0  0  0  0  0  0  0  0  0  0  0
  144.6450   72.7570  220.4430 C   0  0  0  0  0  0  0  0  0  0  0  0
  144.3780   74.0470  219.7290 C   0  0  0  0  0  0  0  0  0  0  0  0
  143.3050   74.8910  220.4070 C   0  0  1  0  0  0  0  0  0  0  0  0
  143.0620   76.0730  219.5610 C   0  0  0  0  0  0  0  0  0  0  0  0
  142.5520   77.2450  220.0090 N   0  0  0  0  0  0  0  0  0  0  0  0
  142.4750   78.0760  218.9630 C   0  0  0  0  0  0  0  0  0  0  0  0
  142.9450   77.3980  217.8700 C   0  0  0  0  0  0  0  0  0  0  0  0
  143.0110   77.9590  216.6010 O   0  0  0  0  0  0  0  0  0  0  0  0
  143.2810   76.2070  218.2850 O   0  0  0  0  0  0  0  0  0  0  0  0
  139.9630   70.7720  223.7790 C   0  0  0  0  0  0  0  0  0  0  0  0
  139.3760   69.5350  223.7650 C   0  0  0  0  0  0  0  0  0  0  0  0
  139.3310   68.7320  224.8910 C   0  0  0  0  0  0  0  0  0  0  0  0
  139.9030   69.2180  226.0470 C   0  0  0  0  0  0  0  0  0  0  0  0
  139.8490   68.4060  227.1580 C   0  0  0  0  0  0  0  0  0  0  0  0
  140.4120   68.8680  228.3260 C   0  0  0  0  0  0  0  0  0  0  0  0
  140.3440   68.0480  229.4060 F   0  0  0  0  0  0  0  0  0  0  0  0
  141.0110   70.1140  228.3640 C   0  0  0  0  0  0  0  0  0  0  0  0
  141.0480   70.9030  227.2330 C   0  0  0  0  0  0  0  0  0  0  0  0
  140.4970   70.4740  226.0590 C   0  0  0  0  0  0  0  0  0  0  0  0
  140.5140   71.2230  224.9200 N   0  0  0  0  0  0  0  0  0  0  0  0
  139.5940   73.4850  223.4500 H   0  0  0  0  0  0  0  0  0  0  0  0
  139.8459   72.8398  220.4785 H   0  0  0  0  0  0  0  0  0  0  0  0
  138.8390   74.1962  221.1595 H   0  0  0  0  0  0  0  0  0  0  0  0
  141.3079   72.1338  220.1685 H   0  0  0  0  0  0  0  0  0  0  0  0
  142.4585   72.6837  218.9470 H   0  0  0  0  0  0  0  0  0  0  0  0
  143.1730   72.2519  221.9098 H   0  0  0  0  0  0  0  0  0  0  0  0
  143.4216   71.0091  220.6490 H   0  0  0  0  0  0  0  0  0  0  0  0
  145.2382   72.9611  221.3466 H   0  0  0  0  0  0  0  0  0  0  0  0
  145.1959   72.0871  219.7663 H   0  0  0  0  0  0  0  0  0  0  0  0
  145.3113   74.6282  219.6941 H   0  0  0  0  0  0  0  0  0  0  0  0
  144.0128   73.7967  218.7221 H   0  0  0  0  0  0  0  0  0  0  0  0
  143.6041   75.2330  221.4088 H   0  0  0  0  0  0  0  0  0  0  0  0
  142.1033   79.1112  218.9783 H   0  0  0  0  0  0  0  0  0  0  0  0
  143.5490   78.7940  216.3930 H   0  0  0  0  0  0  0  0  0  0  0  0
  138.9266   69.1685  222.8303 H   0  0  0  0  0  0  0  0  0  0  0  0
  138.8554   67.7405  224.8645 H   0  0  0  0  0  0  0  0  0  0  0  0
  139.3698   67.4169  227.1133 H   0  0  0  0  0  0  0  0  0  0  0  0
  141.4599   70.4775  229.3002 H   0  0  0  0  0  0  0  0  0  0  0  0
  141.5281   71.8917  227.2772 H   0  0  0  0  0  0  0  0  0  0  0  0
  1  2  2  0
  2  3  1  0
  3  4  1  0
  4  5  1  0
  5  6  2  0
  5  7  1  0
  7  8  1  0
  8  9  1  0
  9 10  1  0
 10 11  1  0
 11 12  1  0
 12 13  1  0
 13 14  2  0
 14 15  1  0
 15 16  2  0
 16 17  1  0
 16 18  1  0
  2 19  1  0
 19 20  2  0
 20 21  1  0
 21 22  2  0
 22 23  1  0
 23 24  2  0
 24 25  1  0
 24 26  1  0
 26 27  2  0
 27 28  1  0
 28 29  2  0
 12  7  1  0
 18 13  1  0
 29 19  1  0
 28 22  1  0
  3 30  1  0
  4 31  1  0
  4 32  1  0
  8 33  1  0
  8 34  1  0
  9 35  1  0
  9 36  1  0
 10 37  1  0
 10 38  1  0
 11 39  1  0
 11 40  1  0
 12 41  1  1
 15 42  1  0
 17 43  1  0
 20 44  1  0
 21 45  1  0
 23 46  1  0
 26 47  1  0
 27 48  1  0
M  END
>  <smiles>  (20) 
O=C(NCC(=O)N1CCCC[C@H]1c1ncc(O)o1)c1ccc2cc(F)ccc2n1

>  <score_type>  (20) 
oracle

>  <origin>  (20) 
autodockgpu

>  <m_score__min__energy>  (20) 
-7.8899999999999997

>  <m_primary>  (20) 
energy

>  <rmsd>  (20) 
2.982381562889697

>  <m_score__min__rmsd>  (20) 
2.982381562889697

>  <meeko>  (20) 
{"free_energy": -7.74, "intermolecular_energy": -9.53, "internal_energy": -1.46, "cluster_size": 4, "cluster_id": 2, "rank_in_cluster": 1}

>  <energy>  (20) 
-6.0

>  <cluster_rmsd>  (20) 
1.68

>  <cluster>  (20) 
4

$$$$

     RDKit          3D

 48 51  0  0  0  0  0  0  0  0999 V2000
  137.6510   71.3130  221.1680 O   0  0  0  0  0  0  0  0  0  0  0  0
  138.1330   71.9420  222.1220 C   0  0  0  0  0  0  0  0  0  0  0  0
  138.2150   73.3760  221.9670 N   0  0  0  0  0  0  0  0  0  0  0  0
  137.7190   73.8960  220.7080 C   0  0  0  0  0  0  0  0  0  0  0  0
  137.8170   75.3660  220.6200 C   0  0  0  0  0  0  0  0  0  0  0  0
  137.1870   76.0600  219.7670 O   0  0  0  0  0  0  0  0  0  0  0  0
  138.6680   76.0260  221.5460 N   0  0  0  0  0  0  0  0  0  0  0  0
  138.2000   76.6170  222.7840 C   0  0  0  0  0  0  0  0  0  0  0  0
  138.5620   78.0830  222.6860 C   0  0  0  0  0  0  0  0  0  0  0  0
  140.0540   78.2070  222.7730 C   0  0  0  0  0  0  0  0  0  0  0  0
  140.7140   76.8890  222.5020 C   0  0  0  0  0  0  0  0  0  0  0  0
  140.1180   76.1600  221.3030 C   0  0  1  0  0  0  0  0  0  0  0  0
  140.7760   74.8450  221.2040 C   0  0  0  0  0  0  0  0  0  0  0  0
  141.6210   74.4840  220.2090 N   0  0  0  0  0  0  0  0  0  0  0  0
  142.0160   73.2290  220.4530 C   0  0  0  0  0  0  0  0  0  0  0  0
  141.4020   72.8270  221.6100 C   0  0  0  0  0  0  0  0  0  0  0  0
  141.5840   71.5680  222.1660 O   0  0  0  0  0  0  0  0  0  0  0  0
  140.6740   73.8320  222.0140 O   0  0  0  0  0  0  0  0  0  0  0  0
  138.5980   71.2900  223.3410 C   0  0  0  0  0  0  0  0  0  0  0  0
  138.0400   70.0850  223.6740 C   0  0  0  0  0  0  0  0  0  0  0  0
  138.4160   69.3920  224.8110 C   0  0  0  0  0  0  0  0  0  0  0  0
  139.3840   69.9560  225.6130 C   0  0  0  0  0  0  0  0  0  0  0  0
  139.7470   69.2540  226.7400 C   0  0  0  0  0  0  0  0  0  0  0  0
  140.7120   69.7950  227.5590 C   0  0  0  0  0  0  0  0  0  0  0  0
  141.0500   69.0820  228.6640 F   0  0  0  0  0  0  0  0  0  0  0  0
  141.2900   71.0110  227.2430 C   0  0  0  0  0  0  0  0  0  0  0  0
  140.9040   71.6910  226.1060 C   0  0  0  0  0  0  0  0  0  0  0  0
  139.9480   71.1800  225.2730 C   0  0  0  0  0  0  0  0  0  0  0  0
  139.5400   71.8190  224.1410 N   0  0  0  0  0  0  0  0  0  0  0  0
  138.6090   73.9790  222.7260 H   0  0  0  0  0  0  0  0  0  0  0  0
  138.3063   73.4546  219.8893 H   0  0  0  0  0  0  0  0  0  0  0  0
  136.6543   73.6293  220.6351 H   0  0  0  0  0  0  0  0  0  0  0  0
  137.1113   76.4943  222.8825 H   0  0  0  0  0  0  0  0  0  0  0  0
  138.6542   76.1395  223.6648 H   0  0  0  0  0  0  0  0  0  0  0  0
  138.2104   78.4895  221.7262 H   0  0  0  0  0  0  0  0  0  0  0  0
  138.0869   78.6459  223.5030 H   0  0  0  0  0  0  0  0  0  0  0  0
  140.3987   78.9423  222.0310 H   0  0  0  0  0  0  0  0  0  0  0  0
  140.3222   78.5335  223.7886 H   0  0  0  0  0  0  0  0  0  0  0  0
  141.7826   77.0651  222.3095 H   0  0  0  0  0  0  0  0  0  0  0  0
  140.5553   76.2535  223.3858 H   0  0  0  0  0  0  0  0  0  0  0  0
  140.2729   76.7001  220.3573 H   0  0  0  0  0  0  0  0  0  0  0  0
  142.7055   72.6312  219.8388 H   0  0  0  0  0  0  0  0  0  0  0  0
  140.8350   71.0440  222.6050 H   0  0  0  0  0  0  0  0  0  0  0  0
  137.2693   69.6547  223.0176 H   0  0  0  0  0  0  0  0  0  0  0  0
  137.9582   68.4248  225.0657 H   0  0  0  0  0  0  0  0  0  0  0  0
  139.2790   68.2877  226.9794 H   0  0  0  0  0  0  0  0  0  0  0  0
  142.0610   71.4381  227.9011 H   0  0  0  0  0  0  0  0  0  0  0  0
  141.3719   72.6573  225.8667 H   0  0  0  0  0  0  0  0  0  0  0  0
  1  2  2  0
  2  3  1  0
  3  4  1  0
  4  5  1  0
  5  6  2  0
  5  7  1  0
  7  8  1  0
  8  9  1  0
  9 10  1  0
 10 11  1  0
 11 12  1  0
 12 13  1  0
 13 14  2  0
 14 15  1  0
 15 16  2  0
 16 17  1  0
 16 18  1  0
  2 19  1  0
 19 20  2  0
 20 21  1  0
 21 22  2  0
 22 23  1  0
 23 24  2  0
 24 25  1  0
 24 26  1  0
 26 27  2  0
 27 28  1  0
 28 29  2  0
 12  7  1  0
 18 13  1  0
 29 19  1  0
 28 22  1  0
  3 30  1  0
  4 31  1  0
  4 32  1  0
  8 33  1  0
  8 34  1  0
  9 35  1  0
  9 36  1  0
 10 37  1  0
 10 38  1  0
 11 39  1  0
 11 40  1  0
 12 41  1  6
 15 42  1  0
 17 43  1  0
 20 44  1  0
 21 45  1  0
 23 46  1  0
 26 47  1  0
 27 48  1  0
M  END
>  <smiles>  (21) 
O=C(NCC(=O)N1CCCC[C@H]1c1ncc(O)o1)c1ccc2cc(F)ccc2n1

>  <score_type>  (21) 
oracle

>  <origin>  (21) 
autodockgpu

>  <m_score__min__energy>  (21) 
-7.8899999999999997

>  <m_primary>  (21) 
energy

>  <rmsd>  (21) 
3.4530763361774874

>  <m_score__min__rmsd>  (21) 
3.4530763361774874

>  <meeko>  (21) 
{"free_energy": -6.03, "intermolecular_energy": -7.82, "internal_energy": -3.09, "cluster_size": 7, "cluster_id": 10, "rank_in_cluster": 3}

>  <energy>  (21) 
-7.15

>  <cluster_rmsd>  (21) 
0.0

>  <cluster>  (21) 
5

$$$$

     RDKit          3D

 48 51  0  0  0  0  0  0  0  0999 V2000
  138.0330   70.0410  221.7610 O   0  0  0  0  0  0  0  0  0  0  0  0
  138.4600   70.9170  222.5280 C   0  0  0  0  0  0  0  0  0  0  0  0
  138.2350   72.2860  222.1250 N   0  0  0  0  0  0  0  0  0  0  0  0
  137.5350   72.4580  220.8670 C   0  0  0  0  0  0  0  0  0  0  0  0
  136.6380   73.6300  220.8680 C   0  0  0  0  0  0  0  0  0  0  0  0
  136.1700   74.1550  219.8130 O   0  0  0  0  0  0  0  0  0  0  0  0
  136.2890   74.1900  222.1250 N   0  0  0  0  0  0  0  0  0  0  0  0
  135.6800   73.4310  223.2000 C   0  0  0  0  0  0  0  0  0  0  0  0
  134.3580   74.1150  223.4700 C   0  0  0  0  0  0  0  0  0  0  0  0
  134.6370   75.4520  224.0900 C   0  0  0  0  0  0  0  0  0  0  0  0
  136.0610   75.8580  223.8600 C   0  0  0  0  0  0  0  0  0  0  0  0
  136.5250   75.6150  222.4280 C   0  0  1  0  0  0  0  0  0  0  0  0
  137.9570   75.9560  222.3560 C   0  0  0  0  0  0  0  0  0  0  0  0
  138.4540   77.2080  222.4900 N   0  0  0  0  0  0  0  0  0  0  0  0
  139.7840   77.1280  222.3670 C   0  0  0  0  0  0  0  0  0  0  0  0
  140.0940   75.8100  222.1570 C   0  0  0  0  0  0  0  0  0  0  0  0
  141.3950   75.3560  221.9850 O   0  0  0  0  0  0  0  0  0  0  0  0
  138.9640   75.1560  222.1600 O   0  0  0  0  0  0  0  0  0  0  0  0
  139.1520   70.6050  223.7730 C   0  0  0  0  0  0  0  0  0  0  0  0
  139.9870   71.5560  224.2960 C   0  0  0  0  0  0  0  0  0  0  0  0
  140.6860   71.3510  225.4720 C   0  0  0  0  0  0  0  0  0  0  0  0
  140.5170   70.1430  226.1150 C   0  0  0  0  0  0  0  0  0  0  0  0
  141.2210   69.9560  227.2840 C   0  0  0  0  0  0  0  0  0  0  0  0
  141.0700   68.7590  227.9460 C   0  0  0  0  0  0  0  0  0  0  0  0
  141.7750   68.6000  229.0950 F   0  0  0  0  0  0  0  0  0  0  0  0
  140.2320   67.7840  227.4370 C   0  0  0  0  0  0  0  0  0  0  0  0
  139.5410   68.0030  226.2630 C   0  0  0  0  0  0  0  0  0  0  0  0
  139.6700   69.1800  225.5820 C   0  0  0  0  0  0  0  0  0  0  0  0
  139.0050   69.4350  224.4200 N   0  0  0  0  0  0  0  0  0  0  0  0
  138.5630   73.0840  222.7160 H   0  0  0  0  0  0  0  0  0  0  0  0
  138.2779   72.5845  220.0657 H   0  0  0  0  0  0  0  0  0  0  0  0
  136.9130   71.5646  220.7089 H   0  0  0  0  0  0  0  0  0  0  0  0
  135.5184   72.3875  222.8918 H   0  0  0  0  0  0  0  0  0  0  0  0
  136.3182   73.4024  224.0955 H   0  0  0  0  0  0  0  0  0  0  0  0
  133.8095   74.2500  222.5261 H   0  0  0  0  0  0  0  0  0  0  0  0
  133.7464   73.5027  224.1491 H   0  0  0  0  0  0  0  0  0  0  0  0
  133.9707   76.2036  223.6416 H   0  0  0  0  0  0  0  0  0  0  0  0
  134.4607   75.3821  225.1735 H   0  0  0  0  0  0  0  0  0  0  0  0
  136.1604   76.9304  224.0836 H   0  0  0  0  0  0  0  0  0  0  0  0
  136.6899   75.2415  224.5192 H   0  0  0  0  0  0  0  0  0  0  0  0
  135.9821   76.2300  221.6951 H   0  0  0  0  0  0  0  0  0  0  0  0
  140.4959   77.9646  222.4239 H   0  0  0  0  0  0  0  0  0  0  0  0
  142.1900   75.9790  221.8880 H   0  0  0  0  0  0  0  0  0  0  0  0
  140.1055   72.5120  223.7649 H   0  0  0  0  0  0  0  0  0  0  0  0
  141.3533   72.1246  225.8799 H   0  0  0  0  0  0  0  0  0  0  0  0
  141.8845   70.7405  227.6769 H   0  0  0  0  0  0  0  0  0  0  0  0
  140.1157   66.8292  227.9706 H   0  0  0  0  0  0  0  0  0  0  0  0
  138.8771   67.2189  225.8700 H   0  0  0  0  0  0  0  0  0  0  0  0
  1  2  2  0
  2  3  1  0
  3  4  1  0
  4  5  1  0
  5  6  2  0
  5  7  1  0
  7  8  1  0
  8  9  1  0
  9 10  1  0
 10 11  1  0
 11 12  1  0
 12 13  1  0
 13 14  2  0
 14 15  1  0
 15 16  2  0
 16 17  1  0
 16 18  1  0
  2 19  1  0
 19 20  2  0
 20 21  1  0
 21 22  2  0
 22 23  1  0
 23 24  2  0
 24 25  1  0
 24 26  1  0
 26 27  2  0
 27 28  1  0
 28 29  2  0
 12  7  1  0
 18 13  1  0
 29 19  1  0
 28 22  1  0
  3 30  1  0
  4 31  1  0
  4 32  1  0
  8 33  1  0
  8 34  1  0
  9 35  1  0
  9 36  1  0
 10 37  1  0
 10 38  1  0
 11 39  1  0
 11 40  1  0
 12 41  1  6
 15 42  1  0
 17 43  1  0
 20 44  1  0
 21 45  1  0
 23 46  1  0
 26 47  1  0
 27 48  1  0
M  END
>  <smiles>  (22) 
O=C(NCC(=O)N1CCCC[C@H]1c1ncc(O)o1)c1ccc2cc(F)ccc2n1

>  <score_type>  (22) 
oracle

>  <origin>  (22) 
autodockgpu

>  <m_score__min__energy>  (22) 
-7.8899999999999997

>  <m_primary>  (22) 
energy

>  <rmsd>  (22) 
4.575080546272984

>  <m_score__min__rmsd>  (22) 
4.575080546272984

>  <meeko>  (22) 
{"free_energy": -6.54, "intermolecular_energy": -8.33, "internal_energy": -2.21, "cluster_size": 7, "cluster_id": 7, "rank_in_cluster": 6}

>  <energy>  (22) 
-7.11

>  <cluster_rmsd>  (22) 
0.1

>  <cluster>  (22) 
5

$$$$

     RDKit          3D

 48 51  0  0  0  0  0  0  0  0999 V2000
  140.0150   73.7950  221.9170 O   0  0  0  0  0  0  0  0  0  0  0  0
  141.0850   74.3560  221.6370 C   0  0  0  0  0  0  0  0  0  0  0  0
  141.1580   75.7720  221.9150 N   0  0  0  0  0  0  0  0  0  0  0  0
  139.9620   76.3560  222.4900 C   0  0  0  0  0  0  0  0  0  0  0  0
  139.6840   77.7110  221.9730 C   0  0  0  0  0  0  0  0  0  0  0  0
  138.6300   78.0160  221.3400 O   0  0  0  0  0  0  0  0  0  0  0  0
  140.6600   78.7160  222.2050 N   0  0  0  0  0  0  0  0  0  0  0  0
  141.2690   78.9590  223.4970 C   0  0  0  0  0  0  0  0  0  0  0  0
  140.9250   80.3930  223.8360 C   0  0  0  0  0  0  0  0  0  0  0  0
  141.6860   81.2920  222.9070 C   0  0  0  0  0  0  0  0  0  0  0  0
  142.1820   80.5300  221.7160 C   0  0  0  0  0  0  0  0  0  0  0  0
  141.1260   79.6040  221.1220 C   0  0  1  0  0  0  0  0  0  0  0  0
  141.7610   78.8420  220.0310 C   0  0  0  0  0  0  0  0  0  0  0  0
  142.2480   77.5850  220.1580 N   0  0  0  0  0  0  0  0  0  0  0  0
  142.7450   77.2250  218.9690 C   0  0  0  0  0  0  0  0  0  0  0  0
  142.5560   78.2780  218.1130 C   0  0  0  0  0  0  0  0  0  0  0  0
  142.9540   78.2540  216.7830 O   0  0  0  0  0  0  0  0  0  0  0  0
  141.9640   79.2160  218.8020 O   0  0  0  0  0  0  0  0  0  0  0  0
  142.2190   73.6450  221.0580 C   0  0  0  0  0  0  0  0  0  0  0  0
  143.3490   74.3650  220.7760 C   0  0  0  0  0  0  0  0  0  0  0  0
  144.4750   73.7780  220.2270 C   0  0  0  0  0  0  0  0  0  0  0  0
  144.4280   72.4260  219.9650 C   0  0  0  0  0  0  0  0  0  0  0  0
  145.5560   71.8580  219.4180 C   0  0  0  0  0  0  0  0  0  0  0  0
  145.5370   70.5080  219.1460 C   0  0  0  0  0  0  0  0  0  0  0  0
  146.6610   69.9740  218.6070 F   0  0  0  0  0  0  0  0  0  0  0  0
  144.4060   69.7600  219.4220 C   0  0  0  0  0  0  0  0  0  0  0  0
  143.2910   70.3600  219.9710 C   0  0  0  0  0  0  0  0  0  0  0  0
  143.2800   71.6970  220.2510 C   0  0  0  0  0  0  0  0  0  0  0  0
  142.1990   72.3270  220.7930 N   0  0  0  0  0  0  0  0  0  0  0  0
  142.0250   76.3190  221.7080 H   0  0  0  0  0  0  0  0  0  0  0  0
  139.1055   75.7071  222.2548 H   0  0  0  0  0  0  0  0  0  0  0  0
  140.1224   76.4409  223.5749 H   0  0  0  0  0  0  0  0  0  0  0  0
  140.8561   78.2745  224.2526 H   0  0  0  0  0  0  0  0  0  0  0  0
  142.3560   78.7914  223.4765 H   0  0  0  0  0  0  0  0  0  0  0  0
  139.8446   80.5562  223.7096 H   0  0  0  0  0  0  0  0  0  0  0  0
  141.1947   80.6109  224.8799 H   0  0  0  0  0  0  0  0  0  0  0  0
  141.0243   82.1021  222.5667 H   0  0  0  0  0  0  0  0  0  0  0  0
  142.5512   81.7050  223.4464 H   0  0  0  0  0  0  0  0  0  0  0  0
  142.4927   81.2491  220.9437 H   0  0  0  0  0  0  0  0  0  0  0  0
  143.0204   79.9020  222.0517 H   0  0  0  0  0  0  0  0  0  0  0  0
  140.2634   80.1501  220.7124 H   0  0  0  0  0  0  0  0  0  0  0  0
  143.2176   76.2623  218.7242 H   0  0  0  0  0  0  0  0  0  0  0  0
  143.4890   79.0010  216.3520 H   0  0  0  0  0  0  0  0  0  0  0  0
  143.3619   75.4434  220.9927 H   0  0  0  0  0  0  0  0  0  0  0  0
  145.3760   74.3696  220.0074 H   0  0  0  0  0  0  0  0  0  0  0  0
  146.4478   72.4653  219.2040 H   0  0  0  0  0  0  0  0  0  0  0  0
  144.3956   68.6821  219.2028 H   0  0  0  0  0  0  0  0  0  0  0  0
  142.3990   69.7533  220.1860 H   0  0  0  0  0  0  0  0  0  0  0  0
  1  2  2  0
  2  3  1  0
  3  4  1  0
  4  5  1  0
  5  6  2  0
  5  7  1  0
  7  8  1  0
  8  9  1  0
  9 10  1  0
 10 11  1  0
 11 12  1  0
 12 13  1  0
 13 14  2  0
 14 15  1  0
 15 16  2  0
 16 17  1  0
 16 18  1  0
  2 19  1  0
 19 20  2  0
 20 21  1  0
 21 22  2  0
 22 23  1  0
 23 24  2  0
 24 25  1  0
 24 26  1  0
 26 27  2  0
 27 28  1  0
 28 29  2  0
 12  7  1  0
 18 13  1  0
 29 19  1  0
 28 22  1  0
  3 30  1  0
  4 31  1  0
  4 32  1  0
  8 33  1  0
  8 34  1  0
  9 35  1  0
  9 36  1  0
 10 37  1  0
 10 38  1  0
 11 39  1  0
 11 40  1  0
 12 41  1  6
 15 42  1  0
 17 43  1  0
 20 44  1  0
 21 45  1  0
 23 46  1  0
 26 47  1  0
 27 48  1  0
M  END
>  <smiles>  (23) 
O=C(NCC(=O)N1CCCC[C@H]1c1ncc(O)o1)c1ccc2cc(F)ccc2n1

>  <score_type>  (23) 
oracle

>  <origin>  (23) 
autodockgpu

>  <m_score__min__energy>  (23) 
-7.8899999999999997

>  <m_primary>  (23) 
energy

>  <rmsd>  (23) 
6.696487749665303

>  <m_score__min__rmsd>  (23) 
6.696487749665303

>  <meeko>  (23) 
{"free_energy": -7.02, "intermolecular_energy": -8.81, "internal_energy": -2.1, "cluster_size": 11, "cluster_id": 5, "rank_in_cluster": 3}

>  <energy>  (23) 
-7.02

>  <cluster_rmsd>  (23) 
0.28

>  <cluster>  (23) 
5

$$$$

     RDKit          3D

 48 51  0  0  0  0  0  0  0  0999 V2000
  140.6870   77.0270  218.1740 O   0  0  0  0  0  0  0  0  0  0  0  0
  141.7860   77.0430  218.7510 C   0  0  0  0  0  0  0  0  0  0  0  0
  142.1990   78.3120  219.3030 N   0  0  0  0  0  0  0  0  0  0  0  0
  141.2700   79.4090  219.1100 C   0  0  0  0  0  0  0  0  0  0  0  0
  140.2830   79.5200  220.2010 C   0  0  0  0  0  0  0  0  0  0  0  0
  139.0330   79.5960  220.0100 O   0  0  0  0  0  0  0  0  0  0  0  0
  140.7750   79.5440  221.5340 N   0  0  0  0  0  0  0  0  0  0  0  0
  140.6960   80.7060  222.3960 C   0  0  0  0  0  0  0  0  0  0  0  0
  142.1300   81.0360  222.7500 C   0  0  0  0  0  0  0  0  0  0  0  0
  142.6530   79.9560  223.6510 C   0  0  0  0  0  0  0  0  0  0  0  0
  141.7920   78.7330  223.5710 C   0  0  0  0  0  0  0  0  0  0  0  0
  141.4170   78.3610  222.1410 C   0  0  1  0  0  0  0  0  0  0  0  0
  140.4940   77.2140  222.2030 C   0  0  0  0  0  0  0  0  0  0  0  0
  139.1440   77.3180  222.2370 N   0  0  0  0  0  0  0  0  0  0  0  0
  138.6470   76.0770  222.2910 C   0  0  0  0  0  0  0  0  0  0  0  0
  139.7100   75.2130  222.2880 C   0  0  0  0  0  0  0  0  0  0  0  0
  139.5630   73.8320  222.3360 O   0  0  0  0  0  0  0  0  0  0  0  0
  140.7870   75.9470  222.2350 O   0  0  0  0  0  0  0  0  0  0  0  0
  142.6280   75.8590  218.8760 C   0  0  0  0  0  0  0  0  0  0  0  0
  142.4130   74.8270  218.0020 C   0  0  0  0  0  0  0  0  0  0  0  0
  143.1620   73.6650  218.0430 C   0  0  0  0  0  0  0  0  0  0  0  0
  144.1460   73.5710  219.0040 C   0  0  0  0  0  0  0  0  0  0  0  0
  144.8810   72.4070  219.0310 C   0  0  0  0  0  0  0  0  0  0  0  0
  145.8710   72.2870  219.9800 C   0  0  0  0  0  0  0  0  0  0  0  0
  146.5800   71.1300  219.9850 F   0  0  0  0  0  0  0  0  0  0  0  0
  146.1060   73.3170  220.8730 C   0  0  0  0  0  0  0  0  0  0  0  0
  145.3510   74.4710  220.8190 C   0  0  0  0  0  0  0  0  0  0  0  0
  144.3610   74.6200  219.8890 C   0  0  0  0  0  0  0  0  0  0  0  0
  143.5950   75.7430  219.8030 N   0  0  0  0  0  0  0  0  0  0  0  0
  143.1120   78.4110  219.8050 H   0  0  0  0  0  0  0  0  0  0  0  0
  141.8408   80.3477  219.0554 H   0  0  0  0  0  0  0  0  0  0  0  0
  140.7157   79.2143  218.1800 H   0  0  0  0  0  0  0  0  0  0  0  0
  140.2259   81.5478  221.8665 H   0  0  0  0  0  0  0  0  0  0  0  0
  140.0857   80.5134  223.2906 H   0  0  0  0  0  0  0  0  0  0  0  0
  142.7378   81.0833  221.8344 H   0  0  0  0  0  0  0  0  0  0  0  0
  142.1806   82.0106  223.2575 H   0  0  0  0  0  0  0  0  0  0  0  0
  143.6774   79.6964  223.3457 H   0  0  0  0  0  0  0  0  0  0  0  0
  142.6442   80.3261  224.6868 H   0  0  0  0  0  0  0  0  0  0  0  0
  142.3374   77.8903  224.0209 H   0  0  0  0  0  0  0  0  0  0  0  0
  140.8583   78.9522  224.1096 H   0  0  0  0  0  0  0  0  0  0  0  0
  142.2882   78.0758  221.5329 H   0  0  0  0  0  0  0  0  0  0  0  0
  137.5827   75.8017  222.3305 H   0  0  0  0  0  0  0  0  0  0  0  0
  138.8330   73.3720  222.8690 H   0  0  0  0  0  0  0  0  0  0  0  0
  141.6211   74.9251  217.2449 H   0  0  0  0  0  0  0  0  0  0  0  0
  142.9790   72.8445  217.3336 H   0  0  0  0  0  0  0  0  0  0  0  0
  144.6828   71.5961  218.3147 H   0  0  0  0  0  0  0  0  0  0  0  0
  146.8981   73.2158  221.6295 H   0  0  0  0  0  0  0  0  0  0  0  0
  145.5490   75.2824  221.5348 H   0  0  0  0  0  0  0  0  0  0  0  0
  1  2  2  0
  2  3  1  0
  3  4  1  0
  4  5  1  0
  5  6  2  0
  5  7  1  0
  7  8  1  0
  8  9  1  0
  9 10  1  0
 10 11  1  0
 11 12  1  0
 12 13  1  0
 13 14  2  0
 14 15  1  0
 15 16  2  0
 16 17  1  0
 16 18  1  0
  2 19  1  0
 19 20  2  0
 20 21  1  0
 21 22  2  0
 22 23  1  0
 23 24  2  0
 24 25  1  0
 24 26  1  0
 26 27  2  0
 27 28  1  0
 28 29  2  0
 12  7  1  0
 18 13  1  0
 29 19  1  0
 28 22  1  0
  3 30  1  0
  4 31  1  0
  4 32  1  0
  8 33  1  0
  8 34  1  0
  9 35  1  0
  9 36  1  0
 10 37  1  0
 10 38  1  0
 11 39  1  0
 11 40  1  0
 12 41  1  6
 15 42  1  0
 17 43  1  0
 20 44  1  0
 21 45  1  0
 23 46  1  0
 26 47  1  0
 27 48  1  0
M  END
>  <smiles>  (24) 
O=C(NCC(=O)N1CCCC[C@H]1c1ncc(O)o1)c1ccc2cc(F)ccc2n1

>  <score_type>  (24) 
oracle

>  <origin>  (24) 
autodockgpu

>  <m_score__min__energy>  (24) 
-7.8899999999999997

>  <m_primary>  (24) 
energy

>  <rmsd>  (24) 
7.396336472632389

>  <m_score__min__rmsd>  (24) 
7.396336472632389

>  <meeko>  (24) 
{"free_energy": -7.08, "intermolecular_energy": -8.87, "internal_energy": -2.02, "cluster_size": 7, "cluster_id": 4, "rank_in_cluster": 4}

>  <energy>  (24) 
-6.86

>  <cluster_rmsd>  (24) 
1.06

>  <cluster>  (24) 
5

$$$$

     RDKit          3D

 48 51  0  0  0  0  0  0  0  0999 V2000
  137.5390   75.2440  222.5010 O   0  0  0  0  0  0  0  0  0  0  0  0
  136.7580   75.9160  223.1920 C   0  0  0  0  0  0  0  0  0  0  0  0
  136.8800   77.3510  223.0850 N   0  0  0  0  0  0  0  0  0  0  0  0
  137.9080   77.8230  222.1780 C   0  0  0  0  0  0  0  0  0  0  0  0
  138.4470   79.1430  222.5620 C   0  0  0  0  0  0  0  0  0  0  0  0
  137.7230   80.1630  222.7640 O   0  0  0  0  0  0  0  0  0  0  0  0
  139.8540   79.2610  222.7080 N   0  0  0  0  0  0  0  0  0  0  0  0
  140.4930   79.8590  223.8650 C   0  0  0  0  0  0  0  0  0  0  0  0
  141.2920   81.0220  223.3200 C   0  0  0  0  0  0  0  0  0  0  0  0
  142.4380   80.4740  222.5230 C   0  0  0  0  0  0  0  0  0  0  0  0
  142.2000   79.0380  222.1660 C   0  0  0  0  0  0  0  0  0  0  0  0
  140.7830   78.7770  221.6680 C   0  0  1  0  0  0  0  0  0  0  0  0
  140.6440   77.3260  221.4500 C   0  0  0  0  0  0  0  0  0  0  0  0
  140.8730   76.7030  220.2690 N   0  0  0  0  0  0  0  0  0  0  0  0
  140.6470   75.3970  220.4530 C   0  0  0  0  0  0  0  0  0  0  0  0
  140.2770   75.2290  221.7610 C   0  0  0  0  0  0  0  0  0  0  0  0
  139.9640   73.9910  222.3070 O   0  0  0  0  0  0  0  0  0  0  0  0
  140.2930   76.4140  222.3080 O   0  0  0  0  0  0  0  0  0  0  0  0
  135.7630   75.3100  224.0700 C   0  0  0  0  0  0  0  0  0  0  0  0
  135.5560   73.9610  223.9660 C   0  0  0  0  0  0  0  0  0  0  0  0
  134.6340   73.2980  224.7560 C   0  0  0  0  0  0  0  0  0  0  0  0
  133.9170   74.0440  225.6670 C   0  0  0  0  0  0  0  0  0  0  0  0
  133.0040   73.3680  226.4450 C   0  0  0  0  0  0  0  0  0  0  0  0
  132.2740   74.0900  227.3620 C   0  0  0  0  0  0  0  0  0  0  0  0
  131.3810   73.4000  228.1150 F   0  0  0  0  0  0  0  0  0  0  0  0
  132.4670   75.4540  227.4850 C   0  0  0  0  0  0  0  0  0  0  0  0
  133.3900   76.1020  226.6900 C   0  0  0  0  0  0  0  0  0  0  0  0
  134.1290   75.4130  225.7700 C   0  0  0  0  0  0  0  0  0  0  0  0
  135.0510   76.0150  224.9660 N   0  0  0  0  0  0  0  0  0  0  0  0
  136.2590   77.9880  223.6350 H   0  0  0  0  0  0  0  0  0  0  0  0
  138.7325   77.0949  222.1716 H   0  0  0  0  0  0  0  0  0  0  0  0
  137.4496   77.9287  221.1836 H   0  0  0  0  0  0  0  0  0  0  0  0
  139.7382   80.2123  224.5829 H   0  0  0  0  0  0  0  0  0  0  0  0
  141.1285   79.1391  224.4015 H   0  0  0  0  0  0  0  0  0  0  0  0
  140.6529   81.6422  222.6743 H   0  0  0  0  0  0  0  0  0  0  0  0
  141.6680   81.6436  224.1460 H   0  0  0  0  0  0  0  0  0  0  0  0
  142.5486   81.0615  221.5996 H   0  0  0  0  0  0  0  0  0  0  0  0
  143.3528   80.5392  223.1304 H   0  0  0  0  0  0  0  0  0  0  0  0
  142.9084   78.7510  221.3749 H   0  0  0  0  0  0  0  0  0  0  0  0
  142.3434   78.4428  223.0799 H   0  0  0  0  0  0  0  0  0  0  0  0
  140.5629   79.2960  220.7235 H   0  0  0  0  0  0  0  0  0  0  0  0
  140.7409   74.6056  219.6948 H   0  0  0  0  0  0  0  0  0  0  0  0
  139.1400   73.8290  222.8760 H   0  0  0  0  0  0  0  0  0  0  0  0
  136.1404   73.3867  223.2321 H   0  0  0  0  0  0  0  0  0  0  0  0
  134.4784   72.2132  224.6606 H   0  0  0  0  0  0  0  0  0  0  0  0
  132.8620   72.2826  226.3370 H   0  0  0  0  0  0  0  0  0  0  0  0
  131.8816   76.0253  228.2205 H   0  0  0  0  0  0  0  0  0  0  0  0
  133.5328   77.1873  226.7982 H   0  0  0  0  0  0  0  0  0  0  0  0
  1  2  2  0
  2  3  1  0
  3  4  1  0
  4  5  1  0
  5  6  2  0
  5  7  1  0
  7  8  1  0
  8  9  1  0
  9 10  1  0
 10 11  1  0
 11 12  1  0
 12 13  1  0
 13 14  2  0
 14 15  1  0
 15 16  2  0
 16 17  1  0
 16 18  1  0
  2 19  1  0
 19 20  2  0
 20 21  1  0
 21 22  2  0
 22 23  1  0
 23 24  2  0
 24 25  1  0
 24 26  1  0
 26 27  2  0
 27 28  1  0
 28 29  2  0
 12  7  1  0
 18 13  1  0
 29 19  1  0
 28 22  1  0
  3 30  1  0
  4 31  1  0
  4 32  1  0
  8 33  1  0
  8 34  1  0
  9 35  1  0
  9 36  1  0
 10 37  1  0
 10 38  1  0
 11 39  1  0
 11 40  1  0
 12 41  1  6
 15 42  1  0
 17 43  1  0
 20 44  1  0
 21 45  1  0
 23 46  1  0
 26 47  1  0
 27 48  1  0
M  END
>  <smiles>  (25) 
O=C(NCC(=O)N1CCCC[C@H]1c1ncc(O)o1)c1ccc2cc(F)ccc2n1

>  <score_type>  (25) 
oracle

>  <origin>  (25) 
autodockgpu

>  <m_score__min__energy>  (25) 
-7.8899999999999997

>  <m_primary>  (25) 
energy

>  <rmsd>  (25) 
6.632091084110051

>  <m_score__min__rmsd>  (25) 
6.632091084110051

>  <meeko>  (25) 
{"free_energy": -6.7, "intermolecular_energy": -8.49, "internal_energy": -1.94, "cluster_size": 1, "cluster_id": 8, "rank_in_cluster": 1}

>  <energy>  (25) 
-6.83

>  <cluster_rmsd>  (25) 
0.66

>  <cluster>  (25) 
5

$$$$

     RDKit          3D

 48 51  0  0  0  0  0  0  0  0999 V2000
  140.2110   77.4730  218.9200 O   0  0  0  0  0  0  0  0  0  0  0  0
  141.3910   77.2370  219.2240 C   0  0  0  0  0  0  0  0  0  0  0  0
  142.2290   78.3860  219.4770 N   0  0  0  0  0  0  0  0  0  0  0  0
  141.5780   79.6740  219.3400 C   0  0  0  0  0  0  0  0  0  0  0  0
  140.5060   79.8810  220.3340 C   0  0  0  0  0  0  0  0  0  0  0  0
  139.2860   80.0300  220.0270 O   0  0  0  0  0  0  0  0  0  0  0  0
  140.8780   79.9140  221.7040 N   0  0  0  0  0  0  0  0  0  0  0  0
  140.7290   81.0840  222.5470 C   0  0  0  0  0  0  0  0  0  0  0  0
  142.1280   81.4090  223.0240 C   0  0  0  0  0  0  0  0  0  0  0  0
  142.5630   80.3360  223.9770 C   0  0  0  0  0  0  0  0  0  0  0  0
  141.7050   79.1160  223.8310 C   0  0  0  0  0  0  0  0  0  0  0  0
  141.4560   78.7340  222.3760 C   0  0  1  0  0  0  0  0  0  0  0  0
  140.5250   77.5920  222.3650 C   0  0  0  0  0  0  0  0  0  0  0  0
  139.1750   77.7040  222.3730 N   0  0  0  0  0  0  0  0  0  0  0  0
  138.6690   76.4660  222.3590 C   0  0  0  0  0  0  0  0  0  0  0  0
  139.7250   75.5940  222.3430 C   0  0  0  0  0  0  0  0  0  0  0  0
  139.5690   74.2150  222.3260 O   0  0  0  0  0  0  0  0  0  0  0  0
  140.8090   76.3220  222.3480 O   0  0  0  0  0  0  0  0  0  0  0  0
  141.9220   75.8820  219.3280 C   0  0  0  0  0  0  0  0  0  0  0  0
  141.1290   74.8510  218.9010 C   0  0  0  0  0  0  0  0  0  0  0  0
  141.5470   73.5330  218.9600 C   0  0  0  0  0  0  0  0  0  0  0  0
  142.8030   73.2820  219.4680 C   0  0  0  0  0  0  0  0  0  0  0  0
  143.2030   71.9650  219.5190 C   0  0  0  0  0  0  0  0  0  0  0  0
  144.4540   71.6860  220.0210 C   0  0  0  0  0  0  0  0  0  0  0  0
  144.8220   70.3810  220.0610 F   0  0  0  0  0  0  0  0  0  0  0  0
  145.2720   72.7120  220.4580 C   0  0  0  0  0  0  0  0  0  0  0  0
  144.8410   74.0220  220.3930 C   0  0  0  0  0  0  0  0  0  0  0  0
  143.6050   74.3310  219.9000 C   0  0  0  0  0  0  0  0  0  0  0  0
  143.1440   75.6100  219.8190 N   0  0  0  0  0  0  0  0  0  0  0  0
  143.2350   78.2730  219.7380 H   0  0  0  0  0  0  0  0  0  0  0  0
  142.3324   80.4645  219.4667 H   0  0  0  0  0  0  0  0  0  0  0  0
  141.1160   79.7075  218.3423 H   0  0  0  0  0  0  0  0  0  0  0  0
  140.3127   81.9239  221.9714 H   0  0  0  0  0  0  0  0  0  0  0  0
  140.0403   80.9022  223.3852 H   0  0  0  0  0  0  0  0  0  0  0  0
  142.8147   81.4443  222.1654 H   0  0  0  0  0  0  0  0  0  0  0  0
  142.1390   82.3879  223.5256 H   0  0  0  0  0  0  0  0  0  0  0  0
  143.6090   80.0687  223.7664 H   0  0  0  0  0  0  0  0  0  0  0  0
  142.4648   80.7157  225.0047 H   0  0  0  0  0  0  0  0  0  0  0  0
  142.2037   78.2744  224.3340 H   0  0  0  0  0  0  0  0  0  0  0  0
  140.7286   79.3441  224.2832 H   0  0  0  0  0  0  0  0  0  0  0  0
  142.3763   78.4397  221.8502 H   0  0  0  0  0  0  0  0  0  0  0  0
  137.6022   76.1978  222.3601 H   0  0  0  0  0  0  0  0  0  0  0  0
  138.8360   73.7340  222.8370 H   0  0  0  0  0  0  0  0  0  0  0  0
  140.1302   75.0768  218.4992 H   0  0  0  0  0  0  0  0  0  0  0  0
  140.8991   72.7144  218.6135 H   0  0  0  0  0  0  0  0  0  0  0  0
  142.5415   71.1590  219.1685 H   0  0  0  0  0  0  0  0  0  0  0  0
  146.2704   72.4833  220.8591 H   0  0  0  0  0  0  0  0  0  0  0  0
  145.5022   74.8284  220.7432 H   0  0  0  0  0  0  0  0  0  0  0  0
  1  2  2  0
  2  3  1  0
  3  4  1  0
  4  5  1  0
  5  6  2  0
  5  7  1  0
  7  8  1  0
  8  9  1  0
  9 10  1  0
 10 11  1  0
 11 12  1  0
 12 13  1  0
 13 14  2  0
 14 15  1  0
 15 16  2  0
 16 17  1  0
 16 18  1  0
  2 19  1  0
 19 20  2  0
 20 21  1  0
 21 22  2  0
 22 23  1  0
 23 24  2  0
 24 25  1  0
 24 26  1  0
 26 27  2  0
 27 28  1  0
 28 29  2  0
 12  7  1  0
 18 13  1  0
 29 19  1  0
 28 22  1  0
  3 30  1  0
  4 31  1  0
  4 32  1  0
  8 33  1  0
  8 34  1  0
  9 35  1  0
  9 36  1  0
 10 37  1  0
 10 38  1  0
 11 39  1  0
 11 40  1  0
 12 41  1  6
 15 42  1  0
 17 43  1  0
 20 44  1  0
 21 45  1  0
 23 46  1  0
 26 47  1  0
 27 48  1  0
M  END
>  <smiles>  (26) 
O=C(NCC(=O)N1CCCC[C@H]1c1ncc(O)o1)c1ccc2cc(F)ccc2n1

>  <score_type>  (26) 
oracle

>  <origin>  (26) 
autodockgpu

>  <m_score__min__energy>  (26) 
-7.8899999999999997

>  <m_primary>  (26) 
energy

>  <rmsd>  (26) 
7.153060942874906

>  <m_score__min__rmsd>  (26) 
7.153060942874906

>  <meeko>  (26) 
{"free_energy": -6.68, "intermolecular_energy": -8.47, "internal_energy": -2.27, "cluster_size": 7, "cluster_id": 4, "rank_in_cluster": 6}

>  <energy>  (26) 
-6.82

>  <cluster_rmsd>  (26) 
1.04

>  <cluster>  (26) 
5

$$$$

     RDKit          3D

 48 51  0  0  0  0  0  0  0  0999 V2000
  140.0740   73.7630  221.9650 O   0  0  0  0  0  0  0  0  0  0  0  0
  141.1110   74.3330  221.5940 C   0  0  0  0  0  0  0  0  0  0  0  0
  141.1490   75.7670  221.7600 N   0  0  0  0  0  0  0  0  0  0  0  0
  139.9600   76.3580  222.3440 C   0  0  0  0  0  0  0  0  0  0  0  0
  139.7180   77.7360  221.8740 C   0  0  0  0  0  0  0  0  0  0  0  0
  138.6740   78.0890  221.2480 O   0  0  0  0  0  0  0  0  0  0  0  0
  140.7170   78.7080  222.1420 N   0  0  0  0  0  0  0  0  0  0  0  0
  141.3200   78.8990  223.4470 C   0  0  0  0  0  0  0  0  0  0  0  0
  141.0100   80.3320  223.8210 C   0  0  0  0  0  0  0  0  0  0  0  0
  141.8040   81.2350  222.9250 C   0  0  0  0  0  0  0  0  0  0  0  0
  142.2920   80.4930  221.7180 C   0  0  0  0  0  0  0  0  0  0  0  0
  141.2190   79.6130  221.0880 C   0  0  1  0  0  0  0  0  0  0  0  0
  141.8440   78.8640  219.9830 C   0  0  0  0  0  0  0  0  0  0  0  0
  141.9510   79.3210  218.7130 N   0  0  0  0  0  0  0  0  0  0  0  0
  142.5700   78.3750  217.9970 C   0  0  0  0  0  0  0  0  0  0  0  0
  142.8400   77.3340  218.8460 C   0  0  0  0  0  0  0  0  0  0  0  0
  143.4830   76.1720  218.4380 O   0  0  0  0  0  0  0  0  0  0  0  0
  142.3850   77.6810  220.0180 O   0  0  0  0  0  0  0  0  0  0  0  0
  142.2420   73.6140  221.0180 C   0  0  0  0  0  0  0  0  0  0  0  0
  143.3870   74.3210  220.7640 C   0  0  0  0  0  0  0  0  0  0  0  0
  144.5100   73.7250  220.2200 C   0  0  0  0  0  0  0  0  0  0  0  0
  144.4460   72.3780  219.9350 C   0  0  0  0  0  0  0  0  0  0  0  0
  145.5730   71.8020  219.3930 C   0  0  0  0  0  0  0  0  0  0  0  0
  145.5360   70.4570  219.0990 C   0  0  0  0  0  0  0  0  0  0  0  0
  146.6600   69.9140  218.5660 F   0  0  0  0  0  0  0  0  0  0  0  0
  144.3910   69.7230  219.3480 C   0  0  0  0  0  0  0  0  0  0  0  0
  143.2780   70.3310  219.8910 C   0  0  0  0  0  0  0  0  0  0  0  0
  143.2830   71.6630  220.1930 C   0  0  0  0  0  0  0  0  0  0  0  0
  142.2050   72.3000  220.7310 N   0  0  0  0  0  0  0  0  0  0  0  0
  141.9870   76.3230  221.4720 H   0  0  0  0  0  0  0  0  0  0  0  0
  139.0916   75.7378  222.0772 H   0  0  0  0  0  0  0  0  0  0  0  0
  140.1111   76.4005  223.4327 H   0  0  0  0  0  0  0  0  0  0  0  0
  140.8816   78.2056  224.1798 H   0  0  0  0  0  0  0  0  0  0  0  0
  142.4022   78.7026  223.4327 H   0  0  0  0  0  0  0  0  0  0  0  0
  139.9356   80.5270  223.6879 H   0  0  0  0  0  0  0  0  0  0  0  0
  141.2740   80.5146  224.8731 H   0  0  0  0  0  0  0  0  0  0  0  0
  141.1676   82.0717  222.6009 H   0  0  0  0  0  0  0  0  0  0  0  0
  142.6742   81.6095  223.4840 H   0  0  0  0  0  0  0  0  0  0  0  0
  142.6299   81.2246  220.9693 H   0  0  0  0  0  0  0  0  0  0  0  0
  143.1096   79.8335  222.0445 H   0  0  0  0  0  0  0  0  0  0  0  0
  140.3764   80.1939  220.6847 H   0  0  0  0  0  0  0  0  0  0  0  0
  142.8163   78.4240  216.9260 H   0  0  0  0  0  0  0  0  0  0  0  0
  144.3940   76.1710  217.9920 H   0  0  0  0  0  0  0  0  0  0  0  0
  143.4142   75.3951  220.9998 H   0  0  0  0  0  0  0  0  0  0  0  0
  145.4228   74.3058  220.0216 H   0  0  0  0  0  0  0  0  0  0  0  0
  146.4768   72.3988  219.2004 H   0  0  0  0  0  0  0  0  0  0  0  0
  144.3674   68.6489  219.1120 H   0  0  0  0  0  0  0  0  0  0  0  0
  142.3739   69.7347  220.0834 H   0  0  0  0  0  0  0  0  0  0  0  0
  1  2  2  0
  2  3  1  0
  3  4  1  0
  4  5  1  0
  5  6  2  0
  5  7  1  0
  7  8  1  0
  8  9  1  0
  9 10  1  0
 10 11  1  0
 11 12  1  0
 12 13  1  0
 13 14  2  0
 14 15  1  0
 15 16  2  0
 16 17  1  0
 16 18  1  0
  2 19  1  0
 19 20  2  0
 20 21  1  0
 21 22  2  0
 22 23  1  0
 23 24  2  0
 24 25  1  0
 24 26  1  0
 26 27  2  0
 27 28  1  0
 28 29  2  0
 12  7  1  0
 18 13  1  0
 29 19  1  0
 28 22  1  0
  3 30  1  0
  4 31  1  0
  4 32  1  0
  8 33  1  0
  8 34  1  0
  9 35  1  0
  9 36  1  0
 10 37  1  0
 10 38  1  0
 11 39  1  0
 11 40  1  0
 12 41  1  6
 15 42  1  0
 17 43  1  0
 20 44  1  0
 21 45  1  0
 23 46  1  0
 26 47  1  0
 27 48  1  0
M  END
>  <smiles>  (27) 
O=C(NCC(=O)N1CCCC[C@H]1c1ncc(O)o1)c1ccc2cc(F)ccc2n1

>  <score_type>  (27) 
oracle

>  <origin>  (27) 
autodockgpu

>  <m_score__min__energy>  (27) 
-7.8899999999999997

>  <m_primary>  (27) 
energy

>  <rmsd>  (27) 
6.7370202081972845

>  <m_score__min__rmsd>  (27) 
6.7370202081972845

>  <meeko>  (27) 
{"free_energy": -6.86, "intermolecular_energy": -8.65, "internal_energy": -2.32, "cluster_size": 11, "cluster_id": 5, "rank_in_cluster": 4}

>  <energy>  (27) 
-6.79

>  <cluster_rmsd>  (27) 
1.1

>  <cluster>  (27) 
5

$$$$

     RDKit          3D

 48 51  0  0  0  0  0  0  0  0999 V2000
  137.7430   70.2240  221.7280 O   0  0  0  0  0  0  0  0  0  0  0  0
  138.3080   70.9030  222.5990 C   0  0  0  0  0  0  0  0  0  0  0  0
  138.3850   72.3240  222.3530 N   0  0  0  0  0  0  0  0  0  0  0  0
  137.7880   72.7750  221.1100 C   0  0  0  0  0  0  0  0  0  0  0  0
  136.4210   73.3010  221.2910 C   0  0  0  0  0  0  0  0  0  0  0  0
  135.5280   73.2550  220.3940 O   0  0  0  0  0  0  0  0  0  0  0  0
  136.1040   73.8920  222.5440 N   0  0  0  0  0  0  0  0  0  0  0  0
  135.6090   73.1410  223.6810 C   0  0  0  0  0  0  0  0  0  0  0  0
  134.2600   73.7470  223.9990 C   0  0  0  0  0  0  0  0  0  0  0  0
  134.4800   75.1250  224.5490 C   0  0  0  0  0  0  0  0  0  0  0  0
  135.8570   75.6150  224.2210 C   0  0  0  0  0  0  0  0  0  0  0  0
  136.2570   75.3420  222.7750 C   0  0  1  0  0  0  0  0  0  0  0  0
  137.6560   75.7740  222.6070 C   0  0  0  0  0  0  0  0  0  0  0  0
  138.0770   77.0580  222.6960 N   0  0  0  0  0  0  0  0  0  0  0  0
  139.3990   77.0620  222.4880 C   0  0  0  0  0  0  0  0  0  0  0  0
  139.7810   75.7640  222.2720 C   0  0  0  0  0  0  0  0  0  0  0  0
  141.0960   75.3940  222.0200 O   0  0  0  0  0  0  0  0  0  0  0  0
  138.7000   75.0390  222.3550 O   0  0  0  0  0  0  0  0  0  0  0  0
  138.8690   70.3190  223.8120 C   0  0  0  0  0  0  0  0  0  0  0  0
  138.7600   68.9650  223.9800 C   0  0  0  0  0  0  0  0  0  0  0  0
  139.2610   68.3220  225.0970 C   0  0  0  0  0  0  0  0  0  0  0  0
  139.8850   69.0930  226.0540 C   0  0  0  0  0  0  0  0  0  0  0  0
  140.3780   68.4370  227.1590 C   0  0  0  0  0  0  0  0  0  0  0  0
  141.0060   69.1840  228.1300 C   0  0  0  0  0  0  0  0  0  0  0  0
  141.4820   68.5130  229.2090 F   0  0  0  0  0  0  0  0  0  0  0  0
  141.1290   70.5540  227.9820 C   0  0  0  0  0  0  0  0  0  0  0  0
  140.6240   71.1810  226.8620 C   0  0  0  0  0  0  0  0  0  0  0  0
  139.9950   70.4680  225.8810 C   0  0  0  0  0  0  0  0  0  0  0  0
  139.4830   71.0500  224.7600 N   0  0  0  0  0  0  0  0  0  0  0  0
  138.8450   72.9670  223.0380 H   0  0  0  0  0  0  0  0  0  0  0  0
  138.4178   73.5710  220.6859 H   0  0  0  0  0  0  0  0  0  0  0  0
  137.7227   71.9059  220.4389 H   0  0  0  0  0  0  0  0  0  0  0  0
  135.5029   72.0768  223.4238 H   0  0  0  0  0  0  0  0  0  0  0  0
  136.2957   73.1929  224.5387 H   0  0  0  0  0  0  0  0  0  0  0  0
  133.6531   73.8046  223.0834 H   0  0  0  0  0  0  0  0  0  0  0  0
  133.7297   73.1254  224.7355 H   0  0  0  0  0  0  0  0  0  0  0  0
  133.7395   75.8105  224.1112 H   0  0  0  0  0  0  0  0  0  0  0  0
  134.3695   75.0899  225.6429 H   0  0  0  0  0  0  0  0  0  0  0  0
  135.8940   76.7003  224.3961 H   0  0  0  0  0  0  0  0  0  0  0  0
  136.5626   75.0711  224.8662 H   0  0  0  0  0  0  0  0  0  0  0  0
  135.6337   75.8870  222.0508 H   0  0  0  0  0  0  0  0  0  0  0  0
  140.0568   77.9436  222.4901 H   0  0  0  0  0  0  0  0  0  0  0  0
  141.8660   76.0540  222.0220 H   0  0  0  0  0  0  0  0  0  0  0  0
  138.2584   68.3700  223.2025 H   0  0  0  0  0  0  0  0  0  0  0  0
  139.1649   67.2329  225.2176 H   0  0  0  0  0  0  0  0  0  0  0  0
  140.2732   67.3470  227.2633 H   0  0  0  0  0  0  0  0  0  0  0  0
  141.6318   71.1459  228.7610 H   0  0  0  0  0  0  0  0  0  0  0  0
  140.7292   72.2709  226.7572 H   0  0  0  0  0  0  0  0  0  0  0  0
  1  2  2  0
  2  3  1  0
  3  4  1  0
  4  5  1  0
  5  6  2  0
  5  7  1  0
  7  8  1  0
  8  9  1  0
  9 10  1  0
 10 11  1  0
 11 12  1  0
 12 13  1  0
 13 14  2  0
 14 15  1  0
 15 16  2  0
 16 17  1  0
 16 18  1  0
  2 19  1  0
 19 20  2  0
 20 21  1  0
 21 22  2  0
 22 23  1  0
 23 24  2  0
 24 25  1  0
 24 26  1  0
 26 27  2  0
 27 28  1  0
 28 29  2  0
 12  7  1  0
 18 13  1  0
 29 19  1  0
 28 22  1  0
  3 30  1  0
  4 31  1  0
  4 32  1  0
  8 33  1  0
  8 34  1  0
  9 35  1  0
  9 36  1  0
 10 37  1  0
 10 38  1  0
 11 39  1  0
 11 40  1  0
 12 41  1  6
 15 42  1  0
 17 43  1  0
 20 44  1  0
 21 45  1  0
 23 46  1  0
 26 47  1  0
 27 48  1  0
M  END
>  <smiles>  (28) 
O=C(NCC(=O)N1CCCC[C@H]1c1ncc(O)o1)c1ccc2cc(F)ccc2n1

>  <score_type>  (28) 
oracle

>  <origin>  (28) 
autodockgpu

>  <m_score__min__energy>  (28) 
-7.8899999999999997

>  <m_primary>  (28) 
energy

>  <rmsd>  (28) 
4.405949931023272

>  <m_score__min__rmsd>  (28) 
4.405949931023272

>  <meeko>  (28) 
{"free_energy": -6.75, "intermolecular_energy": -8.54, "internal_energy": -2.3, "cluster_size": 7, "cluster_id": 7, "rank_in_cluster": 2}

>  <energy>  (28) 
-6.62

>  <cluster_rmsd>  (28) 
0.87

>  <cluster>  (28) 
5

$$$$

     RDKit          3D

 48 51  0  0  0  0  0  0  0  0999 V2000
  140.7970   77.5750  217.9130 O   0  0  0  0  0  0  0  0  0  0  0  0
  141.7900   77.4700  218.6490 C   0  0  0  0  0  0  0  0  0  0  0  0
  142.1160   78.6260  219.4530 N   0  0  0  0  0  0  0  0  0  0  0  0
  141.2330   79.7650  219.2930 C   0  0  0  0  0  0  0  0  0  0  0  0
  140.2600   79.8920  220.3950 C   0  0  0  0  0  0  0  0  0  0  0  0
  139.0150   80.0500  220.2150 O   0  0  0  0  0  0  0  0  0  0  0  0
  140.7590   79.8350  221.7230 N   0  0  0  0  0  0  0  0  0  0  0  0
  140.6660   80.9350  222.6630 C   0  0  0  0  0  0  0  0  0  0  0  0
  142.0960   81.2650  223.0310 C   0  0  0  0  0  0  0  0  0  0  0  0
  142.6420   80.1370  223.8550 C   0  0  0  0  0  0  0  0  0  0  0  0
  141.8010   78.9070  223.6970 C   0  0  0  0  0  0  0  0  0  0  0  0
  141.4240   78.6260  222.2470 C   0  0  1  0  0  0  0  0  0  0  0  0
  140.5210   77.4610  222.2360 C   0  0  0  0  0  0  0  0  0  0  0  0
  139.1730   77.5380  222.1290 N   0  0  0  0  0  0  0  0  0  0  0  0
  138.6960   76.2890  222.1560 C   0  0  0  0  0  0  0  0  0  0  0  0
  139.7690   75.4460  222.2800 C   0  0  0  0  0  0  0  0  0  0  0  0
  139.6440   74.0640  222.3390 O   0  0  0  0  0  0  0  0  0  0  0  0
  140.8320   76.2010  222.3230 O   0  0  0  0  0  0  0  0  0  0  0  0
  142.5980   76.2580  218.7150 C   0  0  0  0  0  0  0  0  0  0  0  0
  142.5100   75.3730  217.6740 C   0  0  0  0  0  0  0  0  0  0  0  0
  143.2370   74.1970  217.6470 C   0  0  0  0  0  0  0  0  0  0  0  0
  144.0670   73.9340  218.7150 C   0  0  0  0  0  0  0  0  0  0  0  0
  144.7840   72.7590  218.6730 C   0  0  0  0  0  0  0  0  0  0  0  0
  145.6210   72.4720  219.7270 C   0  0  0  0  0  0  0  0  0  0  0  0
  146.3150   71.3070  219.6600 F   0  0  0  0  0  0  0  0  0  0  0  0
  145.7270   73.3500  220.7900 C   0  0  0  0  0  0  0  0  0  0  0  0
  144.9950   74.5190  220.8020 C   0  0  0  0  0  0  0  0  0  0  0  0
  144.1550   74.8330  219.7710 C   0  0  0  0  0  0  0  0  0  0  0  0
  143.4160   75.9770  219.7450 N   0  0  0  0  0  0  0  0  0  0  0  0
  142.9380   78.6190  220.0990 H   0  0  0  0  0  0  0  0  0  0  0  0
  141.8425   80.6799  219.2549 H   0  0  0  0  0  0  0  0  0  0  0  0
  140.6639   79.6155  218.3636 H   0  0  0  0  0  0  0  0  0  0  0  0
  140.1784   81.8025  222.1944 H   0  0  0  0  0  0  0  0  0  0  0  0
  140.0649   80.6715  223.5457 H   0  0  0  0  0  0  0  0  0  0  0  0
  142.6973   81.3835  222.1176 H   0  0  0  0  0  0  0  0  0  0  0  0
  142.1335   82.2044  223.6020 H   0  0  0  0  0  0  0  0  0  0  0  0
  143.6689   79.9161  223.5285 H   0  0  0  0  0  0  0  0  0  0  0  0
  142.6328   80.4368  224.9133 H   0  0  0  0  0  0  0  0  0  0  0  0
  142.3632   78.0454  224.0864 H   0  0  0  0  0  0  0  0  0  0  0  0
  140.8670   79.0731  224.2538 H   0  0  0  0  0  0  0  0  0  0  0  0
  142.2966   78.3981  221.6173 H   0  0  0  0  0  0  0  0  0  0  0  0
  137.6385   75.9933  222.0908 H   0  0  0  0  0  0  0  0  0  0  0  0
  139.0420   73.5920  223.0050 H   0  0  0  0  0  0  0  0  0  0  0  0
  141.8401   75.6047  216.8329 H   0  0  0  0  0  0  0  0  0  0  0  0
  143.1556   73.4964  216.8029 H   0  0  0  0  0  0  0  0  0  0  0  0
  144.6903   72.0694  217.8211 H   0  0  0  0  0  0  0  0  0  0  0  0
  146.3979   73.1152  221.6295 H   0  0  0  0  0  0  0  0  0  0  0  0
  145.0888   75.2085  221.6539 H   0  0  0  0  0  0  0  0  0  0  0  0
  1  2  2  0
  2  3  1  0
  3  4  1  0
  4  5  1  0
  5  6  2  0
  5  7  1  0
  7  8  1  0
  8  9  1  0
  9 10  1  0
 10 11  1  0
 11 12  1  0
 12 13  1  0
 13 14  2  0
 14 15  1  0
 15 16  2  0
 16 17  1  0
 16 18  1  0
  2 19  1  0
 19 20  2  0
 20 21  1  0
 21 22  2  0
 22 23  1  0
 23 24  2  0
 24 25  1  0
 24 26  1  0
 26 27  2  0
 27 28  1  0
 28 29  2  0
 12  7  1  0
 18 13  1  0
 29 19  1  0
 28 22  1  0
  3 30  1  0
  4 31  1  0
  4 32  1  0
  8 33  1  0
  8 34  1  0
  9 35  1  0
  9 36  1  0
 10 37  1  0
 10 38  1  0
 11 39  1  0
 11 40  1  0
 12 41  1  6
 15 42  1  0
 17 43  1  0
 20 44  1  0
 21 45  1  0
 23 46  1  0
 26 47  1  0
 27 48  1  0
M  END
>  <smiles>  (29) 
O=C(NCC(=O)N1CCCC[C@H]1c1ncc(O)o1)c1ccc2cc(F)ccc2n1

>  <score_type>  (29) 
oracle

>  <origin>  (29) 
autodockgpu

>  <m_score__min__energy>  (29) 
-7.8899999999999997

>  <m_primary>  (29) 
energy

>  <rmsd>  (29) 
7.63080553417188

>  <m_score__min__rmsd>  (29) 
7.63080553417188

>  <meeko>  (29) 
{"free_energy": -7.23, "intermolecular_energy": -9.01, "internal_energy": -1.92, "cluster_size": 7, "cluster_id": 4, "rank_in_cluster": 3}

>  <energy>  (29) 
-6.44

>  <cluster_rmsd>  (29) 
1.32

>  <cluster>  (29) 
5

$$$$

     RDKit          3D

 48 51  0  0  0  0  0  0  0  0999 V2000
  137.8320   70.9960  221.1260 O   0  0  0  0  0  0  0  0  0  0  0  0
  138.2560   71.6480  222.0930 C   0  0  0  0  0  0  0  0  0  0  0  0
  138.2560   73.0850  221.9460 N   0  0  0  0  0  0  0  0  0  0  0  0
  137.7580   73.5820  220.6780 C   0  0  0  0  0  0  0  0  0  0  0  0
  137.6750   75.0550  220.6350 C   0  0  0  0  0  0  0  0  0  0  0  0
  136.9060   75.6910  219.8540 O   0  0  0  0  0  0  0  0  0  0  0  0
  138.5090   75.7870  221.5220 N   0  0  0  0  0  0  0  0  0  0  0  0
  138.0410   76.3720  222.7630 C   0  0  0  0  0  0  0  0  0  0  0  0
  138.3040   77.8560  222.6260 C   0  0  0  0  0  0  0  0  0  0  0  0
  139.7870   78.0760  222.6640 C   0  0  0  0  0  0  0  0  0  0  0  0
  140.5230   76.7980  222.3980 C   0  0  0  0  0  0  0  0  0  0  0  0
  139.9390   76.0080  221.2320 C   0  0  1  0  0  0  0  0  0  0  0  0
  140.6770   74.7360  221.1380 C   0  0  0  0  0  0  0  0  0  0  0  0
  141.5300   74.4170  220.1350 N   0  0  0  0  0  0  0  0  0  0  0  0
  142.0060   73.1920  220.3870 C   0  0  0  0  0  0  0  0  0  0  0  0
  141.4340   72.7660  221.5560 C   0  0  0  0  0  0  0  0  0  0  0  0
  141.7030   71.5270  222.1230 O   0  0  0  0  0  0  0  0  0  0  0  0
  140.6500   73.7280  221.9590 O   0  0  0  0  0  0  0  0  0  0  0  0
  138.7310   71.0180  223.3190 C   0  0  0  0  0  0  0  0  0  0  0  0
  138.3200   69.7380  223.5820 C   0  0  0  0  0  0  0  0  0  0  0  0
  138.7190   69.0590  224.7190 C   0  0  0  0  0  0  0  0  0  0  0  0
  139.5540   69.7160  225.5970 C   0  0  0  0  0  0  0  0  0  0  0  0
  139.9410   69.0250  226.7240 C   0  0  0  0  0  0  0  0  0  0  0  0
  140.7760   69.6580  227.6170 C   0  0  0  0  0  0  0  0  0  0  0  0
  141.1400   68.9550  228.7190 F   0  0  0  0  0  0  0  0  0  0  0  0
  141.2030   70.9500  227.3730 C   0  0  0  0  0  0  0  0  0  0  0  0
  140.7980   71.6150  226.2340 C   0  0  0  0  0  0  0  0  0  0  0  0
  139.9690   71.0140  225.3280 C   0  0  0  0  0  0  0  0  0  0  0  0
  139.5460   71.6360  224.1920 N   0  0  0  0  0  0  0  0  0  0  0  0
  138.5960   73.7060  222.7160 H   0  0  0  0  0  0  0  0  0  0  0  0
  138.4335   73.2444  219.8782 H   0  0  0  0  0  0  0  0  0  0  0  0
  136.7395   73.1884  220.5444 H   0  0  0  0  0  0  0  0  0  0  0  0
  136.9660   76.1816  222.8980 H   0  0  0  0  0  0  0  0  0  0  0  0
  138.5514   75.9430  223.6379 H   0  0  0  0  0  0  0  0  0  0  0  0
  137.8983   78.2191  221.6702 H   0  0  0  0  0  0  0  0  0  0  0  0
  137.8180   78.4047  223.4462 H   0  0  0  0  0  0  0  0  0  0  0  0
  140.0613   78.8160  221.8977 H   0  0  0  0  0  0  0  0  0  0  0  0
  140.0634   78.4396  223.6647 H   0  0  0  0  0  0  0  0  0  0  0  0
  141.5717   77.0382  222.1688 H   0  0  0  0  0  0  0  0  0  0  0  0
  140.4334   76.1722  223.2982 H   0  0  0  0  0  0  0  0  0  0  0  0
  140.0301   76.5373  220.2720 H   0  0  0  0  0  0  0  0  0  0  0  0
  142.7235   72.6314  219.7698 H   0  0  0  0  0  0  0  0  0  0  0  0
  141.1630   71.1410  222.8900 H   0  0  0  0  0  0  0  0  0  0  0  0
  137.6523   69.2348  222.8672 H   0  0  0  0  0  0  0  0  0  0  0  0
  138.3817   68.0306  224.9157 H   0  0  0  0  0  0  0  0  0  0  0  0
  139.5930   67.9974  226.9052 H   0  0  0  0  0  0  0  0  0  0  0  0
  141.8693   71.4506  228.0909 H   0  0  0  0  0  0  0  0  0  0  0  0
  141.1467   72.6423  226.0524 H   0  0  0  0  0  0  0  0  0  0  0  0
  1  2  2  0
  2  3  1  0
  3  4  1  0
  4  5  1  0
  5  6  2  0
  5  7  1  0
  7  8  1  0
  8  9  1  0
  9 10  1  0
 10 11  1  0
 11 12  1  0
 12 13  1  0
 13 14  2  0
 14 15  1  0
 15 16  2  0
 16 17  1  0
 16 18  1  0
  2 19  1  0
 19 20  2  0
 20 21  1  0
 21 22  2  0
 22 23  1  0
 23 24  2  0
 24 25  1  0
 24 26  1  0
 26 27  2  0
 27 28  1  0
 28 29  2  0
 12  7  1  0
 18 13  1  0
 29 19  1  0
 28 22  1  0
  3 30  1  0
  4 31  1  0
  4 32  1  0
  8 33  1  0
  8 34  1  0
  9 35  1  0
  9 36  1  0
 10 37  1  0
 10 38  1  0
 11 39  1  0
 11 40  1  0
 12 41  1  6
 15 42  1  0
 17 43  1  0
 20 44  1  0
 21 45  1  0
 23 46  1  0
 26 47  1  0
 27 48  1  0
M  END
>  <smiles>  (30) 
O=C(NCC(=O)N1CCCC[C@H]1c1ncc(O)o1)c1ccc2cc(F)ccc2n1

>  <score_type>  (30) 
oracle

>  <origin>  (30) 
autodockgpu

>  <m_score__min__energy>  (30) 
-7.8899999999999997

>  <m_primary>  (30) 
energy

>  <rmsd>  (30) 
3.4116116637745413

>  <m_score__min__rmsd>  (30) 
3.4116116637745413

>  <meeko>  (30) 
{"free_energy": -6.09, "intermolecular_energy": -7.88, "internal_energy": -3.05, "cluster_size": 7, "cluster_id": 10, "rank_in_cluster": 2}

>  <energy>  (30) 
-5.98

>  <cluster_rmsd>  (30) 
1.19

>  <cluster>  (30) 
5

$$$$

     RDKit          3D

 48 51  0  0  0  0  0  0  0  0999 V2000
  141.9060   78.2210  218.1930 O   0  0  0  0  0  0  0  0  0  0  0  0
  142.3510   77.6400  219.1950 C   0  0  0  0  0  0  0  0  0  0  0  0
  142.2050   78.3320  220.4540 N   0  0  0  0  0  0  0  0  0  0  0  0
  141.5540   79.6260  220.3820 C   0  0  0  0  0  0  0  0  0  0  0  0
  141.2530   80.1880  221.7130 C   0  0  0  0  0  0  0  0  0  0  0  0
  142.1220   80.7360  222.4550 O   0  0  0  0  0  0  0  0  0  0  0  0
  139.9130   80.1030  222.1760 N   0  0  0  0  0  0  0  0  0  0  0  0
  138.8480   80.9700  221.7120 C   0  0  0  0  0  0  0  0  0  0  0  0
  138.3470   81.6810  222.9500 C   0  0  0  0  0  0  0  0  0  0  0  0
  137.6400   80.6800  223.8150 C   0  0  0  0  0  0  0  0  0  0  0  0
  138.0100   79.2820  223.4210 C   0  0  0  0  0  0  0  0  0  0  0  0
  139.5060   79.1060  223.1860 C   0  0  1  0  0  0  0  0  0  0  0  0
  139.7260   77.7290  222.7080 C   0  0  0  0  0  0  0  0  0  0  0  0
  138.7390   76.8340  222.4680 N   0  0  0  0  0  0  0  0  0  0  0  0
  139.3150   75.7010  222.0520 C   0  0  0  0  0  0  0  0  0  0  0  0
  140.6690   75.9140  222.0400 C   0  0  0  0  0  0  0  0  0  0  0  0
  141.5850   74.9440  221.6560 O   0  0  0  0  0  0  0  0  0  0  0  0
  140.8560   77.1420  222.4410 O   0  0  0  0  0  0  0  0  0  0  0  0
  142.9890   76.3300  219.1280 C   0  0  0  0  0  0  0  0  0  0  0  0
  142.6740   75.5190  218.0710 C   0  0  0  0  0  0  0  0  0  0  0  0
  143.2280   74.2600  217.9220 C   0  0  0  0  0  0  0  0  0  0  0  0
  144.1210   73.8360  218.8820 C   0  0  0  0  0  0  0  0  0  0  0  0
  144.6630   72.5810  218.7190 C   0  0  0  0  0  0  0  0  0  0  0  0
  145.5580   72.1330  219.6640 C   0  0  0  0  0  0  0  0  0  0  0  0
  146.0760   70.8930  219.4790 F   0  0  0  0  0  0  0  0  0  0  0  0
  145.8920   72.9350  220.7400 C   0  0  0  0  0  0  0  0  0  0  0  0
  145.3300   74.1880  220.8750 C   0  0  0  0  0  0  0  0  0  0  0  0
  144.4390   74.6610  219.9540 C   0  0  0  0  0  0  0  0  0  0  0  0
  143.8630   75.8930  220.0510 N   0  0  0  0  0  0  0  0  0  0  0  0
  142.5540   77.9110  221.3460 H   0  0  0  0  0  0  0  0  0  0  0  0
  142.2156   80.3233  219.8472 H   0  0  0  0  0  0  0  0  0  0  0  0
  140.5977   79.4876  219.8563 H   0  0  0  0  0  0  0  0  0  0  0  0
  139.2325   81.6952  220.9798 H   0  0  0  0  0  0  0  0  0  0  0  0
  138.0481   80.4059  221.2100 H   0  0  0  0  0  0  0  0  0  0  0  0
  139.1960   82.1135  223.4996 H   0  0  0  0  0  0  0  0  0  0  0  0
  137.6588   82.4917  222.6688 H   0  0  0  0  0  0  0  0  0  0  0  0
  137.9237   80.8461  224.8647 H   0  0  0  0  0  0  0  0  0  0  0  0
  136.5549   80.8072  223.6874 H   0  0  0  0  0  0  0  0  0  0  0  0
  137.6982   78.5974  224.2236 H   0  0  0  0  0  0  0  0  0  0  0  0
  137.4994   79.0614  222.4720 H   0  0  0  0  0  0  0  0  0  0  0  0
  140.1005   79.2592  224.0988 H   0  0  0  0  0  0  0  0  0  0  0  0
  138.7984   74.7712  221.7717 H   0  0  0  0  0  0  0  0  0  0  0  0
  142.5830   75.1180  221.5970 H   0  0  0  0  0  0  0  0  0  0  0  0
  141.9586   75.8793  217.3171 H   0  0  0  0  0  0  0  0  0  0  0  0
  142.9648   73.6198  217.0671 H   0  0  0  0  0  0  0  0  0  0  0  0
  144.3886   71.9540  217.8579 H   0  0  0  0  0  0  0  0  0  0  0  0
  146.6088   72.5725  221.4915 H   0  0  0  0  0  0  0  0  0  0  0  0
  145.6034   74.8149  221.7366 H   0  0  0  0  0  0  0  0  0  0  0  0
  1  2  2  0
  2  3  1  0
  3  4  1  0
  4  5  1  0
  5  6  2  0
  5  7  1  0
  7  8  1  0
  8  9  1  0
  9 10  1  0
 10 11  1  0
 11 12  1  0
 12 13  1  0
 13 14  2  0
 14 15  1  0
 15 16  2  0
 16 17  1  0
 16 18  1  0
  2 19  1  0
 19 20  2  0
 20 21  1  0
 21 22  2  0
 22 23  1  0
 23 24  2  0
 24 25  1  0
 24 26  1  0
 26 27  2  0
 27 28  1  0
 28 29  2  0
 12  7  1  0
 18 13  1  0
 29 19  1  0
 28 22  1  0
  3 30  1  0
  4 31  1  0
  4 32  1  0
  8 33  1  0
  8 34  1  0
  9 35  1  0
  9 36  1  0
 10 37  1  0
 10 38  1  0
 11 39  1  0
 11 40  1  0
 12 41  1  1
 15 42  1  0
 17 43  1  0
 20 44  1  0
 21 45  1  0
 23 46  1  0
 26 47  1  0
 27 48  1  0
M  END
>  <smiles>  (31) 
O=C(NCC(=O)N1CCCC[C@H]1c1ncc(O)o1)c1ccc2cc(F)ccc2n1

>  <score_type>  (31) 
oracle

>  <origin>  (31) 
autodockgpu

>  <m_score__min__energy>  (31) 
-7.8899999999999997

>  <m_primary>  (31) 
energy

>  <rmsd>  (31) 
7.652455816957687

>  <m_score__min__rmsd>  (31) 
7.652455816957687

>  <meeko>  (31) 
{"free_energy": -6.0, "intermolecular_energy": -7.79, "internal_energy": -3.19, "cluster_size": 7, "cluster_id": 4, "rank_in_cluster": 7}

>  <energy>  (31) 
-5.92

>  <cluster_rmsd>  (31) 
1.24

>  <cluster>  (31) 
5

$$$$

     RDKit          3D

 48 51  0  0  0  0  0  0  0  0999 V2000
  138.5190   70.4780  221.5000 O   0  0  0  0  0  0  0  0  0  0  0  0
  138.8350   71.2780  222.3950 C   0  0  0  0  0  0  0  0  0  0  0  0
  138.6270   72.6770  222.1040 N   0  0  0  0  0  0  0  0  0  0  0  0
  138.0740   72.9670  220.7960 C   0  0  0  0  0  0  0  0  0  0  0  0
  136.7660   73.6480  220.8660 C   0  0  0  0  0  0  0  0  0  0  0  0
  135.9890   73.7770  219.8740 O   0  0  0  0  0  0  0  0  0  0  0  0
  136.3710   74.1840  222.1210 N   0  0  0  0  0  0  0  0  0  0  0  0
  135.7970   73.3880  223.1870 C   0  0  0  0  0  0  0  0  0  0  0  0
  134.4330   73.9910  223.4440 C   0  0  0  0  0  0  0  0  0  0  0  0
  134.6250   75.3410  224.0690 C   0  0  0  0  0  0  0  0  0  0  0  0
  136.0240   75.8320  223.8550 C   0  0  0  0  0  0  0  0  0  0  0  0
  136.5170   75.6200  222.4280 C   0  0  1  0  0  0  0  0  0  0  0  0
  137.9270   76.0460  222.3720 C   0  0  0  0  0  0  0  0  0  0  0  0
  138.3380   77.3370  222.3600 N   0  0  0  0  0  0  0  0  0  0  0  0
  139.6750   77.3320  222.3050 C   0  0  0  0  0  0  0  0  0  0  0  0
  140.0770   76.0230  222.2840 C   0  0  0  0  0  0  0  0  0  0  0  0
  141.4110   75.6410  222.2280 O   0  0  0  0  0  0  0  0  0  0  0  0
  138.9920   75.2990  222.3260 O   0  0  0  0  0  0  0  0  0  0  0  0
  139.3850   70.8500  223.6760 C   0  0  0  0  0  0  0  0  0  0  0  0
  140.2240   71.7120  224.3310 C   0  0  0  0  0  0  0  0  0  0  0  0
  140.7940   71.3940  225.5500 C   0  0  0  0  0  0  0  0  0  0  0  0
  140.4920   70.1660  226.0980 C   0  0  0  0  0  0  0  0  0  0  0  0
  141.0680   69.8670  227.3120 C   0  0  0  0  0  0  0  0  0  0  0  0
  140.7820   68.6460  227.8820 C   0  0  0  0  0  0  0  0  0  0  0  0
  141.3640   68.3760  229.0780 F   0  0  0  0  0  0  0  0  0  0  0  0
  139.9380   67.7600  227.2380 C   0  0  0  0  0  0  0  0  0  0  0  0
  139.3770   68.0900  226.0220 C   0  0  0  0  0  0  0  0  0  0  0  0
  139.6410   69.2940  225.4310 C   0  0  0  0  0  0  0  0  0  0  0  0
  139.1060   69.6580  224.2320 N   0  0  0  0  0  0  0  0  0  0  0  0
  138.8670   73.4160  222.8050 H   0  0  0  0  0  0  0  0  0  0  0  0
  138.7783   73.6137  220.2522 H   0  0  0  0  0  0  0  0  0  0  0  0
  137.9205   72.0071  220.2811 H   0  0  0  0  0  0  0  0  0  0  0  0
  135.7015   72.3375  222.8751 H   0  0  0  0  0  0  0  0  0  0  0  0
  136.4259   73.3957  224.0894 H   0  0  0  0  0  0  0  0  0  0  0  0
  133.8874   74.0949  222.4945 H   0  0  0  0  0  0  0  0  0  0  0  0
  133.8520   73.3417  224.1154 H   0  0  0  0  0  0  0  0  0  0  0  0
  133.9196   76.0524  223.6147 H   0  0  0  0  0  0  0  0  0  0  0  0
  134.4419   75.2582  225.1505 H   0  0  0  0  0  0  0  0  0  0  0  0
  136.0565   76.9080  224.0810 H   0  0  0  0  0  0  0  0  0  0  0  0
  136.6817   75.2532  224.5202 H   0  0  0  0  0  0  0  0  0  0  0  0
  135.9458   76.2027  221.6903 H   0  0  0  0  0  0  0  0  0  0  0  0
  140.3298   78.2155  222.2811 H   0  0  0  0  0  0  0  0  0  0  0  0
  142.1610   76.2850  222.0020 H   0  0  0  0  0  0  0  0  0  0  0  0
  140.4511   72.6863  223.8737 H   0  0  0  0  0  0  0  0  0  0  0  0
  141.4655   72.0970  226.0647 H   0  0  0  0  0  0  0  0  0  0  0  0
  141.7372   70.5823  227.8124 H   0  0  0  0  0  0  0  0  0  0  0  0
  139.7128   66.7866  227.6981 H   0  0  0  0  0  0  0  0  0  0  0  0
  138.7081   67.3747  225.5210 H   0  0  0  0  0  0  0  0  0  0  0  0
  1  2  2  0
  2  3  1  0
  3  4  1  0
  4  5  1  0
  5  6  2  0
  5  7  1  0
  7  8  1  0
  8  9  1  0
  9 10  1  0
 10 11  1  0
 11 12  1  0
 12 13  1  0
 13 14  2  0
 14 15  1  0
 15 16  2  0
 16 17  1  0
 16 18  1  0
  2 19  1  0
 19 20  2  0
 20 21  1  0
 21 22  2  0
 22 23  1  0
 23 24  2  0
 24 25  1  0
 24 26  1  0
 26 27  2  0
 27 28  1  0
 28 29  2  0
 12  7  1  0
 18 13  1  0
 29 19  1  0
 28 22  1  0
  3 30  1  0
  4 31  1  0
  4 32  1  0
  8 33  1  0
  8 34  1  0
  9 35  1  0
  9 36  1  0
 10 37  1  0
 10 38  1  0
 11 39  1  0
 11 40  1  0
 12 41  1  6
 15 42  1  0
 17 43  1  0
 20 44  1  0
 21 45  1  0
 23 46  1  0
 26 47  1  0
 27 48  1  0
M  END
>  <smiles>  (32) 
O=C(NCC(=O)N1CCCC[C@H]1c1ncc(O)o1)c1ccc2cc(F)ccc2n1

>  <score_type>  (32) 
oracle

>  <origin>  (32) 
autodockgpu

>  <m_score__min__energy>  (32) 
-7.8899999999999997

>  <m_primary>  (32) 
energy

>  <rmsd>  (32) 
4.558413570237156

>  <m_score__min__rmsd>  (32) 
4.558413570237156

>  <meeko>  (32) 
{"free_energy": -6.76, "intermolecular_energy": -8.55, "internal_energy": -2.24, "cluster_size": 7, "cluster_id": 7, "rank_in_cluster": 1}

>  <energy>  (32) 
-7.13

>  <cluster_rmsd>  (32) 
0.0

>  <cluster>  (32) 
6

$$$$

     RDKit          3D

 48 51  0  0  0  0  0  0  0  0999 V2000
  140.0520   71.1780  221.2460 O   0  0  0  0  0  0  0  0  0  0  0  0
  139.9310   71.7390  222.3460 C   0  0  0  0  0  0  0  0  0  0  0  0
  139.7830   73.1760  222.3180 N   0  0  0  0  0  0  0  0  0  0  0  0
  139.7950   73.7780  220.9990 C   0  0  0  0  0  0  0  0  0  0  0  0
  141.1420   73.8010  220.3940 C   0  0  0  0  0  0  0  0  0  0  0  0
  141.7670   72.7580  220.0370 O   0  0  0  0  0  0  0  0  0  0  0  0
  141.7590   75.0670  220.2100 N   0  0  0  0  0  0  0  0  0  0  0  0
  141.3100   76.2800  220.8650 C   0  0  0  0  0  0  0  0  0  0  0  0
  140.9510   77.2280  219.7410 C   0  0  0  0  0  0  0  0  0  0  0  0
  142.2160   77.6410  219.0510 C   0  0  0  0  0  0  0  0  0  0  0  0
  143.3360   76.7030  219.3850 C   0  0  0  0  0  0  0  0  0  0  0  0
  142.9230   75.2370  219.3180 C   0  0  1  0  0  0  0  0  0  0  0  0
  144.0710   74.4270  219.7630 C   0  0  0  0  0  0  0  0  0  0  0  0
  144.8720   74.7420  220.8090 N   0  0  0  0  0  0  0  0  0  0  0  0
  145.7970   73.7820  220.9100 C   0  0  0  0  0  0  0  0  0  0  0  0
  145.5520   72.8740  219.9140 C   0  0  0  0  0  0  0  0  0  0  0  0
  146.3250   71.7360  219.7190 O   0  0  0  0  0  0  0  0  0  0  0  0
  144.5100   73.3100  219.2600 O   0  0  0  0  0  0  0  0  0  0  0  0
  139.9350   71.0090  223.6080 C   0  0  0  0  0  0  0  0  0  0  0  0
  139.3810   69.7570  223.6240 C   0  0  0  0  0  0  0  0  0  0  0  0
  139.3390   68.9890  224.7740 C   0  0  0  0  0  0  0  0  0  0  0  0
  139.8790   69.5260  225.9230 C   0  0  0  0  0  0  0  0  0  0  0  0
  139.8290   68.7480  227.0580 C   0  0  0  0  0  0  0  0  0  0  0  0
  140.3610   69.2610  228.2190 C   0  0  0  0  0  0  0  0  0  0  0  0
  140.2980   68.4740  229.3230 F   0  0  0  0  0  0  0  0  0  0  0  0
  140.9270   70.5230  228.2270 C   0  0  0  0  0  0  0  0  0  0  0  0
  140.9610   71.2780  227.0720 C   0  0  0  0  0  0  0  0  0  0  0  0
  140.4410   70.7970  225.9040 C   0  0  0  0  0  0  0  0  0  0  0  0
  140.4560   71.5100  224.7420 N   0  0  0  0  0  0  0  0  0  0  0  0
  139.6760   73.7250  223.2020 H   0  0  0  0  0  0  0  0  0  0  0  0
  139.1249   73.2024  220.3436 H   0  0  0  0  0  0  0  0  0  0  0  0
  139.4621   74.8208  221.1072 H   0  0  0  0  0  0  0  0  0  0  0  0
  140.4305   76.0762  221.4935 H   0  0  0  0  0  0  0  0  0  0  0  0
  142.0819   76.7001  221.5265 H   0  0  0  0  0  0  0  0  0  0  0  0
  140.2855   76.7220  219.0260 H   0  0  0  0  0  0  0  0  0  0  0  0
  140.4322   78.1114  220.1416 H   0  0  0  0  0  0  0  0  0  0  0  0
  142.0522   77.6340  217.9633 H   0  0  0  0  0  0  0  0  0  0  0  0
  142.4891   78.6509  219.3910 H   0  0  0  0  0  0  0  0  0  0  0  0
  144.1571   76.8691  218.6722 H   0  0  0  0  0  0  0  0  0  0  0  0
  143.6435   76.9120  220.4202 H   0  0  0  0  0  0  0  0  0  0  0  0
  142.6436   74.9197  218.3025 H   0  0  0  0  0  0  0  0  0  0  0  0
  146.6049   73.7308  221.6547 H   0  0  0  0  0  0  0  0  0  0  0  0
  146.6390   71.1440  220.4800 H   0  0  0  0  0  0  0  0  0  0  0  0
  138.9566   69.3495  222.6946 H   0  0  0  0  0  0  0  0  0  0  0  0
  138.8903   67.9847  224.7715 H   0  0  0  0  0  0  0  0  0  0  0  0
  139.3769   67.7454  227.0374 H   0  0  0  0  0  0  0  0  0  0  0  0
  141.3519   70.9267  229.1579 H   0  0  0  0  0  0  0  0  0  0  0  0
  141.4130   72.2806  227.0924 H   0  0  0  0  0  0  0  0  0  0  0  0
  1  2  2  0
  2  3  1  0
  3  4  1  0
  4  5  1  0
  5  6  2  0
  5  7  1  0
  7  8  1  0
  8  9  1  0
  9 10  1  0
 10 11  1  0
 11 12  1  0
 12 13  1  0
 13 14  2  0
 14 15  1  0
 15 16  2  0
 16 17  1  0
 16 18  1  0
  2 19  1  0
 19 20  2  0
 20 21  1  0
 21 22  2  0
 22 23  1  0
 23 24  2  0
 24 25  1  0
 24 26  1  0
 26 27  2  0
 27 28  1  0
 28 29  2  0
 12  7  1  0
 18 13  1  0
 29 19  1  0
 28 22  1  0
  3 30  1  0
  4 31  1  0
  4 32  1  0
  8 33  1  0
  8 34  1  0
  9 35  1  0
  9 36  1  0
 10 37  1  0
 10 38  1  0
 11 39  1  0
 11 40  1  0
 12 41  1  6
 15 42  1  0
 17 43  1  0
 20 44  1  0
 21 45  1  0
 23 46  1  0
 26 47  1  0
 27 48  1  0
M  END
>  <smiles>  (33) 
O=C(NCC(=O)N1CCCC[C@H]1c1ncc(O)o1)c1ccc2cc(F)ccc2n1

>  <score_type>  (33) 
oracle

>  <origin>  (33) 
autodockgpu

>  <m_score__min__energy>  (33) 
-7.8899999999999997

>  <m_primary>  (33) 
energy

>  <rmsd>  (33) 
3.174493057734387

>  <m_score__min__rmsd>  (33) 
3.174493057734387

>  <meeko>  (33) 
{"free_energy": -7.89, "intermolecular_energy": -9.68, "internal_energy": -1.21, "cluster_size": 8, "cluster_id": 1, "rank_in_cluster": 1}

>  <energy>  (33) 
-7.06

>  <cluster_rmsd>  (33) 
0.16

>  <cluster>  (33) 
6

$$$$

     RDKit          3D

 48 51  0  0  0  0  0  0  0  0999 V2000
  141.6050   72.1990  221.5790 O   0  0  0  0  0  0  0  0  0  0  0  0
  140.6920   72.4300  222.3860 C   0  0  0  0  0  0  0  0  0  0  0  0
  139.8720   73.5870  222.1110 N   0  0  0  0  0  0  0  0  0  0  0  0
  140.2260   74.3330  220.9190 C   0  0  0  0  0  0  0  0  0  0  0  0
  141.1190   75.4740  221.2040 C   0  0  0  0  0  0  0  0  0  0  0  0
  141.2240   76.0120  222.3460 O   0  0  0  0  0  0  0  0  0  0  0  0
  141.8940   75.9860  220.1300 N   0  0  0  0  0  0  0  0  0  0  0  0
  142.1520   77.3980  219.9300 C   0  0  0  0  0  0  0  0  0  0  0  0
  141.5800   77.7170  218.5660 C   0  0  0  0  0  0  0  0  0  0  0  0
  142.4330   77.0480  217.5290 C   0  0  0  0  0  0  0  0  0  0  0  0
  143.2770   75.9740  218.1460 C   0  0  0  0  0  0  0  0  0  0  0  0
  142.5010   75.0950  219.1210 C   0  0  1  0  0  0  0  0  0  0  0  0
  143.4550   74.1530  219.7320 C   0  0  0  0  0  0  0  0  0  0  0  0
  143.4070   72.8080  219.5810 N   0  0  0  0  0  0  0  0  0  0  0  0
  144.4250   72.2890  220.2760 C   0  0  0  0  0  0  0  0  0  0  0  0
  145.0970   73.3330  220.8550 C   0  0  0  0  0  0  0  0  0  0  0  0
  146.2190   73.1620  221.6560 O   0  0  0  0  0  0  0  0  0  0  0  0
  144.4730   74.4220  220.4960 O   0  0  0  0  0  0  0  0  0  0  0  0
  140.4420   71.5930  223.5530 C   0  0  0  0  0  0  0  0  0  0  0  0
  139.7130   70.4470  223.3750 C   0  0  0  0  0  0  0  0  0  0  0  0
  139.4250   69.5910  224.4220 C   0  0  0  0  0  0  0  0  0  0  0  0
  139.8990   69.9260  225.6720 C   0  0  0  0  0  0  0  0  0  0  0  0
  139.6040   69.0630  226.7030 C   0  0  0  0  0  0  0  0  0  0  0  0
  140.0650   69.3740  227.9620 C   0  0  0  0  0  0  0  0  0  0  0  0
  139.7590   68.5070  228.9600 F   0  0  0  0  0  0  0  0  0  0  0  0
  140.8040   70.5260  228.1660 C   0  0  0  0  0  0  0  0  0  0  0  0
  141.0830   71.3700  227.1120 C   0  0  0  0  0  0  0  0  0  0  0  0
  140.6380   71.0890  225.8510 C   0  0  0  0  0  0  0  0  0  0  0  0
  140.8930   71.8970  224.7830 N   0  0  0  0  0  0  0  0  0  0  0  0
  139.0810   73.8510  222.7420 H   0  0  0  0  0  0  0  0  0  0  0  0
  140.7345   73.6550  220.2178 H   0  0  0  0  0  0  0  0  0  0  0  0
  139.2963   74.7377  220.4925 H   0  0  0  0  0  0  0  0  0  0  0  0
  141.6523   77.9952  220.7070 H   0  0  0  0  0  0  0  0  0  0  0  0
  143.2250   77.6323  219.9906 H   0  0  0  0  0  0  0  0  0  0  0  0
  140.5485   77.3410  218.4981 H   0  0  0  0  0  0  0  0  0  0  0  0
  141.5703   78.8050  218.4042 H   0  0  0  0  0  0  0  0  0  0  0  0
  141.7838   76.6005  216.7620 H   0  0  0  0  0  0  0  0  0  0  0  0
  143.0955   77.8014  217.0779 H   0  0  0  0  0  0  0  0  0  0  0  0
  143.6778   75.3380  217.3429 H   0  0  0  0  0  0  0  0  0  0  0  0
  144.0777   76.4697  218.7144 H   0  0  0  0  0  0  0  0  0  0  0  0
  141.7039   74.5170  218.6305 H   0  0  0  0  0  0  0  0  0  0  0  0
  144.6761   71.2218  220.3660 H   0  0  0  0  0  0  0  0  0  0  0  0
  146.4960   72.2620  222.0340 H   0  0  0  0  0  0  0  0  0  0  0  0
  139.3454   70.2001  222.3681 H   0  0  0  0  0  0  0  0  0  0  0  0
  138.8380   68.6745  224.2628 H   0  0  0  0  0  0  0  0  0  0  0  0
  139.0162   68.1503  226.5256 H   0  0  0  0  0  0  0  0  0  0  0  0
  141.1707   70.7696  229.1741 H   0  0  0  0  0  0  0  0  0  0  0  0
  141.6719   72.2821  227.2887 H   0  0  0  0  0  0  0  0  0  0  0  0
  1  2  2  0
  2  3  1  0
  3  4  1  0
  4  5  1  0
  5  6  2  0
  5  7  1  0
  7  8  1  0
  8  9  1  0
  9 10  1  0
 10 11  1  0
 11 12  1  0
 12 13  1  0
 13 14  2  0
 14 15  1  0
 15 16  2  0
 16 17  1  0
 16 18  1  0
  2 19  1  0
 19 20  2  0
 20 21  1  0
 21 22  2  0
 22 23  1  0
 23 24  2  0
 24 25  1  0
 24 26  1  0
 26 27  2  0
 27 28  1  0
 28 29  2  0
 12  7  1  0
 18 13  1  0
 29 19  1  0
 28 22  1  0
  3 30  1  0
  4 31  1  0
  4 32  1  0
  8 33  1  0
  8 34  1  0
  9 35  1  0
  9 36  1  0
 10 37  1  0
 10 38  1  0
 11 39  1  0
 11 40  1  0
 12 41  1  6
 15 42  1  0
 17 43  1  0
 20 44  1  0
 21 45  1  0
 23 46  1  0
 26 47  1  0
 27 48  1  0
M  END
>  <smiles>  (34) 
O=C(NCC(=O)N1CCCC[C@H]1c1ncc(O)o1)c1ccc2cc(F)ccc2n1

>  <score_type>  (34) 
oracle

>  <origin>  (34) 
autodockgpu

>  <m_score__min__energy>  (34) 
-7.8899999999999997

>  <m_primary>  (34) 
energy

>  <rmsd>  (34) 
3.3882426245181287

>  <m_score__min__rmsd>  (34) 
3.3882426245181287

>  <meeko>  (34) 
{"free_energy": -7.72, "intermolecular_energy": -9.51, "internal_energy": -1.53, "cluster_size": 8, "cluster_id": 1, "rank_in_cluster": 6}

>  <energy>  (34) 
-6.76

>  <cluster_rmsd>  (34) 
0.0

>  <cluster>  (34) 
7

$$$$

     RDKit          3D

 48 51  0  0  0  0  0  0  0  0999 V2000
  139.0110   72.7030  222.0740 O   0  0  0  0  0  0  0  0  0  0  0  0
  140.0480   72.2390  222.5720 C   0  0  0  0  0  0  0  0  0  0  0  0
  141.2860   72.5920  221.9170 N   0  0  0  0  0  0  0  0  0  0  0  0
  141.1540   73.4490  220.7550 C   0  0  0  0  0  0  0  0  0  0  0  0
  141.2400   74.8840  221.0900 C   0  0  0  0  0  0  0  0  0  0  0  0
  140.7360   75.3900  222.1370 O   0  0  0  0  0  0  0  0  0  0  0  0
  141.9270   75.7320  220.1810 N   0  0  0  0  0  0  0  0  0  0  0  0
  141.8510   77.1790  220.2220 C   0  0  0  0  0  0  0  0  0  0  0  0
  141.2920   77.5850  218.8760 C   0  0  0  0  0  0  0  0  0  0  0  0
  142.3330   77.3110  217.8310 C   0  0  0  0  0  0  0  0  0  0  0  0
  143.3740   76.3680  218.3520 C   0  0  0  0  0  0  0  0  0  0  0  0
  142.7800   75.1840  219.1080 C   0  0  1  0  0  0  0  0  0  0  0  0
  143.8980   74.3940  219.6540 C   0  0  0  0  0  0  0  0  0  0  0  0
  144.4900   74.6280  220.8490 N   0  0  0  0  0  0  0  0  0  0  0  0
  145.4570   73.7160  221.0030 C   0  0  0  0  0  0  0  0  0  0  0  0
  145.4490   72.9210  219.8870 C   0  0  0  0  0  0  0  0  0  0  0  0
  146.3270   71.8610  219.7060 O   0  0  0  0  0  0  0  0  0  0  0  0
  144.4980   73.3720  219.1160 O   0  0  0  0  0  0  0  0  0  0  0  0
  140.0400   71.3820  223.7520 C   0  0  0  0  0  0  0  0  0  0  0  0
  139.4370   70.1580  223.6490 C   0  0  0  0  0  0  0  0  0  0  0  0
  139.3800   69.2770  224.7150 C   0  0  0  0  0  0  0  0  0  0  0  0
  139.9560   69.6710  225.9030 C   0  0  0  0  0  0  0  0  0  0  0  0
  139.8910   68.7830  226.9520 C   0  0  0  0  0  0  0  0  0  0  0  0
  140.4590   69.1520  228.1510 C   0  0  0  0  0  0  0  0  0  0  0  0
  140.3790   68.2580  229.1690 F   0  0  0  0  0  0  0  0  0  0  0  0
  141.0740   70.3840  228.2780 C   0  0  0  0  0  0  0  0  0  0  0  0
  141.1230   71.2520  227.2070 C   0  0  0  0  0  0  0  0  0  0  0  0
  140.5680   70.9150  226.0040 C   0  0  0  0  0  0  0  0  0  0  0  0
  140.5950   71.7430  224.9230 N   0  0  0  0  0  0  0  0  0  0  0  0
  142.2050   72.2420  222.2740 H   0  0  0  0  0  0  0  0  0  0  0  0
  141.9581   73.2050  220.0452 H   0  0  0  0  0  0  0  0  0  0  0  0
  140.1590   73.2690  220.3220 H   0  0  0  0  0  0  0  0  0  0  0  0
  141.1832   77.5074  221.0320 H   0  0  0  0  0  0  0  0  0  0  0  0
  142.8324   77.6370  220.4148 H   0  0  0  0  0  0  0  0  0  0  0  0
  140.3848   77.0021  218.6590 H   0  0  0  0  0  0  0  0  0  0  0  0
  141.0320   78.6538  218.8806 H   0  0  0  0  0  0  0  0  0  0  0  0
  141.8502   76.8640  216.9494 H   0  0  0  0  0  0  0  0  0  0  0  0
  142.8199   78.2597  217.5609 H   0  0  0  0  0  0  0  0  0  0  0  0
  143.9567   75.9843  217.5015 H   0  0  0  0  0  0  0  0  0  0  0  0
  144.0018   76.9291  219.0598 H   0  0  0  0  0  0  0  0  0  0  0  0
  142.1711   74.5310  218.4655 H   0  0  0  0  0  0  0  0  0  0  0  0
  146.1330   73.6219  221.8656 H   0  0  0  0  0  0  0  0  0  0  0  0
  146.6460   71.2710  220.4670 H   0  0  0  0  0  0  0  0  0  0  0  0
  138.9840   69.8654  222.6903 H   0  0  0  0  0  0  0  0  0  0  0  0
  138.8917   68.2962  224.6171 H   0  0  0  0  0  0  0  0  0  0  0  0
  139.3992   67.8059  226.8362 H   0  0  0  0  0  0  0  0  0  0  0  0
  141.5265   70.6733  229.2380 H   0  0  0  0  0  0  0  0  0  0  0  0
  141.6155   72.2288  227.3226 H   0  0  0  0  0  0  0  0  0  0  0  0
  1  2  2  0
  2  3  1  0
  3  4  1  0
  4  5  1  0
  5  6  2  0
  5  7  1  0
  7  8  1  0
  8  9  1  0
  9 10  1  0
 10 11  1  0
 11 12  1  0
 12 13  1  0
 13 14  2  0
 14 15  1  0
 15 16  2  0
 16 17  1  0
 16 18  1  0
  2 19  1  0
 19 20  2  0
 20 21  1  0
 21 22  2  0
 22 23  1  0
 23 24  2  0
 24 25  1  0
 24 26  1  0
 26 27  2  0
 27 28  1  0
 28 29  2  0
 12  7  1  0
 18 13  1  0
 29 19  1  0
 28 22  1  0
  3 30  1  0
  4 31  1  0
  4 32  1  0
  8 33  1  0
  8 34  1  0
  9 35  1  0
  9 36  1  0
 10 37  1  0
 10 38  1  0
 11 39  1  0
 11 40  1  0
 12 41  1  6
 15 42  1  0
 17 43  1  0
 20 44  1  0
 21 45  1  0
 23 46  1  0
 26 47  1  0
 27 48  1  0
M  END
>  <smiles>  (35) 
O=C(NCC(=O)N1CCCC[C@H]1c1ncc(O)o1)c1ccc2cc(F)ccc2n1

>  <score_type>  (35) 
oracle

>  <origin>  (35) 
autodockgpu

>  <m_score__min__energy>  (35) 
-7.8899999999999997

>  <m_primary>  (35) 
energy

>  <rmsd>  (35) 
3.2971145272155415

>  <m_score__min__rmsd>  (35) 
3.2971145272155415

>  <meeko>  (35) 
{"free_energy": -7.84, "intermolecular_energy": -9.63, "internal_energy": -1.25, "cluster_size": 8, "cluster_id": 1, "rank_in_cluster": 4}

>  <energy>  (35) 
-6.75

>  <cluster_rmsd>  (35) 
0.75

>  <cluster>  (35) 
7

$$$$

     RDKit          3D

 48 51  0  0  0  0  0  0  0  0999 V2000
  137.0550   71.5750  221.2870 O   0  0  0  0  0  0  0  0  0  0  0  0
  137.7440   72.1200  222.1630 C   0  0  0  0  0  0  0  0  0  0  0  0
  137.9530   73.5420  222.0200 N   0  0  0  0  0  0  0  0  0  0  0  0
  137.3260   74.1510  220.8620 C   0  0  0  0  0  0  0  0  0  0  0  0
  137.9420   75.4400  220.4910 C   0  0  0  0  0  0  0  0  0  0  0  0
  137.8100   75.9770  219.3510 O   0  0  0  0  0  0  0  0  0  0  0  0
  138.7230   76.1030  221.4750 N   0  0  0  0  0  0  0  0  0  0  0  0
  138.1660   76.7000  222.6720 C   0  0  0  0  0  0  0  0  0  0  0  0
  138.5370   78.1650  222.5940 C   0  0  0  0  0  0  0  0  0  0  0  0
  140.0190   78.2870  222.7900 C   0  0  0  0  0  0  0  0  0  0  0  0
  140.6950   76.9670  222.5750 C   0  0  0  0  0  0  0  0  0  0  0  0
  140.1870   76.2340  221.3380 C   0  0  1  0  0  0  0  0  0  0  0  0
  140.8490   74.9170  221.2940 C   0  0  0  0  0  0  0  0  0  0  0  0
  141.9010   74.6150  220.4970 N   0  0  0  0  0  0  0  0  0  0  0  0
  142.2260   73.3380  220.7290 C   0  0  0  0  0  0  0  0  0  0  0  0
  141.3610   72.8640  221.6790 C   0  0  0  0  0  0  0  0  0  0  0  0
  141.4080   71.5640  222.1650 O   0  0  0  0  0  0  0  0  0  0  0  0
  140.5600   73.8500  221.9790 O   0  0  0  0  0  0  0  0  0  0  0  0
  138.3200   71.3850  223.2830 C   0  0  0  0  0  0  0  0  0  0  0  0
  137.7610   70.1800  223.6120 C   0  0  0  0  0  0  0  0  0  0  0  0
  138.2380   69.4120  224.6590 C   0  0  0  0  0  0  0  0  0  0  0  0
  139.3100   69.9000  225.3740 C   0  0  0  0  0  0  0  0  0  0  0  0
  139.7730   69.1230  226.4120 C   0  0  0  0  0  0  0  0  0  0  0  0
  140.8430   69.5870  227.1430 C   0  0  0  0  0  0  0  0  0  0  0  0
  141.2780   68.8020  228.1610 F   0  0  0  0  0  0  0  0  0  0  0  0
  141.4250   70.8020  226.8290 C   0  0  0  0  0  0  0  0  0  0  0  0
  140.9370   71.5570  225.7820 C   0  0  0  0  0  0  0  0  0  0  0  0
  139.8760   71.1240  225.0380 C   0  0  0  0  0  0  0  0  0  0  0  0
  139.3650   71.8390  223.9970 N   0  0  0  0  0  0  0  0  0  0  0  0
  138.5210   74.0770  222.7150 H   0  0  0  0  0  0  0  0  0  0  0  0
  137.4149   73.4607  220.0102 H   0  0  0  0  0  0  0  0  0  0  0  0
  136.2747   74.3477  221.1191 H   0  0  0  0  0  0  0  0  0  0  0  0
  137.0728   76.5793  222.6904 H   0  0  0  0  0  0  0  0  0  0  0  0
  138.5528   76.2260  223.5862 H   0  0  0  0  0  0  0  0  0  0  0  0
  138.2578   78.5674  221.6091 H   0  0  0  0  0  0  0  0  0  0  0  0
  138.0041   78.7326  223.3711 H   0  0  0  0  0  0  0  0  0  0  0  0
  140.4187   79.0180  222.0718 H   0  0  0  0  0  0  0  0  0  0  0  0
  140.2121   78.6180  223.8211 H   0  0  0  0  0  0  0  0  0  0  0  0
  141.7753   77.1404  222.4612 H   0  0  0  0  0  0  0  0  0  0  0  0
  140.4712   76.3358  223.4476 H   0  0  0  0  0  0  0  0  0  0  0  0
  140.4111   76.7696  220.4037 H   0  0  0  0  0  0  0  0  0  0  0  0
  143.0374   72.7736  220.2463 H   0  0  0  0  0  0  0  0  0  0  0  0
  140.5790   71.0430  222.4330 H   0  0  0  0  0  0  0  0  0  0  0  0
  136.9064   69.8109  223.0261 H   0  0  0  0  0  0  0  0  0  0  0  0
  137.7776   68.4455  224.9119 H   0  0  0  0  0  0  0  0  0  0  0  0
  139.3010   68.1584  226.6505 H   0  0  0  0  0  0  0  0  0  0  0  0
  142.2802   71.1678  227.4162 H   0  0  0  0  0  0  0  0  0  0  0  0
  141.4090   72.5214  225.5430 H   0  0  0  0  0  0  0  0  0  0  0  0
  1  2  2  0
  2  3  1  0
  3  4  1  0
  4  5  1  0
  5  6  2  0
  5  7  1  0
  7  8  1  0
  8  9  1  0
  9 10  1  0
 10 11  1  0
 11 12  1  0
 12 13  1  0
 13 14  2  0
 14 15  1  0
 15 16  2  0
 16 17  1  0
 16 18  1  0
  2 19  1  0
 19 20  2  0
 20 21  1  0
 21 22  2  0
 22 23  1  0
 23 24  2  0
 24 25  1  0
 24 26  1  0
 26 27  2  0
 27 28  1  0
 28 29  2  0
 12  7  1  0
 18 13  1  0
 29 19  1  0
 28 22  1  0
  3 30  1  0
  4 31  1  0
  4 32  1  0
  8 33  1  0
  8 34  1  0
  9 35  1  0
  9 36  1  0
 10 37  1  0
 10 38  1  0
 11 39  1  0
 11 40  1  0
 12 41  1  6
 15 42  1  0
 17 43  1  0
 20 44  1  0
 21 45  1  0
 23 46  1  0
 26 47  1  0
 27 48  1  0
M  END
>  <smiles>  (36) 
O=C(NCC(=O)N1CCCC[C@H]1c1ncc(O)o1)c1ccc2cc(F)ccc2n1

>  <score_type>  (36) 
oracle

>  <origin>  (36) 
autodockgpu

>  <m_score__min__energy>  (36) 
-7.8899999999999997

>  <m_primary>  (36) 
energy

>  <rmsd>  (36) 
3.460132135966616

>  <m_score__min__rmsd>  (36) 
3.460132135966616

>  <meeko>  (36) 
{"free_energy": -5.86, "intermolecular_energy": -7.65, "internal_energy": -3.26, "cluster_size": 7, "cluster_id": 10, "rank_in_cluster": 7}

>  <energy>  (36) 
-6.69

>  <cluster_rmsd>  (36) 
0.78

>  <cluster>  (36) 
7

$$$$

     RDKit          3D

 48 51  0  0  0  0  0  0  0  0999 V2000
  141.1510   71.9130  221.3990 O   0  0  0  0  0  0  0  0  0  0  0  0
  140.5400   72.3380  222.3910 C   0  0  0  0  0  0  0  0  0  0  0  0
  140.0450   73.6920  222.3070 N   0  0  0  0  0  0  0  0  0  0  0  0
  140.3290   74.3840  221.0650 C   0  0  0  0  0  0  0  0  0  0  0  0
  141.0830   75.6360  221.2670 C   0  0  0  0  0  0  0  0  0  0  0  0
  141.0440   76.3120  222.3390 O   0  0  0  0  0  0  0  0  0  0  0  0
  141.8910   76.0990  220.1940 N   0  0  0  0  0  0  0  0  0  0  0  0
  142.1960   77.4970  219.9670 C   0  0  0  0  0  0  0  0  0  0  0  0
  141.6550   77.8030  218.5870 C   0  0  0  0  0  0  0  0  0  0  0  0
  142.5010   77.0830  217.5790 C   0  0  0  0  0  0  0  0  0  0  0  0
  143.3010   75.9980  218.2330 C   0  0  0  0  0  0  0  0  0  0  0  0
  142.4830   75.1660  219.2150 C   0  0  1  0  0  0  0  0  0  0  0  0
  143.3970   74.2080  219.8630 C   0  0  0  0  0  0  0  0  0  0  0  0
  143.1880   72.8720  219.9250 N   0  0  0  0  0  0  0  0  0  0  0  0
  144.2210   72.3340  220.5840 C   0  0  0  0  0  0  0  0  0  0  0  0
  145.0650   73.3580  220.9230 C   0  0  0  0  0  0  0  0  0  0  0  0
  146.2500   73.1640  221.6200 O   0  0  0  0  0  0  0  0  0  0  0  0
  144.5230   74.4540  220.4670 O   0  0  0  0  0  0  0  0  0  0  0  0
  140.3230   71.5320  223.5870 C   0  0  0  0  0  0  0  0  0  0  0  0
  139.6680   70.3380  223.4430 C   0  0  0  0  0  0  0  0  0  0  0  0
  139.4160   69.5060  224.5190 C   0  0  0  0  0  0  0  0  0  0  0  0
  139.8480   69.9160  225.7610 C   0  0  0  0  0  0  0  0  0  0  0  0
  139.5890   69.0760  226.8200 C   0  0  0  0  0  0  0  0  0  0  0  0
  140.0110   69.4630  228.0720 C   0  0  0  0  0  0  0  0  0  0  0  0
  139.7420   68.6170  229.0990 F   0  0  0  0  0  0  0  0  0  0  0  0
  140.6740   70.6640  228.2420 C   0  0  0  0  0  0  0  0  0  0  0  0
  140.9190   71.4840  227.1600 C   0  0  0  0  0  0  0  0  0  0  0  0
  140.5120   71.1290  225.9050 C   0  0  0  0  0  0  0  0  0  0  0  0
  140.7350   71.9100  224.8100 N   0  0  0  0  0  0  0  0  0  0  0  0
  139.5200   74.1260  223.1010 H   0  0  0  0  0  0  0  0  0  0  0  0
  140.9201   73.7182  220.4190 H   0  0  0  0  0  0  0  0  0  0  0  0
  139.3651   74.6486  220.6057 H   0  0  0  0  0  0  0  0  0  0  0  0
  141.7036   78.1267  220.7226 H   0  0  0  0  0  0  0  0  0  0  0  0
  143.2748   77.6991  220.0394 H   0  0  0  0  0  0  0  0  0  0  0  0
  140.6128   77.4592  218.5114 H   0  0  0  0  0  0  0  0  0  0  0  0
  141.6833   78.8867  218.4006 H   0  0  0  0  0  0  0  0  0  0  0  0
  141.8489   76.6383  216.8128 H   0  0  0  0  0  0  0  0  0  0  0  0
  143.1938   77.8042  217.1208 H   0  0  0  0  0  0  0  0  0  0  0  0
  143.6938   75.3317  217.4508 H   0  0  0  0  0  0  0  0  0  0  0  0
  144.1082   76.4814  218.8029 H   0  0  0  0  0  0  0  0  0  0  0  0
  141.6758   74.6021  218.7247 H   0  0  0  0  0  0  0  0  0  0  0  0
  144.3654   71.2675  220.8112 H   0  0  0  0  0  0  0  0  0  0  0  0
  146.5470   72.2570  221.9640 H   0  0  0  0  0  0  0  0  0  0  0  0
  139.3321   70.0313  222.4414 H   0  0  0  0  0  0  0  0  0  0  0  0
  138.8887   68.5497  224.3873 H   0  0  0  0  0  0  0  0  0  0  0  0
  139.0602   68.1231  226.6704 H   0  0  0  0  0  0  0  0  0  0  0  0
  141.0079   70.9674  229.2452 H   0  0  0  0  0  0  0  0  0  0  0  0
  141.4490   72.4362  227.3096 H   0  0  0  0  0  0  0  0  0  0  0  0
  1  2  2  0
  2  3  1  0
  3  4  1  0
  4  5  1  0
  5  6  2  0
  5  7  1  0
  7  8  1  0
  8  9  1  0
  9 10  1  0
 10 11  1  0
 11 12  1  0
 12 13  1  0
 13 14  2  0
 14 15  1  0
 15 16  2  0
 16 17  1  0
 16 18  1  0
  2 19  1  0
 19 20  2  0
 20 21  1  0
 21 22  2  0
 22 23  1  0
 23 24  2  0
 24 25  1  0
 24 26  1  0
 26 27  2  0
 27 28  1  0
 28 29  2  0
 12  7  1  0
 18 13  1  0
 29 19  1  0
 28 22  1  0
  3 30  1  0
  4 31  1  0
  4 32  1  0
  8 33  1  0
  8 34  1  0
  9 35  1  0
  9 36  1  0
 10 37  1  0
 10 38  1  0
 11 39  1  0
 11 40  1  0
 12 41  1  6
 15 42  1  0
 17 43  1  0
 20 44  1  0
 21 45  1  0
 23 46  1  0
 26 47  1  0
 27 48  1  0
M  END
>  <smiles>  (37) 
O=C(NCC(=O)N1CCCC[C@H]1c1ncc(O)o1)c1ccc2cc(F)ccc2n1

>  <score_type>  (37) 
oracle

>  <origin>  (37) 
autodockgpu

>  <m_score__min__energy>  (37) 
-7.8899999999999997

>  <m_primary>  (37) 
energy

>  <rmsd>  (37) 
3.3513101841159547

>  <m_score__min__rmsd>  (37) 
3.3513101841159547

>  <meeko>  (37) 
{"free_energy": -7.84, "intermolecular_energy": -9.63, "internal_energy": -1.55, "cluster_size": 8, "cluster_id": 1, "rank_in_cluster": 3}

>  <energy>  (37) 
-6.65

>  <cluster_rmsd>  (37) 
0.82

>  <cluster>  (37) 
7

$$$$

     RDKit          3D

 48 51  0  0  0  0  0  0  0  0999 V2000
  141.4630   72.0820  221.5550 O   0  0  0  0  0  0  0  0  0  0  0  0
  140.6400   72.3810  222.4330 C   0  0  0  0  0  0  0  0  0  0  0  0
  139.9040   73.6080  222.2290 N   0  0  0  0  0  0  0  0  0  0  0  0
  140.2270   74.3340  221.0160 C   0  0  0  0  0  0  0  0  0  0  0  0
  141.1750   75.4400  221.2490 C   0  0  0  0  0  0  0  0  0  0  0  0
  141.3360   76.0000  222.3740 O   0  0  0  0  0  0  0  0  0  0  0  0
  141.9420   75.8930  220.1420 N   0  0  0  0  0  0  0  0  0  0  0  0
  142.2020   77.2920  219.8660 C   0  0  0  0  0  0  0  0  0  0  0  0
  141.6170   77.5420  218.4930 C   0  0  0  0  0  0  0  0  0  0  0  0
  142.4570   76.8170  217.4840 C   0  0  0  0  0  0  0  0  0  0  0  0
  143.3030   75.7730  218.1480 C   0  0  0  0  0  0  0  0  0  0  0  0
  142.5350   74.9490  219.1750 C   0  0  1  0  0  0  0  0  0  0  0  0
  143.4920   74.0360  219.8250 C   0  0  0  0  0  0  0  0  0  0  0  0
  143.4230   72.6850  219.7670 N   0  0  0  0  0  0  0  0  0  0  0  0
  144.4520   72.1990  220.4710 C   0  0  0  0  0  0  0  0  0  0  0  0
  145.1520   73.2710  220.9590 C   0  0  0  0  0  0  0  0  0  0  0  0
  146.2930   73.1370  221.7400 O   0  0  0  0  0  0  0  0  0  0  0  0
  144.5340   74.3410  220.5420 O   0  0  0  0  0  0  0  0  0  0  0  0
  140.4110   71.5560  223.6130 C   0  0  0  0  0  0  0  0  0  0  0  0
  139.7150   70.3870  223.4510 C   0  0  0  0  0  0  0  0  0  0  0  0
  139.4500   69.5390  224.5110 C   0  0  0  0  0  0  0  0  0  0  0  0
  139.9110   69.9070  225.7570 C   0  0  0  0  0  0  0  0  0  0  0  0
  139.6380   69.0520  226.8000 C   0  0  0  0  0  0  0  0  0  0  0  0
  140.0880   69.3960  228.0550 C   0  0  0  0  0  0  0  0  0  0  0  0
  139.8040   68.5360  229.0660 F   0  0  0  0  0  0  0  0  0  0  0  0
  140.7930   70.5710  228.2430 C   0  0  0  0  0  0  0  0  0  0  0  0
  141.0500   71.4070  227.1760 C   0  0  0  0  0  0  0  0  0  0  0  0
  140.6170   71.0940  225.9180 C   0  0  0  0  0  0  0  0  0  0  0  0
  140.8510   71.8920  224.8390 N   0  0  0  0  0  0  0  0  0  0  0  0
  139.1910   73.9320  222.9230 H   0  0  0  0  0  0  0  0  0  0  0  0
  140.6740   73.6335  220.2952 H   0  0  0  0  0  0  0  0  0  0  0  0
  139.2936   74.7720  220.6328 H   0  0  0  0  0  0  0  0  0  0  0  0
  141.7121   77.9305  220.6159 H   0  0  0  0  0  0  0  0  0  0  0  0
  143.2763   77.5252  219.9034 H   0  0  0  0  0  0  0  0  0  0  0  0
  140.5836   77.1669  218.4551 H   0  0  0  0  0  0  0  0  0  0  0  0
  141.6091   78.6202  218.2750 H   0  0  0  0  0  0  0  0  0  0  0  0
  141.7987   76.3330  216.7475 H   0  0  0  0  0  0  0  0  0  0  0  0
  143.1176   77.5432  216.9878 H   0  0  0  0  0  0  0  0  0  0  0  0
  143.6933   75.0945  217.3752 H   0  0  0  0  0  0  0  0  0  0  0  0
  144.1107   76.2948  218.6822 H   0  0  0  0  0  0  0  0  0  0  0  0
  141.7313   74.3492  218.7230 H   0  0  0  0  0  0  0  0  0  0  0  0
  144.6913   71.1370  220.6285 H   0  0  0  0  0  0  0  0  0  0  0  0
  146.6950   72.2380  221.9830 H   0  0  0  0  0  0  0  0  0  0  0  0
  139.3561   70.1147  222.4475 H   0  0  0  0  0  0  0  0  0  0  0  0
  138.8907   68.6032  224.3649 H   0  0  0  0  0  0  0  0  0  0  0  0
  139.0764   68.1205  226.6359 H   0  0  0  0  0  0  0  0  0  0  0  0
  141.1504   70.8402  229.2479 H   0  0  0  0  0  0  0  0  0  0  0  0
  141.6114   72.3386  227.3401 H   0  0  0  0  0  0  0  0  0  0  0  0
  1  2  2  0
  2  3  1  0
  3  4  1  0
  4  5  1  0
  5  6  2  0
  5  7  1  0
  7  8  1  0
  8  9  1  0
  9 10  1  0
 10 11  1  0
 11 12  1  0
 12 13  1  0
 13 14  2  0
 14 15  1  0
 15 16  2  0
 16 17  1  0
 16 18  1  0
  2 19  1  0
 19 20  2  0
 20 21  1  0
 21 22  2  0
 22 23  1  0
 23 24  2  0
 24 25  1  0
 24 26  1  0
 26 27  2  0
 27 28  1  0
 28 29  2  0
 12  7  1  0
 18 13  1  0
 29 19  1  0
 28 22  1  0
  3 30  1  0
  4 31  1  0
  4 32  1  0
  8 33  1  0
  8 34  1  0
  9 35  1  0
  9 36  1  0
 10 37  1  0
 10 38  1  0
 11 39  1  0
 11 40  1  0
 12 41  1  6
 15 42  1  0
 17 43  1  0
 20 44  1  0
 21 45  1  0
 23 46  1  0
 26 47  1  0
 27 48  1  0
M  END
>  <smiles>  (38) 
O=C(NCC(=O)N1CCCC[C@H]1c1ncc(O)o1)c1ccc2cc(F)ccc2n1

>  <score_type>  (38) 
oracle

>  <origin>  (38) 
autodockgpu

>  <m_score__min__energy>  (38) 
-7.8899999999999997

>  <m_primary>  (38) 
energy

>  <rmsd>  (38) 
3.3949584553780974

>  <m_score__min__rmsd>  (38) 
3.3949584553780974

>  <meeko>  (38) 
{"free_energy": -7.69, "intermolecular_energy": -9.48, "internal_energy": -1.53, "cluster_size": 8, "cluster_id": 1, "rank_in_cluster": 7}

>  <energy>  (38) 
-6.65

>  <cluster_rmsd>  (38) 
0.2

>  <cluster>  (38) 
7

$$$$

     RDKit          3D

 48 51  0  0  0  0  0  0  0  0999 V2000
  142.6680   74.5000  220.8180 O   0  0  0  0  0  0  0  0  0  0  0  0
  141.4570   74.7350  220.9480 C   0  0  0  0  0  0  0  0  0  0  0  0
  141.0150   76.0550  220.5630 N   0  0  0  0  0  0  0  0  0  0  0  0
  142.0530   76.9400  220.0710 C   0  0  0  0  0  0  0  0  0  0  0  0
  141.6410   78.3580  220.0700 C   0  0  0  0  0  0  0  0  0  0  0  0
  141.3830   79.0110  219.0150 O   0  0  0  0  0  0  0  0  0  0  0  0
  141.5330   79.0120  221.3250 N   0  0  0  0  0  0  0  0  0  0  0  0
  141.7830   80.4270  221.5160 C   0  0  0  0  0  0  0  0  0  0  0  0
  142.9130   80.4990  222.5190 C   0  0  0  0  0  0  0  0  0  0  0  0
  142.3920   80.0470  223.8500 C   0  0  0  0  0  0  0  0  0  0  0  0
  141.1080   79.2900  223.6890 C   0  0  0  0  0  0  0  0  0  0  0  0
  141.1530   78.2790  222.5490 C   0  0  1  0  0  0  0  0  0  0  0  0
  139.8120   77.6790  222.4290 C   0  0  0  0  0  0  0  0  0  0  0  0
  138.7210   78.3310  221.9610 N   0  0  0  0  0  0  0  0  0  0  0  0
  137.6940   77.4730  221.9990 C   0  0  0  0  0  0  0  0  0  0  0  0
  138.1720   76.2890  222.4950 C   0  0  0  0  0  0  0  0  0  0  0  0
  137.3740   75.1660  222.6720 O   0  0  0  0  0  0  0  0  0  0  0  0
  139.4420   76.4700  222.7340 O   0  0  0  0  0  0  0  0  0  0  0  0
  140.5140   73.7470  221.4600 C   0  0  0  0  0  0  0  0  0  0  0  0
  139.3750   73.5150  220.7360 C   0  0  0  0  0  0  0  0  0  0  0  0
  138.4230   72.5970  221.1410 C   0  0  0  0  0  0  0  0  0  0  0  0
  138.6540   71.9100  222.3130 C   0  0  0  0  0  0  0  0  0  0  0  0
  137.6970   71.0000  222.7020 C   0  0  0  0  0  0  0  0  0  0  0  0
  137.9030   70.3000  223.8690 C   0  0  0  0  0  0  0  0  0  0  0  0
  136.9430   69.4110  224.2290 F   0  0  0  0  0  0  0  0  0  0  0  0
  139.0460   70.5170  224.6170 C   0  0  0  0  0  0  0  0  0  0  0  0
  139.9870   71.4360  224.2000 C   0  0  0  0  0  0  0  0  0  0  0  0
  139.8110   72.1470  223.0460 C   0  0  0  0  0  0  0  0  0  0  0  0
  140.7160   73.0630  222.6000 N   0  0  0  0  0  0  0  0  0  0  0  0
  140.0100   76.3330  220.6430 H   0  0  0  0  0  0  0  0  0  0  0  0
  142.9403   76.8320  220.7121 H   0  0  0  0  0  0  0  0  0  0  0  0
  142.2656   76.6555  219.0299 H   0  0  0  0  0  0  0  0  0  0  0  0
  142.0792   80.8978  220.5670 H   0  0  0  0  0  0  0  0  0  0  0  0
  140.8867   80.9587  221.8681 H   0  0  0  0  0  0  0  0  0  0  0  0
  143.7360   79.8427  222.1996 H   0  0  0  0  0  0  0  0  0  0  0  0
  143.2905   81.5297  222.5905 H   0  0  0  0  0  0  0  0  0  0  0  0
  143.1382   79.3944  224.3268 H   0  0  0  0  0  0  0  0  0  0  0  0
  142.2036   80.9327  224.4746 H   0  0  0  0  0  0  0  0  0  0  0  0
  140.8974   78.7532  224.6258 H   0  0  0  0  0  0  0  0  0  0  0  0
  140.3219   80.0214  223.4500 H   0  0  0  0  0  0  0  0  0  0  0  0
  141.8823   77.4741  222.7229 H   0  0  0  0  0  0  0  0  0  0  0  0
  136.6590   77.6802  221.6895 H   0  0  0  0  0  0  0  0  0  0  0  0
  137.7230   74.2960  223.0600 H   0  0  0  0  0  0  0  0  0  0  0  0
  139.2122   74.0759  219.8038 H   0  0  0  0  0  0  0  0  0  0  0  0
  137.5132   72.4214  220.5482 H   0  0  0  0  0  0  0  0  0  0  0  0
  136.7929   70.8369  222.0970 H   0  0  0  0  0  0  0  0  0  0  0  0
  139.2056   69.9543  225.5486 H   0  0  0  0  0  0  0  0  0  0  0  0
  140.8914   71.5987  224.8047 H   0  0  0  0  0  0  0  0  0  0  0  0
  1  2  2  0
  2  3  1  0
  3  4  1  0
  4  5  1  0
  5  6  2  0
  5  7  1  0
  7  8  1  0
  8  9  1  0
  9 10  1  0
 10 11  1  0
 11 12  1  0
 12 13  1  0
 13 14  2  0
 14 15  1  0
 15 16  2  0
 16 17  1  0
 16 18  1  0
  2 19  1  0
 19 20  2  0
 20 21  1  0
 21 22  2  0
 22 23  1  0
 23 24  2  0
 24 25  1  0
 24 26  1  0
 26 27  2  0
 27 28  1  0
 28 29  2  0
 12  7  1  0
 18 13  1  0
 29 19  1  0
 28 22  1  0
  3 30  1  0
  4 31  1  0
  4 32  1  0
  8 33  1  0
  8 34  1  0
  9 35  1  0
  9 36  1  0
 10 37  1  0
 10 38  1  0
 11 39  1  0
 11 40  1  0
 12 41  1  1
 15 42  1  0
 17 43  1  0
 20 44  1  0
 21 45  1  0
 23 46  1  0
 26 47  1  0
 27 48  1  0
M  END
>  <smiles>  (39) 
O=C(NCC(=O)N1CCCC[C@H]1c1ncc(O)o1)c1ccc2cc(F)ccc2n1

>  <score_type>  (39) 
oracle

>  <origin>  (39) 
autodockgpu

>  <m_score__min__energy>  (39) 
-7.8899999999999997

>  <m_primary>  (39) 
energy

>  <rmsd>  (39) 
5.177557770325666

>  <m_score__min__rmsd>  (39) 
5.177557770325666

>  <meeko>  (39) 
{"free_energy": -6.04, "intermolecular_energy": -7.83, "internal_energy": -2.43, "cluster_size": 2, "cluster_id": 9, "rank_in_cluster": 2}

>  <energy>  (39) 
-6.54

>  <cluster_rmsd>  (39) 
0.34

>  <cluster>  (39) 
7

$$$$

     RDKit          3D

 48 51  0  0  0  0  0  0  0  0999 V2000
  139.1850   74.4960  221.4040 O   0  0  0  0  0  0  0  0  0  0  0  0
  140.3710   74.8470  221.4950 C   0  0  0  0  0  0  0  0  0  0  0  0
  140.6090   76.1690  222.0270 N   0  0  0  0  0  0  0  0  0  0  0  0
  139.4210   76.9190  222.3880 C   0  0  0  0  0  0  0  0  0  0  0  0
  139.4630   78.3170  221.9160 C   0  0  0  0  0  0  0  0  0  0  0  0
  138.5310   78.8600  221.2520 O   0  0  0  0  0  0  0  0  0  0  0  0
  140.6170   79.0820  222.2310 N   0  0  0  0  0  0  0  0  0  0  0  0
  141.1600   79.2020  223.5700 C   0  0  0  0  0  0  0  0  0  0  0  0
  141.1190   80.6810  223.8840 C   0  0  0  0  0  0  0  0  0  0  0  0
  142.1340   81.3740  223.0240 C   0  0  0  0  0  0  0  0  0  0  0  0
  142.5410   80.5030  221.8750 C   0  0  0  0  0  0  0  0  0  0  0  0
  141.3570   79.8270  221.1920 C   0  0  1  0  0  0  0  0  0  0  0  0
  141.8910   78.9270  220.1550 C   0  0  0  0  0  0  0  0  0  0  0  0
  142.1820   77.6190  220.3520 N   0  0  0  0  0  0  0  0  0  0  0  0
  142.6420   77.1310  219.1940 C   0  0  0  0  0  0  0  0  0  0  0  0
  142.6270   78.1570  218.2860 C   0  0  0  0  0  0  0  0  0  0  0  0
  143.0410   78.0080  216.9690 O   0  0  0  0  0  0  0  0  0  0  0  0
  142.1700   79.2040  218.9150 O   0  0  0  0  0  0  0  0  0  0  0  0
  141.4800   73.9890  221.0930 C   0  0  0  0  0  0  0  0  0  0  0  0
  141.2270   72.6540  220.9280 C   0  0  0  0  0  0  0  0  0  0  0  0
  142.2140   71.7620  220.5490 C   0  0  0  0  0  0  0  0  0  0  0  0
  143.4810   72.2620  220.3370 C   0  0  0  0  0  0  0  0  0  0  0  0
  144.4510   71.3610  219.9600 C   0  0  0  0  0  0  0  0  0  0  0  0
  145.7260   71.8340  219.7420 C   0  0  0  0  0  0  0  0  0  0  0  0
  146.6630   70.9250  219.3720 F   0  0  0  0  0  0  0  0  0  0  0  0
  146.0040   73.1790  219.9020 C   0  0  0  0  0  0  0  0  0  0  0  0
  145.0090   74.0560  220.2810 C   0  0  0  0  0  0  0  0  0  0  0  0
  143.7350   73.6180  220.5050 C   0  0  0  0  0  0  0  0  0  0  0  0
  142.7240   74.4520  220.8800 N   0  0  0  0  0  0  0  0  0  0  0  0
  141.5800   76.5410  222.1360 H   0  0  0  0  0  0  0  0  0  0  0  0
  138.5444   76.4242  221.9443 H   0  0  0  0  0  0  0  0  0  0  0  0
  139.3639   76.9413  223.4863 H   0  0  0  0  0  0  0  0  0  0  0  0
  140.5455   78.6383  224.2873 H   0  0  0  0  0  0  0  0  0  0  0  0
  142.1799   78.7956  223.6378 H   0  0  0  0  0  0  0  0  0  0  0  0
  140.1162   81.0790  223.6697 H   0  0  0  0  0  0  0  0  0  0  0  0
  141.3456   80.8489  224.9473 H   0  0  0  0  0  0  0  0  0  0  0  0
  141.6998   82.3063  222.6338 H   0  0  0  0  0  0  0  0  0  0  0  0
  143.0232   81.5917  223.6338 H   0  0  0  0  0  0  0  0  0  0  0  0
  143.0662   81.1232  221.1337 H   0  0  0  0  0  0  0  0  0  0  0  0
  143.1870   79.7085  222.2767 H   0  0  0  0  0  0  0  0  0  0  0  0
  140.6749   80.5454  220.7137 H   0  0  0  0  0  0  0  0  0  0  0  0
  142.9710   76.0983  219.0060 H   0  0  0  0  0  0  0  0  0  0  0  0
  143.6690   78.6590  216.5100 H   0  0  0  0  0  0  0  0  0  0  0  0
  140.2077   72.2790  221.1021 H   0  0  0  0  0  0  0  0  0  0  0  0
  141.9956   70.6915  220.4213 H   0  0  0  0  0  0  0  0  0  0  0  0
  144.2146   70.2938  219.8364 H   0  0  0  0  0  0  0  0  0  0  0  0
  147.0239   73.5516  219.7261 H   0  0  0  0  0  0  0  0  0  0  0  0
  145.2450   75.1232  220.4046 H   0  0  0  0  0  0  0  0  0  0  0  0
  1  2  2  0
  2  3  1  0
  3  4  1  0
  4  5  1  0
  5  6  2  0
  5  7  1  0
  7  8  1  0
  8  9  1  0
  9 10  1  0
 10 11  1  0
 11 12  1  0
 12 13  1  0
 13 14  2  0
 14 15  1  0
 15 16  2  0
 16 17  1  0
 16 18  1  0
  2 19  1  0
 19 20  2  0
 20 21  1  0
 21 22  2  0
 22 23  1  0
 23 24  2  0
 24 25  1  0
 24 26  1  0
 26 27  2  0
 27 28  1  0
 28 29  2  0
 12  7  1  0
 18 13  1  0
 29 19  1  0
 28 22  1  0
  3 30  1  0
  4 31  1  0
  4 32  1  0
  8 33  1  0
  8 34  1  0
  9 35  1  0
  9 36  1  0
 10 37  1  0
 10 38  1  0
 11 39  1  0
 11 40  1  0
 12 41  1  6
 15 42  1  0
 17 43  1  0
 20 44  1  0
 21 45  1  0
 23 46  1  0
 26 47  1  0
 27 48  1  0
M  END
>  <smiles>  (40) 
O=C(NCC(=O)N1CCCC[C@H]1c1ncc(O)o1)c1ccc2cc(F)ccc2n1

>  <score_type>  (40) 
oracle

>  <origin>  (40) 
autodockgpu

>  <m_score__min__energy>  (40) 
-7.8899999999999997

>  <m_primary>  (40) 
energy

>  <rmsd>  (40) 
6.373035170428645

>  <m_score__min__rmsd>  (40) 
6.373035170428645

>  <meeko>  (40) 
{"free_energy": -6.62, "intermolecular_energy": -8.41, "internal_energy": -2.39, "cluster_size": 11, "cluster_id": 5, "rank_in_cluster": 8}

>  <energy>  (40) 
-5.77

>  <cluster_rmsd>  (40) 
1.89

>  <cluster>  (40) 
7

$$$$

     RDKit          3D

 48 51  0  0  0  0  0  0  0  0999 V2000
  136.1530   71.6280  221.9250 O   0  0  0  0  0  0  0  0  0  0  0  0
  137.1670   71.9770  222.5480 C   0  0  0  0  0  0  0  0  0  0  0  0
  137.6030   73.3400  222.3500 N   0  0  0  0  0  0  0  0  0  0  0  0
  136.7930   74.1270  221.4400 C   0  0  0  0  0  0  0  0  0  0  0  0
  137.5490   75.2230  220.8050 C   0  0  0  0  0  0  0  0  0  0  0  0
  137.3830   75.5830  219.6010 O   0  0  0  0  0  0  0  0  0  0  0  0
  138.5130   75.9020  221.5970 N   0  0  0  0  0  0  0  0  0  0  0  0
  138.1780   76.6990  222.7600 C   0  0  0  0  0  0  0  0  0  0  0  0
  138.6830   78.0910  222.4470 C   0  0  0  0  0  0  0  0  0  0  0  0
  140.1830   78.0610  222.4550 C   0  0  0  0  0  0  0  0  0  0  0  0
  140.6870   76.6540  222.3420 C   0  0  0  0  0  0  0  0  0  0  0  0
  139.9540   75.8430  221.2790 C   0  0  1  0  0  0  0  0  0  0  0  0
  140.4660   74.4630  221.3350 C   0  0  0  0  0  0  0  0  0  0  0  0
  141.1420   73.8550  220.3310 N   0  0  0  0  0  0  0  0  0  0  0  0
  141.4430   72.6170  220.7410 C   0  0  0  0  0  0  0  0  0  0  0  0
  140.9420   72.4760  222.0080 C   0  0  0  0  0  0  0  0  0  0  0  0
  141.0720   71.3070  222.7480 O   0  0  0  0  0  0  0  0  0  0  0  0
  140.3700   73.6080  222.3110 O   0  0  0  0  0  0  0  0  0  0  0  0
  137.8930   71.0780  223.4380 C   0  0  0  0  0  0  0  0  0  0  0  0
  137.5990   69.7430  223.3770 C   0  0  0  0  0  0  0  0  0  0  0  0
  138.2350   68.8140  224.1810 C   0  0  0  0  0  0  0  0  0  0  0  0
  139.1900   69.2770  225.0600 C   0  0  0  0  0  0  0  0  0  0  0  0
  139.8140   68.3390  225.8530 C   0  0  0  0  0  0  0  0  0  0  0  0
  140.7720   68.7750  226.7400 C   0  0  0  0  0  0  0  0  0  0  0  0
  141.3700   67.8300  227.5100 F   0  0  0  0  0  0  0  0  0  0  0  0
  141.0860   70.1190  226.8190 C   0  0  0  0  0  0  0  0  0  0  0  0
  140.4430   71.0330  226.0100 C   0  0  0  0  0  0  0  0  0  0  0  0
  139.4870   70.6330  225.1200 C   0  0  0  0  0  0  0  0  0  0  0  0
  138.8290   71.5040  224.3040 N   0  0  0  0  0  0  0  0  0  0  0  0
  138.4490   73.7130  222.8380 H   0  0  0  0  0  0  0  0  0  0  0  0
  136.4053   73.4647  220.6520 H   0  0  0  0  0  0  0  0  0  0  0  0
  135.9810   74.5810  222.0270 H   0  0  0  0  0  0  0  0  0  0  0  0
  137.0896   76.7104  222.9191 H   0  0  0  0  0  0  0  0  0  0  0  0
  138.6290   76.2952  223.6785 H   0  0  0  0  0  0  0  0  0  0  0  0
  138.3225   78.4033  221.4558 H   0  0  0  0  0  0  0  0  0  0  0  0
  138.3143   78.8055  223.1977 H   0  0  0  0  0  0  0  0  0  0  0  0
  140.5601   78.6487  221.6051 H   0  0  0  0  0  0  0  0  0  0  0  0
  140.5395   78.4885  223.4038 H   0  0  0  0  0  0  0  0  0  0  0  0
  141.7561   76.6841  222.0849 H   0  0  0  0  0  0  0  0  0  0  0  0
  140.5116   76.1625  223.3103 H   0  0  0  0  0  0  0  0  0  0  0  0
  140.1116   76.2333  220.2627 H   0  0  0  0  0  0  0  0  0  0  0  0
  141.9907   71.8548  220.1673 H   0  0  0  0  0  0  0  0  0  0  0  0
  140.2970   70.6780  222.9280 H   0  0  0  0  0  0  0  0  0  0  0  0
  136.8333   69.3978  222.6667 H   0  0  0  0  0  0  0  0  0  0  0  0
  137.9872   67.7440  224.1208 H   0  0  0  0  0  0  0  0  0  0  0  0
  139.5542   67.2727  225.7794 H   0  0  0  0  0  0  0  0  0  0  0  0
  141.8521   70.4613  227.5303 H   0  0  0  0  0  0  0  0  0  0  0  0
  140.7039   72.0991  226.0827 H   0  0  0  0  0  0  0  0  0  0  0  0
  1  2  2  0
  2  3  1  0
  3  4  1  0
  4  5  1  0
  5  6  2  0
  5  7  1  0
  7  8  1  0
  8  9  1  0
  9 10  1  0
 10 11  1  0
 11 12  1  0
 12 13  1  0
 13 14  2  0
 14 15  1  0
 15 16  2  0
 16 17  1  0
 16 18  1  0
  2 19  1  0
 19 20  2  0
 20 21  1  0
 21 22  2  0
 22 23  1  0
 23 24  2  0
 24 25  1  0
 24 26  1  0
 26 27  2  0
 27 28  1  0
 28 29  2  0
 12  7  1  0
 18 13  1  0
 29 19  1  0
 28 22  1  0
  3 30  1  0
  4 31  1  0
  4 32  1  0
  8 33  1  0
  8 34  1  0
  9 35  1  0
  9 36  1  0
 10 37  1  0
 10 38  1  0
 11 39  1  0
 11 40  1  0
 12 41  1  6
 15 42  1  0
 17 43  1  0
 20 44  1  0
 21 45  1  0
 23 46  1  0
 26 47  1  0
 27 48  1  0
M  END
>  <smiles>  (41) 
O=C(NCC(=O)N1CCCC[C@H]1c1ncc(O)o1)c1ccc2cc(F)ccc2n1

>  <score_type>  (41) 
oracle

>  <origin>  (41) 
autodockgpu

>  <m_score__min__energy>  (41) 
-7.8899999999999997

>  <m_primary>  (41) 
energy

>  <rmsd>  (41) 
3.578049004244416

>  <m_score__min__rmsd>  (41) 
3.578049004244416

>  <meeko>  (41) 
{"free_energy": -5.86, "intermolecular_energy": -7.65, "internal_energy": -3.33, "cluster_size": 7, "cluster_id": 10, "rank_in_cluster": 6}

>  <energy>  (41) 
-6.7

>  <cluster_rmsd>  (41) 
0.0

>  <cluster>  (41) 
8

$$$$

     RDKit          3D

 48 51  0  0  0  0  0  0  0  0999 V2000
  139.3520   73.2900  222.4430 O   0  0  0  0  0  0  0  0  0  0  0  0
  140.1850   72.3880  222.6140 C   0  0  0  0  0  0  0  0  0  0  0  0
  141.1880   72.2390  221.5850 N   0  0  0  0  0  0  0  0  0  0  0  0
  141.0880   73.1710  220.4790 C   0  0  0  0  0  0  0  0  0  0  0  0
  142.3590   73.8700  220.2050 C   0  0  0  0  0  0  0  0  0  0  0  0
  143.4870   73.4580  220.6100 O   0  0  0  0  0  0  0  0  0  0  0  0
  142.3000   75.0690  219.4460 N   0  0  0  0  0  0  0  0  0  0  0  0
  142.1570   75.0990  218.0040 C   0  0  0  0  0  0  0  0  0  0  0  0
  143.3830   75.8270  217.4980 C   0  0  0  0  0  0  0  0  0  0  0  0
  143.2730   77.2690  217.8980 C   0  0  0  0  0  0  0  0  0  0  0  0
  142.2610   77.4430  218.9890 C   0  0  0  0  0  0  0  0  0  0  0  0
  142.3860   76.3950  220.0900 C   0  0  1  0  0  0  0  0  0  0  0  0
  141.2810   76.6100  221.0410 C   0  0  0  0  0  0  0  0  0  0  0  0
  141.1580   77.6960  221.8400 N   0  0  0  0  0  0  0  0  0  0  0  0
  140.0410   77.5410  222.5600 C   0  0  0  0  0  0  0  0  0  0  0  0
  139.4820   76.3460  222.1910 C   0  0  0  0  0  0  0  0  0  0  0  0
  138.3030   75.8600  222.7400 O   0  0  0  0  0  0  0  0  0  0  0  0
  140.2650   75.8340  221.2810 O   0  0  0  0  0  0  0  0  0  0  0  0
  140.1720   71.5140  223.7820 C   0  0  0  0  0  0  0  0  0  0  0  0
  139.6390   70.2610  223.6370 C   0  0  0  0  0  0  0  0  0  0  0  0
  139.5830   69.3630  224.6870 C   0  0  0  0  0  0  0  0  0  0  0  0
  140.0850   69.7690  225.9050 C   0  0  0  0  0  0  0  0  0  0  0  0
  140.0210   68.8620  226.9390 C   0  0  0  0  0  0  0  0  0  0  0  0
  140.5170   69.2420  228.1660 C   0  0  0  0  0  0  0  0  0  0  0  0
  140.4400   68.3300  229.1680 F   0  0  0  0  0  0  0  0  0  0  0  0
  141.0590   70.5030  228.3360 C   0  0  0  0  0  0  0  0  0  0  0  0
  141.1090   71.3880  227.2790 C   0  0  0  0  0  0  0  0  0  0  0  0
  140.6250   71.0410  226.0490 C   0  0  0  0  0  0  0  0  0  0  0  0
  140.6550   71.8860  224.9800 N   0  0  0  0  0  0  0  0  0  0  0  0
  141.9270   71.5020  221.6540 H   0  0  0  0  0  0  0  0  0  0  0  0
  140.7903   72.6159  219.5772 H   0  0  0  0  0  0  0  0  0  0  0  0
  140.3430   73.9324  220.7531 H   0  0  0  0  0  0  0  0  0  0  0  0
  142.1208   74.0770  217.5988 H   0  0  0  0  0  0  0  0  0  0  0  0
  141.2264   75.5968  217.6937 H   0  0  0  0  0  0  0  0  0  0  0  0
  144.2874   75.3857  217.9422 H   0  0  0  0  0  0  0  0  0  0  0  0
  143.4499   75.7413  216.4034 H   0  0  0  0  0  0  0  0  0  0  0  0
  144.2524   77.6198  218.2553 H   0  0  0  0  0  0  0  0  0  0  0  0
  142.9524   77.8540  217.0233 H   0  0  0  0  0  0  0  0  0  0  0  0
  142.3953   78.4390  219.4362 H   0  0  0  0  0  0  0  0  0  0  0  0
  141.2653   77.3273  218.5359 H   0  0  0  0  0  0  0  0  0  0  0  0
  143.3373   76.4644  220.6380 H   0  0  0  0  0  0  0  0  0  0  0  0
  139.6451   78.2426  223.3090 H   0  0  0  0  0  0  0  0  0  0  0  0
  138.2400   74.9620  223.2080 H   0  0  0  0  0  0  0  0  0  0  0  0
  139.2435   69.9598  222.6557 H   0  0  0  0  0  0  0  0  0  0  0  0
  139.1527   68.3593  224.5549 H   0  0  0  0  0  0  0  0  0  0  0  0
  139.5862   67.8628  226.7892 H   0  0  0  0  0  0  0  0  0  0  0  0
  141.4522   70.8017  229.3189 H   0  0  0  0  0  0  0  0  0  0  0  0
  141.5445   72.3870  227.4283 H   0  0  0  0  0  0  0  0  0  0  0  0
  1  2  2  0
  2  3  1  0
  3  4  1  0
  4  5  1  0
  5  6  2  0
  5  7  1  0
  7  8  1  0
  8  9  1  0
  9 10  1  0
 10 11  1  0
 11 12  1  0
 12 13  1  0
 13 14  2  0
 14 15  1  0
 15 16  2  0
 16 17  1  0
 16 18  1  0
  2 19  1  0
 19 20  2  0
 20 21  1  0
 21 22  2  0
 22 23  1  0
 23 24  2  0
 24 25  1  0
 24 26  1  0
 26 27  2  0
 27 28  1  0
 28 29  2  0
 12  7  1  0
 18 13  1  0
 29 19  1  0
 28 22  1  0
  3 30  1  0
  4 31  1  0
  4 32  1  0
  8 33  1  0
  8 34  1  0
  9 35  1  0
  9 36  1  0
 10 37  1  0
 10 38  1  0
 11 39  1  0
 11 40  1  0
 12 41  1  1
 15 42  1  0
 17 43  1  0
 20 44  1  0
 21 45  1  0
 23 46  1  0
 26 47  1  0
 27 48  1  0
M  END
>  <smiles>  (42) 
O=C(NCC(=O)N1CCCC[C@H]1c1ncc(O)o1)c1ccc2cc(F)ccc2n1

>  <score_type>  (42) 
oracle

>  <origin>  (42) 
autodockgpu

>  <m_score__min__energy>  (42) 
-7.8899999999999997

>  <m_primary>  (42) 
energy

>  <rmsd>  (42) 
2.240790181425474

>  <m_score__min__rmsd>  (42) 
2.240790181425474

>  <meeko>  (42) 
{"free_energy": -7.06, "intermolecular_energy": -8.85, "internal_energy": -2.14, "cluster_size": 2, "cluster_id": 6, "rank_in_cluster": 2}

>  <energy>  (42) 
-6.5

>  <cluster_rmsd>  (42) 
0.0

>  <cluster>  (42) 
9

$$$$

     RDKit          3D

 48 51  0  0  0  0  0  0  0  0999 V2000
  139.4800   74.0800  222.1230 O   0  0  0  0  0  0  0  0  0  0  0  0
  140.5910   74.4810  221.7450 C   0  0  0  0  0  0  0  0  0  0  0  0
  140.8370   75.8980  221.8710 N   0  0  0  0  0  0  0  0  0  0  0  0
  139.7450   76.6730  222.4270 C   0  0  0  0  0  0  0  0  0  0  0  0
  139.6930   78.0500  221.8960 C   0  0  0  0  0  0  0  0  0  0  0  0
  138.7160   78.5080  221.2320 O   0  0  0  0  0  0  0  0  0  0  0  0
  140.8060   78.8950  222.1500 N   0  0  0  0  0  0  0  0  0  0  0  0
  141.4890   78.9590  223.4270 C   0  0  0  0  0  0  0  0  0  0  0  0
  141.3580   80.3980  223.8760 C   0  0  0  0  0  0  0  0  0  0  0  0
  142.2030   81.2500  222.9760 C   0  0  0  0  0  0  0  0  0  0  0  0
  142.5460   80.5160  221.7150 C   0  0  0  0  0  0  0  0  0  0  0  0
  141.3520   79.7870  221.1080 C   0  0  1  0  0  0  0  0  0  0  0  0
  141.8360   79.0270  219.9420 C   0  0  0  0  0  0  0  0  0  0  0  0
  142.1580   77.7110  219.9650 N   0  0  0  0  0  0  0  0  0  0  0  0
  142.5550   77.3740  218.7330 C   0  0  0  0  0  0  0  0  0  0  0  0
  142.4710   78.4990  217.9560 C   0  0  0  0  0  0  0  0  0  0  0  0
  142.8080   78.5160  216.6090 O   0  0  0  0  0  0  0  0  0  0  0  0
  142.0370   79.4550  218.7300 O   0  0  0  0  0  0  0  0  0  0  0  0
  141.6070   73.5880  221.2000 C   0  0  0  0  0  0  0  0  0  0  0  0
  141.2620   72.2800  220.9900 C   0  0  0  0  0  0  0  0  0  0  0  0
  142.1580   71.3590  220.4770 C   0  0  0  0  0  0  0  0  0  0  0  0
  143.4290   71.8000  220.1780 C   0  0  0  0  0  0  0  0  0  0  0  0
  144.3080   70.8700  219.6690 C   0  0  0  0  0  0  0  0  0  0  0  0
  145.5840   71.2850  219.3620 C   0  0  0  0  0  0  0  0  0  0  0  0
  146.4300   70.3490  218.8630 F   0  0  0  0  0  0  0  0  0  0  0  0
  145.9550   72.6020  219.5660 C   0  0  0  0  0  0  0  0  0  0  0  0
  145.0510   73.5090  220.0790 C   0  0  0  0  0  0  0  0  0  0  0  0
  143.7770   73.1280  220.3940 C   0  0  0  0  0  0  0  0  0  0  0  0
  142.8540   73.9930  220.9010 N   0  0  0  0  0  0  0  0  0  0  0  0
  141.7490   76.3170  221.5750 H   0  0  0  0  0  0  0  0  0  0  0  0
  138.7977   76.1678  222.1875 H   0  0  0  0  0  0  0  0  0  0  0  0
  139.9069   76.7423  223.5128 H   0  0  0  0  0  0  0  0  0  0  0  0
  141.0130   78.2836  224.1532 H   0  0  0  0  0  0  0  0  0  0  0  0
  142.5410   78.6479  223.3463 H   0  0  0  0  0  0  0  0  0  0  0  0
  140.3067   80.7146  223.8088 H   0  0  0  0  0  0  0  0  0  0  0  0
  141.6911   80.5017  224.9192 H   0  0  0  0  0  0  0  0  0  0  0  0
  141.6486   82.1652  222.7210 H   0  0  0  0  0  0  0  0  0  0  0  0
  143.1357   81.5011  223.5023 H   0  0  0  0  0  0  0  0  0  0  0  0
  142.9255   81.2406  220.9795 H   0  0  0  0  0  0  0  0  0  0  0  0
  143.3006   79.7573  221.9700 H   0  0  0  0  0  0  0  0  0  0  0  0
  140.5596   80.4729  220.7740 H   0  0  0  0  0  0  0  0  0  0  0  0
  142.8873   76.3781  218.4046 H   0  0  0  0  0  0  0  0  0  0  0  0
  143.3120   79.2810  216.1740 H   0  0  0  0  0  0  0  0  0  0  0  0
  140.2416   71.9513  221.2366 H   0  0  0  0  0  0  0  0  0  0  0  0
  141.8660   70.3111  220.3135 H   0  0  0  0  0  0  0  0  0  0  0  0
  143.9993   69.8259  219.5124 H   0  0  0  0  0  0  0  0  0  0  0  0
  146.9760   72.9276  219.3179 H   0  0  0  0  0  0  0  0  0  0  0  0
  145.3598   74.5529  220.2366 H   0  0  0  0  0  0  0  0  0  0  0  0
  1  2  2  0
  2  3  1  0
  3  4  1  0
  4  5  1  0
  5  6  2  0
  5  7  1  0
  7  8  1  0
  8  9  1  0
  9 10  1  0
 10 11  1  0
 11 12  1  0
 12 13  1  0
 13 14  2  0
 14 15  1  0
 15 16  2  0
 16 17  1  0
 16 18  1  0
  2 19  1  0
 19 20  2  0
 20 21  1  0
 21 22  2  0
 22 23  1  0
 23 24  2  0
 24 25  1  0
 24 26  1  0
 26 27  2  0
 27 28  1  0
 28 29  2  0
 12  7  1  0
 18 13  1  0
 29 19  1  0
 28 22  1  0
  3 30  1  0
  4 31  1  0
  4 32  1  0
  8 33  1  0
  8 34  1  0
  9 35  1  0
  9 36  1  0
 10 37  1  0
 10 38  1  0
 11 39  1  0
 11 40  1  0
 12 41  1  6
 15 42  1  0
 17 43  1  0
 20 44  1  0
 21 45  1  0
 23 46  1  0
 26 47  1  0
 27 48  1  0
M  END
>  <smiles>  (43) 
O=C(NCC(=O)N1CCCC[C@H]1c1ncc(O)o1)c1ccc2cc(F)ccc2n1

>  <score_type>  (43) 
oracle

>  <origin>  (43) 
autodockgpu

>  <m_score__min__energy>  (43) 
-7.8899999999999997

>  <m_primary>  (43) 
energy

>  <rmsd>  (43) 
6.329813795085138

>  <m_score__min__rmsd>  (43) 
6.329813795085138

>  <meeko>  (43) 
{"free_energy": -6.83, "intermolecular_energy": -8.61, "internal_energy": -2.28, "cluster_size": 11, "cluster_id": 5, "rank_in_cluster": 5}

>  <energy>  (43) 
-6.04

>  <cluster_rmsd>  (43) 
0.87

>  <cluster>  (43) 
9

$$$$

     RDKit          3D

 48 51  0  0  0  0  0  0  0  0999 V2000
  139.3920   74.1280  222.0170 O   0  0  0  0  0  0  0  0  0  0  0  0
  140.5440   74.5250  221.7820 C   0  0  0  0  0  0  0  0  0  0  0  0
  140.8190   75.9090  222.0910 N   0  0  0  0  0  0  0  0  0  0  0  0
  139.7060   76.6580  222.6400 C   0  0  0  0  0  0  0  0  0  0  0  0
  139.5960   78.0160  222.0700 C   0  0  0  0  0  0  0  0  0  0  0  0
  138.5870   78.4220  221.4180 O   0  0  0  0  0  0  0  0  0  0  0  0
  140.6860   78.9030  222.2680 N   0  0  0  0  0  0  0  0  0  0  0  0
  141.3030   79.1390  223.5590 C   0  0  0  0  0  0  0  0  0  0  0  0
  141.1360   80.6210  223.8140 C   0  0  0  0  0  0  0  0  0  0  0  0
  142.0170   81.3660  222.8550 C   0  0  0  0  0  0  0  0  0  0  0  0
  142.4300   80.4840  221.7170 C   0  0  0  0  0  0  0  0  0  0  0  0
  141.2760   79.6650  221.1500 C   0  0  1  0  0  0  0  0  0  0  0  0
  141.8260   78.7710  220.1150 C   0  0  0  0  0  0  0  0  0  0  0  0
  142.2500   79.1810  218.8950 N   0  0  0  0  0  0  0  0  0  0  0  0
  142.6780   78.0990  218.2350 C   0  0  0  0  0  0  0  0  0  0  0  0
  142.5120   77.0230  219.0660 C   0  0  0  0  0  0  0  0  0  0  0  0
  142.8550   75.7260  218.7050 O   0  0  0  0  0  0  0  0  0  0  0  0
  142.0000   77.4830  220.1750 O   0  0  0  0  0  0  0  0  0  0  0  0
  141.5770   73.6600  221.2250 C   0  0  0  0  0  0  0  0  0  0  0  0
  141.2390   72.3640  220.9370 C   0  0  0  0  0  0  0  0  0  0  0  0
  142.1510   71.4700  220.4060 C   0  0  0  0  0  0  0  0  0  0  0  0
  143.4310   71.9240  220.1700 C   0  0  0  0  0  0  0  0  0  0  0  0
  144.3260   71.0210  219.6420 C   0  0  0  0  0  0  0  0  0  0  0  0
  145.6110   71.4490  219.3970 C   0  0  0  0  0  0  0  0  0  0  0  0
  146.4730   70.5390  218.8770 F   0  0  0  0  0  0  0  0  0  0  0  0
  145.9750   72.7530  219.6800 C   0  0  0  0  0  0  0  0  0  0  0  0
  145.0540   73.6340  220.2090 C   0  0  0  0  0  0  0  0  0  0  0  0
  143.7710   73.2390  220.4640 C   0  0  0  0  0  0  0  0  0  0  0  0
  142.8320   74.0780  220.9860 N   0  0  0  0  0  0  0  0  0  0  0  0
  141.7660   76.3220  221.9230 H   0  0  0  0  0  0  0  0  0  0  0  0
  138.7753   76.1111  222.4283 H   0  0  0  0  0  0  0  0  0  0  0  0
  139.8785   76.7646  223.7211 H   0  0  0  0  0  0  0  0  0  0  0  0
  140.7971   78.5537  224.3410 H   0  0  0  0  0  0  0  0  0  0  0  0
  142.3606   78.8366  223.5705 H   0  0  0  0  0  0  0  0  0  0  0  0
  140.0864   80.9097  223.6560 H   0  0  0  0  0  0  0  0  0  0  0  0
  141.4155   80.8612  224.8504 H   0  0  0  0  0  0  0  0  0  0  0  0
  141.4671   82.2323  222.4586 H   0  0  0  0  0  0  0  0  0  0  0  0
  142.9194   81.6972  223.3898 H   0  0  0  0  0  0  0  0  0  0  0  0
  142.8394   81.1154  220.9146 H   0  0  0  0  0  0  0  0  0  0  0  0
  143.1777   79.7759  222.1036 H   0  0  0  0  0  0  0  0  0  0  0  0
  140.4952   80.2909  220.6932 H   0  0  0  0  0  0  0  0  0  0  0  0
  143.0873   78.0775  217.2142 H   0  0  0  0  0  0  0  0  0  0  0  0
  143.5280   75.1680  219.2200 H   0  0  0  0  0  0  0  0  0  0  0  0
  140.2115   72.0242  221.1340 H   0  0  0  0  0  0  0  0  0  0  0  0
  141.8647   70.4323  220.1798 H   0  0  0  0  0  0  0  0  0  0  0  0
  144.0228   69.9867  219.4221 H   0  0  0  0  0  0  0  0  0  0  0  0
  147.0035   73.0894  219.4824 H   0  0  0  0  0  0  0  0  0  0  0  0
  145.3568   74.6685  220.4284 H   0  0  0  0  0  0  0  0  0  0  0  0
  1  2  2  0
  2  3  1  0
  3  4  1  0
  4  5  1  0
  5  6  2  0
  5  7  1  0
  7  8  1  0
  8  9  1  0
  9 10  1  0
 10 11  1  0
 11 12  1  0
 12 13  1  0
 13 14  2  0
 14 15  1  0
 15 16  2  0
 16 17  1  0
 16 18  1  0
  2 19  1  0
 19 20  2  0
 20 21  1  0
 21 22  2  0
 22 23  1  0
 23 24  2  0
 24 25  1  0
 24 26  1  0
 26 27  2  0
 27 28  1  0
 28 29  2  0
 12  7  1  0
 18 13  1  0
 29 19  1  0
 28 22  1  0
  3 30  1  0
  4 31  1  0
  4 32  1  0
  8 33  1  0
  8 34  1  0
  9 35  1  0
  9 36  1  0
 10 37  1  0
 10 38  1  0
 11 39  1  0
 11 40  1  0
 12 41  1  6
 15 42  1  0
 17 43  1  0
 20 44  1  0
 21 45  1  0
 23 46  1  0
 26 47  1  0
 27 48  1  0
M  END
>  <smiles>  (44) 
O=C(NCC(=O)N1CCCC[C@H]1c1ncc(O)o1)c1ccc2cc(F)ccc2n1

>  <score_type>  (44) 
oracle

>  <origin>  (44) 
autodockgpu

>  <m_score__min__energy>  (44) 
-7.8899999999999997

>  <m_primary>  (44) 
energy

>  <rmsd>  (44) 
6.375323939669052

>  <m_score__min__rmsd>  (44) 
6.375323939669052

>  <meeko>  (44) 
{"free_energy": -5.92, "intermolecular_energy": -7.71, "internal_energy": -3.12, "cluster_size": 11, "cluster_id": 5, "rank_in_cluster": 11}

>  <energy>  (44) 
-6.18

>  <cluster_rmsd>  (44) 
0.0

>  <cluster>  (44) 
10

$$$$

     RDKit          3D

 48 51  0  0  0  0  0  0  0  0999 V2000
  141.2450   77.2830  217.7150 O   0  0  0  0  0  0  0  0  0  0  0  0
  142.1890   77.1510  218.5080 C   0  0  0  0  0  0  0  0  0  0  0  0
  142.4840   78.2910  219.3460 N   0  0  0  0  0  0  0  0  0  0  0  0
  141.6320   79.4470  219.1480 C   0  0  0  0  0  0  0  0  0  0  0  0
  140.5350   79.5240  220.1320 C   0  0  0  0  0  0  0  0  0  0  0  0
  139.3080   79.4900  219.8170 O   0  0  0  0  0  0  0  0  0  0  0  0
  140.8880   79.6430  221.5030 N   0  0  0  0  0  0  0  0  0  0  0  0
  140.7340   80.8660  222.2660 C   0  0  0  0  0  0  0  0  0  0  0  0
  142.1280   81.2150  222.7410 C   0  0  0  0  0  0  0  0  0  0  0  0
  142.5440   80.2030  223.7670 C   0  0  0  0  0  0  0  0  0  0  0  0
  141.6810   78.9800  223.6880 C   0  0  0  0  0  0  0  0  0  0  0  0
  141.4510   78.5060  222.2570 C   0  0  1  0  0  0  0  0  0  0  0  0
  140.5130   77.3700  222.3060 C   0  0  0  0  0  0  0  0  0  0  0  0
  139.1670   77.4910  222.3910 N   0  0  0  0  0  0  0  0  0  0  0  0
  138.6530   76.2560  222.4140 C   0  0  0  0  0  0  0  0  0  0  0  0
  139.7020   75.3780  222.3420 C   0  0  0  0  0  0  0  0  0  0  0  0
  139.5370   73.9990  222.3410 O   0  0  0  0  0  0  0  0  0  0  0  0
  140.7880   76.0990  222.2790 O   0  0  0  0  0  0  0  0  0  0  0  0
  142.9710   75.9240  218.6070 C   0  0  0  0  0  0  0  0  0  0  0  0
  142.9190   75.0470  217.5570 C   0  0  0  0  0  0  0  0  0  0  0  0
  143.6260   73.8580  217.5600 C   0  0  0  0  0  0  0  0  0  0  0  0
  144.3970   73.5740  218.6670 C   0  0  0  0  0  0  0  0  0  0  0  0
  145.0930   72.3860  218.6530 C   0  0  0  0  0  0  0  0  0  0  0  0
  145.8710   72.0790  219.7460 C   0  0  0  0  0  0  0  0  0  0  0  0
  146.5460   70.9020  219.7070 F   0  0  0  0  0  0  0  0  0  0  0  0
  145.9390   72.9490  220.8190 C   0  0  0  0  0  0  0  0  0  0  0  0
  145.2280   74.1320  220.8010 C   0  0  0  0  0  0  0  0  0  0  0  0
  144.4470   74.4660  219.7310 C   0  0  0  0  0  0  0  0  0  0  0  0
  143.7300   75.6240  219.6750 N   0  0  0  0  0  0  0  0  0  0  0  0
  143.2640   78.2620  220.0420 H   0  0  0  0  0  0  0  0  0  0  0  0
  142.2463   80.3554  219.2347 H   0  0  0  0  0  0  0  0  0  0  0  0
  141.1767   79.3560  218.1508 H   0  0  0  0  0  0  0  0  0  0  0  0
  140.3305   81.6686  221.6312 H   0  0  0  0  0  0  0  0  0  0  0  0
  140.0327   80.7422  223.1044 H   0  0  0  0  0  0  0  0  0  0  0  0
  142.8267   81.1923  221.8917 H   0  0  0  0  0  0  0  0  0  0  0  0
  142.1373   82.2240  223.1789 H   0  0  0  0  0  0  0  0  0  0  0  0
  143.5912   79.9177  223.5883 H   0  0  0  0  0  0  0  0  0  0  0  0
  142.4340   80.6484  224.7667 H   0  0  0  0  0  0  0  0  0  0  0  0
  142.1675   78.1704  224.2518 H   0  0  0  0  0  0  0  0  0  0  0  0
  140.6995   79.2414  224.1104 H   0  0  0  0  0  0  0  0  0  0  0  0
  142.3771   78.1743  221.7648 H   0  0  0  0  0  0  0  0  0  0  0  0
  137.5865   75.9943  222.4787 H   0  0  0  0  0  0  0  0  0  0  0  0
  138.8080   73.5290  222.8670 H   0  0  0  0  0  0  0  0  0  0  0  0
  142.2964   75.2953  216.6848 H   0  0  0  0  0  0  0  0  0  0  0  0
  143.5748   73.1633  216.7087 H   0  0  0  0  0  0  0  0  0  0  0  0
  145.0291   71.7024  217.7935 H   0  0  0  0  0  0  0  0  0  0  0  0
  146.5620   72.6973  221.6899 H   0  0  0  0  0  0  0  0  0  0  0  0
  145.2911   74.8156  221.6605 H   0  0  0  0  0  0  0  0  0  0  0  0
  1  2  2  0
  2  3  1  0
  3  4  1  0
  4  5  1  0
  5  6  2  0
  5  7  1  0
  7  8  1  0
  8  9  1  0
  9 10  1  0
 10 11  1  0
 11 12  1  0
 12 13  1  0
 13 14  2  0
 14 15  1  0
 15 16  2  0
 16 17  1  0
 16 18  1  0
  2 19  1  0
 19 20  2  0
 20 21  1  0
 21 22  2  0
 22 23  1  0
 23 24  2  0
 24 25  1  0
 24 26  1  0
 26 27  2  0
 27 28  1  0
 28 29  2  0
 12  7  1  0
 18 13  1  0
 29 19  1  0
 28 22  1  0
  3 30  1  0
  4 31  1  0
  4 32  1  0
  8 33  1  0
  8 34  1  0
  9 35  1  0
  9 36  1  0
 10 37  1  0
 10 38  1  0
 11 39  1  0
 11 40  1  0
 12 41  1  6
 15 42  1  0
 17 43  1  0
 20 44  1  0
 21 45  1  0
 23 46  1  0
 26 47  1  0
 27 48  1  0
M  END
>  <smiles>  (45) 
O=C(NCC(=O)N1CCCC[C@H]1c1ncc(O)o1)c1ccc2cc(F)ccc2n1

>  <score_type>  (45) 
oracle

>  <origin>  (45) 
autodockgpu

>  <m_score__min__energy>  (45) 
-7.8899999999999997

>  <m_primary>  (45) 
energy

>  <rmsd>  (45) 
7.5831496979203905

>  <m_score__min__rmsd>  (45) 
7.5831496979203905

>  <meeko>  (45) 
{"free_energy": -7.39, "intermolecular_energy": -9.18, "internal_energy": -1.81, "cluster_size": 7, "cluster_id": 4, "rank_in_cluster": 1}

>  <energy>  (45) 
-6.09

>  <cluster_rmsd>  (45) 
0.17

>  <cluster>  (45) 
10

$$$$

     RDKit          3D

 48 51  0  0  0  0  0  0  0  0999 V2000
  138.5150   70.5570  221.5570 O   0  0  0  0  0  0  0  0  0  0  0  0
  138.9330   71.3450  222.4190 C   0  0  0  0  0  0  0  0  0  0  0  0
  138.8720   72.7490  222.0850 N   0  0  0  0  0  0  0  0  0  0  0  0
  138.3270   73.0560  220.7770 C   0  0  0  0  0  0  0  0  0  0  0  0
  136.9510   73.5850  220.8420 C   0  0  0  0  0  0  0  0  0  0  0  0
  136.1710   73.6340  219.8430 O   0  0  0  0  0  0  0  0  0  0  0  0
  136.4880   74.0630  222.0970 N   0  0  0  0  0  0  0  0  0  0  0  0
  135.9630   73.2020  223.1380 C   0  0  0  0  0  0  0  0  0  0  0  0
  134.5490   73.6830  223.3770 C   0  0  0  0  0  0  0  0  0  0  0  0
  134.6140   75.0330  224.0280 C   0  0  0  0  0  0  0  0  0  0  0  0
  135.9710   75.6440  223.8510 C   0  0  0  0  0  0  0  0  0  0  0  0
  136.5060   75.5010  222.4300 C   0  0  1  0  0  0  0  0  0  0  0  0
  137.8760   76.0440  222.4110 C   0  0  0  0  0  0  0  0  0  0  0  0
  138.1810   77.3580  222.5360 N   0  0  0  0  0  0  0  0  0  0  0  0
  139.5120   77.4700  222.4700 C   0  0  0  0  0  0  0  0  0  0  0  0
  140.0190   76.2080  222.3040 C   0  0  0  0  0  0  0  0  0  0  0  0
  141.3780   75.9450  222.1970 O   0  0  0  0  0  0  0  0  0  0  0  0
  138.9970   75.3970  222.2760 O   0  0  0  0  0  0  0  0  0  0  0  0
  139.4600   70.9010  223.7040 C   0  0  0  0  0  0  0  0  0  0  0  0
  140.2660   71.7640  224.3970 C   0  0  0  0  0  0  0  0  0  0  0  0
  140.8120   71.4310  225.6240 C   0  0  0  0  0  0  0  0  0  0  0  0
  140.5200   70.1860  226.1390 C   0  0  0  0  0  0  0  0  0  0  0  0
  141.0720   69.8720  227.3600 C   0  0  0  0  0  0  0  0  0  0  0  0
  140.7950   68.6350  227.8970 C   0  0  0  0  0  0  0  0  0  0  0  0
  141.3530   68.3500  229.1010 F   0  0  0  0  0  0  0  0  0  0  0  0
  139.9840   67.7460  227.2140 C   0  0  0  0  0  0  0  0  0  0  0  0
  139.4460   68.0930  225.9920 C   0  0  0  0  0  0  0  0  0  0  0  0
  139.7020   69.3130  225.4320 C   0  0  0  0  0  0  0  0  0  0  0  0
  139.1900   69.6920  224.2280 N   0  0  0  0  0  0  0  0  0  0  0  0
  139.2050   73.4790  222.7570 H   0  0  0  0  0  0  0  0  0  0  0  0
  138.9702   73.8073  220.2955 H   0  0  0  0  0  0  0  0  0  0  0  0
  138.2952   72.1185  220.2025 H   0  0  0  0  0  0  0  0  0  0  0  0
  135.9625   72.1530  222.8069 H   0  0  0  0  0  0  0  0  0  0  0  0
  136.5718   73.2462  224.0531 H   0  0  0  0  0  0  0  0  0  0  0  0
  134.0146   73.7577  222.4184 H   0  0  0  0  0  0  0  0  0  0  0  0
  134.0126   72.9750  224.0258 H   0  0  0  0  0  0  0  0  0  0  0  0
  133.8599   75.6906  223.5709 H   0  0  0  0  0  0  0  0  0  0  0  0
  134.4176   74.9156  225.1039 H   0  0  0  0  0  0  0  0  0  0  0  0
  135.9085   76.7145  224.0964 H   0  0  0  0  0  0  0  0  0  0  0  0
  136.6628   75.1103  224.5192 H   0  0  0  0  0  0  0  0  0  0  0  0
  135.9017   76.0470  221.6906 H   0  0  0  0  0  0  0  0  0  0  0  0
  140.0921   78.4023  222.5366 H   0  0  0  0  0  0  0  0  0  0  0  0
  142.0700   76.6690  222.0380 H   0  0  0  0  0  0  0  0  0  0  0  0
  140.4861   72.7516  223.9654 H   0  0  0  0  0  0  0  0  0  0  0  0
  141.4569   72.1355  226.1698 H   0  0  0  0  0  0  0  0  0  0  0  0
  141.7157   70.5885  227.8913 H   0  0  0  0  0  0  0  0  0  0  0  0
  139.7673   66.7584  227.6472 H   0  0  0  0  0  0  0  0  0  0  0  0
  138.8016   67.3772  225.4606 H   0  0  0  0  0  0  0  0  0  0  0  0
  1  2  2  0
  2  3  1  0
  3  4  1  0
  4  5  1  0
  5  6  2  0
  5  7  1  0
  7  8  1  0
  8  9  1  0
  9 10  1  0
 10 11  1  0
 11 12  1  0
 12 13  1  0
 13 14  2  0
 14 15  1  0
 15 16  2  0
 16 17  1  0
 16 18  1  0
  2 19  1  0
 19 20  2  0
 20 21  1  0
 21 22  2  0
 22 23  1  0
 23 24  2  0
 24 25  1  0
 24 26  1  0
 26 27  2  0
 27 28  1  0
 28 29  2  0
 12  7  1  0
 18 13  1  0
 29 19  1  0
 28 22  1  0
  3 30  1  0
  4 31  1  0
  4 32  1  0
  8 33  1  0
  8 34  1  0
  9 35  1  0
  9 36  1  0
 10 37  1  0
 10 38  1  0
 11 39  1  0
 11 40  1  0
 12 41  1  6
 15 42  1  0
 17 43  1  0
 20 44  1  0
 21 45  1  0
 23 46  1  0
 26 47  1  0
 27 48  1  0
M  END
>  <smiles>  (46) 
O=C(NCC(=O)N1CCCC[C@H]1c1ncc(O)o1)c1ccc2cc(F)ccc2n1

>  <score_type>  (46) 
oracle

>  <origin>  (46) 
autodockgpu

>  <m_score__min__energy>  (46) 
-7.8899999999999997

>  <m_primary>  (46) 
energy

>  <rmsd>  (46) 
4.555971291557478

>  <m_score__min__rmsd>  (46) 
4.555971291557478

>  <meeko>  (46) 
{"free_energy": -6.65, "intermolecular_energy": -8.44, "internal_energy": -2.26, "cluster_size": 7, "cluster_id": 7, "rank_in_cluster": 5}

>  <energy>  (46) 
-6.03

>  <cluster_rmsd>  (46) 
0.31

>  <cluster>  (46) 
10

$$$$

     RDKit          3D

 48 51  0  0  0  0  0  0  0  0999 V2000
  141.4380   72.3060  221.5040 O   0  0  0  0  0  0  0  0  0  0  0  0
  140.6300   72.5560  222.4120 C   0  0  0  0  0  0  0  0  0  0  0  0
  139.9340   73.8190  222.3200 N   0  0  0  0  0  0  0  0  0  0  0  0
  140.2750   74.6350  221.1710 C   0  0  0  0  0  0  0  0  0  0  0  0
  140.6660   76.0090  221.5420 C   0  0  0  0  0  0  0  0  0  0  0  0
  140.3330   76.5610  222.6330 O   0  0  0  0  0  0  0  0  0  0  0  0
  141.4560   76.7410  220.6160 N   0  0  0  0  0  0  0  0  0  0  0  0
  141.6940   78.1670  220.7170 C   0  0  0  0  0  0  0  0  0  0  0  0
  141.1470   78.7530  219.4340 C   0  0  0  0  0  0  0  0  0  0  0  0
  142.0340   78.3220  218.3040 C   0  0  0  0  0  0  0  0  0  0  0  0
  142.8820   77.1550  218.7080 C   0  0  0  0  0  0  0  0  0  0  0  0
  142.1000   76.0840  219.4620 C   0  0  1  0  0  0  0  0  0  0  0  0
  143.0570   75.0480  219.8910 C   0  0  0  0  0  0  0  0  0  0  0  0
  144.3770   75.2650  220.1030 N   0  0  0  0  0  0  0  0  0  0  0  0
  144.9200   74.1020  220.4780 C   0  0  0  0  0  0  0  0  0  0  0  0
  143.9160   73.1700  220.4940 C   0  0  0  0  0  0  0  0  0  0  0  0
  144.1210   71.8410  220.8410 O   0  0  0  0  0  0  0  0  0  0  0  0
  142.8260   73.7920  220.1340 O   0  0  0  0  0  0  0  0  0  0  0  0
  140.3800   71.6400  223.5190 C   0  0  0  0  0  0  0  0  0  0  0  0
  139.7000   70.4820  223.2500 C   0  0  0  0  0  0  0  0  0  0  0  0
  139.4170   69.5530  224.2350 C   0  0  0  0  0  0  0  0  0  0  0  0
  139.8430   69.8280  225.5160 C   0  0  0  0  0  0  0  0  0  0  0  0
  139.5520   68.8930  226.4840 C   0  0  0  0  0  0  0  0  0  0  0  0
  139.9670   69.1430  227.7720 C   0  0  0  0  0  0  0  0  0  0  0  0
  139.6670   68.2050  228.7070 F   0  0  0  0  0  0  0  0  0  0  0  0
  140.6560   70.3060  228.0680 C   0  0  0  0  0  0  0  0  0  0  0  0
  140.9310   71.2230  227.0750 C   0  0  0  0  0  0  0  0  0  0  0  0
  140.5320   71.0040  225.7860 C   0  0  0  0  0  0  0  0  0  0  0  0
  140.7850   71.8850  224.7780 N   0  0  0  0  0  0  0  0  0  0  0  0
  139.2370   74.1050  223.0440 H   0  0  0  0  0  0  0  0  0  0  0  0
  141.1143   74.1618  220.6403 H   0  0  0  0  0  0  0  0  0  0  0  0
  139.3791   74.7051  220.5366 H   0  0  0  0  0  0  0  0  0  0  0  0
  141.1671   78.5852  221.5873 H   0  0  0  0  0  0  0  0  0  0  0  0
  142.7613   78.3969  220.8514 H   0  0  0  0  0  0  0  0  0  0  0  0
  140.1238   78.3867  219.2643 H   0  0  0  0  0  0  0  0  0  0  0  0
  141.1222   79.8508  219.4990 H   0  0  0  0  0  0  0  0  0  0  0  0
  141.4097   78.0339  217.4453 H   0  0  0  0  0  0  0  0  0  0  0  0
  142.6934   79.1601  218.0343 H   0  0  0  0  0  0  0  0  0  0  0  0
  143.3113   76.7030  217.8017 H   0  0  0  0  0  0  0  0  0  0  0  0
  143.6611   77.5330  219.3863 H   0  0  0  0  0  0  0  0  0  0  0  0
  141.3245   75.6088  218.8434 H   0  0  0  0  0  0  0  0  0  0  0  0
  145.9768   73.9262  220.7274 H   0  0  0  0  0  0  0  0  0  0  0  0
  143.4190   71.2770  221.3080 H   0  0  0  0  0  0  0  0  0  0  0  0
  139.3689   70.2848  222.2197 H   0  0  0  0  0  0  0  0  0  0  0  0
  138.8707   68.6267  224.0035 H   0  0  0  0  0  0  0  0  0  0  0  0
  139.0035   67.9726  226.2349 H   0  0  0  0  0  0  0  0  0  0  0  0
  140.9857   70.5000  229.0993 H   0  0  0  0  0  0  0  0  0  0  0  0
  141.4792   72.1436  227.3239 H   0  0  0  0  0  0  0  0  0  0  0  0
  1  2  2  0
  2  3  1  0
  3  4  1  0
  4  5  1  0
  5  6  2  0
  5  7  1  0
  7  8  1  0
  8  9  1  0
  9 10  1  0
 10 11  1  0
 11 12  1  0
 12 13  1  0
 13 14  2  0
 14 15  1  0
 15 16  2  0
 16 17  1  0
 16 18  1  0
  2 19  1  0
 19 20  2  0
 20 21  1  0
 21 22  2  0
 22 23  1  0
 23 24  2  0
 24 25  1  0
 24 26  1  0
 26 27  2  0
 27 28  1  0
 28 29  2  0
 12  7  1  0
 18 13  1  0
 29 19  1  0
 28 22  1  0
  3 30  1  0
  4 31  1  0
  4 32  1  0
  8 33  1  0
  8 34  1  0
  9 35  1  0
  9 36  1  0
 10 37  1  0
 10 38  1  0
 11 39  1  0
 11 40  1  0
 12 41  1  6
 15 42  1  0
 17 43  1  0
 20 44  1  0
 21 45  1  0
 23 46  1  0
 26 47  1  0
 27 48  1  0
M  END
>  <smiles>  (47) 
O=C(NCC(=O)N1CCCC[C@H]1c1ncc(O)o1)c1ccc2cc(F)ccc2n1

>  <score_type>  (47) 
oracle

>  <origin>  (47) 
autodockgpu

>  <m_score__min__energy>  (47) 
-7.8899999999999997

>  <m_primary>  (47) 
energy

>  <rmsd>  (47) 
3.1955177849591965

>  <m_score__min__rmsd>  (47) 
3.1955177849591965

>  <meeko>  (47) 
{"free_energy": -7.13, "intermolecular_energy": -8.92, "internal_energy": -1.85, "cluster_size": 8, "cluster_id": 1, "rank_in_cluster": 8}

>  <energy>  (47) 
-6.02

>  <cluster_rmsd>  (47) 
0.78

>  <cluster>  (47) 
10

$$$$

     RDKit          3D

 48 51  0  0  0  0  0  0  0  0999 V2000
  137.1380   71.6100  221.2120 O   0  0  0  0  0  0  0  0  0  0  0  0
  137.8050   72.1430  222.1130 C   0  0  0  0  0  0  0  0  0  0  0  0
  138.0140   73.5670  221.9970 N   0  0  0  0  0  0  0  0  0  0  0  0
  137.4130   74.1930  220.8350 C   0  0  0  0  0  0  0  0  0  0  0  0
  138.0340   75.4900  220.5000 C   0  0  0  0  0  0  0  0  0  0  0  0
  137.9090   76.0560  219.3730 O   0  0  0  0  0  0  0  0  0  0  0  0
  138.8120   76.1260  221.5040 N   0  0  0  0  0  0  0  0  0  0  0  0
  138.2480   76.7080  222.7060 C   0  0  0  0  0  0  0  0  0  0  0  0
  138.6360   78.1700  222.6590 C   0  0  0  0  0  0  0  0  0  0  0  0
  140.1170   78.2710  222.8730 C   0  0  0  0  0  0  0  0  0  0  0  0
  140.7800   76.9470  222.6410 C   0  0  0  0  0  0  0  0  0  0  0  0
  140.2790   76.2430  221.3860 C   0  0  1  0  0  0  0  0  0  0  0  0
  140.9250   74.9200  221.3250 C   0  0  0  0  0  0  0  0  0  0  0  0
  141.9910   74.6230  220.5440 N   0  0  0  0  0  0  0  0  0  0  0  0
  142.2970   73.3370  220.7530 C   0  0  0  0  0  0  0  0  0  0  0  0
  141.4050   72.8510  221.6720 C   0  0  0  0  0  0  0  0  0  0  0  0
  141.4260   71.5400  222.1280 O   0  0  0  0  0  0  0  0  0  0  0  0
  140.6090   73.8400  221.9780 O   0  0  0  0  0  0  0  0  0  0  0  0
  138.3560   71.3920  223.2340 C   0  0  0  0  0  0  0  0  0  0  0  0
  137.7620   70.2020  223.5610 C   0  0  0  0  0  0  0  0  0  0  0  0
  138.2140   69.4200  224.6090 C   0  0  0  0  0  0  0  0  0  0  0  0
  139.2970   69.8770  225.3280 C   0  0  0  0  0  0  0  0  0  0  0  0
  139.7340   69.0870  226.3670 C   0  0  0  0  0  0  0  0  0  0  0  0
  140.8140   69.5200  227.1010 C   0  0  0  0  0  0  0  0  0  0  0  0
  141.2240   68.7230  228.1200 F   0  0  0  0  0  0  0  0  0  0  0  0
  141.4310   70.7180  226.7900 C   0  0  0  0  0  0  0  0  0  0  0  0
  140.9690   71.4880  225.7420 C   0  0  0  0  0  0  0  0  0  0  0  0
  139.8980   71.0850  224.9940 C   0  0  0  0  0  0  0  0  0  0  0  0
  139.4120   71.8150  223.9520 N   0  0  0  0  0  0  0  0  0  0  0  0
  138.5650   74.0920  222.7140 H   0  0  0  0  0  0  0  0  0  0  0  0
  137.5242   73.5171  219.9744 H   0  0  0  0  0  0  0  0  0  0  0  0
  136.3553   74.3825  221.0701 H   0  0  0  0  0  0  0  0  0  0  0  0
  137.1534   76.5994  222.7101 H   0  0  0  0  0  0  0  0  0  0  0  0
  138.6194   76.2132  223.6155 H   0  0  0  0  0  0  0  0  0  0  0  0
  138.3720   78.5936  221.6788 H   0  0  0  0  0  0  0  0  0  0  0  0
  138.1010   78.7295  223.4405 H   0  0  0  0  0  0  0  0  0  0  0  0
  140.5330   79.0102  222.1726 H   0  0  0  0  0  0  0  0  0  0  0  0
  140.3027   78.5810  223.9120 H   0  0  0  0  0  0  0  0  0  0  0  0
  141.8635   77.1097  222.5430 H   0  0  0  0  0  0  0  0  0  0  0  0
  140.5380   76.3026  223.4990 H   0  0  0  0  0  0  0  0  0  0  0  0
  140.5210   76.7933  220.4648 H   0  0  0  0  0  0  0  0  0  0  0  0
  143.1131   72.7748  220.2756 H   0  0  0  0  0  0  0  0  0  0  0  0
  140.5840   71.0100  222.3290 H   0  0  0  0  0  0  0  0  0  0  0  0
  136.8990   69.8574  222.9723 H   0  0  0  0  0  0  0  0  0  0  0  0
  137.7258   68.4666  224.8595 H   0  0  0  0  0  0  0  0  0  0  0  0
  139.2338   68.1363  226.6038 H   0  0  0  0  0  0  0  0  0  0  0  0
  142.2941   71.0588  227.3807 H   0  0  0  0  0  0  0  0  0  0  0  0
  141.4692   72.4387  225.5054 H   0  0  0  0  0  0  0  0  0  0  0  0
  1  2  2  0
  2  3  1  0
  3  4  1  0
  4  5  1  0
  5  6  2  0
  5  7  1  0
  7  8  1  0
  8  9  1  0
  9 10  1  0
 10 11  1  0
 11 12  1  0
 12 13  1  0
 13 14  2  0
 14 15  1  0
 15 16  2  0
 16 17  1  0
 16 18  1  0
  2 19  1  0
 19 20  2  0
 20 21  1  0
 21 22  2  0
 22 23  1  0
 23 24  2  0
 24 25  1  0
 24 26  1  0
 26 27  2  0
 27 28  1  0
 28 29  2  0
 12  7  1  0
 18 13  1  0
 29 19  1  0
 28 22  1  0
  3 30  1  0
  4 31  1  0
  4 32  1  0
  8 33  1  0
  8 34  1  0
  9 35  1  0
  9 36  1  0
 10 37  1  0
 10 38  1  0
 11 39  1  0
 11 40  1  0
 12 41  1  6
 15 42  1  0
 17 43  1  0
 20 44  1  0
 21 45  1  0
 23 46  1  0
 26 47  1  0
 27 48  1  0
M  END
>  <smiles>  (48) 
O=C(NCC(=O)N1CCCC[C@H]1c1ncc(O)o1)c1ccc2cc(F)ccc2n1

>  <score_type>  (48) 
oracle

>  <origin>  (48) 
autodockgpu

>  <m_score__min__energy>  (48) 
-7.8899999999999997

>  <m_primary>  (48) 
energy

>  <rmsd>  (48) 
3.47003388759538

>  <m_score__min__rmsd>  (48) 
3.47003388759538

>  <meeko>  (48) 
{"free_energy": -5.9, "intermolecular_energy": -7.69, "internal_energy": -3.22, "cluster_size": 7, "cluster_id": 10, "rank_in_cluster": 5}

>  <energy>  (48) 
-5.9

>  <cluster_rmsd>  (48) 
0.56

>  <cluster>  (48) 
10

$$$$

     RDKit          3D

 48 51  0  0  0  0  0  0  0  0999 V2000
  141.1920   74.8980  218.9590 O   0  0  0  0  0  0  0  0  0  0  0  0
  141.1780   74.8130  220.1960 C   0  0  0  0  0  0  0  0  0  0  0  0
  141.8360   75.8780  220.9180 N   0  0  0  0  0  0  0  0  0  0  0  0
  142.4300   76.9130  220.0960 C   0  0  0  0  0  0  0  0  0  0  0  0
  141.6700   78.1780  220.1320 C   0  0  0  0  0  0  0  0  0  0  0  0
  141.1030   78.6830  219.1170 O   0  0  0  0  0  0  0  0  0  0  0  0
  141.5770   78.8550  221.3770 N   0  0  0  0  0  0  0  0  0  0  0  0
  141.7440   80.2870  221.5250 C   0  0  0  0  0  0  0  0  0  0  0  0
  142.9130   80.4550  222.4710 C   0  0  0  0  0  0  0  0  0  0  0  0
  142.4830   80.0030  223.8350 C   0  0  0  0  0  0  0  0  0  0  0  0
  141.2450   79.1620  223.7520 C   0  0  0  0  0  0  0  0  0  0  0  0
  141.3020   78.1290  222.6320 C   0  0  1  0  0  0  0  0  0  0  0  0
  139.9990   77.4420  222.5880 C   0  0  0  0  0  0  0  0  0  0  0  0
  138.8020   78.0620  222.7240 N   0  0  0  0  0  0  0  0  0  0  0  0
  137.8520   77.1240  222.6310 C   0  0  0  0  0  0  0  0  0  0  0  0
  138.4820   75.9240  222.4360 C   0  0  0  0  0  0  0  0  0  0  0  0
  137.7990   74.7240  222.2950 O   0  0  0  0  0  0  0  0  0  0  0  0
  139.7630   76.1740  222.4190 O   0  0  0  0  0  0  0  0  0  0  0  0
  140.5400   73.7090  220.9040 C   0  0  0  0  0  0  0  0  0  0  0  0
  139.5450   73.0260  220.2570 C   0  0  0  0  0  0  0  0  0  0  0  0
  138.8820   71.9650  220.8460 C   0  0  0  0  0  0  0  0  0  0  0  0
  139.2550   71.6070  222.1240 C   0  0  0  0  0  0  0  0  0  0  0  0
  138.5840   70.5490  222.6960 C   0  0  0  0  0  0  0  0  0  0  0  0
  138.9370   70.1710  223.9720 C   0  0  0  0  0  0  0  0  0  0  0  0
  138.2600   69.1260  224.5120 F   0  0  0  0  0  0  0  0  0  0  0  0
  139.9400   70.8460  224.6440 C   0  0  0  0  0  0  0  0  0  0  0  0
  140.5920   71.9030  224.0430 C   0  0  0  0  0  0  0  0  0  0  0  0
  140.2640   72.3020  222.7780 C   0  0  0  0  0  0  0  0  0  0  0  0
  140.8850   73.3400  222.1500 N   0  0  0  0  0  0  0  0  0  0  0  0
  141.8700   75.8810  221.9640 H   0  0  0  0  0  0  0  0  0  0  0  0
  143.4510   77.1059  220.4570 H   0  0  0  0  0  0  0  0  0  0  0  0
  142.4261   76.5535  219.0564 H   0  0  0  0  0  0  0  0  0  0  0  0
  141.9647   80.7520  220.5529 H   0  0  0  0  0  0  0  0  0  0  0  0
  140.8328   80.7695  221.9081 H   0  0  0  0  0  0  0  0  0  0  0  0
  143.7608   79.8445  222.1268 H   0  0  0  0  0  0  0  0  0  0  0  0
  143.2272   81.5087  222.5022 H   0  0  0  0  0  0  0  0  0  0  0  0
  143.2910   79.4113  224.2901 H   0  0  0  0  0  0  0  0  0  0  0  0
  142.2658   80.8902  224.4480 H   0  0  0  0  0  0  0  0  0  0  0  0
  141.1140   78.6352  224.7087 H   0  0  0  0  0  0  0  0  0  0  0  0
  140.4027   79.8358  223.5363 H   0  0  0  0  0  0  0  0  0  0  0  0
  142.0889   77.3763  222.7880 H   0  0  0  0  0  0  0  0  0  0  0  0
  136.7662   77.2869  222.6987 H   0  0  0  0  0  0  0  0  0  0  0  0
  137.7480   74.0260  223.0300 H   0  0  0  0  0  0  0  0  0  0  0  0
  139.2646   73.3306  219.2379 H   0  0  0  0  0  0  0  0  0  0  0  0
  138.0849   71.4255  220.3134 H   0  0  0  0  0  0  0  0  0  0  0  0
  137.7889   70.0211  222.1491 H   0  0  0  0  0  0  0  0  0  0  0  0
  140.2192   70.5386  225.6626 H   0  0  0  0  0  0  0  0  0  0  0  0
  141.3867   72.4317  224.5897 H   0  0  0  0  0  0  0  0  0  0  0  0
  1  2  2  0
  2  3  1  0
  3  4  1  0
  4  5  1  0
  5  6  2  0
  5  7  1  0
  7  8  1  0
  8  9  1  0
  9 10  1  0
 10 11  1  0
 11 12  1  0
 12 13  1  0
 13 14  2  0
 14 15  1  0
 15 16  2  0
 16 17  1  0
 16 18  1  0
  2 19  1  0
 19 20  2  0
 20 21  1  0
 21 22  2  0
 22 23  1  0
 23 24  2  0
 24 25  1  0
 24 26  1  0
 26 27  2  0
 27 28  1  0
 28 29  2  0
 12  7  1  0
 18 13  1  0
 29 19  1  0
 28 22  1  0
  3 30  1  0
  4 31  1  0
  4 32  1  0
  8 33  1  0
  8 34  1  0
  9 35  1  0
  9 36  1  0
 10 37  1  0
 10 38  1  0
 11 39  1  0
 11 40  1  0
 12 41  1  1
 15 42  1  0
 17 43  1  0
 20 44  1  0
 21 45  1  0
 23 46  1  0
 26 47  1  0
 27 48  1  0
M  END
>  <smiles>  (49) 
O=C(NCC(=O)N1CCCC[C@H]1c1ncc(O)o1)c1ccc2cc(F)ccc2n1

>  <score_type>  (49) 
oracle

>  <origin>  (49) 
autodockgpu

>  <m_score__min__energy>  (49) 
-7.8899999999999997

>  <m_primary>  (49) 
energy

>  <rmsd>  (49) 
5.0711437349684845

>  <m_score__min__rmsd>  (49) 
5.0711437349684845

>  <meeko>  (49) 
{"free_energy": -6.5, "intermolecular_energy": -8.29, "internal_energy": -2.54, "cluster_size": 2, "cluster_id": 9, "rank_in_cluster": 1}

>  <energy>  (49) 
-5.86

>  <cluster_rmsd>  (49) 
0.79

>  <cluster>  (49) 
10

$$$$

     RDKit          3D

 48 51  0  0  0  0  0  0  0  0999 V2000
  142.2310   77.8780  217.1590 O   0  0  0  0  0  0  0  0  0  0  0  0
  142.6580   77.4530  218.2430 C   0  0  0  0  0  0  0  0  0  0  0  0
  142.4540   78.3070  219.3900 N   0  0  0  0  0  0  0  0  0  0  0  0
  141.7730   79.5590  219.1220 C   0  0  0  0  0  0  0  0  0  0  0  0
  140.6660   79.8190  220.0630 C   0  0  0  0  0  0  0  0  0  0  0  0
  139.4770   80.0580  219.6960 O   0  0  0  0  0  0  0  0  0  0  0  0
  140.9640   79.7990  221.4510 N   0  0  0  0  0  0  0  0  0  0  0  0
  140.5430   80.8330  222.3760 C   0  0  0  0  0  0  0  0  0  0  0  0
  141.8230   81.3870  222.9630 C   0  0  0  0  0  0  0  0  0  0  0  0
  142.4280   80.3380  223.8490 C   0  0  0  0  0  0  0  0  0  0  0  0
  141.8450   78.9900  223.5520 C   0  0  0  0  0  0  0  0  0  0  0  0
  141.7430   78.7020  222.0590 C   0  0  1  0  0  0  0  0  0  0  0  0
  141.0660   77.4020  221.8980 C   0  0  0  0  0  0  0  0  0  0  0  0
  141.5530   76.3700  221.1680 N   0  0  0  0  0  0  0  0  0  0  0  0
  140.6720   75.3670  221.2540 C   0  0  0  0  0  0  0  0  0  0  0  0
  139.6400   75.7980  222.0450 C   0  0  0  0  0  0  0  0  0  0  0  0
  138.5400   75.0090  222.3510 O   0  0  0  0  0  0  0  0  0  0  0  0
  139.9290   77.0200  222.4010 O   0  0  0  0  0  0  0  0  0  0  0  0
  143.3300   76.1660  218.3750 C   0  0  0  0  0  0  0  0  0  0  0  0
  143.4810   75.4050  217.2470 C   0  0  0  0  0  0  0  0  0  0  0  0
  144.1050   74.1710  217.2730 C   0  0  0  0  0  0  0  0  0  0  0  0
  144.5790   73.7190  218.4860 C   0  0  0  0  0  0  0  0  0  0  0  0
  145.1970   72.4890  218.4940 C   0  0  0  0  0  0  0  0  0  0  0  0
  145.6800   72.0140  219.6920 C   0  0  0  0  0  0  0  0  0  0  0  0
  146.2840   70.7990  219.6720 F   0  0  0  0  0  0  0  0  0  0  0  0
  145.5400   72.7650  220.8450 C   0  0  0  0  0  0  0  0  0  0  0  0
  144.9150   73.9950  220.8030 C   0  0  0  0  0  0  0  0  0  0  0  0
  144.4240   74.4930  219.6290 C   0  0  0  0  0  0  0  0  0  0  0  0
  143.8010   75.7020  219.5460 N   0  0  0  0  0  0  0  0  0  0  0  0
  142.7840   78.0220  220.3410 H   0  0  0  0  0  0  0  0  0  0  0  0
  142.5015   80.3795  219.2005 H   0  0  0  0  0  0  0  0  0  0  0  0
  141.3416   79.4927  218.1123 H   0  0  0  0  0  0  0  0  0  0  0  0
  139.9887   81.6218  221.8463 H   0  0  0  0  0  0  0  0  0  0  0  0
  139.8712   80.4399  223.1533 H   0  0  0  0  0  0  0  0  0  0  0  0
  142.5241   81.6401  222.1540 H   0  0  0  0  0  0  0  0  0  0  0  0
  141.6109   82.2969  223.5435 H   0  0  0  0  0  0  0  0  0  0  0  0
  143.5145   80.3062  223.6802 H   0  0  0  0  0  0  0  0  0  0  0  0
  142.2106   80.5931  224.8967 H   0  0  0  0  0  0  0  0  0  0  0  0
  142.4830   78.2224  224.0144 H   0  0  0  0  0  0  0  0  0  0  0  0
  140.8239   78.9755  223.9608 H   0  0  0  0  0  0  0  0  0  0  0  0
  142.7262   78.6482  221.5687 H   0  0  0  0  0  0  0  0  0  0  0  0
  140.7600   74.3793  220.7778 H   0  0  0  0  0  0  0  0  0  0  0  0
  138.5670   74.2670  223.0430 H   0  0  0  0  0  0  0  0  0  0  0  0
  143.0942   75.7867  216.2906 H   0  0  0  0  0  0  0  0  0  0  0  0
  144.2190   73.5713  216.3579 H   0  0  0  0  0  0  0  0  0  0  0  0
  145.3018   71.9025  217.5693 H   0  0  0  0  0  0  0  0  0  0  0  0
  145.9284   72.3804  221.7996 H   0  0  0  0  0  0  0  0  0  0  0  0
  144.8107   74.5824  221.7272 H   0  0  0  0  0  0  0  0  0  0  0  0
  1  2  2  0
  2  3  1  0
  3  4  1  0
  4  5  1  0
  5  6  2  0
  5  7  1  0
  7  8  1  0
  8  9  1  0
  9 10  1  0
 10 11  1  0
 11 12  1  0
 12 13  1  0
 13 14  2  0
 14 15  1  0
 15 16  2  0
 16 17  1  0
 16 18  1  0
  2 19  1  0
 19 20  2  0
 20 21  1  0
 21 22  2  0
 22 23  1  0
 23 24  2  0
 24 25  1  0
 24 26  1  0
 26 27  2  0
 27 28  1  0
 28 29  2  0
 12  7  1  0
 18 13  1  0
 29 19  1  0
 28 22  1  0
  3 30  1  0
  4 31  1  0
  4 32  1  0
  8 33  1  0
  8 34  1  0
  9 35  1  0
  9 36  1  0
 10 37  1  0
 10 38  1  0
 11 39  1  0
 11 40  1  0
 12 41  1  6
 15 42  1  0
 17 43  1  0
 20 44  1  0
 21 45  1  0
 23 46  1  0
 26 47  1  0
 27 48  1  0
M  END
>  <smiles>  (50) 
O=C(NCC(=O)N1CCCC[C@H]1c1ncc(O)o1)c1ccc2cc(F)ccc2n1

>  <score_type>  (50) 
oracle

>  <origin>  (50) 
autodockgpu

>  <m_score__min__energy>  (50) 
-7.8899999999999997

>  <m_primary>  (50) 
energy

>  <rmsd>  (50) 
7.746469612212498

>  <m_score__min__rmsd>  (50) 
7.746469612212498

>  <meeko>  (50) 
{"free_energy": -6.73, "intermolecular_energy": -8.52, "internal_energy": -2.2, "cluster_size": 7, "cluster_id": 4, "rank_in_cluster": 5}

>  <energy>  (50) 
-5.86

>  <cluster_rmsd>  (50) 
0.53

>  <cluster>  (50) 
10

$$$$
